=
 OpenBabel11032421273D

 34 37  0  0  1  0  0  0  0  0999 V2000
  184.1950  178.5760  143.3670 C   0  0  2  0  0  3  0  0  0  0  0  0
  183.3740  179.1080  145.3010 N   0  0  0  0  0  2  0  0  0  0  0  0
  182.9830  179.3120  143.9060 C   0  0  2  0  0  3  0  0  0  0  0  0
  184.5510  178.3720  144.8420 C   0  0  2  0  0  3  0  0  0  0  0  0
  187.0080  178.2900  144.8670 N   0  0  0  0  0  2  0  0  0  0  0  0
  185.8390  179.0400  145.3340 C   0  0  2  0  0  3  0  0  0  0  0  0
  187.6450  177.8900  145.9140 C   0  0  0  0  0  0  0  0  0  0  0  0
  187.0370  178.2620  147.0790 C   0  0  0  0  0  0  0  0  0  0  0  0
  185.9400  178.9550  146.8350 C   0  0  0  0  0  2  0  0  0  0  0  0
  187.5750  177.9080  148.3110 C   0  0  0  0  0  3  0  0  0  0  0  0
  188.8260  177.1450  145.9190 C   0  0  0  0  0  0  0  0  0  0  0  0
  188.7300  177.1800  148.3280 N   0  0  0  0  0  0  0  0  0  0  0  0
  189.3600  176.7950  147.1750 C   0  0  0  0  0  3  0  0  0  0  0  0
  190.8280  176.9180  144.4860 C   0  0  0  0  0  1  0  0  0  0  0  0
  189.4330  176.7700  144.7160 O   0  0  0  0  0  0  0  0  0  0  0  0
  179.2640  177.1460  141.3600 O   0  0  0  0  0  0  0  0  0  0  0  0
  179.6590  178.4890  141.9110 S   0  0  0  0  0  0  0  0  0  0  0  0
  181.6700  178.5940  143.5690 C   0  0  1  0  0  3  0  0  0  0  0  0
  179.0920  179.6000  141.0760 O   0  0  0  0  0  0  0  0  0  0  0  0
  179.1910  178.6540  143.6030 C   0  0  0  0  0  2  0  0  0  0  0  0
  180.4420  179.1520  144.3070 C   0  0  0  0  0  2  0  0  0  0  0  0
  181.4100  178.6360  142.0720 C   0  0  0  0  0  2  0  0  0  0  0  0
  185.1220  179.4790  142.5280 C   0  0  0  0  0  2  0  0  0  0  0  0
  185.6930  178.8280  141.2690 C   0  0  0  0  0  2  0  0  0  0  0  0
  187.1790  178.5770  141.4420 C   0  0  0  0  0  2  0  0  0  0  0  0
  187.8070  178.5610  140.1950 O   0  0  0  0  0  0  0  0  0  0  0  0
  188.7140  177.5050  140.2710 C   0  0  0  0  0  2  0  0  0  0  0  0
  189.8450  177.7240  139.2770 C   0  0  1  0  0  3  0  0  0  0  0  0
  191.9380  177.5670  140.6270 C   0  0  0  0  0  1  0  0  0  0  0  0
  191.0300  176.8460  139.6490 C   0  0  0  0  0  2  0  0  0  0  0  0
  189.3950  177.4000  137.9660 O   0  0  0  0  0  0  0  0  0  0  0  0
  188.8740  178.0650  135.8300 O   0  0  0  0  0  0  0  0  0  0  0  0
  188.9650  179.7200  137.4130 O   0  0  0  0  0  1  0  0  0  0  0  0
  189.0730  178.3860  137.0300 C   0  0  0  0  0  0  0  0  0  0  0  0
  1 23  1  6  0  0  0
  1  3  1  0  0  0  0
  1  4  1  0  0  0  0
  3  2  1  1  0  0  0
  4  2  1  1  0  0  0
  4  6  1  0  0  0  0
  5  6  1  0  0  0  0
  5  7  1  0  0  0  0
  6  9  1  1  0  0  0
  7 11  2  0  0  0  0
  7  8  1  0  0  0  0
  8 10  2  0  0  0  0
  9  8  1  0  0  0  0
 10 12  1  0  0  0  0
 11 13  1  0  0  0  0
 13 12  2  0  0  0  0
 14 15  1  0  0  0  0
 15 11  1  0  0  0  0
 16 17  2  0  0  0  0
 17 22  1  0  0  0  0
 17 20  1  0  0  0  0
 18 22  1  6  0  0  0
 18  3  1  0  0  0  0
 18 21  1  0  0  0  0
 19 17  2  0  0  0  0
 20 21  1  0  0  0  0
 24 25  1  0  0  0  0
 24 23  1  0  0  0  0
 26 27  1  0  0  0  0
 26 25  1  0  0  0  0
 28 30  1  1  0  0  0
 28 27  1  0  0  0  0
 30 29  1  0  0  0  0
 31 28  1  0  0  0  0
 32 34  2  0  0  0  0
 34 33  1  0  0  0  0
 34 31  1  0  0  0  0
M  END
>  <MODEL>
1

>  <REMARK>
 VINA RESULT:      -7.7      0.000      0.000
  Name = 
  12 active torsions:
  status: ('A' for Active; 'I' for Inactive)
    1  A    between atoms: C_1  and  C_4
    2  A    between atoms: C_1  and  C_30
    3  A    between atoms: O_5  and  C_10
    4  A    between atoms: O_5  and  C_24
    5  A    between atoms: C_6  and  C_21
    6  A    between atoms: C_10  and  C_30
    7  A    between atoms: C_12  and  C_16
    8  A    between atoms: O_15  and  C_28
    9  A    between atoms: C_17  and  O_19
   10  A    between atoms: C_17  and  C_24
   11  A    between atoms: C_17  and  C_31
   12  A    between atoms: O_19  and  C_32
                            x       y       z     vdW  Elec       q    Type
                         _______ _______ _______ _____ _____    ______ ____

>  <TORSDO>
F 12

$$$$
=
 OpenBabel11032421273D

 34 37  0  0  1  0  0  0  0  0999 V2000
  188.8080  177.1720  142.5840 C   0  0  2  0  0  3  0  0  0  0  0  0
  190.9510  177.3760  142.8360 N   0  0  0  0  0  2  0  0  0  0  0  0
  189.7660  177.7800  143.5920 C   0  0  2  0  0  3  0  0  0  0  0  0
  190.0800  176.7540  141.8400 C   0  0  2  0  0  3  0  0  0  0  0  0
  189.7330  176.5160  139.4170 N   0  0  0  0  0  2  0  0  0  0  0  0
  190.2990  177.3780  140.4580 C   0  0  2  0  0  3  0  0  0  0  0  0
  190.7030  176.1690  138.6420 C   0  0  0  0  0  0  0  0  0  0  0  0
  191.9060  176.6800  139.0370 C   0  0  0  0  0  0  0  0  0  0  0  0
  191.7680  177.4190  140.1220 C   0  0  0  0  0  2  0  0  0  0  0  0
  193.0680  176.4020  138.3270 C   0  0  0  0  0  3  0  0  0  0  0  0
  190.5980  175.3520  137.5150 C   0  0  0  0  0  0  0  0  0  0  0  0
  192.9770  175.6050  137.2230 N   0  0  0  0  0  0  0  0  0  0  0  0
  191.7840  175.0800  136.8050 C   0  0  0  0  0  3  0  0  0  0  0  0
  189.1630  173.4570  136.8300 C   0  0  0  0  0  1  0  0  0  0  0  0
  189.3580  174.8330  137.1270 O   0  0  0  0  0  0  0  0  0  0  0  0
  188.2190  176.3590  148.1310 O   0  0  0  0  0  0  0  0  0  0  0  0
  189.1060  177.3860  147.4800 S   0  0  0  0  0  0  0  0  0  0  0  0
  189.6920  177.0820  144.9560 C   0  0  1  0  0  3  0  0  0  0  0  0
  189.1540  178.6460  148.2930 O   0  0  0  0  0  0  0  0  0  0  0  0
  190.7230  176.7480  147.1870 C   0  0  0  0  0  2  0  0  0  0  0  0
  191.0170  177.0830  145.7350 C   0  0  0  0  0  2  0  0  0  0  0  0
  188.6100  177.7130  145.8180 C   0  0  0  0  0  2  0  0  0  0  0  0
  187.9000  178.2200  141.9110 C   0  0  0  0  0  2  0  0  0  0  0  0
  186.4350  178.1820  142.3450 C   0  0  0  0  0  2  0  0  0  0  0  0
  185.5570  178.7820  141.2640 C   0  0  0  0  0  2  0  0  0  0  0  0
  186.2950  178.9490  140.0900 O   0  0  0  0  0  0  0  0  0  0  0  0
  185.4240  178.5720  139.0690 C   0  0  0  0  0  2  0  0  0  0  0  0
  186.1990  177.8730  137.9620 C   0  0  1  0  0  3  0  0  0  0  0  0
  183.8000  177.3880  137.4710 C   0  0  0  0  0  1  0  0  0  0  0  0
  185.2360  177.0990  137.0740 C   0  0  0  0  0  2  0  0  0  0  0  0
  186.8990  178.8410  137.1880 O   0  0  0  0  0  0  0  0  0  0  0  0
  188.9770  179.4890  137.9220 O   0  0  0  0  0  1  0  0  0  0  0  0
  188.9330  178.1250  136.0800 O   0  0  0  0  0  0  0  0  0  0  0  0
  188.2920  178.8400  137.0890 C   0  0  0  0  0  0  0  0  0  0  0  0
  1 23  1  6  0  0  0
  1  3  1  0  0  0  0
  3  2  1  6  0  0  0
  3 18  1  0  0  0  0
  4  1  1  0  0  0  0
  4  2  1  1  0  0  0
  5  6  1  0  0  0  0
  6  9  1  6  0  0  0
  6  4  1  0  0  0  0
  7  8  1  0  0  0  0
  7  5  1  0  0  0  0
  8  9  1  0  0  0  0
 10  8  2  0  0  0  0
 11  7  2  0  0  0  0
 12 10  1  0  0  0  0
 13 12  2  0  0  0  0
 13 11  1  0  0  0  0
 14 15  1  0  0  0  0
 15 11  1  0  0  0  0
 17 16  2  0  0  0  0
 17 19  2  0  0  0  0
 18 21  1  1  0  0  0
 18 22  1  0  0  0  0
 20 17  1  0  0  0  0
 21 20  1  0  0  0  0
 22 17  1  0  0  0  0
 23 24  1  0  0  0  0
 25 24  1  0  0  0  0
 26 25  1  0  0  0  0
 27 26  1  0  0  0  0
 28 30  1  6  0  0  0
 28 27  1  0  0  0  0
 30 29  1  0  0  0  0
 31 28  1  0  0  0  0
 33 34  2  0  0  0  0
 34 31  1  0  0  0  0
 34 32  1  0  0  0  0
M  END
>  <MODEL>
2

>  <REMARK>
 VINA RESULT:      -7.6      4.083      7.853
  Name = 
  12 active torsions:
  status: ('A' for Active; 'I' for Inactive)
    1  A    between atoms: C_1  and  C_4
    2  A    between atoms: C_1  and  C_30
    3  A    between atoms: O_5  and  C_10
    4  A    between atoms: O_5  and  C_24
    5  A    between atoms: C_6  and  C_21
    6  A    between atoms: C_10  and  C_30
    7  A    between atoms: C_12  and  C_16
    8  A    between atoms: O_15  and  C_28
    9  A    between atoms: C_17  and  O_19
   10  A    between atoms: C_17  and  C_24
   11  A    between atoms: C_17  and  C_31
   12  A    between atoms: O_19  and  C_32
                            x       y       z     vdW  Elec       q    Type
                         _______ _______ _______ _____ _____    ______ ____

>  <TORSDO>
F 12

$$$$
=
 OpenBabel11032421273D

 34 37  0  0  1  0  0  0  0  0999 V2000
  189.0660  177.1680  142.4900 C   0  0  2  0  0  3  0  0  0  0  0  0
  191.2070  177.3710  142.7600 N   0  0  0  0  0  2  0  0  0  0  0  0
  190.0160  177.7650  143.5110 C   0  0  2  0  0  3  0  0  0  0  0  0
  190.3440  176.7610  141.7500 C   0  0  2  0  0  3  0  0  0  0  0  0
  189.9010  176.6190  139.3350 N   0  0  0  0  0  2  0  0  0  0  0  0
  190.5730  177.4010  140.3770 C   0  0  2  0  0  3  0  0  0  0  0  0
  190.8120  176.2110  138.5200 C   0  0  0  0  0  0  0  0  0  0  0  0
  192.0670  176.6060  138.8860 C   0  0  0  0  0  0  0  0  0  0  0  0
  192.0280  177.3240  139.9930 C   0  0  0  0  0  2  0  0  0  0  0  0
  193.1780  176.2480  138.1310 C   0  0  0  0  0  3  0  0  0  0  0  0
  190.6010  175.4360  137.3780 C   0  0  0  0  0  0  0  0  0  0  0  0
  192.9830  175.4920  137.0110 N   0  0  0  0  0  0  0  0  0  0  0  0
  191.7360  175.0830  136.6210 C   0  0  0  0  0  3  0  0  0  0  0  0
  188.9180  174.8380  135.6670 C   0  0  0  0  0  1  0  0  0  0  0  0
  189.3090  175.0370  137.0190 O   0  0  0  0  0  0  0  0  0  0  0  0
  188.4120  176.2530  148.0000 O   0  0  0  0  0  0  0  0  0  0  0  0
  189.2810  177.3120  147.3790 S   0  0  0  0  0  0  0  0  0  0  0  0
  189.9330  177.0520  144.8670 C   0  0  1  0  0  3  0  0  0  0  0  0
  189.2740  178.5650  148.2060 O   0  0  0  0  0  0  0  0  0  0  0  0
  190.9230  176.7260  147.1170 C   0  0  0  0  0  2  0  0  0  0  0  0
  191.2390  177.0850  145.6750 C   0  0  0  0  0  2  0  0  0  0  0  0
  188.8130  177.6420  145.7100 C   0  0  0  0  0  2  0  0  0  0  0  0
  188.1620  178.2240  141.8220 C   0  0  0  0  0  2  0  0  0  0  0  0
  186.7040  178.2110  142.2820 C   0  0  0  0  0  2  0  0  0  0  0  0
  185.8340  178.9320  141.2710 C   0  0  0  0  0  2  0  0  0  0  0  0
  184.5470  179.0990  141.7850 O   0  0  0  0  0  0  0  0  0  0  0  0
  184.7370  179.3310  143.1460 C   0  0  0  0  0  2  0  0  0  0  0  0
  183.5640  178.7670  143.9340 C   0  0  1  0  0  3  0  0  0  0  0  0
  185.3530  179.0300  145.6550 C   0  0  0  0  0  1  0  0  0  0  0  0
  183.8650  178.8450  145.4230 C   0  0  0  0  0  2  0  0  0  0  0  0
  182.3890  179.5130  143.6380 O   0  0  0  0  0  0  0  0  0  0  0  0
  181.0050  178.7450  141.9730 O   0  0  0  0  0  0  0  0  0  0  0  0
  180.2680  178.4450  144.1220 O   0  0  0  0  0  1  0  0  0  0  0  0
  181.2130  178.8980  143.2050 C   0  0  0  0  0  0  0  0  0  0  0  0
  1 23  1  6  0  0  0
  1  3  1  0  0  0  0
  3  2  1  6  0  0  0
  3 18  1  0  0  0  0
  4  1  1  0  0  0  0
  4  2  1  1  0  0  0
  5  6  1  0  0  0  0
  6  9  1  6  0  0  0
  6  4  1  0  0  0  0
  7  8  1  0  0  0  0
  7  5  1  0  0  0  0
  8  9  1  0  0  0  0
 10  8  2  0  0  0  0
 11  7  2  0  0  0  0
 12 10  1  0  0  0  0
 13 12  2  0  0  0  0
 13 11  1  0  0  0  0
 14 15  1  0  0  0  0
 15 11  1  0  0  0  0
 17 16  2  0  0  0  0
 17 19  2  0  0  0  0
 18 21  1  1  0  0  0
 18 22  1  0  0  0  0
 20 17  1  0  0  0  0
 21 20  1  0  0  0  0
 22 17  1  0  0  0  0
 23 24  1  0  0  0  0
 25 26  1  0  0  0  0
 25 24  1  0  0  0  0
 26 27  1  0  0  0  0
 28 27  1  6  0  0  0
 28 30  1  0  0  0  0
 30 29  1  0  0  0  0
 31 28  1  0  0  0  0
 32 34  2  0  0  0  0
 34 31  1  0  0  0  0
 34 33  1  0  0  0  0
M  END
>  <MODEL>
3

>  <REMARK>
 VINA RESULT:      -7.6      3.612      8.881
  Name = 
  12 active torsions:
  status: ('A' for Active; 'I' for Inactive)
    1  A    between atoms: C_1  and  C_4
    2  A    between atoms: C_1  and  C_30
    3  A    between atoms: O_5  and  C_10
    4  A    between atoms: O_5  and  C_24
    5  A    between atoms: C_6  and  C_21
    6  A    between atoms: C_10  and  C_30
    7  A    between atoms: C_12  and  C_16
    8  A    between atoms: O_15  and  C_28
    9  A    between atoms: C_17  and  O_19
   10  A    between atoms: C_17  and  C_24
   11  A    between atoms: C_17  and  C_31
   12  A    between atoms: O_19  and  C_32
                            x       y       z     vdW  Elec       q    Type
                         _______ _______ _______ _____ _____    ______ ____

>  <TORSDO>
F 12

$$$$
=
 OpenBabel11032421273D

 34 37  0  0  1  0  0  0  0  0999 V2000
  189.0760  177.0480  142.4530 C   0  0  2  0  0  3  0  0  0  0  0  0
  191.1750  177.4520  142.8130 N   0  0  0  0  0  2  0  0  0  0  0  0
  189.9190  177.7470  143.5030 C   0  0  2  0  0  3  0  0  0  0  0  0
  190.4190  176.7470  141.7800 C   0  0  2  0  0  3  0  0  0  0  0  0
  189.9890  176.5930  139.3630 N   0  0  0  0  0  2  0  0  0  0  0  0
  190.6520  177.3820  140.4050 C   0  0  2  0  0  3  0  0  0  0  0  0
  190.9060  176.1860  138.5540 C   0  0  0  0  0  0  0  0  0  0  0  0
  192.1570  176.5880  138.9250 C   0  0  0  0  0  0  0  0  0  0  0  0
  192.1090  177.3110  140.0280 C   0  0  0  0  0  2  0  0  0  0  0  0
  193.2730  176.2310  138.1770 C   0  0  0  0  0  3  0  0  0  0  0  0
  190.7040  175.4050  137.4140 C   0  0  0  0  0  0  0  0  0  0  0  0
  193.0870  175.4700  137.0590 N   0  0  0  0  0  0  0  0  0  0  0  0
  191.8440  175.0530  136.6650 C   0  0  0  0  0  3  0  0  0  0  0  0
  188.7320  175.5370  135.9280 C   0  0  0  0  0  1  0  0  0  0  0  0
  189.4160  174.9980  137.0510 O   0  0  0  0  0  0  0  0  0  0  0  0
  188.3290  176.3030  148.0190 O   0  0  0  0  0  0  0  0  0  0  0  0
  189.2010  177.3490  147.3800 S   0  0  0  0  0  0  0  0  0  0  0  0
  189.8390  177.0530  144.8680 C   0  0  1  0  0  3  0  0  0  0  0  0
  189.2040  178.6130  148.1900 O   0  0  0  0  0  0  0  0  0  0  0  0
  190.8390  176.7510  147.1180 C   0  0  0  0  0  2  0  0  0  0  0  0
  191.1500  177.0890  145.6700 C   0  0  0  0  0  2  0  0  0  0  0  0
  188.7270  177.6590  145.7090 C   0  0  0  0  0  2  0  0  0  0  0  0
  188.1110  178.0040  141.7230 C   0  0  0  0  0  2  0  0  0  0  0  0
  186.7330  178.1480  142.3670 C   0  0  0  0  0  2  0  0  0  0  0  0
  185.7940  178.8800  141.4270 C   0  0  0  0  0  2  0  0  0  0  0  0
  184.8860  179.6440  142.1630 O   0  0  0  0  0  0  0  0  0  0  0  0
  183.8440  178.7660  142.4580 C   0  0  0  0  0  2  0  0  0  0  0  0
  183.2580  179.1010  143.8220 C   0  0  1  0  0  3  0  0  0  0  0  0
  181.2220  179.0130  142.3810 C   0  0  0  0  0  1  0  0  0  0  0  0
  181.7520  178.8880  143.7980 C   0  0  0  0  0  2  0  0  0  0  0  0
  183.8490  178.2650  144.8120 O   0  0  0  0  0  0  0  0  0  0  0  0
  185.6520  179.5570  145.4090 O   0  0  0  0  0  0  0  0  0  0  0  0
  184.6320  178.3960  147.1010 O   0  0  0  0  0  1  0  0  0  0  0  0
  184.7420  178.7630  145.7630 C   0  0  0  0  0  0  0  0  0  0  0  0
  1 23  1  6  0  0  0
  1  3  1  0  0  0  0
  3  2  1  6  0  0  0
  3 18  1  0  0  0  0
  4  1  1  0  0  0  0
  4  2  1  1  0  0  0
  5  6  1  0  0  0  0
  6  9  1  6  0  0  0
  6  4  1  0  0  0  0
  7  8  1  0  0  0  0
  7  5  1  0  0  0  0
  8  9  1  0  0  0  0
 10  8  2  0  0  0  0
 11  7  2  0  0  0  0
 12 10  1  0  0  0  0
 13 12  2  0  0  0  0
 13 11  1  0  0  0  0
 14 15  1  0  0  0  0
 15 11  1  0  0  0  0
 17 16  2  0  0  0  0
 17 19  2  0  0  0  0
 18 21  1  1  0  0  0
 18 22  1  0  0  0  0
 20 17  1  0  0  0  0
 21 20  1  0  0  0  0
 22 17  1  0  0  0  0
 23 24  1  0  0  0  0
 25 26  1  0  0  0  0
 25 24  1  0  0  0  0
 26 27  1  0  0  0  0
 28 27  1  6  0  0  0
 28 31  1  0  0  0  0
 29 30  1  0  0  0  0
 30 28  1  0  0  0  0
 31 34  1  0  0  0  0
 32 34  2  0  0  0  0
 34 33  1  0  0  0  0
M  END
>  <MODEL>
4

>  <REMARK>
 VINA RESULT:      -7.6      3.804      8.950
  Name = 
  12 active torsions:
  status: ('A' for Active; 'I' for Inactive)
    1  A    between atoms: C_1  and  C_4
    2  A    between atoms: C_1  and  C_30
    3  A    between atoms: O_5  and  C_10
    4  A    between atoms: O_5  and  C_24
    5  A    between atoms: C_6  and  C_21
    6  A    between atoms: C_10  and  C_30
    7  A    between atoms: C_12  and  C_16
    8  A    between atoms: O_15  and  C_28
    9  A    between atoms: C_17  and  O_19
   10  A    between atoms: C_17  and  C_24
   11  A    between atoms: C_17  and  C_31
   12  A    between atoms: O_19  and  C_32
                            x       y       z     vdW  Elec       q    Type
                         _______ _______ _______ _____ _____    ______ ____

>  <TORSDO>
F 12

$$$$
=
 OpenBabel11032421273D

 34 37  0  0  1  0  0  0  0  0999 V2000
  184.2590  178.5110  143.3760 C   0  0  2  0  0  3  0  0  0  0  0  0
  183.4320  179.1120  145.2870 N   0  0  0  0  0  2  0  0  0  0  0  0
  183.0510  179.2760  143.8850 C   0  0  2  0  0  3  0  0  0  0  0  0
  184.6040  178.3500  144.8590 C   0  0  2  0  0  3  0  0  0  0  0  0
  187.0620  178.2710  144.8620 N   0  0  0  0  0  2  0  0  0  0  0  0
  185.8960  179.0210  145.3370 C   0  0  2  0  0  3  0  0  0  0  0  0
  187.7090  177.8750  145.9040 C   0  0  0  0  0  0  0  0  0  0  0  0
  187.1100  178.2490  147.0740 C   0  0  0  0  0  0  0  0  0  0  0  0
  186.0110  178.9400  146.8380 C   0  0  0  0  0  2  0  0  0  0  0  0
  187.6600  177.8980  148.3020 C   0  0  0  0  0  3  0  0  0  0  0  0
  188.8900  177.1310  145.9010 C   0  0  0  0  0  0  0  0  0  0  0  0
  188.8160  177.1720  148.3100 N   0  0  0  0  0  0  0  0  0  0  0  0
  189.4360  176.7850  147.1530 C   0  0  0  0  0  3  0  0  0  0  0  0
  190.7980  177.1620  144.3280 C   0  0  0  0  0  1  0  0  0  0  0  0
  189.4870  176.7530  144.6940 O   0  0  0  0  0  0  0  0  0  0  0  0
  179.2850  177.1440  141.3780 O   0  0  0  0  0  0  0  0  0  0  0  0
  179.6890  178.4780  141.9450 S   0  0  0  0  0  0  0  0  0  0  0  0
  181.7330  178.5600  143.5620 C   0  0  1  0  0  3  0  0  0  0  0  0
  179.1020  179.6010  141.1410 O   0  0  0  0  0  0  0  0  0  0  0  0
  179.2550  178.6130  143.6480 C   0  0  0  0  0  2  0  0  0  0  0  0
  180.5190  179.1010  144.3340 C   0  0  0  0  0  2  0  0  0  0  0  0
  181.4420  178.6270  142.0720 C   0  0  0  0  0  2  0  0  0  0  0  0
  185.1990  179.3780  142.5150 C   0  0  0  0  0  2  0  0  0  0  0  0
  185.6550  178.7350  141.2060 C   0  0  0  0  0  2  0  0  0  0  0  0
  184.6410  179.0080  140.1120 C   0  0  0  0  0  2  0  0  0  0  0  0
  185.2960  179.2210  138.8980 O   0  0  0  0  0  0  0  0  0  0  0  0
  185.0980  178.0440  138.1780 C   0  0  0  0  0  2  0  0  0  0  0  0
  186.4230  177.5590  137.6070 C   0  0  1  0  0  3  0  0  0  0  0  0
  186.8400  177.8820  135.1680 C   0  0  0  0  0  1  0  0  0  0  0  0
  186.2010  176.9880  136.2150 C   0  0  0  0  0  2  0  0  0  0  0  0
  187.3400  178.6460  137.5440 O   0  0  0  0  0  0  0  0  0  0  0  0
  189.5950  178.2110  137.5190 O   0  0  0  0  0  0  0  0  0  0  0  0
  188.7320  178.9730  139.5010 O   0  0  0  0  0  1  0  0  0  0  0  0
  188.5880  178.5960  138.1680 C   0  0  0  0  0  0  0  0  0  0  0  0
  1 23  1  6  0  0  0
  1  3  1  0  0  0  0
  1  4  1  0  0  0  0
  3  2  1  1  0  0  0
  4  2  1  1  0  0  0
  4  6  1  0  0  0  0
  5  6  1  0  0  0  0
  5  7  1  0  0  0  0
  6  9  1  1  0  0  0
  7  8  1  0  0  0  0
  8 10  2  0  0  0  0
  9  8  1  0  0  0  0
 10 12  1  0  0  0  0
 11  7  2  0  0  0  0
 11 13  1  0  0  0  0
 13 12  2  0  0  0  0
 14 15  1  0  0  0  0
 15 11  1  0  0  0  0
 16 17  2  0  0  0  0
 17 22  1  0  0  0  0
 17 20  1  0  0  0  0
 18 22  1  6  0  0  0
 18  3  1  0  0  0  0
 18 21  1  0  0  0  0
 19 17  2  0  0  0  0
 20 21  1  0  0  0  0
 24 23  1  0  0  0  0
 25 24  1  0  0  0  0
 26 25  1  0  0  0  0
 27 26  1  0  0  0  0
 28 30  1  6  0  0  0
 28 27  1  0  0  0  0
 29 30  1  0  0  0  0
 31 28  1  0  0  0  0
 31 34  1  0  0  0  0
 32 34  2  0  0  0  0
 34 33  1  0  0  0  0
M  END
>  <MODEL>
5

>  <REMARK>
 VINA RESULT:      -7.6      1.296      2.144
  Name = 
  12 active torsions:
  status: ('A' for Active; 'I' for Inactive)
    1  A    between atoms: C_1  and  C_4
    2  A    between atoms: C_1  and  C_30
    3  A    between atoms: O_5  and  C_10
    4  A    between atoms: O_5  and  C_24
    5  A    between atoms: C_6  and  C_21
    6  A    between atoms: C_10  and  C_30
    7  A    between atoms: C_12  and  C_16
    8  A    between atoms: O_15  and  C_28
    9  A    between atoms: C_17  and  O_19
   10  A    between atoms: C_17  and  C_24
   11  A    between atoms: C_17  and  C_31
   12  A    between atoms: O_19  and  C_32
                            x       y       z     vdW  Elec       q    Type
                         _______ _______ _______ _____ _____    ______ ____

>  <TORSDO>
F 12

$$$$
=
 OpenBabel11032421273D

 34 37  0  0  1  0  0  0  0  0999 V2000
  185.8180  178.2260  142.4210 C   0  0  2  0  0  3  0  0  0  0  0  0
  186.0820  178.7040  140.3240 N   0  0  0  0  0  2  0  0  0  0  0  0
  186.9420  178.6730  141.5060 C   0  0  2  0  0  3  0  0  0  0  0  0
  184.9630  178.2550  141.1510 C   0  0  2  0  0  3  0  0  0  0  0  0
  182.6460  178.7380  141.8170 N   0  0  0  0  0  2  0  0  0  0  0  0
  183.8180  179.2730  141.1200 C   0  0  2  0  0  3  0  0  0  0  0  0
  181.6860  178.6820  140.9590 C   0  0  0  0  0  0  0  0  0  0  0  0
  182.0620  179.1040  139.7150 C   0  0  0  0  0  0  0  0  0  0  0  0
  183.3290  179.4770  139.7100 C   0  0  0  0  0  2  0  0  0  0  0  0
  181.1610  179.1020  138.6570 C   0  0  0  0  0  3  0  0  0  0  0  0
  180.3870  178.2360  141.2100 C   0  0  0  0  0  0  0  0  0  0  0  0
  179.8870  178.6700  138.8920 N   0  0  0  0  0  0  0  0  0  0  0  0
  179.4840  178.2420  140.1280 C   0  0  0  0  0  3  0  0  0  0  0  0
  180.1400  178.6300  143.6390 C   0  0  0  0  0  1  0  0  0  0  0  0
  180.0200  177.8040  142.4880 O   0  0  0  0  0  0  0  0  0  0  0  0
  190.7450  175.6160  142.6030 O   0  0  0  0  0  0  0  0  0  0  0  0
  190.4900  176.9910  142.0490 S   0  0  0  0  0  0  0  0  0  0  0  0
  188.0460  177.6150  141.3830 C   0  0  1  0  0  3  0  0  0  0  0  0
  191.6230  177.9200  142.3750 O   0  0  0  0  0  0  0  0  0  0  0  0
  190.1800  176.9400  140.3150 C   0  0  0  0  0  2  0  0  0  0  0  0
  188.9120  177.7540  140.1210 C   0  0  0  0  0  2  0  0  0  0  0  0
  188.9470  177.6410  142.6080 C   0  0  0  0  0  2  0  0  0  0  0  0
  185.4940  179.2550  143.5230 C   0  0  0  0  0  2  0  0  0  0  0  0
  184.7350  178.6980  144.7260 C   0  0  0  0  0  2  0  0  0  0  0  0
  185.6630  178.5890  145.9210 C   0  0  0  0  0  2  0  0  0  0  0  0
  186.9820  178.4390  145.4860 O   0  0  0  0  0  0  0  0  0  0  0  0
  187.5360  177.5040  146.3580 C   0  0  0  0  0  2  0  0  0  0  0  0
  189.0060  177.8230  146.5900 C   0  0  1  0  0  3  0  0  0  0  0  0
  187.9990  178.0990  148.8570 C   0  0  0  0  0  1  0  0  0  0  0  0
  189.2860  177.8800  148.0840 C   0  0  0  0  0  2  0  0  0  0  0  0
  189.8130  176.8190  145.9840 O   0  0  0  0  0  0  0  0  0  0  0  0
  191.8440  175.9240  146.5760 O   0  0  0  0  0  1  0  0  0  0  0  0
  191.9030  177.9350  145.4770 O   0  0  0  0  0  0  0  0  0  0  0  0
  191.2070  176.8640  146.0310 C   0  0  0  0  0  0  0  0  0  0  0  0
  1 23  1  1  0  0  0
  3  2  1  6  0  0  0
  3  1  1  0  0  0  0
  4  2  1  6  0  0  0
  4  1  1  0  0  0  0
  6  9  1  6  0  0  0
  6  4  1  0  0  0  0
  6  5  1  0  0  0  0
  7 11  1  0  0  0  0
  7  5  1  0  0  0  0
  8  7  2  0  0  0  0
  9  8  1  0  0  0  0
 10 12  2  0  0  0  0
 10  8  1  0  0  0  0
 11 15  1  0  0  0  0
 12 13  1  0  0  0  0
 13 11  2  0  0  0  0
 15 14  1  0  0  0  0
 17 19  2  0  0  0  0
 17 16  2  0  0  0  0
 17 22  1  0  0  0  0
 18 21  1  6  0  0  0
 18  3  1  0  0  0  0
 18 22  1  0  0  0  0
 20 17  1  0  0  0  0
 21 20  1  0  0  0  0
 23 24  1  0  0  0  0
 24 25  1  0  0  0  0
 26 25  1  0  0  0  0
 26 27  1  0  0  0  0
 28 27  1  1  0  0  0
 28 30  1  0  0  0  0
 30 29  1  0  0  0  0
 31 34  1  0  0  0  0
 31 28  1  0  0  0  0
 33 34  2  0  0  0  0
 34 32  1  0  0  0  0
M  END
>  <MODEL>
6

>  <REMARK>
 VINA RESULT:      -7.2      3.458      8.581
  Name = 
  12 active torsions:
  status: ('A' for Active; 'I' for Inactive)
    1  A    between atoms: C_1  and  C_4
    2  A    between atoms: C_1  and  C_30
    3  A    between atoms: O_5  and  C_10
    4  A    between atoms: O_5  and  C_24
    5  A    between atoms: C_6  and  C_21
    6  A    between atoms: C_10  and  C_30
    7  A    between atoms: C_12  and  C_16
    8  A    between atoms: O_15  and  C_28
    9  A    between atoms: C_17  and  O_19
   10  A    between atoms: C_17  and  C_24
   11  A    between atoms: C_17  and  C_31
   12  A    between atoms: O_19  and  C_32
                            x       y       z     vdW  Elec       q    Type
                         _______ _______ _______ _____ _____    ______ ____

>  <TORSDO>
F 12

$$$$
=
 OpenBabel11032421273D

 34 37  0  0  1  0  0  0  0  0999 V2000
  185.0870  178.2200  142.6030 C   0  0  2  0  0  3  0  0  0  0  0  0
  185.7350  179.1540  140.7580 N   0  0  0  0  0  2  0  0  0  0  0  0
  186.1860  179.1620  142.1490 C   0  0  2  0  0  3  0  0  0  0  0  0
  184.6660  178.2300  141.1300 C   0  0  2  0  0  3  0  0  0  0  0  0
  182.2610  177.7900  140.8670 N   0  0  0  0  0  2  0  0  0  0  0  0
  183.2920  178.8300  140.8160 C   0  0  2  0  0  3  0  0  0  0  0  0
  181.7250  177.7280  139.6960 C   0  0  0  0  0  0  0  0  0  0  0  0
  182.2830  178.6050  138.8110 C   0  0  0  0  0  0  0  0  0  0  0  0
  183.2380  179.3110  139.3880 C   0  0  0  0  0  2  0  0  0  0  0  0
  181.8400  178.6700  137.4940 C   0  0  0  0  0  3  0  0  0  0  0  0
  180.6920  176.8700  139.3130 C   0  0  0  0  0  0  0  0  0  0  0  0
  180.8300  177.8370  137.1090 N   0  0  0  0  0  0  0  0  0  0  0  0
  180.2530  176.9490  137.9770 C   0  0  0  0  0  3  0  0  0  0  0  0
  180.0510  174.5780  139.9860 C   0  0  0  0  0  1  0  0  0  0  0  0
  180.1340  175.9760  140.2320 O   0  0  0  0  0  0  0  0  0  0  0  0
  190.9190  177.8180  141.2510 O   0  0  0  0  0  0  0  0  0  0  0  0
  189.5160  177.3070  141.0630 S   0  0  0  0  0  0  0  0  0  0  0  0
  187.5810  178.5420  142.3020 C   0  0  1  0  0  3  0  0  0  0  0  0
  189.4230  176.4310  139.8490 O   0  0  0  0  0  0  0  0  0  0  0  0
  188.9350  176.4740  142.5030 C   0  0  0  0  0  2  0  0  0  0  0  0
  187.5700  177.0820  142.7820 C   0  0  0  0  0  2  0  0  0  0  0  0
  188.3480  178.6280  140.9920 C   0  0  0  0  0  2  0  0  0  0  0  0
  184.1270  178.8650  143.6230 C   0  0  0  0  0  2  0  0  0  0  0  0
  184.7880  179.3710  144.9040 C   0  0  0  0  0  2  0  0  0  0  0  0
  185.5720  178.2510  145.5610 C   0  0  0  0  0  2  0  0  0  0  0  0
  186.9080  178.6290  145.7080 O   0  0  0  0  0  0  0  0  0  0  0  0
  187.5130  177.5470  146.3460 C   0  0  0  0  0  2  0  0  0  0  0  0
  188.9840  177.8490  146.5930 C   0  0  1  0  0  3  0  0  0  0  0  0
  187.9290  177.8610  148.8550 C   0  0  0  0  0  1  0  0  0  0  0  0
  189.2210  178.0500  148.0820 C   0  0  0  0  0  2  0  0  0  0  0  0
  189.7780  176.7680  146.1180 O   0  0  0  0  0  0  0  0  0  0  0  0
  191.5880  177.5460  144.9370 O   0  0  0  0  0  0  0  0  0  0  0  0
  192.0550  176.3060  146.8070 O   0  0  0  0  0  1  0  0  0  0  0  0
  191.1540  176.8920  145.9220 C   0  0  0  0  0  0  0  0  0  0  0  0
  1 23  1  1  0  0  0
  3  2  1  6  0  0  0
  3 18  1  0  0  0  0
  3  1  1  0  0  0  0
  4  2  1  6  0  0  0
  4  1  1  0  0  0  0
  6  9  1  6  0  0  0
  6  5  1  0  0  0  0
  6  4  1  0  0  0  0
  7  5  1  0  0  0  0
  8  9  1  0  0  0  0
  8  7  2  0  0  0  0
 10  8  1  0  0  0  0
 11  7  1  0  0  0  0
 11 15  1  0  0  0  0
 12 10  2  0  0  0  0
 12 13  1  0  0  0  0
 13 11  2  0  0  0  0
 14 15  1  0  0  0  0
 17 16  2  0  0  0  0
 17 20  1  0  0  0  0
 18 22  1  6  0  0  0
 18 21  1  0  0  0  0
 19 17  2  0  0  0  0
 20 21  1  0  0  0  0
 22 17  1  0  0  0  0
 23 24  1  0  0  0  0
 24 25  1  0  0  0  0
 25 26  1  0  0  0  0
 26 27  1  0  0  0  0
 28 27  1  1  0  0  0
 28 30  1  0  0  0  0
 30 29  1  0  0  0  0
 31 28  1  0  0  0  0
 32 34  2  0  0  0  0
 34 31  1  0  0  0  0
 34 33  1  0  0  0  0
M  END
>  <MODEL>
7

>  <REMARK>
 VINA RESULT:      -7.1      3.427      8.549
  Name = 
  12 active torsions:
  status: ('A' for Active; 'I' for Inactive)
    1  A    between atoms: C_1  and  C_4
    2  A    between atoms: C_1  and  C_30
    3  A    between atoms: O_5  and  C_10
    4  A    between atoms: O_5  and  C_24
    5  A    between atoms: C_6  and  C_21
    6  A    between atoms: C_10  and  C_30
    7  A    between atoms: C_12  and  C_16
    8  A    between atoms: O_15  and  C_28
    9  A    between atoms: C_17  and  O_19
   10  A    between atoms: C_17  and  C_24
   11  A    between atoms: C_17  and  C_31
   12  A    between atoms: O_19  and  C_32
                            x       y       z     vdW  Elec       q    Type
                         _______ _______ _______ _____ _____    ______ ____

>  <TORSDO>
F 12

$$$$
=
 OpenBabel11032421273D

 34 37  0  0  1  0  0  0  0  0999 V2000
  186.5220  179.0140  142.4160 C   0  0  2  0  0  3  0  0  0  0  0  0
  184.6820  178.1310  143.1430 N   0  0  0  0  0  2  0  0  0  0  0  0
  186.0980  178.0280  143.4890 C   0  0  2  0  0  3  0  0  0  0  0  0
  185.0250  179.1010  142.1050 C   0  0  2  0  0  3  0  0  0  0  0  0
  183.9300  179.6830  139.9810 N   0  0  0  0  0  2  0  0  0  0  0  0
  184.5840  178.6030  140.7240 C   0  0  2  0  0  3  0  0  0  0  0  0
  182.7260  179.2970  139.7320 C   0  0  0  0  0  0  0  0  0  0  0  0
  182.4500  178.0600  140.2400 C   0  0  0  0  0  0  0  0  0  0  0  0
  183.5040  177.5600  140.8580 C   0  0  0  0  0  2  0  0  0  0  0  0
  181.1940  177.4850  140.0790 C   0  0  0  0  0  3  0  0  0  0  0  0
  181.7600  180.0260  139.0350 C   0  0  0  0  0  0  0  0  0  0  0  0
  180.2430  178.1880  139.3970 N   0  0  0  0  0  0  0  0  0  0  0  0
  180.4930  179.4300  138.8780 C   0  0  0  0  0  3  0  0  0  0  0  0
  181.2230  181.9560  137.5850 C   0  0  0  0  0  1  0  0  0  0  0  0
  182.0590  181.2940  138.5250 O   0  0  0  0  0  0  0  0  0  0  0  0
  188.3590  178.9720  147.8490 O   0  0  0  0  0  0  0  0  0  0  0  0
  187.4190  177.9770  147.2260 S   0  0  0  0  0  0  0  0  0  0  0  0
  186.3810  178.5530  144.9030 C   0  0  1  0  0  3  0  0  0  0  0  0
  187.5740  176.6240  147.8570 O   0  0  0  0  0  0  0  0  0  0  0  0
  185.7480  178.5330  147.3010 C   0  0  0  0  0  2  0  0  0  0  0  0
  185.2160  178.3630  145.8880 C   0  0  0  0  0  2  0  0  0  0  0  0
  187.6260  177.8950  145.4750 C   0  0  0  0  0  2  0  0  0  0  0  0
  187.4370  178.3820  141.3480 C   0  0  0  0  0  2  0  0  0  0  0  0
  188.2870  177.2100  141.8360 C   0  0  0  0  0  2  0  0  0  0  0  0
  189.6380  177.2240  141.1460 C   0  0  0  0  0  2  0  0  0  0  0  0
  190.5270  176.3880  141.8240 O   0  0  0  0  0  0  0  0  0  0  0  0
  190.0500  176.3530  143.1340 C   0  0  0  0  0  2  0  0  0  0  0  0
  191.1680  176.7160  144.1000 C   0  0  1  0  0  3  0  0  0  0  0  0
  191.0370  179.2070  144.0090 C   0  0  0  0  0  1  0  0  0  0  0  0
  191.8570  177.9880  143.6300 C   0  0  0  0  0  2  0  0  0  0  0  0
  190.6260  176.9130  145.4020 O   0  0  0  0  0  0  0  0  0  0  0  0
  190.9290  176.9290  147.6780 O   0  0  0  0  0  1  0  0  0  0  0  0
  192.3870  175.6370  146.4710 O   0  0  0  0  0  0  0  0  0  0  0  0
  191.3040  176.5070  146.5530 C   0  0  0  0  0  0  0  0  0  0  0  0
  1 23  1  6  0  0  0
  1  3  1  0  0  0  0
  3  2  1  1  0  0  0
  3 18  1  0  0  0  0
  4  1  1  0  0  0  0
  4  2  1  1  0  0  0
  5  6  1  0  0  0  0
  6  9  1  1  0  0  0
  6  4  1  0  0  0  0
  7  5  1  0  0  0  0
  7  8  1  0  0  0  0
  8  9  1  0  0  0  0
 10  8  2  0  0  0  0
 11  7  2  0  0  0  0
 12 10  1  0  0  0  0
 13 11  1  0  0  0  0
 13 12  2  0  0  0  0
 14 15  1  0  0  0  0
 15 11  1  0  0  0  0
 17 20  1  0  0  0  0
 17 16  2  0  0  0  0
 17 19  2  0  0  0  0
 18 22  1  1  0  0  0
 18 21  1  0  0  0  0
 21 20  1  0  0  0  0
 22 17  1  0  0  0  0
 23 24  1  0  0  0  0
 25 26  1  0  0  0  0
 25 24  1  0  0  0  0
 26 27  1  0  0  0  0
 28 27  1  6  0  0  0
 28 31  1  0  0  0  0
 30 29  1  0  0  0  0
 30 28  1  0  0  0  0
 31 34  1  0  0  0  0
 33 34  2  0  0  0  0
 34 32  1  0  0  0  0
M  END
>  <MODEL>
8

>  <REMARK>
 VINA RESULT:      -7.0      3.539      7.844
  Name = 
  12 active torsions:
  status: ('A' for Active; 'I' for Inactive)
    1  A    between atoms: C_1  and  C_4
    2  A    between atoms: C_1  and  C_30
    3  A    between atoms: O_5  and  C_10
    4  A    between atoms: O_5  and  C_24
    5  A    between atoms: C_6  and  C_21
    6  A    between atoms: C_10  and  C_30
    7  A    between atoms: C_12  and  C_16
    8  A    between atoms: O_15  and  C_28
    9  A    between atoms: C_17  and  O_19
   10  A    between atoms: C_17  and  C_24
   11  A    between atoms: C_17  and  C_31
   12  A    between atoms: O_19  and  C_32
                            x       y       z     vdW  Elec       q    Type
                         _______ _______ _______ _____ _____    ______ ____

>  <TORSDO>
F 12

$$$$
=
 OpenBabel11032421273D

 34 37  0  0  1  0  0  0  0  0999 V2000
  183.8160  178.1490  141.1150 C   0  0  2  0  0  3  0  0  0  0  0  0
  182.5680  178.8870  142.7270 N   0  0  0  0  0  2  0  0  0  0  0  0
  182.4840  178.8590  141.2670 C   0  0  2  0  0  3  0  0  0  0  0  0
  183.8480  178.1850  142.6460 C   0  0  2  0  0  3  0  0  0  0  0  0
  186.1750  178.2000  143.4430 N   0  0  0  0  0  2  0  0  0  0  0  0
  184.9660  179.0140  143.2860 C   0  0  2  0  0  3  0  0  0  0  0  0
  186.4410  178.1540  144.7040 C   0  0  0  0  0  0  0  0  0  0  0  0
  185.5340  178.8370  145.4620 C   0  0  0  0  0  0  0  0  0  0  0  0
  184.6050  179.3870  144.7010 C   0  0  0  0  0  2  0  0  0  0  0  0
  185.6530  178.8880  146.8460 C   0  0  0  0  0  3  0  0  0  0  0  0
  187.5180  177.4860  145.2890 C   0  0  0  0  0  0  0  0  0  0  0  0
  186.7030  178.2390  147.4300 N   0  0  0  0  0  0  0  0  0  0  0  0
  187.6270  177.5480  146.6930 C   0  0  0  0  0  3  0  0  0  0  0  0
  189.7500  177.2680  144.2480 C   0  0  0  0  0  1  0  0  0  0  0  0
  188.4360  176.7880  144.4970 O   0  0  0  0  0  0  0  0  0  0  0  0
  179.8340  175.1310  139.2440 O   0  0  0  0  0  0  0  0  0  0  0  0
  180.4490  176.4510  138.8650 S   0  0  0  0  0  0  0  0  0  0  0  0
  181.3090  178.0010  140.7780 C   0  0  1  0  0  3  0  0  0  0  0  0
  180.8500  176.4600  137.4190 O   0  0  0  0  0  0  0  0  0  0  0  0
  179.3730  177.7950  139.2420 C   0  0  0  0  0  2  0  0  0  0  0  0
  180.2390  178.7850  140.0030 C   0  0  0  0  0  2  0  0  0  0  0  0
  181.8110  176.8580  139.9110 C   0  0  0  0  0  2  0  0  0  0  0  0
  184.8630  178.9910  140.3590 C   0  0  0  0  0  2  0  0  0  0  0  0
  184.6430  179.0950  138.8510 C   0  0  0  0  0  2  0  0  0  0  0  0
  185.6670  178.2500  138.1170 C   0  0  0  0  0  2  0  0  0  0  0  0
  186.9330  178.4500  138.6710 O   0  0  0  0  0  0  0  0  0  0  0  0
  187.8150  177.8890  137.7480 C   0  0  0  0  0  2  0  0  0  0  0  0
  189.1260  177.5380  138.4350 C   0  0  1  0  0  3  0  0  0  0  0  0
  190.2900  177.4450  140.6410 C   0  0  0  0  0  1  0  0  0  0  0  0
  189.0540  177.9260  139.9040 C   0  0  0  0  0  2  0  0  0  0  0  0
  189.3660  176.1400  138.3150 O   0  0  0  0  0  0  0  0  0  0  0  0
  190.7430  176.2090  136.4770 O   0  0  0  0  0  0  0  0  0  0  0  0
  191.1170  174.5030  137.9610 O   0  0  0  0  0  1  0  0  0  0  0  0
  190.4190  175.6340  137.5490 C   0  0  0  0  0  0  0  0  0  0  0  0
  1 23  1  6  0  0  0
  1  3  1  0  0  0  0
  1  4  1  0  0  0  0
  3  2  1  1  0  0  0
  4  2  1  6  0  0  0
  4  6  1  0  0  0  0
  5  7  1  0  0  0  0
  6  5  1  0  0  0  0
  6  9  1  1  0  0  0
  7 11  2  0  0  0  0
  7  8  1  0  0  0  0
  8 10  2  0  0  0  0
  9  8  1  0  0  0  0
 10 12  1  0  0  0  0
 11 13  1  0  0  0  0
 13 12  2  0  0  0  0
 14 15  1  0  0  0  0
 15 11  1  0  0  0  0
 17 20  1  0  0  0  0
 17 16  2  0  0  0  0
 17 22  1  0  0  0  0
 18 22  1  6  0  0  0
 18  3  1  0  0  0  0
 19 17  2  0  0  0  0
 20 21  1  0  0  0  0
 21 18  1  0  0  0  0
 24 23  1  0  0  0  0
 25 26  1  0  0  0  0
 25 24  1  0  0  0  0
 27 26  1  0  0  0  0
 28 27  1  6  0  0  0
 28 30  1  0  0  0  0
 30 29  1  0  0  0  0
 31 28  1  0  0  0  0
 32 34  2  0  0  0  0
 34 33  1  0  0  0  0
 34 31  1  0  0  0  0
M  END
>  <MODEL>
9

>  <REMARK>
 VINA RESULT:      -6.9      2.120      2.813
  Name = 
  12 active torsions:
  status: ('A' for Active; 'I' for Inactive)
    1  A    between atoms: C_1  and  C_4
    2  A    between atoms: C_1  and  C_30
    3  A    between atoms: O_5  and  C_10
    4  A    between atoms: O_5  and  C_24
    5  A    between atoms: C_6  and  C_21
    6  A    between atoms: C_10  and  C_30
    7  A    between atoms: C_12  and  C_16
    8  A    between atoms: O_15  and  C_28
    9  A    between atoms: C_17  and  O_19
   10  A    between atoms: C_17  and  C_24
   11  A    between atoms: C_17  and  C_31
   12  A    between atoms: O_19  and  C_32
                            x       y       z     vdW  Elec       q    Type
                         _______ _______ _______ _____ _____    ______ ____

>  <TORSDO>
F 12

$$$$
