=
 OpenBabel11032420223D

 55 58  0  0  1  0  0  0  0  0999 V2000
  187.6340  178.5800  141.3510 S   0  0  0  0  0  0  0  0  0  0  0  0
  186.5770  178.2160  138.9810 N   0  0  0  0  0  0  0  0  0  0  0  0
  188.1720  177.1500  140.3590 C   0  0  1  0  0  3  0  0  0  0  0  0
  186.4000  178.8470  140.0940 C   0  0  0  0  0  0  0  0  0  0  0  0
  187.8070  177.4540  138.9000 C   0  0  2  0  0  3  0  0  0  0  0  0
  188.8130  178.2680  138.1120 C   0  0  0  0  0  0  0  0  0  0  0  0
  189.0900  179.4560  138.4420 O   0  0  0  0  0  0  0  0  0  0  0  0
  189.4110  177.6920  136.8850 C   0  0  0  0  0  0  0  0  0  0  0  0
  189.2790  178.2920  135.7890 O   0  0  0  0  0  0  0  0  0  0  0  0
  190.2050  176.4180  136.9000 C   0  0  1  0  0  3  0  0  0  0  0  0
  190.4240  175.8840  135.4920 C   0  0  0  0  0  1  0  0  0  0  0  0
  191.5190  176.6080  137.6400 C   0  0  0  0  0  2  0  0  0  0  0  0
  192.0200  175.3690  138.0450 O   0  0  0  0  0  1  0  0  0  0  0  0
  184.0490  179.4400  139.9810 N   0  0  0  0  0  0  0  0  0  0  0  0
  185.2540  179.6760  140.3460 N   0  0  0  0  0  0  0  0  0  0  0  0
  183.8200  178.4730  137.8670 O   0  0  0  0  0  1  0  0  0  0  0  0
  183.6070  178.2680  139.2290 C   0  0  2  0  0  3  0  0  0  0  0  0
  182.1220  177.9590  139.4980 C   0  0  2  0  0  3  0  0  0  0  0  0
  181.5130  178.8490  140.6120 C   0  0  2  0  0  3  0  0  0  0  0  0
  180.7090  178.1140  141.6560 C   0  0  0  0  0  2  0  0  0  0  0  0
  180.6780  179.9540  140.1170 N   0  0  0  0  0  0  0  0  0  0  0  0
  179.8770  179.2090  142.2820 C   0  0  0  0  0  2  0  0  0  0  0  0
  179.8650  180.3440  141.2660 C   0  0  0  0  0  2  0  0  0  0  0  0
  179.7380  179.4810  139.1010 C   0  0  0  0  0  2  0  0  0  0  0  0
  179.7150  180.4570  137.9410 C   0  0  0  0  0  2  0  0  0  0  0  0
  181.0990  181.0200  137.7260 C   0  0  0  0  0  2  0  0  0  0  0  0
  181.2680  183.4820  137.7450 N   0  0  0  0  0  0  0  0  0  0  0  0
  181.0130  182.3420  137.0430 C   0  0  0  0  0  0  0  0  0  0  0  0
  180.4540  181.2750  134.9290 O   0  0  0  0  0  1  0  0  0  0  0  0
  180.7060  182.4200  135.6750 C   0  0  0  0  0  0  0  0  0  0  0  0
  180.6530  183.6730  135.0600 C   0  0  0  0  0  3  0  0  0  0  0  0
  181.2280  184.7080  137.1560 C   0  0  0  0  0  3  0  0  0  0  0  0
  180.9160  184.8270  135.7990 C   0  0  0  0  0  3  0  0  0  0  0  0
  181.8710  176.4570  139.7170 C   0  0  1  0  0  3  0  0  0  0  0  0
  180.6450  175.9950  138.9420 C   0  0  0  0  0  1  0  0  0  0  0  0
  182.6200  175.0460  138.1750 C   0  0  0  0  0  1  0  0  0  0  0  0
  182.9850  175.6870  139.3590 O   0  0  0  0  0  0  0  0  0  0  0  0
  189.5810  176.8510  140.5640 N   0  0  0  0  0  2  0  0  0  0  0  0
  190.0500  177.7290  141.5490 N   0  0  0  0  0  2  0  0  0  0  0  0
  191.3320  177.2130  142.0140 C   0  0  2  0  0  3  0  0  0  0  0  0
  191.3610  177.0660  143.5360 C   0  0  1  0  0  3  0  0  0  0  0  0
  192.0230  178.2530  142.8730 C   0  0  0  0  0  2  0  0  0  0  0  0
  190.1590  177.4740  144.1270 O   0  0  0  0  0  0  0  0  0  0  0  0
  190.1020  176.7900  145.3460 C   0  0  1  0  0  3  0  0  0  0  0  0
  191.0420  177.4350  146.3580 C   0  0  0  0  0  2  0  0  0  0  0  0
  192.3320  176.6150  148.1940 O   0  0  0  0  0  1  0  0  0  0  0  0
  192.1600  175.2030  146.3870 O   0  0  0  0  0  0  0  0  0  0  0  0
  191.8680  176.3970  147.0390 C   0  0  0  0  0  0  0  0  0  0  0  0
  188.6770  176.7890  145.8760 C   0  0  0  0  0  2  0  0  0  0  0  0
  188.3350  178.0470  146.3780 O   0  0  0  0  0  0  0  0  0  0  0  0
  186.9400  178.0530  146.3990 C   0  0  0  0  0  2  0  0  0  0  0  0
  186.4000  177.9140  144.9820 C   0  0  0  0  0  2  0  0  0  0  0  0
  184.2480  178.7160  145.9510 C   0  0  0  0  0  1  0  0  0  0  0  0
  185.1940  178.8150  144.7690 C   0  0  0  0  0  3  0  0  0  0  0  0
  184.4700  178.3970  143.5100 C   0  0  0  0  0  1  0  0  0  0  0  0
  2  4  2  0  0  0  0
  3 38  1  6  0  0  0
  3  1  1  0  0  0  0
  4 15  1  0  0  0  0
  4  1  1  0  0  0  0
  5  6  1  1  0  0  0
  5  2  1  0  0  0  0
  5  3  1  0  0  0  0
  6  7  2  0  0  0  0
  8 10  1  0  0  0  0
  8  6  1  0  0  0  0
  9  8  2  0  0  0  0
 10 11  1  6  0  0  0
 10 12  1  0  0  0  0
 12 13  1  0  0  0  0
 14 15  2  0  0  0  0
 17 16  1  6  0  0  0
 17 14  1  0  0  0  0
 18 17  1  1  0  0  0
 18 34  1  0  0  0  0
 19 18  1  6  0  0  0
 19 20  1  0  0  0  0
 20 22  1  0  0  0  0
 21 19  1  0  0  0  0
 21 23  1  0  0  0  0
 23 22  1  0  0  0  0
 24 21  1  0  0  0  0
 25 24  1  0  0  0  0
 26 25  1  0  0  0  0
 28 26  1  0  0  0  0
 28 27  2  0  0  0  0
 29 30  1  0  0  0  0
 30 28  1  0  0  0  0
 31 30  2  0  0  0  0
 31 33  1  0  0  0  0
 32 27  1  0  0  0  0
 33 32  2  0  0  0  0
 34 35  1  6  0  0  0
 36 37  1  0  0  0  0
 37 34  1  0  0  0  0
 38 39  1  0  0  0  0
 40 39  1  1  0  0  0
 40 42  1  0  0  0  0
 40 41  1  0  0  0  0
 41 43  1  1  0  0  0
 42 41  1  0  0  0  0
 43 44  1  0  0  0  0
 44 49  1  1  0  0  0
 44 45  1  0  0  0  0
 45 48  1  0  0  0  0
 47 48  2  0  0  0  0
 48 46  1  0  0  0  0
 49 50  1  0  0  0  0
 50 51  1  0  0  0  0
 52 51  1  0  0  0  0
 54 52  1  0  0  0  0
 54 53  1  0  0  0  0
 55 54  1  0  0  0  0
M  END
>  <MODEL>
1

>  <REMARK>
 VINA RESULT:      -6.5      0.000      0.000
  Name = 
  26 active torsions:
  status: ('A' for Active; 'I' for Inactive)
    1  A    between atoms: C_4  and  C_54
    2  A    between atoms: C_5  and  O_26
    3  A    between atoms: C_5  and  C_44
    4  A    between atoms: C_7  and  C_20
    5  A    between atoms: C_8  and  C_15
    6  A    between atoms: C_8  and  C_50
    7  A    between atoms: O_9  and  C_32
    8  A    between atoms: O_9  and  C_49
    9  A    between atoms: C_11  and  O_45
   10  A    between atoms: C_11  and  C_54
   11  A    between atoms: C_12  and  C_18
   12  A    between atoms: C_12  and  C_41
   13  A    between atoms: N_14  and  C_33
   14  A    between atoms: C_15  and  C_20
   15  A    between atoms: C_16  and  C_44
   16  A    between atoms: C_18  and  C_19
   17  A    between atoms: C_24  and  N_25
   18  A    between atoms: N_25  and  N_31
   19  A    between atoms: O_26  and  C_47
   20  A    between atoms: N_31  and  C_36
   21  A    between atoms: C_32  and  C_47
   22  A    between atoms: C_32  and  C_52
   23  A    between atoms: C_33  and  C_54
   24  A    between atoms: N_39  and  C_41
   25  A    between atoms: C_40  and  N_53
   26  A    between atoms: C_48  and  C_52
                            x       y       z     vdW  Elec       q    Type
                         _______ _______ _______ _____ _____    ______ ____

>  <TORSDO>
F 26

$$$$
=
 OpenBabel11032420223D

 55 58  0  0  1  0  0  0  0  0999 V2000
  188.5990  178.4670  140.2610 S   0  0  0  0  0  0  0  0  0  0  0  0
  187.9290  176.9030  138.2670 N   0  0  0  0  0  0  0  0  0  0  0  0
  189.2280  176.7580  140.2350 C   0  0  1  0  0  3  0  0  0  0  0  0
  187.5990  178.0020  138.8610 C   0  0  0  0  0  0  0  0  0  0  0  0
  189.1210  176.2630  138.7860 C   0  0  2  0  0  3  0  0  0  0  0  0
  190.2760  176.6100  137.8700 C   0  0  0  0  0  0  0  0  0  0  0  0
  190.3100  177.7130  137.2550 O   0  0  0  0  0  0  0  0  0  0  0  0
  191.3350  175.6030  137.6230 C   0  0  0  0  0  0  0  0  0  0  0  0
  191.0850  174.3840  137.7920 O   0  0  0  0  0  0  0  0  0  0  0  0
  192.7070  175.9820  137.1440 C   0  0  1  0  0  3  0  0  0  0  0  0
  193.7880  175.4200  138.0560 C   0  0  0  0  0  1  0  0  0  0  0  0
  192.9120  175.5550  135.6990 C   0  0  0  0  0  2  0  0  0  0  0  0
  193.5890  174.3350  135.6570 O   0  0  0  0  0  1  0  0  0  0  0  0
  185.4670  178.3920  137.7700 N   0  0  0  0  0  0  0  0  0  0  0  0
  186.4650  178.7900  138.4670 N   0  0  0  0  0  0  0  0  0  0  0  0
  185.7130  177.0040  135.9060 O   0  0  0  0  0  1  0  0  0  0  0  0
  185.2930  177.0440  137.2340 C   0  0  2  0  0  3  0  0  0  0  0  0
  183.8270  176.5830  137.3470 C   0  0  2  0  0  3  0  0  0  0  0  0
  183.2190  176.8440  138.7480 C   0  0  2  0  0  3  0  0  0  0  0  0
  182.0230  175.9930  139.1000 C   0  0  0  0  0  2  0  0  0  0  0  0
  182.8450  178.2440  138.9980 N   0  0  0  0  0  0  0  0  0  0  0  0
  181.3780  176.7590  140.2320 C   0  0  0  0  0  2  0  0  0  0  0  0
  181.9080  178.1830  140.1160 C   0  0  0  0  0  2  0  0  0  0  0  0
  182.0900  178.7890  137.8690 C   0  0  0  0  0  2  0  0  0  0  0  0
  181.8830  180.2780  138.0720 C   0  0  0  0  0  2  0  0  0  0  0  0
  180.5580  180.6910  137.4790 C   0  0  0  0  0  2  0  0  0  0  0  0
  180.9860  183.1160  137.6300 N   0  0  0  0  0  0  0  0  0  0  0  0
  180.6750  182.0400  136.8550 C   0  0  0  0  0  0  0  0  0  0  0  0
  180.1980  181.1220  134.6530 O   0  0  0  0  0  1  0  0  0  0  0  0
  180.5030  182.2030  135.4710 C   0  0  0  0  0  0  0  0  0  0  0  0
  180.6400  183.4770  134.9140 C   0  0  0  0  0  3  0  0  0  0  0  0
  181.1310  184.3610  137.0980 C   0  0  0  0  0  3  0  0  0  0  0  0
  180.9570  184.5650  135.7270 C   0  0  0  0  0  3  0  0  0  0  0  0
  183.6320  175.1370  136.8610 C   0  0  1  0  0  3  0  0  0  0  0  0
  183.0150  175.1100  135.4700 C   0  0  0  0  0  1  0  0  0  0  0  0
  184.5930  173.3060  137.6690 C   0  0  0  0  0  1  0  0  0  0  0  0
  184.8360  174.4210  136.8670 O   0  0  0  0  0  0  0  0  0  0  0  0
  190.5710  176.6690  140.7890 N   0  0  0  0  0  2  0  0  0  0  0  0
  190.4350  176.4140  142.1590 N   0  0  0  0  0  2  0  0  0  0  0  0
  191.6600  176.8680  142.8070 C   0  0  2  0  0  3  0  0  0  0  0  0
  191.4080  177.2910  144.2550 C   0  0  1  0  0  3  0  0  0  0  0  0
  191.5370  178.3350  143.1680 C   0  0  0  0  0  2  0  0  0  0  0  0
  190.0600  177.1590  144.6140 O   0  0  0  0  0  0  0  0  0  0  0  0
  190.0790  176.6920  145.9320 C   0  0  1  0  0  3  0  0  0  0  0  0
  191.0370  177.5260  146.7750 C   0  0  0  0  0  2  0  0  0  0  0  0
  192.3790  177.1740  148.7200 O   0  0  0  0  0  1  0  0  0  0  0  0
  191.8370  175.2850  147.5290 O   0  0  0  0  0  0  0  0  0  0  0  0
  191.7760  176.6580  147.7370 C   0  0  0  0  0  0  0  0  0  0  0  0
  188.6780  176.7400  146.5210 C   0  0  0  0  0  2  0  0  0  0  0  0
  188.3970  178.0140  147.0220 O   0  0  0  0  0  0  0  0  0  0  0  0
  187.0260  178.1800  146.8200 C   0  0  0  0  0  2  0  0  0  0  0  0
  186.5660  177.3120  145.6560 C   0  0  0  0  0  2  0  0  0  0  0  0
  185.8150  177.9560  143.3680 C   0  0  0  0  0  1  0  0  0  0  0  0
  185.4870  178.0140  144.8480 C   0  0  0  0  0  3  0  0  0  0  0  0
  185.3900  179.4580  145.2850 C   0  0  0  0  0  1  0  0  0  0  0  0
  2  5  1  0  0  0  0
  2  4  2  0  0  0  0
  3  1  1  0  0  0  0
  3 38  1  6  0  0  0
  4  1  1  0  0  0  0
  5  6  1  6  0  0  0
  5  3  1  0  0  0  0
  7  6  2  0  0  0  0
  8  9  2  0  0  0  0
  8  6  1  0  0  0  0
 10  8  1  0  0  0  0
 10 11  1  1  0  0  0
 12 10  1  0  0  0  0
 13 12  1  0  0  0  0
 14 15  2  0  0  0  0
 15  4  1  0  0  0  0
 17 16  1  6  0  0  0
 17 18  1  0  0  0  0
 17 14  1  0  0  0  0
 18 34  1  1  0  0  0
 19 18  1  6  0  0  0
 19 21  1  0  0  0  0
 19 20  1  0  0  0  0
 20 22  1  0  0  0  0
 21 23  1  0  0  0  0
 23 22  1  0  0  0  0
 24 25  1  0  0  0  0
 24 21  1  0  0  0  0
 26 25  1  0  0  0  0
 28 26  1  0  0  0  0
 28 27  2  0  0  0  0
 29 30  1  0  0  0  0
 30 28  1  0  0  0  0
 31 30  2  0  0  0  0
 31 33  1  0  0  0  0
 32 27  1  0  0  0  0
 33 32  2  0  0  0  0
 34 35  1  6  0  0  0
 34 37  1  0  0  0  0
 37 36  1  0  0  0  0
 38 39  1  0  0  0  0
 40 39  1  6  0  0  0
 40 42  1  0  0  0  0
 40 41  1  0  0  0  0
 41 43  1  6  0  0  0
 42 41  1  0  0  0  0
 43 44  1  0  0  0  0
 44 49  1  1  0  0  0
 44 45  1  0  0  0  0
 45 48  1  0  0  0  0
 47 48  2  0  0  0  0
 48 46  1  0  0  0  0
 49 50  1  0  0  0  0
 51 50  1  0  0  0  0
 52 51  1  0  0  0  0
 53 54  1  0  0  0  0
 54 55  1  0  0  0  0
 54 52  1  0  0  0  0
M  END
>  <MODEL>
2

>  <REMARK>
 VINA RESULT:      -5.8      1.513      2.266
  Name = 
  26 active torsions:
  status: ('A' for Active; 'I' for Inactive)
    1  A    between atoms: C_4  and  C_54
    2  A    between atoms: C_5  and  O_26
    3  A    between atoms: C_5  and  C_44
    4  A    between atoms: C_7  and  C_20
    5  A    between atoms: C_8  and  C_15
    6  A    between atoms: C_8  and  C_50
    7  A    between atoms: O_9  and  C_32
    8  A    between atoms: O_9  and  C_49
    9  A    between atoms: C_11  and  O_45
   10  A    between atoms: C_11  and  C_54
   11  A    between atoms: C_12  and  C_18
   12  A    between atoms: C_12  and  C_41
   13  A    between atoms: N_14  and  C_33
   14  A    between atoms: C_15  and  C_20
   15  A    between atoms: C_16  and  C_44
   16  A    between atoms: C_18  and  C_19
   17  A    between atoms: C_24  and  N_25
   18  A    between atoms: N_25  and  N_31
   19  A    between atoms: O_26  and  C_47
   20  A    between atoms: N_31  and  C_36
   21  A    between atoms: C_32  and  C_47
   22  A    between atoms: C_32  and  C_52
   23  A    between atoms: C_33  and  C_54
   24  A    between atoms: N_39  and  C_41
   25  A    between atoms: C_40  and  N_53
   26  A    between atoms: C_48  and  C_52
                            x       y       z     vdW  Elec       q    Type
                         _______ _______ _______ _____ _____    ______ ____

>  <TORSDO>
F 26

$$$$
=
 OpenBabel11032420223D

 55 58  0  0  1  0  0  0  0  0999 V2000
  186.5970  178.1840  136.9320 S   0  0  0  0  0  0  0  0  0  0  0  0
  186.5230  175.7580  135.9420 N   0  0  0  0  0  0  0  0  0  0  0  0
  187.5530  176.8700  137.7540 C   0  0  1  0  0  3  0  0  0  0  0  0
  185.9050  176.8920  135.9180 C   0  0  0  0  0  0  0  0  0  0  0  0
  187.7390  175.7420  136.7290 C   0  0  2  0  0  3  0  0  0  0  0  0
  188.9130  175.8830  135.7810 C   0  0  0  0  0  0  0  0  0  0  0  0
  188.8550  176.6570  134.7840 O   0  0  0  0  0  0  0  0  0  0  0  0
  190.1110  175.0330  135.9760 C   0  0  0  0  0  0  0  0  0  0  0  0
  190.0450  173.8020  135.7350 O   0  0  0  0  0  0  0  0  0  0  0  0
  191.4270  175.5930  136.4310 C   0  0  1  0  0  3  0  0  0  0  0  0
  191.9840  174.8110  137.6130 C   0  0  0  0  0  1  0  0  0  0  0  0
  192.4180  175.6500  135.2790 C   0  0  0  0  0  2  0  0  0  0  0  0
  193.1840  174.4830  135.2530 O   0  0  0  0  0  1  0  0  0  0  0  0
  183.5120  177.1930  135.6440 N   0  0  0  0  0  0  0  0  0  0  0  0
  184.6980  177.1050  135.1690 N   0  0  0  0  0  0  0  0  0  0  0  0
  183.6220  175.8800  137.5740 O   0  0  0  0  0  1  0  0  0  0  0  0
  183.1580  177.0880  137.0580 C   0  0  2  0  0  3  0  0  0  0  0  0
  181.6360  177.2090  137.2630 C   0  0  2  0  0  3  0  0  0  0  0  0
  181.2080  178.5960  137.8070 C   0  0  2  0  0  3  0  0  0  0  0  0
  181.1480  179.7010  136.7810 C   0  0  0  0  0  2  0  0  0  0  0  0
  182.0250  179.0870  138.9280 N   0  0  0  0  0  0  0  0  0  0  0  0
  181.1930  180.9540  137.6230 C   0  0  0  0  0  2  0  0  0  0  0  0
  181.7750  180.5250  138.9640 C   0  0  0  0  0  2  0  0  0  0  0  0
  183.4510  178.9340  138.6370 C   0  0  0  0  0  2  0  0  0  0  0  0
  184.2210  178.8100  139.9380 C   0  0  0  0  0  2  0  0  0  0  0  0
  183.4640  177.9160  140.8910 C   0  0  0  0  0  2  0  0  0  0  0  0
  185.0580  177.9980  142.7730 N   0  0  0  0  0  0  0  0  0  0  0  0
  183.8080  178.2620  142.2990 C   0  0  0  0  0  0  0  0  0  0  0  0
  181.5870  179.1840  142.6710 O   0  0  0  0  0  1  0  0  0  0  0  0
  182.8660  178.8900  143.1300 C   0  0  0  0  0  0  0  0  0  0  0  0
  183.2260  179.2210  144.4390 C   0  0  0  0  0  3  0  0  0  0  0  0
  185.4240  178.3230  144.0430 C   0  0  0  0  0  3  0  0  0  0  0  0
  184.5110  178.9400  144.9020 C   0  0  0  0  0  3  0  0  0  0  0  0
  181.0620  176.0360  138.0760 C   0  0  1  0  0  3  0  0  0  0  0  0
  180.0110  176.5230  139.0630 C   0  0  0  0  0  1  0  0  0  0  0  0
  180.7260  173.8460  137.9290 C   0  0  0  0  0  1  0  0  0  0  0  0
  180.5210  175.0450  137.2460 O   0  0  0  0  0  0  0  0  0  0  0  0
  188.8020  177.3750  138.3050 N   0  0  0  0  0  2  0  0  0  0  0  0
  188.8110  177.0530  139.6670 N   0  0  0  0  0  2  0  0  0  0  0  0
  189.0580  178.2880  140.4030 C   0  0  2  0  0  3  0  0  0  0  0  0
  188.7730  178.1220  141.8950 C   0  0  1  0  0  3  0  0  0  0  0  0
  187.7620  178.8010  140.9980 C   0  0  0  0  0  2  0  0  0  0  0  0
  188.3260  176.8310  142.2050 O   0  0  0  0  0  0  0  0  0  0  0  0
  189.0010  176.4840  143.3800 C   0  0  1  0  0  3  0  0  0  0  0  0
  190.2030  175.6030  143.0580 C   0  0  0  0  0  2  0  0  0  0  0  0
  192.0150  177.1540  142.9370 O   0  0  0  0  0  0  0  0  0  0  0  0
  192.0340  175.7400  144.7490 O   0  0  0  0  0  1  0  0  0  0  0  0
  191.4570  176.2200  143.5780 C   0  0  0  0  0  0  0  0  0  0  0  0
  189.4490  177.7390  144.1130 C   0  0  0  0  0  2  0  0  0  0  0  0
  188.6980  177.9250  145.2760 O   0  0  0  0  0  0  0  0  0  0  0  0
  189.4380  177.2970  146.2790 C   0  0  0  0  0  2  0  0  0  0  0  0
  188.5000  176.6110  147.2620 C   0  0  0  0  0  2  0  0  0  0  0  0
  186.8440  178.4090  147.7530 C   0  0  0  0  0  1  0  0  0  0  0  0
  187.9960  177.5920  148.3080 C   0  0  0  0  0  3  0  0  0  0  0  0
  189.1200  178.5180  148.7120 C   0  0  0  0  0  1  0  0  0  0  0  0
  1  3  1  0  0  0  0
  2  5  1  0  0  0  0
  3 38  1  6  0  0  0
  4  2  2  0  0  0  0
  4  1  1  0  0  0  0
  5  6  1  6  0  0  0
  5  3  1  0  0  0  0
  6  8  1  0  0  0  0
  7  6  2  0  0  0  0
  8 10  1  0  0  0  0
  9  8  2  0  0  0  0
 10 11  1  1  0  0  0
 12 10  1  0  0  0  0
 13 12  1  0  0  0  0
 14 17  1  0  0  0  0
 15 14  2  0  0  0  0
 15  4  1  0  0  0  0
 17 16  1  6  0  0  0
 18 17  1  1  0  0  0
 18 34  1  0  0  0  0
 19 18  1  6  0  0  0
 19 21  1  0  0  0  0
 20 22  1  0  0  0  0
 20 19  1  0  0  0  0
 21 23  1  0  0  0  0
 22 23  1  0  0  0  0
 24 21  1  0  0  0  0
 24 25  1  0  0  0  0
 25 26  1  0  0  0  0
 26 28  1  0  0  0  0
 27 32  1  0  0  0  0
 28 27  2  0  0  0  0
 28 30  1  0  0  0  0
 29 30  1  0  0  0  0
 30 31  2  0  0  0  0
 31 33  1  0  0  0  0
 32 33  2  0  0  0  0
 34 35  1  1  0  0  0
 37 36  1  0  0  0  0
 37 34  1  0  0  0  0
 38 39  1  0  0  0  0
 40 39  1  6  0  0  0
 40 42  1  0  0  0  0
 40 41  1  0  0  0  0
 41 43  1  6  0  0  0
 42 41  1  0  0  0  0
 43 44  1  0  0  0  0
 44 45  1  6  0  0  0
 44 49  1  0  0  0  0
 45 48  1  0  0  0  0
 46 48  2  0  0  0  0
 48 47  1  0  0  0  0
 49 50  1  0  0  0  0
 50 51  1  0  0  0  0
 51 52  1  0  0  0  0
 52 54  1  0  0  0  0
 53 54  1  0  0  0  0
 54 55  1  0  0  0  0
M  END
>  <MODEL>
3

>  <REMARK>
 VINA RESULT:      -5.8      2.480      4.745
  Name = 
  26 active torsions:
  status: ('A' for Active; 'I' for Inactive)
    1  A    between atoms: C_4  and  C_54
    2  A    between atoms: C_5  and  O_26
    3  A    between atoms: C_5  and  C_44
    4  A    between atoms: C_7  and  C_20
    5  A    between atoms: C_8  and  C_15
    6  A    between atoms: C_8  and  C_50
    7  A    between atoms: O_9  and  C_32
    8  A    between atoms: O_9  and  C_49
    9  A    between atoms: C_11  and  O_45
   10  A    between atoms: C_11  and  C_54
   11  A    between atoms: C_12  and  C_18
   12  A    between atoms: C_12  and  C_41
   13  A    between atoms: N_14  and  C_33
   14  A    between atoms: C_15  and  C_20
   15  A    between atoms: C_16  and  C_44
   16  A    between atoms: C_18  and  C_19
   17  A    between atoms: C_24  and  N_25
   18  A    between atoms: N_25  and  N_31
   19  A    between atoms: O_26  and  C_47
   20  A    between atoms: N_31  and  C_36
   21  A    between atoms: C_32  and  C_47
   22  A    between atoms: C_32  and  C_52
   23  A    between atoms: C_33  and  C_54
   24  A    between atoms: N_39  and  C_41
   25  A    between atoms: C_40  and  N_53
   26  A    between atoms: C_48  and  C_52
                            x       y       z     vdW  Elec       q    Type
                         _______ _______ _______ _____ _____    ______ ____

>  <TORSDO>
F 26

$$$$
=
 OpenBabel11032420223D

 55 58  0  0  1  0  0  0  0  0999 V2000
  187.0890  178.2080  137.8640 S   0  0  0  0  0  0  0  0  0  0  0  0
  187.9420  175.8840  137.0020 N   0  0  0  0  0  0  0  0  0  0  0  0
  188.1610  177.2080  138.9460 C   0  0  1  0  0  3  0  0  0  0  0  0
  187.0500  176.7930  136.7820 C   0  0  0  0  0  0  0  0  0  0  0  0
  188.8940  176.2030  138.0460 C   0  0  2  0  0  3  0  0  0  0  0  0
  190.1660  176.6960  137.3870 C   0  0  0  0  0  0  0  0  0  0  0  0
  190.1880  177.7850  136.7470 O   0  0  0  0  0  0  0  0  0  0  0  0
  191.3770  175.8420  137.4170 C   0  0  0  0  0  0  0  0  0  0  0  0
  191.2630  174.5970  137.3010 O   0  0  0  0  0  0  0  0  0  0  0  0
  192.7590  176.4140  137.5540 C   0  0  1  0  0  3  0  0  0  0  0  0
  193.0290  176.8760  138.9790 C   0  0  0  0  0  1  0  0  0  0  0  0
  193.8050  175.4180  137.0790 C   0  0  0  0  0  2  0  0  0  0  0  0
  194.3570  174.7510  138.1740 O   0  0  0  0  0  1  0  0  0  0  0  0
  184.9610  175.9820  135.8480 N   0  0  0  0  0  0  0  0  0  0  0  0
  186.0420  176.6650  135.7670 N   0  0  0  0  0  0  0  0  0  0  0  0
  185.2890  174.0140  137.0640 O   0  0  0  0  0  1  0  0  0  0  0  0
  184.5460  175.1920  137.0040 C   0  0  2  0  0  3  0  0  0  0  0  0
  183.0400  174.8730  136.9510 C   0  0  2  0  0  3  0  0  0  0  0  0
  182.3430  175.0170  138.3280 C   0  0  2  0  0  3  0  0  0  0  0  0
  180.9170  174.5250  138.3830 C   0  0  0  0  0  2  0  0  0  0  0  0
  182.3540  176.3820  138.8750 N   0  0  0  0  0  0  0  0  0  0  0  0
  180.3680  175.2040  139.6160 C   0  0  0  0  0  2  0  0  0  0  0  0
  181.2930  176.3860  139.8780 C   0  0  0  0  0  2  0  0  0  0  0  0
  181.9500  177.3530  137.8580 C   0  0  0  0  0  2  0  0  0  0  0  0
  181.3050  178.5490  138.5310 C   0  0  0  0  0  2  0  0  0  0  0  0
  182.0780  179.8000  138.1890 C   0  0  0  0  0  2  0  0  0  0  0  0
  180.7220  181.8160  138.6180 N   0  0  0  0  0  0  0  0  0  0  0  0
  181.1440  180.8700  137.7340 C   0  0  0  0  0  0  0  0  0  0  0  0
  181.1510  179.9860  135.4670 O   0  0  0  0  0  1  0  0  0  0  0  0
  180.7260  180.9290  136.3950 C   0  0  0  0  0  0  0  0  0  0  0  0
  179.8670  181.9560  135.9950 C   0  0  0  0  0  3  0  0  0  0  0  0
  179.8920  182.8270  138.2390 C   0  0  0  0  0  3  0  0  0  0  0  0
  179.4460  182.9140  136.9180 C   0  0  0  0  0  3  0  0  0  0  0  0
  182.7530  173.5270  136.2640 C   0  0  1  0  0  3  0  0  0  0  0  0
  182.6210  172.4110  137.2910 C   0  0  0  0  0  1  0  0  0  0  0  0
  181.6890  172.4810  134.6200 C   0  0  0  0  0  1  0  0  0  0  0  0
  181.6020  173.5860  135.4670 O   0  0  0  0  0  0  0  0  0  0  0  0
  189.0490  178.0410  139.7440 N   0  0  0  0  0  2  0  0  0  0  0  0
  188.5930  177.9790  141.0660 N   0  0  0  0  0  2  0  0  0  0  0  0
  188.9190  176.6510  141.5740 C   0  0  2  0  0  3  0  0  0  0  0  0
  188.7750  176.5790  143.0950 C   0  0  1  0  0  3  0  0  0  0  0  0
  190.1420  176.7280  142.4660 C   0  0  0  0  0  2  0  0  0  0  0  0
  188.3800  177.8050  143.6450 O   0  0  0  0  0  0  0  0  0  0  0  0
  188.1210  177.5330  144.9920 C   0  0  1  0  0  3  0  0  0  0  0  0
  189.3640  177.7960  145.8340 C   0  0  0  0  0  2  0  0  0  0  0  0
  188.8180  176.2750  147.5930 O   0  0  0  0  0  0  0  0  0  0  0  0
  189.1440  178.4590  148.2310 O   0  0  0  0  0  1  0  0  0  0  0  0
  189.1060  177.4600  147.2640 C   0  0  0  0  0  0  0  0  0  0  0  0
  186.9610  178.3870  145.4810 C   0  0  0  0  0  2  0  0  0  0  0  0
  185.7540  177.6950  145.3600 O   0  0  0  0  0  0  0  0  0  0  0  0
  184.7760  178.6210  145.7270 C   0  0  0  0  0  2  0  0  0  0  0  0
  184.4030  179.4830  144.5290 C   0  0  0  0  0  2  0  0  0  0  0  0
  184.7930  178.9570  142.1240 C   0  0  0  0  0  1  0  0  0  0  0  0
  183.9710  178.6210  143.3540 C   0  0  0  0  0  3  0  0  0  0  0  0
  182.5080  178.8640  143.0620 C   0  0  0  0  0  1  0  0  0  0  0  0
  1  3  1  0  0  0  0
  2  5  1  0  0  0  0
  3 38  1  6  0  0  0
  4  2  2  0  0  0  0
  4  1  1  0  0  0  0
  5  6  1  6  0  0  0
  5  3  1  0  0  0  0
  6  8  1  0  0  0  0
  7  6  2  0  0  0  0
  8 10  1  0  0  0  0
  9  8  2  0  0  0  0
 10 11  1  1  0  0  0
 12 10  1  0  0  0  0
 12 13  1  0  0  0  0
 14 17  1  0  0  0  0
 15 14  2  0  0  0  0
 15  4  1  0  0  0  0
 17 16  1  6  0  0  0
 18 34  1  1  0  0  0
 18 17  1  0  0  0  0
 19 18  1  6  0  0  0
 19 20  1  0  0  0  0
 19 21  1  0  0  0  0
 20 22  1  0  0  0  0
 21 23  1  0  0  0  0
 22 23  1  0  0  0  0
 24 25  1  0  0  0  0
 24 21  1  0  0  0  0
 26 25  1  0  0  0  0
 28 26  1  0  0  0  0
 28 27  2  0  0  0  0
 29 30  1  0  0  0  0
 30 28  1  0  0  0  0
 31 30  2  0  0  0  0
 31 33  1  0  0  0  0
 32 27  1  0  0  0  0
 33 32  2  0  0  0  0
 34 35  1  1  0  0  0
 36 37  1  0  0  0  0
 37 34  1  0  0  0  0
 38 39  1  0  0  0  0
 40 39  1  1  0  0  0
 40 42  1  0  0  0  0
 40 41  1  0  0  0  0
 41 43  1  1  0  0  0
 42 41  1  0  0  0  0
 43 44  1  0  0  0  0
 44 49  1  1  0  0  0
 44 45  1  0  0  0  0
 45 48  1  0  0  0  0
 48 46  2  0  0  0  0
 48 47  1  0  0  0  0
 50 49  1  0  0  0  0
 50 51  1  0  0  0  0
 52 51  1  0  0  0  0
 53 54  1  0  0  0  0
 54 52  1  0  0  0  0
 55 54  1  0  0  0  0
M  END
>  <MODEL>
4

>  <REMARK>
 VINA RESULT:      -5.3      2.145      3.315
  Name = 
  26 active torsions:
  status: ('A' for Active; 'I' for Inactive)
    1  A    between atoms: C_4  and  C_54
    2  A    between atoms: C_5  and  O_26
    3  A    between atoms: C_5  and  C_44
    4  A    between atoms: C_7  and  C_20
    5  A    between atoms: C_8  and  C_15
    6  A    between atoms: C_8  and  C_50
    7  A    between atoms: O_9  and  C_32
    8  A    between atoms: O_9  and  C_49
    9  A    between atoms: C_11  and  O_45
   10  A    between atoms: C_11  and  C_54
   11  A    between atoms: C_12  and  C_18
   12  A    between atoms: C_12  and  C_41
   13  A    between atoms: N_14  and  C_33
   14  A    between atoms: C_15  and  C_20
   15  A    between atoms: C_16  and  C_44
   16  A    between atoms: C_18  and  C_19
   17  A    between atoms: C_24  and  N_25
   18  A    between atoms: N_25  and  N_31
   19  A    between atoms: O_26  and  C_47
   20  A    between atoms: N_31  and  C_36
   21  A    between atoms: C_32  and  C_47
   22  A    between atoms: C_32  and  C_52
   23  A    between atoms: C_33  and  C_54
   24  A    between atoms: N_39  and  C_41
   25  A    between atoms: C_40  and  N_53
   26  A    between atoms: C_48  and  C_52
                            x       y       z     vdW  Elec       q    Type
                         _______ _______ _______ _____ _____    ______ ____

>  <TORSDO>
F 26

$$$$
=
 OpenBabel11032420223D

 55 58  0  0  1  0  0  0  0  0999 V2000
  187.0450  178.4070  137.6310 S   0  0  0  0  0  0  0  0  0  0  0  0
  187.4330  175.9890  136.6980 N   0  0  0  0  0  0  0  0  0  0  0  0
  188.0820  177.2530  138.5850 C   0  0  1  0  0  3  0  0  0  0  0  0
  186.6650  177.0210  136.5780 C   0  0  0  0  0  0  0  0  0  0  0  0
  188.5430  176.1570  137.6140 C   0  0  2  0  0  3  0  0  0  0  0  0
  189.7830  176.4600  136.7990 C   0  0  0  0  0  0  0  0  0  0  0  0
  190.0920  177.6490  136.5030 O   0  0  0  0  0  0  0  0  0  0  0  0
  190.5940  175.3400  136.2650 C   0  0  0  0  0  0  0  0  0  0  0  0
  190.4680  175.0000  135.0630 O   0  0  0  0  0  0  0  0  0  0  0  0
  191.5940  174.6010  137.1060 C   0  0  1  0  0  3  0  0  0  0  0  0
  191.7680  173.1670  136.6290 C   0  0  0  0  0  1  0  0  0  0  0  0
  192.9200  175.3450  137.1480 C   0  0  0  0  0  2  0  0  0  0  0  0
  192.9140  176.2680  138.1960 O   0  0  0  0  0  1  0  0  0  0  0  0
  184.3240  176.7520  135.9960 N   0  0  0  0  0  0  0  0  0  0  0  0
  185.5330  177.0500  135.6950 N   0  0  0  0  0  0  0  0  0  0  0  0
  184.1910  174.9770  137.5110 O   0  0  0  0  0  1  0  0  0  0  0  0
  183.8640  176.3170  137.3130 C   0  0  2  0  0  3  0  0  0  0  0  0
  182.3460  176.5270  137.4710 C   0  0  2  0  0  3  0  0  0  0  0  0
  181.9610  177.1440  138.8400 C   0  0  2  0  0  3  0  0  0  0  0  0
  180.5910  176.7710  139.3520 C   0  0  0  0  0  2  0  0  0  0  0  0
  182.0630  178.6100  138.8960 N   0  0  0  0  0  0  0  0  0  0  0  0
  180.3080  177.8400  140.3830 C   0  0  0  0  0  2  0  0  0  0  0  0
  181.2440  178.9930  140.0420 C   0  0  0  0  0  2  0  0  0  0  0  0
  181.4280  179.2200  137.7270 C   0  0  0  0  0  2  0  0  0  0  0  0
  181.1380  180.6800  138.0150 C   0  0  0  0  0  2  0  0  0  0  0  0
  180.3110  181.2630  136.8940 C   0  0  0  0  0  2  0  0  0  0  0  0
  180.9070  183.5050  136.0530 N   0  0  0  0  0  0  0  0  0  0  0  0
  180.2830  182.7500  137.0000 C   0  0  0  0  0  0  0  0  0  0  0  0
  178.9310  182.6340  139.0200 O   0  0  0  0  0  1  0  0  0  0  0  0
  179.5880  183.3770  138.0470 C   0  0  0  0  0  0  0  0  0  0  0  0
  179.5630  184.7730  138.1060 C   0  0  0  0  0  3  0  0  0  0  0  0
  180.8820  184.8650  136.0950 C   0  0  0  0  0  3  0  0  0  0  0  0
  180.2100  185.5260  137.1260 C   0  0  0  0  0  3  0  0  0  0  0  0
  181.5440  175.2590  137.1310 C   0  0  1  0  0  3  0  0  0  0  0  0
  181.7970  174.8260  135.6940 C   0  0  0  0  0  1  0  0  0  0  0  0
  181.0030  173.1620  137.6190 C   0  0  0  0  0  1  0  0  0  0  0  0
  181.8390  174.2080  138.0090 O   0  0  0  0  0  0  0  0  0  0  0  0
  189.1740  177.9400  139.2590 N   0  0  0  0  0  2  0  0  0  0  0  0
  189.1720  177.5080  140.5900 N   0  0  0  0  0  2  0  0  0  0  0  0
  190.3120  176.6120  140.7560 C   0  0  2  0  0  3  0  0  0  0  0  0
  190.8590  176.6550  142.1830 C   0  0  1  0  0  3  0  0  0  0  0  0
  191.5560  177.4170  141.0780 C   0  0  0  0  0  2  0  0  0  0  0  0
  190.1510  177.5530  142.9910 O   0  0  0  0  0  0  0  0  0  0  0  0
  189.7310  176.8000  144.0920 C   0  0  1  0  0  3  0  0  0  0  0  0
  190.0840  177.5170  145.3900 C   0  0  0  0  0  2  0  0  0  0  0  0
  191.9300  176.0020  145.4560 O   0  0  0  0  0  0  0  0  0  0  0  0
  191.4000  177.0140  147.4510 O   0  0  0  0  0  1  0  0  0  0  0  0
  191.1960  176.8120  146.0900 C   0  0  0  0  0  0  0  0  0  0  0  0
  188.2320  176.5550  144.0150 C   0  0  0  0  0  2  0  0  0  0  0  0
  187.5270  177.6510  144.5180 O   0  0  0  0  0  0  0  0  0  0  0  0
  186.7090  178.0610  143.4650 C   0  0  0  0  0  2  0  0  0  0  0  0
  185.2460  177.9110  143.8570 C   0  0  0  0  0  2  0  0  0  0  0  0
  183.5310  178.7160  145.4770 C   0  0  0  0  0  1  0  0  0  0  0  0
  184.7910  179.0810  144.7150 C   0  0  0  0  0  3  0  0  0  0  0  0
  184.5160  180.2760  143.8320 C   0  0  0  0  0  1  0  0  0  0  0  0
  1  3  1  0  0  0  0
  2  5  1  0  0  0  0
  3 38  1  6  0  0  0
  4  2  2  0  0  0  0
  4  1  1  0  0  0  0
  5  6  1  6  0  0  0
  5  3  1  0  0  0  0
  7  6  2  0  0  0  0
  8  6  1  0  0  0  0
  8 10  1  0  0  0  0
  9  8  2  0  0  0  0
 10 11  1  6  0  0  0
 10 12  1  0  0  0  0
 12 13  1  0  0  0  0
 14 17  1  0  0  0  0
 15 14  2  0  0  0  0
 15  4  1  0  0  0  0
 17 18  1  0  0  0  0
 17 16  1  6  0  0  0
 18 34  1  1  0  0  0
 19 18  1  6  0  0  0
 19 21  1  0  0  0  0
 19 20  1  0  0  0  0
 20 22  1  0  0  0  0
 21 23  1  0  0  0  0
 23 22  1  0  0  0  0
 24 25  1  0  0  0  0
 24 21  1  0  0  0  0
 26 28  1  0  0  0  0
 26 25  1  0  0  0  0
 27 32  2  0  0  0  0
 27 28  1  0  0  0  0
 28 30  2  0  0  0  0
 30 31  1  0  0  0  0
 30 29  1  0  0  0  0
 32 33  1  0  0  0  0
 33 31  2  0  0  0  0
 34 35  1  6  0  0  0
 34 37  1  0  0  0  0
 36 37  1  0  0  0  0
 38 39  1  0  0  0  0
 40 39  1  1  0  0  0
 40 42  1  0  0  0  0
 40 41  1  0  0  0  0
 41 43  1  1  0  0  0
 42 41  1  0  0  0  0
 43 44  1  0  0  0  0
 44 49  1  6  0  0  0
 44 45  1  0  0  0  0
 45 48  1  0  0  0  0
 46 48  2  0  0  0  0
 48 47  1  0  0  0  0
 49 50  1  0  0  0  0
 51 52  1  0  0  0  0
 51 50  1  0  0  0  0
 52 54  1  0  0  0  0
 54 53  1  0  0  0  0
 55 54  1  0  0  0  0
M  END
>  <MODEL>
5

>  <REMARK>
 VINA RESULT:      -5.0      1.963      2.550
  Name = 
  26 active torsions:
  status: ('A' for Active; 'I' for Inactive)
    1  A    between atoms: C_4  and  C_54
    2  A    between atoms: C_5  and  O_26
    3  A    between atoms: C_5  and  C_44
    4  A    between atoms: C_7  and  C_20
    5  A    between atoms: C_8  and  C_15
    6  A    between atoms: C_8  and  C_50
    7  A    between atoms: O_9  and  C_32
    8  A    between atoms: O_9  and  C_49
    9  A    between atoms: C_11  and  O_45
   10  A    between atoms: C_11  and  C_54
   11  A    between atoms: C_12  and  C_18
   12  A    between atoms: C_12  and  C_41
   13  A    between atoms: N_14  and  C_33
   14  A    between atoms: C_15  and  C_20
   15  A    between atoms: C_16  and  C_44
   16  A    between atoms: C_18  and  C_19
   17  A    between atoms: C_24  and  N_25
   18  A    between atoms: N_25  and  N_31
   19  A    between atoms: O_26  and  C_47
   20  A    between atoms: N_31  and  C_36
   21  A    between atoms: C_32  and  C_47
   22  A    between atoms: C_32  and  C_52
   23  A    between atoms: C_33  and  C_54
   24  A    between atoms: N_39  and  C_41
   25  A    between atoms: C_40  and  N_53
   26  A    between atoms: C_48  and  C_52
                            x       y       z     vdW  Elec       q    Type
                         _______ _______ _______ _____ _____    ______ ____

>  <TORSDO>
F 26

$$$$
=
 OpenBabel11032420223D

 55 58  0  0  1  0  0  0  0  0999 V2000
  186.2990  178.4990  137.8440 S   0  0  0  0  0  0  0  0  0  0  0  0
  187.5180  176.3530  136.9610 N   0  0  0  0  0  0  0  0  0  0  0  0
  187.4660  177.6350  138.9440 C   0  0  1  0  0  3  0  0  0  0  0  0
  186.5100  177.1270  136.7270 C   0  0  0  0  0  0  0  0  0  0  0  0
  188.3730  176.7770  138.0510 C   0  0  2  0  0  3  0  0  0  0  0  0
  189.5810  177.4710  137.4570 C   0  0  0  0  0  0  0  0  0  0  0  0
  189.7070  178.7260  137.5210 O   0  0  0  0  0  0  0  0  0  0  0  0
  190.5840  176.6730  136.7120 C   0  0  0  0  0  0  0  0  0  0  0  0
  190.4280  176.4710  135.4820 O   0  0  0  0  0  0  0  0  0  0  0  0
  191.8120  176.1110  137.3690 C   0  0  1  0  0  3  0  0  0  0  0  0
  191.9800  176.6500  138.7830 C   0  0  0  0  0  1  0  0  0  0  0  0
  191.7900  174.5910  137.3460 C   0  0  0  0  0  2  0  0  0  0  0  0
  190.5000  174.1310  137.6190 O   0  0  0  0  0  1  0  0  0  0  0  0
  184.4830  176.2120  135.7540 N   0  0  0  0  0  0  0  0  0  0  0  0
  185.5710  176.8820  135.6680 N   0  0  0  0  0  0  0  0  0  0  0  0
  184.9110  174.6130  137.4030 O   0  0  0  0  0  1  0  0  0  0  0  0
  183.9870  175.5580  136.9630 C   0  0  2  0  0  3  0  0  0  0  0  0
  182.6180  174.8950  136.7170 C   0  0  2  0  0  3  0  0  0  0  0  0
  181.7480  174.8130  137.9970 C   0  0  2  0  0  3  0  0  0  0  0  0
  180.4320  174.0920  137.8370 C   0  0  0  0  0  2  0  0  0  0  0  0
  181.4590  176.1140  138.6190 N   0  0  0  0  0  0  0  0  0  0  0  0
  179.6310  174.5720  139.0250 C   0  0  0  0  0  2  0  0  0  0  0  0
  180.3010  175.8660  139.4740 C   0  0  0  0  0  2  0  0  0  0  0  0
  181.0170  177.0830  137.6160 C   0  0  0  0  0  2  0  0  0  0  0  0
  180.2980  178.2280  138.3030 C   0  0  0  0  0  2  0  0  0  0  0  0
  181.3070  179.2330  138.8040 C   0  0  0  0  0  2  0  0  0  0  0  0
  180.2370  179.8400  140.9430 N   0  0  0  0  0  0  0  0  0  0  0  0
  181.2920  179.2730  140.2940 C   0  0  0  0  0  0  0  0  0  0  0  0
  183.4230  178.1030  140.4000 O   0  0  0  0  0  1  0  0  0  0  0  0
  182.3400  178.7000  141.0330 C   0  0  0  0  0  0  0  0  0  0  0  0
  182.2860  178.7350  142.4290 C   0  0  0  0  0  3  0  0  0  0  0  0
  180.1690  179.8730  142.3020 C   0  0  0  0  0  3  0  0  0  0  0  0
  181.1960  179.3220  143.0720 C   0  0  0  0  0  3  0  0  0  0  0  0
  182.7470  173.5480  135.9850 C   0  0  1  0  0  3  0  0  0  0  0  0
  182.4480  172.3890  136.9250 C   0  0  0  0  0  1  0  0  0  0  0  0
  181.3410  172.2130  134.9030 C   0  0  0  0  0  1  0  0  0  0  0  0
  181.9100  173.4860  134.8630 O   0  0  0  0  0  0  0  0  0  0  0  0
  188.1910  178.5650  139.7980 N   0  0  0  0  0  2  0  0  0  0  0  0
  187.9610  178.1720  141.1220 N   0  0  0  0  0  2  0  0  0  0  0  0
  188.4520  176.8050  141.2590 C   0  0  2  0  0  3  0  0  0  0  0  0
  189.1510  176.5900  142.6020 C   0  0  1  0  0  3  0  0  0  0  0  0
  189.9660  176.8100  141.3460 C   0  0  0  0  0  2  0  0  0  0  0  0
  189.1700  177.7560  143.3780 O   0  0  0  0  0  0  0  0  0  0  0  0
  189.6150  177.3460  144.6390 C   0  0  1  0  0  3  0  0  0  0  0  0
  191.1110  177.6010  144.7810 C   0  0  0  0  0  2  0  0  0  0  0  0
  191.2370  179.9300  144.2620 O   0  0  0  0  0  1  0  0  0  0  0  0
  192.2050  178.5150  142.7320 O   0  0  0  0  0  0  0  0  0  0  0  0
  191.5290  178.7480  143.9240 C   0  0  0  0  0  0  0  0  0  0  0  0
  188.8490  178.0840  145.7260 C   0  0  0  0  0  2  0  0  0  0  0  0
  188.1640  177.1830  146.5450 O   0  0  0  0  0  0  0  0  0  0  0  0
  187.0880  177.9130  147.0520 C   0  0  0  0  0  2  0  0  0  0  0  0
  185.8100  177.5270  146.3200 C   0  0  0  0  0  2  0  0  0  0  0  0
  183.8720  178.8870  145.5390 C   0  0  0  0  0  1  0  0  0  0  0  0
  185.3610  178.6410  145.3880 C   0  0  0  0  0  3  0  0  0  0  0  0
  185.6640  178.2530  143.9590 C   0  0  0  0  0  1  0  0  0  0  0  0
  1  3  1  0  0  0  0
  2  5  1  0  0  0  0
  3 38  1  6  0  0  0
  4  2  2  0  0  0  0
  4  1  1  0  0  0  0
  5  6  1  6  0  0  0
  5  3  1  0  0  0  0
  6  7  2  0  0  0  0
  8 10  1  0  0  0  0
  8  6  1  0  0  0  0
  9  8  2  0  0  0  0
 10 11  1  1  0  0  0
 12 10  1  0  0  0  0
 12 13  1  0  0  0  0
 14 17  1  0  0  0  0
 15 14  2  0  0  0  0
 15  4  1  0  0  0  0
 17 16  1  6  0  0  0
 18 34  1  1  0  0  0
 18 17  1  0  0  0  0
 19 18  1  6  0  0  0
 19 21  1  0  0  0  0
 20 19  1  0  0  0  0
 20 22  1  0  0  0  0
 21 23  1  0  0  0  0
 22 23  1  0  0  0  0
 24 25  1  0  0  0  0
 24 21  1  0  0  0  0
 25 26  1  0  0  0  0
 26 28  1  0  0  0  0
 27 32  1  0  0  0  0
 28 27  2  0  0  0  0
 28 30  1  0  0  0  0
 29 30  1  0  0  0  0
 30 31  2  0  0  0  0
 31 33  1  0  0  0  0
 32 33  2  0  0  0  0
 34 35  1  1  0  0  0
 37 36  1  0  0  0  0
 37 34  1  0  0  0  0
 38 39  1  0  0  0  0
 40 39  1  1  0  0  0
 40 42  1  0  0  0  0
 40 41  1  0  0  0  0
 41 43  1  1  0  0  0
 42 41  1  0  0  0  0
 43 44  1  0  0  0  0
 44 45  1  6  0  0  0
 44 49  1  0  0  0  0
 47 48  2  0  0  0  0
 48 46  1  0  0  0  0
 48 45  1  0  0  0  0
 49 50  1  0  0  0  0
 50 51  1  0  0  0  0
 52 51  1  0  0  0  0
 54 53  1  0  0  0  0
 54 52  1  0  0  0  0
 55 54  1  0  0  0  0
M  END
>  <MODEL>
6

>  <REMARK>
 VINA RESULT:      -5.0      2.681      4.014
  Name = 
  26 active torsions:
  status: ('A' for Active; 'I' for Inactive)
    1  A    between atoms: C_4  and  C_54
    2  A    between atoms: C_5  and  O_26
    3  A    between atoms: C_5  and  C_44
    4  A    between atoms: C_7  and  C_20
    5  A    between atoms: C_8  and  C_15
    6  A    between atoms: C_8  and  C_50
    7  A    between atoms: O_9  and  C_32
    8  A    between atoms: O_9  and  C_49
    9  A    between atoms: C_11  and  O_45
   10  A    between atoms: C_11  and  C_54
   11  A    between atoms: C_12  and  C_18
   12  A    between atoms: C_12  and  C_41
   13  A    between atoms: N_14  and  C_33
   14  A    between atoms: C_15  and  C_20
   15  A    between atoms: C_16  and  C_44
   16  A    between atoms: C_18  and  C_19
   17  A    between atoms: C_24  and  N_25
   18  A    between atoms: N_25  and  N_31
   19  A    between atoms: O_26  and  C_47
   20  A    between atoms: N_31  and  C_36
   21  A    between atoms: C_32  and  C_47
   22  A    between atoms: C_32  and  C_52
   23  A    between atoms: C_33  and  C_54
   24  A    between atoms: N_39  and  C_41
   25  A    between atoms: C_40  and  N_53
   26  A    between atoms: C_48  and  C_52
                            x       y       z     vdW  Elec       q    Type
                         _______ _______ _______ _____ _____    ______ ____

>  <TORSDO>
F 26

$$$$
=
 OpenBabel11032420223D

 55 58  0  0  1  0  0  0  0  0999 V2000
  187.1070  176.4150  143.6240 S   0  0  0  0  0  0  0  0  0  0  0  0
  187.7630  178.4740  145.1080 N   0  0  0  0  0  0  0  0  0  0  0  0
  188.7890  177.1010  143.4820 C   0  0  1  0  0  3  0  0  0  0  0  0
  186.7440  177.8160  144.6630 C   0  0  0  0  0  0  0  0  0  0  0  0
  189.0520  177.9120  144.7590 C   0  0  2  0  0  3  0  0  0  0  0  0
  189.5640  177.1340  145.9540 C   0  0  0  0  0  0  0  0  0  0  0  0
  188.8050  176.8600  146.9260 O   0  0  0  0  0  0  0  0  0  0  0  0
  190.9990  176.7700  146.0230 C   0  0  0  0  0  0  0  0  0  0  0  0
  191.8650  177.5700  145.5890 O   0  0  0  0  0  0  0  0  0  0  0  0
  191.4710  175.4780  146.6240 C   0  0  1  0  0  3  0  0  0  0  0  0
  192.4510  174.7630  145.7040 C   0  0  0  0  0  1  0  0  0  0  0  0
  192.0640  175.7090  148.0050 C   0  0  0  0  0  2  0  0  0  0  0  0
  192.2310  177.0770  148.2270 O   0  0  0  0  0  1  0  0  0  0  0  0
  184.4860  178.4740  144.0640 N   0  0  0  0  0  0  0  0  0  0  0  0
  185.3880  178.2060  144.9330 N   0  0  0  0  0  0  0  0  0  0  0  0
  185.3610  179.5680  142.1940 O   0  0  0  0  0  1  0  0  0  0  0  0
  184.6690  178.4340  142.6150 C   0  0  2  0  0  3  0  0  0  0  0  0
  183.3170  178.3300  141.8840 C   0  0  2  0  0  3  0  0  0  0  0  0
  183.4140  178.6930  140.3800 C   0  0  2  0  0  3  0  0  0  0  0  0
  182.2830  179.5370  139.8460 C   0  0  0  0  0  2  0  0  0  0  0  0
  183.5540  177.5350  139.4840 N   0  0  0  0  0  0  0  0  0  0  0  0
  182.3730  179.3260  138.3520 C   0  0  0  0  0  2  0  0  0  0  0  0
  183.1650  178.0360  138.1690 C   0  0  0  0  0  2  0  0  0  0  0  0
  182.5810  176.4950  139.8220 C   0  0  0  0  0  2  0  0  0  0  0  0
  181.7050  176.2140  138.6170 C   0  0  0  0  0  2  0  0  0  0  0  0
  181.2000  174.7930  138.6780 C   0  0  0  0  0  2  0  0  0  0  0  0
  182.6010  173.6240  137.0170 N   0  0  0  0  0  0  0  0  0  0  0  0
  181.3820  174.1280  137.3560 C   0  0  0  0  0  0  0  0  0  0  0  0
  179.0390  174.4770  136.7990 O   0  0  0  0  0  1  0  0  0  0  0  0
  180.2980  173.9860  136.4750 C   0  0  0  0  0  0  0  0  0  0  0  0
  180.4950  173.3390  135.2520 C   0  0  0  0  0  3  0  0  0  0  0  0
  182.8050  172.9850  135.8320 C   0  0  0  0  0  3  0  0  0  0  0  0
  181.7540  172.8320  134.9250 C   0  0  0  0  0  3  0  0  0  0  0  0
  182.1980  179.0880  142.6180 C   0  0  1  0  0  3  0  0  0  0  0  0
  180.8840  178.9870  141.8560 C   0  0  0  0  0  1  0  0  0  0  0  0
  180.6840  178.2730  144.0230 C   0  0  0  0  0  1  0  0  0  0  0  0
  182.0310  178.6230  143.9290 O   0  0  0  0  0  0  0  0  0  0  0  0
  189.7760  176.0620  143.2310 N   0  0  0  0  0  2  0  0  0  0  0  0
  189.9650  175.9990  141.8450 N   0  0  0  0  0  2  0  0  0  0  0  0
  190.2000  177.3610  141.3790 C   0  0  2  0  0  3  0  0  0  0  0  0
  190.4400  177.4060  139.8700 C   0  0  1  0  0  3  0  0  0  0  0  0
  191.6080  177.4790  140.8280 C   0  0  0  0  0  2  0  0  0  0  0  0
  190.3930  176.1320  139.2910 O   0  0  0  0  0  0  0  0  0  0  0  0
  190.9810  176.2820  138.0310 C   0  0  1  0  0  3  0  0  0  0  0  0
  192.0090  175.1830  137.7910 C   0  0  0  0  0  2  0  0  0  0  0  0
  194.0540  175.2370  136.5590 O   0  0  0  0  0  0  0  0  0  0  0  0
  193.7950  176.8920  138.1320 O   0  0  0  0  0  1  0  0  0  0  0  0
  193.3340  175.7730  137.4470 C   0  0  0  0  0  0  0  0  0  0  0  0
  189.9100  176.2490  136.9510 C   0  0  0  0  0  2  0  0  0  0  0  0
  189.3780  177.5240  136.7450 O   0  0  0  0  0  0  0  0  0  0  0  0
  188.1120  177.2960  136.2040 C   0  0  0  0  0  2  0  0  0  0  0  0
  187.1310  176.9440  137.3130 C   0  0  0  0  0  2  0  0  0  0  0  0
  186.6640  174.6650  136.4180 C   0  0  0  0  0  1  0  0  0  0  0  0
  186.0540  175.9990  136.8070 C   0  0  0  0  0  3  0  0  0  0  0  0
  185.3730  176.6090  135.6030 C   0  0  0  0  0  1  0  0  0  0  0  0
  1  4  1  0  0  0  0
  3 38  1  1  0  0  0
  3  1  1  0  0  0  0
  3  5  1  0  0  0  0
  4 15  1  0  0  0  0
  4  2  2  0  0  0  0
  5  2  1  0  0  0  0
  5  6  1  1  0  0  0
  6  8  1  0  0  0  0
  6  7  2  0  0  0  0
  8 10  1  0  0  0  0
  9  8  2  0  0  0  0
 10 11  1  6  0  0  0
 10 12  1  0  0  0  0
 12 13  1  0  0  0  0
 14 15  2  0  0  0  0
 17 16  1  6  0  0  0
 17 14  1  0  0  0  0
 18 17  1  1  0  0  0
 18 34  1  0  0  0  0
 19 18  1  1  0  0  0
 20 19  1  0  0  0  0
 21 24  1  0  0  0  0
 21 19  1  0  0  0  0
 22 20  1  0  0  0  0
 23 22  1  0  0  0  0
 23 21  1  0  0  0  0
 25 26  1  0  0  0  0
 25 24  1  0  0  0  0
 27 28  1  0  0  0  0
 28 26  1  0  0  0  0
 30 29  1  0  0  0  0
 30 28  2  0  0  0  0
 31 30  1  0  0  0  0
 32 27  2  0  0  0  0
 33 31  2  0  0  0  0
 33 32  1  0  0  0  0
 34 35  1  6  0  0  0
 34 37  1  0  0  0  0
 37 36  1  0  0  0  0
 39 38  1  0  0  0  0
 40 39  1  6  0  0  0
 41 43  1  6  0  0  0
 41 42  1  0  0  0  0
 41 40  1  0  0  0  0
 42 40  1  0  0  0  0
 44 49  1  6  0  0  0
 44 43  1  0  0  0  0
 45 44  1  0  0  0  0
 46 48  2  0  0  0  0
 48 45  1  0  0  0  0
 48 47  1  0  0  0  0
 50 49  1  0  0  0  0
 51 50  1  0  0  0  0
 51 52  1  0  0  0  0
 53 54  1  0  0  0  0
 54 52  1  0  0  0  0
 55 54  1  0  0  0  0
M  END
>  <MODEL>
7

>  <REMARK>
 VINA RESULT:      -4.6      2.865      7.382
  Name = 
  26 active torsions:
  status: ('A' for Active; 'I' for Inactive)
    1  A    between atoms: C_4  and  C_54
    2  A    between atoms: C_5  and  O_26
    3  A    between atoms: C_5  and  C_44
    4  A    between atoms: C_7  and  C_20
    5  A    between atoms: C_8  and  C_15
    6  A    between atoms: C_8  and  C_50
    7  A    between atoms: O_9  and  C_32
    8  A    between atoms: O_9  and  C_49
    9  A    between atoms: C_11  and  O_45
   10  A    between atoms: C_11  and  C_54
   11  A    between atoms: C_12  and  C_18
   12  A    between atoms: C_12  and  C_41
   13  A    between atoms: N_14  and  C_33
   14  A    between atoms: C_15  and  C_20
   15  A    between atoms: C_16  and  C_44
   16  A    between atoms: C_18  and  C_19
   17  A    between atoms: C_24  and  N_25
   18  A    between atoms: N_25  and  N_31
   19  A    between atoms: O_26  and  C_47
   20  A    between atoms: N_31  and  C_36
   21  A    between atoms: C_32  and  C_47
   22  A    between atoms: C_32  and  C_52
   23  A    between atoms: C_33  and  C_54
   24  A    between atoms: N_39  and  C_41
   25  A    between atoms: C_40  and  N_53
   26  A    between atoms: C_48  and  C_52
                            x       y       z     vdW  Elec       q    Type
                         _______ _______ _______ _____ _____    ______ ____

>  <TORSDO>
F 26

$$$$
=
 OpenBabel11032420223D

 55 58  0  0  1  0  0  0  0  0999 V2000
  187.4610  177.1840  139.5270 S   0  0  0  0  0  0  0  0  0  0  0  0
  189.8480  178.2660  139.5010 N   0  0  0  0  0  0  0  0  0  0  0  0
  188.3260  177.3690  137.9340 C   0  0  1  0  0  3  0  0  0  0  0  0
  188.7910  178.1390  140.2320 C   0  0  0  0  0  0  0  0  0  0  0  0
  189.8180  177.5350  138.2510 C   0  0  2  0  0  3  0  0  0  0  0  0
  190.6120  176.2580  138.4350 C   0  0  0  0  0  0  0  0  0  0  0  0
  190.5950  175.6340  139.5330 O   0  0  0  0  0  0  0  0  0  0  0  0
  191.4920  175.7850  137.3400 C   0  0  0  0  0  0  0  0  0  0  0  0
  191.3120  176.2090  136.1710 O   0  0  0  0  0  0  0  0  0  0  0  0
  192.6240  174.8280  137.5760 C   0  0  1  0  0  3  0  0  0  0  0  0
  192.7430  173.8190  136.4420 C   0  0  0  0  0  1  0  0  0  0  0  0
  193.9280  175.5780  137.8000 C   0  0  0  0  0  2  0  0  0  0  0  0
  193.7090  176.6690  138.6420 O   0  0  0  0  0  1  0  0  0  0  0  0
  188.7410  178.1930  142.6580 N   0  0  0  0  0  0  0  0  0  0  0  0
  188.6510  178.7660  141.5160 N   0  0  0  0  0  0  0  0  0  0  0  0
  187.7990  176.0830  143.0050 O   0  0  0  0  0  1  0  0  0  0  0  0
  189.0030  176.7720  142.8720 C   0  0  2  0  0  3  0  0  0  0  0  0
  189.8880  176.5480  144.1130 C   0  0  2  0  0  3  0  0  0  0  0  0
  189.6760  177.6250  145.2070 C   0  0  2  0  0  3  0  0  0  0  0  0
  190.2950  177.3120  146.5480 C   0  0  0  0  0  2  0  0  0  0  0  0
  188.2690  177.9770  145.4490 N   0  0  0  0  0  0  0  0  0  0  0  0
  189.5540  178.2310  147.4910 C   0  0  0  0  0  2  0  0  0  0  0  0
  188.2680  178.6090  146.7660 C   0  0  0  0  0  2  0  0  0  0  0  0
  187.4470  176.7730  145.5800 C   0  0  0  0  0  2  0  0  0  0  0  0
  185.9880  177.1350  145.3830 C   0  0  0  0  0  2  0  0  0  0  0  0
  185.8840  178.5310  144.8170 C   0  0  0  0  0  2  0  0  0  0  0  0
  185.0510  178.2230  142.5140 N   0  0  0  0  0  0  0  0  0  0  0  0
  184.7950  178.5910  143.8010 C   0  0  0  0  0  0  0  0  0  0  0  0
  183.2030  179.3570  145.4750 O   0  0  0  0  0  1  0  0  0  0  0  0
  183.4990  178.9890  144.1680 C   0  0  0  0  0  0  0  0  0  0  0  0
  182.4940  179.0150  143.1970 C   0  0  0  0  0  3  0  0  0  0  0  0
  184.0790  178.2360  141.5610 C   0  0  0  0  0  3  0  0  0  0  0  0
  182.7810  178.6350  141.8850 C   0  0  0  0  0  3  0  0  0  0  0  0
  191.3670  176.3410  143.7440 C   0  0  1  0  0  3  0  0  0  0  0  0
  191.8890  175.0290  144.3130 C   0  0  0  0  0  1  0  0  0  0  0  0
  192.1190  177.6320  142.1020 C   0  0  0  0  0  1  0  0  0  0  0  0
  191.5650  176.3770  142.3580 O   0  0  0  0  0  0  0  0  0  0  0  0
  188.0350  176.2640  137.0320 N   0  0  0  0  0  2  0  0  0  0  0  0
  187.6800  176.8240  135.7980 N   0  0  0  0  0  2  0  0  0  0  0  0
  186.5050  177.6580  136.0230 C   0  0  2  0  0  3  0  0  0  0  0  0
  185.2110  176.8990  135.7290 C   0  0  1  0  0  3  0  0  0  0  0  0
  185.7690  177.8730  134.7150 C   0  0  0  0  0  2  0  0  0  0  0  0
  185.4550  175.5890  135.2980 O   0  0  0  0  0  0  0  0  0  0  0  0
  184.5870  174.7900  136.0490 C   0  0  1  0  0  3  0  0  0  0  0  0
  185.3280  174.1620  137.2240 C   0  0  0  0  0  2  0  0  0  0  0  0
  185.1230  171.9500  136.3470 O   0  0  0  0  0  0  0  0  0  0  0  0
  187.2240  172.5470  137.0610 O   0  0  0  0  0  1  0  0  0  0  0  0
  185.8810  172.8320  136.8400 C   0  0  0  0  0  0  0  0  0  0  0  0
  183.4150  175.6230  136.5480 C   0  0  0  0  0  2  0  0  0  0  0  0
  182.7130  174.9390  137.5440 O   0  0  0  0  0  0  0  0  0  0  0  0
  182.9280  175.6840  138.7040 C   0  0  0  0  0  2  0  0  0  0  0  0
  181.7140  175.5810  139.6170 C   0  0  0  0  0  2  0  0  0  0  0  0
  179.9170  177.2410  140.0970 C   0  0  0  0  0  1  0  0  0  0  0  0
  180.5330  176.3430  139.0400 C   0  0  0  0  0  3  0  0  0  0  0  0
  179.4940  175.3630  138.5450 C   0  0  0  0  0  1  0  0  0  0  0  0
  1  4  1  0  0  0  0
  2  4  2  0  0  0  0
  3 38  1  6  0  0  0
  3  5  1  0  0  0  0
  3  1  1  0  0  0  0
  4 15  1  0  0  0  0
  5  6  1  1  0  0  0
  5  2  1  0  0  0  0
  6  7  2  0  0  0  0
  8 10  1  0  0  0  0
  8  6  1  0  0  0  0
  9  8  2  0  0  0  0
 10 11  1  6  0  0  0
 10 12  1  0  0  0  0
 12 13  1  0  0  0  0
 14 17  1  0  0  0  0
 15 14  2  0  0  0  0
 17 16  1  1  0  0  0
 18 17  1  6  0  0  0
 19 18  1  6  0  0  0
 19 21  1  0  0  0  0
 19 20  1  0  0  0  0
 20 22  1  0  0  0  0
 21 24  1  0  0  0  0
 21 23  1  0  0  0  0
 23 22  1  0  0  0  0
 25 24  1  0  0  0  0
 26 25  1  0  0  0  0
 27 28  1  0  0  0  0
 28 30  2  0  0  0  0
 28 26  1  0  0  0  0
 30 29  1  0  0  0  0
 31 30  1  0  0  0  0
 32 33  1  0  0  0  0
 32 27  2  0  0  0  0
 33 31  2  0  0  0  0
 34 18  1  0  0  0  0
 34 35  1  6  0  0  0
 36 37  1  0  0  0  0
 37 34  1  0  0  0  0
 39 38  1  0  0  0  0
 40 39  1  6  0  0  0
 41 43  1  6  0  0  0
 41 40  1  0  0  0  0
 42 41  1  0  0  0  0
 42 40  1  0  0  0  0
 43 44  1  0  0  0  0
 44 49  1  1  0  0  0
 44 45  1  0  0  0  0
 46 48  2  0  0  0  0
 48 47  1  0  0  0  0
 48 45  1  0  0  0  0
 49 50  1  0  0  0  0
 50 51  1  0  0  0  0
 51 52  1  0  0  0  0
 54 52  1  0  0  0  0
 54 53  1  0  0  0  0
 55 54  1  0  0  0  0
M  END
>  <MODEL>
8

>  <REMARK>
 VINA RESULT:      -4.6      3.568      8.415
  Name = 
  26 active torsions:
  status: ('A' for Active; 'I' for Inactive)
    1  A    between atoms: C_4  and  C_54
    2  A    between atoms: C_5  and  O_26
    3  A    between atoms: C_5  and  C_44
    4  A    between atoms: C_7  and  C_20
    5  A    between atoms: C_8  and  C_15
    6  A    between atoms: C_8  and  C_50
    7  A    between atoms: O_9  and  C_32
    8  A    between atoms: O_9  and  C_49
    9  A    between atoms: C_11  and  O_45
   10  A    between atoms: C_11  and  C_54
   11  A    between atoms: C_12  and  C_18
   12  A    between atoms: C_12  and  C_41
   13  A    between atoms: N_14  and  C_33
   14  A    between atoms: C_15  and  C_20
   15  A    between atoms: C_16  and  C_44
   16  A    between atoms: C_18  and  C_19
   17  A    between atoms: C_24  and  N_25
   18  A    between atoms: N_25  and  N_31
   19  A    between atoms: O_26  and  C_47
   20  A    between atoms: N_31  and  C_36
   21  A    between atoms: C_32  and  C_47
   22  A    between atoms: C_32  and  C_52
   23  A    between atoms: C_33  and  C_54
   24  A    between atoms: N_39  and  C_41
   25  A    between atoms: C_40  and  N_53
   26  A    between atoms: C_48  and  C_52
                            x       y       z     vdW  Elec       q    Type
                         _______ _______ _______ _____ _____    ______ ____

>  <TORSDO>
F 26

$$$$
=
 OpenBabel11032420223D

 55 58  0  0  1  0  0  0  0  0999 V2000
  188.2040  178.1350  138.1460 S   0  0  0  0  0  0  0  0  0  0  0  0
  188.1430  176.1470  136.4380 N   0  0  0  0  0  0  0  0  0  0  0  0
  189.0970  176.6010  138.5510 C   0  0  1  0  0  3  0  0  0  0  0  0
  187.5440  177.2500  136.7470 C   0  0  0  0  0  0  0  0  0  0  0  0
  189.3180  175.8480  137.2310 C   0  0  2  0  0  3  0  0  0  0  0  0
  190.5390  176.2450  136.4280 C   0  0  0  0  0  0  0  0  0  0  0  0
  190.4910  177.1920  135.5940 O   0  0  0  0  0  0  0  0  0  0  0  0
  191.7840  175.4500  136.5590 C   0  0  0  0  0  0  0  0  0  0  0  0
  191.8050  174.2590  136.1610 O   0  0  0  0  0  0  0  0  0  0  0  0
  193.0480  176.0260  137.1300 C   0  0  1  0  0  3  0  0  0  0  0  0
  193.7260  175.0440  138.0750 C   0  0  0  0  0  1  0  0  0  0  0  0
  193.9850  176.4790  136.0220 C   0  0  0  0  0  2  0  0  0  0  0  0
  194.9570  175.5030  135.7950 O   0  0  0  0  0  1  0  0  0  0  0  0
  185.1620  177.4370  136.3230 N   0  0  0  0  0  0  0  0  0  0  0  0
  186.3800  177.7250  136.0520 N   0  0  0  0  0  0  0  0  0  0  0  0
  185.1350  175.2520  137.1490 O   0  0  0  0  0  1  0  0  0  0  0  0
  184.7210  176.5580  137.4030 C   0  0  2  0  0  3  0  0  0  0  0  0
  183.1900  176.6100  137.5750 C   0  0  2  0  0  3  0  0  0  0  0  0
  182.7580  177.0350  139.0010 C   0  0  2  0  0  3  0  0  0  0  0  0
  181.5830  176.2770  139.5710 C   0  0  0  0  0  2  0  0  0  0  0  0
  182.4610  178.4690  139.1430 N   0  0  0  0  0  0  0  0  0  0  0  0
  181.1000  177.1800  140.6820 C   0  0  0  0  0  2  0  0  0  0  0  0
  181.6580  178.5600  140.3600 C   0  0  0  0  0  2  0  0  0  0  0  0
  181.5980  178.9310  138.0560 C   0  0  0  0  0  2  0  0  0  0  0  0
  181.8590  180.4020  137.7960 C   0  0  0  0  0  2  0  0  0  0  0  0
  180.5680  181.1750  137.9150 C   0  0  0  0  0  2  0  0  0  0  0  0
  181.1120  183.5640  137.6170 N   0  0  0  0  0  0  0  0  0  0  0  0
  180.6310  182.4080  137.0790 C   0  0  0  0  0  0  0  0  0  0  0  0
  179.7500  181.2120  135.1520 O   0  0  0  0  0  1  0  0  0  0  0  0
  180.2320  182.3780  135.7330 C   0  0  0  0  0  0  0  0  0  0  0  0
  180.3230  183.5450  134.9700 C   0  0  0  0  0  3  0  0  0  0  0  0
  181.2140  184.7050  136.8820 C   0  0  0  0  0  3  0  0  0  0  0  0
  180.8180  184.7180  135.5430 C   0  0  0  0  0  3  0  0  0  0  0  0
  182.5060  175.3190  137.0930 C   0  0  1  0  0  3  0  0  0  0  0  0
  181.0330  175.3100  137.4780 C   0  0  0  0  0  1  0  0  0  0  0  0
  181.9760  176.2280  135.1390 C   0  0  0  0  0  1  0  0  0  0  0  0
  182.6420  175.1440  135.7100 O   0  0  0  0  0  0  0  0  0  0  0  0
  190.3240  176.8690  139.2870 N   0  0  0  0  0  2  0  0  0  0  0  0
  190.1740  176.3010  140.5580 N   0  0  0  0  0  2  0  0  0  0  0  0
  190.8610  177.1710  141.5050 C   0  0  2  0  0  3  0  0  0  0  0  0
  189.9280  177.6330  142.6250 C   0  0  1  0  0  3  0  0  0  0  0  0
  190.2460  178.5560  141.4700 C   0  0  0  0  0  2  0  0  0  0  0  0
  188.6320  177.1270  142.4720 O   0  0  0  0  0  0  0  0  0  0  0  0
  187.9100  177.6400  143.5550 C   0  0  1  0  0  3  0  0  0  0  0  0
  186.4380  177.2620  143.4380 C   0  0  0  0  0  2  0  0  0  0  0  0
  185.2290  178.7690  144.8430 O   0  0  0  0  0  1  0  0  0  0  0  0
  185.1110  179.1970  142.5880 O   0  0  0  0  0  0  0  0  0  0  0  0
  185.5730  178.4540  143.6680 C   0  0  0  0  0  0  0  0  0  0  0  0
  188.4880  177.1160  144.8610 C   0  0  0  0  0  2  0  0  0  0  0  0
  189.5010  177.9590  145.3250 O   0  0  0  0  0  0  0  0  0  0  0  0
  189.8680  177.4230  146.5610 C   0  0  0  0  0  2  0  0  0  0  0  0
  188.6540  176.8000  147.2360 C   0  0  0  0  0  2  0  0  0  0  0  0
  187.0130  178.5740  147.8490 C   0  0  0  0  0  1  0  0  0  0  0  0
  188.1370  177.6890  148.3550 C   0  0  0  0  0  3  0  0  0  0  0  0
  189.2640  178.5540  148.8710 C   0  0  0  0  0  1  0  0  0  0  0  0
  1  3  1  0  0  0  0
  2  4  2  0  0  0  0
  2  5  1  0  0  0  0
  3 38  1  6  0  0  0
  4  1  1  0  0  0  0
  5  6  1  6  0  0  0
  5  3  1  0  0  0  0
  6  8  1  0  0  0  0
  7  6  2  0  0  0  0
  8 10  1  0  0  0  0
  9  8  2  0  0  0  0
 10 11  1  6  0  0  0
 12 10  1  0  0  0  0
 13 12  1  0  0  0  0
 14 17  1  0  0  0  0
 15 14  2  0  0  0  0
 15  4  1  0  0  0  0
 17 16  1  6  0  0  0
 17 18  1  0  0  0  0
 18 34  1  1  0  0  0
 19 18  1  6  0  0  0
 19 21  1  0  0  0  0
 19 20  1  0  0  0  0
 20 22  1  0  0  0  0
 21 23  1  0  0  0  0
 23 22  1  0  0  0  0
 24 21  1  0  0  0  0
 25 26  1  0  0  0  0
 25 24  1  0  0  0  0
 28 27  1  0  0  0  0
 28 26  1  0  0  0  0
 29 30  1  0  0  0  0
 30 28  2  0  0  0  0
 31 33  2  0  0  0  0
 31 30  1  0  0  0  0
 32 27  2  0  0  0  0
 33 32  1  0  0  0  0
 34 35  1  6  0  0  0
 36 37  1  0  0  0  0
 37 34  1  0  0  0  0
 38 39  1  0  0  0  0
 40 39  1  6  0  0  0
 40 41  1  0  0  0  0
 41 43  1  6  0  0  0
 42 40  1  0  0  0  0
 42 41  1  0  0  0  0
 43 44  1  0  0  0  0
 44 45  1  6  0  0  0
 44 49  1  0  0  0  0
 45 48  1  0  0  0  0
 47 48  2  0  0  0  0
 48 46  1  0  0  0  0
 49 50  1  0  0  0  0
 50 51  1  0  0  0  0
 51 52  1  0  0  0  0
 52 54  1  0  0  0  0
 53 54  1  0  0  0  0
 54 55  1  0  0  0  0
M  END
>  <MODEL>
9

>  <REMARK>
 VINA RESULT:      -4.4      2.093      3.521
  Name = 
  26 active torsions:
  status: ('A' for Active; 'I' for Inactive)
    1  A    between atoms: C_4  and  C_54
    2  A    between atoms: C_5  and  O_26
    3  A    between atoms: C_5  and  C_44
    4  A    between atoms: C_7  and  C_20
    5  A    between atoms: C_8  and  C_15
    6  A    between atoms: C_8  and  C_50
    7  A    between atoms: O_9  and  C_32
    8  A    between atoms: O_9  and  C_49
    9  A    between atoms: C_11  and  O_45
   10  A    between atoms: C_11  and  C_54
   11  A    between atoms: C_12  and  C_18
   12  A    between atoms: C_12  and  C_41
   13  A    between atoms: N_14  and  C_33
   14  A    between atoms: C_15  and  C_20
   15  A    between atoms: C_16  and  C_44
   16  A    between atoms: C_18  and  C_19
   17  A    between atoms: C_24  and  N_25
   18  A    between atoms: N_25  and  N_31
   19  A    between atoms: O_26  and  C_47
   20  A    between atoms: N_31  and  C_36
   21  A    between atoms: C_32  and  C_47
   22  A    between atoms: C_32  and  C_52
   23  A    between atoms: C_33  and  C_54
   24  A    between atoms: N_39  and  C_41
   25  A    between atoms: C_40  and  N_53
   26  A    between atoms: C_48  and  C_52
                            x       y       z     vdW  Elec       q    Type
                         _______ _______ _______ _____ _____    ______ ____

>  <TORSDO>
F 26

$$$$
