=
 OpenBabel11032419223D

 51 54  0  0  1  0  0  0  0  0999 V2000
  181.0040  178.3920  139.2900 C   0  0  0  0  0  0  0  0  0  0  0  0
  190.7150  176.3720  142.3790 C   0  0  0  0  0  1  0  0  0  0  0  0
  184.4650  179.0850  142.5230 C   0  0  0  0  0  2  0  0  0  0  0  0
  185.6950  178.7480  143.3660 C   0  0  1  0  0  3  0  0  0  0  0  0
  181.7410  179.0750  138.2770 N   0  0  0  0  0  0  0  0  0  0  0  0
  185.3170  178.5900  144.8350 C   0  0  0  0  0  2  0  0  0  0  0  0
  187.7440  177.5060  140.2610 C   0  0  0  0  0  3  0  0  0  0  0  0
  183.1470  178.2230  140.5900 C   0  0  0  0  0  0  0  0  0  0  0  0
  188.4270  178.1820  138.0490 C   0  0  0  0  0  3  0  0  0  0  0  0
  189.0830  177.2520  140.6350 C   0  0  0  0  0  0  0  0  0  0  0  0
  187.5860  177.4780  143.5220 C   0  0  2  0  0  3  0  0  0  0  0  0
  185.6490  178.2340  137.2280 C   0  0  0  0  0  1  0  0  0  0  0  0
  189.3750  176.7720  141.9770 N   0  0  0  0  0  0  0  0  0  0  0  0
  183.7840  178.7930  139.5430 C   0  0  0  0  0  0  0  0  0  0  0  0
  183.0190  179.2610  138.3760 C   0  0  0  0  0  3  0  0  0  0  0  0
  185.2580  179.0910  139.5680 C   0  0  0  0  0  2  0  0  0  0  0  0
  181.6810  177.9050  140.5390 C   0  0  0  0  0  2  0  0  0  0  0  0
  186.3270  177.5710  142.9060 O   0  0  0  0  0  0  0  0  0  0  0  0
  183.8560  177.8470  141.8630 C   0  0  0  0  0  2  0  0  0  0  0  0
  179.7710  178.1960  139.1330 O   0  0  0  0  0  0  0  0  0  0  0  0
  186.0380  178.2740  138.6390 N   0  0  0  0  0  0  0  0  0  0  0  0
  189.7550  177.9470  138.3890 C   0  0  0  0  0  3  0  0  0  0  0  0
  186.6120  178.3960  145.6230 C   0  0  2  0  0  3  0  0  0  0  0  0
  188.3260  176.3100  142.8840 C   0  0  0  0  0  2  0  0  0  0  0  0
  190.1070  177.4920  139.6710 C   0  0  0  0  0  0  0  0  0  0  0  0
  187.4090  177.2300  145.0260 C   0  0  0  0  0  2  0  0  0  0  0  0
  187.4030  177.9700  138.9820 C   0  0  0  0  0  0  0  0  0  0  0  0
  186.3470  178.2650  147.1320 C   0  0  2  0  0  3  0  0  0  0  0  0
  185.9330  179.5080  147.6230 O   0  0  0  0  0  1  0  0  0  0  0  0
  187.6140  177.8260  147.8710 C   0  0  2  0  0  3  0  0  0  0  0  0
  187.6430  178.3610  149.1610 O   0  0  0  0  0  1  0  0  0  0  0  0
  188.8790  178.2500  147.1380 C   0  0  0  0  0  2  0  0  0  0  0  0
  189.3540  175.9460  147.7760 N   0  0  0  0  0  1  0  0  0  0  0  0
  189.9570  177.2010  147.3620 C   0  0  1  0  0  3  0  0  0  0  0  0
  190.6990  178.1390  145.2850 O   0  0  0  0  0  1  0  0  0  0  0  0
  192.1420  176.7960  146.4280 O   0  0  0  0  0  1  0  0  0  0  0  0
  190.8020  177.0130  146.1020 C   0  0  0  0  0  3  0  0  0  0  0  0
  191.4560  177.2830  139.9770 O   0  0  0  0  0  0  0  0  0  0  0  0
  192.4580  177.2410  139.0060 C   0  0  0  0  0  3  0  0  0  0  0  0
  192.5300  176.2450  138.1870 N   0  0  0  0  0  0  0  0  0  0  0  0
  193.6000  176.2080  137.1970 C   0  0  0  0  0  2  0  0  0  0  0  0
  193.9550  174.7730  136.8070 C   0  0  2  0  0  0  0  0  0  0  0  0
  193.8900  173.9830  137.9710 O   0  0  0  0  0  1  0  0  0  0  0  0
  195.4010  174.8090  136.2730 C   0  0  0  0  0  3  0  0  0  0  0  0
  196.3010  174.3200  137.2270 O   0  0  0  0  0  1  0  0  0  0  0  0
  195.7870  176.0920  135.8790 O   0  0  0  0  0  1  0  0  0  0  0  0
  193.0500  174.3460  135.7840 O   0  0  0  0  0  0  0  0  0  0  0  0
  192.2990  173.1820  136.0980 C   0  0  0  0  0  0  0  0  0  0  0  0
  191.5930  172.8050  134.9770 F   0  0  0  0  0  0  0  0  0  0  0  0
  191.3800  173.4360  137.1020 F   0  0  0  0  0  0  0  0  0  0  0  0
  193.1100  172.1200  136.4640 F   0  0  0  0  0  0  0  0  0  0  0  0
  1 17  1  0  0  0  0
  4  3  1  6  0  0  0
  4  6  1  0  0  0  0
  5 15  2  0  0  0  0
  5  1  1  0  0  0  0
  6 23  1  0  0  0  0
  7 10  1  0  0  0  0
  8 19  1  0  0  0  0
  9 22  2  0  0  0  0
  9 27  1  0  0  0  0
 10 13  1  0  0  0  0
 11 24  1  6  0  0  0
 11 26  1  0  0  0  0
 12 21  1  0  0  0  0
 13  2  1  0  0  0  0
 13 24  1  0  0  0  0
 14 16  1  0  0  0  0
 14  8  2  0  0  0  0
 15 14  1  0  0  0  0
 17  8  1  0  0  0  0
 18  4  1  0  0  0  0
 18 11  1  0  0  0  0
 19  3  1  0  0  0  0
 20  1  2  0  0  0  0
 21 27  1  0  0  0  0
 21 16  1  0  0  0  0
 22 25  1  0  0  0  0
 23 28  1  1  0  0  0
 25 38  1  0  0  0  0
 25 10  2  0  0  0  0
 26 23  1  0  0  0  0
 27  7  2  0  0  0  0
 28 29  1  1  0  0  0
 28 30  1  0  0  0  0
 30 31  1  1  0  0  0
 32 34  1  0  0  0  0
 32 30  1  0  0  0  0
 34 33  1  6  0  0  0
 35 37  1  0  0  0  0
 37 36  1  0  0  0  0
 37 34  1  0  0  0  0
 39 38  1  0  0  0  0
 40 39  2  0  0  0  0
 41 40  1  0  0  0  0
 42 41  1  0  0  0  0
 42 43  1  1  0  0  0
 44 42  1  0  0  0  0
 44 45  1  0  0  0  0
 46 44  1  0  0  0  0
 47 48  1  0  0  0  0
 47 42  1  0  0  0  0
 48 51  1  0  0  0  0
 48 50  1  0  0  0  0
 49 48  1  0  0  0  0
M  END
>  <MODEL>
1

>  <REMARK>
 VINA RESULT:      -8.3      0.000      0.000
  Name = 
  12 active torsions:
  status: ('A' for Active; 'I' for Inactive)
    1  A    between atoms: C_4  and  C_18
    2  A    between atoms: C_4  and  C_42
    3  A    between atoms: C_8  and  C_43
    4  A    between atoms: C_15  and  O_35
    5  A    between atoms: C_18  and  C_19
    6  A    between atoms: C_19  and  CA_23
    7  A    between atoms: C_22  and  CA_23
    8  A    between atoms: C_27  and  C_43
    9  A    between atoms: C_27  and  N_49
   10  A    between atoms: C_28  and  O_47
   11  A    between atoms: O_35  and  C_43
   12  A    between atoms: C_46  and  O_47
                            x       y       z     vdW  Elec       q    Type
                         _______ _______ _______ _____ _____    ______ ____

>  <TORSDO>
F 12

$$$$
=
 OpenBabel11032419223D

 51 54  0  0  1  0  0  0  0  0999 V2000
  186.0000  179.1210  146.5330 C   0  0  0  0  0  0  0  0  0  0  0  0
  187.6530  178.3300  136.3070 C   0  0  0  0  0  1  0  0  0  0  0  0
  184.3880  177.7010  142.2560 C   0  0  0  0  0  2  0  0  0  0  0  0
  184.2140  177.7200  140.7370 C   0  0  1  0  0  3  0  0  0  0  0  0
  187.0480  178.1530  146.5180 N   0  0  0  0  0  0  0  0  0  0  0  0
  182.7930  178.1230  140.3600 C   0  0  0  0  0  2  0  0  0  0  0  0
  188.0740  177.9730  140.0880 C   0  0  0  0  0  3  0  0  0  0  0  0
  185.7560  178.7420  144.0610 C   0  0  0  0  0  0  0  0  0  0  0  0
  190.1640  176.9170  140.6600 C   0  0  0  0  0  3  0  0  0  0  0  0
  188.3420  177.8360  138.7060 C   0  0  0  0  0  0  0  0  0  0  0  0
  185.1240  178.3540  138.7410 C   0  0  2  0  0  3  0  0  0  0  0  0
  189.7520  177.6460  143.4340 C   0  0  0  0  0  1  0  0  0  0  0  0
  187.3760  178.3270  137.7350 N   0  0  0  0  0  0  0  0  0  0  0  0
  186.8180  177.9080  144.1220 C   0  0  0  0  0  0  0  0  0  0  0  0
  187.4390  177.5910  145.4170 C   0  0  0  0  0  3  0  0  0  0  0  0
  187.3290  177.1740  142.9120 C   0  0  0  0  0  2  0  0  0  0  0  0
  185.2750  179.4900  145.2700 C   0  0  0  0  0  2  0  0  0  0  0  0
  185.1380  178.5970  140.1250 O   0  0  0  0  0  0  0  0  0  0  0  0
  184.9980  178.9990  142.7870 C   0  0  0  0  0  2  0  0  0  0  0  0
  185.6820  179.6720  147.6180 O   0  0  0  0  0  0  0  0  0  0  0  0
  188.6500  177.6200  142.4690 N   0  0  0  0  0  0  0  0  0  0  0  0
  190.4540  176.7610  139.3090 C   0  0  0  0  0  3  0  0  0  0  0  0
  182.6630  177.9820  138.8440 C   0  0  2  0  0  3  0  0  0  0  0  0
  186.2470  179.1720  138.1180 C   0  0  0  0  0  2  0  0  0  0  0  0
  189.5610  177.2030  138.3190 C   0  0  0  0  0  0  0  0  0  0  0  0
  183.7730  178.7840  138.1540 C   0  0  0  0  0  2  0  0  0  0  0  0
  188.9680  177.5190  141.0690 C   0  0  0  0  0  0  0  0  0  0  0  0
  181.2460  178.3280  138.3580 C   0  0  2  0  0  3  0  0  0  0  0  0
  181.2150  178.2310  136.9630 O   0  0  0  0  0  1  0  0  0  0  0  0
  180.8590  179.7490  138.7750 C   0  0  2  0  0  3  0  0  0  0  0  0
  179.8440  179.7210  139.7350 O   0  0  0  0  0  1  0  0  0  0  0  0
  180.3880  180.5840  137.5920 C   0  0  0  0  0  2  0  0  0  0  0  0
  181.9300  182.2990  138.3820 N   0  0  0  0  0  1  0  0  0  0  0  0
  180.5740  182.0570  137.9210 C   0  0  1  0  0  3  0  0  0  0  0  0
  178.9840  183.5080  136.8670 O   0  0  0  0  0  1  0  0  0  0  0  0
  181.1990  183.9330  136.5430 O   0  0  0  0  0  1  0  0  0  0  0  0
  180.2440  182.9290  136.7100 C   0  0  0  0  0  3  0  0  0  0  0  0
  189.8830  177.0140  136.9710 O   0  0  0  0  0  0  0  0  0  0  0  0
  190.8230  176.0760  136.5390 C   0  0  0  0  0  3  0  0  0  0  0  0
  191.9170  176.4630  135.9740 N   0  0  0  0  0  0  0  0  0  0  0  0
  192.8740  175.4660  135.5060 C   0  0  0  0  0  2  0  0  0  0  0  0
  194.2360  175.6360  136.1770 C   0  0  2  0  0  0  0  0  0  0  0  0
  194.0630  176.4770  137.2940 O   0  0  0  0  0  1  0  0  0  0  0  0
  195.1540  176.3160  135.1410 C   0  0  0  0  0  3  0  0  0  0  0  0
  196.4310  176.5370  135.6700 O   0  0  0  0  0  1  0  0  0  0  0  0
  194.6240  177.5200  134.6750 O   0  0  0  0  0  1  0  0  0  0  0  0
  194.7350  174.3390  136.5200 O   0  0  0  0  0  0  0  0  0  0  0  0
  194.4710  173.9300  137.8540 C   0  0  0  0  0  0  0  0  0  0  0  0
  194.6420  172.5650  137.9320 F   0  0  0  0  0  0  0  0  0  0  0  0
  193.1620  174.2060  138.2110 F   0  0  0  0  0  0  0  0  0  0  0  0
  195.3370  174.5170  138.7620 F   0  0  0  0  0  0  0  0  0  0  0  0
  1 20  2  0  0  0  0
  2 13  1  0  0  0  0
  3 19  1  0  0  0  0
  4  6  1  1  0  0  0
  4  3  1  0  0  0  0
  5  1  1  0  0  0  0
  7 27  1  0  0  0  0
  8 14  2  0  0  0  0
  8 17  1  0  0  0  0
  9 27  2  0  0  0  0
 10  7  2  0  0  0  0
 11 24  1  6  0  0  0
 11 18  1  0  0  0  0
 13 24  1  0  0  0  0
 13 10  1  0  0  0  0
 14 15  1  0  0  0  0
 15  5  2  0  0  0  0
 16 14  1  0  0  0  0
 17  1  1  0  0  0  0
 18  4  1  0  0  0  0
 19  8  1  0  0  0  0
 21 16  1  0  0  0  0
 21 12  1  0  0  0  0
 22  9  1  0  0  0  0
 23 28  1  6  0  0  0
 23  6  1  0  0  0  0
 25 10  1  0  0  0  0
 25 22  2  0  0  0  0
 26 11  1  0  0  0  0
 26 23  1  0  0  0  0
 27 21  1  0  0  0  0
 28 29  1  6  0  0  0
 28 30  1  0  0  0  0
 30 31  1  1  0  0  0
 32 34  1  0  0  0  0
 32 30  1  0  0  0  0
 34 33  1  6  0  0  0
 36 37  1  0  0  0  0
 37 35  1  0  0  0  0
 37 34  1  0  0  0  0
 38 25  1  0  0  0  0
 39 38  1  0  0  0  0
 40 39  2  0  0  0  0
 41 40  1  0  0  0  0
 41 42  1  0  0  0  0
 42 47  1  0  0  0  0
 42 43  1  1  0  0  0
 44 45  1  0  0  0  0
 44 42  1  0  0  0  0
 46 44  1  0  0  0  0
 47 48  1  0  0  0  0
 48 49  1  0  0  0  0
 48 50  1  0  0  0  0
 48 51  1  0  0  0  0
M  END
>  <MODEL>
2

>  <REMARK>
 VINA RESULT:      -7.9      2.299      7.420
  Name = 
  12 active torsions:
  status: ('A' for Active; 'I' for Inactive)
    1  A    between atoms: C_4  and  C_18
    2  A    between atoms: C_4  and  C_42
    3  A    between atoms: C_8  and  C_43
    4  A    between atoms: C_15  and  O_35
    5  A    between atoms: C_18  and  C_19
    6  A    between atoms: C_19  and  CA_23
    7  A    between atoms: C_22  and  CA_23
    8  A    between atoms: C_27  and  C_43
    9  A    between atoms: C_27  and  N_49
   10  A    between atoms: C_28  and  O_47
   11  A    between atoms: O_35  and  C_43
   12  A    between atoms: C_46  and  O_47
                            x       y       z     vdW  Elec       q    Type
                         _______ _______ _______ _____ _____    ______ ____

>  <TORSDO>
F 12

$$$$
=
 OpenBabel11032419223D

 51 54  0  0  1  0  0  0  0  0999 V2000
  191.5200  176.0230  146.9980 C   0  0  0  0  0  0  0  0  0  0  0  0
  187.2280  177.3950  137.6380 C   0  0  0  0  0  1  0  0  0  0  0  0
  192.0390  177.4670  142.4650 C   0  0  0  0  0  2  0  0  0  0  0  0
  191.7880  177.4950  140.9560 C   0  0  1  0  0  3  0  0  0  0  0  0
  190.6100  177.0850  147.2880 N   0  0  0  0  0  0  0  0  0  0  0  0
  193.0040  176.9780  140.1960 C   0  0  0  0  0  2  0  0  0  0  0  0
  187.8930  177.6290  141.3930 C   0  0  0  0  0  3  0  0  0  0  0  0
  191.1170  176.4820  144.5610 C   0  0  0  0  0  0  0  0  0  0  0  0
  186.1550  178.8510  142.5350 C   0  0  0  0  0  3  0  0  0  0  0  0
  187.2730  177.8490  140.1410 C   0  0  0  0  0  0  0  0  0  0  0  0
  190.3090  177.0340  139.2790 C   0  0  2  0  0  3  0  0  0  0  0  0
  187.2330  177.9700  145.0770 C   0  0  0  0  0  1  0  0  0  0  0  0
  187.8820  177.3120  138.9340 N   0  0  0  0  0  0  0  0  0  0  0  0
  190.2020  177.4070  144.9250 C   0  0  0  0  0  0  0  0  0  0  0  0
  189.9930  177.7260  146.3460 C   0  0  0  0  0  3  0  0  0  0  0  0
  189.4560  178.2360  143.9140 C   0  0  0  0  0  2  0  0  0  0  0  0
  191.8310  175.6420  145.5790 C   0  0  0  0  0  2  0  0  0  0  0  0
  190.6480  176.7350  140.6100 O   0  0  0  0  0  0  0  0  0  0  0  0
  191.4690  176.2100  143.1240 C   0  0  0  0  0  2  0  0  0  0  0  0
  192.0650  175.4000  147.9450 O   0  0  0  0  0  0  0  0  0  0  0  0
  188.0270  177.9340  143.8460 N   0  0  0  0  0  0  0  0  0  0  0  0
  185.5250  179.0890  141.3190 C   0  0  0  0  0  3  0  0  0  0  0  0
  192.7290  177.1700  138.7050 C   0  0  2  0  0  3  0  0  0  0  0  0
  188.9820  176.3500  138.9780 C   0  0  0  0  0  2  0  0  0  0  0  0
  186.0650  178.6080  140.1140 C   0  0  0  0  0  0  0  0  0  0  0  0
  191.3980  176.5040  138.3360 C   0  0  0  0  0  2  0  0  0  0  0  0
  187.3510  178.1230  142.5890 C   0  0  0  0  0  0  0  0  0  0  0  0
  193.9170  176.7150  137.8420 C   0  0  2  0  0  3  0  0  0  0  0  0
  193.5550  176.8140  136.4940 O   0  0  0  0  0  1  0  0  0  0  0  0
  194.2970  175.2670  138.1590 C   0  0  2  0  0  3  0  0  0  0  0  0
  195.3350  175.2230  139.0940 O   0  0  0  0  0  1  0  0  0  0  0  0
  194.7290  174.5030  136.9150 C   0  0  0  0  0  2  0  0  0  0  0  0
  196.2290  172.5840  136.9920 N   0  0  0  0  0  1  0  0  0  0  0  0
  196.1630  174.0310  137.0950 C   0  0  1  0  0  3  0  0  0  0  0  0
  197.2420  176.0470  136.3790 O   0  0  0  0  0  1  0  0  0  0  0  0
  198.3360  174.0750  136.0540 O   0  0  0  0  0  1  0  0  0  0  0  0
  197.0860  174.6950  136.0730 C   0  0  0  0  0  3  0  0  0  0  0  0
  185.4070  178.8830  138.9110 O   0  0  0  0  0  0  0  0  0  0  0  0
  184.0910  179.3430  138.8520 C   0  0  0  0  0  3  0  0  0  0  0  0
  183.1120  178.5070  138.7450 N   0  0  0  0  0  0  0  0  0  0  0  0
  181.7460  179.0100  138.6590 C   0  0  0  0  0  2  0  0  0  0  0  0
  180.8550  178.4050  139.7430 C   0  0  2  0  0  0  0  0  0  0  0  0
  179.5200  178.5010  139.3060 O   0  0  0  0  0  1  0  0  0  0  0  0
  181.0590  179.2640  141.0080 C   0  0  0  0  0  3  0  0  0  0  0  0
  181.9160  178.6280  141.9140 O   0  0  0  0  0  1  0  0  0  0  0  0
  179.8520  179.5700  141.6390 O   0  0  0  0  0  1  0  0  0  0  0  0
  181.2780  177.0570  139.9750 O   0  0  0  0  0  0  0  0  0  0  0  0
  180.2240  176.1170  140.1190 C   0  0  0  0  0  0  0  0  0  0  0  0
  179.4980  176.0950  138.9490 F   0  0  0  0  0  0  0  0  0  0  0  0
  179.3610  176.4850  141.1380 F   0  0  0  0  0  0  0  0  0  0  0  0
  180.6960  174.8340  140.3480 F   0  0  0  0  0  0  0  0  0  0  0  0
  1  5  1  0  0  0  0
  1 20  2  0  0  0  0
  2 13  1  0  0  0  0
  3 19  1  0  0  0  0
  4  6  1  6  0  0  0
  4  3  1  0  0  0  0
  7 27  1  0  0  0  0
  8 14  2  0  0  0  0
  8 17  1  0  0  0  0
  9 27  2  0  0  0  0
 10  7  2  0  0  0  0
 11 26  1  6  0  0  0
 11 18  1  0  0  0  0
 13 24  1  0  0  0  0
 13 10  1  0  0  0  0
 14 15  1  0  0  0  0
 15  5  2  0  0  0  0
 16 14  1  0  0  0  0
 17  1  1  0  0  0  0
 18  4  1  0  0  0  0
 19  8  1  0  0  0  0
 21 16  1  0  0  0  0
 21 12  1  0  0  0  0
 22  9  1  0  0  0  0
 23 28  1  6  0  0  0
 23  6  1  0  0  0  0
 24 11  1  0  0  0  0
 25 10  1  0  0  0  0
 25 22  2  0  0  0  0
 26 23  1  0  0  0  0
 27 21  1  0  0  0  0
 28 29  1  6  0  0  0
 28 30  1  0  0  0  0
 30 31  1  1  0  0  0
 32 34  1  0  0  0  0
 32 30  1  0  0  0  0
 34 33  1  6  0  0  0
 36 37  1  0  0  0  0
 37 35  1  0  0  0  0
 37 34  1  0  0  0  0
 38 25  1  0  0  0  0
 39 38  1  0  0  0  0
 40 39  2  0  0  0  0
 41 40  1  0  0  0  0
 41 42  1  0  0  0  0
 42 43  1  6  0  0  0
 42 47  1  0  0  0  0
 42 44  1  0  0  0  0
 44 46  1  0  0  0  0
 44 45  1  0  0  0  0
 47 48  1  0  0  0  0
 48 51  1  0  0  0  0
 48 50  1  0  0  0  0
 49 48  1  0  0  0  0
M  END
>  <MODEL>
3

>  <REMARK>
 VINA RESULT:      -7.9      3.717     10.572
  Name = 
  12 active torsions:
  status: ('A' for Active; 'I' for Inactive)
    1  A    between atoms: C_4  and  C_18
    2  A    between atoms: C_4  and  C_42
    3  A    between atoms: C_8  and  C_43
    4  A    between atoms: C_15  and  O_35
    5  A    between atoms: C_18  and  C_19
    6  A    between atoms: C_19  and  CA_23
    7  A    between atoms: C_22  and  CA_23
    8  A    between atoms: C_27  and  C_43
    9  A    between atoms: C_27  and  N_49
   10  A    between atoms: C_28  and  O_47
   11  A    between atoms: O_35  and  C_43
   12  A    between atoms: C_46  and  O_47
                            x       y       z     vdW  Elec       q    Type
                         _______ _______ _______ _____ _____    ______ ____

>  <TORSDO>
F 12

$$$$
=
 OpenBabel11032419223D

 51 54  0  0  1  0  0  0  0  0999 V2000
  191.5130  176.0160  146.9860 C   0  0  0  0  0  0  0  0  0  0  0  0
  187.3840  177.4000  137.5550 C   0  0  0  0  0  1  0  0  0  0  0  0
  192.1100  177.4670  142.4650 C   0  0  0  0  0  2  0  0  0  0  0  0
  191.8850  177.4980  140.9520 C   0  0  1  0  0  3  0  0  0  0  0  0
  190.5990  177.0770  147.2620 N   0  0  0  0  0  0  0  0  0  0  0  0
  193.1150  176.9820  140.2120 C   0  0  0  0  0  2  0  0  0  0  0  0
  187.9830  177.6290  141.3210 C   0  0  0  0  0  3  0  0  0  0  0  0
  191.1530  176.4780  144.5430 C   0  0  0  0  0  0  0  0  0  0  0  0
  186.2260  178.8480  142.4350 C   0  0  0  0  0  3  0  0  0  0  0  0
  187.3850  177.8510  140.0600 C   0  0  0  0  0  0  0  0  0  0  0  0
  190.4360  177.0380  139.2490 C   0  0  2  0  0  3  0  0  0  0  0  0
  187.2600  177.9640  144.9940 C   0  0  0  0  0  1  0  0  0  0  0  0
  188.0150  177.3160  138.8620 N   0  0  0  0  0  0  0  0  0  0  0  0
  190.2310  177.4030  144.8920 C   0  0  0  0  0  0  0  0  0  0  0  0
  189.9970  177.7190  146.3100 C   0  0  0  0  0  3  0  0  0  0  0  0
  189.5030  178.2330  143.8710 C   0  0  0  0  0  2  0  0  0  0  0  0
  191.8500  175.6370  145.5720 C   0  0  0  0  0  2  0  0  0  0  0  0
  190.7530  176.7380  140.5850 O   0  0  0  0  0  0  0  0  0  0  0  0
  191.5290  176.2090  143.1120 C   0  0  0  0  0  2  0  0  0  0  0  0
  192.0420  175.3920  147.9420 O   0  0  0  0  0  0  0  0  0  0  0  0
  188.0750  177.9300  143.7770 N   0  0  0  0  0  0  0  0  0  0  0  0
  185.6160  179.0880  141.2090 C   0  0  0  0  0  3  0  0  0  0  0  0
  192.8650  177.1770  138.7170 C   0  0  2  0  0  3  0  0  0  0  0  0
  189.1140  176.3540  138.9240 C   0  0  0  0  0  2  0  0  0  0  0  0
  186.1770  178.6090  140.0130 C   0  0  0  0  0  0  0  0  0  0  0  0
  191.5410  176.5110  138.3240 C   0  0  0  0  0  2  0  0  0  0  0  0
  187.4210  178.1210  142.5090 C   0  0  0  0  0  0  0  0  0  0  0  0
  194.0690  176.7230  137.8740 C   0  0  2  0  0  3  0  0  0  0  0  0
  193.7450  176.8640  136.5200 O   0  0  0  0  0  1  0  0  0  0  0  0
  194.4160  175.2610  138.1630 C   0  0  2  0  0  3  0  0  0  0  0  0
  195.3450  175.1710  139.2020 O   0  0  0  0  0  1  0  0  0  0  0  0
  194.9830  174.5550  136.9380 C   0  0  0  0  0  2  0  0  0  0  0  0
  196.4010  172.5740  137.0130 N   0  0  0  0  0  1  0  0  0  0  0  0
  196.3580  174.0020  137.2770 C   0  0  1  0  0  3  0  0  0  0  0  0
  196.9430  175.9320  135.9830 O   0  0  0  0  0  1  0  0  0  0  0  0
  198.5480  175.0070  137.3090 O   0  0  0  0  0  1  0  0  0  0  0  0
  197.4470  174.7360  136.4960 C   0  0  0  0  0  3  0  0  0  0  0  0
  185.5410  178.8860  138.7990 O   0  0  0  0  0  0  0  0  0  0  0  0
  184.2180  178.5250  138.5340 C   0  0  0  0  0  3  0  0  0  0  0  0
  183.8620  177.2840  138.5690 N   0  0  0  0  0  0  0  0  0  0  0  0
  182.4810  176.9260  138.2640 C   0  0  0  0  0  2  0  0  0  0  0  0
  182.3680  175.4770  137.7920 C   0  0  2  0  0  0  0  0  0  0  0  0
  182.4170  175.4780  136.3850 O   0  0  0  0  0  1  0  0  0  0  0  0
  180.9940  174.9660  138.2720 C   0  0  0  0  0  3  0  0  0  0  0  0
  179.9530  175.6880  137.6760 O   0  0  0  0  0  1  0  0  0  0  0  0
  180.8660  175.0200  139.6610 O   0  0  0  0  0  1  0  0  0  0  0  0
  183.4250  174.7220  138.3930 O   0  0  0  0  0  0  0  0  0  0  0  0
  184.1510  173.8930  137.4970 C   0  0  0  0  0  0  0  0  0  0  0  0
  184.9570  173.0560  138.2370 F   0  0  0  0  0  0  0  0  0  0  0  0
  184.9750  174.6450  136.6770 F   0  0  0  0  0  0  0  0  0  0  0  0
  183.3170  173.1020  136.7240 F   0  0  0  0  0  0  0  0  0  0  0  0
  1  5  1  0  0  0  0
  1 20  2  0  0  0  0
  2 13  1  0  0  0  0
  3 19  1  0  0  0  0
  4  6  1  6  0  0  0
  4  3  1  0  0  0  0
  7 27  1  0  0  0  0
  8 14  2  0  0  0  0
  8 17  1  0  0  0  0
  9 27  2  0  0  0  0
 10  7  2  0  0  0  0
 11 26  1  6  0  0  0
 11 18  1  0  0  0  0
 13 24  1  0  0  0  0
 13 10  1  0  0  0  0
 14 15  1  0  0  0  0
 15  5  2  0  0  0  0
 16 14  1  0  0  0  0
 17  1  1  0  0  0  0
 18  4  1  0  0  0  0
 19  8  1  0  0  0  0
 21 16  1  0  0  0  0
 21 12  1  0  0  0  0
 22  9  1  0  0  0  0
 23 28  1  6  0  0  0
 23  6  1  0  0  0  0
 24 11  1  0  0  0  0
 25 10  1  0  0  0  0
 25 22  2  0  0  0  0
 26 23  1  0  0  0  0
 27 21  1  0  0  0  0
 28 29  1  6  0  0  0
 28 30  1  0  0  0  0
 30 31  1  1  0  0  0
 32 34  1  0  0  0  0
 32 30  1  0  0  0  0
 34 33  1  6  0  0  0
 35 37  1  0  0  0  0
 37 34  1  0  0  0  0
 37 36  1  0  0  0  0
 38 25  1  0  0  0  0
 39 40  2  0  0  0  0
 39 38  1  0  0  0  0
 41 40  1  0  0  0  0
 42 43  1  6  0  0  0
 42 41  1  0  0  0  0
 42 44  1  0  0  0  0
 42 47  1  0  0  0  0
 44 46  1  0  0  0  0
 45 44  1  0  0  0  0
 48 49  1  0  0  0  0
 48 47  1  0  0  0  0
 50 48  1  0  0  0  0
 51 48  1  0  0  0  0
M  END
>  <MODEL>
4

>  <REMARK>
 VINA RESULT:      -7.8      2.957      9.819
  Name = 
  12 active torsions:
  status: ('A' for Active; 'I' for Inactive)
    1  A    between atoms: C_4  and  C_18
    2  A    between atoms: C_4  and  C_42
    3  A    between atoms: C_8  and  C_43
    4  A    between atoms: C_15  and  O_35
    5  A    between atoms: C_18  and  C_19
    6  A    between atoms: C_19  and  CA_23
    7  A    between atoms: C_22  and  CA_23
    8  A    between atoms: C_27  and  C_43
    9  A    between atoms: C_27  and  N_49
   10  A    between atoms: C_28  and  O_47
   11  A    between atoms: O_35  and  C_43
   12  A    between atoms: C_46  and  O_47
                            x       y       z     vdW  Elec       q    Type
                         _______ _______ _______ _____ _____    ______ ____

>  <TORSDO>
F 12

$$$$
=
 OpenBabel11032419223D

 51 54  0  0  1  0  0  0  0  0999 V2000
  180.5610  181.1000  138.8660 C   0  0  0  0  0  0  0  0  0  0  0  0
  189.7890  177.2230  141.6480 C   0  0  0  0  0  1  0  0  0  0  0  0
  184.0730  177.9630  138.0110 C   0  0  0  0  0  2  0  0  0  0  0  0
  185.5010  177.4170  137.9880 C   0  0  1  0  0  3  0  0  0  0  0  0
  180.2070  180.4520  140.0870 N   0  0  0  0  0  0  0  0  0  0  0  0
  186.0240  177.3310  136.5580 C   0  0  0  0  0  2  0  0  0  0  0  0
  186.1250  178.3000  141.7580 C   0  0  0  0  0  3  0  0  0  0  0  0
  182.7360  179.8460  138.9510 C   0  0  0  0  0  0  0  0  0  0  0  0
  185.1720  178.0110  143.9540 C   0  0  0  0  0  3  0  0  0  0  0  0
  187.3600  177.7590  142.1840 C   0  0  0  0  0  0  0  0  0  0  0  0
  187.5740  177.5110  138.9410 C   0  0  2  0  0  3  0  0  0  0  0  0
  182.8530  179.5390  143.1290 C   0  0  0  0  0  1  0  0  0  0  0  0
  188.4600  177.6510  141.2390 N   0  0  0  0  0  0  0  0  0  0  0  0
  182.3610  179.3490  140.1500 C   0  0  0  0  0  0  0  0  0  0  0  0
  181.0260  179.6490  140.6920 C   0  0  0  0  0  3  0  0  0  0  0  0
  183.2160  178.3790  140.9190 C   0  0  0  0  0  2  0  0  0  0  0  0
  181.8860  180.8360  138.2090 C   0  0  0  0  0  2  0  0  0  0  0  0
  186.3690  178.2130  138.7680 O   0  0  0  0  0  0  0  0  0  0  0  0
  184.0310  179.4670  138.2860 C   0  0  0  0  0  2  0  0  0  0  0  0
  179.7520  181.9040  138.3360 O   0  0  0  0  0  0  0  0  0  0  0  0
  183.7650  178.9320  142.1560 N   0  0  0  0  0  0  0  0  0  0  0  0
  186.3710  177.4690  144.4020 C   0  0  0  0  0  3  0  0  0  0  0  0
  187.3910  176.6490  136.6110 C   0  0  2  0  0  3  0  0  0  0  0  0
  188.4270  178.2960  139.9280 C   0  0  0  0  0  2  0  0  0  0  0  0
  187.4710  177.3260  143.5390 C   0  0  0  0  0  0  0  0  0  0  0  0
  188.3020  177.3930  137.5950 C   0  0  0  0  0  2  0  0  0  0  0  0
  185.0300  178.4290  142.6250 C   0  0  0  0  0  0  0  0  0  0  0  0
  187.9960  176.4740  135.2080 C   0  0  2  0  0  3  0  0  0  0  0  0
  187.4250  175.3440  134.6120 O   0  0  0  0  0  1  0  0  0  0  0  0
  189.5130  176.2920  135.2880 C   0  0  2  0  0  3  0  0  0  0  0  0
  190.1690  177.3110  134.5940 O   0  0  0  0  0  1  0  0  0  0  0  0
  189.9590  174.9500  134.7200 C   0  0  0  0  0  2  0  0  0  0  0  0
  192.2990  174.8700  135.3950 N   0  0  0  0  0  1  0  0  0  0  0  0
  190.9780  174.3280  135.6610 C   0  0  1  0  0  3  0  0  0  0  0  0
  189.7290  173.5290  137.5440 O   0  0  0  0  0  1  0  0  0  0  0  0
  191.7040  174.5920  137.9440 O   0  0  0  0  0  1  0  0  0  0  0  0
  190.5790  174.5510  137.1190 C   0  0  0  0  0  3  0  0  0  0  0  0
  188.6550  176.7620  144.0250 O   0  0  0  0  0  0  0  0  0  0  0  0
  189.4910  177.4140  144.9340 C   0  0  0  0  0  3  0  0  0  0  0  0
  190.5980  176.8660  145.3090 N   0  0  0  0  0  0  0  0  0  0  0  0
  191.4440  177.5520  146.2790 C   0  0  0  0  0  2  0  0  0  0  0  0
  191.3740  176.8890  147.6540 C   0  0  2  0  0  0  0  0  0  0  0  0
  192.0150  177.7400  148.5750 O   0  0  0  0  0  1  0  0  0  0  0  0
  192.1460  175.5590  147.5390 C   0  0  0  0  0  3  0  0  0  0  0  0
  193.4210  175.6670  148.1070 O   0  0  0  0  0  1  0  0  0  0  0  0
  192.2580  175.1260  146.2160 O   0  0  0  0  0  1  0  0  0  0  0  0
  189.9990  176.6480  147.9700 O   0  0  0  0  0  0  0  0  0  0  0  0
  189.2600  177.8030  148.3400 C   0  0  0  0  0  0  0  0  0  0  0  0
  188.1490  177.3990  149.0480 F   0  0  0  0  0  0  0  0  0  0  0  0
  188.8140  178.4900  147.2230 F   0  0  0  0  0  0  0  0  0  0  0  0
  189.9920  178.6550  149.1520 F   0  0  0  0  0  0  0  0  0  0  0  0
  1  5  1  0  0  0  0
  3 19  1  0  0  0  0
  4  6  1  6  0  0  0
  4  3  1  0  0  0  0
  4 18  1  0  0  0  0
  5 15  2  0  0  0  0
  6 23  1  0  0  0  0
  7 10  2  0  0  0  0
  7 27  1  0  0  0  0
  8 14  2  0  0  0  0
  9 22  1  0  0  0  0
 10 25  1  0  0  0  0
 11 26  1  6  0  0  0
 11 24  1  0  0  0  0
 13  2  1  0  0  0  0
 13 10  1  0  0  0  0
 14 15  1  0  0  0  0
 14 16  1  0  0  0  0
 16 21  1  0  0  0  0
 17  1  1  0  0  0  0
 17  8  1  0  0  0  0
 18 11  1  0  0  0  0
 19  8  1  0  0  0  0
 20  1  2  0  0  0  0
 21 27  1  0  0  0  0
 21 12  1  0  0  0  0
 23 28  1  6  0  0  0
 23 26  1  0  0  0  0
 24 13  1  0  0  0  0
 25 38  1  0  0  0  0
 25 22  2  0  0  0  0
 27  9  2  0  0  0  0
 28 29  1  1  0  0  0
 28 30  1  0  0  0  0
 30 31  1  6  0  0  0
 32 30  1  0  0  0  0
 32 34  1  0  0  0  0
 34 33  1  1  0  0  0
 34 37  1  0  0  0  0
 37 35  1  0  0  0  0
 37 36  1  0  0  0  0
 38 39  1  0  0  0  0
 39 40  2  0  0  0  0
 40 41  1  0  0  0  0
 41 42  1  0  0  0  0
 42 47  1  0  0  0  0
 42 43  1  1  0  0  0
 44 42  1  0  0  0  0
 44 45  1  0  0  0  0
 46 44  1  0  0  0  0
 47 48  1  0  0  0  0
 48 49  1  0  0  0  0
 48 51  1  0  0  0  0
 50 48  1  0  0  0  0
M  END
>  <MODEL>
5

>  <REMARK>
 VINA RESULT:      -7.6      3.929      8.670
  Name = 
  12 active torsions:
  status: ('A' for Active; 'I' for Inactive)
    1  A    between atoms: C_4  and  C_18
    2  A    between atoms: C_4  and  C_42
    3  A    between atoms: C_8  and  C_43
    4  A    between atoms: C_15  and  O_35
    5  A    between atoms: C_18  and  C_19
    6  A    between atoms: C_19  and  CA_23
    7  A    between atoms: C_22  and  CA_23
    8  A    between atoms: C_27  and  C_43
    9  A    between atoms: C_27  and  N_49
   10  A    between atoms: C_28  and  O_47
   11  A    between atoms: O_35  and  C_43
   12  A    between atoms: C_46  and  O_47
                            x       y       z     vdW  Elec       q    Type
                         _______ _______ _______ _____ _____    ______ ____

>  <TORSDO>
F 12

$$$$
=
 OpenBabel11032419223D

 51 54  0  0  1  0  0  0  0  0999 V2000
  185.9600  179.1480  146.6950 C   0  0  0  0  0  0  0  0  0  0  0  0
  187.1860  178.3610  136.4090 C   0  0  0  0  0  1  0  0  0  0  0  0
  184.1730  177.7260  142.4890 C   0  0  0  0  0  2  0  0  0  0  0  0
  183.9360  177.7460  140.9780 C   0  0  1  0  0  3  0  0  0  0  0  0
  187.0080  178.1810  146.6360 N   0  0  0  0  0  0  0  0  0  0  0  0
  182.5000  178.1470  140.6610 C   0  0  0  0  0  2  0  0  0  0  0  0
  187.7650  178.0040  140.1690 C   0  0  0  0  0  3  0  0  0  0  0  0
  185.6140  178.7700  144.2350 C   0  0  0  0  0  0  0  0  0  0  0  0
  189.8790  176.9500  140.6530 C   0  0  0  0  0  3  0  0  0  0  0  0
  187.9760  177.8670  138.7770 C   0  0  0  0  0  0  0  0  0  0  0  0
  184.7610  178.3810  138.9460 C   0  0  2  0  0  3  0  0  0  0  0  0
  189.5820  177.6790  143.4420 C   0  0  0  0  0  1  0  0  0  0  0  0
  186.9700  178.3570  137.8470 N   0  0  0  0  0  0  0  0  0  0  0  0
  186.6780  177.9370  144.2510 C   0  0  0  0  0  0  0  0  0  0  0  0
  187.3530  177.6210  145.5200 C   0  0  0  0  0  3  0  0  0  0  0  0
  187.1400  177.2040  143.0220 C   0  0  0  0  0  2  0  0  0  0  0  0
  185.1830  179.5170  145.4630 C   0  0  0  0  0  2  0  0  0  0  0  0
  184.8330  178.6240  140.3280 O   0  0  0  0  0  0  0  0  0  0  0  0
  184.8030  179.0250  142.9940 C   0  0  0  0  0  2  0  0  0  0  0  0
  185.6860  179.6990  147.7920 O   0  0  0  0  0  0  0  0  0  0  0  0
  188.4400  177.6520  142.5240 N   0  0  0  0  0  0  0  0  0  0  0  0
  190.1130  176.7950  139.2920 C   0  0  0  0  0  3  0  0  0  0  0  0
  182.3070  178.0060  139.1510 C   0  0  2  0  0  3  0  0  0  0  0  0
  185.8560  179.2010  138.2770 C   0  0  0  0  0  2  0  0  0  0  0  0
  189.1780  177.2360  138.3390 C   0  0  0  0  0  0  0  0  0  0  0  0
  183.3860  178.8100  138.4160 C   0  0  0  0  0  2  0  0  0  0  0  0
  188.6990  177.5510  141.1110 C   0  0  0  0  0  0  0  0  0  0  0  0
  180.8700  178.3500  138.7250 C   0  0  2  0  0  3  0  0  0  0  0  0
  180.3260  179.2360  139.6600 O   0  0  0  0  0  1  0  0  0  0  0  0
  180.0050  177.0890  138.6580 C   0  0  2  0  0  3  0  0  0  0  0  0
  179.0360  177.1040  139.6640 O   0  0  0  0  0  1  0  0  0  0  0  0
  180.8350  175.8190  138.7970 C   0  0  0  0  0  2  0  0  0  0  0  0
  179.7300  175.5810  136.6380 N   0  0  0  0  0  1  0  0  0  0  0  0
  180.7750  175.0420  137.4920 C   0  0  1  0  0  3  0  0  0  0  0  0
  182.2480  176.2290  136.0210 O   0  0  0  0  0  1  0  0  0  0  0  0
  183.1750  175.0050  137.7050 O   0  0  0  0  0  1  0  0  0  0  0  0
  182.1280  175.0670  136.7830 C   0  0  0  0  0  3  0  0  0  0  0  0
  189.4450  177.0480  136.9790 O   0  0  0  0  0  0  0  0  0  0  0  0
  190.7110  176.7200  136.4910 C   0  0  0  0  0  3  0  0  0  0  0  0
  191.0090  175.4920  136.2250 N   0  0  0  0  0  0  0  0  0  0  0  0
  192.3450  175.1680  135.7400 C   0  0  0  0  0  2  0  0  0  0  0  0
  193.1940  174.5130  136.8290 C   0  0  2  0  0  0  0  0  0  0  0  0
  192.3340  174.1420  137.8800 O   0  0  0  0  0  1  0  0  0  0  0  0
  194.1880  175.5880  137.3150 C   0  0  0  0  0  3  0  0  0  0  0  0
  193.6580  176.3130  138.3890 O   0  0  0  0  0  1  0  0  0  0  0  0
  194.5580  176.4660  136.2940 O   0  0  0  0  0  1  0  0  0  0  0  0
  193.8930  173.4050  136.2520 O   0  0  0  0  0  0  0  0  0  0  0  0
  194.8640  172.8060  137.0970 C   0  0  0  0  0  0  0  0  0  0  0  0
  194.7640  171.4380  136.9720 F   0  0  0  0  0  0  0  0  0  0  0  0
  194.6330  173.1200  138.4260 F   0  0  0  0  0  0  0  0  0  0  0  0
  196.1560  173.1680  136.7480 F   0  0  0  0  0  0  0  0  0  0  0  0
  1 20  2  0  0  0  0
  2 13  1  0  0  0  0
  3 19  1  0  0  0  0
  4  6  1  1  0  0  0
  4  3  1  0  0  0  0
  5  1  1  0  0  0  0
  7 27  1  0  0  0  0
  8 14  2  0  0  0  0
  8 17  1  0  0  0  0
  9 27  2  0  0  0  0
 10  7  2  0  0  0  0
 11 24  1  6  0  0  0
 11 18  1  0  0  0  0
 13 24  1  0  0  0  0
 13 10  1  0  0  0  0
 14 15  1  0  0  0  0
 15  5  2  0  0  0  0
 16 14  1  0  0  0  0
 17  1  1  0  0  0  0
 18  4  1  0  0  0  0
 19  8  1  0  0  0  0
 21 16  1  0  0  0  0
 21 12  1  0  0  0  0
 22  9  1  0  0  0  0
 23 28  1  1  0  0  0
 23  6  1  0  0  0  0
 25 10  1  0  0  0  0
 25 22  2  0  0  0  0
 26 11  1  0  0  0  0
 26 23  1  0  0  0  0
 27 21  1  0  0  0  0
 28 29  1  1  0  0  0
 30 28  1  0  0  0  0
 30 32  1  0  0  0  0
 30 31  1  1  0  0  0
 34 33  1  6  0  0  0
 34 32  1  0  0  0  0
 35 37  1  0  0  0  0
 37 34  1  0  0  0  0
 37 36  1  0  0  0  0
 38 25  1  0  0  0  0
 39 38  1  0  0  0  0
 40 39  2  0  0  0  0
 41 40  1  0  0  0  0
 41 42  1  0  0  0  0
 42 44  1  0  0  0  0
 42 43  1  1  0  0  0
 44 45  1  0  0  0  0
 46 44  1  0  0  0  0
 47 42  1  0  0  0  0
 47 48  1  0  0  0  0
 48 50  1  0  0  0  0
 49 48  1  0  0  0  0
 51 48  1  0  0  0  0
M  END
>  <MODEL>
6

>  <REMARK>
 VINA RESULT:      -7.6      2.279      7.042
  Name = 
  12 active torsions:
  status: ('A' for Active; 'I' for Inactive)
    1  A    between atoms: C_4  and  C_18
    2  A    between atoms: C_4  and  C_42
    3  A    between atoms: C_8  and  C_43
    4  A    between atoms: C_15  and  O_35
    5  A    between atoms: C_18  and  C_19
    6  A    between atoms: C_19  and  CA_23
    7  A    between atoms: C_22  and  CA_23
    8  A    between atoms: C_27  and  C_43
    9  A    between atoms: C_27  and  N_49
   10  A    between atoms: C_28  and  O_47
   11  A    between atoms: O_35  and  C_43
   12  A    between atoms: C_46  and  O_47
                            x       y       z     vdW  Elec       q    Type
                         _______ _______ _______ _____ _____    ______ ____

>  <TORSDO>
F 12

$$$$
=
 OpenBabel11032419223D

 51 54  0  0  1  0  0  0  0  0999 V2000
  186.0860  179.0990  146.6900 C   0  0  0  0  0  0  0  0  0  0  0  0
  187.2410  178.3570  136.3930 C   0  0  0  0  0  1  0  0  0  0  0  0
  184.2270  177.7890  142.4790 C   0  0  0  0  0  2  0  0  0  0  0  0
  183.9860  177.8320  140.9690 C   0  0  1  0  0  3  0  0  0  0  0  0
  187.0940  178.0910  146.6190 N   0  0  0  0  0  0  0  0  0  0  0  0
  182.5650  178.2940  140.6620 C   0  0  0  0  0  2  0  0  0  0  0  0
  187.8190  177.9420  140.1470 C   0  0  0  0  0  3  0  0  0  0  0  0
  185.7150  178.7570  144.2290 C   0  0  0  0  0  0  0  0  0  0  0  0
  189.8900  176.7990  140.6130 C   0  0  0  0  0  3  0  0  0  0  0  0
  188.0180  177.8100  138.7530 C   0  0  0  0  0  0  0  0  0  0  0  0
  184.8280  178.4520  138.9400 C   0  0  2  0  0  3  0  0  0  0  0  0
  189.6330  177.5130  143.4090 C   0  0  0  0  0  1  0  0  0  0  0  0
  187.0300  178.3480  137.8320 N   0  0  0  0  0  0  0  0  0  0  0  0
  186.7450  177.8820  144.2330 C   0  0  0  0  0  0  0  0  0  0  0  0
  187.4120  177.5270  145.4960 C   0  0  0  0  0  3  0  0  0  0  0  0
  187.1720  177.1420  142.9950 C   0  0  0  0  0  2  0  0  0  0  0  0
  185.3190  179.5100  145.4650 C   0  0  0  0  0  2  0  0  0  0  0  0
  184.9140  178.6790  140.3240 O   0  0  0  0  0  0  0  0  0  0  0  0
  184.9110  179.0570  142.9940 C   0  0  0  0  0  2  0  0  0  0  0  0
  185.8390  179.6490  147.7940 O   0  0  0  0  0  0  0  0  0  0  0  0
  188.4880  177.5410  142.4960 N   0  0  0  0  0  0  0  0  0  0  0  0
  190.1120  176.6470  139.2490 C   0  0  0  0  0  3  0  0  0  0  0  0
  182.3620  178.1750  139.1520 C   0  0  2  0  0  3  0  0  0  0  0  0
  185.9530  179.2330  138.2740 C   0  0  0  0  0  2  0  0  0  0  0  0
  189.1920  177.1350  138.3050 C   0  0  0  0  0  0  0  0  0  0  0  0
  183.4700  178.9410  138.4190 C   0  0  0  0  0  2  0  0  0  0  0  0
  188.7370  177.4430  141.0820 C   0  0  0  0  0  0  0  0  0  0  0  0
  180.9380  178.5810  138.7340 C   0  0  2  0  0  3  0  0  0  0  0  0
  180.6750  178.0500  137.4670 O   0  0  0  0  0  1  0  0  0  0  0  0
  180.7990  180.1040  138.6840 C   0  0  2  0  0  3  0  0  0  0  0  0
  180.1910  180.5820  139.8470 O   0  0  0  0  0  1  0  0  0  0  0  0
  179.9850  180.5650  137.4820 C   0  0  0  0  0  2  0  0  0  0  0  0
  180.4990  181.3110  135.2200 N   0  0  0  0  0  1  0  0  0  0  0  0
  180.8450  181.4760  136.6200 C   0  0  1  0  0  3  0  0  0  0  0  0
  181.0070  183.7830  135.9920 O   0  0  0  0  0  1  0  0  0  0  0  0
  179.3930  183.1930  137.4870 O   0  0  0  0  0  1  0  0  0  0  0  0
  180.6940  182.9340  137.0540 C   0  0  0  0  0  3  0  0  0  0  0  0
  189.4460  176.9480  136.9420 O   0  0  0  0  0  0  0  0  0  0  0  0
  189.4620  175.6900  136.3370 C   0  0  0  0  0  3  0  0  0  0  0  0
  188.3790  175.1920  135.8410 N   0  0  0  0  0  0  0  0  0  0  0  0
  188.4110  173.8650  135.2360 C   0  0  0  0  0  2  0  0  0  0  0  0
  187.3730  172.9360  135.8640 C   0  0  2  0  0  0  0  0  0  0  0  0
  187.7400  172.7260  137.2070 O   0  0  0  0  0  1  0  0  0  0  0  0
  187.4460  171.6070  135.0840 C   0  0  0  0  0  3  0  0  0  0  0  0
  186.1640  171.1170  134.8070 O   0  0  0  0  0  1  0  0  0  0  0  0
  188.1830  170.6350  135.7620 O   0  0  0  0  0  1  0  0  0  0  0  0
  186.0820  173.5370  135.7190 O   0  0  0  0  0  0  0  0  0  0  0  0
  185.3870  173.7620  136.9370 C   0  0  0  0  0  0  0  0  0  0  0  0
  184.0610  173.9890  136.6440 F   0  0  0  0  0  0  0  0  0  0  0  0
  185.8690  174.8860  137.5860 F   0  0  0  0  0  0  0  0  0  0  0  0
  185.4520  172.6680  137.7850 F   0  0  0  0  0  0  0  0  0  0  0  0
  1 20  2  0  0  0  0
  2 13  1  0  0  0  0
  3 19  1  0  0  0  0
  4  6  1  1  0  0  0
  4  3  1  0  0  0  0
  5  1  1  0  0  0  0
  7 27  1  0  0  0  0
  8 14  2  0  0  0  0
  8 17  1  0  0  0  0
  9 27  2  0  0  0  0
 10  7  2  0  0  0  0
 11 24  1  6  0  0  0
 11 18  1  0  0  0  0
 13 24  1  0  0  0  0
 13 10  1  0  0  0  0
 14 15  1  0  0  0  0
 15  5  2  0  0  0  0
 16 14  1  0  0  0  0
 17  1  1  0  0  0  0
 18  4  1  0  0  0  0
 19  8  1  0  0  0  0
 21 16  1  0  0  0  0
 21 12  1  0  0  0  0
 22  9  1  0  0  0  0
 23 28  1  1  0  0  0
 23  6  1  0  0  0  0
 25 10  1  0  0  0  0
 25 22  2  0  0  0  0
 26 11  1  0  0  0  0
 26 23  1  0  0  0  0
 27 21  1  0  0  0  0
 28 29  1  6  0  0  0
 30 28  1  0  0  0  0
 30 31  1  1  0  0  0
 32 30  1  0  0  0  0
 34 33  1  6  0  0  0
 34 37  1  0  0  0  0
 34 32  1  0  0  0  0
 35 37  1  0  0  0  0
 37 36  1  0  0  0  0
 38 25  1  0  0  0  0
 39 38  1  0  0  0  0
 40 39  2  0  0  0  0
 41 40  1  0  0  0  0
 41 42  1  0  0  0  0
 42 43  1  1  0  0  0
 44 46  1  0  0  0  0
 44 42  1  0  0  0  0
 45 44  1  0  0  0  0
 47 42  1  0  0  0  0
 47 48  1  0  0  0  0
 48 50  1  0  0  0  0
 48 51  1  0  0  0  0
 49 48  1  0  0  0  0
M  END
>  <MODEL>
7

>  <REMARK>
 VINA RESULT:      -7.6      3.499      8.283
  Name = 
  12 active torsions:
  status: ('A' for Active; 'I' for Inactive)
    1  A    between atoms: C_4  and  C_18
    2  A    between atoms: C_4  and  C_42
    3  A    between atoms: C_8  and  C_43
    4  A    between atoms: C_15  and  O_35
    5  A    between atoms: C_18  and  C_19
    6  A    between atoms: C_19  and  CA_23
    7  A    between atoms: C_22  and  CA_23
    8  A    between atoms: C_27  and  C_43
    9  A    between atoms: C_27  and  N_49
   10  A    between atoms: C_28  and  O_47
   11  A    between atoms: O_35  and  C_43
   12  A    between atoms: C_46  and  O_47
                            x       y       z     vdW  Elec       q    Type
                         _______ _______ _______ _____ _____    ______ ____

>  <TORSDO>
F 12

$$$$
=
 OpenBabel11032419223D

 51 54  0  0  1  0  0  0  0  0999 V2000
  188.0820  177.3020  145.8480 C   0  0  0  0  0  0  0  0  0  0  0  0
  181.2740  178.0620  138.0380 C   0  0  0  0  0  1  0  0  0  0  0  0
  187.1880  178.7130  141.3630 C   0  0  0  0  0  2  0  0  0  0  0  0
  186.5320  178.6900  139.9820 C   0  0  1  0  0  3  0  0  0  0  0  0
  187.1810  178.2690  146.3880 N   0  0  0  0  0  0  0  0  0  0  0  0
  187.5410  178.2880  138.9110 C   0  0  0  0  0  2  0  0  0  0  0  0
  182.9130  178.4290  141.4700 C   0  0  0  0  0  3  0  0  0  0  0  0
  186.9820  177.6740  143.6200 C   0  0  0  0  0  0  0  0  0  0  0  0
  181.4370  179.4840  143.0590 C   0  0  0  0  0  3  0  0  0  0  0  0
  181.9550  178.5620  140.4390 C   0  0  0  0  0  0  0  0  0  0  0  0
  184.7070  178.0490  138.7680 C   0  0  2  0  0  3  0  0  0  0  0  0
  183.2550  178.7630  145.1970 C   0  0  0  0  0  1  0  0  0  0  0  0
  182.2630  178.0700  139.1040 N   0  0  0  0  0  0  0  0  0  0  0  0
  186.1100  178.5070  144.2310 C   0  0  0  0  0  0  0  0  0  0  0  0
  186.2670  178.8260  145.6590 C   0  0  0  0  0  3  0  0  0  0  0  0
  185.0350  179.2370  143.4740 C   0  0  0  0  0  2  0  0  0  0  0  0
  188.0310  176.9300  144.3940 C   0  0  0  0  0  2  0  0  0  0  0  0
  185.4270  177.8100  139.9510 O   0  0  0  0  0  0  0  0  0  0  0  0
  186.9540  177.4160  142.1390 C   0  0  0  0  0  2  0  0  0  0  0  0
  188.9270  176.7550  146.6020 O   0  0  0  0  0  0  0  0  0  0  0  0
  183.6810  178.7870  143.7960 N   0  0  0  0  0  0  0  0  0  0  0  0
  180.4770  179.6350  142.0650 C   0  0  0  0  0  3  0  0  0  0  0  0
  186.8500  178.4250  137.5550 C   0  0  2  0  0  3  0  0  0  0  0  0
  183.4270  177.2270  138.8350 C   0  0  0  0  0  2  0  0  0  0  0  0
  180.7140  179.1920  140.7520 C   0  0  0  0  0  0  0  0  0  0  0  0
  185.5450  177.6190  137.5570 C   0  0  0  0  0  2  0  0  0  0  0  0
  182.6710  178.8840  142.7740 C   0  0  0  0  0  0  0  0  0  0  0  0
  187.7970  178.0800  136.3940 C   0  0  2  0  0  3  0  0  0  0  0  0
  187.0380  177.9160  135.2310 O   0  0  0  0  0  1  0  0  0  0  0  0
  188.5650  176.7880  136.6840 C   0  0  2  0  0  3  0  0  0  0  0  0
  189.9240  176.9500  136.4040 O   0  0  0  0  0  1  0  0  0  0  0  0
  188.0360  175.6140  135.8710 C   0  0  0  0  0  2  0  0  0  0  0  0
  186.3300  174.0670  136.6700 N   0  0  0  0  0  1  0  0  0  0  0  0
  187.7210  174.4610  136.8120 C   0  0  1  0  0  3  0  0  0  0  0  0
  188.9020  173.1550  135.1870 O   0  0  0  0  0  1  0  0  0  0  0  0
  189.8630  173.4410  137.2330 O   0  0  0  0  0  1  0  0  0  0  0  0
  188.6540  173.2790  136.5540 C   0  0  0  0  0  3  0  0  0  0  0  0
  179.7270  179.3760  139.7780 O   0  0  0  0  0  0  0  0  0  0  0  0
  179.0750  180.5950  139.5780 C   0  0  0  0  0  3  0  0  0  0  0  0
  179.6160  181.5110  138.8470 N   0  0  0  0  0  0  0  0  0  0  0  0
  178.9310  182.7860  138.6720 C   0  0  0  0  0  2  0  0  0  0  0  0
  179.6120  183.6490  137.6100 C   0  0  2  0  0  0  0  0  0  0  0  0
  180.9970  183.6310  137.8650 O   0  0  0  0  0  1  0  0  0  0  0  0
  179.0610  185.0790  137.7890 C   0  0  0  0  0  3  0  0  0  0  0  0
  179.1750  185.8120  136.6020 O   0  0  0  0  0  1  0  0  0  0  0  0
  179.6960  185.7640  138.8260 O   0  0  0  0  0  1  0  0  0  0  0  0
  179.2690  183.1330  136.3200 O   0  0  0  0  0  0  0  0  0  0  0  0
  180.3320  182.4920  135.6310 C   0  0  0  0  0  0  0  0  0  0  0  0
  179.7940  181.5500  134.7830 F   0  0  0  0  0  0  0  0  0  0  0  0
  181.1700  181.8280  136.5110 F   0  0  0  0  0  0  0  0  0  0  0  0
  181.0690  183.3800  134.8630 F   0  0  0  0  0  0  0  0  0  0  0  0
  1  5  1  0  0  0  0
  1 20  2  0  0  0  0
  2 13  1  0  0  0  0
  3 19  1  0  0  0  0
  4  6  1  6  0  0  0
  4  3  1  0  0  0  0
  7 27  1  0  0  0  0
  8 14  2  0  0  0  0
  8 17  1  0  0  0  0
 10 25  1  0  0  0  0
 10  7  2  0  0  0  0
 11 26  1  6  0  0  0
 11 24  1  0  0  0  0
 11 18  1  0  0  0  0
 13 10  1  0  0  0  0
 14 15  1  0  0  0  0
 15  5  2  0  0  0  0
 16 21  1  0  0  0  0
 16 14  1  0  0  0  0
 17  1  1  0  0  0  0
 18  4  1  0  0  0  0
 19  8  1  0  0  0  0
 21 12  1  0  0  0  0
 22  9  1  0  0  0  0
 23 28  1  6  0  0  0
 23 26  1  0  0  0  0
 23  6  1  0  0  0  0
 24 13  1  0  0  0  0
 25 22  2  0  0  0  0
 27  9  2  0  0  0  0
 27 21  1  0  0  0  0
 28 29  1  6  0  0  0
 28 30  1  0  0  0  0
 30 31  1  6  0  0  0
 32 30  1  0  0  0  0
 32 34  1  0  0  0  0
 34 33  1  6  0  0  0
 35 37  1  0  0  0  0
 37 34  1  0  0  0  0
 37 36  1  0  0  0  0
 38 25  1  0  0  0  0
 39 38  1  0  0  0  0
 40 39  2  0  0  0  0
 41 40  1  0  0  0  0
 42 44  1  0  0  0  0
 42 43  1  1  0  0  0
 42 41  1  0  0  0  0
 44 46  1  0  0  0  0
 45 44  1  0  0  0  0
 47 42  1  0  0  0  0
 48 47  1  0  0  0  0
 48 50  1  0  0  0  0
 49 48  1  0  0  0  0
 51 48  1  0  0  0  0
M  END
>  <MODEL>
8

>  <REMARK>
 VINA RESULT:      -7.5      4.850     11.220
  Name = 
  12 active torsions:
  status: ('A' for Active; 'I' for Inactive)
    1  A    between atoms: C_4  and  C_18
    2  A    between atoms: C_4  and  C_42
    3  A    between atoms: C_8  and  C_43
    4  A    between atoms: C_15  and  O_35
    5  A    between atoms: C_18  and  C_19
    6  A    between atoms: C_19  and  CA_23
    7  A    between atoms: C_22  and  CA_23
    8  A    between atoms: C_27  and  C_43
    9  A    between atoms: C_27  and  N_49
   10  A    between atoms: C_28  and  O_47
   11  A    between atoms: O_35  and  C_43
   12  A    between atoms: C_46  and  O_47
                            x       y       z     vdW  Elec       q    Type
                         _______ _______ _______ _____ _____    ______ ____

>  <TORSDO>
F 12

$$$$
=
 OpenBabel11032419223D

 51 54  0  0  1  0  0  0  0  0999 V2000
  186.0310  179.1340  146.6720 C   0  0  0  0  0  0  0  0  0  0  0  0
  187.3730  178.3450  136.4010 C   0  0  0  0  0  1  0  0  0  0  0  0
  184.2800  177.7340  142.4430 C   0  0  0  0  0  2  0  0  0  0  0  0
  184.0620  177.7580  140.9290 C   0  0  1  0  0  3  0  0  0  0  0  0
  187.0700  178.1570  146.6250 N   0  0  0  0  0  0  0  0  0  0  0  0
  182.6340  178.1740  140.5950 C   0  0  0  0  0  2  0  0  0  0  0  0
  187.9030  177.9790  140.1670 C   0  0  0  0  0  3  0  0  0  0  0  0
  185.7110  178.7610  144.2080 C   0  0  0  0  0  0  0  0  0  0  0  0
  190.0000  176.9030  140.6750 C   0  0  0  0  0  3  0  0  0  0  0  0
  188.1290  177.8410  138.7780 C   0  0  0  0  0  0  0  0  0  0  0  0
  184.9180  178.3860  138.9080 C   0  0  2  0  0  3  0  0  0  0  0  0
  189.6770  177.6320  143.4610 C   0  0  0  0  0  1  0  0  0  0  0  0
  187.1390  178.3410  137.8360 N   0  0  0  0  0  0  0  0  0  0  0  0
  186.7670  177.9180  144.2360 C   0  0  0  0  0  0  0  0  0  0  0  0
  187.4230  177.5940  145.5120 C   0  0  0  0  0  3  0  0  0  0  0  0
  187.2360  177.1810  143.0110 C   0  0  0  0  0  2  0  0  0  0  0  0
  185.2720  179.5120  145.4310 C   0  0  0  0  0  2  0  0  0  0  0  0
  184.9750  178.6270  140.2910 O   0  0  0  0  0  0  0  0  0  0  0  0
  184.9170  179.0260  142.9580 C   0  0  0  0  0  2  0  0  0  0  0  0
  185.7500  179.6860  147.7670 O   0  0  0  0  0  0  0  0  0  0  0  0
  188.5460  177.6170  142.5300 N   0  0  0  0  0  0  0  0  0  0  0  0
  190.2490  176.7470  139.3170 C   0  0  0  0  0  3  0  0  0  0  0  0
  182.4580  178.0360  139.0840 C   0  0  2  0  0  3  0  0  0  0  0  0
  186.0290  179.1960  138.2540 C   0  0  0  0  0  2  0  0  0  0  0  0
  189.3300  177.1980  138.3530 C   0  0  0  0  0  0  0  0  0  0  0  0
  183.5540  178.8300  138.3620 C   0  0  0  0  0  2  0  0  0  0  0  0
  188.8210  177.5150  141.1200 C   0  0  0  0  0  0  0  0  0  0  0  0
  181.0300  178.3950  138.6400 C   0  0  2  0  0  3  0  0  0  0  0  0
  180.3430  178.9310  139.7340 O   0  0  0  0  0  1  0  0  0  0  0  0
  180.2890  177.1540  138.1350 C   0  0  2  0  0  3  0  0  0  0  0  0
  180.0240  176.2760  139.1890 O   0  0  0  0  0  1  0  0  0  0  0  0
  181.0810  176.4110  137.0670 C   0  0  0  0  0  2  0  0  0  0  0  0
  180.0330  174.3210  136.3800 N   0  0  0  0  0  1  0  0  0  0  0  0
  180.9680  174.9150  137.3180 C   0  0  1  0  0  3  0  0  0  0  0  0
  182.7970  174.2760  135.9080 O   0  0  0  0  0  1  0  0  0  0  0  0
  183.2630  174.8820  138.0550 O   0  0  0  0  0  1  0  0  0  0  0  0
  182.3380  174.2450  137.2250 C   0  0  0  0  0  3  0  0  0  0  0  0
  189.6110  177.0090  136.9970 O   0  0  0  0  0  0  0  0  0  0  0  0
  190.1730  175.8330  136.4930 C   0  0  0  0  0  3  0  0  0  0  0  0
  191.2890  175.8700  135.8450 N   0  0  0  0  0  0  0  0  0  0  0  0
  191.8450  174.6350  135.3060 C   0  0  0  0  0  2  0  0  0  0  0  0
  193.2610  174.3830  135.8240 C   0  0  2  0  0  0  0  0  0  0  0  0
  194.0730  175.4480  135.3900 O   0  0  0  0  0  1  0  0  0  0  0  0
  193.7340  173.0630  135.1820 C   0  0  0  0  0  3  0  0  0  0  0  0
  193.5100  171.9790  136.0390 O   0  0  0  0  0  1  0  0  0  0  0  0
  195.0820  173.1040  134.8200 O   0  0  0  0  0  1  0  0  0  0  0  0
  193.2050  174.2590  137.2490 O   0  0  0  0  0  0  0  0  0  0  0  0
  194.3130  174.8180  137.9400 C   0  0  0  0  0  0  0  0  0  0  0  0
  194.7980  173.8730  138.8170 F   0  0  0  0  0  0  0  0  0  0  0  0
  193.9320  175.9210  138.6860 F   0  0  0  0  0  0  0  0  0  0  0  0
  195.3430  175.1670  137.0820 F   0  0  0  0  0  0  0  0  0  0  0  0
  1 20  2  0  0  0  0
  2 13  1  0  0  0  0
  3 19  1  0  0  0  0
  4  6  1  1  0  0  0
  4  3  1  0  0  0  0
  5  1  1  0  0  0  0
  7 27  1  0  0  0  0
  8 14  2  0  0  0  0
  8 17  1  0  0  0  0
  9 27  2  0  0  0  0
 10  7  2  0  0  0  0
 11 24  1  6  0  0  0
 11 18  1  0  0  0  0
 13 24  1  0  0  0  0
 13 10  1  0  0  0  0
 14 15  1  0  0  0  0
 15  5  2  0  0  0  0
 16 14  1  0  0  0  0
 17  1  1  0  0  0  0
 18  4  1  0  0  0  0
 19  8  1  0  0  0  0
 21 16  1  0  0  0  0
 21 12  1  0  0  0  0
 22  9  1  0  0  0  0
 23 28  1  6  0  0  0
 23  6  1  0  0  0  0
 25 10  1  0  0  0  0
 25 22  2  0  0  0  0
 26 11  1  0  0  0  0
 26 23  1  0  0  0  0
 27 21  1  0  0  0  0
 28 29  1  1  0  0  0
 30 28  1  0  0  0  0
 30 31  1  1  0  0  0
 32 34  1  0  0  0  0
 32 30  1  0  0  0  0
 34 33  1  6  0  0  0
 35 37  1  0  0  0  0
 37 34  1  0  0  0  0
 37 36  1  0  0  0  0
 38 25  1  0  0  0  0
 39 38  1  0  0  0  0
 40 39  2  0  0  0  0
 41 42  1  0  0  0  0
 41 40  1  0  0  0  0
 42 43  1  6  0  0  0
 42 47  1  0  0  0  0
 44 42  1  0  0  0  0
 44 45  1  0  0  0  0
 46 44  1  0  0  0  0
 47 48  1  0  0  0  0
 48 50  1  0  0  0  0
 48 49  1  0  0  0  0
 51 48  1  0  0  0  0
M  END
>  <MODEL>
9

>  <REMARK>
 VINA RESULT:      -7.3      2.420      7.138
  Name = 
  12 active torsions:
  status: ('A' for Active; 'I' for Inactive)
    1  A    between atoms: C_4  and  C_18
    2  A    between atoms: C_4  and  C_42
    3  A    between atoms: C_8  and  C_43
    4  A    between atoms: C_15  and  O_35
    5  A    between atoms: C_18  and  C_19
    6  A    between atoms: C_19  and  CA_23
    7  A    between atoms: C_22  and  CA_23
    8  A    between atoms: C_27  and  C_43
    9  A    between atoms: C_27  and  N_49
   10  A    between atoms: C_28  and  O_47
   11  A    between atoms: O_35  and  C_43
   12  A    between atoms: C_46  and  O_47
                            x       y       z     vdW  Elec       q    Type
                         _______ _______ _______ _____ _____    ______ ____

>  <TORSDO>
F 12

$$$$
