=
 OpenBabel11032420583D

 39 42  0  0  1  0  0  0  0  0999 V2000
  189.5900  177.1220  143.5620 N   0  0  0  0  0  0  0  0  0  0  0  0
  188.1520  177.3510  143.3530 C   0  0  2  0  0  3  0  0  0  0  0  0
  187.4750  176.1520  143.4800 F   0  0  0  0  0  0  0  0  0  0  0  0
  190.0340  177.1610  141.1940 C   0  0  0  0  0  0  0  0  0  0  0  0
  187.8610  177.9560  141.9950 C   0  0  0  0  0  0  0  0  0  0  0  0
  188.7300  177.8090  140.9930 C   0  0  0  0  0  3  0  0  0  0  0  0
  190.4400  176.8660  142.4320 C   0  0  0  0  0  3  0  0  0  0  0  0
  190.1180  177.0150  144.8990 C   0  0  0  0  0  0  0  0  0  0  0  0
  191.4670  176.6930  145.1170 C   0  0  0  0  0  3  0  0  0  0  0  0
  191.1640  176.7790  147.4700 C   0  0  0  0  0  3  0  0  0  0  0  0
  189.2960  177.2160  146.0180 C   0  0  0  0  0  3  0  0  0  0  0  0
  191.9550  176.5850  146.3820 N   0  0  0  0  0  0  0  0  0  0  0  0
  189.8160  177.0990  147.3070 C   0  0  0  0  0  3  0  0  0  0  0  0
  190.9210  176.9260  140.0090 C   0  0  2  0  0  3  0  0  0  0  0  0
  192.3190  177.4540  140.2730 C   0  0  0  0  0  1  0  0  0  0  0  0
  190.3720  177.5560  138.8160 N   0  0  0  0  0  2  0  0  0  0  0  0
  190.1230  176.5040  137.8420 C   0  0  2  0  0  3  0  0  0  0  0  0
  185.4420  177.6400  137.1740 N   0  0  0  0  0  1  0  0  0  0  0  0
  186.6600  176.9130  137.2780 C   0  0  0  0  0  0  0  0  0  0  0  0
  186.7450  175.5850  137.0910 N   0  0  0  0  0  0  0  0  0  0  0  0
  188.0160  175.2700  137.2680 N   0  0  0  0  0  0  0  0  0  0  0  0
  188.6610  176.4190  137.5530 C   0  0  0  0  0  0  0  0  0  0  0  0
  187.8410  177.4870  137.5740 N   0  0  0  0  0  2  0  0  0  0  0  0
  190.6000  175.2290  138.3560 N   0  0  0  0  0  2  0  0  0  0  0  0
  192.5550  174.6700  137.5810 C   0  0  0  0  0  1  0  0  0  0  0  0
  191.1880  174.5790  137.3230 O   0  0  0  0  0  0  0  0  0  0  0  0
  186.5780  178.6810  141.7010 C   0  0  0  0  0  2  0  0  0  0  0  0
  185.5280  178.5630  142.8010 C   0  0  0  0  0  2  0  0  0  0  0  0
  183.0070  178.8210  143.0340 C   0  0  0  0  0  0  0  0  0  0  0  0
  184.1890  178.6560  142.2370 N   0  0  0  0  0  2  0  0  0  0  0  0
  183.0860  178.8120  144.5230 C   0  0  0  0  0  1  0  0  0  0  0  0
  181.8470  178.9660  142.4740 N   0  0  0  0  0  0  0  0  0  0  0  0
  180.5830  179.8360  140.7040 O   0  0  0  0  0  1  0  0  0  0  0  0
  181.6490  178.9940  141.0240 C   0  0  2  0  0  3  0  0  0  0  0  0
  181.1330  177.6720  139.0430 O   0  0  0  0  0  0  0  0  0  0  0  0
  182.4290  177.2510  139.4030 C   0  0  1  0  0  3  0  0  0  0  0  0
  181.4100  177.6010  140.4220 C   0  0  1  0  0  3  0  0  0  0  0  0
  183.0460  175.2520  138.2260 N   0  0  0  0  0  2  0  0  0  0  0  0
  182.5140  175.7710  139.2690 C   0  0  0  0  0  3  0  0  0  0  0  0
  1  8  1  0  0  0  0
  2  3  1  6  0  0  0
  2  1  1  0  0  0  0
  4  7  2  0  0  0  0
  5  2  1  0  0  0  0
  6  4  1  0  0  0  0
  6  5  2  0  0  0  0
  7  1  1  0  0  0  0
  8  9  2  0  0  0  0
  8 11  1  0  0  0  0
  9 12  1  0  0  0  0
 11 13  2  0  0  0  0
 12 10  2  0  0  0  0
 13 10  1  0  0  0  0
 14 15  1  1  0  0  0
 14  4  1  0  0  0  0
 16 14  1  0  0  0  0
 17 24  1  1  0  0  0
 17 16  1  0  0  0  0
 18 19  1  0  0  0  0
 19 23  1  0  0  0  0
 20 21  1  0  0  0  0
 20 19  2  0  0  0  0
 21 22  2  0  0  0  0
 22 23  1  0  0  0  0
 22 17  1  0  0  0  0
 26 25  1  0  0  0  0
 26 24  1  0  0  0  0
 27  5  1  0  0  0  0
 27 28  1  0  0  0  0
 29 31  1  0  0  0  0
 30 28  1  0  0  0  0
 30 29  1  0  0  0  0
 32 29  2  0  0  0  0
 34 33  1  1  0  0  0
 34 32  1  0  0  0  0
 35 36  1  0  0  0  0
 35 37  1  0  0  0  0
 36 39  1  1  0  0  0
 36 37  1  0  0  0  0
 37 34  1  6  0  0  0
 38 39  2  0  0  0  0
M  END
>  <MODEL>
1

>  <REMARK>
 VINA RESULT:      -7.9      0.000      0.000
  Name = 
  13 active torsions:
  status: ('A' for Active; 'I' for Inactive)
    1  A    between atoms: C_1  and  C_16
    2  A    between atoms: C_1  and  N_21
    3  A    between atoms: N_2  and  C_5
    4  A    between atoms: C_9  and  C_20
    5  A    between atoms: N_10  and  C_30
    6  A    between atoms: N_10  and  O_35
    7  A    between atoms: N_17  and  C_39
    8  A    between atoms: C_18  and  C_24
    9  A    between atoms: C_18  and  N_29
   10  A    between atoms: N_21  and  C_30
   11  A    between atoms: C_23  and  C_32
   12  A    between atoms: C_28  and  C_30
   13  A    between atoms: C_32  and  C_39
                            x       y       z     vdW  Elec       q    Type
                         _______ _______ _______ _____ _____    ______ ____

>  <TORSDO>
F 13

$$$$
=
 OpenBabel11032420583D

 39 42  0  0  1  0  0  0  0  0999 V2000
  187.0060  177.9800  142.1260 N   0  0  0  0  0  0  0  0  0  0  0  0
  187.2200  177.6850  143.5510 C   0  0  2  0  0  3  0  0  0  0  0  0
  187.1900  176.3160  143.7430 F   0  0  0  0  0  0  0  0  0  0  0  0
  184.6960  178.5560  142.4970 C   0  0  0  0  0  0  0  0  0  0  0  0
  186.1800  178.3430  144.4340 C   0  0  0  0  0  0  0  0  0  0  0  0
  184.9940  178.6920  143.9310 C   0  0  0  0  0  3  0  0  0  0  0  0
  185.6770  178.2420  141.6460 C   0  0  0  0  0  3  0  0  0  0  0  0
  188.0990  177.8690  141.1930 C   0  0  0  0  0  0  0  0  0  0  0  0
  188.0090  178.4290  139.9080 C   0  0  0  0  0  3  0  0  0  0  0  0
  190.1840  177.6520  139.3580 C   0  0  0  0  0  3  0  0  0  0  0  0
  189.2760  177.1870  141.5370 C   0  0  0  0  0  3  0  0  0  0  0  0
  189.0410  178.3110  139.0310 N   0  0  0  0  0  0  0  0  0  0  0  0
  190.3220  177.0770  140.6220 C   0  0  0  0  0  3  0  0  0  0  0  0
  183.3120  178.8600  142.0090 C   0  0  2  0  0  3  0  0  0  0  0  0
  182.3360  178.9260  143.1700 C   0  0  0  0  0  1  0  0  0  0  0  0
  182.8690  177.8590  141.0480 N   0  0  0  0  0  2  0  0  0  0  0  0
  181.5580  178.2660  140.5650 C   0  0  2  0  0  3  0  0  0  0  0  0
  179.3510  174.0020  139.7980 N   0  0  0  0  0  1  0  0  0  0  0  0
  179.6700  175.2930  140.3020 C   0  0  0  0  0  0  0  0  0  0  0  0
  178.9310  175.9260  141.2290 N   0  0  0  0  0  0  0  0  0  0  0  0
  179.5280  177.0850  141.4450 N   0  0  0  0  0  0  0  0  0  0  0  0
  180.6110  177.1150  140.6430 C   0  0  0  0  0  0  0  0  0  0  0  0
  180.7400  176.0010  139.8970 N   0  0  0  0  0  2  0  0  0  0  0  0
  181.6590  178.7320  139.1900 N   0  0  0  0  0  2  0  0  0  0  0  0
  182.1920  180.7690  138.6450 C   0  0  0  0  0  1  0  0  0  0  0  0
  181.1570  179.9890  139.1590 O   0  0  0  0  0  0  0  0  0  0  0  0
  186.4060  178.5730  145.9020 C   0  0  0  0  0  2  0  0  0  0  0  0
  186.6590  177.2980  146.7010 C   0  0  0  0  0  2  0  0  0  0  0  0
  188.9310  177.5270  147.8230 C   0  0  0  0  0  0  0  0  0  0  0  0
  188.0860  177.0220  146.7790 N   0  0  0  0  0  2  0  0  0  0  0  0
  188.3910  178.4580  148.8540 C   0  0  0  0  0  1  0  0  0  0  0  0
  190.1830  177.1930  147.8800 N   0  0  0  0  0  0  0  0  0  0  0  0
  191.5870  175.3390  147.6070 O   0  0  0  0  0  1  0  0  0  0  0  0
  190.8190  176.2840  146.9250 C   0  0  2  0  0  3  0  0  0  0  0  0
  191.7590  176.3010  144.6770 O   0  0  0  0  0  0  0  0  0  0  0  0
  190.9120  177.4260  144.6980 C   0  0  1  0  0  3  0  0  0  0  0  0
  191.6900  177.0120  145.8900 C   0  0  1  0  0  3  0  0  0  0  0  0
  190.9800  179.6740  143.8580 N   0  0  0  0  0  2  0  0  0  0  0  0
  191.5960  178.5640  144.0240 C   0  0  0  0  0  3  0  0  0  0  0  0
  1  2  1  0  0  0  0
  2  3  1  6  0  0  0
  2  5  1  0  0  0  0
  4  6  1  0  0  0  0
  5 27  1  0  0  0  0
  6  5  2  0  0  0  0
  7  1  1  0  0  0  0
  7  4  2  0  0  0  0
  8 11  1  0  0  0  0
  8  1  1  0  0  0  0
  9  8  2  0  0  0  0
 10 13  1  0  0  0  0
 12 10  2  0  0  0  0
 12  9  1  0  0  0  0
 13 11  2  0  0  0  0
 14  4  1  0  0  0  0
 14 15  1  1  0  0  0
 16 14  1  0  0  0  0
 17 24  1  6  0  0  0
 17 22  1  0  0  0  0
 17 16  1  0  0  0  0
 18 19  1  0  0  0  0
 19 20  2  0  0  0  0
 20 21  1  0  0  0  0
 22 21  2  0  0  0  0
 23 19  1  0  0  0  0
 23 22  1  0  0  0  0
 25 26  1  0  0  0  0
 26 24  1  0  0  0  0
 27 28  1  0  0  0  0
 28 30  1  0  0  0  0
 29 32  2  0  0  0  0
 29 31  1  0  0  0  0
 30 29  1  0  0  0  0
 34 33  1  1  0  0  0
 34 32  1  0  0  0  0
 35 36  1  0  0  0  0
 35 37  1  0  0  0  0
 36 39  1  6  0  0  0
 36 37  1  0  0  0  0
 37 34  1  1  0  0  0
 38 39  2  0  0  0  0
M  END
>  <MODEL>
2

>  <REMARK>
 VINA RESULT:      -7.6      2.953      8.292
  Name = 
  13 active torsions:
  status: ('A' for Active; 'I' for Inactive)
    1  A    between atoms: C_1  and  C_16
    2  A    between atoms: C_1  and  N_21
    3  A    between atoms: N_2  and  C_5
    4  A    between atoms: C_9  and  C_20
    5  A    between atoms: N_10  and  C_30
    6  A    between atoms: N_10  and  O_35
    7  A    between atoms: N_17  and  C_39
    8  A    between atoms: C_18  and  C_24
    9  A    between atoms: C_18  and  N_29
   10  A    between atoms: N_21  and  C_30
   11  A    between atoms: C_23  and  C_32
   12  A    between atoms: C_28  and  C_30
   13  A    between atoms: C_32  and  C_39
                            x       y       z     vdW  Elec       q    Type
                         _______ _______ _______ _____ _____    ______ ____

>  <TORSDO>
F 13

$$$$
=
 OpenBabel11032420583D

 39 42  0  0  1  0  0  0  0  0999 V2000
  189.4820  176.9820  139.5640 N   0  0  0  0  0  0  0  0  0  0  0  0
  188.4850  178.0620  139.6320 C   0  0  2  0  0  3  0  0  0  0  0  0
  189.0330  179.2220  139.1150 F   0  0  0  0  0  0  0  0  0  0  0  0
  190.0210  177.2090  141.9020 C   0  0  0  0  0  0  0  0  0  0  0  0
  188.0090  178.3130  141.0470 C   0  0  0  0  0  0  0  0  0  0  0  0
  188.7660  177.9530  142.0860 C   0  0  0  0  0  3  0  0  0  0  0  0
  190.3320  176.7290  140.6950 C   0  0  0  0  0  3  0  0  0  0  0  0
  189.7000  176.2770  138.3270 C   0  0  0  0  0  0  0  0  0  0  0  0
  188.7100  176.2430  137.3320 C   0  0  0  0  0  3  0  0  0  0  0  0
  190.0820  174.9010  135.9340 C   0  0  0  0  0  3  0  0  0  0  0  0
  190.9020  175.5920  138.0890 C   0  0  0  0  0  3  0  0  0  0  0  0
  188.9200  175.5660  136.1710 N   0  0  0  0  0  0  0  0  0  0  0  0
  191.0970  174.9030  136.8910 C   0  0  0  0  0  3  0  0  0  0  0  0
  190.8830  176.9290  143.0950 C   0  0  2  0  0  3  0  0  0  0  0  0
  190.7630  175.4750  143.5140 C   0  0  0  0  0  1  0  0  0  0  0  0
  190.5250  177.7950  144.2100 N   0  0  0  0  0  2  0  0  0  0  0  0
  190.4670  176.9670  145.4060 C   0  0  2  0  0  3  0  0  0  0  0  0
  185.9710  178.2400  146.7520 N   0  0  0  0  0  1  0  0  0  0  0  0
  187.3500  177.8900  146.7850 C   0  0  0  0  0  0  0  0  0  0  0  0
  188.0660  177.8210  147.9190 N   0  0  0  0  0  0  0  0  0  0  0  0
  189.2890  177.4720  147.5610 N   0  0  0  0  0  0  0  0  0  0  0  0
  189.2730  177.3370  146.2200 C   0  0  0  0  0  0  0  0  0  0  0  0
  188.0640  177.5950  145.6830 N   0  0  0  0  0  2  0  0  0  0  0  0
  191.6780  177.1480  146.1920 N   0  0  0  0  0  2  0  0  0  0  0  0
  192.3690  175.8180  147.7690 C   0  0  0  0  0  1  0  0  0  0  0  0
  192.2130  175.9200  146.3870 O   0  0  0  0  0  0  0  0  0  0  0  0
  186.7170  179.0220  141.3430 C   0  0  0  0  0  2  0  0  0  0  0  0
  185.7820  178.2530  142.2730 C   0  0  0  0  0  2  0  0  0  0  0  0
  183.3270  178.6960  142.7720 C   0  0  0  0  0  0  0  0  0  0  0  0
  184.3980  178.4260  141.8570 N   0  0  0  0  0  2  0  0  0  0  0  0
  183.5720  178.7230  144.2420 C   0  0  0  0  0  1  0  0  0  0  0  0
  182.1240  178.9080  142.3370 N   0  0  0  0  0  0  0  0  0  0  0  0
  180.7390  179.8240  140.6860 O   0  0  0  0  0  1  0  0  0  0  0  0
  181.7670  178.9100  140.9180 C   0  0  2  0  0  3  0  0  0  0  0  0
  180.8780  177.5860  139.0760 O   0  0  0  0  0  0  0  0  0  0  0  0
  182.1870  177.0920  139.2470 C   0  0  1  0  0  3  0  0  0  0  0  0
  181.3580  177.5240  140.3980 C   0  0  1  0  0  3  0  0  0  0  0  0
  182.2170  175.0450  137.9930 N   0  0  0  0  0  2  0  0  0  0  0  0
  182.1640  175.6070  139.1430 C   0  0  0  0  0  3  0  0  0  0  0  0
  1  2  1  0  0  0  0
  1  7  1  0  0  0  0
  2  3  1  1  0  0  0
  2  5  1  0  0  0  0
  4  6  1  0  0  0  0
  4 14  1  0  0  0  0
  5 27  1  0  0  0  0
  5  6  2  0  0  0  0
  7  4  2  0  0  0  0
  8  1  1  0  0  0  0
  9  8  2  0  0  0  0
 10 12  2  0  0  0  0
 10 13  1  0  0  0  0
 11  8  1  0  0  0  0
 12  9  1  0  0  0  0
 13 11  2  0  0  0  0
 14 15  1  1  0  0  0
 14 16  1  0  0  0  0
 17 16  1  6  0  0  0
 17 24  1  0  0  0  0
 17 22  1  0  0  0  0
 18 19  1  0  0  0  0
 19 20  2  0  0  0  0
 21 20  1  0  0  0  0
 22 21  2  0  0  0  0
 23 22  1  0  0  0  0
 23 19  1  0  0  0  0
 24 26  1  0  0  0  0
 26 25  1  0  0  0  0
 27 28  1  0  0  0  0
 29 31  1  0  0  0  0
 30 28  1  0  0  0  0
 30 29  1  0  0  0  0
 32 29  2  0  0  0  0
 34 33  1  1  0  0  0
 34 32  1  0  0  0  0
 35 36  1  0  0  0  0
 35 37  1  0  0  0  0
 36 39  1  1  0  0  0
 36 37  1  0  0  0  0
 37 34  1  6  0  0  0
 38 39  2  0  0  0  0
M  END
>  <MODEL>
3

>  <REMARK>
 VINA RESULT:      -7.5      2.325      6.304
  Name = 
  13 active torsions:
  status: ('A' for Active; 'I' for Inactive)
    1  A    between atoms: C_1  and  C_16
    2  A    between atoms: C_1  and  N_21
    3  A    between atoms: N_2  and  C_5
    4  A    between atoms: C_9  and  C_20
    5  A    between atoms: N_10  and  C_30
    6  A    between atoms: N_10  and  O_35
    7  A    between atoms: N_17  and  C_39
    8  A    between atoms: C_18  and  C_24
    9  A    between atoms: C_18  and  N_29
   10  A    between atoms: N_21  and  C_30
   11  A    between atoms: C_23  and  C_32
   12  A    between atoms: C_28  and  C_30
   13  A    between atoms: C_32  and  C_39
                            x       y       z     vdW  Elec       q    Type
                         _______ _______ _______ _____ _____    ______ ____

>  <TORSDO>
F 13

$$$$
=
 OpenBabel11032420583D

 39 42  0  0  1  0  0  0  0  0999 V2000
  188.6880  177.4880  143.9040 N   0  0  0  0  0  0  0  0  0  0  0  0
  187.3200  177.6940  143.4070 C   0  0  2  0  0  3  0  0  0  0  0  0
  186.6150  176.5070  143.5040 F   0  0  0  0  0  0  0  0  0  0  0  0
  189.5740  177.3260  141.6680 C   0  0  0  0  0  0  0  0  0  0  0  0
  187.2980  178.1790  141.9720 C   0  0  0  0  0  0  0  0  0  0  0  0
  188.3390  177.9500  141.1690 C   0  0  0  0  0  3  0  0  0  0  0  0
  189.7340  177.1390  142.9820 C   0  0  0  0  0  3  0  0  0  0  0  0
  188.9520  177.4990  145.3210 C   0  0  0  0  0  0  0  0  0  0  0  0
  190.2160  177.1450  145.8210 C   0  0  0  0  0  3  0  0  0  0  0  0
  189.4870  177.4870  148.0550 C   0  0  0  0  0  3  0  0  0  0  0  0
  187.9500  177.8490  146.2390 C   0  0  0  0  0  3  0  0  0  0  0  0
  190.4530  177.1480  147.1600 N   0  0  0  0  0  0  0  0  0  0  0  0
  188.2150  177.8450  147.6080 C   0  0  0  0  0  3  0  0  0  0  0  0
  190.6660  176.9930  140.6980 C   0  0  2  0  0  3  0  0  0  0  0  0
  192.0120  177.4520  141.2280 C   0  0  0  0  0  1  0  0  0  0  0  0
  190.4120  177.6040  139.4000 N   0  0  0  0  0  2  0  0  0  0  0  0
  190.1130  176.5310  138.4630 C   0  0  2  0  0  3  0  0  0  0  0  0
  194.6710  175.7750  136.9450 N   0  0  0  0  0  1  0  0  0  0  0  0
  193.3280  175.5650  137.3660 C   0  0  0  0  0  0  0  0  0  0  0  0
  192.7670  174.3480  137.4600 N   0  0  0  0  0  0  0  0  0  0  0  0
  191.5280  174.5460  137.8760 N   0  0  0  0  0  0  0  0  0  0  0  0
  191.3810  175.8780  138.0230 C   0  0  0  0  0  0  0  0  0  0  0  0
  192.4950  176.5650  137.7080 N   0  0  0  0  0  2  0  0  0  0  0  0
  189.4050  177.0640  137.3090 N   0  0  0  0  0  2  0  0  0  0  0  0
  187.6570  178.3590  137.2700 C   0  0  0  0  0  1  0  0  0  0  0  0
  189.0020  178.3160  137.6340 O   0  0  0  0  0  0  0  0  0  0  0  0
  186.1040  178.8720  141.3790 C   0  0  0  0  0  2  0  0  0  0  0  0
  185.0710  179.3250  142.4060 C   0  0  0  0  0  2  0  0  0  0  0  0
  182.6130  178.8430  142.8510 C   0  0  0  0  0  0  0  0  0  0  0  0
  183.7280  178.9860  141.9590 N   0  0  0  0  0  2  0  0  0  0  0  0
  182.8000  178.9460  144.3260 C   0  0  0  0  0  1  0  0  0  0  0  0
  181.4240  178.6070  142.3900 N   0  0  0  0  0  0  0  0  0  0  0  0
  180.6010  179.6940  140.4860 O   0  0  0  0  0  1  0  0  0  0  0  0
  181.1210  178.4900  140.9630 C   0  0  2  0  0  3  0  0  0  0  0  0
  179.9130  177.2310  139.2620 O   0  0  0  0  0  0  0  0  0  0  0  0
  180.7860  176.2820  139.8290 C   0  0  1  0  0  3  0  0  0  0  0  0
  180.1490  177.3430  140.6460 C   0  0  1  0  0  3  0  0  0  0  0  0
  179.9100  174.1930  139.0330 N   0  0  0  0  0  2  0  0  0  0  0  0
  180.0550  174.9990  140.0180 C   0  0  0  0  0  3  0  0  0  0  0  0
  1  8  1  0  0  0  0
  2  3  1  6  0  0  0
  2  1  1  0  0  0  0
  4  7  2  0  0  0  0
  5  2  1  0  0  0  0
  6  4  1  0  0  0  0
  6  5  2  0  0  0  0
  7  1  1  0  0  0  0
  8  9  2  0  0  0  0
  8 11  1  0  0  0  0
  9 12  1  0  0  0  0
 11 13  2  0  0  0  0
 12 10  2  0  0  0  0
 13 10  1  0  0  0  0
 14 15  1  1  0  0  0
 14  4  1  0  0  0  0
 16 14  1  0  0  0  0
 17 24  1  6  0  0  0
 17 16  1  0  0  0  0
 18 19  1  0  0  0  0
 19 20  2  0  0  0  0
 19 23  1  0  0  0  0
 20 21  1  0  0  0  0
 21 22  2  0  0  0  0
 22 17  1  0  0  0  0
 23 22  1  0  0  0  0
 24 26  1  0  0  0  0
 25 26  1  0  0  0  0
 27  5  1  0  0  0  0
 27 28  1  0  0  0  0
 29 31  1  0  0  0  0
 30 28  1  0  0  0  0
 30 29  1  0  0  0  0
 32 29  2  0  0  0  0
 34 33  1  1  0  0  0
 34 32  1  0  0  0  0
 35 36  1  0  0  0  0
 35 37  1  0  0  0  0
 36 39  1  1  0  0  0
 36 37  1  0  0  0  0
 37 34  1  6  0  0  0
 38 39  2  0  0  0  0
M  END
>  <MODEL>
4

>  <REMARK>
 VINA RESULT:      -7.4      1.650      2.915
  Name = 
  13 active torsions:
  status: ('A' for Active; 'I' for Inactive)
    1  A    between atoms: C_1  and  C_16
    2  A    between atoms: C_1  and  N_21
    3  A    between atoms: N_2  and  C_5
    4  A    between atoms: C_9  and  C_20
    5  A    between atoms: N_10  and  C_30
    6  A    between atoms: N_10  and  O_35
    7  A    between atoms: N_17  and  C_39
    8  A    between atoms: C_18  and  C_24
    9  A    between atoms: C_18  and  N_29
   10  A    between atoms: N_21  and  C_30
   11  A    between atoms: C_23  and  C_32
   12  A    between atoms: C_28  and  C_30
   13  A    between atoms: C_32  and  C_39
                            x       y       z     vdW  Elec       q    Type
                         _______ _______ _______ _____ _____    ______ ____

>  <TORSDO>
F 13

$$$$
=
 OpenBabel11032420583D

 39 42  0  0  1  0  0  0  0  0999 V2000
  189.1650  177.4070  143.1620 N   0  0  0  0  0  0  0  0  0  0  0  0
  187.7050  177.5650  143.0830 C   0  0  2  0  0  3  0  0  0  0  0  0
  187.1060  176.3200  143.1600 F   0  0  0  0  0  0  0  0  0  0  0  0
  189.4130  177.6620  140.7790 C   0  0  0  0  0  0  0  0  0  0  0  0
  187.2720  178.2570  141.8070 C   0  0  0  0  0  0  0  0  0  0  0  0
  188.0630  178.2430  140.7330 C   0  0  0  0  0  3  0  0  0  0  0  0
  189.9340  177.2940  141.9530 C   0  0  0  0  0  3  0  0  0  0  0  0
  189.8040  177.2270  144.4410 C   0  0  0  0  0  0  0  0  0  0  0  0
  191.1580  176.8640  144.5250 C   0  0  0  0  0  3  0  0  0  0  0  0
  191.0630  176.8490  146.8970 C   0  0  0  0  0  3  0  0  0  0  0  0
  189.0880  177.3950  145.6360 C   0  0  0  0  0  3  0  0  0  0  0  0
  191.7510  176.6870  145.7360 N   0  0  0  0  0  0  0  0  0  0  0  0
  189.7150  177.2070  146.8680 C   0  0  0  0  0  3  0  0  0  0  0  0
  190.2130  177.5760  139.5140 C   0  0  2  0  0  3  0  0  0  0  0  0
  189.4960  178.2820  138.3770 C   0  0  0  0  0  1  0  0  0  0  0  0
  190.4650  176.1880  139.1530 N   0  0  0  0  0  2  0  0  0  0  0  0
  190.3930  176.0940  137.7020 C   0  0  2  0  0  3  0  0  0  0  0  0
  186.5200  173.5080  136.3010 N   0  0  0  0  0  1  0  0  0  0  0  0
  187.8300  173.8700  136.7220 C   0  0  0  0  0  0  0  0  0  0  0  0
  188.8120  172.9770  136.9270 N   0  0  0  0  0  0  0  0  0  0  0  0
  189.8690  173.6730  137.3050 N   0  0  0  0  0  0  0  0  0  0  0  0
  189.4930  174.9680  137.3130 C   0  0  0  0  0  0  0  0  0  0  0  0
  188.2070  175.1410  136.9520 N   0  0  0  0  0  2  0  0  0  0  0  0
  191.7230  175.8760  137.1530 N   0  0  0  0  0  2  0  0  0  0  0  0
  193.4390  174.6070  137.5730 C   0  0  0  0  0  1  0  0  0  0  0  0
  192.5090  175.4560  138.1720 O   0  0  0  0  0  0  0  0  0  0  0  0
  185.9320  178.9230  141.6730 C   0  0  0  0  0  2  0  0  0  0  0  0
  185.2850  179.2980  143.0030 C   0  0  0  0  0  2  0  0  0  0  0  0
  182.9850  178.9680  144.0390 C   0  0  0  0  0  0  0  0  0  0  0  0
  183.8360  179.2030  142.9080 N   0  0  0  0  0  2  0  0  0  0  0  0
  183.5660  178.7120  145.3880 C   0  0  0  0  0  1  0  0  0  0  0  0
  181.6950  178.9600  143.9060 N   0  0  0  0  0  0  0  0  0  0  0  0
  180.3750  180.4420  142.6640 O   0  0  0  0  0  1  0  0  0  0  0  0
  181.0140  179.2030  142.6330 C   0  0  2  0  0  3  0  0  0  0  0  0
  179.1710  178.4940  141.2050 O   0  0  0  0  0  0  0  0  0  0  0  0
  180.2050  177.5870  140.8990 C   0  0  1  0  0  3  0  0  0  0  0  0
  180.0020  178.1050  142.2730 C   0  0  1  0  0  3  0  0  0  0  0  0
  179.7550  175.5570  139.7000 N   0  0  0  0  0  2  0  0  0  0  0  0
  179.6340  176.2160  140.7910 C   0  0  0  0  0  3  0  0  0  0  0  0
  1  8  1  0  0  0  0
  2  3  1  6  0  0  0
  2  1  1  0  0  0  0
  4  7  2  0  0  0  0
  5  2  1  0  0  0  0
  6  4  1  0  0  0  0
  6  5  2  0  0  0  0
  7  1  1  0  0  0  0
  8  9  2  0  0  0  0
  8 11  1  0  0  0  0
  9 12  1  0  0  0  0
 11 13  2  0  0  0  0
 12 10  2  0  0  0  0
 13 10  1  0  0  0  0
 14 15  1  6  0  0  0
 14  4  1  0  0  0  0
 16 14  1  0  0  0  0
 17 24  1  1  0  0  0
 17 16  1  0  0  0  0
 18 19  1  0  0  0  0
 19 20  2  0  0  0  0
 19 23  1  0  0  0  0
 20 21  1  0  0  0  0
 21 22  2  0  0  0  0
 22 17  1  0  0  0  0
 23 22  1  0  0  0  0
 24 26  1  0  0  0  0
 25 26  1  0  0  0  0
 27  5  1  0  0  0  0
 27 28  1  0  0  0  0
 29 31  1  0  0  0  0
 30 28  1  0  0  0  0
 30 29  1  0  0  0  0
 32 29  2  0  0  0  0
 34 33  1  1  0  0  0
 34 32  1  0  0  0  0
 35 37  1  0  0  0  0
 36 39  1  1  0  0  0
 36 35  1  0  0  0  0
 36 37  1  0  0  0  0
 37 34  1  6  0  0  0
 38 39  2  0  0  0  0
M  END
>  <MODEL>
5

>  <REMARK>
 VINA RESULT:      -7.4      1.681      1.921
  Name = 
  13 active torsions:
  status: ('A' for Active; 'I' for Inactive)
    1  A    between atoms: C_1  and  C_16
    2  A    between atoms: C_1  and  N_21
    3  A    between atoms: N_2  and  C_5
    4  A    between atoms: C_9  and  C_20
    5  A    between atoms: N_10  and  C_30
    6  A    between atoms: N_10  and  O_35
    7  A    between atoms: N_17  and  C_39
    8  A    between atoms: C_18  and  C_24
    9  A    between atoms: C_18  and  N_29
   10  A    between atoms: N_21  and  C_30
   11  A    between atoms: C_23  and  C_32
   12  A    between atoms: C_28  and  C_30
   13  A    between atoms: C_32  and  C_39
                            x       y       z     vdW  Elec       q    Type
                         _______ _______ _______ _____ _____    ______ ____

>  <TORSDO>
F 13

$$$$
=
 OpenBabel11032420583D

 39 42  0  0  1  0  0  0  0  0999 V2000
  183.6870  178.6120  143.1930 N   0  0  0  0  0  0  0  0  0  0  0  0
  184.2470  178.5650  144.5530 C   0  0  2  0  0  3  0  0  0  0  0  0
  184.3570  179.8520  145.0470 F   0  0  0  0  0  0  0  0  0  0  0  0
  185.8570  178.3070  142.1910 C   0  0  0  0  0  0  0  0  0  0  0  0
  185.6020  177.8900  144.5900 C   0  0  0  0  0  0  0  0  0  0  0  0
  186.3540  177.8290  143.4890 C   0  0  0  0  0  3  0  0  0  0  0  0
  184.5720  178.6510  142.0620 C   0  0  0  0  0  3  0  0  0  0  0  0
  182.2670  178.7620  143.0010 C   0  0  0  0  0  0  0  0  0  0  0  0
  181.7330  178.9970  141.7240 C   0  0  0  0  0  3  0  0  0  0  0  0
  179.5280  179.0780  142.6000 C   0  0  0  0  0  3  0  0  0  0  0  0
  181.3800  178.6900  144.0870 C   0  0  0  0  0  3  0  0  0  0  0  0
  180.3920  179.1470  141.5530 N   0  0  0  0  0  0  0  0  0  0  0  0
  180.0080  178.8470  143.8890 C   0  0  0  0  0  3  0  0  0  0  0  0
  186.7850  178.3140  141.0130 C   0  0  2  0  0  3  0  0  0  0  0  0
  188.1000  178.9800  141.3720 C   0  0  0  0  0  1  0  0  0  0  0  0
  186.1780  178.9980  139.8790 N   0  0  0  0  0  2  0  0  0  0  0  0
  186.1250  178.0500  138.7750 C   0  0  2  0  0  3  0  0  0  0  0  0
  190.4870  176.7470  137.0670 N   0  0  0  0  0  1  0  0  0  0  0  0
  189.2980  177.4820  137.3330 C   0  0  0  0  0  0  0  0  0  0  0  0
  189.0600  178.7060  136.8340 N   0  0  0  0  0  0  0  0  0  0  0  0
  187.8740  179.0650  137.2920 N   0  0  0  0  0  0  0  0  0  0  0  0
  187.4300  178.0440  138.0520 C   0  0  0  0  0  0  0  0  0  0  0  0
  188.3010  177.0180  138.1100 N   0  0  0  0  0  2  0  0  0  0  0  0
  185.0540  178.4160  137.8600 N   0  0  0  0  0  2  0  0  0  0  0  0
  183.6190  176.8550  138.3500 C   0  0  0  0  0  1  0  0  0  0  0  0
  184.5330  177.2630  137.3780 O   0  0  0  0  0  0  0  0  0  0  0  0
  186.1800  177.3240  145.8570 C   0  0  0  0  0  2  0  0  0  0  0  0
  187.1870  178.2400  146.5470 C   0  0  0  0  0  2  0  0  0  0  0  0
  189.4010  177.7430  147.6970 C   0  0  0  0  0  0  0  0  0  0  0  0
  188.4990  177.6120  146.5900 N   0  0  0  0  0  2  0  0  0  0  0  0
  189.0670  178.6290  148.8490 C   0  0  0  0  0  1  0  0  0  0  0  0
  190.5300  177.1050  147.7110 N   0  0  0  0  0  0  0  0  0  0  0  0
  191.8480  175.2550  147.1430 O   0  0  0  0  0  1  0  0  0  0  0  0
  190.9600  176.2060  146.6390 C   0  0  2  0  0  3  0  0  0  0  0  0
  192.0510  176.0490  144.4660 O   0  0  0  0  0  0  0  0  0  0  0  0
  190.8550  176.7430  144.1950 C   0  0  1  0  0  3  0  0  0  0  0  0
  191.6060  176.9450  145.4570 C   0  0  1  0  0  3  0  0  0  0  0  0
  191.5120  177.6130  142.0560 N   0  0  0  0  0  2  0  0  0  0  0  0
  191.1430  177.8630  143.2570 C   0  0  0  0  0  3  0  0  0  0  0  0
  1  2  1  0  0  0  0
  2  5  1  0  0  0  0
  2  3  1  6  0  0  0
  4  6  1  0  0  0  0
  5 27  1  0  0  0  0
  6  5  2  0  0  0  0
  7  4  2  0  0  0  0
  7  1  1  0  0  0  0
  8  1  1  0  0  0  0
  8 11  1  0  0  0  0
  9  8  2  0  0  0  0
 10 13  1  0  0  0  0
 12  9  1  0  0  0  0
 12 10  2  0  0  0  0
 13 11  2  0  0  0  0
 14 15  1  1  0  0  0
 14  4  1  0  0  0  0
 16 14  1  0  0  0  0
 17 24  1  6  0  0  0
 17 16  1  0  0  0  0
 18 19  1  0  0  0  0
 19 23  1  0  0  0  0
 20 21  1  0  0  0  0
 20 19  2  0  0  0  0
 21 22  2  0  0  0  0
 22 23  1  0  0  0  0
 22 17  1  0  0  0  0
 26 24  1  0  0  0  0
 26 25  1  0  0  0  0
 27 28  1  0  0  0  0
 28 30  1  0  0  0  0
 29 32  2  0  0  0  0
 29 31  1  0  0  0  0
 30 29  1  0  0  0  0
 34 33  1  1  0  0  0
 34 32  1  0  0  0  0
 35 37  1  0  0  0  0
 36 39  1  6  0  0  0
 36 35  1  0  0  0  0
 36 37  1  0  0  0  0
 37 34  1  1  0  0  0
 38 39  2  0  0  0  0
M  END
>  <MODEL>
6

>  <REMARK>
 VINA RESULT:      -7.3      2.803      7.769
  Name = 
  13 active torsions:
  status: ('A' for Active; 'I' for Inactive)
    1  A    between atoms: C_1  and  C_16
    2  A    between atoms: C_1  and  N_21
    3  A    between atoms: N_2  and  C_5
    4  A    between atoms: C_9  and  C_20
    5  A    between atoms: N_10  and  C_30
    6  A    between atoms: N_10  and  O_35
    7  A    between atoms: N_17  and  C_39
    8  A    between atoms: C_18  and  C_24
    9  A    between atoms: C_18  and  N_29
   10  A    between atoms: N_21  and  C_30
   11  A    between atoms: C_23  and  C_32
   12  A    between atoms: C_28  and  C_30
   13  A    between atoms: C_32  and  C_39
                            x       y       z     vdW  Elec       q    Type
                         _______ _______ _______ _____ _____    ______ ____

>  <TORSDO>
F 13

$$$$
=
 OpenBabel11032420583D

 39 42  0  0  1  0  0  0  0  0999 V2000
  183.5850  178.6810  142.7560 N   0  0  0  0  0  0  0  0  0  0  0  0
  184.3560  178.4670  143.9900 C   0  0  2  0  0  3  0  0  0  0  0  0
  184.5220  179.6770  144.6400 F   0  0  0  0  0  0  0  0  0  0  0  0
  185.5700  178.6060  141.3920 C   0  0  0  0  0  0  0  0  0  0  0  0
  185.7120  177.8490  143.7170 C   0  0  0  0  0  0  0  0  0  0  0  0
  186.2780  177.9730  142.5150 C   0  0  0  0  0  3  0  0  0  0  0  0
  184.2760  178.9130  141.5170 C   0  0  0  0  0  3  0  0  0  0  0  0
  182.1490  178.7980  142.8120 C   0  0  0  0  0  0  0  0  0  0  0  0
  181.4000  179.0400  141.6500 C   0  0  0  0  0  3  0  0  0  0  0  0
  179.3760  179.0520  142.8910 C   0  0  0  0  0  3  0  0  0  0  0  0
  181.4630  178.6880  144.0320 C   0  0  0  0  0  3  0  0  0  0  0  0
  180.0470  179.1580  141.7130 N   0  0  0  0  0  0  0  0  0  0  0  0
  180.0750  178.8140  144.0750 C   0  0  0  0  0  3  0  0  0  0  0  0
  186.2960  178.8160  140.0980 C   0  0  2  0  0  3  0  0  0  0  0  0
  185.4680  178.3110  138.9310 C   0  0  0  0  0  1  0  0  0  0  0  0
  187.5880  178.1440  140.1130 N   0  0  0  0  0  2  0  0  0  0  0  0
  188.1010  178.1520  138.7510 C   0  0  2  0  0  3  0  0  0  0  0  0
  189.8180  173.8700  137.2160 N   0  0  0  0  0  1  0  0  0  0  0  0
  189.6930  175.1240  137.8760 C   0  0  0  0  0  0  0  0  0  0  0  0
  190.6300  175.6190  138.7020 N   0  0  0  0  0  0  0  0  0  0  0  0
  190.1710  176.7850  139.1210 N   0  0  0  0  0  0  0  0  0  0  0  0
  188.9710  176.9600  138.5310 C   0  0  0  0  0  0  0  0  0  0  0  0
  188.6250  175.9300  137.7350 N   0  0  0  0  0  2  0  0  0  0  0  0
  188.8630  179.3700  138.5160 N   0  0  0  0  0  2  0  0  0  0  0  0
  187.8950  179.2570  136.5710 C   0  0  0  0  0  1  0  0  0  0  0  0
  189.1330  179.4200  137.1900 O   0  0  0  0  0  0  0  0  0  0  0  0
  186.4960  177.1370  144.7830 C   0  0  0  0  0  2  0  0  0  0  0  0
  187.2040  178.0670  145.7640 C   0  0  0  0  0  2  0  0  0  0  0  0
  189.1050  177.7360  147.4220 C   0  0  0  0  0  0  0  0  0  0  0  0
  188.4980  177.5170  146.1410 N   0  0  0  0  0  2  0  0  0  0  0  0
  188.4650  178.6370  148.4220 C   0  0  0  0  0  1  0  0  0  0  0  0
  190.2280  177.1650  147.7280 N   0  0  0  0  0  0  0  0  0  0  0  0
  191.9340  175.5720  147.5320 O   0  0  0  0  0  1  0  0  0  0  0  0
  190.9430  176.2590  146.8280 C   0  0  2  0  0  3  0  0  0  0  0  0
  192.0640  176.0620  144.6740 O   0  0  0  0  0  0  0  0  0  0  0  0
  190.8390  176.6860  144.3630 C   0  0  1  0  0  3  0  0  0  0  0  0
  191.5670  176.9770  145.6220 C   0  0  1  0  0  3  0  0  0  0  0  0
  191.6010  177.5070  142.2390 N   0  0  0  0  0  2  0  0  0  0  0  0
  191.0840  177.7770  143.3800 C   0  0  0  0  0  3  0  0  0  0  0  0
  1  8  1  0  0  0  0
  1  2  1  0  0  0  0
  2  3  1  6  0  0  0
  4  7  2  0  0  0  0
  4  6  1  0  0  0  0
  5  2  1  0  0  0  0
  5 27  1  0  0  0  0
  6  5  2  0  0  0  0
  7  1  1  0  0  0  0
  8 11  1  0  0  0  0
  9 12  1  0  0  0  0
  9  8  2  0  0  0  0
 10 13  1  0  0  0  0
 11 13  2  0  0  0  0
 12 10  2  0  0  0  0
 14 15  1  6  0  0  0
 14 16  1  0  0  0  0
 14  4  1  0  0  0  0
 17 24  1  1  0  0  0
 17 16  1  0  0  0  0
 18 19  1  0  0  0  0
 19 20  2  0  0  0  0
 20 21  1  0  0  0  0
 22 17  1  0  0  0  0
 22 21  2  0  0  0  0
 23 19  1  0  0  0  0
 23 22  1  0  0  0  0
 25 26  1  0  0  0  0
 26 24  1  0  0  0  0
 27 28  1  0  0  0  0
 28 30  1  0  0  0  0
 29 32  2  0  0  0  0
 29 31  1  0  0  0  0
 30 29  1  0  0  0  0
 34 33  1  1  0  0  0
 34 32  1  0  0  0  0
 35 37  1  0  0  0  0
 36 39  1  6  0  0  0
 36 35  1  0  0  0  0
 36 37  1  0  0  0  0
 37 34  1  1  0  0  0
 38 39  2  0  0  0  0
M  END
>  <MODEL>
7

>  <REMARK>
 VINA RESULT:      -7.3      3.082      7.635
  Name = 
  13 active torsions:
  status: ('A' for Active; 'I' for Inactive)
    1  A    between atoms: C_1  and  C_16
    2  A    between atoms: C_1  and  N_21
    3  A    between atoms: N_2  and  C_5
    4  A    between atoms: C_9  and  C_20
    5  A    between atoms: N_10  and  C_30
    6  A    between atoms: N_10  and  O_35
    7  A    between atoms: N_17  and  C_39
    8  A    between atoms: C_18  and  C_24
    9  A    between atoms: C_18  and  N_29
   10  A    between atoms: N_21  and  C_30
   11  A    between atoms: C_23  and  C_32
   12  A    between atoms: C_28  and  C_30
   13  A    between atoms: C_32  and  C_39
                            x       y       z     vdW  Elec       q    Type
                         _______ _______ _______ _____ _____    ______ ____

>  <TORSDO>
F 13

$$$$
=
 OpenBabel11032420583D

 39 42  0  0  1  0  0  0  0  0999 V2000
  188.2060  177.6460  144.4990 N   0  0  0  0  0  0  0  0  0  0  0  0
  186.8760  177.9150  143.9320 C   0  0  2  0  0  3  0  0  0  0  0  0
  186.0810  176.7920  144.0790 F   0  0  0  0  0  0  0  0  0  0  0  0
  189.1590  177.2620  142.3190 C   0  0  0  0  0  0  0  0  0  0  0  0
  186.9440  178.2980  142.4680 C   0  0  0  0  0  0  0  0  0  0  0  0
  187.9940  177.9370  141.7270 C   0  0  0  0  0  3  0  0  0  0  0  0
  189.2560  177.1570  143.6480 C   0  0  0  0  0  3  0  0  0  0  0  0
  188.4170  177.7370  145.9220 C   0  0  0  0  0  0  0  0  0  0  0  0
  189.6700  177.4470  146.4840 C   0  0  0  0  0  3  0  0  0  0  0  0
  188.8510  177.8810  148.6700 C   0  0  0  0  0  3  0  0  0  0  0  0
  187.3720  178.1040  146.7840 C   0  0  0  0  0  3  0  0  0  0  0  0
  189.8580  177.5260  147.8290 N   0  0  0  0  0  0  0  0  0  0  0  0
  187.5860  178.1780  148.1610 C   0  0  0  0  0  3  0  0  0  0  0  0
  190.2580  176.7830  141.4200 C   0  0  2  0  0  3  0  0  0  0  0  0
  191.3070  177.8650  141.2330 C   0  0  0  0  0  1  0  0  0  0  0  0
  189.7300  176.3770  140.1250 N   0  0  0  0  0  2  0  0  0  0  0  0
  190.4860  177.0870  139.1030 C   0  0  2  0  0  3  0  0  0  0  0  0
  187.6310  178.0890  135.2970 N   0  0  0  0  0  1  0  0  0  0  0  0
  188.3370  178.1910  136.5280 C   0  0  0  0  0  0  0  0  0  0  0  0
  188.2860  179.2760  137.3190 N   0  0  0  0  0  0  0  0  0  0  0  0
  189.0570  179.0080  138.3590 N   0  0  0  0  0  0  0  0  0  0  0  0
  189.5490  177.7680  138.1630 C   0  0  0  0  0  0  0  0  0  0  0  0
  189.1210  177.2120  137.0130 N   0  0  0  0  0  2  0  0  0  0  0  0
  191.3280  176.1520  138.3710 N   0  0  0  0  0  2  0  0  0  0  0  0
  192.9250  176.3810  136.9120 C   0  0  0  0  0  1  0  0  0  0  0  0
  192.5290  176.7520  138.1970 O   0  0  0  0  0  0  0  0  0  0  0  0
  185.8280  179.0310  141.7790 C   0  0  0  0  0  2  0  0  0  0  0  0
  185.6920  178.7090  140.2940 C   0  0  0  0  0  2  0  0  0  0  0  0
  183.7870  178.7240  138.6080 C   0  0  0  0  0  0  0  0  0  0  0  0
  184.4470  179.2480  139.7690 N   0  0  0  0  0  2  0  0  0  0  0  0
  184.4110  177.6320  137.8080 C   0  0  0  0  0  1  0  0  0  0  0  0
  182.6440  179.2010  138.2250 N   0  0  0  0  0  0  0  0  0  0  0  0
  181.0850  179.7210  139.8930 O   0  0  0  0  0  1  0  0  0  0  0  0
  181.9370  180.2690  138.9340 C   0  0  2  0  0  3  0  0  0  0  0  0
  180.2960  182.0560  138.7150 O   0  0  0  0  0  0  0  0  0  0  0  0
  181.4800  182.6190  138.1970 C   0  0  1  0  0  3  0  0  0  0  0  0
  181.1410  181.1890  137.9960 C   0  0  1  0  0  3  0  0  0  0  0  0
  181.5540  184.5980  136.8410 N   0  0  0  0  0  2  0  0  0  0  0  0
  181.1550  183.3880  136.9640 C   0  0  0  0  0  3  0  0  0  0  0  0
  1  8  1  0  0  0  0
  2  3  1  6  0  0  0
  2  1  1  0  0  0  0
  4  7  2  0  0  0  0
  5  2  1  0  0  0  0
  6  4  1  0  0  0  0
  6  5  2  0  0  0  0
  7  1  1  0  0  0  0
  8  9  2  0  0  0  0
  8 11  1  0  0  0  0
  9 12  1  0  0  0  0
 11 13  2  0  0  0  0
 12 10  2  0  0  0  0
 13 10  1  0  0  0  0
 14 15  1  6  0  0  0
 14  4  1  0  0  0  0
 16 14  1  0  0  0  0
 17 24  1  6  0  0  0
 17 16  1  0  0  0  0
 18 19  1  0  0  0  0
 19 23  1  0  0  0  0
 19 20  2  0  0  0  0
 20 21  1  0  0  0  0
 22 21  2  0  0  0  0
 22 17  1  0  0  0  0
 23 22  1  0  0  0  0
 25 26  1  0  0  0  0
 26 24  1  0  0  0  0
 27  5  1  0  0  0  0
 28 27  1  0  0  0  0
 29 30  1  0  0  0  0
 30 28  1  0  0  0  0
 31 29  1  0  0  0  0
 32 29  2  0  0  0  0
 32 34  1  0  0  0  0
 34 33  1  1  0  0  0
 36 39  1  6  0  0  0
 36 35  1  0  0  0  0
 37 36  1  0  0  0  0
 37 35  1  0  0  0  0
 37 34  1  1  0  0  0
 38 39  2  0  0  0  0
M  END
>  <MODEL>
8

>  <REMARK>
 VINA RESULT:      -7.2      2.580      3.436
  Name = 
  13 active torsions:
  status: ('A' for Active; 'I' for Inactive)
    1  A    between atoms: C_1  and  C_16
    2  A    between atoms: C_1  and  N_21
    3  A    between atoms: N_2  and  C_5
    4  A    between atoms: C_9  and  C_20
    5  A    between atoms: N_10  and  C_30
    6  A    between atoms: N_10  and  O_35
    7  A    between atoms: N_17  and  C_39
    8  A    between atoms: C_18  and  C_24
    9  A    between atoms: C_18  and  N_29
   10  A    between atoms: N_21  and  C_30
   11  A    between atoms: C_23  and  C_32
   12  A    between atoms: C_28  and  C_30
   13  A    between atoms: C_32  and  C_39
                            x       y       z     vdW  Elec       q    Type
                         _______ _______ _______ _____ _____    ______ ____

>  <TORSDO>
F 13

$$$$
=
 OpenBabel11032420583D

 39 42  0  0  1  0  0  0  0  0999 V2000
  187.8630  177.8180  144.4410 N   0  0  0  0  0  0  0  0  0  0  0  0
  186.4850  177.9860  144.9250 C   0  0  2  0  0  3  0  0  0  0  0  0
  185.8950  176.7420  145.0670 F   0  0  0  0  0  0  0  0  0  0  0  0
  187.2350  178.3810  142.1830 C   0  0  0  0  0  0  0  0  0  0  0  0
  185.6500  178.8390  143.9930 C   0  0  0  0  0  0  0  0  0  0  0  0
  185.9920  178.9650  142.7100 C   0  0  0  0  0  3  0  0  0  0  0  0
  188.1300  177.8620  143.0290 C   0  0  0  0  0  3  0  0  0  0  0  0
  188.9160  177.4720  145.3620 C   0  0  0  0  0  0  0  0  0  0  0  0
  190.2400  177.3250  144.9190 C   0  0  0  0  0  3  0  0  0  0  0  0
  190.9700  176.7800  147.1120 C   0  0  0  0  0  3  0  0  0  0  0  0
  188.6440  177.2570  146.7220 C   0  0  0  0  0  3  0  0  0  0  0  0
  191.2260  176.9890  145.7930 N   0  0  0  0  0  0  0  0  0  0  0  0
  189.6700  176.9120  147.6010 C   0  0  0  0  0  3  0  0  0  0  0  0
  187.5120  178.4600  140.7130 C   0  0  2  0  0  3  0  0  0  0  0  0
  186.2260  178.3260  139.9170 C   0  0  0  0  0  1  0  0  0  0  0  0
  188.4540  177.4270  140.3060 N   0  0  0  0  0  2  0  0  0  0  0  0
  189.4590  178.0590  139.4640 C   0  0  2  0  0  3  0  0  0  0  0  0
  188.7720  176.0780  135.0760 N   0  0  0  0  0  1  0  0  0  0  0  0
  188.8280  177.0080  136.1520 C   0  0  0  0  0  0  0  0  0  0  0  0
  188.4820  178.3000  136.0280 N   0  0  0  0  0  0  0  0  0  0  0  0
  188.6640  178.8440  137.2190 N   0  0  0  0  0  0  0  0  0  0  0  0
  189.1110  177.8620  138.0260 C   0  0  0  0  0  0  0  0  0  0  0  0
  189.2340  176.6800  137.3920 N   0  0  0  0  0  2  0  0  0  0  0  0
  190.7680  177.4850  139.7390 N   0  0  0  0  0  2  0  0  0  0  0  0
  191.7910  177.4960  141.6590 C   0  0  0  0  0  1  0  0  0  0  0  0
  190.7100  176.9400  140.9770 O   0  0  0  0  0  0  0  0  0  0  0  0
  184.3880  179.5190  144.4450 C   0  0  0  0  0  2  0  0  0  0  0  0
  183.1420  178.6420  144.3620 C   0  0  0  0  0  2  0  0  0  0  0  0
  181.0590  178.8560  142.9170 C   0  0  0  0  0  0  0  0  0  0  0  0
  182.4840  178.8150  143.0750 N   0  0  0  0  0  2  0  0  0  0  0  0
  180.1580  178.6240  144.0820 C   0  0  0  0  0  1  0  0  0  0  0  0
  180.5280  179.0800  141.7560 N   0  0  0  0  0  0  0  0  0  0  0  0
  180.8040  180.4310  139.8630 O   0  0  0  0  0  1  0  0  0  0  0  0
  181.3130  179.3250  140.5450 C   0  0  2  0  0  3  0  0  0  0  0  0
  182.3310  178.2760  138.5950 O   0  0  0  0  0  0  0  0  0  0  0  0
  182.6690  177.4150  139.6580 C   0  0  1  0  0  3  0  0  0  0  0  0
  181.3610  178.1120  139.6030 C   0  0  1  0  0  3  0  0  0  0  0  0
  183.2800  175.5190  138.3190 N   0  0  0  0  0  2  0  0  0  0  0  0
  182.5030  176.0040  139.2140 C   0  0  0  0  0  3  0  0  0  0  0  0
  1  2  1  0  0  0  0
  1  8  1  0  0  0  0
  2  3  1  6  0  0  0
  4  6  1  0  0  0  0
  4  7  2  0  0  0  0
  5 27  1  0  0  0  0
  5  2  1  0  0  0  0
  6  5  2  0  0  0  0
  7  1  1  0  0  0  0
  8 11  1  0  0  0  0
  9  8  2  0  0  0  0
  9 12  1  0  0  0  0
 10 13  1  0  0  0  0
 11 13  2  0  0  0  0
 12 10  2  0  0  0  0
 14 15  1  6  0  0  0
 14  4  1  0  0  0  0
 16 14  1  0  0  0  0
 17 24  1  6  0  0  0
 17 16  1  0  0  0  0
 18 19  1  0  0  0  0
 19 23  1  0  0  0  0
 20 19  2  0  0  0  0
 20 21  1  0  0  0  0
 21 22  2  0  0  0  0
 22 17  1  0  0  0  0
 23 22  1  0  0  0  0
 24 26  1  0  0  0  0
 26 25  1  0  0  0  0
 28 27  1  0  0  0  0
 29 30  1  0  0  0  0
 29 31  1  0  0  0  0
 30 28  1  0  0  0  0
 32 29  2  0  0  0  0
 34 33  1  6  0  0  0
 34 32  1  0  0  0  0
 35 37  1  0  0  0  0
 35 36  1  0  0  0  0
 36 39  1  6  0  0  0
 37 36  1  0  0  0  0
 37 34  1  1  0  0  0
 38 39  2  0  0  0  0
M  END
>  <MODEL>
9

>  <REMARK>
 VINA RESULT:      -7.2      1.774      2.647
  Name = 
  13 active torsions:
  status: ('A' for Active; 'I' for Inactive)
    1  A    between atoms: C_1  and  C_16
    2  A    between atoms: C_1  and  N_21
    3  A    between atoms: N_2  and  C_5
    4  A    between atoms: C_9  and  C_20
    5  A    between atoms: N_10  and  C_30
    6  A    between atoms: N_10  and  O_35
    7  A    between atoms: N_17  and  C_39
    8  A    between atoms: C_18  and  C_24
    9  A    between atoms: C_18  and  N_29
   10  A    between atoms: N_21  and  C_30
   11  A    between atoms: C_23  and  C_32
   12  A    between atoms: C_28  and  C_30
   13  A    between atoms: C_32  and  C_39
                            x       y       z     vdW  Elec       q    Type
                         _______ _______ _______ _____ _____    ______ ____

>  <TORSDO>
F 13

$$$$
