=
 OpenBabel11042409523D

 33 38  0  0  1  0  0  0  0  0999 V2000
  179.4990  178.6880  142.3980 C   0  0  1  0  0  3  0  0  0  0  0  0
  183.4980  179.5150  143.9450 C   0  0  1  0  0  3  0  0  0  0  0  0
  181.3740  179.7140  143.1390 C   0  0  1  0  0  3  0  0  0  0  0  0
  180.2720  179.8240  142.1620 C   0  0  1  0  0  3  0  0  0  0  0  0
  181.2660  178.7350  143.9650 C   0  0  1  0  0  3  0  0  0  0  0  0
  179.2570  177.6910  144.5700 O   0  0  0  0  0  1  0  0  0  0  0  0
  182.6310  180.2680  143.0970 O   0  0  0  0  0  0  0  0  0  0  0  0
  180.3770  178.6970  141.1830 N   0  0  0  0  0  0  0  0  0  0  0  0
  180.1620  177.8630  143.5230 C   0  0  1  0  0  3  0  0  0  0  0  0
  182.6020  178.3860  144.5150 C   0  0  0  0  0  2  0  0  0  0  0  0
  182.4160  177.5500  138.2810 N   0  0  0  0  0  0  0  0  0  0  0  0
  180.7740  176.8390  139.6350 C   0  0  0  0  0  0  0  0  0  0  0  0
  180.8040  174.3760  138.4830 C   0  0  0  0  0  3  0  0  0  0  0  0
  181.6330  176.5660  138.5950 C   0  0  0  0  0  0  0  0  0  0  0  0
  182.0110  178.5900  139.1780 C   0  0  0  0  0  0  0  0  0  0  0  0
  181.6550  175.3400  138.0180 N   0  0  0  0  0  0  0  0  0  0  0  0
  179.9300  175.9020  140.1300 N   0  0  0  0  0  0  0  0  0  0  0  0
  179.9300  174.6620  139.5570 C   0  0  0  0  0  3  0  0  0  0  0  0
  180.9650  178.0720  140.0480 C   0  0  0  0  0  0  0  0  0  0  0  0
  182.7520  179.6120  139.4520 N   0  0  0  0  0  2  0  0  0  0  0  0
  184.1830  177.8410  142.2350 C   0  0  0  0  0  1  0  0  0  0  0  0
  184.6950  178.9640  143.1480 C   0  0  2  0  0  0  0  0  0  0  0  0
  185.7130  178.4180  144.1390 C   0  0  0  0  0  0  0  0  0  0  0  0
  186.6240  178.3230  146.3960 C   0  0  0  0  0  3  0  0  0  0  0  0
  185.6530  178.7740  145.4980 C   0  0  0  0  0  3  0  0  0  0  0  0
  186.7900  177.6330  143.6950 C   0  0  0  0  0  3  0  0  0  0  0  0
  187.7620  177.1820  144.5920 C   0  0  0  0  0  3  0  0  0  0  0  0
  187.6810  177.5280  145.9430 C   0  0  0  0  0  0  0  0  0  0  0  0
  188.7030  177.0300  146.9030 C   0  0  0  0  0  2  0  0  0  0  0  0
  190.9910  176.7990  147.2750 C   0  0  0  0  0  1  0  0  0  0  0  0
  189.9870  176.9070  146.2340 N   0  0  0  0  0  2  0  0  0  0  0  0
  185.2400  180.0140  142.3670 O   0  0  0  0  0  0  0  0  0  0  0  0
  185.4880  179.5320  141.1610 O   0  0  0  0  0  1  0  0  0  0  0  0
  1  8  1  6  0  0  0
  1  9  1  0  0  0  0
  2 22  1  6  0  0  0
  2 10  1  0  0  0  0
  3  7  1  6  0  0  0
  3  5  1  0  0  0  0
  4  8  1  6  0  0  0
  4  1  1  0  0  0  0
  4  3  1  0  0  0  0
  5 10  1  6  0  0  0
  7  2  1  0  0  0  0
  9  5  1  0  0  0  0
  9  6  1  1  0  0  0
 11 14  2  0  0  0  0
 11 15  1  0  0  0  0
 12 19  2  0  0  0  0
 12 17  1  0  0  0  0
 13 18  1  0  0  0  0
 14 12  1  0  0  0  0
 15 20  2  0  0  0  0
 15 19  1  0  0  0  0
 16 13  2  0  0  0  0
 16 14  1  0  0  0  0
 18 17  2  0  0  0  0
 19  8  1  0  0  0  0
 22 21  1  6  0  0  0
 22 23  1  0  0  0  0
 23 25  1  0  0  0  0
 25 24  2  0  0  0  0
 26 23  2  0  0  0  0
 26 27  1  0  0  0  0
 27 28  2  0  0  0  0
 28 24  1  0  0  0  0
 28 29  1  0  0  0  0
 31 29  1  0  0  0  0
 31 30  1  0  0  0  0
 32 22  1  0  0  0  0
 33 32  1  0  0  0  0
M  END
>  <MODEL>
1

>  <REMARK>
 VINA RESULT:      -7.3      0.000      0.000
  Name = 
  6 active torsions:
  status: ('A' for Active; 'I' for Inactive)
    1  A    between atoms: C_1  and  C_32
    2  A    between atoms: C_3  and  C_32
    3  A    between atoms: C_19  and  C_27
    4  A    between atoms: C_19  and  N_31
    5  A    between atoms: N_22  and  C_29
    6  A    between atoms: O_24  and  C_32
                            x       y       z     vdW  Elec       q    Type
                         _______ _______ _______ _____ _____    ______ ____

>  <TORSDO>
F 6

$$$$
=
 OpenBabel11042409523D

 33 38  0  0  1  0  0  0  0  0999 V2000
  179.6430  178.2240  142.3270 C   0  0  1  0  0  3  0  0  0  0  0  0
  183.4710  179.6480  143.8740 C   0  0  1  0  0  3  0  0  0  0  0  0
  181.4050  179.5150  142.9180 C   0  0  1  0  0  3  0  0  0  0  0  0
  180.3750  179.3230  141.8770 C   0  0  1  0  0  3  0  0  0  0  0  0
  181.2840  178.7500  143.9430 C   0  0  1  0  0  3  0  0  0  0  0  0
  179.2900  177.7460  144.6550 O   0  0  0  0  0  1  0  0  0  0  0  0
  182.6330  180.1250  142.8210 O   0  0  0  0  0  0  0  0  0  0  0  0
  180.6080  178.0080  141.2000 N   0  0  0  0  0  0  0  0  0  0  0  0
  180.2610  177.7290  143.6540 C   0  0  1  0  0  3  0  0  0  0  0  0
  182.5920  178.6270  144.6400 C   0  0  0  0  0  2  0  0  0  0  0  0
  181.8590  175.4370  138.8090 N   0  0  0  0  0  0  0  0  0  0  0  0
  182.3120  177.5200  139.5090 C   0  0  0  0  0  0  0  0  0  0  0  0
  184.2870  177.7800  137.6580 C   0  0  0  0  0  3  0  0  0  0  0  0
  182.6160  176.4780  138.6620 C   0  0  0  0  0  0  0  0  0  0  0  0
  180.9900  175.8120  139.8840 C   0  0  0  0  0  0  0  0  0  0  0  0
  183.5970  176.6020  137.7350 N   0  0  0  0  0  0  0  0  0  0  0  0
  182.9660  178.7050  139.4480 N   0  0  0  0  0  0  0  0  0  0  0  0
  183.9640  178.8480  138.5260 C   0  0  0  0  0  3  0  0  0  0  0  0
  181.3080  177.1760  140.2840 C   0  0  0  0  0  0  0  0  0  0  0  0
  179.8650  175.2230  140.1190 N   0  0  0  0  0  2  0  0  0  0  0  0
  184.3450  177.7420  142.5330 C   0  0  0  0  0  1  0  0  0  0  0  0
  184.7490  179.0060  143.3040 C   0  0  2  0  0  0  0  0  0  0  0  0
  185.6590  178.6450  144.4710 C   0  0  0  0  0  0  0  0  0  0  0  0
  187.5660  177.4210  145.3630 C   0  0  0  0  0  3  0  0  0  0  0  0
  186.7680  177.8020  144.2810 C   0  0  0  0  0  3  0  0  0  0  0  0
  185.3460  179.0650  145.7750 C   0  0  0  0  0  3  0  0  0  0  0  0
  186.1430  178.6830  146.8570 C   0  0  0  0  0  3  0  0  0  0  0  0
  187.2540  177.8600  146.6520 C   0  0  0  0  0  0  0  0  0  0  0  0
  188.1150  177.4720  147.8010 C   0  0  0  0  0  2  0  0  0  0  0  0
  190.3980  177.1090  147.5060 C   0  0  0  0  0  1  0  0  0  0  0  0
  189.0940  176.4870  147.3720 N   0  0  0  0  0  2  0  0  0  0  0  0
  185.3680  179.9320  142.4290 O   0  0  0  0  0  0  0  0  0  0  0  0
  185.7250  179.2780  141.3370 O   0  0  0  0  0  1  0  0  0  0  0  0
  1  8  1  6  0  0  0
  1  9  1  0  0  0  0
  2 22  1  6  0  0  0
  2 10  1  0  0  0  0
  3  7  1  6  0  0  0
  3  5  1  0  0  0  0
  4  8  1  6  0  0  0
  4  1  1  0  0  0  0
  4  3  1  0  0  0  0
  5 10  1  6  0  0  0
  7  2  1  0  0  0  0
  9  5  1  0  0  0  0
  9  6  1  1  0  0  0
 11 15  1  0  0  0  0
 12 19  2  0  0  0  0
 13 16  2  0  0  0  0
 13 18  1  0  0  0  0
 14 11  2  0  0  0  0
 14 12  1  0  0  0  0
 15 20  2  0  0  0  0
 15 19  1  0  0  0  0
 16 14  1  0  0  0  0
 17 12  1  0  0  0  0
 18 17  2  0  0  0  0
 19  8  1  0  0  0  0
 22 21  1  6  0  0  0
 22 23  1  0  0  0  0
 23 26  1  0  0  0  0
 24 28  2  0  0  0  0
 25 23  2  0  0  0  0
 25 24  1  0  0  0  0
 26 27  2  0  0  0  0
 28 27  1  0  0  0  0
 28 29  1  0  0  0  0
 31 30  1  0  0  0  0
 31 29  1  0  0  0  0
 32 22  1  0  0  0  0
 33 32  1  0  0  0  0
M  END
>  <MODEL>
2

>  <REMARK>
 VINA RESULT:      -7.2      0.948      2.210
  Name = 
  6 active torsions:
  status: ('A' for Active; 'I' for Inactive)
    1  A    between atoms: C_1  and  C_32
    2  A    between atoms: C_3  and  C_32
    3  A    between atoms: C_19  and  C_27
    4  A    between atoms: C_19  and  N_31
    5  A    between atoms: N_22  and  C_29
    6  A    between atoms: O_24  and  C_32
                            x       y       z     vdW  Elec       q    Type
                         _______ _______ _______ _____ _____    ______ ____

>  <TORSDO>
F 6

$$$$
=
 OpenBabel11042409523D

 33 38  0  0  1  0  0  0  0  0999 V2000
  187.7850  177.4460  136.4870 C   0  0  1  0  0  3  0  0  0  0  0  0
  188.6750  178.6910  140.5770 C   0  0  1  0  0  3  0  0  0  0  0  0
  188.5080  178.5810  138.3060 C   0  0  1  0  0  3  0  0  0  0  0  0
  188.8520  178.2390  136.9110 C   0  0  1  0  0  3  0  0  0  0  0  0
  187.3460  178.1860  138.6870 C   0  0  1  0  0  3  0  0  0  0  0  0
  185.5330  177.7450  137.2690 O   0  0  0  0  0  1  0  0  0  0  0  0
  189.3370  178.9470  139.3390 O   0  0  0  0  0  0  0  0  0  0  0  0
  189.0780  176.7630  136.8150 N   0  0  0  0  0  0  0  0  0  0  0  0
  186.7910  177.2860  137.6600 C   0  0  1  0  0  3  0  0  0  0  0  0
  187.3070  178.0870  140.1700 C   0  0  0  0  0  2  0  0  0  0  0  0
  190.6580  173.3900  136.9760 N   0  0  0  0  0  0  0  0  0  0  0  0
  191.1620  175.5560  137.2710 C   0  0  0  0  0  0  0  0  0  0  0  0
  193.7830  174.9570  137.6790 C   0  0  0  0  0  3  0  0  0  0  0  0
  191.5900  174.2490  137.2490 C   0  0  0  0  0  0  0  0  0  0  0  0
  189.4900  174.2070  136.8390 C   0  0  0  0  0  0  0  0  0  0  0  0
  192.8950  173.9420  137.4480 N   0  0  0  0  0  0  0  0  0  0  0  0
  192.0190  176.5850  137.4810 N   0  0  0  0  0  0  0  0  0  0  0  0
  193.3370  176.2980  137.6930 C   0  0  0  0  0  3  0  0  0  0  0  0
  189.8740  175.6000  137.0150 C   0  0  0  0  0  0  0  0  0  0  0  0
  188.4220  173.8130  136.2290 N   0  0  0  0  0  2  0  0  0  0  0  0
  189.4150  176.3280  140.8250 C   0  0  0  0  0  1  0  0  0  0  0  0
  189.5020  177.7280  141.4480 C   0  0  2  0  0  0  0  0  0  0  0  0
  188.9040  177.7220  142.8480 C   0  0  0  0  0  0  0  0  0  0  0  0
  189.1500  178.0260  145.2530 C   0  0  0  0  0  3  0  0  0  0  0  0
  189.6800  178.0920  143.9610 C   0  0  0  0  0  3  0  0  0  0  0  0
  187.5990  177.2480  143.0640 C   0  0  0  0  0  3  0  0  0  0  0  0
  187.0690  177.1820  144.3540 C   0  0  0  0  0  3  0  0  0  0  0  0
  187.8440  177.5690  145.4510 C   0  0  0  0  0  0  0  0  0  0  0  0
  187.2720  177.5200  146.8230 C   0  0  0  0  0  2  0  0  0  0  0  0
  188.2410  178.0520  148.8730 C   0  0  0  0  0  1  0  0  0  0  0  0
  188.2970  177.1130  147.7690 N   0  0  0  0  0  2  0  0  0  0  0  0
  190.8480  178.1720  141.4590 O   0  0  0  0  0  0  0  0  0  0  0  0
  191.5850  177.2390  140.8810 O   0  0  0  0  0  1  0  0  0  0  0  0
  1  8  1  1  0  0  0
  1  4  1  0  0  0  0
  1  9  1  0  0  0  0
  2 22  1  1  0  0  0
  3  5  1  0  0  0  0
  3  7  1  1  0  0  0
  4  8  1  1  0  0  0
  4  3  1  0  0  0  0
  5 10  1  1  0  0  0
  7  2  1  0  0  0  0
  8 19  1  0  0  0  0
  9  6  1  6  0  0  0
  9  5  1  0  0  0  0
 10  2  1  0  0  0  0
 11 14  2  0  0  0  0
 12 17  1  0  0  0  0
 13 18  1  0  0  0  0
 14 12  1  0  0  0  0
 14 16  1  0  0  0  0
 15 11  1  0  0  0  0
 15 19  1  0  0  0  0
 16 13  2  0  0  0  0
 17 18  2  0  0  0  0
 19 12  2  0  0  0  0
 20 15  2  0  0  0  0
 22 21  1  6  0  0  0
 22 32  1  0  0  0  0
 22 23  1  0  0  0  0
 23 26  2  0  0  0  0
 23 25  1  0  0  0  0
 24 28  1  0  0  0  0
 25 24  2  0  0  0  0
 26 27  1  0  0  0  0
 27 28  2  0  0  0  0
 28 29  1  0  0  0  0
 29 31  1  0  0  0  0
 31 30  1  0  0  0  0
 33 32  1  0  0  0  0
M  END
>  <MODEL>
3

>  <REMARK>
 VINA RESULT:      -7.1      5.929      8.082
  Name = 
  6 active torsions:
  status: ('A' for Active; 'I' for Inactive)
    1  A    between atoms: C_1  and  C_32
    2  A    between atoms: C_3  and  C_32
    3  A    between atoms: C_19  and  C_27
    4  A    between atoms: C_19  and  N_31
    5  A    between atoms: N_22  and  C_29
    6  A    between atoms: O_24  and  C_32
                            x       y       z     vdW  Elec       q    Type
                         _______ _______ _______ _____ _____    ______ ____

>  <TORSDO>
F 6

$$$$
=
 OpenBabel11042409523D

 33 38  0  0  1  0  0  0  0  0999 V2000
  183.3560  178.4490  139.2270 C   0  0  1  0  0  3  0  0  0  0  0  0
  186.4790  178.9960  142.2310 C   0  0  1  0  0  3  0  0  0  0  0  0
  184.8980  179.3390  140.6230 C   0  0  1  0  0  3  0  0  0  0  0  0
  184.3020  179.4730  139.2790 C   0  0  1  0  0  3  0  0  0  0  0  0
  184.3410  178.4580  141.3740 C   0  0  1  0  0  3  0  0  0  0  0  0
  182.1390  177.6880  141.1530 O   0  0  0  0  0  1  0  0  0  0  0  0
  186.1300  179.7530  141.0730 O   0  0  0  0  0  0  0  0  0  0  0  0
  184.6380  178.2550  138.4760 N   0  0  0  0  0  0  0  0  0  0  0  0
  183.4000  177.6670  140.5590 C   0  0  1  0  0  3  0  0  0  0  0  0
  185.2890  178.0240  142.4350 C   0  0  0  0  0  2  0  0  0  0  0  0
  186.4230  175.8800  136.2250 N   0  0  0  0  0  0  0  0  0  0  0  0
  186.7640  177.7910  137.3490 C   0  0  0  0  0  0  0  0  0  0  0  0
  189.2490  178.0530  136.2750 C   0  0  0  0  0  3  0  0  0  0  0  0
  187.2560  176.8370  136.4880 C   0  0  0  0  0  0  0  0  0  0  0  0
  185.2790  176.2140  137.0180 C   0  0  0  0  0  0  0  0  0  0  0  0
  188.4920  176.9620  135.9460 N   0  0  0  0  0  0  0  0  0  0  0  0
  187.4820  178.8910  137.6820 N   0  0  0  0  0  0  0  0  0  0  0  0
  188.7340  179.0330  137.1550 C   0  0  0  0  0  3  0  0  0  0  0  0
  185.5420  177.4700  137.7060 C   0  0  0  0  0  0  0  0  0  0  0  0
  184.1010  175.7340  136.7940 N   0  0  0  0  0  2  0  0  0  0  0  0
  187.5040  176.9250  141.3050 C   0  0  0  0  0  1  0  0  0  0  0  0
  187.8090  178.2520  142.0140 C   0  0  2  0  0  0  0  0  0  0  0  0
  188.4340  177.9910  143.3780 C   0  0  0  0  0  0  0  0  0  0  0  0
  190.3930  177.9050  144.8230 C   0  0  0  0  0  3  0  0  0  0  0  0
  189.8080  178.2050  143.5900 C   0  0  0  0  0  3  0  0  0  0  0  0
  187.6700  177.4340  144.4170 C   0  0  0  0  0  3  0  0  0  0  0  0
  188.2550  177.1340  145.6500 C   0  0  0  0  0  3  0  0  0  0  0  0
  189.6170  177.3680  145.8540 C   0  0  0  0  0  0  0  0  0  0  0  0
  190.2350  177.0700  147.1750 C   0  0  0  0  0  2  0  0  0  0  0  0
  192.0660  175.6540  147.4370 C   0  0  0  0  0  1  0  0  0  0  0  0
  191.6790  176.9940  147.0360 N   0  0  0  0  0  2  0  0  0  0  0  0
  188.6490  179.0550  141.2030 O   0  0  0  0  0  0  0  0  0  0  0  0
  189.2810  178.2540  140.3620 O   0  0  0  0  0  1  0  0  0  0  0  0
  1  8  1  6  0  0  0
  1  4  1  0  0  0  0
  1  9  1  0  0  0  0
  2 22  1  6  0  0  0
  2 10  1  0  0  0  0
  3  7  1  6  0  0  0
  3  5  1  0  0  0  0
  4  8  1  6  0  0  0
  4  3  1  0  0  0  0
  5 10  1  6  0  0  0
  7  2  1  0  0  0  0
  9  6  1  1  0  0  0
  9  5  1  0  0  0  0
 11 14  2  0  0  0  0
 11 15  1  0  0  0  0
 12 17  1  0  0  0  0
 12 19  2  0  0  0  0
 13 18  1  0  0  0  0
 14 12  1  0  0  0  0
 15 19  1  0  0  0  0
 16 13  2  0  0  0  0
 16 14  1  0  0  0  0
 18 17  2  0  0  0  0
 19  8  1  0  0  0  0
 20 15  2  0  0  0  0
 22 21  1  6  0  0  0
 22 23  1  0  0  0  0
 23 25  2  0  0  0  0
 23 26  1  0  0  0  0
 24 28  2  0  0  0  0
 25 24  1  0  0  0  0
 26 27  2  0  0  0  0
 27 28  1  0  0  0  0
 28 29  1  0  0  0  0
 31 29  1  0  0  0  0
 31 30  1  0  0  0  0
 32 22  1  0  0  0  0
 33 32  1  0  0  0  0
M  END
>  <MODEL>
4

>  <REMARK>
 VINA RESULT:      -6.7      3.509      4.914
  Name = 
  6 active torsions:
  status: ('A' for Active; 'I' for Inactive)
    1  A    between atoms: C_1  and  C_32
    2  A    between atoms: C_3  and  C_32
    3  A    between atoms: C_19  and  C_27
    4  A    between atoms: C_19  and  N_31
    5  A    between atoms: N_22  and  C_29
    6  A    between atoms: O_24  and  C_32
                            x       y       z     vdW  Elec       q    Type
                         _______ _______ _______ _____ _____    ______ ____

>  <TORSDO>
F 6

$$$$
=
 OpenBabel11042409523D

 33 38  0  0  1  0  0  0  0  0999 V2000
  183.0720  178.2760  138.8880 C   0  0  1  0  0  3  0  0  0  0  0  0
  186.0690  179.0240  141.9750 C   0  0  1  0  0  3  0  0  0  0  0  0
  184.5180  179.2640  140.3200 C   0  0  1  0  0  3  0  0  0  0  0  0
  183.9560  179.3530  138.9570 C   0  0  1  0  0  3  0  0  0  0  0  0
  183.9920  178.3570  141.0620 C   0  0  1  0  0  3  0  0  0  0  0  0
  181.8450  177.4590  140.7850 O   0  0  0  0  0  1  0  0  0  0  0  0
  185.7110  179.7520  140.8000 O   0  0  0  0  0  0  0  0  0  0  0  0
  184.3840  178.1510  138.1750 N   0  0  0  0  0  0  0  0  0  0  0  0
  183.1220  177.5070  140.2280 C   0  0  1  0  0  3  0  0  0  0  0  0
  184.9320  177.9860  142.1530 C   0  0  0  0  0  2  0  0  0  0  0  0
  187.3480  176.7610  136.3920 N   0  0  0  0  0  0  0  0  0  0  0  0
  185.3600  176.1200  137.2130 C   0  0  0  0  0  0  0  0  0  0  0  0
  185.8740  173.5210  136.6000 C   0  0  0  0  0  3  0  0  0  0  0  0
  186.5380  175.7690  136.5920 C   0  0  0  0  0  0  0  0  0  0  0  0
  186.6200  177.8860  136.8980 C   0  0  0  0  0  0  0  0  0  0  0  0
  186.8020  174.4750  136.2860 N   0  0  0  0  0  0  0  0  0  0  0  0
  184.4280  175.1970  137.5510 N   0  0  0  0  0  0  0  0  0  0  0  0
  184.6700  173.8880  137.2440 C   0  0  0  0  0  3  0  0  0  0  0  0
  185.3530  177.4140  137.4390 C   0  0  0  0  0  0  0  0  0  0  0  0
  187.1830  179.0030  137.2190 N   0  0  0  0  0  2  0  0  0  0  0  0
  187.2710  177.1270  140.9010 C   0  0  0  0  0  1  0  0  0  0  0  0
  187.4460  178.3570  141.8030 C   0  0  2  0  0  0  0  0  0  0  0  0
  187.9440  177.9370  143.1780 C   0  0  0  0  0  0  0  0  0  0  0  0
  187.4950  177.3320  145.4950 C   0  0  0  0  0  3  0  0  0  0  0  0
  187.0370  177.6560  144.2150 C   0  0  0  0  0  3  0  0  0  0  0  0
  189.3200  177.9240  143.4650 C   0  0  0  0  0  3  0  0  0  0  0  0
  189.7780  177.6000  144.7440 C   0  0  0  0  0  3  0  0  0  0  0  0
  188.8660  177.3050  145.7610 C   0  0  0  0  0  0  0  0  0  0  0  0
  189.3560  176.9390  147.1180 C   0  0  0  0  0  2  0  0  0  0  0  0
  188.5050  178.2510  148.8440 C   0  0  0  0  0  1  0  0  0  0  0  0
  188.2700  177.0420  148.0770 N   0  0  0  0  0  2  0  0  0  0  0  0
  188.3250  179.2860  141.1930 O   0  0  0  0  0  0  0  0  0  0  0  0
  188.8470  178.7050  140.1260 O   0  0  0  0  0  1  0  0  0  0  0  0
  1  8  1  6  0  0  0
  1  4  1  0  0  0  0
  1  9  1  0  0  0  0
  2 22  1  6  0  0  0
  2 10  1  0  0  0  0
  3  7  1  6  0  0  0
  3  5  1  0  0  0  0
  4  8  1  6  0  0  0
  4  3  1  0  0  0  0
  5 10  1  6  0  0  0
  7  2  1  0  0  0  0
  9  6  1  1  0  0  0
  9  5  1  0  0  0  0
 11 14  2  0  0  0  0
 11 15  1  0  0  0  0
 12 19  2  0  0  0  0
 12 17  1  0  0  0  0
 13 18  1  0  0  0  0
 14 12  1  0  0  0  0
 15 20  2  0  0  0  0
 15 19  1  0  0  0  0
 16 14  1  0  0  0  0
 16 13  2  0  0  0  0
 18 17  2  0  0  0  0
 19  8  1  0  0  0  0
 22 21  1  6  0  0  0
 22 23  1  0  0  0  0
 23 26  2  0  0  0  0
 23 25  1  0  0  0  0
 24 28  1  0  0  0  0
 25 24  2  0  0  0  0
 26 27  1  0  0  0  0
 27 28  2  0  0  0  0
 28 29  1  0  0  0  0
 29 31  1  0  0  0  0
 31 30  1  0  0  0  0
 32 22  1  0  0  0  0
 33 32  1  0  0  0  0
M  END
>  <MODEL>
5

>  <REMARK>
 VINA RESULT:      -6.5      3.128      4.101
  Name = 
  6 active torsions:
  status: ('A' for Active; 'I' for Inactive)
    1  A    between atoms: C_1  and  C_32
    2  A    between atoms: C_3  and  C_32
    3  A    between atoms: C_19  and  C_27
    4  A    between atoms: C_19  and  N_31
    5  A    between atoms: N_22  and  C_29
    6  A    between atoms: O_24  and  C_32
                            x       y       z     vdW  Elec       q    Type
                         _______ _______ _______ _____ _____    ______ ____

>  <TORSDO>
F 6

$$$$
=
 OpenBabel11042409523D

 33 38  0  0  1  0  0  0  0  0999 V2000
  189.3380  177.4620  139.4010 C   0  0  1  0  0  3  0  0  0  0  0  0
  185.3520  177.9250  137.6770 C   0  0  1  0  0  3  0  0  0  0  0  0
  187.4820  178.2900  138.4080 C   0  0  1  0  0  3  0  0  0  0  0  0
  188.5870  178.6350  139.3250 C   0  0  1  0  0  3  0  0  0  0  0  0
  187.5700  177.1260  137.8710 C   0  0  1  0  0  3  0  0  0  0  0  0
  189.5580  175.9210  137.5710 O   0  0  0  0  0  1  0  0  0  0  0  0
  186.2350  178.8590  138.2980 O   0  0  0  0  0  0  0  0  0  0  0  0
  188.4620  177.8090  140.5670 N   0  0  0  0  0  0  0  0  0  0  0  0
  188.6570  176.3810  138.5320 C   0  0  1  0  0  3  0  0  0  0  0  0
  186.2260  176.6690  137.4280 C   0  0  0  0  0  2  0  0  0  0  0  0
  187.5110  176.7380  144.0080 N   0  0  0  0  0  0  0  0  0  0  0  0
  186.8600  178.1490  142.3900 C   0  0  0  0  0  0  0  0  0  0  0  0
  184.9310  179.1980  143.9930 C   0  0  0  0  0  3  0  0  0  0  0  0
  186.6730  177.6650  143.6640 C   0  0  0  0  0  0  0  0  0  0  0  0
  188.3100  176.5660  142.8320 C   0  0  0  0  0  0  0  0  0  0  0  0
  185.7150  178.1850  144.4700 N   0  0  0  0  0  0  0  0  0  0  0  0
  186.1110  179.1620  141.8930 N   0  0  0  0  0  0  0  0  0  0  0  0
  185.1330  179.6950  142.6850 C   0  0  0  0  0  3  0  0  0  0  0  0
  187.8640  177.5180  141.8250 C   0  0  0  0  0  0  0  0  0  0  0  0
  189.4730  176.0050  142.8460 N   0  0  0  0  0  2  0  0  0  0  0  0
  183.6230  176.2260  138.2410 C   0  0  0  0  0  1  0  0  0  0  0  0
  184.1470  177.6270  138.5870 C   0  0  2  0  0  0  0  0  0  0  0  0
  183.0760  178.6740  138.3130 C   0  0  0  0  0  0  0  0  0  0  0  0
  181.1770  179.4640  137.0080 C   0  0  0  0  0  3  0  0  0  0  0  0
  182.1210  178.4750  137.3010 C   0  0  0  0  0  3  0  0  0  0  0  0
  183.0880  179.9010  138.9970 C   0  0  0  0  0  3  0  0  0  0  0  0
  182.1450  180.8900  138.7050 C   0  0  0  0  0  3  0  0  0  0  0  0
  181.1900  180.6730  137.7090 C   0  0  0  0  0  0  0  0  0  0  0  0
  180.1720  181.7170  137.4130 C   0  0  0  0  0  2  0  0  0  0  0  0
  180.8060  183.3290  135.8550 C   0  0  0  0  0  1  0  0  0  0  0  0
  180.8200  183.0090  137.2700 N   0  0  0  0  0  2  0  0  0  0  0  0
  184.5790  177.6650  139.9360 O   0  0  0  0  0  0  0  0  0  0  0  0
  183.5990  177.1900  140.6860 O   0  0  0  0  0  1  0  0  0  0  0  0
  1  8  1  1  0  0  0
  2  7  1  0  0  0  0
  2 22  1  1  0  0  0
  3  7  1  1  0  0  0
  3  4  1  0  0  0  0
  4  1  1  0  0  0  0
  4  8  1  1  0  0  0
  5 10  1  1  0  0  0
  5  3  1  0  0  0  0
  5  9  1  0  0  0  0
  8 19  1  0  0  0  0
  9  6  1  6  0  0  0
  9  1  1  0  0  0  0
 10  2  1  0  0  0  0
 12 14  1  0  0  0  0
 13 16  2  0  0  0  0
 14 11  2  0  0  0  0
 14 16  1  0  0  0  0
 15 20  2  0  0  0  0
 15 11  1  0  0  0  0
 17 12  1  0  0  0  0
 17 18  2  0  0  0  0
 18 13  1  0  0  0  0
 19 12  2  0  0  0  0
 19 15  1  0  0  0  0
 22 21  1  6  0  0  0
 22 32  1  0  0  0  0
 23 22  1  0  0  0  0
 23 26  1  0  0  0  0
 24 25  1  0  0  0  0
 24 28  2  0  0  0  0
 25 23  2  0  0  0  0
 27 26  2  0  0  0  0
 28 27  1  0  0  0  0
 29 28  1  0  0  0  0
 30 31  1  0  0  0  0
 31 29  1  0  0  0  0
 32 33  1  0  0  0  0
M  END
>  <MODEL>
6

>  <REMARK>
 VINA RESULT:      -6.5      3.832      8.867
  Name = 
  6 active torsions:
  status: ('A' for Active; 'I' for Inactive)
    1  A    between atoms: C_1  and  C_32
    2  A    between atoms: C_3  and  C_32
    3  A    between atoms: C_19  and  C_27
    4  A    between atoms: C_19  and  N_31
    5  A    between atoms: N_22  and  C_29
    6  A    between atoms: O_24  and  C_32
                            x       y       z     vdW  Elec       q    Type
                         _______ _______ _______ _____ _____    ______ ____

>  <TORSDO>
F 6

$$$$
=
 OpenBabel11042409523D

 33 38  0  0  1  0  0  0  0  0999 V2000
  180.4660  174.9870  136.9640 C   0  0  1  0  0  3  0  0  0  0  0  0
  181.3490  178.2160  139.7680 C   0  0  1  0  0  3  0  0  0  0  0  0
  180.5150  176.9710  138.0490 C   0  0  1  0  0  3  0  0  0  0  0  0
  180.4160  176.3570  136.7100 C   0  0  1  0  0  3  0  0  0  0  0  0
  180.4990  176.1380  139.0270 C   0  0  1  0  0  3  0  0  0  0  0  0
  179.5710  173.9860  138.9570 O   0  0  0  0  0  1  0  0  0  0  0  0
  180.9480  178.2280  138.3980 O   0  0  0  0  0  0  0  0  0  0  0  0
  181.6950  175.6410  136.4090 N   0  0  0  0  0  0  0  0  0  0  0  0
  180.6240  174.7710  138.4870 C   0  0  1  0  0  3  0  0  0  0  0  0
  181.1230  176.7540  140.2280 C   0  0  0  0  0  2  0  0  0  0  0  0
  185.1610  176.2670  135.1870 N   0  0  0  0  0  0  0  0  0  0  0  0
  184.0110  174.8420  136.4830 C   0  0  0  0  0  0  0  0  0  0  0  0
  186.2960  173.5570  137.2060 C   0  0  0  0  0  3  0  0  0  0  0  0
  185.2250  175.2370  135.9700 C   0  0  0  0  0  0  0  0  0  0  0  0
  183.7600  176.5620  135.1480 C   0  0  0  0  0  0  0  0  0  0  0  0
  186.3690  174.6030  136.3290 N   0  0  0  0  0  0  0  0  0  0  0  0
  183.9060  173.8200  137.3670 N   0  0  0  0  0  0  0  0  0  0  0  0
  185.0450  173.1620  137.7350 C   0  0  0  0  0  3  0  0  0  0  0  0
  183.0640  175.6280  136.0220 C   0  0  0  0  0  0  0  0  0  0  0  0
  183.2910  177.7070  134.7790 N   0  0  0  0  0  2  0  0  0  0  0  0
  183.6860  177.6720  139.1050 C   0  0  0  0  0  1  0  0  0  0  0  0
  182.8190  178.6520  139.9090 C   0  0  2  0  0  0  0  0  0  0  0  0
  183.1900  178.5990  141.3840 C   0  0  0  0  0  0  0  0  0  0  0  0
  182.6340  179.0130  143.7200 C   0  0  0  0  0  3  0  0  0  0  0  0
  182.2720  179.0020  142.3700 C   0  0  0  0  0  3  0  0  0  0  0  0
  184.4910  178.2440  141.7800 C   0  0  0  0  0  3  0  0  0  0  0  0
  184.8540  178.2550  143.1290 C   0  0  0  0  0  3  0  0  0  0  0  0
  183.9260  178.6410  144.1000 C   0  0  0  0  0  0  0  0  0  0  0  0
  184.3060  178.6310  145.5390 C   0  0  0  0  0  2  0  0  0  0  0  0
  186.2590  178.2880  146.7620 C   0  0  0  0  0  1  0  0  0  0  0  0
  185.6810  179.0740  145.6880 N   0  0  0  0  0  2  0  0  0  0  0  0
  182.9550  179.9620  139.3860 O   0  0  0  0  0  0  0  0  0  0  0  0
  184.2310  180.1500  139.0970 O   0  0  0  0  0  1  0  0  0  0  0  0
  1  8  1  6  0  0  0
  1  9  1  0  0  0  0
  2 22  1  6  0  0  0
  2 10  1  0  0  0  0
  3  7  1  6  0  0  0
  3  5  1  0  0  0  0
  4  8  1  6  0  0  0
  4  1  1  0  0  0  0
  4  3  1  0  0  0  0
  5 10  1  1  0  0  0
  7  2  1  0  0  0  0
  9  6  1  1  0  0  0
  9  5  1  0  0  0  0
 11 14  2  0  0  0  0
 12 17  1  0  0  0  0
 13 18  1  0  0  0  0
 14 16  1  0  0  0  0
 14 12  1  0  0  0  0
 15 11  1  0  0  0  0
 15 19  1  0  0  0  0
 16 13  2  0  0  0  0
 17 18  2  0  0  0  0
 19  8  1  0  0  0  0
 19 12  2  0  0  0  0
 20 15  2  0  0  0  0
 22 21  1  6  0  0  0
 22 23  1  0  0  0  0
 23 26  2  0  0  0  0
 23 25  1  0  0  0  0
 24 28  1  0  0  0  0
 25 24  2  0  0  0  0
 26 27  1  0  0  0  0
 27 28  2  0  0  0  0
 28 29  1  0  0  0  0
 29 31  1  0  0  0  0
 31 30  1  0  0  0  0
 32 22  1  0  0  0  0
 33 32  1  0  0  0  0
M  END
>  <MODEL>
7

>  <REMARK>
 VINA RESULT:      -6.4      3.116      4.971
  Name = 
  6 active torsions:
  status: ('A' for Active; 'I' for Inactive)
    1  A    between atoms: C_1  and  C_32
    2  A    between atoms: C_3  and  C_32
    3  A    between atoms: C_19  and  C_27
    4  A    between atoms: C_19  and  N_31
    5  A    between atoms: N_22  and  C_29
    6  A    between atoms: O_24  and  C_32
                            x       y       z     vdW  Elec       q    Type
                         _______ _______ _______ _____ _____    ______ ____

>  <TORSDO>
F 6

$$$$
=
 OpenBabel11042409523D

 33 38  0  0  1  0  0  0  0  0999 V2000
  191.1500  174.1980  135.3670 C   0  0  1  0  0  3  0  0  0  0  0  0
  190.7720  176.5690  139.0140 C   0  0  1  0  0  3  0  0  0  0  0  0
  191.1340  174.8820  137.5230 C   0  0  1  0  0  3  0  0  0  0  0  0
  190.8460  173.7300  136.6450 C   0  0  1  0  0  3  0  0  0  0  0  0
  191.6630  175.8920  136.9310 C   0  0  1  0  0  3  0  0  0  0  0  0
  192.8840  175.8030  134.9330 O   0  0  0  0  0  1  0  0  0  0  0  0
  190.6320  175.1700  138.7700 O   0  0  0  0  0  0  0  0  0  0  0  0
  189.7040  174.0800  135.7430 N   0  0  0  0  0  0  0  0  0  0  0  0
  191.6060  175.6710  135.4740 C   0  0  1  0  0  3  0  0  0  0  0  0
  191.4210  177.1280  137.7220 C   0  0  0  0  0  2  0  0  0  0  0  0
  185.9860  174.0150  135.4840 N   0  0  0  0  0  0  0  0  0  0  0  0
  187.7230  175.3980  135.1600 C   0  0  0  0  0  0  0  0  0  0  0  0
  186.0510  177.4660  134.5940 C   0  0  0  0  0  3  0  0  0  0  0  0
  186.3590  175.2120  135.1560 C   0  0  0  0  0  0  0  0  0  0  0  0
  187.2270  173.3310  135.6920 C   0  0  0  0  0  0  0  0  0  0  0  0
  185.5190  176.2390  134.8770 N   0  0  0  0  0  0  0  0  0  0  0  0
  188.2800  176.6050  134.8990 N   0  0  0  0  0  0  0  0  0  0  0  0
  187.4520  177.6520  134.6070 C   0  0  0  0  0  3  0  0  0  0  0  0
  188.3170  174.2750  135.4940 C   0  0  0  0  0  0  0  0  0  0  0  0
  187.3220  172.2330  136.3670 N   0  0  0  0  0  2  0  0  0  0  0  0
  189.4210  178.6430  138.7530 C   0  0  0  0  0  1  0  0  0  0  0  0
  189.4030  177.2110  139.3050 C   0  0  2  0  0  0  0  0  0  0  0  0
  189.1980  177.2280  140.8130 C   0  0  0  0  0  0  0  0  0  0  0  0
  189.7820  176.4160  143.0350 C   0  0  0  0  0  3  0  0  0  0  0  0
  190.0110  176.4490  141.6560 C   0  0  0  0  0  3  0  0  0  0  0  0
  188.1280  177.9410  141.3790 C   0  0  0  0  0  3  0  0  0  0  0  0
  187.8980  177.9080  142.7570 C   0  0  0  0  0  3  0  0  0  0  0  0
  188.7240  177.1440  143.5860 C   0  0  0  0  0  0  0  0  0  0  0  0
  188.4930  177.1270  145.0560 C   0  0  0  0  0  2  0  0  0  0  0  0
  189.6410  176.8700  147.0670 C   0  0  0  0  0  1  0  0  0  0  0  0
  189.7210  177.4750  145.7500 N   0  0  0  0  0  2  0  0  0  0  0  0
  188.4010  176.4510  138.6520 O   0  0  0  0  0  0  0  0  0  0  0  0
  187.5620  177.2980  138.0790 O   0  0  0  0  0  1  0  0  0  0  0  0
  1  9  1  0  0  0  0
  1  8  1  6  0  0  0
  1  4  1  0  0  0  0
  2 22  1  6  0  0  0
  3  7  1  6  0  0  0
  4  8  1  6  0  0  0
  4  3  1  0  0  0  0
  5  3  1  0  0  0  0
  5 10  1  6  0  0  0
  7  2  1  0  0  0  0
  9  6  1  1  0  0  0
  9  5  1  0  0  0  0
 10  2  1  0  0  0  0
 11 15  1  0  0  0  0
 12 19  2  0  0  0  0
 13 18  1  0  0  0  0
 13 16  2  0  0  0  0
 14 12  1  0  0  0  0
 14 11  2  0  0  0  0
 15 20  2  0  0  0  0
 16 14  1  0  0  0  0
 17 12  1  0  0  0  0
 18 17  2  0  0  0  0
 19 15  1  0  0  0  0
 19  8  1  0  0  0  0
 22 21  1  6  0  0  0
 22 23  1  0  0  0  0
 23 26  2  0  0  0  0
 23 25  1  0  0  0  0
 24 28  1  0  0  0  0
 25 24  2  0  0  0  0
 26 27  1  0  0  0  0
 27 28  2  0  0  0  0
 28 29  1  0  0  0  0
 29 31  1  0  0  0  0
 31 30  1  0  0  0  0
 32 22  1  0  0  0  0
 33 32  1  0  0  0  0
M  END
>  <MODEL>
8

>  <REMARK>
 VINA RESULT:      -6.3      6.312      8.765
  Name = 
  6 active torsions:
  status: ('A' for Active; 'I' for Inactive)
    1  A    between atoms: C_1  and  C_32
    2  A    between atoms: C_3  and  C_32
    3  A    between atoms: C_19  and  C_27
    4  A    between atoms: C_19  and  N_31
    5  A    between atoms: N_22  and  C_29
    6  A    between atoms: O_24  and  C_32
                            x       y       z     vdW  Elec       q    Type
                         _______ _______ _______ _____ _____    ______ ____

>  <TORSDO>
F 6

$$$$
=
 OpenBabel11042409523D

 33 38  0  0  1  0  0  0  0  0999 V2000
  191.6610  176.0250  137.3830 C   0  0  1  0  0  3  0  0  0  0  0  0
  188.0440  174.7730  135.2810 C   0  0  1  0  0  3  0  0  0  0  0  0
  190.0310  175.7420  135.8400 C   0  0  1  0  0  3  0  0  0  0  0  0
  190.9780  176.7320  136.3940 C   0  0  1  0  0  3  0  0  0  0  0  0
  190.1650  174.5510  136.3020 C   0  0  1  0  0  3  0  0  0  0  0  0
  192.1290  173.6740  137.2330 O   0  0  0  0  0  1  0  0  0  0  0  0
  188.8430  175.9520  135.1810 O   0  0  0  0  0  0  0  0  0  0  0  0
  190.6150  177.0060  137.8200 N   0  0  0  0  0  0  0  0  0  0  0  0
  191.0970  174.5880  137.4440 C   0  0  1  0  0  3  0  0  0  0  0  0
  188.8990  173.7920  136.1220 C   0  0  0  0  0  2  0  0  0  0  0  0
  188.0910  178.8280  139.8700 N   0  0  0  0  0  0  0  0  0  0  0  0
  189.7330  177.3140  140.0850 C   0  0  0  0  0  0  0  0  0  0  0  0
  189.1540  176.9650  142.7190 C   0  0  0  0  0  3  0  0  0  0  0  0
  188.7270  178.0400  140.6800 C   0  0  0  0  0  0  0  0  0  0  0  0
  188.7660  178.6300  138.6240 C   0  0  0  0  0  0  0  0  0  0  0  0
  188.4310  177.8700  141.9920 N   0  0  0  0  0  0  0  0  0  0  0  0
  190.4570  176.3990  140.7740 N   0  0  0  0  0  0  0  0  0  0  0  0
  190.1810  176.2170  142.0990 C   0  0  0  0  0  3  0  0  0  0  0  0
  189.8030  177.6250  138.8110 C   0  0  0  0  0  0  0  0  0  0  0  0
  188.2470  178.9430  137.4830 N   0  0  0  0  0  2  0  0  0  0  0  0
  186.9680  175.6060  137.3660 C   0  0  0  0  0  1  0  0  0  0  0  0
  186.6910  175.0870  135.9470 C   0  0  2  0  0  0  0  0  0  0  0  0
  185.8800  173.8010  136.0030 C   0  0  0  0  0  0  0  0  0  0  0  0
  184.8700  171.8890  134.8810 C   0  0  0  0  0  3  0  0  0  0  0  0
  185.6660  173.0360  134.8420 C   0  0  0  0  0  3  0  0  0  0  0  0
  185.2450  173.4090  137.1940 C   0  0  0  0  0  3  0  0  0  0  0  0
  184.4480  172.2630  137.2340 C   0  0  0  0  0  3  0  0  0  0  0  0
  184.2580  171.5020  136.0770 C   0  0  0  0  0  0  0  0  0  0  0  0
  183.4280  170.2680  136.1240 C   0  0  0  0  0  2  0  0  0  0  0  0
  181.2700  171.0640  135.7540 C   0  0  0  0  0  1  0  0  0  0  0  0
  182.3690  170.3500  135.1330 N   0  0  0  0  0  2  0  0  0  0  0  0
  186.0330  176.0840  135.1850 O   0  0  0  0  0  0  0  0  0  0  0  0
  185.6910  177.0610  136.0090 O   0  0  0  0  0  1  0  0  0  0  0  0
  1  9  1  0  0  0  0
  1  8  1  1  0  0  0
  2 22  1  1  0  0  0
  2 10  1  0  0  0  0
  3  7  1  1  0  0  0
  3  5  1  0  0  0  0
  3  4  1  0  0  0  0
  4  1  1  0  0  0  0
  4  8  1  1  0  0  0
  5 10  1  1  0  0  0
  5  9  1  0  0  0  0
  7  2  1  0  0  0  0
  8 19  1  0  0  0  0
  9  6  1  6  0  0  0
 11 14  2  0  0  0  0
 12 14  1  0  0  0  0
 12 17  1  0  0  0  0
 14 16  1  0  0  0  0
 15 19  1  0  0  0  0
 15 11  1  0  0  0  0
 16 13  2  0  0  0  0
 17 18  2  0  0  0  0
 18 13  1  0  0  0  0
 19 12  2  0  0  0  0
 20 15  2  0  0  0  0
 22 23  1  0  0  0  0
 22 21  1  1  0  0  0
 23 26  1  0  0  0  0
 24 28  2  0  0  0  0
 25 24  1  0  0  0  0
 25 23  2  0  0  0  0
 26 27  2  0  0  0  0
 28 29  1  0  0  0  0
 28 27  1  0  0  0  0
 31 30  1  0  0  0  0
 31 29  1  0  0  0  0
 32 22  1  0  0  0  0
 32 33  1  0  0  0  0
M  END
>  <MODEL>
9

>  <REMARK>
 VINA RESULT:      -6.3      6.384     10.788
  Name = 
  6 active torsions:
  status: ('A' for Active; 'I' for Inactive)
    1  A    between atoms: C_1  and  C_32
    2  A    between atoms: C_3  and  C_32
    3  A    between atoms: C_19  and  C_27
    4  A    between atoms: C_19  and  N_31
    5  A    between atoms: N_22  and  C_29
    6  A    between atoms: O_24  and  C_32
                            x       y       z     vdW  Elec       q    Type
                         _______ _______ _______ _____ _____    ______ ____

>  <TORSDO>
F 6

$$$$
