=
 OpenBabel11032421243D

 34 35  0  0  1  0  0  0  0  0999 V2000
  185.8440  178.8190  139.9670 N   0  0  0  0  0  0  0  0  0  0  0  0
  184.9460  178.9390  142.8520 C   0  0  1  0  0  3  0  0  0  0  0  0
  186.2470  178.5310  142.3280 N   0  0  0  0  0  2  0  0  0  0  0  0
  186.6510  178.5010  140.9430 C   0  0  0  0  0  0  0  0  0  0  0  0
  183.8490  178.1800  142.1680 C   0  0  0  0  0  3  0  0  0  0  0  0
  183.6240  178.3410  140.8640 C   0  0  0  0  0  0  0  0  0  0  0  0
  184.4720  179.3060  140.0900 C   0  0  0  0  0  2  0  0  0  0  0  0
  188.6680  177.2200  141.4940 N   0  0  0  0  0  0  0  0  0  0  0  0
  189.9260  176.7710  141.2370 C   0  0  0  0  0  0  0  0  0  0  0  0
  188.6610  178.4330  139.4490 C   0  0  0  0  0  3  0  0  0  0  0  0
  188.0150  178.0430  140.6290 C   0  0  1  0  0  3  0  0  0  0  0  0
  189.9180  177.9850  139.1920 N   0  0  0  0  0  0  0  0  0  0  0  0
  190.5640  177.1610  140.0590 C   0  0  0  0  0  2  0  0  0  0  0  0
  190.5900  175.9010  142.1550 N   0  0  0  0  0  2  0  0  0  0  0  0
  190.4860  176.0790  143.5440 N   0  0  0  0  0  2  0  0  0  0  0  0
  191.6270  176.8770  143.9650 C   0  0  0  0  0  2  0  0  0  0  0  0
  191.3330  177.5050  145.3280 C   0  0  0  0  0  2  0  0  0  0  0  0
  190.8450  176.5430  146.3240 N   0  0  0  0  0  0  0  0  0  0  0  0
  191.9590  176.0760  147.1360 C   0  0  0  0  0  1  0  0  0  0  0  0
  189.8770  177.1800  147.2070 C   0  0  0  0  0  2  0  0  0  0  0  0
  188.5630  177.3780  146.4760 C   0  0  0  0  0  2  0  0  0  0  0  0
  187.6240  178.0600  147.3470 N   0  0  0  0  0  2  0  0  0  0  0  0
  188.0940  177.8600  148.7050 C   0  0  0  0  0  1  0  0  0  0  0  0
  183.6010  178.5030  144.7830 F   0  0  0  0  0  0  0  0  0  0  0  0
  185.6840  177.6450  144.7050 F   0  0  0  0  0  0  0  0  0  0  0  0
  185.3950  179.8540  145.0060 F   0  0  0  0  0  0  0  0  0  0  0  0
  184.9010  178.7320  144.3640 C   0  0  0  0  0  0  0  0  0  0  0  0
  182.9210  176.5770  139.2220 N   0  0  0  0  0  2  0  0  0  0  0  0
  182.5670  177.5740  140.1840 C   0  0  0  0  0  0  0  0  0  0  0  0
  181.3520  177.7940  140.4490 O   0  0  0  0  0  0  0  0  0  0  0  0
  182.5640  174.3640  137.3660 C   0  0  0  0  0  1  0  0  0  0  0  0
  180.8190  174.9330  139.3710 O   0  0  0  0  0  1  0  0  0  0  0  0
  180.8030  176.6180  137.3690 O   0  0  0  0  0  0  0  0  0  0  0  0
  181.7240  175.6160  138.3730 P   0  0  1  0  0  0  0  0  0  0  0  0
  1  7  1  0  0  0  0
  1  4  2  0  0  0  0
  2 27  1  1  0  0  0
  3  2  1  0  0  0  0
  4  3  1  0  0  0  0
  5  2  1  0  0  0  0
  6  5  2  0  0  0  0
  7  6  1  0  0  0  0
  9  8  2  0  0  0  0
  9 14  1  0  0  0  0
 10 11  1  0  0  0  0
 11  4  1  6  0  0  0
 11  8  1  0  0  0  0
 12 10  2  0  0  0  0
 12 13  1  0  0  0  0
 13  9  1  0  0  0  0
 14 15  1  0  0  0  0
 15 16  1  0  0  0  0
 16 17  1  0  0  0  0
 17 18  1  0  0  0  0
 18 19  1  0  0  0  0
 18 20  1  0  0  0  0
 21 20  1  0  0  0  0
 21 22  1  0  0  0  0
 22 23  1  0  0  0  0
 27 25  1  0  0  0  0
 27 24  1  0  0  0  0
 27 26  1  0  0  0  0
 28 29  1  0  0  0  0
 29 30  2  0  0  0  0
 29  6  1  0  0  0  0
 33 34  2  0  0  0  0
 34 31  1  6  0  0  0
 34 28  1  0  0  0  0
 34 32  1  0  0  0  0
M  END
>  <MODEL>
1

>  <REMARK>
 VINA RESULT:      -7.4      0.000      0.000
  Name = 
  12 active torsions:
  status: ('A' for Active; 'I' for Inactive)
    1  A    between atoms: N_3  and  C_26
    2  A    between atoms: N_4  and  P_28
    3  A    between atoms: N_5  and  C_19
    4  A    between atoms: N_5  and  C_25
    5  A    between atoms: C_6  and  N_22
    6  A    between atoms: C_8  and  C_31
    7  A    between atoms: C_9  and  C_33
    8  A    between atoms: C_19  and  C_26
    9  A    between atoms: C_21  and  C_23
   10  A    between atoms: N_22  and  N_30
   11  A    between atoms: C_25  and  C_27
   12  A    between atoms: C_27  and  N_30
                            x       y       z     vdW  Elec       q    Type
                         _______ _______ _______ _____ _____    ______ ____

>  <TORSDO>
F 12

$$$$
=
 OpenBabel11032421243D

 34 35  0  0  1  0  0  0  0  0999 V2000
  184.5400  179.3730  140.8570 N   0  0  0  0  0  0  0  0  0  0  0  0
  182.1740  177.7350  139.9250 C   0  0  1  0  0  3  0  0  0  0  0  0
  182.6920  177.8820  141.2840 N   0  0  0  0  0  2  0  0  0  0  0  0
  183.8150  178.6870  141.6990 C   0  0  0  0  0  0  0  0  0  0  0  0
  183.2760  177.3370  138.9900 C   0  0  0  0  0  3  0  0  0  0  0  0
  184.2960  178.1610  138.7520 C   0  0  0  0  0  0  0  0  0  0  0  0
  184.3200  179.5040  139.4200 C   0  0  0  0  0  2  0  0  0  0  0  0
  185.4210  178.2840  143.5070 N   0  0  0  0  0  0  0  0  0  0  0  0
  185.7970  178.2740  144.8150 C   0  0  0  0  0  0  0  0  0  0  0  0
  183.2670  179.0910  144.1110 C   0  0  0  0  0  3  0  0  0  0  0  0
  184.1780  178.6840  143.1270 C   0  0  1  0  0  3  0  0  0  0  0  0
  183.6420  179.0800  145.4170 N   0  0  0  0  0  0  0  0  0  0  0  0
  184.8870  178.6820  145.7900 C   0  0  0  0  0  2  0  0  0  0  0  0
  187.1110  177.8580  145.1920 N   0  0  0  0  0  2  0  0  0  0  0  0
  187.4550  177.6320  146.5340 N   0  0  0  0  0  2  0  0  0  0  0  0
  188.8460  177.2120  146.5610 C   0  0  0  0  0  2  0  0  0  0  0  0
  189.4250  177.2740  145.1470 C   0  0  0  0  0  2  0  0  0  0  0  0
  190.8430  177.6550  145.1110 N   0  0  0  0  0  0  0  0  0  0  0  0
  191.6450  176.6010  145.7150 C   0  0  0  0  0  1  0  0  0  0  0  0
  191.2830  177.8240  143.7320 C   0  0  0  0  0  2  0  0  0  0  0  0
  190.0820  178.0030  142.8240 C   0  0  0  0  0  2  0  0  0  0  0  0
  190.2600  177.2060  141.6240 N   0  0  0  0  0  2  0  0  0  0  0  0
  189.1330  177.4990  140.7580 C   0  0  0  0  0  1  0  0  0  0  0  0
  180.2170  176.8830  141.0070 F   0  0  0  0  0  0  0  0  0  0  0  0
  180.2870  176.8860  138.7540 F   0  0  0  0  0  0  0  0  0  0  0  0
  181.5560  175.4340  139.9100 F   0  0  0  0  0  0  0  0  0  0  0  0
  181.0370  176.7170  139.9040 C   0  0  0  0  0  0  0  0  0  0  0  0
  186.6330  178.4740  137.8900 N   0  0  0  0  0  2  0  0  0  0  0  0
  185.3940  177.7590  137.8580 C   0  0  0  0  0  0  0  0  0  0  0  0
  185.2450  176.7880  137.0660 O   0  0  0  0  0  0  0  0  0  0  0  0
  188.5920  176.4040  137.3050 C   0  0  0  0  0  1  0  0  0  0  0  0
  187.5540  178.0600  135.4160 O   0  0  0  0  0  0  0  0  0  0  0  0
  189.2340  179.1820  137.0800 O   0  0  0  0  0  1  0  0  0  0  0  0
  187.9910  178.0560  136.8620 P   0  0  1  0  0  0  0  0  0  0  0  0
  1  4  2  0  0  0  0
  2 27  1  1  0  0  0
  2  3  1  0  0  0  0
  3  4  1  0  0  0  0
  5  2  1  0  0  0  0
  6  5  2  0  0  0  0
  6  7  1  0  0  0  0
  7  1  1  0  0  0  0
  8  9  2  0  0  0  0
  9 14  1  0  0  0  0
  9 13  1  0  0  0  0
 10 12  2  0  0  0  0
 11  4  1  6  0  0  0
 11  8  1  0  0  0  0
 11 10  1  0  0  0  0
 12 13  1  0  0  0  0
 14 15  1  0  0  0  0
 15 16  1  0  0  0  0
 17 16  1  0  0  0  0
 18 17  1  0  0  0  0
 18 19  1  0  0  0  0
 20 18  1  0  0  0  0
 21 20  1  0  0  0  0
 22 21  1  0  0  0  0
 23 22  1  0  0  0  0
 25 27  1  0  0  0  0
 27 26  1  0  0  0  0
 27 24  1  0  0  0  0
 29 28  1  0  0  0  0
 29  6  1  0  0  0  0
 30 29  2  0  0  0  0
 32 34  2  0  0  0  0
 34 33  1  0  0  0  0
 34 31  1  1  0  0  0
 34 28  1  0  0  0  0
M  END
>  <MODEL>
2

>  <REMARK>
 VINA RESULT:      -6.9      3.416      5.479
  Name = 
  12 active torsions:
  status: ('A' for Active; 'I' for Inactive)
    1  A    between atoms: N_3  and  C_26
    2  A    between atoms: N_4  and  P_28
    3  A    between atoms: N_5  and  C_19
    4  A    between atoms: N_5  and  C_25
    5  A    between atoms: C_6  and  N_22
    6  A    between atoms: C_8  and  C_31
    7  A    between atoms: C_9  and  C_33
    8  A    between atoms: C_19  and  C_26
    9  A    between atoms: C_21  and  C_23
   10  A    between atoms: N_22  and  N_30
   11  A    between atoms: C_25  and  C_27
   12  A    between atoms: C_27  and  N_30
                            x       y       z     vdW  Elec       q    Type
                         _______ _______ _______ _____ _____    ______ ____

>  <TORSDO>
F 12

$$$$
=
 OpenBabel11032421243D

 34 35  0  0  1  0  0  0  0  0999 V2000
  187.7180  176.4090  143.4350 N   0  0  0  0  0  0  0  0  0  0  0  0
  190.1590  176.5620  145.2150 C   0  0  1  0  0  3  0  0  0  0  0  0
  188.8430  177.1600  145.4320 N   0  0  0  0  0  2  0  0  0  0  0  0
  187.6920  177.0540  144.5710 C   0  0  0  0  0  0  0  0  0  0  0  0
  190.6800  176.9350  143.8600 C   0  0  0  0  0  3  0  0  0  0  0  0
  190.0610  176.5180  142.7560 C   0  0  0  0  0  0  0  0  0  0  0  0
  188.8410  175.6540  142.8850 C   0  0  0  0  0  2  0  0  0  0  0  0
  185.4910  178.0030  144.0510 N   0  0  0  0  0  0  0  0  0  0  0  0
  184.3350  178.6360  144.3870 C   0  0  0  0  0  0  0  0  0  0  0  0
  186.2500  178.1540  146.3000 C   0  0  0  0  0  3  0  0  0  0  0  0
  186.4570  177.7480  144.9750 C   0  0  0  0  0  0  0  0  0  0  0  0
  185.0950  178.7870  146.6350 N   0  0  0  0  0  0  0  0  0  0  0  0
  184.1330  179.0360  145.7080 C   0  0  0  0  0  3  0  0  0  0  0  0
  183.3300  178.8860  143.4020 N   0  0  0  0  0  2  0  0  0  0  0  0
  181.9630  178.8630  143.7240 N   0  0  0  0  0  2  0  0  0  0  0  0
  181.2250  179.1410  142.5020 C   0  0  0  0  0  2  0  0  0  0  0  0
  181.9770  178.5540  141.3080 C   0  0  0  0  0  2  0  0  0  0  0  0
  181.4620  179.0100  140.0100 N   0  0  0  0  0  0  0  0  0  0  0  0
  180.4720  180.0560  140.2190 C   0  0  0  0  0  1  0  0  0  0  0  0
  182.5430  179.5650  139.2070 C   0  0  0  0  0  2  0  0  0  0  0  0
  183.8080  178.7530  139.4100 C   0  0  0  0  0  2  0  0  0  0  0  0
  184.8840  179.6310  139.8300 N   0  0  0  0  0  2  0  0  0  0  0  0
  185.7490  178.8470  140.6920 C   0  0  0  0  0  1  0  0  0  0  0  0
  190.4220  177.4570  147.4190 F   0  0  0  0  0  0  0  0  0  0  0  0
  191.9080  175.9240  146.6950 F   0  0  0  0  0  0  0  0  0  0  0  0
  191.9460  178.0060  145.8470 F   0  0  0  0  0  0  0  0  0  0  0  0
  191.1220  176.9980  146.3170 C   0  0  0  0  0  0  0  0  0  0  0  0
  190.0380  176.2590  140.2590 N   0  0  0  0  0  2  0  0  0  0  0  0
  190.5550  176.9070  141.4250 C   0  0  0  0  0  0  0  0  0  0  0  0
  191.4290  177.8100  141.3110 O   0  0  0  0  0  0  0  0  0  0  0  0
  189.9530  175.4200  137.4740 C   0  0  0  0  0  1  0  0  0  0  0  0
  190.0250  178.0230  138.2530 O   0  0  0  0  0  0  0  0  0  0  0  0
  192.2570  176.6990  138.5850 O   0  0  0  0  0  1  0  0  0  0  0  0
  190.5670  176.6670  138.6380 P   0  0  1  0  0  0  0  0  0  0  0  0
  1  4  2  0  0  0  0
  2  3  1  0  0  0  0
  2 27  1  1  0  0  0
  4 11  1  0  0  0  0
  4  3  1  0  0  0  0
  5  2  1  0  0  0  0
  6  7  1  0  0  0  0
  6  5  2  0  0  0  0
  7  1  1  0  0  0  0
  8  9  2  0  0  0  0
  8 11  1  0  0  0  0
  9 13  1  0  0  0  0
 10 12  1  0  0  0  0
 11 10  2  0  0  0  0
 13 12  2  0  0  0  0
 14 15  1  0  0  0  0
 14  9  1  0  0  0  0
 16 15  1  0  0  0  0
 17 16  1  0  0  0  0
 18 19  1  0  0  0  0
 18 17  1  0  0  0  0
 20 21  1  0  0  0  0
 20 18  1  0  0  0  0
 21 22  1  0  0  0  0
 22 23  1  0  0  0  0
 26 27  1  0  0  0  0
 27 25  1  0  0  0  0
 27 24  1  0  0  0  0
 28 29  1  0  0  0  0
 29  6  1  0  0  0  0
 30 29  2  0  0  0  0
 32 34  2  0  0  0  0
 33 34  1  0  0  0  0
 34 31  1  6  0  0  0
 34 28  1  0  0  0  0
M  END
>  <MODEL>
3

>  <REMARK>
 VINA RESULT:      -6.9      4.322      8.280
  Name = 
  12 active torsions:
  status: ('A' for Active; 'I' for Inactive)
    1  A    between atoms: N_3  and  C_26
    2  A    between atoms: N_4  and  P_28
    3  A    between atoms: N_5  and  C_19
    4  A    between atoms: N_5  and  C_25
    5  A    between atoms: C_6  and  N_22
    6  A    between atoms: C_8  and  C_31
    7  A    between atoms: C_9  and  C_33
    8  A    between atoms: C_19  and  C_26
    9  A    between atoms: C_21  and  C_23
   10  A    between atoms: N_22  and  N_30
   11  A    between atoms: C_25  and  C_27
   12  A    between atoms: C_27  and  N_30
                            x       y       z     vdW  Elec       q    Type
                         _______ _______ _______ _____ _____    ______ ____

>  <TORSDO>
F 12

$$$$
=
 OpenBabel11032421243D

 34 35  0  0  1  0  0  0  0  0999 V2000
  192.2530  177.4260  140.7460 N   0  0  0  0  0  0  0  0  0  0  0  0
  189.9360  177.6040  138.8110 C   0  0  1  0  0  3  0  0  0  0  0  0
  189.8900  177.5000  140.2680 N   0  0  0  0  0  2  0  0  0  0  0  0
  191.0160  177.4340  141.1660 C   0  0  0  0  0  0  0  0  0  0  0  0
  190.7960  176.5170  138.2400 C   0  0  0  0  0  3  0  0  0  0  0  0
  192.1020  176.4770  138.5010 C   0  0  0  0  0  0  0  0  0  0  0  0
  192.7070  177.5460  139.3640 C   0  0  0  0  0  2  0  0  0  0  0  0
  189.4610  177.2840  143.0560 N   0  0  0  0  0  0  0  0  0  0  0  0
  189.1700  177.1740  144.3800 C   0  0  0  0  0  0  0  0  0  0  0  0
  191.7880  177.2420  143.5420 C   0  0  0  0  0  3  0  0  0  0  0  0
  190.7450  177.3200  142.6100 C   0  0  0  0  0  0  0  0  0  0  0  0
  191.4970  177.1320  144.8660 N   0  0  0  0  0  0  0  0  0  0  0  0
  190.2110  177.0950  145.3040 C   0  0  0  0  0  3  0  0  0  0  0  0
  187.8130  177.1300  144.8260 N   0  0  0  0  0  2  0  0  0  0  0  0
  187.2910  178.1030  145.6930 N   0  0  0  0  0  2  0  0  0  0  0  0
  185.8540  177.8940  145.7670 C   0  0  0  0  0  2  0  0  0  0  0  0
  185.1430  178.9290  144.8950 C   0  0  0  0  0  2  0  0  0  0  0  0
  184.4630  178.3470  143.7310 N   0  0  0  0  0  0  0  0  0  0  0  0
  183.1860  179.0170  143.5290 C   0  0  0  0  0  1  0  0  0  0  0  0
  185.2670  178.5360  142.5320 C   0  0  0  0  0  2  0  0  0  0  0  0
  184.3750  178.5380  141.3050 C   0  0  0  0  0  2  0  0  0  0  0  0
  184.8960  179.4770  140.3300 N   0  0  0  0  0  2  0  0  0  0  0  0
  184.5360  178.9620  139.0220 C   0  0  0  0  0  1  0  0  0  0  0  0
  188.1450  176.2390  138.0010 F   0  0  0  0  0  0  0  0  0  0  0  0
  187.6370  178.1230  139.1300 F   0  0  0  0  0  0  0  0  0  0  0  0
  188.4740  178.2590  137.0470 F   0  0  0  0  0  0  0  0  0  0  0  0
  188.5230  177.5500  138.2350 C   0  0  0  0  0  0  0  0  0  0  0  0
  194.3550  175.5850  137.8470 N   0  0  0  0  0  2  0  0  0  0  0  0
  192.9430  175.3940  137.9660 C   0  0  0  0  0  0  0  0  0  0  0  0
  192.4210  174.2990  137.6150 O   0  0  0  0  0  0  0  0  0  0  0  0
  195.3300  172.8800  138.2890 C   0  0  0  0  0  1  0  0  0  0  0  0
  195.0130  173.9720  135.8210 O   0  0  0  0  0  0  0  0  0  0  0  0
  197.0160  174.9230  137.2100 O   0  0  0  0  0  1  0  0  0  0  0  0
  195.4270  174.3440  137.2250 P   0  0  1  0  0  0  0  0  0  0  0  0
  1  4  2  0  0  0  0
  2 27  1  6  0  0  0
  2  3  1  0  0  0  0
  3  4  1  0  0  0  0
  4 11  1  0  0  0  0
  5  6  2  0  0  0  0
  5  2  1  0  0  0  0
  6  7  1  0  0  0  0
  7  1  1  0  0  0  0
  8  9  2  0  0  0  0
  9 14  1  0  0  0  0
  9 13  1  0  0  0  0
 10 12  1  0  0  0  0
 11  8  1  0  0  0  0
 11 10  2  0  0  0  0
 12 13  2  0  0  0  0
 14 15  1  0  0  0  0
 15 16  1  0  0  0  0
 17 16  1  0  0  0  0
 18 17  1  0  0  0  0
 19 18  1  0  0  0  0
 20 18  1  0  0  0  0
 21 20  1  0  0  0  0
 22 21  1  0  0  0  0
 23 22  1  0  0  0  0
 24 27  1  0  0  0  0
 26 27  1  0  0  0  0
 27 25  1  0  0  0  0
 28 29  1  0  0  0  0
 29  6  1  0  0  0  0
 30 29  2  0  0  0  0
 32 34  2  0  0  0  0
 33 34  1  0  0  0  0
 34 28  1  0  0  0  0
 34 31  1  1  0  0  0
M  END
>  <MODEL>
4

>  <REMARK>
 VINA RESULT:      -6.6      5.723      8.482
  Name = 
  12 active torsions:
  status: ('A' for Active; 'I' for Inactive)
    1  A    between atoms: N_3  and  C_26
    2  A    between atoms: N_4  and  P_28
    3  A    between atoms: N_5  and  C_19
    4  A    between atoms: N_5  and  C_25
    5  A    between atoms: C_6  and  N_22
    6  A    between atoms: C_8  and  C_31
    7  A    between atoms: C_9  and  C_33
    8  A    between atoms: C_19  and  C_26
    9  A    between atoms: C_21  and  C_23
   10  A    between atoms: N_22  and  N_30
   11  A    between atoms: C_25  and  C_27
   12  A    between atoms: C_27  and  N_30
                            x       y       z     vdW  Elec       q    Type
                         _______ _______ _______ _____ _____    ______ ____

>  <TORSDO>
F 12

$$$$
=
 OpenBabel11032421243D

 34 35  0  0  1  0  0  0  0  0999 V2000
  187.8960  176.3420  143.3860 N   0  0  0  0  0  0  0  0  0  0  0  0
  190.3200  176.5600  145.1820 C   0  0  1  0  0  3  0  0  0  0  0  0
  188.9920  177.1360  145.3830 N   0  0  0  0  0  2  0  0  0  0  0  0
  187.8500  176.9980  144.5140 C   0  0  0  0  0  0  0  0  0  0  0  0
  190.8450  176.9280  143.8260 C   0  0  0  0  0  3  0  0  0  0  0  0
  190.2420  176.4880  142.7230 C   0  0  0  0  0  0  0  0  0  0  0  0
  189.0370  175.6020  142.8530 C   0  0  0  0  0  2  0  0  0  0  0  0
  185.7360  178.1020  143.9420 N   0  0  0  0  0  0  0  0  0  0  0  0
  184.5690  178.7250  144.2600 C   0  0  0  0  0  0  0  0  0  0  0  0
  186.2730  177.8850  146.2480 C   0  0  0  0  0  3  0  0  0  0  0  0
  186.5990  177.6740  144.9020 C   0  0  0  0  0  0  0  0  0  0  0  0
  185.1070  178.5070  146.5660 N   0  0  0  0  0  0  0  0  0  0  0  0
  184.2480  178.9310  145.6020 C   0  0  0  0  0  3  0  0  0  0  0  0
  183.6730  179.1590  143.2350 N   0  0  0  0  0  2  0  0  0  0  0  0
  183.6240  178.5260  141.9830 N   0  0  0  0  0  2  0  0  0  0  0  0
  184.7540  179.0110  141.2070 C   0  0  0  0  0  2  0  0  0  0  0  0
  184.3570  179.1060  139.7340 C   0  0  0  0  0  2  0  0  0  0  0  0
  185.4760  178.8780  138.8100 N   0  0  0  0  0  0  0  0  0  0  0  0
  186.6580  178.4890  139.5640 C   0  0  0  0  0  1  0  0  0  0  0  0
  185.1530  177.7980  137.8860 C   0  0  0  0  0  2  0  0  0  0  0  0
  186.4260  177.1190  137.4200 C   0  0  0  0  0  2  0  0  0  0  0  0
  186.1110  175.7920  136.9220 N   0  0  0  0  0  2  0  0  0  0  0  0
  186.9540  175.5730  135.7620 C   0  0  0  0  0  1  0  0  0  0  0  0
  190.5590  177.3300  147.4350 F   0  0  0  0  0  0  0  0  0  0  0  0
  192.1780  176.0230  146.5660 F   0  0  0  0  0  0  0  0  0  0  0  0
  191.9600  178.1480  145.8660 F   0  0  0  0  0  0  0  0  0  0  0  0
  191.2680  177.0260  146.2850 C   0  0  0  0  0  0  0  0  0  0  0  0
  190.2240  176.2170  140.2270 N   0  0  0  0  0  2  0  0  0  0  0  0
  190.7370  176.8710  141.3910 C   0  0  0  0  0  0  0  0  0  0  0  0
  191.6100  177.7760  141.2750 O   0  0  0  0  0  0  0  0  0  0  0  0
  190.2170  175.3230  137.4580 C   0  0  0  0  0  1  0  0  0  0  0  0
  190.1580  177.9410  138.1870 O   0  0  0  0  0  0  0  0  0  0  0  0
  192.4440  176.7280  138.5740 O   0  0  0  0  0  1  0  0  0  0  0  0
  190.7570  176.6190  138.6050 P   0  0  1  0  0  0  0  0  0  0  0  0
  1  4  2  0  0  0  0
  2  3  1  0  0  0  0
  2 27  1  1  0  0  0
  4 11  1  0  0  0  0
  4  3  1  0  0  0  0
  5  2  1  0  0  0  0
  6  7  1  0  0  0  0
  6  5  2  0  0  0  0
  7  1  1  0  0  0  0
  8  9  2  0  0  0  0
  8 11  1  0  0  0  0
  9 13  1  0  0  0  0
 10 12  1  0  0  0  0
 11 10  2  0  0  0  0
 13 12  2  0  0  0  0
 14  9  1  0  0  0  0
 15 14  1  0  0  0  0
 16 15  1  0  0  0  0
 17 16  1  0  0  0  0
 18 19  1  0  0  0  0
 18 17  1  0  0  0  0
 20 18  1  0  0  0  0
 21 20  1  0  0  0  0
 22 21  1  0  0  0  0
 23 22  1  0  0  0  0
 26 27  1  0  0  0  0
 27 25  1  0  0  0  0
 27 24  1  0  0  0  0
 28 29  1  0  0  0  0
 29  6  1  0  0  0  0
 30 29  2  0  0  0  0
 32 34  2  0  0  0  0
 33 34  1  0  0  0  0
 34 31  1  6  0  0  0
 34 28  1  0  0  0  0
M  END
>  <MODEL>
5

>  <REMARK>
 VINA RESULT:      -6.4      4.403      8.144
  Name = 
  12 active torsions:
  status: ('A' for Active; 'I' for Inactive)
    1  A    between atoms: N_3  and  C_26
    2  A    between atoms: N_4  and  P_28
    3  A    between atoms: N_5  and  C_19
    4  A    between atoms: N_5  and  C_25
    5  A    between atoms: C_6  and  N_22
    6  A    between atoms: C_8  and  C_31
    7  A    between atoms: C_9  and  C_33
    8  A    between atoms: C_19  and  C_26
    9  A    between atoms: C_21  and  C_23
   10  A    between atoms: N_22  and  N_30
   11  A    between atoms: C_25  and  C_27
   12  A    between atoms: C_27  and  N_30
                            x       y       z     vdW  Elec       q    Type
                         _______ _______ _______ _____ _____    ______ ____

>  <TORSDO>
F 12

$$$$
=
 OpenBabel11032421243D

 34 35  0  0  1  0  0  0  0  0999 V2000
  184.6740  179.3800  140.6480 N   0  0  0  0  0  0  0  0  0  0  0  0
  182.5350  177.5830  139.4910 C   0  0  1  0  0  3  0  0  0  0  0  0
  182.9180  177.7440  140.8920 N   0  0  0  0  0  2  0  0  0  0  0  0
  183.9340  178.6250  141.4140 C   0  0  0  0  0  0  0  0  0  0  0  0
  183.7420  177.2860  138.6530 C   0  0  0  0  0  3  0  0  0  0  0  0
  184.7110  178.1900  138.5150 C   0  0  0  0  0  0  0  0  0  0  0  0
  184.5720  179.5200  139.1980 C   0  0  0  0  0  2  0  0  0  0  0  0
  185.3400  178.1370  143.3630 N   0  0  0  0  0  0  0  0  0  0  0  0
  185.5980  178.1260  144.6990 C   0  0  0  0  0  0  0  0  0  0  0  0
  183.2120  179.1210  143.7620 C   0  0  0  0  0  3  0  0  0  0  0  0
  184.1700  178.6240  142.8680 C   0  0  1  0  0  3  0  0  0  0  0  0
  183.4690  179.1090  145.0960 N   0  0  0  0  0  0  0  0  0  0  0  0
  184.6410  178.6230  145.5840 C   0  0  0  0  0  2  0  0  0  0  0  0
  186.8370  177.6170  145.1960 N   0  0  0  0  0  2  0  0  0  0  0  0
  187.3760  178.0570  146.4160 N   0  0  0  0  0  2  0  0  0  0  0  0
  188.8240  177.9900  146.3010 C   0  0  0  0  0  2  0  0  0  0  0  0
  189.2000  177.0990  145.1170 C   0  0  0  0  0  2  0  0  0  0  0  0
  190.4740  177.4680  144.4870 N   0  0  0  0  0  0  0  0  0  0  0  0
  190.4510  178.8790  144.1320 C   0  0  0  0  0  1  0  0  0  0  0  0
  191.5750  177.2540  145.4170 C   0  0  0  0  0  2  0  0  0  0  0  0
  191.9120  175.7770  145.4890 C   0  0  0  0  0  2  0  0  0  0  0  0
  192.3110  175.4360  146.8420 N   0  0  0  0  0  2  0  0  0  0  0  0
  191.7040  176.4230  147.7150 C   0  0  0  0  0  1  0  0  0  0  0  0
  181.1510  176.2900  138.0280 F   0  0  0  0  0  0  0  0  0  0  0  0
  181.9880  175.3000  139.8720 F   0  0  0  0  0  0  0  0  0  0  0  0
  180.3500  176.8270  140.0680 F   0  0  0  0  0  0  0  0  0  0  0  0
  181.4860  176.4810  139.3570 C   0  0  0  0  0  0  0  0  0  0  0  0
  187.2060  177.9890  138.3180 N   0  0  0  0  0  2  0  0  0  0  0  0
  185.9110  177.8900  137.7170 C   0  0  0  0  0  0  0  0  0  0  0  0
  185.8000  177.5450  136.5090 O   0  0  0  0  0  0  0  0  0  0  0  0
  188.6430  175.9300  136.8470 C   0  0  0  0  0  1  0  0  0  0  0  0
  188.8040  178.5790  136.2600 O   0  0  0  0  0  0  0  0  0  0  0  0
  190.0140  177.8520  138.4630 O   0  0  0  0  0  1  0  0  0  0  0  0
  188.6840  177.6440  137.4390 P   0  0  1  0  0  0  0  0  0  0  0  0
  1  4  2  0  0  0  0
  2 27  1  1  0  0  0
  2  3  1  0  0  0  0
  3  4  1  0  0  0  0
  5  2  1  0  0  0  0
  6  5  2  0  0  0  0
  6  7  1  0  0  0  0
  7  1  1  0  0  0  0
  8  9  2  0  0  0  0
  9 14  1  0  0  0  0
  9 13  1  0  0  0  0
 10 12  2  0  0  0  0
 11  4  1  6  0  0  0
 11  8  1  0  0  0  0
 11 10  1  0  0  0  0
 12 13  1  0  0  0  0
 14 15  1  0  0  0  0
 16 15  1  0  0  0  0
 17 16  1  0  0  0  0
 18 17  1  0  0  0  0
 18 20  1  0  0  0  0
 19 18  1  0  0  0  0
 20 21  1  0  0  0  0
 21 22  1  0  0  0  0
 22 23  1  0  0  0  0
 24 27  1  0  0  0  0
 27 25  1  0  0  0  0
 27 26  1  0  0  0  0
 29 28  1  0  0  0  0
 29  6  1  0  0  0  0
 30 29  2  0  0  0  0
 32 34  2  0  0  0  0
 34 31  1  6  0  0  0
 34 28  1  0  0  0  0
 34 33  1  0  0  0  0
M  END
>  <MODEL>
6

>  <REMARK>
 VINA RESULT:      -6.3      3.644      5.487
  Name = 
  12 active torsions:
  status: ('A' for Active; 'I' for Inactive)
    1  A    between atoms: N_3  and  C_26
    2  A    between atoms: N_4  and  P_28
    3  A    between atoms: N_5  and  C_19
    4  A    between atoms: N_5  and  C_25
    5  A    between atoms: C_6  and  N_22
    6  A    between atoms: C_8  and  C_31
    7  A    between atoms: C_9  and  C_33
    8  A    between atoms: C_19  and  C_26
    9  A    between atoms: C_21  and  C_23
   10  A    between atoms: N_22  and  N_30
   11  A    between atoms: C_25  and  C_27
   12  A    between atoms: C_27  and  N_30
                            x       y       z     vdW  Elec       q    Type
                         _______ _______ _______ _____ _____    ______ ____

>  <TORSDO>
F 12

$$$$
=
 OpenBabel11032421243D

 34 35  0  0  1  0  0  0  0  0999 V2000
  187.5620  176.4770  143.5250 N   0  0  0  0  0  0  0  0  0  0  0  0
  189.7690  176.6730  145.5840 C   0  0  1  0  0  3  0  0  0  0  0  0
  188.4310  177.2570  145.6360 N   0  0  0  0  0  2  0  0  0  0  0  0
  187.3920  177.1310  144.6430 C   0  0  0  0  0  0  0  0  0  0  0  0
  190.4460  177.0410  144.2980 C   0  0  0  0  0  3  0  0  0  0  0  0
  189.9680  176.6090  143.1310 C   0  0  0  0  0  0  0  0  0  0  0  0
  188.7510  175.7320  143.1210 C   0  0  0  0  0  2  0  0  0  0  0  0
  185.2570  178.0430  143.8560 N   0  0  0  0  0  0  0  0  0  0  0  0
  184.0620  178.6650  144.0450 C   0  0  0  0  0  0  0  0  0  0  0  0
  185.7450  178.2330  146.1760 C   0  0  0  0  0  3  0  0  0  0  0  0
  186.1110  177.8140  144.8900 C   0  0  0  0  0  0  0  0  0  0  0  0
  184.5510  178.8550  146.3650 N   0  0  0  0  0  0  0  0  0  0  0  0
  183.7020  179.0800  145.3280 C   0  0  0  0  0  3  0  0  0  0  0  0
  183.1760  178.8890  142.9460 N   0  0  0  0  0  2  0  0  0  0  0  0
  183.5670  178.6330  141.6220 N   0  0  0  0  0  2  0  0  0  0  0  0
  182.3710  178.2710  140.8790 C   0  0  0  0  0  2  0  0  0  0  0  0
  181.8260  179.5050  140.1590 C   0  0  0  0  0  2  0  0  0  0  0  0
  180.3780  179.6850  140.3200 N   0  0  0  0  0  0  0  0  0  0  0  0
  180.0460  179.7200  141.7370 C   0  0  0  0  0  1  0  0  0  0  0  0
  179.9580  180.9480  139.7260 C   0  0  0  0  0  2  0  0  0  0  0  0
  180.9570  181.3800  138.6700 C   0  0  0  0  0  2  0  0  0  0  0  0
  180.4650  182.5660  137.9940 N   0  0  0  0  0  2  0  0  0  0  0  0
  180.7490  182.3890  136.5830 C   0  0  0  0  0  1  0  0  0  0  0  0
  191.0490  176.0350  147.5030 F   0  0  0  0  0  0  0  0  0  0  0  0
  191.6700  177.8740  146.3570 F   0  0  0  0  0  0  0  0  0  0  0  0
  189.8080  177.9170  147.6160 F   0  0  0  0  0  0  0  0  0  0  0  0
  190.5890  177.1280  146.7890 C   0  0  0  0  0  0  0  0  0  0  0  0
  190.2050  176.3730  140.6440 N   0  0  0  0  0  2  0  0  0  0  0  0
  190.6140  176.9940  141.8660 C   0  0  0  0  0  0  0  0  0  0  0  0
  191.5230  177.8690  141.8570 O   0  0  0  0  0  0  0  0  0  0  0  0
  190.6830  175.3960  137.9440 C   0  0  0  0  0  1  0  0  0  0  0  0
  190.2520  178.0140  138.5350 O   0  0  0  0  0  0  0  0  0  0  0  0
  192.5730  177.0690  139.2900 O   0  0  0  0  0  1  0  0  0  0  0  0
  190.9190  176.7780  139.0930 P   0  0  1  0  0  0  0  0  0  0  0  0
  1  4  2  0  0  0  0
  2  3  1  0  0  0  0
  2 27  1  1  0  0  0
  4 11  1  0  0  0  0
  4  3  1  0  0  0  0
  5  2  1  0  0  0  0
  6  5  2  0  0  0  0
  7  6  1  0  0  0  0
  7  1  1  0  0  0  0
  8  9  2  0  0  0  0
  8 11  1  0  0  0  0
  9 13  1  0  0  0  0
 10 12  1  0  0  0  0
 11 10  2  0  0  0  0
 13 12  2  0  0  0  0
 14  9  1  0  0  0  0
 15 14  1  0  0  0  0
 16 15  1  0  0  0  0
 17 18  1  0  0  0  0
 17 16  1  0  0  0  0
 18 19  1  0  0  0  0
 20 18  1  0  0  0  0
 21 20  1  0  0  0  0
 22 21  1  0  0  0  0
 23 22  1  0  0  0  0
 25 27  1  0  0  0  0
 27 24  1  0  0  0  0
 27 26  1  0  0  0  0
 28 29  1  0  0  0  0
 29  6  1  0  0  0  0
 30 29  2  0  0  0  0
 32 34  2  0  0  0  0
 34 31  1  6  0  0  0
 34 33  1  0  0  0  0
 34 28  1  0  0  0  0
M  END
>  <MODEL>
7

>  <REMARK>
 VINA RESULT:      -6.3      4.668      8.901
  Name = 
  12 active torsions:
  status: ('A' for Active; 'I' for Inactive)
    1  A    between atoms: N_3  and  C_26
    2  A    between atoms: N_4  and  P_28
    3  A    between atoms: N_5  and  C_19
    4  A    between atoms: N_5  and  C_25
    5  A    between atoms: C_6  and  N_22
    6  A    between atoms: C_8  and  C_31
    7  A    between atoms: C_9  and  C_33
    8  A    between atoms: C_19  and  C_26
    9  A    between atoms: C_21  and  C_23
   10  A    between atoms: N_22  and  N_30
   11  A    between atoms: C_25  and  C_27
   12  A    between atoms: C_27  and  N_30
                            x       y       z     vdW  Elec       q    Type
                         _______ _______ _______ _____ _____    ______ ____

>  <TORSDO>
F 12

$$$$
=
 OpenBabel11032421243D

 34 35  0  0  1  0  0  0  0  0999 V2000
  186.5450  178.6020  141.4230 N   0  0  0  0  0  0  0  0  0  0  0  0
  185.2300  178.9530  144.1240 C   0  0  1  0  0  3  0  0  0  0  0  0
  186.4800  178.2640  143.8100 N   0  0  0  0  0  2  0  0  0  0  0  0
  187.0910  178.1290  142.5110 C   0  0  0  0  0  0  0  0  0  0  0  0
  184.1240  178.4420  143.2510 C   0  0  0  0  0  3  0  0  0  0  0  0
  184.1570  178.6310  141.9330 C   0  0  0  0  0  0  0  0  0  0  0  0
  185.3110  179.3780  141.3310 C   0  0  0  0  0  2  0  0  0  0  0  0
  189.2290  177.6550  141.4080 N   0  0  0  0  0  0  0  0  0  0  0  0
  190.4090  176.9900  141.2890 C   0  0  0  0  0  0  0  0  0  0  0  0
  188.6860  176.3840  143.3430 C   0  0  0  0  0  3  0  0  0  0  0  0
  188.3560  177.3800  142.4140 C   0  0  1  0  0  3  0  0  0  0  0  0
  189.8650  175.7190  143.2240 N   0  0  0  0  0  0  0  0  0  0  0  0
  190.7340  176.0010  142.2170 C   0  0  0  0  0  2  0  0  0  0  0  0
  191.3160  177.3010  140.2290 N   0  0  0  0  0  2  0  0  0  0  0  0
  190.9020  177.3190  138.8880 N   0  0  0  0  0  2  0  0  0  0  0  0
  191.5540  176.2050  138.2170 C   0  0  0  0  0  2  0  0  0  0  0  0
  190.4950  175.2920  137.6000 C   0  0  0  0  0  2  0  0  0  0  0  0
  189.5280  176.0050  136.7540 N   0  0  0  0  0  0  0  0  0  0  0  0
  190.1210  176.2660  135.4510 C   0  0  0  0  0  1  0  0  0  0  0  0
  188.3370  175.1890  136.5540 C   0  0  0  0  0  2  0  0  0  0  0  0
  187.1580  175.8090  137.2780 C   0  0  0  0  0  2  0  0  0  0  0  0
  187.5310  177.1210  137.7740 N   0  0  0  0  0  2  0  0  0  0  0  0
  186.3430  177.9500  137.6930 C   0  0  0  0  0  1  0  0  0  0  0  0
  183.5320  178.9340  145.8090 F   0  0  0  0  0  0  0  0  0  0  0  0
  185.2740  177.5190  146.0200 F   0  0  0  0  0  0  0  0  0  0  0  0
  185.5760  179.7220  146.3520 F   0  0  0  0  0  0  0  0  0  0  0  0
  184.8920  178.7810  145.6030 C   0  0  0  0  0  0  0  0  0  0  0  0
  181.7880  178.7050  141.1050 N   0  0  0  0  0  2  0  0  0  0  0  0
  183.0860  178.1040  141.0710 C   0  0  0  0  0  0  0  0  0  0  0  0
  183.3110  177.1280  140.3030 O   0  0  0  0  0  0  0  0  0  0  0  0
  179.9840  176.4720  140.6280 C   0  0  0  0  0  1  0  0  0  0  0  0
  179.2800  179.0720  140.2590 O   0  0  0  0  0  1  0  0  0  0  0  0
  180.9460  178.1060  138.4860 O   0  0  0  0  0  0  0  0  0  0  0  0
  180.4610  178.1420  140.1060 P   0  0  1  0  0  0  0  0  0  0  0  0
  1  4  2  0  0  0  0
  2 27  1  1  0  0  0
  3  2  1  0  0  0  0
  4  3  1  0  0  0  0
  5  2  1  0  0  0  0
  6  5  2  0  0  0  0
  7  1  1  0  0  0  0
  7  6  1  0  0  0  0
  8 11  1  0  0  0  0
  9  8  2  0  0  0  0
  9 13  1  0  0  0  0
 11  4  1  1  0  0  0
 11 10  1  0  0  0  0
 12 10  2  0  0  0  0
 13 12  1  0  0  0  0
 14  9  1  0  0  0  0
 15 14  1  0  0  0  0
 16 15  1  0  0  0  0
 17 16  1  0  0  0  0
 18 17  1  0  0  0  0
 19 18  1  0  0  0  0
 20 18  1  0  0  0  0
 20 21  1  0  0  0  0
 21 22  1  0  0  0  0
 23 22  1  0  0  0  0
 27 24  1  0  0  0  0
 27 25  1  0  0  0  0
 27 26  1  0  0  0  0
 29 28  1  0  0  0  0
 29  6  1  0  0  0  0
 30 29  2  0  0  0  0
 33 34  2  0  0  0  0
 34 32  1  0  0  0  0
 34 31  1  1  0  0  0
 34 28  1  0  0  0  0
M  END
>  <MODEL>
8

>  <REMARK>
 VINA RESULT:      -6.2      2.495      5.235
  Name = 
  12 active torsions:
  status: ('A' for Active; 'I' for Inactive)
    1  A    between atoms: N_3  and  C_26
    2  A    between atoms: N_4  and  P_28
    3  A    between atoms: N_5  and  C_19
    4  A    between atoms: N_5  and  C_25
    5  A    between atoms: C_6  and  N_22
    6  A    between atoms: C_8  and  C_31
    7  A    between atoms: C_9  and  C_33
    8  A    between atoms: C_19  and  C_26
    9  A    between atoms: C_21  and  C_23
   10  A    between atoms: N_22  and  N_30
   11  A    between atoms: C_25  and  C_27
   12  A    between atoms: C_27  and  N_30
                            x       y       z     vdW  Elec       q    Type
                         _______ _______ _______ _____ _____    ______ ____

>  <TORSDO>
F 12

$$$$
=
 OpenBabel11032421243D

 34 35  0  0  1  0  0  0  0  0999 V2000
  186.2280  178.5480  140.2760 N   0  0  0  0  0  0  0  0  0  0  0  0
  183.7670  179.6810  138.9330 C   0  0  1  0  0  3  0  0  0  0  0  0
  184.0010  179.4720  140.3600 N   0  0  0  0  0  2  0  0  0  0  0  0
  185.1960  178.9440  140.9710 C   0  0  0  0  0  0  0  0  0  0  0  0
  184.0410  178.4200  138.1710 C   0  0  0  0  0  3  0  0  0  0  0  0
  185.2710  177.9100  138.1220 C   0  0  0  0  0  0  0  0  0  0  0  0
  186.3860  178.6260  138.8260 C   0  0  0  0  0  2  0  0  0  0  0  0
  186.2330  178.1180  143.0350 N   0  0  0  0  0  0  0  0  0  0  0  0
  186.2930  177.9720  144.3860 C   0  0  0  0  0  0  0  0  0  0  0  0
  184.2190  179.3660  143.2400 C   0  0  0  0  0  3  0  0  0  0  0  0
  185.2200  178.8030  142.4380 C   0  0  1  0  0  3  0  0  0  0  0  0
  184.2790  179.2200  144.5900 N   0  0  0  0  0  0  0  0  0  0  0  0
  185.2950  178.5360  145.1800 C   0  0  0  0  0  2  0  0  0  0  0  0
  187.3700  177.2550  144.9930 N   0  0  0  0  0  2  0  0  0  0  0  0
  187.8260  177.5670  146.2830 N   0  0  0  0  0  2  0  0  0  0  0  0
  189.2100  177.1300  146.3720 C   0  0  0  0  0  2  0  0  0  0  0  0
  190.0480  177.8750  145.3340 C   0  0  0  0  0  2  0  0  0  0  0  0
  191.3470  177.2450  145.0670 N   0  0  0  0  0  0  0  0  0  0  0  0
  191.7050  176.3780  146.1790 C   0  0  0  0  0  1  0  0  0  0  0  0
  191.2730  176.4290  143.8620 C   0  0  0  0  0  2  0  0  0  0  0  0
  191.4290  177.3050  142.6340 C   0  0  0  0  0  2  0  0  0  0  0  0
  190.3410  177.0410  141.7100 N   0  0  0  0  0  2  0  0  0  0  0  0
  190.9000  177.1240  140.3740 C   0  0  0  0  0  1  0  0  0  0  0  0
  182.3040  181.5480  138.6090 F   0  0  0  0  0  0  0  0  0  0  0  0
  181.8490  179.6220  137.5280 F   0  0  0  0  0  0  0  0  0  0  0  0
  181.5290  179.7610  139.7490 F   0  0  0  0  0  0  0  0  0  0  0  0
  182.3380  180.1670  138.7020 C   0  0  0  0  0  0  0  0  0  0  0  0
  186.8760  176.1610  137.3050 N   0  0  0  0  0  2  0  0  0  0  0  0
  185.5370  176.6560  137.3990 C   0  0  0  0  0  0  0  0  0  0  0  0
  184.5880  176.0170  136.8660 O   0  0  0  0  0  0  0  0  0  0  0  0
  186.3750  173.2960  137.2290 C   0  0  0  0  0  1  0  0  0  0  0  0
  186.8840  174.7860  135.0140 O   0  0  0  0  0  0  0  0  0  0  0  0
  188.9390  174.3870  136.5840 O   0  0  0  0  0  1  0  0  0  0  0  0
  187.2760  174.6730  136.4680 P   0  0  1  0  0  0  0  0  0  0  0  0
  1  4  2  0  0  0  0
  2 27  1  1  0  0  0
  2  3  1  0  0  0  0
  3  4  1  0  0  0  0
  5  2  1  0  0  0  0
  6  5  2  0  0  0  0
  6  7  1  0  0  0  0
  7  1  1  0  0  0  0
  8  9  2  0  0  0  0
  9 14  1  0  0  0  0
  9 13  1  0  0  0  0
 10 12  2  0  0  0  0
 11  4  1  1  0  0  0
 11  8  1  0  0  0  0
 11 10  1  0  0  0  0
 12 13  1  0  0  0  0
 14 15  1  0  0  0  0
 15 16  1  0  0  0  0
 17 16  1  0  0  0  0
 18 17  1  0  0  0  0
 18 19  1  0  0  0  0
 20 18  1  0  0  0  0
 21 20  1  0  0  0  0
 22 21  1  0  0  0  0
 23 22  1  0  0  0  0
 24 27  1  0  0  0  0
 25 27  1  0  0  0  0
 27 26  1  0  0  0  0
 28 29  1  0  0  0  0
 29  6  1  0  0  0  0
 30 29  2  0  0  0  0
 32 34  2  0  0  0  0
 34 33  1  0  0  0  0
 34 31  1  1  0  0  0
 34 28  1  0  0  0  0
M  END
>  <MODEL>
9

>  <REMARK>
 VINA RESULT:      -6.1      3.485      5.184
  Name = 
  12 active torsions:
  status: ('A' for Active; 'I' for Inactive)
    1  A    between atoms: N_3  and  C_26
    2  A    between atoms: N_4  and  P_28
    3  A    between atoms: N_5  and  C_19
    4  A    between atoms: N_5  and  C_25
    5  A    between atoms: C_6  and  N_22
    6  A    between atoms: C_8  and  C_31
    7  A    between atoms: C_9  and  C_33
    8  A    between atoms: C_19  and  C_26
    9  A    between atoms: C_21  and  C_23
   10  A    between atoms: N_22  and  N_30
   11  A    between atoms: C_25  and  C_27
   12  A    between atoms: C_27  and  N_30
                            x       y       z     vdW  Elec       q    Type
                         _______ _______ _______ _____ _____    ______ ____

>  <TORSDO>
F 12

$$$$
