=
 OpenBabel11032421203D

 52 57  0  0  1  0  0  0  0  0999 V2000
  189.3090  177.7950  137.7670 C   0  0  0  0  0  0  0  0  0  0  0  0
  192.5140  175.5880  136.1340 O   0  0  0  0  0  0  0  0  0  0  0  0
  188.5120  178.7620  138.5790 C   0  0  0  0  0  2  0  0  0  0  0  0
  190.2210  174.7180  136.1260 C   0  0  1  0  0  3  0  0  0  0  0  0
  186.2920  177.1890  136.4570 S   0  0  0  0  0  0  0  0  0  0  0  0
  191.1910  175.8340  136.5400 C   0  0  1  0  0  3  0  0  0  0  0  0
  193.3130  176.3130  137.0330 C   0  0  1  0  0  3  0  0  0  0  0  0
  186.8930  175.0150  135.0270 N   0  0  0  0  0  0  0  0  0  0  0  0
  189.0810  177.5430  136.4170 O   0  0  0  0  0  0  0  0  0  0  0  0
  188.1060  175.7040  135.2760 C   0  0  0  0  0  0  0  0  0  0  0  0
  187.9760  176.8010  135.9970 C   0  0  1  0  0  3  0  0  0  0  0  0
  191.1630  176.0650  138.0410 C   0  0  2  0  0  3  0  0  0  0  0  0
  190.9430  177.1050  140.9570 C   0  0  0  0  0  1  0  0  0  0  0  0
  190.2350  177.1810  138.4980 C   0  0  0  0  0  0  0  0  0  0  0  0
  192.5950  176.3880  138.3670 C   0  0  0  0  0  2  0  0  0  0  0  0
  189.0310  178.5420  140.0090 C   0  0  2  0  0  3  0  0  0  0  0  0
  184.6890  175.9480  134.6020 C   0  0  0  0  0  1  0  0  0  0  0  0
  185.7360  175.6350  135.6530 C   0  0  2  0  0  3  0  0  0  0  0  0
  190.1230  177.5890  139.8550 N   0  0  0  0  0  0  0  0  0  0  0  0
  189.4310  175.1200  134.8860 C   0  0  0  0  0  2  0  0  0  0  0  0
  197.8880  173.0910  137.6600 C   0  0  0  0  0  2  0  0  0  0  0  0
  197.1530  174.4400  137.7460 C   0  0  0  0  0  2  0  0  0  0  0  0
  197.8340  174.8620  135.3330 C   0  0  0  0  0  2  0  0  0  0  0  0
  198.0590  172.3550  135.4370 C   0  0  0  0  0  2  0  0  0  0  0  0
  194.5940  175.6390  137.1910 N   0  0  0  0  0  2  0  0  0  0  0  0
  197.2690  172.2300  136.6590 N   0  0  0  0  0  2  0  0  0  0  0  0
  197.6030  173.5490  134.5960 C   0  0  0  0  0  2  0  0  0  0  0  0
  196.8670  174.9990  136.4210 N   0  0  0  0  0  0  0  0  0  0  0  0
  195.4000  176.2370  135.0860 O   0  0  0  0  0  0  0  0  0  0  0  0
  195.6120  175.6540  136.1830 C   0  0  0  0  0  0  0  0  0  0  0  0
  190.8580  173.3700  135.9760 C   0  0  0  0  0  0  0  0  0  0  0  0
  191.9770  173.1190  136.5020 O   0  0  0  0  0  0  0  0  0  0  0  0
  190.1900  172.3540  135.2050 C   0  0  0  0  0  0  0  0  0  0  0  0
  189.6520  171.5320  134.5970 N   0  0  0  0  0  0  0  0  0  0  0  0
  187.9290  177.9330  140.8640 C   0  0  0  0  0  2  0  0  0  0  0  0
  186.8940  178.9760  141.2560 C   0  0  0  0  0  2  0  0  0  0  0  0
  184.5130  178.7820  140.4140 C   0  0  0  0  0  0  0  0  0  0  0  0
  185.5610  178.3880  141.3080 N   0  0  0  0  0  2  0  0  0  0  0  0
  184.7180  179.6550  139.5340 O   0  0  0  0  0  0  0  0  0  0  0  0
  182.9770  176.9530  138.1880 C   0  0  2  0  0  3  0  0  0  0  0  0
  182.0650  176.0040  140.2330 F   0  0  0  0  0  0  0  0  0  0  0  0
  179.4020  176.8630  137.2600 C   0  0  0  0  0  1  0  0  0  0  0  0
  183.1610  178.1470  140.5080 C   0  0  1  0  0  3  0  0  0  0  0  0
  181.7730  177.7440  137.6670 C   0  0  1  0  0  3  0  0  0  0  0  0
  180.5970  178.5090  140.5090 C   0  0  0  0  0  2  0  0  0  0  0  0
  181.7540  177.7480  136.2660 O   0  0  0  0  0  1  0  0  0  0  0  0
  180.4410  177.2860  138.2860 C   0  0  1  0  0  3  0  0  0  0  0  0
  183.0030  175.6770  137.6180 O   0  0  0  0  0  1  0  0  0  0  0  0
  182.1110  180.0670  139.3860 O   0  0  0  0  0  1  0  0  0  0  0  0
  181.9890  179.1520  140.4400 C   0  0  2  0  0  3  0  0  0  0  0  0
  179.8770  178.4010  139.1570 C   0  0  0  0  0  2  0  0  0  0  0  0
  183.0530  176.8300  139.7160 C   0  0  2  0  0  3  0  0  0  0  0  0
  1 14  2  0  0  0  0
  1  3  1  0  0  0  0
  2  7  1  0  0  0  0
  3 16  1  0  0  0  0
  4 31  1  6  0  0  0
  4  6  1  0  0  0  0
  6  2  1  1  0  0  0
  6 12  1  0  0  0  0
  7 25  1  1  0  0  0
  7 15  1  0  0  0  0
  8 10  2  0  0  0  0
  8 18  1  0  0  0  0
  9  1  1  0  0  0  0
 11 10  1  1  0  0  0
 11  9  1  0  0  0  0
 11  5  1  0  0  0  0
 12 15  1  6  0  0  0
 12 14  1  0  0  0  0
 14 19  1  0  0  0  0
 16 35  1  1  0  0  0
 18 17  1  6  0  0  0
 18  5  1  0  0  0  0
 19 16  1  0  0  0  0
 19 13  1  0  0  0  0
 20 10  1  0  0  0  0
 20  4  1  0  0  0  0
 21 22  1  0  0  0  0
 23 28  1  0  0  0  0
 24 26  1  0  0  0  0
 26 21  1  0  0  0  0
 27 23  1  0  0  0  0
 27 24  1  0  0  0  0
 28 22  1  0  0  0  0
 29 30  2  0  0  0  0
 30 28  1  0  0  0  0
 30 25  1  0  0  0  0
 31 32  2  0  0  0  0
 33 31  1  0  0  0  0
 34 33  3  0  0  0  0
 35 36  1  0  0  0  0
 36 38  1  0  0  0  0
 37 38  1  0  0  0  0
 39 37  2  0  0  0  0
 40 48  1  6  0  0  0
 40 52  1  0  0  0  0
 43 37  1  6  0  0  0
 44 46  1  6  0  0  0
 44 40  1  0  0  0  0
 44 47  1  0  0  0  0
 47 42  1  6  0  0  0
 47 51  1  0  0  0  0
 50 49  1  6  0  0  0
 50 43  1  0  0  0  0
 50 45  1  0  0  0  0
 51 45  1  0  0  0  0
 52 41  1  1  0  0  0
 52 43  1  0  0  0  0
M  END
>  <MODEL>
1

>  <REMARK>
 VINA RESULT:      -7.5      0.000      0.000
  Name = 
  7 active torsions:
  status: ('A' for Active; 'I' for Inactive)
    1  A    between atoms: C_1  and  C_14
    2  A    between atoms: C_11  and  C_24
    3  A    between atoms: C_15  and  C_43
    4  A    between atoms: C_15  and  C_45
    5  A    between atoms: N_20  and  C_45
    6  A    between atoms: C_22  and  N_28
    7  A    between atoms: C_24  and  C_27
                            x       y       z     vdW  Elec       q    Type
                         _______ _______ _______ _____ _____    ______ ____

>  <TORSDO>
F 7

$$$$
=
 OpenBabel11032421203D

 52 57  0  0  1  0  0  0  0  0999 V2000
  188.3070  177.3120  137.2850 C   0  0  0  0  0  0  0  0  0  0  0  0
  191.4010  175.2090  135.3320 O   0  0  0  0  0  0  0  0  0  0  0  0
  187.5630  178.3000  138.1210 C   0  0  0  0  0  2  0  0  0  0  0  0
  189.2520  174.1460  135.8470 C   0  0  1  0  0  3  0  0  0  0  0  0
  185.1930  176.2800  136.6360 S   0  0  0  0  0  0  0  0  0  0  0  0
  190.1500  175.3870  135.9480 C   0  0  1  0  0  3  0  0  0  0  0  0
  192.2590  176.1100  135.9810 C   0  0  1  0  0  3  0  0  0  0  0  0
  185.7710  174.0040  135.3640 N   0  0  0  0  0  0  0  0  0  0  0  0
  187.8760  176.8720  136.0370 O   0  0  0  0  0  0  0  0  0  0  0  0
  186.9250  174.8230  135.3050 C   0  0  0  0  0  0  0  0  0  0  0  0
  186.8030  175.9880  135.9140 C   0  0  1  0  0  3  0  0  0  0  0  0
  190.3600  175.8020  137.3940 C   0  0  2  0  0  3  0  0  0  0  0  0
  190.5400  177.1810  140.1690 C   0  0  0  0  0  1  0  0  0  0  0  0
  189.4080  176.8810  137.8920 C   0  0  0  0  0  0  0  0  0  0  0  0
  191.7820  176.2900  137.4100 C   0  0  0  0  0  2  0  0  0  0  0  0
  188.3450  178.3100  139.4450 C   0  0  2  0  0  3  0  0  0  0  0  0
  183.4370  174.6760  135.2590 C   0  0  0  0  0  1  0  0  0  0  0  0
  184.6800  174.5930  136.1240 C   0  0  2  0  0  3  0  0  0  0  0  0
  189.4910  177.4470  139.1940 N   0  0  0  0  0  0  0  0  0  0  0  0
  188.2170  174.3150  134.7410 C   0  0  0  0  0  2  0  0  0  0  0  0
  197.7170  174.7300  136.0600 C   0  0  0  0  0  2  0  0  0  0  0  0
  196.2520  174.4570  135.6810 C   0  0  0  0  0  2  0  0  0  0  0  0
  195.9750  173.3150  137.9360 C   0  0  0  0  0  2  0  0  0  0  0  0
  198.0080  174.7340  138.3890 C   0  0  0  0  0  2  0  0  0  0  0  0
  193.6150  175.5780  135.9700 N   0  0  0  0  0  2  0  0  0  0  0  0
  197.7940  175.5960  137.2310 N   0  0  0  0  0  2  0  0  0  0  0  0
  196.6830  174.2080  138.9470 C   0  0  0  0  0  2  0  0  0  0  0  0
  195.4300  174.1290  136.8490 N   0  0  0  0  0  0  0  0  0  0  0  0
  193.3390  174.2760  137.8850 O   0  0  0  0  0  0  0  0  0  0  0  0
  194.0930  174.6420  136.9430 C   0  0  0  0  0  0  0  0  0  0  0  0
  189.9970  172.8510  135.7280 C   0  0  0  0  0  0  0  0  0  0  0  0
  191.1790  172.7410  136.1560 O   0  0  0  0  0  0  0  0  0  0  0  0
  189.3600  171.7220  135.1000 C   0  0  0  0  0  0  0  0  0  0  0  0
  188.8610  170.8120  134.5940 N   0  0  0  0  0  0  0  0  0  0  0  0
  187.4840  177.7210  140.5520 C   0  0  0  0  0  2  0  0  0  0  0  0
  186.8930  178.8100  141.4330 C   0  0  0  0  0  2  0  0  0  0  0  0
  184.3780  178.7420  141.1400 C   0  0  0  0  0  0  0  0  0  0  0  0
  185.6560  179.3250  140.8600 N   0  0  0  0  0  2  0  0  0  0  0  0
  184.2820  177.7550  141.9120 O   0  0  0  0  0  0  0  0  0  0  0  0
  181.7760  177.1420  139.9860 C   0  0  2  0  0  3  0  0  0  0  0  0
  180.7240  179.2080  140.7230 F   0  0  0  0  0  0  0  0  0  0  0  0
  179.6950  177.8440  137.0150 C   0  0  0  0  0  1  0  0  0  0  0  0
  183.1370  179.3100  140.5270 C   0  0  1  0  0  3  0  0  0  0  0  0
  181.7410  177.3200  138.4640 C   0  0  1  0  0  3  0  0  0  0  0  0
  182.0760  180.4720  138.4710 C   0  0  0  0  0  2  0  0  0  0  0  0
  181.5770  176.0840  137.8270 O   0  0  0  0  0  1  0  0  0  0  0  0
  180.7180  178.3740  138.0080 C   0  0  1  0  0  3  0  0  0  0  0  0
  180.6550  176.4270  140.4170 O   0  0  0  0  0  1  0  0  0  0  0  0
  184.0630  179.0620  138.2630 O   0  0  0  0  0  1  0  0  0  0  0  0
  183.3490  179.9110  139.1190 C   0  0  2  0  0  3  0  0  0  0  0  0
  181.4510  179.5640  137.4020 C   0  0  0  0  0  2  0  0  0  0  0  0
  181.8850  178.4500  140.7840 C   0  0  2  0  0  3  0  0  0  0  0  0
  1 14  2  0  0  0  0
  1  3  1  0  0  0  0
  2  7  1  0  0  0  0
  3 16  1  0  0  0  0
  4 31  1  6  0  0  0
  4  6  1  0  0  0  0
  6  2  1  1  0  0  0
  6 12  1  0  0  0  0
  7 25  1  1  0  0  0
  7 15  1  0  0  0  0
  8 18  1  0  0  0  0
  9  1  1  0  0  0  0
 10  8  2  0  0  0  0
 11 10  1  1  0  0  0
 11  9  1  0  0  0  0
 11  5  1  0  0  0  0
 12 15  1  6  0  0  0
 12 14  1  0  0  0  0
 14 19  1  0  0  0  0
 16 35  1  1  0  0  0
 18 17  1  6  0  0  0
 18  5  1  0  0  0  0
 19 16  1  0  0  0  0
 19 13  1  0  0  0  0
 20 10  1  0  0  0  0
 20  4  1  0  0  0  0
 21 26  1  0  0  0  0
 22 21  1  0  0  0  0
 22 28  1  0  0  0  0
 23 27  1  0  0  0  0
 24 27  1  0  0  0  0
 25 30  1  0  0  0  0
 26 24  1  0  0  0  0
 28 30  1  0  0  0  0
 28 23  1  0  0  0  0
 30 29  2  0  0  0  0
 31 32  2  0  0  0  0
 33 31  1  0  0  0  0
 34 33  3  0  0  0  0
 35 36  1  0  0  0  0
 37 39  2  0  0  0  0
 38 37  1  0  0  0  0
 38 36  1  0  0  0  0
 40 48  1  1  0  0  0
 40 52  1  0  0  0  0
 43 52  1  0  0  0  0
 43 37  1  6  0  0  0
 44 46  1  6  0  0  0
 44 40  1  0  0  0  0
 45 50  1  0  0  0  0
 47 42  1  6  0  0  0
 47 44  1  0  0  0  0
 50 49  1  6  0  0  0
 50 43  1  0  0  0  0
 51 47  1  0  0  0  0
 51 45  1  0  0  0  0
 52 41  1  6  0  0  0
M  END
>  <MODEL>
2

>  <REMARK>
 VINA RESULT:      -7.1      1.533      2.053
  Name = 
  7 active torsions:
  status: ('A' for Active; 'I' for Inactive)
    1  A    between atoms: C_1  and  C_14
    2  A    between atoms: C_11  and  C_24
    3  A    between atoms: C_15  and  C_43
    4  A    between atoms: C_15  and  C_45
    5  A    between atoms: N_20  and  C_45
    6  A    between atoms: C_22  and  N_28
    7  A    between atoms: C_24  and  C_27
                            x       y       z     vdW  Elec       q    Type
                         _______ _______ _______ _____ _____    ______ ____

>  <TORSDO>
F 7

$$$$
=
 OpenBabel11032421203D

 52 57  0  0  1  0  0  0  0  0999 V2000
  188.1890  178.3750  139.2540 C   0  0  0  0  0  0  0  0  0  0  0  0
  184.3360  179.8580  140.1270 O   0  0  0  0  0  0  0  0  0  0  0  0
  189.4330  177.9800  138.5300 C   0  0  0  0  0  2  0  0  0  0  0  0
  185.4220  178.1860  141.5550 C   0  0  1  0  0  3  0  0  0  0  0  0
  189.9810  177.3160  141.8710 S   0  0  0  0  0  0  0  0  0  0  0  0
  185.4730  179.0470  140.2850 C   0  0  1  0  0  3  0  0  0  0  0  0
  184.2470  180.0970  138.7470 C   0  0  1  0  0  3  0  0  0  0  0  0
  188.0580  177.3340  143.7230 N   0  0  0  0  0  2  0  0  0  0  0  0
  188.1810  178.9880  140.5040 O   0  0  0  0  0  0  0  0  0  0  0  0
  187.6390  178.1890  142.6730 C   0  0  0  0  0  0  0  0  0  0  0  0
  188.4840  178.2700  141.6620 C   0  0  0  0  0  0  0  0  0  0  0  0
  185.6540  178.1920  139.0430 C   0  0  2  0  0  3  0  0  0  0  0  0
  186.5300  176.7770  136.4230 C   0  0  0  0  0  1  0  0  0  0  0  0
  187.0950  178.0410  138.5770 C   0  0  0  0  0  0  0  0  0  0  0  0
  184.8270  178.9060  138.0100 C   0  0  0  0  0  2  0  0  0  0  0  0
  188.9060  177.2020  137.3120 C   0  0  2  0  0  3  0  0  0  0  0  0
  190.3060  176.9870  144.5800 C   0  0  0  0  0  1  0  0  0  0  0  0
  189.3280  176.6760  143.4630 C   0  0  2  0  0  3  0  0  0  0  0  0
  187.4580  177.3340  137.3980 N   0  0  0  0  0  0  0  0  0  0  0  0
  186.2710  178.8010  142.6610 C   0  0  0  0  0  2  0  0  0  0  0  0
  179.0940  181.0520  136.6880 C   0  0  0  0  0  2  0  0  0  0  0  0
  180.0720  180.8370  137.8550 C   0  0  0  0  0  2  0  0  0  0  0  0
  179.6540  178.3390  137.6270 C   0  0  0  0  0  2  0  0  0  0  0  0
  178.9320  179.1330  135.3470 C   0  0  0  0  0  2  0  0  0  0  0  0
  182.8500  180.2830  138.3790 N   0  0  0  0  0  2  0  0  0  0  0  0
  179.5970  180.4260  135.4710 N   0  0  0  0  0  2  0  0  0  0  0  0
  179.6710  178.0470  136.1320 C   0  0  0  0  0  2  0  0  0  0  0  0
  180.5530  179.4540  137.9260 N   0  0  0  0  0  0  0  0  0  0  0  0
  182.3230  178.0120  138.4300 O   0  0  0  0  0  0  0  0  0  0  0  0
  181.9260  179.1950  138.2560 C   0  0  0  0  0  0  0  0  0  0  0  0
  184.0370  177.8580  142.0250 C   0  0  0  0  0  0  0  0  0  0  0  0
  183.2530  177.1780  141.3080 O   0  0  0  0  0  0  0  0  0  0  0  0
  183.5900  178.3430  143.3050 C   0  0  0  0  0  0  0  0  0  0  0  0
  183.2240  178.7400  144.3260 N   0  0  0  0  0  0  0  0  0  0  0  0
  189.3010  175.7370  137.4330 C   0  0  0  0  0  2  0  0  0  0  0  0
  190.4410  175.5500  138.4210 C   0  0  0  0  0  2  0  0  0  0  0  0
  191.9790  174.1950  136.9340 C   0  0  0  0  0  0  0  0  0  0  0  0
  191.7060  175.3580  137.7240 N   0  0  0  0  0  2  0  0  0  0  0  0
  191.1130  173.2920  136.8070 O   0  0  0  0  0  0  0  0  0  0  0  0
  194.7810  173.0190  138.1280 C   0  0  2  0  0  3  0  0  0  0  0  0
  195.0100  172.3950  135.7880 F   0  0  0  0  0  0  0  0  0  0  0  0
  198.2520  174.1420  137.5500 C   0  0  0  0  0  1  0  0  0  0  0  0
  193.2940  174.0460  136.2360 C   0  0  1  0  0  3  0  0  0  0  0  0
  195.7820  174.1750  138.2240 C   0  0  1  0  0  3  0  0  0  0  0  0
  195.3760  175.2410  135.2670 C   0  0  0  0  0  2  0  0  0  0  0  0
  196.3760  174.2090  139.4920 O   0  0  0  0  0  1  0  0  0  0  0  0
  196.8080  174.1770  137.0780 C   0  0  1  0  0  3  0  0  0  0  0  0
  195.3890  171.8180  138.5000 O   0  0  0  0  0  1  0  0  0  0  0  0
  194.0620  176.2240  137.0800 O   0  0  0  0  0  1  0  0  0  0  0  0
  194.0130  175.3840  135.9590 C   0  0  2  0  0  3  0  0  0  0  0  0
  196.5850  175.4010  136.2000 C   0  0  0  0  0  2  0  0  0  0  0  0
  194.1220  172.8530  136.7510 C   0  0  2  0  0  3  0  0  0  0  0  0
  1  9  1  0  0  0  0
  3  1  1  0  0  0  0
  4 31  1  1  0  0  0
  4 20  1  0  0  0  0
  5 18  1  0  0  0  0
  6  2  1  6  0  0  0
  6  4  1  0  0  0  0
  7 25  1  6  0  0  0
  7  2  1  0  0  0  0
  9 11  1  0  0  0  0
 10  8  1  0  0  0  0
 11  5  1  0  0  0  0
 11 10  2  0  0  0  0
 12 15  1  6  0  0  0
 12  6  1  0  0  0  0
 13 19  1  0  0  0  0
 14 12  1  0  0  0  0
 14  1  2  0  0  0  0
 15  7  1  0  0  0  0
 16 19  1  0  0  0  0
 16 35  1  1  0  0  0
 16  3  1  0  0  0  0
 18  8  1  0  0  0  0
 18 17  1  1  0  0  0
 19 14  1  0  0  0  0
 20 10  1  0  0  0  0
 21 22  1  0  0  0  0
 22 28  1  0  0  0  0
 23 28  1  0  0  0  0
 24 26  1  0  0  0  0
 24 27  1  0  0  0  0
 26 21  1  0  0  0  0
 27 23  1  0  0  0  0
 28 30  1  0  0  0  0
 30 25  1  0  0  0  0
 30 29  2  0  0  0  0
 31 33  1  0  0  0  0
 32 31  2  0  0  0  0
 33 34  3  0  0  0  0
 35 36  1  0  0  0  0
 37 38  1  0  0  0  0
 38 36  1  0  0  0  0
 39 37  2  0  0  0  0
 40 44  1  0  0  0  0
 40 48  1  6  0  0  0
 43 52  1  0  0  0  0
 43 37  1  1  0  0  0
 44 46  1  1  0  0  0
 45 50  1  0  0  0  0
 45 51  1  0  0  0  0
 47 42  1  1  0  0  0
 47 44  1  0  0  0  0
 50 43  1  0  0  0  0
 50 49  1  1  0  0  0
 51 47  1  0  0  0  0
 52 41  1  6  0  0  0
 52 40  1  0  0  0  0
M  END
>  <MODEL>
3

>  <REMARK>
 VINA RESULT:      -6.8      3.513     12.201
  Name = 
  7 active torsions:
  status: ('A' for Active; 'I' for Inactive)
    1  A    between atoms: C_1  and  C_14
    2  A    between atoms: C_11  and  C_24
    3  A    between atoms: C_15  and  C_43
    4  A    between atoms: C_15  and  C_45
    5  A    between atoms: N_20  and  C_45
    6  A    between atoms: C_22  and  N_28
    7  A    between atoms: C_24  and  C_27
                            x       y       z     vdW  Elec       q    Type
                         _______ _______ _______ _____ _____    ______ ____

>  <TORSDO>
F 7

$$$$
=
 OpenBabel11032421203D

 52 57  0  0  1  0  0  0  0  0999 V2000
  188.3520  177.0110  135.8610 C   0  0  0  0  0  0  0  0  0  0  0  0
  189.7890  173.1580  134.9110 O   0  0  0  0  0  0  0  0  0  0  0  0
  188.2860  178.4650  136.1880 C   0  0  0  0  0  2  0  0  0  0  0  0
  187.6160  173.4850  136.0010 C   0  0  1  0  0  3  0  0  0  0  0  0
  185.0280  177.3510  135.9710 S   0  0  0  0  0  0  0  0  0  0  0  0
  188.9080  174.1090  135.4550 C   0  0  1  0  0  3  0  0  0  0  0  0
  191.0620  173.7390  135.0100 C   0  0  1  0  0  3  0  0  0  0  0  0
  184.3450  174.7720  135.8680 N   0  0  0  0  0  2  0  0  0  0  0  0
  187.4730  176.3700  134.9910 O   0  0  0  0  0  0  0  0  0  0  0  0
  185.6630  174.8780  135.3590 C   0  0  0  0  0  0  0  0  0  0  0  0
  186.1550  176.1040  135.3640 C   0  0  0  0  0  0  0  0  0  0  0  0
  189.6330  174.9070  136.5250 C   0  0  2  0  0  3  0  0  0  0  0  0
  191.0470  177.0060  138.3220 C   0  0  0  0  0  1  0  0  0  0  0  0
  189.3270  176.3990  136.5250 C   0  0  0  0  0  0  0  0  0  0  0  0
  191.0840  174.6560  136.2180 C   0  0  0  0  0  2  0  0  0  0  0  0
  189.3340  178.6300  137.3010 C   0  0  2  0  0  3  0  0  0  0  0  0
  182.4990  176.3330  135.6150 C   0  0  0  0  0  1  0  0  0  0  0  0
  183.8000  176.0360  136.3360 C   0  0  2  0  0  3  0  0  0  0  0  0
  189.9590  177.3190  137.4060 N   0  0  0  0  0  0  0  0  0  0  0  0
  186.4690  173.6640  135.0130 C   0  0  0  0  0  2  0  0  0  0  0  0
  195.2080  169.9300  134.9670 C   0  0  0  0  0  2  0  0  0  0  0  0
  193.8300  170.4330  135.4280 C   0  0  0  0  0  2  0  0  0  0  0  0
  195.0050  171.6270  137.3400 C   0  0  0  0  0  2  0  0  0  0  0  0
  196.9270  171.3300  135.7390 C   0  0  0  0  0  2  0  0  0  0  0  0
  192.0610  172.6900  135.1580 N   0  0  0  0  0  2  0  0  0  0  0  0
  196.0660  171.0480  134.5940 N   0  0  0  0  0  2  0  0  0  0  0  0
  196.2450  172.2720  136.7330 C   0  0  0  0  0  2  0  0  0  0  0  0
  193.9340  171.5720  136.3450 N   0  0  0  0  0  0  0  0  0  0  0  0
  193.0100  173.5850  137.0920 O   0  0  0  0  0  0  0  0  0  0  0  0
  193.0010  172.6570  136.2390 C   0  0  0  0  0  0  0  0  0  0  0  0
  187.7580  172.0620  136.4490 C   0  0  0  0  0  0  0  0  0  0  0  0
  188.2020  171.7850  137.5970 O   0  0  0  0  0  0  0  0  0  0  0  0
  187.3980  170.9970  135.5490 C   0  0  0  0  0  0  0  0  0  0  0  0
  187.1040  170.1520  134.8190 N   0  0  0  0  0  0  0  0  0  0  0  0
  188.6390  178.9800  138.6080 C   0  0  0  0  0  2  0  0  0  0  0  0
  188.4330  177.7460  139.4730 C   0  0  0  0  0  2  0  0  0  0  0  0
  188.1360  178.3530  141.9140 C   0  0  0  0  0  0  0  0  0  0  0  0
  188.9640  177.9580  140.8130 N   0  0  0  0  0  2  0  0  0  0  0  0
  186.9000  178.5210  141.7550 O   0  0  0  0  0  0  0  0  0  0  0  0
  191.0650  177.4110  143.0050 C   0  0  2  0  0  3  0  0  0  0  0  0
  190.7260  179.4130  144.3450 F   0  0  0  0  0  0  0  0  0  0  0  0
  192.0420  176.0870  146.3130 C   0  0  0  0  0  1  0  0  0  0  0  0
  188.7290  178.5570  143.2720 C   0  0  1  0  0  3  0  0  0  0  0  0
  190.8550  176.3150  144.0540 C   0  0  1  0  0  3  0  0  0  0  0  0
  188.6970  177.8790  145.7710 C   0  0  0  0  0  2  0  0  0  0  0  0
  191.6720  175.2100  143.7840 O   0  0  0  0  0  1  0  0  0  0  0  0
  190.9970  176.8310  145.4970 C   0  0  1  0  0  3  0  0  0  0  0  0
  192.4230  177.7240  142.8960 O   0  0  0  0  0  1  0  0  0  0  0  0
  187.9450  176.3480  144.0170 O   0  0  0  0  0  1  0  0  0  0  0  0
  188.0780  177.6960  144.3780 C   0  0  2  0  0  3  0  0  0  0  0  0
  189.6470  176.7510  146.1990 C   0  0  0  0  0  2  0  0  0  0  0  0
  190.2630  178.6970  143.2500 C   0  0  2  0  0  3  0  0  0  0  0  0
  1  3  1  0  0  0  0
  1 14  2  0  0  0  0
  2  7  1  0  0  0  0
  3 16  1  0  0  0  0
  4 31  1  6  0  0  0
  5 18  1  0  0  0  0
  6  2  1  1  0  0  0
  6  4  1  0  0  0  0
  6 12  1  0  0  0  0
  7 25  1  1  0  0  0
  7 15  1  0  0  0  0
  8 18  1  0  0  0  0
  9 11  1  0  0  0  0
  9  1  1  0  0  0  0
 10 11  2  0  0  0  0
 10  8  1  0  0  0  0
 11  5  1  0  0  0  0
 12 15  1  6  0  0  0
 14 12  1  0  0  0  0
 14 19  1  0  0  0  0
 16 19  1  0  0  0  0
 16 35  1  1  0  0  0
 18 17  1  6  0  0  0
 19 13  1  0  0  0  0
 20 10  1  0  0  0  0
 20  4  1  0  0  0  0
 21 22  1  0  0  0  0
 22 28  1  0  0  0  0
 24 27  1  0  0  0  0
 25 30  1  0  0  0  0
 26 21  1  0  0  0  0
 26 24  1  0  0  0  0
 27 23  1  0  0  0  0
 28 23  1  0  0  0  0
 30 28  1  0  0  0  0
 30 29  2  0  0  0  0
 31 32  2  0  0  0  0
 33 31  1  0  0  0  0
 34 33  3  0  0  0  0
 35 36  1  0  0  0  0
 36 38  1  0  0  0  0
 38 37  1  0  0  0  0
 39 37  2  0  0  0  0
 40 48  1  1  0  0  0
 40 52  1  0  0  0  0
 40 44  1  0  0  0  0
 43 37  1  6  0  0  0
 43 50  1  0  0  0  0
 44 46  1  6  0  0  0
 44 47  1  0  0  0  0
 45 51  1  0  0  0  0
 47 51  1  0  0  0  0
 47 42  1  1  0  0  0
 50 49  1  6  0  0  0
 50 45  1  0  0  0  0
 52 43  1  0  0  0  0
 52 41  1  1  0  0  0
M  END
>  <MODEL>
4

>  <REMARK>
 VINA RESULT:      -6.7      3.402      6.036
  Name = 
  7 active torsions:
  status: ('A' for Active; 'I' for Inactive)
    1  A    between atoms: C_1  and  C_14
    2  A    between atoms: C_11  and  C_24
    3  A    between atoms: C_15  and  C_43
    4  A    between atoms: C_15  and  C_45
    5  A    between atoms: N_20  and  C_45
    6  A    between atoms: C_22  and  N_28
    7  A    between atoms: C_24  and  C_27
                            x       y       z     vdW  Elec       q    Type
                         _______ _______ _______ _____ _____    ______ ____

>  <TORSDO>
F 7

$$$$
=
 OpenBabel11032421203D

 52 57  0  0  1  0  0  0  0  0999 V2000
  187.3150  178.3050  139.7390 C   0  0  0  0  0  0  0  0  0  0  0  0
  190.5910  176.6410  137.6630 O   0  0  0  0  0  0  0  0  0  0  0  0
  186.4840  179.0080  140.7610 C   0  0  0  0  0  2  0  0  0  0  0  0
  188.3060  175.8110  137.3340 C   0  0  1  0  0  3  0  0  0  0  0  0
  184.3480  178.0940  138.2100 S   0  0  0  0  0  0  0  0  0  0  0  0
  189.2530  176.7650  138.0760 C   0  0  1  0  0  3  0  0  0  0  0  0
  191.3530  177.0840  138.7550 C   0  0  1  0  0  3  0  0  0  0  0  0
  185.0140  176.4070  136.2500 N   0  0  0  0  0  0  0  0  0  0  0  0
  187.1340  178.4420  138.3650 O   0  0  0  0  0  0  0  0  0  0  0  0
  186.2130  176.9970  136.7220 C   0  0  0  0  0  0  0  0  0  0  0  0
  186.0490  177.8490  137.7170 C   0  0  1  0  0  3  0  0  0  0  0  0
  189.1730  176.5660  139.5800 C   0  0  2  0  0  3  0  0  0  0  0  0
  188.8490  176.7480  142.6620 C   0  0  0  0  0  1  0  0  0  0  0  0
  188.2210  177.5110  140.2990 C   0  0  0  0  0  0  0  0  0  0  0  0
  190.5910  176.7840  140.0320 C   0  0  0  0  0  2  0  0  0  0  0  0
  186.9580  178.3950  142.0890 C   0  0  2  0  0  3  0  0  0  0  0  0
  182.8170  177.4240  136.0280 C   0  0  0  0  0  1  0  0  0  0  0  0
  183.8320  176.8280  136.9850 C   0  0  2  0  0  3  0  0  0  0  0  0
  188.0610  177.5230  141.7120 N   0  0  0  0  0  0  0  0  0  0  0  0
  187.5540  176.5450  136.2300 C   0  0  0  0  0  2  0  0  0  0  0  0
  195.9540  173.8560  139.0930 C   0  0  0  0  0  2  0  0  0  0  0  0
  195.2590  175.2200  138.9450 C   0  0  0  0  0  2  0  0  0  0  0  0
  195.2200  174.8260  136.4330 C   0  0  0  0  0  2  0  0  0  0  0  0
  195.4940  172.4620  137.2610 C   0  0  0  0  0  2  0  0  0  0  0  0
  192.6340  176.3910  138.7620 N   0  0  0  0  0  2  0  0  0  0  0  0
  195.0860  172.7820  138.6260 N   0  0  0  0  0  2  0  0  0  0  0  0
  194.8030  173.3720  136.2440 C   0  0  0  0  0  2  0  0  0  0  0  0
  194.6000  175.3670  137.6430 N   0  0  0  0  0  0  0  0  0  0  0  0
  192.8000  176.2480  136.4400 O   0  0  0  0  0  0  0  0  0  0  0  0
  193.3220  176.0150  137.5630 C   0  0  0  0  0  0  0  0  0  0  0  0
  188.9590  174.5580  136.8340 C   0  0  0  0  0  0  0  0  0  0  0  0
  188.8720  173.4790  137.4820 O   0  0  0  0  0  0  0  0  0  0  0  0
  189.7100  174.5920  135.6060 C   0  0  0  0  0  0  0  0  0  0  0  0
  190.3130  174.6320  134.6210 N   0  0  0  0  0  0  0  0  0  0  0  0
  185.8330  177.5730  142.7020 C   0  0  0  0  0  2  0  0  0  0  0  0
  184.8260  178.4600  143.4180 C   0  0  0  0  0  2  0  0  0  0  0  0
  182.3740  178.9340  142.9980 C   0  0  0  0  0  0  0  0  0  0  0  0
  183.7230  178.8100  142.5330 N   0  0  0  0  0  2  0  0  0  0  0  0
  182.0980  178.7520  144.2110 O   0  0  0  0  0  0  0  0  0  0  0  0
  180.4030  176.9390  141.3250 C   0  0  2  0  0  3  0  0  0  0  0  0
  178.9320  178.8530  141.6240 F   0  0  0  0  0  0  0  0  0  0  0  0
  179.1100  177.2390  137.8780 C   0  0  0  0  0  1  0  0  0  0  0  0
  181.2760  179.2970  142.0490 C   0  0  1  0  0  3  0  0  0  0  0  0
  180.7500  177.0620  139.8380 C   0  0  1  0  0  3  0  0  0  0  0  0
  180.6550  180.2280  139.7140 C   0  0  0  0  0  2  0  0  0  0  0  0
  180.9240  175.7960  139.2660 O   0  0  0  0  0  1  0  0  0  0  0  0
  179.7540  177.9420  139.0620 C   0  0  1  0  0  3  0  0  0  0  0  0
  179.3130  176.0830  141.5010 O   0  0  0  0  0  1  0  0  0  0  0  0
  182.7930  179.1140  140.1220 O   0  0  0  0  0  1  0  0  0  0  0  0
  181.7730  179.8770  140.7060 C   0  0  2  0  0  3  0  0  0  0  0  0
  180.4590  179.2050  138.5850 C   0  0  0  0  0  2  0  0  0  0  0  0
  180.1240  178.2730  142.0330 C   0  0  2  0  0  3  0  0  0  0  0  0
  1 14  2  0  0  0  0
  1  3  1  0  0  0  0
  2  7  1  0  0  0  0
  3 16  1  0  0  0  0
  4 31  1  6  0  0  0
  4  6  1  0  0  0  0
  6  2  1  6  0  0  0
  6 12  1  0  0  0  0
  7 25  1  1  0  0  0
  7 15  1  0  0  0  0
  8 10  2  0  0  0  0
  8 18  1  0  0  0  0
  9  1  1  0  0  0  0
 11 10  1  1  0  0  0
 11  5  1  0  0  0  0
 11  9  1  0  0  0  0
 12 15  1  1  0  0  0
 12 14  1  0  0  0  0
 14 19  1  0  0  0  0
 16 35  1  6  0  0  0
 18 17  1  6  0  0  0
 18  5  1  0  0  0  0
 19 16  1  0  0  0  0
 19 13  1  0  0  0  0
 20 10  1  0  0  0  0
 20  4  1  0  0  0  0
 22 21  1  0  0  0  0
 23 28  1  0  0  0  0
 24 26  1  0  0  0  0
 26 21  1  0  0  0  0
 27 23  1  0  0  0  0
 27 24  1  0  0  0  0
 28 22  1  0  0  0  0
 29 30  2  0  0  0  0
 30 28  1  0  0  0  0
 30 25  1  0  0  0  0
 31 32  2  0  0  0  0
 33 31  1  0  0  0  0
 34 33  3  0  0  0  0
 35 36  1  0  0  0  0
 37 39  2  0  0  0  0
 38 37  1  0  0  0  0
 38 36  1  0  0  0  0
 40 48  1  6  0  0  0
 40 52  1  0  0  0  0
 43 37  1  6  0  0  0
 44 46  1  6  0  0  0
 44 40  1  0  0  0  0
 45 50  1  0  0  0  0
 47 42  1  6  0  0  0
 47 44  1  0  0  0  0
 50 49  1  6  0  0  0
 50 43  1  0  0  0  0
 51 47  1  0  0  0  0
 51 45  1  0  0  0  0
 52 41  1  6  0  0  0
 52 43  1  0  0  0  0
M  END
>  <MODEL>
5

>  <REMARK>
 VINA RESULT:      -6.3      2.233      2.913
  Name = 
  7 active torsions:
  status: ('A' for Active; 'I' for Inactive)
    1  A    between atoms: C_1  and  C_14
    2  A    between atoms: C_11  and  C_24
    3  A    between atoms: C_15  and  C_43
    4  A    between atoms: C_15  and  C_45
    5  A    between atoms: N_20  and  C_45
    6  A    between atoms: C_22  and  N_28
    7  A    between atoms: C_24  and  C_27
                            x       y       z     vdW  Elec       q    Type
                         _______ _______ _______ _____ _____    ______ ____

>  <TORSDO>
F 7

$$$$
=
 OpenBabel11032421203D

 52 57  0  0  1  0  0  0  0  0999 V2000
  186.6270  177.3020  143.9780 C   0  0  0  0  0  0  0  0  0  0  0  0
  190.3000  176.4980  142.0600 O   0  0  0  0  0  0  0  0  0  0  0  0
  185.1710  177.4910  144.2440 C   0  0  0  0  0  2  0  0  0  0  0  0
  190.1780  177.9140  144.0590 C   0  0  1  0  0  3  0  0  0  0  0  0
  186.7950  177.9590  147.2520 S   0  0  0  0  0  0  0  0  0  0  0  0
  189.4350  177.0910  142.9960 C   0  0  1  0  0  3  0  0  0  0  0  0
  189.5200  176.3140  140.9080 C   0  0  1  0  0  3  0  0  0  0  0  0
  189.4410  178.2310  147.4840 N   0  0  0  0  0  2  0  0  0  0  0  0
  187.5010  176.6660  144.8570 O   0  0  0  0  0  0  0  0  0  0  0  0
  189.1960  177.4910  146.3000 C   0  0  0  0  0  0  0  0  0  0  0  0
  187.9190  177.2890  146.0340 C   0  0  0  0  0  0  0  0  0  0  0  0
  188.4060  177.9340  142.2630 C   0  0  2  0  0  3  0  0  0  0  0  0
  185.9040  179.2410  140.9710 C   0  0  0  0  0  1  0  0  0  0  0  0
  186.9920  177.8410  142.8190 C   0  0  0  0  0  0  0  0  0  0  0  0
  188.4660  177.4040  140.8560 C   0  0  0  0  0  2  0  0  0  0  0  0
  184.7070  178.3810  143.0800 C   0  0  2  0  0  3  0  0  0  0  0  0
  188.2290  178.1530  149.5890 C   0  0  0  0  0  1  0  0  0  0  0  0
  188.2280  178.6610  148.1600 C   0  0  2  0  0  3  0  0  0  0  0  0
  185.8820  178.5040  142.2280 N   0  0  0  0  0  0  0  0  0  0  0  0
  190.3050  177.1300  145.3590 C   0  0  0  0  0  2  0  0  0  0  0  0
  193.0710  175.9480  136.5540 C   0  0  0  0  0  2  0  0  0  0  0  0
  192.1860  176.7520  137.5220 C   0  0  0  0  0  2  0  0  0  0  0  0
  190.2490  176.3790  135.9170 C   0  0  0  0  0  2  0  0  0  0  0  0
  191.7850  174.5070  135.2210 C   0  0  0  0  0  2  0  0  0  0  0  0
  190.3740  176.3880  139.7310 N   0  0  0  0  0  2  0  0  0  0  0  0
  192.5920  174.5770  136.4360 N   0  0  0  0  0  2  0  0  0  0  0  0
  190.3360  174.9190  135.4880 C   0  0  0  0  0  2  0  0  0  0  0  0
  190.7570  176.5270  137.2810 N   0  0  0  0  0  0  0  0  0  0  0  0
  188.6160  176.3370  138.2000 O   0  0  0  0  0  0  0  0  0  0  0  0
  189.8590  176.4160  138.3940 C   0  0  0  0  0  0  0  0  0  0  0  0
  191.4940  178.4680  143.6030 C   0  0  0  0  0  0  0  0  0  0  0  0
  192.0520  179.4100  144.2290 O   0  0  0  0  0  0  0  0  0  0  0  0
  192.1210  177.9260  142.4250 C   0  0  0  0  0  0  0  0  0  0  0  0
  192.6310  177.5020  141.4790 N   0  0  0  0  0  0  0  0  0  0  0  0
  184.3070  179.7500  143.6110 C   0  0  0  0  0  2  0  0  0  0  0  0
  182.8010  179.8550  143.7920 C   0  0  0  0  0  2  0  0  0  0  0  0
  180.7770  179.5650  142.2960 C   0  0  0  0  0  0  0  0  0  0  0  0
  182.1000  179.1920  142.7000 N   0  0  0  0  0  2  0  0  0  0  0  0
  180.1740  180.5030  142.8770 O   0  0  0  0  0  0  0  0  0  0  0  0
  182.1200  177.6550  140.0140 C   0  0  2  0  0  3  0  0  0  0  0  0
  179.9110  176.6500  140.1760 F   0  0  0  0  0  0  0  0  0  0  0  0
  181.3350  177.3600  136.4170 C   0  0  0  0  0  1  0  0  0  0  0  0
  180.1010  178.8530  141.1680 C   0  0  1  0  0  3  0  0  0  0  0  0
  182.0180  178.3760  138.6660 C   0  0  1  0  0  3  0  0  0  0  0  0
  178.9310  179.0650  138.8680 C   0  0  0  0  0  2  0  0  0  0  0  0
  183.2580  178.3820  138.0150 O   0  0  0  0  0  1  0  0  0  0  0  0
  180.8770  177.8400  137.7850 C   0  0  1  0  0  3  0  0  0  0  0  0
  182.6760  176.3840  139.8440 O   0  0  0  0  0  1  0  0  0  0  0  0
  180.5730  180.7110  139.6270 O   0  0  0  0  0  1  0  0  0  0  0  0
  179.6030  179.7890  140.0430 C   0  0  2  0  0  3  0  0  0  0  0  0
  179.8140  178.9190  137.6200 C   0  0  0  0  0  2  0  0  0  0  0  0
  180.7950  177.5330  140.7800 C   0  0  2  0  0  3  0  0  0  0  0  0
  1  3  1  0  0  0  0
  1  9  1  0  0  0  0
  4 31  1  6  0  0  0
  4 20  1  0  0  0  0
  5 18  1  0  0  0  0
  6  2  1  6  0  0  0
  6  4  1  0  0  0  0
  7 25  1  6  0  0  0
  7  2  1  0  0  0  0
  8 18  1  0  0  0  0
  9 11  1  0  0  0  0
 10  8  1  0  0  0  0
 11 10  2  0  0  0  0
 11  5  1  0  0  0  0
 12 15  1  6  0  0  0
 12 14  1  0  0  0  0
 12  6  1  0  0  0  0
 13 19  1  0  0  0  0
 14  1  2  0  0  0  0
 15  7  1  0  0  0  0
 16 35  1  1  0  0  0
 16  3  1  0  0  0  0
 18 17  1  1  0  0  0
 19 14  1  0  0  0  0
 19 16  1  0  0  0  0
 20 10  1  0  0  0  0
 21 22  1  0  0  0  0
 23 28  1  0  0  0  0
 24 27  1  0  0  0  0
 24 26  1  0  0  0  0
 26 21  1  0  0  0  0
 27 23  1  0  0  0  0
 28 22  1  0  0  0  0
 28 30  1  0  0  0  0
 29 30  2  0  0  0  0
 30 25  1  0  0  0  0
 31 32  2  0  0  0  0
 33 31  1  0  0  0  0
 34 33  3  0  0  0  0
 35 36  1  0  0  0  0
 37 38  1  0  0  0  0
 37 39  2  0  0  0  0
 38 36  1  0  0  0  0
 40 48  1  6  0  0  0
 40 52  1  0  0  0  0
 43 37  1  6  0  0  0
 44 46  1  6  0  0  0
 44 40  1  0  0  0  0
 45 50  1  0  0  0  0
 47 42  1  6  0  0  0
 47 44  1  0  0  0  0
 50 49  1  6  0  0  0
 50 43  1  0  0  0  0
 51 47  1  0  0  0  0
 51 45  1  0  0  0  0
 52 41  1  6  0  0  0
 52 43  1  0  0  0  0
M  END
>  <MODEL>
6

>  <REMARK>
 VINA RESULT:      -6.1      3.733      6.951
  Name = 
  7 active torsions:
  status: ('A' for Active; 'I' for Inactive)
    1  A    between atoms: C_1  and  C_14
    2  A    between atoms: C_11  and  C_24
    3  A    between atoms: C_15  and  C_43
    4  A    between atoms: C_15  and  C_45
    5  A    between atoms: N_20  and  C_45
    6  A    between atoms: C_22  and  N_28
    7  A    between atoms: C_24  and  C_27
                            x       y       z     vdW  Elec       q    Type
                         _______ _______ _______ _____ _____    ______ ____

>  <TORSDO>
F 7

$$$$
=
 OpenBabel11032421203D

 52 57  0  0  1  0  0  0  0  0999 V2000
  189.1700  177.8130  137.8740 C   0  0  0  0  0  0  0  0  0  0  0  0
  191.8900  175.8810  135.2890 O   0  0  0  0  0  0  0  0  0  0  0  0
  188.5920  178.6620  138.9570 C   0  0  0  0  0  2  0  0  0  0  0  0
  189.6540  174.9670  135.7150 C   0  0  1  0  0  3  0  0  0  0  0  0
  185.9270  177.2960  137.2430 S   0  0  0  0  0  0  0  0  0  0  0  0
  190.7000  176.0490  136.0190 C   0  0  1  0  0  3  0  0  0  0  0  0
  192.8810  176.5140  136.0550 C   0  0  1  0  0  3  0  0  0  0  0  0
  186.1630  175.3160  135.4660 N   0  0  0  0  0  0  0  0  0  0  0  0
  188.6310  177.7140  136.5940 O   0  0  0  0  0  0  0  0  0  0  0  0
  187.4050  175.9980  135.5040 C   0  0  0  0  0  0  0  0  0  0  0  0
  187.4540  177.0010  136.3600 C   0  0  1  0  0  3  0  0  0  0  0  0
  191.0260  176.1040  137.5010 C   0  0  2  0  0  3  0  0  0  0  0  0
  191.5030  176.7950  140.4900 C   0  0  0  0  0  1  0  0  0  0  0  0
  190.2380  177.1400  138.2900 C   0  0  0  0  0  0  0  0  0  0  0  0
  192.4970  176.4190  137.5190 C   0  0  0  0  0  2  0  0  0  0  0  0
  189.4310  178.2890  140.1900 C   0  0  2  0  0  3  0  0  0  0  0  0
  183.9260  176.2430  135.6800 C   0  0  0  0  0  1  0  0  0  0  0  0
  185.1880  175.8330  136.4140 C   0  0  2  0  0  3  0  0  0  0  0  0
  190.4500  177.3850  139.6750 N   0  0  0  0  0  0  0  0  0  0  0  0
  188.5970  175.4930  134.7500 C   0  0  0  0  0  2  0  0  0  0  0  0
  198.1290  174.5870  135.3860 C   0  0  0  0  0  2  0  0  0  0  0  0
  196.6160  174.5310  135.1150 C   0  0  0  0  0  2  0  0  0  0  0  0
  196.3900  173.0710  137.1840 C   0  0  0  0  0  2  0  0  0  0  0  0
  198.6050  174.1810  137.6490 C   0  0  0  0  0  2  0  0  0  0  0  0
  194.1600  175.8540  135.8290 N   0  0  0  0  0  2  0  0  0  0  0  0
  198.4000  175.2380  136.6620 N   0  0  0  0  0  2  0  0  0  0  0  0
  197.2770  173.7100  138.2460 C   0  0  0  0  0  2  0  0  0  0  0  0
  195.8580  174.1030  136.2940 N   0  0  0  0  0  0  0  0  0  0  0  0
  193.8880  174.2930  137.5400 O   0  0  0  0  0  0  0  0  0  0  0  0
  194.6020  174.7280  136.5960 C   0  0  0  0  0  0  0  0  0  0  0  0
  190.2300  173.6600  135.2620 C   0  0  0  0  0  0  0  0  0  0  0  0
  191.4420  173.5680  134.9240 O   0  0  0  0  0  0  0  0  0  0  0  0
  189.3830  172.4970  135.1980 C   0  0  0  0  0  0  0  0  0  0  0  0
  188.7120  171.5580  135.1510 N   0  0  0  0  0  0  0  0  0  0  0  0
  188.5560  177.5620  141.2010 C   0  0  0  0  0  2  0  0  0  0  0  0
  187.6850  178.5350  141.9800 C   0  0  0  0  0  2  0  0  0  0  0  0
  185.1990  178.6220  141.5020 C   0  0  0  0  0  0  0  0  0  0  0  0
  186.3330  178.0130  142.1300 N   0  0  0  0  0  2  0  0  0  0  0  0
  185.3410  179.6400  140.7780 O   0  0  0  0  0  0  0  0  0  0  0  0
  182.6020  178.9030  139.5420 C   0  0  2  0  0  3  0  0  0  0  0  0
  182.1730  176.7170  140.5210 F   0  0  0  0  0  0  0  0  0  0  0  0
  179.0320  179.3220  140.3930 C   0  0  0  0  0  1  0  0  0  0  0  0
  183.8300  178.0460  141.6870 C   0  0  1  0  0  3  0  0  0  0  0  0
  181.5530  179.7580  140.2580 C   0  0  1  0  0  3  0  0  0  0  0  0
  181.5970  178.1550  142.9920 C   0  0  0  0  0  2  0  0  0  0  0  0
  181.0890  180.7770  139.4160 O   0  0  0  0  0  1  0  0  0  0  0  0
  180.4180  178.9230  140.8750 C   0  0  1  0  0  3  0  0  0  0  0  0
  182.1030  178.4440  138.3200 O   0  0  0  0  0  1  0  0  0  0  0  0
  183.0300  180.1200  142.7390 O   0  0  0  0  0  1  0  0  0  0  0  0
  183.0120  178.7210  142.8110 C   0  0  2  0  0  3  0  0  0  0  0  0
  180.4810  179.0240  142.3930 C   0  0  0  0  0  2  0  0  0  0  0  0
  183.1270  177.7120  140.3570 C   0  0  2  0  0  3  0  0  0  0  0  0
  1 14  2  0  0  0  0
  1  3  1  0  0  0  0
  2  7  1  0  0  0  0
  3 16  1  0  0  0  0
  4 31  1  6  0  0  0
  4  6  1  0  0  0  0
  6  2  1  6  0  0  0
  6 12  1  0  0  0  0
  7 25  1  1  0  0  0
  7 15  1  0  0  0  0
  8 10  2  0  0  0  0
  8 18  1  0  0  0  0
  9  1  1  0  0  0  0
 11 10  1  1  0  0  0
 11  9  1  0  0  0  0
 11  5  1  0  0  0  0
 12 15  1  6  0  0  0
 12 14  1  0  0  0  0
 14 19  1  0  0  0  0
 16 35  1  1  0  0  0
 18 17  1  6  0  0  0
 18  5  1  0  0  0  0
 19 16  1  0  0  0  0
 19 13  1  0  0  0  0
 20 10  1  0  0  0  0
 20  4  1  0  0  0  0
 21 26  1  0  0  0  0
 22 21  1  0  0  0  0
 22 28  1  0  0  0  0
 23 27  1  0  0  0  0
 24 27  1  0  0  0  0
 25 30  1  0  0  0  0
 26 24  1  0  0  0  0
 28 30  1  0  0  0  0
 28 23  1  0  0  0  0
 30 29  2  0  0  0  0
 32 31  2  0  0  0  0
 33 31  1  0  0  0  0
 34 33  3  0  0  0  0
 35 36  1  0  0  0  0
 36 38  1  0  0  0  0
 37 38  1  0  0  0  0
 39 37  2  0  0  0  0
 40 48  1  6  0  0  0
 40 44  1  0  0  0  0
 40 52  1  0  0  0  0
 43 37  1  6  0  0  0
 43 50  1  0  0  0  0
 44 46  1  6  0  0  0
 44 47  1  0  0  0  0
 47 42  1  6  0  0  0
 47 51  1  0  0  0  0
 50 49  1  6  0  0  0
 50 45  1  0  0  0  0
 51 45  1  0  0  0  0
 52 41  1  1  0  0  0
 52 43  1  0  0  0  0
M  END
>  <MODEL>
7

>  <REMARK>
 VINA RESULT:      -5.9      1.484      2.012
  Name = 
  7 active torsions:
  status: ('A' for Active; 'I' for Inactive)
    1  A    between atoms: C_1  and  C_14
    2  A    between atoms: C_11  and  C_24
    3  A    between atoms: C_15  and  C_43
    4  A    between atoms: C_15  and  C_45
    5  A    between atoms: N_20  and  C_45
    6  A    between atoms: C_22  and  N_28
    7  A    between atoms: C_24  and  C_27
                            x       y       z     vdW  Elec       q    Type
                         _______ _______ _______ _____ _____    ______ ____

>  <TORSDO>
F 7

$$$$
=
 OpenBabel11032421203D

 52 57  0  0  1  0  0  0  0  0999 V2000
  188.0910  177.1580  136.9710 C   0  0  0  0  0  0  0  0  0  0  0  0
  191.2110  175.0260  135.0910 O   0  0  0  0  0  0  0  0  0  0  0  0
  187.3350  178.1720  137.7630 C   0  0  0  0  0  2  0  0  0  0  0  0
  189.0950  173.9410  135.6930 C   0  0  1  0  0  3  0  0  0  0  0  0
  184.9960  176.0180  136.4230 S   0  0  0  0  0  0  0  0  0  0  0  0
  189.9640  175.2070  135.7150 C   0  0  1  0  0  3  0  0  0  0  0  0
  192.0550  175.9800  135.6790 C   0  0  1  0  0  3  0  0  0  0  0  0
  185.6120  173.6910  135.2680 N   0  0  0  0  0  0  0  0  0  0  0  0
  187.6550  176.6400  135.7550 O   0  0  0  0  0  0  0  0  0  0  0  0
  186.7460  174.5330  135.1480 C   0  0  0  0  0  0  0  0  0  0  0  0
  186.6030  175.7260  135.6950 C   0  0  1  0  0  3  0  0  0  0  0  0
  190.1820  175.7050  137.1330 C   0  0  2  0  0  3  0  0  0  0  0  0
  190.3640  177.2370  139.8260 C   0  0  0  0  0  1  0  0  0  0  0  0
  189.2110  176.7870  137.5850 C   0  0  0  0  0  0  0  0  0  0  0  0
  191.5920  176.2270  137.1020 C   0  0  0  0  0  2  0  0  0  0  0  0
  188.1330  178.2730  139.0730 C   0  0  2  0  0  3  0  0  0  0  0  0
  183.2620  174.3000  135.1590 C   0  0  0  0  0  1  0  0  0  0  0  0
  184.5170  174.2950  136.0100 C   0  0  2  0  0  3  0  0  0  0  0  0
  189.2970  177.4240  138.8530 N   0  0  0  0  0  0  0  0  0  0  0  0
  188.0420  174.0260  134.5940 C   0  0  0  0  0  2  0  0  0  0  0  0
  197.5430  174.7290  135.8080 C   0  0  0  0  0  2  0  0  0  0  0  0
  196.0900  174.4270  135.4050 C   0  0  0  0  0  2  0  0  0  0  0  0
  195.8110  173.2440  137.6390 C   0  0  0  0  0  2  0  0  0  0  0  0
  197.8030  174.7020  138.1410 C   0  0  0  0  0  2  0  0  0  0  0  0
  193.4230  175.4800  135.6770 N   0  0  0  0  0  2  0  0  0  0  0  0
  197.5840  175.5770  136.9930 N   0  0  0  0  0  2  0  0  0  0  0  0
  196.4850  174.1370  138.6730 C   0  0  0  0  0  2  0  0  0  0  0  0
  195.2600  174.0610  136.5580 N   0  0  0  0  0  0  0  0  0  0  0  0
  193.1530  174.1430  137.5670 O   0  0  0  0  0  0  0  0  0  0  0  0
  193.9100  174.5410  136.6420 C   0  0  0  0  0  0  0  0  0  0  0  0
  189.8700  172.6600  135.6340 C   0  0  0  0  0  0  0  0  0  0  0  0
  191.0560  172.5990  136.0610 O   0  0  0  0  0  0  0  0  0  0  0  0
  189.2580  171.4870  135.0650 C   0  0  0  0  0  0  0  0  0  0  0  0
  188.7620  170.5430  134.6210 N   0  0  0  0  0  0  0  0  0  0  0  0
  187.3010  177.7240  140.2220 C   0  0  0  0  0  2  0  0  0  0  0  0
  186.7810  178.8420  141.1120 C   0  0  0  0  0  2  0  0  0  0  0  0
  187.6900  178.1550  143.3740 C   0  0  0  0  0  0  0  0  0  0  0  0
  187.6620  179.0480  142.2540 N   0  0  0  0  0  2  0  0  0  0  0  0
  186.9460  177.1410  143.4010 O   0  0  0  0  0  0  0  0  0  0  0  0
  190.7570  177.1110  143.7730 C   0  0  2  0  0  3  0  0  0  0  0  0
  190.8510  179.2110  144.9970 F   0  0  0  0  0  0  0  0  0  0  0  0
  192.4800  175.9450  146.8260 C   0  0  0  0  0  1  0  0  0  0  0  0
  188.6140  178.4100  144.5230 C   0  0  1  0  0  3  0  0  0  0  0  0
  190.7730  176.0990  144.9230 C   0  0  1  0  0  3  0  0  0  0  0  0
  189.1840  177.8960  146.9950 C   0  0  0  0  0  2  0  0  0  0  0  0
  191.4480  174.9320  144.5440 O   0  0  0  0  0  1  0  0  0  0  0  0
  191.2950  176.6970  146.2410 C   0  0  1  0  0  3  0  0  0  0  0  0
  192.0550  177.3350  143.3060 O   0  0  0  0  0  1  0  0  0  0  0  0
  187.9520  176.3040  145.6070 O   0  0  0  0  0  1  0  0  0  0  0  0
  188.2270  177.6620  145.8180 C   0  0  2  0  0  3  0  0  0  0  0  0
  190.1640  176.7430  147.2600 C   0  0  0  0  0  2  0  0  0  0  0  0
  190.0970  178.4560  144.1090 C   0  0  2  0  0  3  0  0  0  0  0  0
  1 14  2  0  0  0  0
  1  3  1  0  0  0  0
  2  7  1  0  0  0  0
  3 16  1  0  0  0  0
  4 31  1  6  0  0  0
  4  6  1  0  0  0  0
  6  2  1  1  0  0  0
  6 12  1  0  0  0  0
  7 25  1  1  0  0  0
  7 15  1  0  0  0  0
  8 18  1  0  0  0  0
  9  1  1  0  0  0  0
 10  8  2  0  0  0  0
 11 10  1  1  0  0  0
 11  9  1  0  0  0  0
 11  5  1  0  0  0  0
 12 15  1  6  0  0  0
 12 14  1  0  0  0  0
 14 19  1  0  0  0  0
 16 35  1  1  0  0  0
 18 17  1  6  0  0  0
 18  5  1  0  0  0  0
 19 16  1  0  0  0  0
 19 13  1  0  0  0  0
 20 10  1  0  0  0  0
 20  4  1  0  0  0  0
 21 26  1  0  0  0  0
 22 21  1  0  0  0  0
 22 28  1  0  0  0  0
 23 27  1  0  0  0  0
 24 27  1  0  0  0  0
 25 30  1  0  0  0  0
 26 24  1  0  0  0  0
 28 30  1  0  0  0  0
 28 23  1  0  0  0  0
 30 29  2  0  0  0  0
 31 32  2  0  0  0  0
 33 31  1  0  0  0  0
 34 33  3  0  0  0  0
 35 36  1  0  0  0  0
 36 38  1  0  0  0  0
 37 39  2  0  0  0  0
 38 37  1  0  0  0  0
 40 48  1  1  0  0  0
 40 52  1  0  0  0  0
 40 44  1  0  0  0  0
 43 37  1  6  0  0  0
 43 50  1  0  0  0  0
 44 46  1  6  0  0  0
 44 47  1  0  0  0  0
 45 51  1  0  0  0  0
 47 42  1  1  0  0  0
 47 51  1  0  0  0  0
 50 49  1  6  0  0  0
 50 45  1  0  0  0  0
 52 43  1  0  0  0  0
 52 41  1  1  0  0  0
M  END
>  <MODEL>
8

>  <REMARK>
 VINA RESULT:      -5.8      3.461      5.955
  Name = 
  7 active torsions:
  status: ('A' for Active; 'I' for Inactive)
    1  A    between atoms: C_1  and  C_14
    2  A    between atoms: C_11  and  C_24
    3  A    between atoms: C_15  and  C_43
    4  A    between atoms: C_15  and  C_45
    5  A    between atoms: N_20  and  C_45
    6  A    between atoms: C_22  and  N_28
    7  A    between atoms: C_24  and  C_27
                            x       y       z     vdW  Elec       q    Type
                         _______ _______ _______ _____ _____    ______ ____

>  <TORSDO>
F 7

$$$$
=
 OpenBabel11032421203D

 52 57  0  0  1  0  0  0  0  0999 V2000
  185.8220  177.2700  137.3150 C   0  0  0  0  0  0  0  0  0  0  0  0
  189.0910  175.4800  135.3360 O   0  0  0  0  0  0  0  0  0  0  0  0
  184.9570  178.2480  138.0380 C   0  0  0  0  0  2  0  0  0  0  0  0
  187.3700  174.1330  136.4490 C   0  0  1  0  0  3  0  0  0  0  0  0
  183.0260  175.4440  137.4780 S   0  0  0  0  0  0  0  0  0  0  0  0
  187.9220  175.5260  136.1150 C   0  0  1  0  0  3  0  0  0  0  0  0
  189.7600  176.6820  135.6090 C   0  0  1  0  0  3  0  0  0  0  0  0
  184.0120  173.1060  136.6450 N   0  0  0  0  0  2  0  0  0  0  0  0
  185.3700  176.4430  136.2900 O   0  0  0  0  0  0  0  0  0  0  0  0
  184.8990  174.1180  136.2030 C   0  0  0  0  0  0  0  0  0  0  0  0
  184.5560  175.3420  136.5580 C   0  0  0  0  0  0  0  0  0  0  0  0
  188.1930  176.3310  137.3750 C   0  0  2  0  0  3  0  0  0  0  0  0
  188.3490  178.3730  139.7070 C   0  0  0  0  0  1  0  0  0  0  0  0
  187.0630  177.2620  137.7910 C   0  0  0  0  0  0  0  0  0  0  0  0
  189.4310  177.1090  137.0270 C   0  0  0  0  0  2  0  0  0  0  0  0
  185.8660  178.7670  139.1640 C   0  0  2  0  0  3  0  0  0  0  0  0
  181.5890  173.1950  136.8210 C   0  0  0  0  0  1  0  0  0  0  0  0
  182.9070  173.6120  137.4440 C   0  0  2  0  0  3  0  0  0  0  0  0
  187.1560  178.1440  138.9030 N   0  0  0  0  0  0  0  0  0  0  0  0
  186.1990  173.7830  135.5380 C   0  0  0  0  0  2  0  0  0  0  0  0
  195.3460  175.9950  135.7770 C   0  0  0  0  0  2  0  0  0  0  0  0
  194.0370  176.3050  135.0310 C   0  0  0  0  0  2  0  0  0  0  0  0
  193.7860  173.8080  134.6210 C   0  0  0  0  0  2  0  0  0  0  0  0
  195.3670  173.7910  136.5830 C   0  0  0  0  0  2  0  0  0  0  0  0
  191.1950  176.4790  135.4680 N   0  0  0  0  0  2  0  0  0  0  0  0
  195.0870  175.1750  136.9540 N   0  0  0  0  0  2  0  0  0  0  0  0
  194.1480  173.1290  135.9360 C   0  0  0  0  0  2  0  0  0  0  0  0
  193.1890  175.1180  134.8850 N   0  0  0  0  0  0  0  0  0  0  0  0
  191.0200  174.2500  134.8050 O   0  0  0  0  0  0  0  0  0  0  0  0
  191.7680  175.2370  135.0390 C   0  0  0  0  0  0  0  0  0  0  0  0
  188.4040  173.0490  136.4790 C   0  0  0  0  0  0  0  0  0  0  0  0
  189.3800  173.1060  137.2770 O   0  0  0  0  0  0  0  0  0  0  0  0
  188.2910  171.9360  135.5720 C   0  0  0  0  0  0  0  0  0  0  0  0
  188.1930  171.0510  134.8360 N   0  0  0  0  0  0  0  0  0  0  0  0
  185.3280  178.3010  140.5100 C   0  0  0  0  0  2  0  0  0  0  0  0
  185.7580  179.2350  141.6300 C   0  0  0  0  0  2  0  0  0  0  0  0
  187.3370  177.9430  143.1320 C   0  0  0  0  0  0  0  0  0  0  0  0
  186.0420  178.4860  142.8480 N   0  0  0  0  0  2  0  0  0  0  0  0
  188.2890  178.1090  142.3280 O   0  0  0  0  0  0  0  0  0  0  0  0
  185.9860  178.4170  146.0660 C   0  0  2  0  0  3  0  0  0  0  0  0
  186.3790  176.0180  146.1510 F   0  0  0  0  0  0  0  0  0  0  0  0
  187.4940  178.1800  149.4300 C   0  0  0  0  0  1  0  0  0  0  0  0
  187.5780  177.1830  144.3980 C   0  0  1  0  0  3  0  0  0  0  0  0
  187.0730  178.9280  147.0170 C   0  0  1  0  0  3  0  0  0  0  0  0
  189.2100  176.6860  146.3450 C   0  0  0  0  0  2  0  0  0  0  0  0
  186.6340  180.0690  147.7000 O   0  0  0  0  0  1  0  0  0  0  0  0
  187.6120  177.8340  147.9540 C   0  0  1  0  0  3  0  0  0  0  0  0
  184.7840  178.2360  146.7560 O   0  0  0  0  0  1  0  0  0  0  0  0
  189.2800  178.8040  145.1240 O   0  0  0  0  0  1  0  0  0  0  0  0
  188.9630  177.4410  145.0320 C   0  0  2  0  0  3  0  0  0  0  0  0
  189.0670  177.5440  147.6110 C   0  0  0  0  0  2  0  0  0  0  0  0
  186.3420  177.1260  145.3160 C   0  0  2  0  0  3  0  0  0  0  0  0
  1 14  2  0  0  0  0
  1  3  1  0  0  0  0
  2  7  1  0  0  0  0
  3 16  1  0  0  0  0
  4 31  1  6  0  0  0
  6  2  1  1  0  0  0
  6  4  1  0  0  0  0
  6 12  1  0  0  0  0
  7 25  1  1  0  0  0
  7 15  1  0  0  0  0
  8 18  1  0  0  0  0
  9 11  1  0  0  0  0
  9  1  1  0  0  0  0
 10 11  2  0  0  0  0
 10  8  1  0  0  0  0
 11  5  1  0  0  0  0
 12 15  1  6  0  0  0
 12 14  1  0  0  0  0
 14 19  1  0  0  0  0
 16 35  1  1  0  0  0
 18 17  1  6  0  0  0
 18  5  1  0  0  0  0
 19 16  1  0  0  0  0
 19 13  1  0  0  0  0
 20 10  1  0  0  0  0
 20  4  1  0  0  0  0
 21 26  1  0  0  0  0
 22 21  1  0  0  0  0
 23 28  1  0  0  0  0
 23 27  1  0  0  0  0
 24 26  1  0  0  0  0
 27 24  1  0  0  0  0
 28 22  1  0  0  0  0
 28 30  1  0  0  0  0
 29 30  2  0  0  0  0
 30 25  1  0  0  0  0
 31 32  2  0  0  0  0
 33 31  1  0  0  0  0
 34 33  3  0  0  0  0
 35 36  1  0  0  0  0
 36 38  1  0  0  0  0
 38 37  1  0  0  0  0
 39 37  2  0  0  0  0
 40 48  1  1  0  0  0
 40 44  1  0  0  0  0
 43 37  1  6  0  0  0
 43 50  1  0  0  0  0
 43 52  1  0  0  0  0
 44 46  1  1  0  0  0
 44 47  1  0  0  0  0
 45 51  1  0  0  0  0
 47 42  1  1  0  0  0
 50 49  1  1  0  0  0
 50 45  1  0  0  0  0
 51 47  1  0  0  0  0
 52 40  1  0  0  0  0
 52 41  1  1  0  0  0
M  END
>  <MODEL>
9

>  <REMARK>
 VINA RESULT:      -5.8      3.833      5.974
  Name = 
  7 active torsions:
  status: ('A' for Active; 'I' for Inactive)
    1  A    between atoms: C_1  and  C_14
    2  A    between atoms: C_11  and  C_24
    3  A    between atoms: C_15  and  C_43
    4  A    between atoms: C_15  and  C_45
    5  A    between atoms: N_20  and  C_45
    6  A    between atoms: C_22  and  N_28
    7  A    between atoms: C_24  and  C_27
                            x       y       z     vdW  Elec       q    Type
                         _______ _______ _______ _____ _____    ______ ____

>  <TORSDO>
F 7

$$$$
