=
 OpenBabel11032419273D

 30 32  0  0  1  0  0  0  0  0999 V2000
  187.2910  178.2560  138.8310 C   0  0  0  0  0  0  0  0  0  0  0  0
  190.4490  176.9610  137.6560 O   0  0  0  0  0  0  0  0  0  0  0  0
  187.5750  178.3590  140.2740 C   0  0  0  0  0  0  0  0  0  0  0  0
  188.7710  177.9440  140.7580 C   0  0  0  0  0  0  0  0  0  0  0  0
  189.7270  177.1270  139.9240 C   0  0  0  0  0  2  0  0  0  0  0  0
  186.1720  178.6120  138.3760 O   0  0  0  0  0  0  0  0  0  0  0  0
  188.2930  177.7770  137.9370 N   0  0  0  0  0  2  0  0  0  0  0  0
  189.5330  177.2980  138.4490 C   0  0  0  0  0  0  0  0  0  0  0  0
  189.0030  177.2570  143.1710 C   0  0  0  0  0  0  0  0  0  0  0  0
  188.4830  176.1310  142.9440 O   0  0  0  0  0  0  0  0  0  0  0  0
  189.1640  178.2080  142.1090 N   0  0  0  0  0  2  0  0  0  0  0  0
  187.2330  178.0710  145.3310 O   0  0  0  0  0  1  0  0  0  0  0  0
  191.2010  177.1480  146.3190 C   0  0  2  0  0  3  0  0  0  0  0  0
  189.4550  177.5840  144.5620 C   0  0  1  0  0  3  0  0  0  0  0  0
  188.3530  177.2770  145.5850 C   0  0  1  0  0  3  0  0  0  0  0  0
  190.1050  176.7650  147.3070 C   0  0  0  0  0  2  0  0  0  0  0  0
  188.8390  177.5570  147.0050 C   0  0  0  0  0  2  0  0  0  0  0  0
  190.7460  176.8320  144.8980 C   0  0  0  0  0  2  0  0  0  0  0  0
  192.3630  176.4310  146.6070 O   0  0  0  0  0  0  0  0  0  0  0  0
  193.1520  176.0960  148.7170 O   0  0  0  0  0  1  0  0  0  0  0  0
  192.1090  175.8170  147.8350 C   0  0  0  0  0  2  0  0  0  0  0  0
  186.5600  178.9180  141.1200 N   0  0  0  0  0  2  0  0  0  0  0  0
  185.8530  178.1520  142.0580 N   0  0  0  0  0  2  0  0  0  0  0  0
  182.7860  178.9830  143.9980 C   0  0  0  0  0  3  0  0  0  0  0  0
  182.1720  178.6800  141.6740 C   0  0  0  0  0  3  0  0  0  0  0  0
  184.1200  178.7080  143.6820 C   0  0  0  0  0  3  0  0  0  0  0  0
  180.1430  179.3140  143.3900 Cl  0  0  0  0  0  0  0  0  0  0  0  0
  183.5060  178.4060  141.3580 C   0  0  0  0  0  3  0  0  0  0  0  0
  184.4850  178.4190  142.3620 C   0  0  0  0  0  0  0  0  0  0  0  0
  181.8130  178.9700  142.9940 C   0  0  0  0  0  0  0  0  0  0  0  0
  1  3  1  0  0  0  0
  2  8  2  0  0  0  0
  3  4  2  0  0  0  0
  3 22  1  0  0  0  0
  4 11  1  0  0  0  0
  5  4  1  0  0  0  0
  6  1  2  0  0  0  0
  7  8  1  0  0  0  0
  7  1  1  0  0  0  0
  8  5  1  0  0  0  0
 10  9  2  0  0  0  0
 11  9  1  0  0  0  0
 13 19  1  1  0  0  0
 13 16  1  0  0  0  0
 14  9  1  6  0  0  0
 14 18  1  0  0  0  0
 14 15  1  0  0  0  0
 15 12  1  6  0  0  0
 15 17  1  0  0  0  0
 17 16  1  0  0  0  0
 18 13  1  0  0  0  0
 19 21  1  0  0  0  0
 21 20  1  0  0  0  0
 22 23  1  0  0  0  0
 23 29  1  0  0  0  0
 25 30  1  0  0  0  0
 26 24  1  0  0  0  0
 28 25  2  0  0  0  0
 28 29  1  0  0  0  0
 29 26  2  0  0  0  0
 30 27  1  0  0  0  0
 30 24  2  0  0  0  0
M  END
>  <MODEL>
1

>  <REMARK>
 VINA RESULT:      -9.1      0.000      0.000
  Name = 
  7 active torsions:
  status: ('A' for Active; 'I' for Inactive)
    1  A    between atoms: N_4  and  N_10
    2  A    between atoms: N_4  and  C_18
    3  A    between atoms: C_5  and  C_15
    4  A    between atoms: C_9  and  O_11
    5  A    between atoms: N_10  and  C_12
    6  A    between atoms: O_11  and  C_24
    7  A    between atoms: C_19  and  N_22
                            x       y       z     vdW  Elec       q    Type
                         _______ _______ _______ _____ _____    ______ ____

>  <TORSDO>
F 7

$$$$
=
 OpenBabel11032419273D

 30 32  0  0  1  0  0  0  0  0999 V2000
  189.9010  177.4760  147.2760 C   0  0  0  0  0  0  0  0  0  0  0  0
  192.8670  175.4230  147.1200 O   0  0  0  0  0  0  0  0  0  0  0  0
  189.4920  177.4460  145.8600 C   0  0  0  0  0  0  0  0  0  0  0  0
  190.2550  176.7930  144.9500 C   0  0  0  0  0  0  0  0  0  0  0  0
  191.6520  176.3220  145.2740 C   0  0  0  0  0  2  0  0  0  0  0  0
  189.2140  178.1040  148.1240 O   0  0  0  0  0  0  0  0  0  0  0  0
  191.0640  176.7690  147.6990 N   0  0  0  0  0  2  0  0  0  0  0  0
  191.8930  176.1210  146.7380 C   0  0  0  0  0  0  0  0  0  0  0  0
  190.1590  177.4140  142.5100 C   0  0  0  0  0  0  0  0  0  0  0  0
  190.9010  178.4160  142.6920 O   0  0  0  0  0  0  0  0  0  0  0  0
  189.7970  176.5700  143.6120 N   0  0  0  0  0  2  0  0  0  0  0  0
  187.7560  178.5550  141.3340 O   0  0  0  0  0  1  0  0  0  0  0  0
  190.3360  176.4360  138.8000 C   0  0  2  0  0  3  0  0  0  0  0  0
  189.6660  177.1150  141.1270 C   0  0  1  0  0  3  0  0  0  0  0  0
  188.8850  178.3040  140.5520 C   0  0  1  0  0  3  0  0  0  0  0  0
  189.6280  177.6650  138.2420 C   0  0  0  0  0  2  0  0  0  0  0  0
  188.4350  178.0160  139.1220 C   0  0  0  0  0  2  0  0  0  0  0  0
  190.8310  176.7250  140.2140 C   0  0  0  0  0  2  0  0  0  0  0  0
  191.4200  176.1090  137.9840 O   0  0  0  0  0  0  0  0  0  0  0  0
  193.5830  176.7660  137.7060 O   0  0  0  0  0  1  0  0  0  0  0  0
  192.5260  176.6820  138.6120 C   0  0  0  0  0  2  0  0  0  0  0  0
  188.2730  178.1110  145.5000 N   0  0  0  0  0  0  0  0  0  0  0  0
  187.0120  177.6430  145.8960 N   0  0  0  0  0  0  0  0  0  0  0  0
  184.5810  178.3380  143.1630 C   0  0  0  0  0  3  0  0  0  0  0  0
  183.5570  178.9290  145.2770 C   0  0  0  0  0  3  0  0  0  0  0  0
  185.7450  177.9520  143.8350 C   0  0  0  0  0  3  0  0  0  0  0  0
  182.0300  179.3090  143.0440 Cl  0  0  0  0  0  0  0  0  0  0  0  0
  184.7210  178.5410  145.9490 C   0  0  0  0  0  3  0  0  0  0  0  0
  185.8190  178.0520  145.2280 C   0  0  0  0  0  0  0  0  0  0  0  0
  183.4870  178.8250  143.8850 C   0  0  0  0  0  0  0  0  0  0  0  0
  1  7  1  0  0  0  0
  1  6  2  0  0  0  0
  3  1  1  0  0  0  0
  4  5  1  0  0  0  0
  4  3  2  0  0  0  0
  5  8  1  0  0  0  0
  8  2  2  0  0  0  0
  8  7  1  0  0  0  0
  9 10  2  0  0  0  0
  9 11  1  0  0  0  0
 11  4  1  0  0  0  0
 13 19  1  6  0  0  0
 13 18  1  0  0  0  0
 14  9  1  1  0  0  0
 15 14  1  0  0  0  0
 15 12  1  1  0  0  0
 16 13  1  0  0  0  0
 16 17  1  0  0  0  0
 17 15  1  0  0  0  0
 18 14  1  0  0  0  0
 19 21  1  0  0  0  0
 20 21  1  0  0  0  0
 22  3  1  0  0  0  0
 22 23  2  0  0  0  0
 24 26  2  0  0  0  0
 24 30  1  0  0  0  0
 25 28  1  0  0  0  0
 26 29  1  0  0  0  0
 27 30  1  0  0  0  0
 29 23  1  0  0  0  0
 29 28  2  0  0  0  0
 30 25  2  0  0  0  0
M  END
>  <MODEL>
2

>  <REMARK>
 VINA RESULT:      -9.0      2.306      6.414
  Name = 
  7 active torsions:
  status: ('A' for Active; 'I' for Inactive)
    1  A    between atoms: N_4  and  N_10
    2  A    between atoms: N_4  and  C_18
    3  A    between atoms: C_5  and  C_15
    4  A    between atoms: C_9  and  O_11
    5  A    between atoms: N_10  and  C_12
    6  A    between atoms: O_11  and  C_24
    7  A    between atoms: C_19  and  N_22
                            x       y       z     vdW  Elec       q    Type
                         _______ _______ _______ _____ _____    ______ ____

>  <TORSDO>
F 7

$$$$
=
 OpenBabel11032419273D

 30 32  0  0  1  0  0  0  0  0999 V2000
  188.4300  178.3070  139.4340 C   0  0  0  0  0  0  0  0  0  0  0  0
  191.7950  177.0460  139.0900 O   0  0  0  0  0  0  0  0  0  0  0  0
  188.2630  178.2020  140.8950 C   0  0  0  0  0  0  0  0  0  0  0  0
  189.2560  177.6740  141.6520 C   0  0  0  0  0  0  0  0  0  0  0  0
  190.4190  176.9370  141.0370 C   0  0  0  0  0  2  0  0  0  0  0  0
  187.5020  178.7690  138.7190 O   0  0  0  0  0  0  0  0  0  0  0  0
  189.6560  177.9100  138.8240 N   0  0  0  0  0  2  0  0  0  0  0  0
  190.6820  177.3120  139.6110 C   0  0  0  0  0  0  0  0  0  0  0  0
  188.7190  176.6700  143.9000 C   0  0  0  0  0  0  0  0  0  0  0  0
  188.2690  175.6180  143.3690 O   0  0  0  0  0  0  0  0  0  0  0  0
  189.2200  177.7370  143.0820 N   0  0  0  0  0  2  0  0  0  0  0  0
  191.0700  176.2780  145.5660 O   0  0  0  0  0  1  0  0  0  0  0  0
  187.6480  177.8740  147.3860 C   0  0  2  0  0  3  0  0  0  0  0  0
  188.7300  176.7850  145.3930 C   0  0  1  0  0  3  0  0  0  0  0  0
  190.1080  177.2310  145.9010 C   0  0  1  0  0  3  0  0  0  0  0  0
  189.0110  178.3850  147.8410 C   0  0  0  0  0  2  0  0  0  0  0  0
  190.0970  177.4030  147.4180 C   0  0  0  0  0  2  0  0  0  0  0  0
  187.6300  177.7390  145.8660 C   0  0  0  0  0  2  0  0  0  0  0  0
  186.6550  178.7680  147.7870 O   0  0  0  0  0  0  0  0  0  0  0  0
  184.5360  178.3750  147.0510 O   0  0  0  0  0  1  0  0  0  0  0  0
  185.7930  178.8600  146.6930 C   0  0  0  0  0  2  0  0  0  0  0  0
  187.0390  178.6850  141.4670 N   0  0  0  0  0  0  0  0  0  0  0  0
  186.1090  177.8380  142.0860 N   0  0  0  0  0  0  0  0  0  0  0  0
  183.0360  179.0940  143.7710 C   0  0  0  0  0  3  0  0  0  0  0  0
  182.5030  178.6000  141.4610 C   0  0  0  0  0  3  0  0  0  0  0  0
  184.3560  178.6880  143.5540 C   0  0  0  0  0  3  0  0  0  0  0  0
  180.4580  179.5590  142.9960 Cl  0  0  0  0  0  0  0  0  0  0  0  0
  183.8240  178.1950  141.2430 C   0  0  0  0  0  3  0  0  0  0  0  0
  184.7550  178.2380  142.2900 C   0  0  0  0  0  0  0  0  0  0  0  0
  182.1100  179.0510  142.7240 C   0  0  0  0  0  0  0  0  0  0  0  0
  1  3  1  0  0  0  0
  2  8  2  0  0  0  0
  3 22  1  0  0  0  0
  3  4  2  0  0  0  0
  4 11  1  0  0  0  0
  5  4  1  0  0  0  0
  6  1  2  0  0  0  0
  7  1  1  0  0  0  0
  7  8  1  0  0  0  0
  8  5  1  0  0  0  0
 10  9  2  0  0  0  0
 11  9  1  0  0  0  0
 13 19  1  6  0  0  0
 13 16  1  0  0  0  0
 14  9  1  6  0  0  0
 14 18  1  0  0  0  0
 14 15  1  0  0  0  0
 15 12  1  1  0  0  0
 15 17  1  0  0  0  0
 17 16  1  0  0  0  0
 18 13  1  0  0  0  0
 21 20  1  0  0  0  0
 21 19  1  0  0  0  0
 22 23  2  0  0  0  0
 23 29  1  0  0  0  0
 25 30  1  0  0  0  0
 26 24  1  0  0  0  0
 28 25  2  0  0  0  0
 28 29  1  0  0  0  0
 29 26  2  0  0  0  0
 30 27  1  0  0  0  0
 30 24  2  0  0  0  0
M  END
>  <MODEL>
3

>  <REMARK>
 VINA RESULT:      -8.8      1.379      2.873
  Name = 
  7 active torsions:
  status: ('A' for Active; 'I' for Inactive)
    1  A    between atoms: N_4  and  N_10
    2  A    between atoms: N_4  and  C_18
    3  A    between atoms: C_5  and  C_15
    4  A    between atoms: C_9  and  O_11
    5  A    between atoms: N_10  and  C_12
    6  A    between atoms: O_11  and  C_24
    7  A    between atoms: C_19  and  N_22
                            x       y       z     vdW  Elec       q    Type
                         _______ _______ _______ _____ _____    ______ ____

>  <TORSDO>
F 7

$$$$
=
 OpenBabel11032419273D

 30 32  0  0  1  0  0  0  0  0999 V2000
  189.0530  177.0200  147.0790 C   0  0  0  0  0  0  0  0  0  0  0  0
  192.4620  175.8370  146.9430 O   0  0  0  0  0  0  0  0  0  0  0  0
  188.9520  177.6680  145.7580 C   0  0  0  0  0  0  0  0  0  0  0  0
  190.0340  177.7110  144.9430 C   0  0  0  0  0  0  0  0  0  0  0  0
  191.4170  177.3640  145.4360 C   0  0  0  0  0  2  0  0  0  0  0  0
  188.0620  176.9990  147.8550 O   0  0  0  0  0  0  0  0  0  0  0  0
  190.2680  176.3860  147.4740 N   0  0  0  0  0  2  0  0  0  0  0  0
  191.4190  176.4710  146.6380 C   0  0  0  0  0  0  0  0  0  0  0  0
  189.7950  177.2430  142.4790 C   0  0  0  0  0  0  0  0  0  0  0  0
  189.7810  175.9970  142.6740 O   0  0  0  0  0  0  0  0  0  0  0  0
  189.9280  178.1480  143.5840 N   0  0  0  0  0  2  0  0  0  0  0  0
  191.8560  177.0160  140.4390 O   0  0  0  0  0  1  0  0  0  0  0  0
  188.0590  178.3110  139.2240 C   0  0  2  0  0  3  0  0  0  0  0  0
  189.6650  177.7630  141.0790 C   0  0  1  0  0  3  0  0  0  0  0  0
  190.5040  176.9270  140.1020 C   0  0  1  0  0  3  0  0  0  0  0  0
  188.8500  177.4140  138.2790 C   0  0  0  0  0  2  0  0  0  0  0  0
  190.3230  177.4250  138.6710 C   0  0  0  0  0  2  0  0  0  0  0  0
  188.1950  177.8000  140.6540 C   0  0  0  0  0  2  0  0  0  0  0  0
  186.7140  178.3100  138.8540 O   0  0  0  0  0  0  0  0  0  0  0  0
  185.5920  177.5980  137.0030 O   0  0  0  0  0  1  0  0  0  0  0  0
  186.7260  178.2690  137.4590 C   0  0  0  0  0  2  0  0  0  0  0  0
  187.6850  178.2240  145.3790 N   0  0  0  0  0  0  0  0  0  0  0  0
  186.9470  177.7450  144.2880 N   0  0  0  0  0  0  0  0  0  0  0  0
  183.7750  178.5270  142.5030 C   0  0  0  0  0  3  0  0  0  0  0  0
  183.4690  178.9910  144.8610 C   0  0  0  0  0  3  0  0  0  0  0  0
  185.0920  178.1320  142.7510 C   0  0  0  0  0  3  0  0  0  0  0  0
  181.3140  179.4510  143.2470 Cl  0  0  0  0  0  0  0  0  0  0  0  0
  184.7870  178.5940  145.1090 C   0  0  0  0  0  3  0  0  0  0  0  0
  185.6030  178.1630  144.0540 C   0  0  0  0  0  0  0  0  0  0  0  0
  182.9630  178.9560  143.5580 C   0  0  0  0  0  0  0  0  0  0  0  0
  1  7  1  0  0  0  0
  1  6  2  0  0  0  0
  3  1  1  0  0  0  0
  4  5  1  0  0  0  0
  4  3  2  0  0  0  0
  5  8  1  0  0  0  0
  8  2  2  0  0  0  0
  8  7  1  0  0  0  0
  9 10  2  0  0  0  0
  9 11  1  0  0  0  0
 11  4  1  0  0  0  0
 13 19  1  6  0  0  0
 13 18  1  0  0  0  0
 14  9  1  1  0  0  0
 15 12  1  1  0  0  0
 15 14  1  0  0  0  0
 16 17  1  0  0  0  0
 16 13  1  0  0  0  0
 17 15  1  0  0  0  0
 18 14  1  0  0  0  0
 20 21  1  0  0  0  0
 21 19  1  0  0  0  0
 22  3  1  0  0  0  0
 23 22  2  0  0  0  0
 24 26  2  0  0  0  0
 24 30  1  0  0  0  0
 25 28  1  0  0  0  0
 26 29  1  0  0  0  0
 27 30  1  0  0  0  0
 29 23  1  0  0  0  0
 29 28  2  0  0  0  0
 30 25  2  0  0  0  0
M  END
>  <MODEL>
4

>  <REMARK>
 VINA RESULT:      -8.8      1.831      6.723
  Name = 
  7 active torsions:
  status: ('A' for Active; 'I' for Inactive)
    1  A    between atoms: N_4  and  N_10
    2  A    between atoms: N_4  and  C_18
    3  A    between atoms: C_5  and  C_15
    4  A    between atoms: C_9  and  O_11
    5  A    between atoms: N_10  and  C_12
    6  A    between atoms: O_11  and  C_24
    7  A    between atoms: C_19  and  N_22
                            x       y       z     vdW  Elec       q    Type
                         _______ _______ _______ _____ _____    ______ ____

>  <TORSDO>
F 7

$$$$
=
 OpenBabel11032419273D

 30 32  0  0  1  0  0  0  0  0999 V2000
  188.5230  177.3030  147.1360 C   0  0  0  0  0  0  0  0  0  0  0  0
  192.0760  176.6940  147.3380 O   0  0  0  0  0  0  0  0  0  0  0  0
  188.3230  177.1790  145.6800 C   0  0  0  0  0  0  0  0  0  0  0  0
  189.3850  176.9550  144.8690 C   0  0  0  0  0  0  0  0  0  0  0  0
  190.8050  177.0970  145.3590 C   0  0  0  0  0  2  0  0  0  0  0  0
  187.5470  177.5400  147.8950 O   0  0  0  0  0  0  0  0  0  0  0  0
  189.8220  177.1280  147.6960 N   0  0  0  0  0  2  0  0  0  0  0  0
  190.9460  176.9390  146.8410 C   0  0  0  0  0  0  0  0  0  0  0  0
  189.4290  177.5750  142.4270 C   0  0  0  0  0  0  0  0  0  0  0  0
  189.7720  178.7590  142.6910 O   0  0  0  0  0  0  0  0  0  0  0  0
  189.2130  176.6310  143.4850 N   0  0  0  0  0  2  0  0  0  0  0  0
  187.3110  178.5430  140.6840 O   0  0  0  0  0  1  0  0  0  0  0  0
  190.4320  176.3700  138.9210 C   0  0  2  0  0  3  0  0  0  0  0  0
  189.2560  177.1690  140.9960 C   0  0  1  0  0  3  0  0  0  0  0  0
  188.5890  178.2870  140.1830 C   0  0  1  0  0  3  0  0  0  0  0  0
  189.8320  177.5320  138.1390 C   0  0  0  0  0  2  0  0  0  0  0  0
  188.4670  177.8910  138.7140 C   0  0  0  0  0  2  0  0  0  0  0  0
  190.6010  176.7680  140.3840 C   0  0  0  0  0  2  0  0  0  0  0  0
  191.6750  176.0350  138.3830 O   0  0  0  0  0  0  0  0  0  0  0  0
  190.6210  174.1060  137.7850 O   0  0  0  0  0  1  0  0  0  0  0  0
  191.3850  175.1760  137.3220 C   0  0  0  0  0  2  0  0  0  0  0  0
  186.9840  177.2890  145.1760 N   0  0  0  0  0  0  0  0  0  0  0  0
  186.3210  178.5190  145.0560 N   0  0  0  0  0  0  0  0  0  0  0  0
  183.8150  178.5590  142.3030 C   0  0  0  0  0  3  0  0  0  0  0  0
  182.6730  178.9920  144.3950 C   0  0  0  0  0  3  0  0  0  0  0  0
  185.0310  178.4640  142.9870 C   0  0  0  0  0  3  0  0  0  0  0  0
  181.1140  178.9420  142.1520 Cl  0  0  0  0  0  0  0  0  0  0  0  0
  183.8880  178.8950  145.0780 C   0  0  0  0  0  3  0  0  0  0  0  0
  185.0720  178.6310  144.3760 C   0  0  0  0  0  0  0  0  0  0  0  0
  182.6360  178.8220  143.0080 C   0  0  0  0  0  0  0  0  0  0  0  0
  1  7  1  0  0  0  0
  1  6  2  0  0  0  0
  3  1  1  0  0  0  0
  4  5  1  0  0  0  0
  4  3  2  0  0  0  0
  5  8  1  0  0  0  0
  8  2  2  0  0  0  0
  8  7  1  0  0  0  0
  9 10  2  0  0  0  0
  9 11  1  0  0  0  0
 11  4  1  0  0  0  0
 13 19  1  6  0  0  0
 13 18  1  0  0  0  0
 14  9  1  1  0  0  0
 15 12  1  1  0  0  0
 15 14  1  0  0  0  0
 16 17  1  0  0  0  0
 16 13  1  0  0  0  0
 17 15  1  0  0  0  0
 18 14  1  0  0  0  0
 21 20  1  0  0  0  0
 21 19  1  0  0  0  0
 22  3  1  0  0  0  0
 23 22  2  0  0  0  0
 24 26  2  0  0  0  0
 24 30  1  0  0  0  0
 25 28  1  0  0  0  0
 26 29  1  0  0  0  0
 27 30  1  0  0  0  0
 29 23  1  0  0  0  0
 29 28  2  0  0  0  0
 30 25  2  0  0  0  0
M  END
>  <MODEL>
5

>  <REMARK>
 VINA RESULT:      -8.7      1.982      6.310
  Name = 
  7 active torsions:
  status: ('A' for Active; 'I' for Inactive)
    1  A    between atoms: N_4  and  N_10
    2  A    between atoms: N_4  and  C_18
    3  A    between atoms: C_5  and  C_15
    4  A    between atoms: C_9  and  O_11
    5  A    between atoms: N_10  and  C_12
    6  A    between atoms: O_11  and  C_24
    7  A    between atoms: C_19  and  N_22
                            x       y       z     vdW  Elec       q    Type
                         _______ _______ _______ _____ _____    ______ ____

>  <TORSDO>
F 7

$$$$
=
 OpenBabel11032419273D

 30 32  0  0  1  0  0  0  0  0999 V2000
  188.7130  178.4790  139.1160 C   0  0  0  0  0  0  0  0  0  0  0  0
  191.9070  176.8490  139.5310 O   0  0  0  0  0  0  0  0  0  0  0  0
  188.2170  178.4330  140.5040 C   0  0  0  0  0  0  0  0  0  0  0  0
  188.9530  177.8200  141.4630 C   0  0  0  0  0  0  0  0  0  0  0  0
  190.1330  176.9440  141.1230 C   0  0  0  0  0  2  0  0  0  0  0  0
  188.0230  179.0210  138.2120 O   0  0  0  0  0  0  0  0  0  0  0  0
  189.9900  177.9340  138.7940 N   0  0  0  0  0  2  0  0  0  0  0  0
  190.7440  177.2500  139.7910 C   0  0  0  0  0  0  0  0  0  0  0  0
  188.1910  176.8030  143.6390 C   0  0  0  0  0  0  0  0  0  0  0  0
  188.0950  175.6580  143.1190 O   0  0  0  0  0  0  0  0  0  0  0  0
  188.6100  177.9250  142.8490 N   0  0  0  0  0  2  0  0  0  0  0  0
  190.1720  176.9090  145.7660 O   0  0  0  0  0  1  0  0  0  0  0  0
  186.2220  177.9140  146.7430 C   0  0  2  0  0  3  0  0  0  0  0  0
  187.8680  176.9720  145.0920 C   0  0  1  0  0  3  0  0  0  0  0  0
  189.0110  177.6810  145.8310 C   0  0  1  0  0  3  0  0  0  0  0  0
  187.3490  178.6830  147.4220 C   0  0  0  0  0  2  0  0  0  0  0  0
  188.6530  177.9020  147.2980 C   0  0  0  0  0  2  0  0  0  0  0  0
  186.5460  177.7240  145.2650 C   0  0  0  0  0  2  0  0  0  0  0  0
  185.0270  178.6250  146.8710 O   0  0  0  0  0  0  0  0  0  0  0  0
  183.3020  179.1130  145.4660 O   0  0  0  0  0  1  0  0  0  0  0  0
  184.6870  178.9910  145.5680 C   0  0  0  0  0  2  0  0  0  0  0  0
  186.9600  179.0620  140.7890 N   0  0  0  0  0  2  0  0  0  0  0  0
  185.8610  178.3560  141.2980 N   0  0  0  0  0  2  0  0  0  0  0  0
  183.0120  179.4870  139.1850 C   0  0  0  0  0  3  0  0  0  0  0  0
  182.1350  178.6620  141.2870 C   0  0  0  0  0  3  0  0  0  0  0  0
  184.3110  179.2030  139.6160 C   0  0  0  0  0  3  0  0  0  0  0  0
  180.2970  179.5690  139.4820 Cl  0  0  0  0  0  0  0  0  0  0  0  0
  183.4350  178.3780  141.7170 C   0  0  0  0  0  3  0  0  0  0  0  0
  184.5270  178.6480  140.8820 C   0  0  0  0  0  0  0  0  0  0  0  0
  181.9240  179.2150  140.0210 C   0  0  0  0  0  0  0  0  0  0  0  0
  1  3  1  0  0  0  0
  2  8  2  0  0  0  0
  3 22  1  0  0  0  0
  3  4  2  0  0  0  0
  4 11  1  0  0  0  0
  5  4  1  0  0  0  0
  6  1  2  0  0  0  0
  7  1  1  0  0  0  0
  7  8  1  0  0  0  0
  8  5  1  0  0  0  0
 10  9  2  0  0  0  0
 11  9  1  0  0  0  0
 13 19  1  6  0  0  0
 13 16  1  0  0  0  0
 14  9  1  6  0  0  0
 14 18  1  0  0  0  0
 14 15  1  0  0  0  0
 15 12  1  1  0  0  0
 15 17  1  0  0  0  0
 17 16  1  0  0  0  0
 18 13  1  0  0  0  0
 20 21  1  0  0  0  0
 21 19  1  0  0  0  0
 22 23  1  0  0  0  0
 24 26  2  0  0  0  0
 24 30  1  0  0  0  0
 25 28  1  0  0  0  0
 26 29  1  0  0  0  0
 27 30  1  0  0  0  0
 29 23  1  0  0  0  0
 29 28  2  0  0  0  0
 30 25  2  0  0  0  0
M  END
>  <MODEL>
6

>  <REMARK>
 VINA RESULT:      -8.5      1.977      3.682
  Name = 
  7 active torsions:
  status: ('A' for Active; 'I' for Inactive)
    1  A    between atoms: N_4  and  N_10
    2  A    between atoms: N_4  and  C_18
    3  A    between atoms: C_5  and  C_15
    4  A    between atoms: C_9  and  O_11
    5  A    between atoms: N_10  and  C_12
    6  A    between atoms: O_11  and  C_24
    7  A    between atoms: C_19  and  N_22
                            x       y       z     vdW  Elec       q    Type
                         _______ _______ _______ _____ _____    ______ ____

>  <TORSDO>
F 7

$$$$
=
 OpenBabel11032419273D

 30 32  0  0  1  0  0  0  0  0999 V2000
  190.2220  177.4220  140.6910 C   0  0  0  0  0  0  0  0  0  0  0  0
  188.4680  177.0370  137.5590 O   0  0  0  0  0  0  0  0  0  0  0  0
  189.1420  177.9830  141.5240 C   0  0  0  0  0  0  0  0  0  0  0  0
  187.9300  178.2410  140.9750 C   0  0  0  0  0  0  0  0  0  0  0  0
  187.7150  178.2340  139.4820 C   0  0  0  0  0  2  0  0  0  0  0  0
  191.3600  177.2060  141.1850 O   0  0  0  0  0  0  0  0  0  0  0  0
  189.9750  177.0950  139.3260 N   0  0  0  0  0  2  0  0  0  0  0  0
  188.7160  177.4070  138.7350 C   0  0  0  0  0  0  0  0  0  0  0  0
  185.5500  179.0260  141.2340 C   0  0  0  0  0  0  0  0  0  0  0  0
  185.4030  179.1260  139.9860 O   0  0  0  0  0  0  0  0  0  0  0  0
  186.8030  178.5940  141.7840 N   0  0  0  0  0  2  0  0  0  0  0  0
  182.7650  179.0670  140.3970 O   0  0  0  0  0  1  0  0  0  0  0  0
  183.5590  179.3420  144.5030 C   0  0  2  0  0  3  0  0  0  0  0  0
  184.3980  179.3600  142.1320 C   0  0  1  0  0  3  0  0  0  0  0  0
  183.1200  178.6410  141.6770 C   0  0  1  0  0  3  0  0  0  0  0  0
  182.3310  178.5560  144.0580 C   0  0  0  0  0  2  0  0  0  0  0  0
  181.9640  178.9390  142.6290 C   0  0  0  0  0  2  0  0  0  0  0  0
  184.7350  179.0210  143.5870 C   0  0  0  0  0  2  0  0  0  0  0  0
  183.8830  179.0000  145.8160 O   0  0  0  0  0  0  0  0  0  0  0  0
  185.7050  179.3750  147.1320 O   0  0  0  0  0  1  0  0  0  0  0  0
  185.2780  179.0120  145.8550 C   0  0  0  0  0  2  0  0  0  0  0  0
  189.4210  178.2240  142.9110 N   0  0  0  0  0  2  0  0  0  0  0  0
  189.0400  177.3330  143.9240 N   0  0  0  0  0  2  0  0  0  0  0  0
  190.4390  176.7550  147.3250 C   0  0  0  0  0  3  0  0  0  0  0  0
  192.0560  176.0010  145.6860 C   0  0  0  0  0  3  0  0  0  0  0  0
  189.5730  177.1350  146.2960 C   0  0  0  0  0  3  0  0  0  0  0  0
  192.7650  175.7120  148.3080 Cl  0  0  0  0  0  0  0  0  0  0  0  0
  191.1880  176.3800  144.6570 C   0  0  0  0  0  3  0  0  0  0  0  0
  189.9430  176.9490  144.9590 C   0  0  0  0  0  0  0  0  0  0  0  0
  191.6800  176.1870  147.0200 C   0  0  0  0  0  0  0  0  0  0  0  0
  1  6  2  0  0  0  0
  1  3  1  0  0  0  0
  2  8  2  0  0  0  0
  3 22  1  0  0  0  0
  4  3  2  0  0  0  0
  4 11  1  0  0  0  0
  5  4  1  0  0  0  0
  7  1  1  0  0  0  0
  8  7  1  0  0  0  0
  8  5  1  0  0  0  0
  9 11  1  0  0  0  0
 10  9  2  0  0  0  0
 13 19  1  1  0  0  0
 14  9  1  6  0  0  0
 14 18  1  0  0  0  0
 15 12  1  6  0  0  0
 15 14  1  0  0  0  0
 15 17  1  0  0  0  0
 16 13  1  0  0  0  0
 17 16  1  0  0  0  0
 18 13  1  0  0  0  0
 19 21  1  0  0  0  0
 21 20  1  0  0  0  0
 22 23  1  0  0  0  0
 23 29  1  0  0  0  0
 25 30  2  0  0  0  0
 26 24  2  0  0  0  0
 28 29  2  0  0  0  0
 28 25  1  0  0  0  0
 29 26  1  0  0  0  0
 30 24  1  0  0  0  0
 30 27  1  0  0  0  0
M  END
>  <MODEL>
7

>  <REMARK>
 VINA RESULT:      -8.2      3.371      6.826
  Name = 
  7 active torsions:
  status: ('A' for Active; 'I' for Inactive)
    1  A    between atoms: N_4  and  N_10
    2  A    between atoms: N_4  and  C_18
    3  A    between atoms: C_5  and  C_15
    4  A    between atoms: C_9  and  O_11
    5  A    between atoms: N_10  and  C_12
    6  A    between atoms: O_11  and  C_24
    7  A    between atoms: C_19  and  N_22
                            x       y       z     vdW  Elec       q    Type
                         _______ _______ _______ _____ _____    ______ ____

>  <TORSDO>
F 7

$$$$
=
 OpenBabel11032419273D

 30 32  0  0  1  0  0  0  0  0999 V2000
  183.3100  178.8640  141.0500 C   0  0  0  0  0  0  0  0  0  0  0  0
  180.5970  178.2170  143.3420 O   0  0  0  0  0  0  0  0  0  0  0  0
  184.3870  179.1770  142.0070 C   0  0  0  0  0  0  0  0  0  0  0  0
  184.1230  179.2030  143.3360 C   0  0  0  0  0  0  0  0  0  0  0  0
  182.7120  179.1900  143.8680 C   0  0  0  0  0  2  0  0  0  0  0  0
  183.5390  178.8660  139.8110 O   0  0  0  0  0  0  0  0  0  0  0  0
  182.0080  178.5280  141.5230 N   0  0  0  0  0  2  0  0  0  0  0  0
  181.7170  178.5990  142.9170 C   0  0  0  0  0  0  0  0  0  0  0  0
  186.0490  178.2140  144.6260 C   0  0  0  0  0  0  0  0  0  0  0  0
  185.9100  177.0970  144.0600 O   0  0  0  0  0  0  0  0  0  0  0  0
  185.1730  179.3040  144.3050 N   0  0  0  0  0  2  0  0  0  0  0  0
  185.6400  179.0740  147.3740 O   0  0  0  0  0  1  0  0  0  0  0  0
  189.4380  177.6340  146.3380 C   0  0  2  0  0  3  0  0  0  0  0  0
  187.1450  178.3890  145.6320 C   0  0  1  0  0  3  0  0  0  0  0  0
  186.6280  178.1410  147.0560 C   0  0  1  0  0  3  0  0  0  0  0  0
  188.9000  177.3120  147.7270 C   0  0  0  0  0  2  0  0  0  0  0  0
  187.7610  178.2640  148.0720 C   0  0  0  0  0  2  0  0  0  0  0  0
  188.3270  177.4730  145.3050 C   0  0  0  0  0  2  0  0  0  0  0  0
  190.4900  176.7700  146.0310 O   0  0  0  0  0  0  0  0  0  0  0  0
  192.3240  175.8880  147.0530 O   0  0  0  0  0  1  0  0  0  0  0  0
  191.0710  176.4630  147.2610 C   0  0  0  0  0  2  0  0  0  0  0  0
  185.6970  179.4340  141.4820 N   0  0  0  0  0  2  0  0  0  0  0  0
  186.2640  178.6640  140.4560 N   0  0  0  0  0  2  0  0  0  0  0  0
  189.6940  177.9100  139.2210 C   0  0  0  0  0  3  0  0  0  0  0  0
  189.6920  177.7550  141.6380 C   0  0  0  0  0  3  0  0  0  0  0  0
  188.3340  178.2340  139.2400 C   0  0  0  0  0  3  0  0  0  0  0  0
  192.0750  177.2650  140.3960 Cl  0  0  0  0  0  0  0  0  0  0  0  0
  188.3320  178.0810  141.6570 C   0  0  0  0  0  3  0  0  0  0  0  0
  187.6490  178.3210  140.4570 C   0  0  0  0  0  0  0  0  0  0  0  0
  190.3730  177.6720  140.4200 C   0  0  0  0  0  0  0  0  0  0  0  0
  1  7  1  0  0  0  0
  1  3  1  0  0  0  0
  3  4  2  0  0  0  0
  4  5  1  0  0  0  0
  4 11  1  0  0  0  0
  6  1  2  0  0  0  0
  7  8  1  0  0  0  0
  8  2  2  0  0  0  0
  8  5  1  0  0  0  0
 10  9  2  0  0  0  0
 11  9  1  0  0  0  0
 13 19  1  6  0  0  0
 13 16  1  0  0  0  0
 14  9  1  6  0  0  0
 14 15  1  0  0  0  0
 15 12  1  1  0  0  0
 15 17  1  0  0  0  0
 16 17  1  0  0  0  0
 18 14  1  0  0  0  0
 18 13  1  0  0  0  0
 19 21  1  0  0  0  0
 20 21  1  0  0  0  0
 22  3  1  0  0  0  0
 23 29  1  0  0  0  0
 23 22  1  0  0  0  0
 24 26  2  0  0  0  0
 24 30  1  0  0  0  0
 25 28  1  0  0  0  0
 26 29  1  0  0  0  0
 27 30  1  0  0  0  0
 29 28  2  0  0  0  0
 30 25  2  0  0  0  0
M  END
>  <MODEL>
8

>  <REMARK>
 VINA RESULT:      -8.1      3.081      5.603
  Name = 
  7 active torsions:
  status: ('A' for Active; 'I' for Inactive)
    1  A    between atoms: N_4  and  N_10
    2  A    between atoms: N_4  and  C_18
    3  A    between atoms: C_5  and  C_15
    4  A    between atoms: C_9  and  O_11
    5  A    between atoms: N_10  and  C_12
    6  A    between atoms: O_11  and  C_24
    7  A    between atoms: C_19  and  N_22
                            x       y       z     vdW  Elec       q    Type
                         _______ _______ _______ _____ _____    ______ ____

>  <TORSDO>
F 7

$$$$
=
 OpenBabel11032419273D

 30 32  0  0  1  0  0  0  0  0999 V2000
  188.4150  177.5870  139.0270 C   0  0  0  0  0  0  0  0  0  0  0  0
  191.9430  176.8220  138.9450 O   0  0  0  0  0  0  0  0  0  0  0  0
  188.2400  177.8440  140.4680 C   0  0  0  0  0  0  0  0  0  0  0  0
  189.2900  177.6940  141.3120 C   0  0  0  0  0  0  0  0  0  0  0  0
  190.5650  177.0130  140.8840 C   0  0  0  0  0  2  0  0  0  0  0  0
  187.4400  177.6950  138.2380 O   0  0  0  0  0  0  0  0  0  0  0  0
  189.6990  177.2400  138.5120 N   0  0  0  0  0  2  0  0  0  0  0  0
  190.7920  177.0380  139.4050 C   0  0  0  0  0  0  0  0  0  0  0  0
  188.6840  177.3050  143.7270 C   0  0  0  0  0  0  0  0  0  0  0  0
  188.2350  176.1550  143.4730 O   0  0  0  0  0  0  0  0  0  0  0  0
  189.2180  178.1230  142.6770 N   0  0  0  0  0  2  0  0  0  0  0  0
  186.2810  178.1400  145.1360 O   0  0  0  0  0  1  0  0  0  0  0  0
  189.7910  177.7000  147.3840 C   0  0  2  0  0  3  0  0  0  0  0  0
  188.6580  177.8010  145.1410 C   0  0  1  0  0  3  0  0  0  0  0  0
  187.3130  177.4850  145.8090 C   0  0  1  0  0  3  0  0  0  0  0  0
  188.4680  177.3050  148.0300 C   0  0  0  0  0  2  0  0  0  0  0  0
  187.3120  177.9410  147.2670 C   0  0  0  0  0  2  0  0  0  0  0  0
  189.8240  177.2120  145.9390 C   0  0  0  0  0  2  0  0  0  0  0  0
  190.8480  177.1280  148.0940 O   0  0  0  0  0  0  0  0  0  0  0  0
  192.7620  175.9590  147.6960 O   0  0  0  0  0  1  0  0  0  0  0  0
  191.5510  176.3800  147.1480 C   0  0  0  0  0  2  0  0  0  0  0  0
  186.9460  178.2630  140.9220 N   0  0  0  0  0  2  0  0  0  0  0  0
  186.0830  179.0370  140.1340 N   0  0  0  0  0  2  0  0  0  0  0  0
  182.4410  179.3070  139.4120 C   0  0  0  0  0  3  0  0  0  0  0  0
  182.7220  178.5880  141.7080 C   0  0  0  0  0  3  0  0  0  0  0  0
  183.8290  179.3440  139.2530 C   0  0  0  0  0  3  0  0  0  0  0  0
  180.1490  178.8810  140.8390 Cl  0  0  0  0  0  0  0  0  0  0  0  0
  184.1110  178.6240  141.5480 C   0  0  0  0  0  3  0  0  0  0  0  0
  184.6680  179.0030  140.3200 C   0  0  0  0  0  0  0  0  0  0  0  0
  181.8880  178.9270  140.6400 C   0  0  0  0  0  0  0  0  0  0  0  0
  1  3  1  0  0  0  0
  2  8  2  0  0  0  0
  3 22  1  0  0  0  0
  3  4  2  0  0  0  0
  4 11  1  0  0  0  0
  5  4  1  0  0  0  0
  6  1  2  0  0  0  0
  7  1  1  0  0  0  0
  7  8  1  0  0  0  0
  8  5  1  0  0  0  0
 10  9  2  0  0  0  0
 11  9  1  0  0  0  0
 13 16  1  0  0  0  0
 13 19  1  1  0  0  0
 14  9  1  6  0  0  0
 14 15  1  0  0  0  0
 14 18  1  0  0  0  0
 15 12  1  6  0  0  0
 15 17  1  0  0  0  0
 17 16  1  0  0  0  0
 18 13  1  0  0  0  0
 21 20  1  0  0  0  0
 21 19  1  0  0  0  0
 23 29  1  0  0  0  0
 23 22  1  0  0  0  0
 24 30  1  0  0  0  0
 26 24  2  0  0  0  0
 26 29  1  0  0  0  0
 28 25  1  0  0  0  0
 29 28  2  0  0  0  0
 30 27  1  0  0  0  0
 30 25  2  0  0  0  0
M  END
>  <MODEL>
9

>  <REMARK>
 VINA RESULT:      -8.1      1.377      1.857
  Name = 
  7 active torsions:
  status: ('A' for Active; 'I' for Inactive)
    1  A    between atoms: N_4  and  N_10
    2  A    between atoms: N_4  and  C_18
    3  A    between atoms: C_5  and  C_15
    4  A    between atoms: C_9  and  O_11
    5  A    between atoms: N_10  and  C_12
    6  A    between atoms: O_11  and  C_24
    7  A    between atoms: C_19  and  N_22
                            x       y       z     vdW  Elec       q    Type
                         _______ _______ _______ _____ _____    ______ ____

>  <TORSDO>
F 7

$$$$
