=
 OpenBabel11042410473D

 49 54  0  0  1  0  0  0  0  0999 V2000
  182.7350  178.4310  141.6090 C   0  0  0  0  0  3  0  0  0  0  0  0
  186.1920  177.3130  144.9540 C   0  0  0  0  0  0  0  0  0  0  0  0
  186.1050  176.4020  144.0880 O   0  0  0  0  0  0  0  0  0  0  0  0
  188.8700  177.7040  143.4790 N   0  0  0  0  0  0  0  0  0  0  0  0
  187.4680  177.7690  145.4130 N   0  0  0  0  0  2  0  0  0  0  0  0
  184.6350  179.2190  144.8110 C   0  0  0  0  0  2  0  0  0  0  0  0
  188.7190  177.5200  144.7570 C   0  0  0  0  0  0  0  0  0  0  0  0
  183.5800  179.0120  139.3810 C   0  0  0  0  0  3  0  0  0  0  0  0
  185.6730  178.8620  140.7330 C   0  0  0  0  0  0  0  0  0  0  0  0
  187.0810  178.7450  140.4590 N   0  0  0  0  0  0  0  0  0  0  0  0
  188.0540  178.4120  141.2590 C   0  0  0  0  0  0  0  0  0  0  0  0
  184.9550  177.9130  145.5220 C   0  0  0  0  0  2  0  0  0  0  0  0
  185.1790  178.6110  141.9610 C   0  0  0  0  0  3  0  0  0  0  0  0
  182.8760  177.9810  140.1930 C   0  0  2  0  0  3  0  0  0  0  0  0
  187.8310  178.1430  142.6460 N   0  0  0  0  0  2  0  0  0  0  0  0
  183.5080  179.0350  143.8450 C   0  0  0  0  0  0  0  0  0  0  0  0
  183.7690  178.6990  142.4200 C   0  0  0  0  0  0  0  0  0  0  0  0
  184.8410  179.3680  139.6210 C   0  0  0  0  0  3  0  0  0  0  0  0
  182.2680  179.1760  144.3090 C   0  0  0  0  0  2  0  0  0  0  0  0
  192.0760  176.4750  147.1060 C   0  0  0  0  0  3  0  0  0  0  0  0
  192.0630  176.2350  145.7340 C   0  0  0  0  0  3  0  0  0  0  0  0
  190.9550  177.0710  147.6830 C   0  0  0  0  0  3  0  0  0  0  0  0
  189.8880  177.4000  146.9110 N   0  0  0  0  0  0  0  0  0  0  0  0
  190.9770  176.5780  144.9930 N   0  0  0  0  0  0  0  0  0  0  0  0
  189.8900  177.1590  145.5710 C   0  0  0  0  0  0  0  0  0  0  0  0
  189.4430  178.3590  140.7100 C   0  0  0  0  0  2  0  0  0  0  0  0
  192.3150  175.2730  137.9730 C   0  0  0  0  0  0  0  0  0  0  0  0
  193.3660  175.8780  138.4730 C   0  0  0  0  0  0  0  0  0  0  0  0
  192.7310  174.2030  137.0280 C   0  0  0  0  0  2  0  0  0  0  0  0
  190.8500  176.7590  139.2980 N   0  0  0  0  0  0  0  0  0  0  0  0
  189.5640  177.2570  139.7030 C   0  0  0  0  0  0  0  0  0  0  0  0
  194.5430  175.3640  137.9740 O   0  0  0  0  0  0  0  0  0  0  0  0
  194.2650  174.3240  137.0400 C   0  0  1  0  0  3  0  0  0  0  0  0
  188.5100  176.7550  139.2270 O   0  0  0  0  0  0  0  0  0  0  0  0
  190.9070  175.6230  138.3580 C   0  0  0  0  0  2  0  0  0  0  0  0
  193.2610  176.9660  139.4430 C   0  0  0  0  0  3  0  0  0  0  0  0
  192.0480  177.3730  139.8230 C   0  0  0  0  0  3  0  0  0  0  0  0
  195.2270  172.9200  138.6690 O   0  0  0  0  0  0  0  0  0  0  0  0
  194.8720  173.0430  137.5080 C   0  0  0  0  0  3  0  0  0  0  0  0
  181.5040  177.7160  139.5960 C   0  0  0  0  0  2  0  0  0  0  0  0
  181.4270  176.3100  139.0150 C   0  0  2  0  0  3  0  0  0  0  0  0
  180.0740  174.2320  139.0790 C   0  0  0  0  0  2  0  0  0  0  0  0
  180.5380  175.4330  139.8830 C   0  0  0  0  0  3  0  0  0  0  0  0
  179.1340  175.3930  139.3100 C   0  0  0  0  0  2  0  0  0  0  0  0
  182.8330  175.7150  138.9660 C   0  0  0  0  0  2  0  0  0  0  0  0
  184.6250  176.1570  137.2520 C   0  0  0  0  0  1  0  0  0  0  0  0
  183.5580  173.9440  137.4060 C   0  0  0  0  0  1  0  0  0  0  0  0
  182.2720  175.8500  136.5270 C   0  0  0  0  0  1  0  0  0  0  0  0
  183.3200  175.4340  137.5430 C   0  0  0  0  0  0  0  0  0  0  0  0
  1 17  2  0  0  0  0
  2  5  1  0  0  0  0
  2 12  1  0  0  0  0
  3  2  2  0  0  0  0
  4  7  2  0  0  0  0
  6 12  1  0  0  0  0
  7  5  1  0  0  0  0
  7 25  1  0  0  0  0
  8 18  2  0  0  0  0
  8 14  1  0  0  0  0
  9 13  2  0  0  0  0
 10  9  1  0  0  0  0
 10 11  2  0  0  0  0
 11 15  1  0  0  0  0
 13 17  1  0  0  0  0
 14 40  1  6  0  0  0
 14  1  1  0  0  0  0
 15  4  1  0  0  0  0
 16 19  2  0  0  0  0
 16  6  1  0  0  0  0
 17 16  1  0  0  0  0
 18  9  1  0  0  0  0
 20 22  2  0  0  0  0
 21 20  1  0  0  0  0
 23 22  1  0  0  0  0
 24 25  1  0  0  0  0
 24 21  2  0  0  0  0
 25 23  2  0  0  0  0
 26 11  1  0  0  0  0
 27 35  1  0  0  0  0
 27 28  2  0  0  0  0
 28 36  1  0  0  0  0
 29 33  1  0  0  0  0
 29 27  1  0  0  0  0
 30 31  1  0  0  0  0
 30 37  1  0  0  0  0
 31 26  1  0  0  0  0
 32 28  1  0  0  0  0
 33 39  1  1  0  0  0
 33 32  1  0  0  0  0
 34 31  2  0  0  0  0
 35 30  1  0  0  0  0
 36 37  2  0  0  0  0
 39 38  2  0  0  0  0
 41 45  1  1  0  0  0
 41 40  1  0  0  0  0
 41 43  1  0  0  0  0
 42 44  1  0  0  0  0
 42 43  1  0  0  0  0
 44 43  1  0  0  0  0
 46 49  1  0  0  0  0
 47 49  1  0  0  0  0
 48 49  1  0  0  0  0
 49 45  1  0  0  0  0
M  END
>  <MODEL>
1

>  <REMARK>
 VINA RESULT:      -8.8      0.000      0.000
  Name = 
  9 active torsions:
  status: ('A' for Active; 'I' for Inactive)
    1  A    between atoms: C_12  and  C_16
    2  A    between atoms: C_15  and  C_49
    3  A    between atoms: C_16  and  C_26
    4  A    between atoms: C_16  and  C_35
    5  A    between atoms: C_20  and  C_22
    6  A    between atoms: C_20  and  C_31
    7  A    between atoms: C_25  and  C_30
    8  A    between atoms: C_26  and  C_39
    9  A    between atoms: C_35  and  C_42
                            x       y       z     vdW  Elec       q    Type
                         _______ _______ _______ _____ _____    ______ ____

>  <TORSDO>
F 9

$$$$
=
 OpenBabel11042410473D

 49 54  0  0  1  0  0  0  0  0999 V2000
  182.8440  178.5290  141.7340 C   0  0  0  0  0  3  0  0  0  0  0  0
  186.2450  177.4010  145.1330 C   0  0  0  0  0  0  0  0  0  0  0  0
  186.1260  176.4650  144.2990 O   0  0  0  0  0  0  0  0  0  0  0  0
  188.9400  177.6380  143.6560 N   0  0  0  0  0  0  0  0  0  0  0  0
  187.5360  177.8250  145.5810 N   0  0  0  0  0  2  0  0  0  0  0  0
  184.7620  179.3590  144.9150 C   0  0  0  0  0  2  0  0  0  0  0  0
  188.7790  177.5060  144.9400 C   0  0  0  0  0  0  0  0  0  0  0  0
  183.7160  178.9970  139.4910 C   0  0  0  0  0  3  0  0  0  0  0  0
  185.7980  178.8170  140.8570 C   0  0  0  0  0  0  0  0  0  0  0  0
  187.2010  178.6370  140.5930 N   0  0  0  0  0  0  0  0  0  0  0  0
  188.1590  178.2960  141.4100 C   0  0  0  0  0  0  0  0  0  0  0  0
  185.0300  178.0680  145.6740 C   0  0  0  0  0  2  0  0  0  0  0  0
  185.2920  178.6290  142.0900 C   0  0  0  0  0  3  0  0  0  0  0  0
  182.9710  178.0240  140.3360 C   0  0  2  0  0  3  0  0  0  0  0  0
  187.9210  178.0860  142.8040 N   0  0  0  0  0  2  0  0  0  0  0  0
  183.6320  179.1830  143.9510 C   0  0  0  0  0  0  0  0  0  0  0  0
  183.8840  178.7860  142.5400 C   0  0  0  0  0  0  0  0  0  0  0  0
  184.9890  179.3140  139.7240 C   0  0  0  0  0  3  0  0  0  0  0  0
  182.3970  179.3880  144.4040 C   0  0  0  0  0  2  0  0  0  0  0  0
  192.1020  176.4310  147.3220 C   0  0  0  0  0  3  0  0  0  0  0  0
  191.0040  177.0790  147.8820 C   0  0  0  0  0  3  0  0  0  0  0  0
  192.0760  176.1440  145.9580 C   0  0  0  0  0  3  0  0  0  0  0  0
  190.9980  176.4960  145.2100 N   0  0  0  0  0  0  0  0  0  0  0  0
  189.9440  177.4170  147.1030 N   0  0  0  0  0  0  0  0  0  0  0  0
  189.9330  177.1300  145.7720 C   0  0  0  0  0  0  0  0  0  0  0  0
  189.5460  178.1710  140.8690 C   0  0  0  0  0  2  0  0  0  0  0  0
  192.1600  175.4310  137.5640 C   0  0  0  0  0  0  0  0  0  0  0  0
  193.2550  175.9600  138.0570 C   0  0  0  0  0  0  0  0  0  0  0  0
  192.4900  174.4850  136.4640 C   0  0  0  0  0  2  0  0  0  0  0  0
  190.8210  176.7510  139.1680 N   0  0  0  0  0  0  0  0  0  0  0  0
  189.5760  177.2040  139.7250 C   0  0  0  0  0  0  0  0  0  0  0  0
  194.3840  175.5030  137.4120 O   0  0  0  0  0  0  0  0  0  0  0  0
  194.0220  174.5920  136.3790 C   0  0  1  0  0  3  0  0  0  0  0  0
  188.4820  176.7740  139.2700 O   0  0  0  0  0  0  0  0  0  0  0  0
  190.7900  175.7410  138.0920 C   0  0  0  0  0  2  0  0  0  0  0  0
  193.2390  176.9180  139.1610 C   0  0  0  0  0  3  0  0  0  0  0  0
  192.0630  177.2840  139.6770 C   0  0  0  0  0  3  0  0  0  0  0  0
  195.2300  173.0460  137.6840 O   0  0  0  0  0  0  0  0  0  0  0  0
  194.6390  173.2570  136.6370 C   0  0  0  0  0  3  0  0  0  0  0  0
  181.5930  177.7890  139.7430 C   0  0  0  0  0  2  0  0  0  0  0  0
  181.6100  177.9810  138.2320 C   0  0  2  0  0  3  0  0  0  0  0  0
  180.4280  178.9950  136.3020 C   0  0  0  0  0  2  0  0  0  0  0  0
  180.5210  178.9570  137.8160 C   0  0  0  0  0  3  0  0  0  0  0  0
  181.1310  180.1110  137.0410 C   0  0  0  0  0  2  0  0  0  0  0  0
  181.3650  176.6320  137.5580 C   0  0  0  0  0  2  0  0  0  0  0  0
  182.3010  175.0780  135.8110 C   0  0  0  0  0  1  0  0  0  0  0  0
  183.4980  177.1390  136.4230 C   0  0  0  0  0  1  0  0  0  0  0  0
  183.4160  175.2670  138.0190 C   0  0  0  0  0  1  0  0  0  0  0  0
  182.6330  176.0180  136.9580 C   0  0  0  0  0  0  0  0  0  0  0  0
  1 17  2  0  0  0  0
  2  5  1  0  0  0  0
  2 12  1  0  0  0  0
  3  2  2  0  0  0  0
  4  7  2  0  0  0  0
  6 12  1  0  0  0  0
  7  5  1  0  0  0  0
  7 25  1  0  0  0  0
  8 18  2  0  0  0  0
  8 14  1  0  0  0  0
  9 13  2  0  0  0  0
 10  9  1  0  0  0  0
 10 11  2  0  0  0  0
 11 15  1  0  0  0  0
 13 17  1  0  0  0  0
 14 40  1  6  0  0  0
 14  1  1  0  0  0  0
 15  4  1  0  0  0  0
 16 19  2  0  0  0  0
 16  6  1  0  0  0  0
 17 16  1  0  0  0  0
 18  9  1  0  0  0  0
 20 21  1  0  0  0  0
 22 20  2  0  0  0  0
 23 25  2  0  0  0  0
 23 22  1  0  0  0  0
 24 21  2  0  0  0  0
 25 24  1  0  0  0  0
 26 11  1  0  0  0  0
 27 28  2  0  0  0  0
 27 35  1  0  0  0  0
 28 36  1  0  0  0  0
 29 27  1  0  0  0  0
 30 37  1  0  0  0  0
 30 31  1  0  0  0  0
 31 26  1  0  0  0  0
 32 28  1  0  0  0  0
 33 29  1  0  0  0  0
 33 39  1  1  0  0  0
 33 32  1  0  0  0  0
 34 31  2  0  0  0  0
 35 30  1  0  0  0  0
 36 37  2  0  0  0  0
 39 38  2  0  0  0  0
 41 45  1  6  0  0  0
 41 40  1  0  0  0  0
 42 44  1  0  0  0  0
 42 43  1  0  0  0  0
 43 41  1  0  0  0  0
 44 43  1  0  0  0  0
 46 49  1  0  0  0  0
 47 49  1  0  0  0  0
 49 45  1  0  0  0  0
 49 48  1  0  0  0  0
M  END
>  <MODEL>
2

>  <REMARK>
 VINA RESULT:      -8.4      0.961      1.687
  Name = 
  9 active torsions:
  status: ('A' for Active; 'I' for Inactive)
    1  A    between atoms: C_12  and  C_16
    2  A    between atoms: C_15  and  C_49
    3  A    between atoms: C_16  and  C_26
    4  A    between atoms: C_16  and  C_35
    5  A    between atoms: C_20  and  C_22
    6  A    between atoms: C_20  and  C_31
    7  A    between atoms: C_25  and  C_30
    8  A    between atoms: C_26  and  C_39
    9  A    between atoms: C_35  and  C_42
                            x       y       z     vdW  Elec       q    Type
                         _______ _______ _______ _____ _____    ______ ____

>  <TORSDO>
F 9

$$$$
=
 OpenBabel11042410473D

 49 54  0  0  1  0  0  0  0  0999 V2000
  182.7810  178.4730  141.4810 C   0  0  0  0  0  3  0  0  0  0  0  0
  186.1360  177.4530  144.9580 C   0  0  0  0  0  0  0  0  0  0  0  0
  186.0440  176.4990  144.1400 O   0  0  0  0  0  0  0  0  0  0  0  0
  188.8540  177.6980  143.5230 N   0  0  0  0  0  0  0  0  0  0  0  0
  187.4140  177.9010  145.4200 N   0  0  0  0  0  2  0  0  0  0  0  0
  184.6330  179.3870  144.6780 C   0  0  0  0  0  2  0  0  0  0  0  0
  188.6720  177.5870  144.8060 C   0  0  0  0  0  0  0  0  0  0  0  0
  183.6860  178.9110  139.2450 C   0  0  0  0  0  3  0  0  0  0  0  0
  185.7450  178.7840  140.6490 C   0  0  0  0  0  0  0  0  0  0  0  0
  187.1550  178.6170  140.4130 N   0  0  0  0  0  0  0  0  0  0  0  0
  188.1030  178.3040  141.2520 C   0  0  0  0  0  0  0  0  0  0  0  0
  184.9030  178.1130  145.4650 C   0  0  0  0  0  2  0  0  0  0  0  0
  185.2200  178.6120  141.8770 C   0  0  0  0  0  3  0  0  0  0  0  0
  182.9390  177.9440  140.0940 C   0  0  2  0  0  3  0  0  0  0  0  0
  187.8440  178.1160  142.6450 N   0  0  0  0  0  2  0  0  0  0  0  0
  183.5220  179.1770  143.6980 C   0  0  0  0  0  0  0  0  0  0  0  0
  183.8040  178.7590  142.3000 C   0  0  0  0  0  0  0  0  0  0  0  0
  184.9500  179.2480  139.4930 C   0  0  0  0  0  3  0  0  0  0  0  0
  182.2760  179.3740  144.1270 C   0  0  0  0  0  2  0  0  0  0  0  0
  191.9510  176.5890  147.2810 C   0  0  0  0  0  3  0  0  0  0  0  0
  191.9850  176.3300  145.9130 C   0  0  0  0  0  3  0  0  0  0  0  0
  190.8090  177.1870  147.8120 C   0  0  0  0  0  3  0  0  0  0  0  0
  189.7670  177.5020  147.0000 N   0  0  0  0  0  0  0  0  0  0  0  0
  190.9240  176.6580  145.1310 N   0  0  0  0  0  0  0  0  0  0  0  0
  189.8160  177.2420  145.6640 C   0  0  0  0  0  0  0  0  0  0  0  0
  189.5010  178.1870  140.7370 C   0  0  0  0  0  2  0  0  0  0  0  0
  192.2160  175.3490  137.6010 C   0  0  0  0  0  0  0  0  0  0  0  0
  193.2950  175.8920  138.1140 C   0  0  0  0  0  0  0  0  0  0  0  0
  192.5790  174.3710  136.5410 C   0  0  0  0  0  2  0  0  0  0  0  0
  190.8280  176.7170  139.1210 N   0  0  0  0  0  0  0  0  0  0  0  0
  189.5660  177.1870  139.6240 C   0  0  0  0  0  0  0  0  0  0  0  0
  194.4440  175.4160  137.5190 O   0  0  0  0  0  0  0  0  0  0  0  0
  194.1140  174.4740  136.5020 C   0  0  1  0  0  3  0  0  0  0  0  0
  188.4870  176.7450  139.1460 O   0  0  0  0  0  0  0  0  0  0  0  0
  190.8300  175.6760  138.0740 C   0  0  0  0  0  2  0  0  0  0  0  0
  193.2450  176.8820  139.1870 C   0  0  0  0  0  3  0  0  0  0  0  0
  192.0540  177.2640  139.6540 C   0  0  0  0  0  3  0  0  0  0  0  0
  194.6930  172.2480  135.9940 O   0  0  0  0  0  0  0  0  0  0  0  0
  194.7200  173.1470  136.8190 C   0  0  0  0  0  3  0  0  0  0  0  0
  181.5740  177.6800  139.4830 C   0  0  0  0  0  2  0  0  0  0  0  0
  180.7260  178.9460  139.4760 C   0  0  2  0  0  3  0  0  0  0  0  0
  179.2390  179.7450  141.2930 C   0  0  0  0  0  2  0  0  0  0  0  0
  179.4140  178.7010  140.2060 C   0  0  0  0  0  3  0  0  0  0  0  0
  179.6890  178.3480  141.6560 C   0  0  0  0  0  2  0  0  0  0  0  0
  180.4360  179.3400  138.0300 C   0  0  0  0  0  2  0  0  0  0  0  0
  181.5320  181.5210  138.6500 C   0  0  0  0  0  1  0  0  0  0  0  0
  180.7860  181.1060  136.3410 C   0  0  0  0  0  1  0  0  0  0  0  0
  179.1120  181.4670  138.1090 C   0  0  0  0  0  1  0  0  0  0  0  0
  180.4650  180.8530  137.7990 C   0  0  0  0  0  0  0  0  0  0  0  0
  1 17  2  0  0  0  0
  2  5  1  0  0  0  0
  2 12  1  0  0  0  0
  3  2  2  0  0  0  0
  4  7  2  0  0  0  0
  6 12  1  0  0  0  0
  7  5  1  0  0  0  0
  7 25  1  0  0  0  0
  8 18  2  0  0  0  0
  8 14  1  0  0  0  0
  9 13  2  0  0  0  0
 10  9  1  0  0  0  0
 10 11  2  0  0  0  0
 11 15  1  0  0  0  0
 13 17  1  0  0  0  0
 14 40  1  6  0  0  0
 14  1  1  0  0  0  0
 15  4  1  0  0  0  0
 16 19  2  0  0  0  0
 16  6  1  0  0  0  0
 17 16  1  0  0  0  0
 18  9  1  0  0  0  0
 20 22  2  0  0  0  0
 21 20  1  0  0  0  0
 23 22  1  0  0  0  0
 24 25  1  0  0  0  0
 24 21  2  0  0  0  0
 25 23  2  0  0  0  0
 26 11  1  0  0  0  0
 27 35  1  0  0  0  0
 27 28  2  0  0  0  0
 28 36  1  0  0  0  0
 29 27  1  0  0  0  0
 30 31  1  0  0  0  0
 30 37  1  0  0  0  0
 31 26  1  0  0  0  0
 32 28  1  0  0  0  0
 33 29  1  0  0  0  0
 33 39  1  1  0  0  0
 33 32  1  0  0  0  0
 34 31  2  0  0  0  0
 35 30  1  0  0  0  0
 36 37  2  0  0  0  0
 38 39  2  0  0  0  0
 41 45  1  6  0  0  0
 41 40  1  0  0  0  0
 41 43  1  0  0  0  0
 42 44  1  0  0  0  0
 43 42  1  0  0  0  0
 43 44  1  0  0  0  0
 47 49  1  0  0  0  0
 49 45  1  0  0  0  0
 49 48  1  0  0  0  0
 49 46  1  0  0  0  0
M  END
>  <MODEL>
3

>  <REMARK>
 VINA RESULT:      -8.0      1.521      2.401
  Name = 
  9 active torsions:
  status: ('A' for Active; 'I' for Inactive)
    1  A    between atoms: C_12  and  C_16
    2  A    between atoms: C_15  and  C_49
    3  A    between atoms: C_16  and  C_26
    4  A    between atoms: C_16  and  C_35
    5  A    between atoms: C_20  and  C_22
    6  A    between atoms: C_20  and  C_31
    7  A    between atoms: C_25  and  C_30
    8  A    between atoms: C_26  and  C_39
    9  A    between atoms: C_35  and  C_42
                            x       y       z     vdW  Elec       q    Type
                         _______ _______ _______ _____ _____    ______ ____

>  <TORSDO>
F 9

$$$$
=
 OpenBabel11042410473D

 49 54  0  0  1  0  0  0  0  0999 V2000
  184.9260  176.4470  135.5670 C   0  0  0  0  0  3  0  0  0  0  0  0
  181.3740  177.4260  138.8560 C   0  0  0  0  0  0  0  0  0  0  0  0
  182.0480  176.4260  139.2190 O   0  0  0  0  0  0  0  0  0  0  0  0
  182.8570  178.6150  141.2830 N   0  0  0  0  0  0  0  0  0  0  0  0
  180.9930  178.4340  139.7980 N   0  0  0  0  0  2  0  0  0  0  0  0
  181.9090  178.4780  136.6910 C   0  0  0  0  0  2  0  0  0  0  0  0
  181.5690  178.6080  141.1000 C   0  0  0  0  0  0  0  0  0  0  0  0
  187.2100  176.9300  136.3140 C   0  0  0  0  0  3  0  0  0  0  0  0
  185.8240  177.8800  138.1590 C   0  0  0  0  0  0  0  0  0  0  0  0
  186.0480  178.3020  139.5170 N   0  0  0  0  0  0  0  0  0  0  0  0
  185.1840  178.5370  140.4630 C   0  0  0  0  0  0  0  0  0  0  0  0
  180.9530  177.5580  137.4350 C   0  0  0  0  0  2  0  0  0  0  0  0
  184.5780  177.6650  137.6940 C   0  0  0  0  0  3  0  0  0  0  0  0
  186.2250  175.8580  136.0050 C   0  0  2  0  0  3  0  0  0  0  0  0
  183.7750  178.4430  140.2370 N   0  0  0  0  0  2  0  0  0  0  0  0
  182.8380  177.6870  135.8250 C   0  0  0  0  0  0  0  0  0  0  0  0
  184.1660  177.2480  136.3290 C   0  0  0  0  0  0  0  0  0  0  0  0
  187.0250  177.8040  137.3020 C   0  0  0  0  0  3  0  0  0  0  0  0
  182.4290  177.3890  134.5940 C   0  0  0  0  0  2  0  0  0  0  0  0
  179.0310  179.4480  144.3750 C   0  0  0  0  0  3  0  0  0  0  0  0
  179.0140  180.2490  143.2360 C   0  0  0  0  0  3  0  0  0  0  0  0
  179.9050  178.3610  144.4060 C   0  0  0  0  0  3  0  0  0  0  0  0
  180.7110  178.1080  143.3430 N   0  0  0  0  0  0  0  0  0  0  0  0
  179.8350  179.9650  142.1920 N   0  0  0  0  0  0  0  0  0  0  0  0
  180.6830  178.9010  142.2370 C   0  0  0  0  0  0  0  0  0  0  0  0
  185.6910  178.9610  141.8040 C   0  0  0  0  0  2  0  0  0  0  0  0
  189.7560  177.6750  144.4660 C   0  0  0  0  0  0  0  0  0  0  0  0
  188.9710  177.5220  145.5070 C   0  0  0  0  0  0  0  0  0  0  0  0
  191.1670  177.3810  144.8310 C   0  0  0  0  0  2  0  0  0  0  0  0
  187.7940  178.3120  143.1040 N   0  0  0  0  0  0  0  0  0  0  0  0
  187.1730  178.7610  141.8880 C   0  0  0  0  0  0  0  0  0  0  0  0
  189.6750  177.1500  146.6320 O   0  0  0  0  0  0  0  0  0  0  0  0
  191.0640  177.0540  146.3300 C   0  0  1  0  0  3  0  0  0  0  0  0
  187.8710  178.9750  140.8600 O   0  0  0  0  0  0  0  0  0  0  0  0
  189.2480  178.0610  143.1080 C   0  0  0  0  0  2  0  0  0  0  0  0
  187.5270  177.7310  145.4420 C   0  0  0  0  0  3  0  0  0  0  0  0
  186.9830  178.1100  144.2830 C   0  0  0  0  0  3  0  0  0  0  0  0
  192.0620  175.3770  147.6500 O   0  0  0  0  0  0  0  0  0  0  0  0
  191.5470  175.6640  146.5810 C   0  0  0  0  0  3  0  0  0  0  0  0
  186.7790  174.9590  134.9140 C   0  0  0  0  0  2  0  0  0  0  0  0
  186.6300  173.4900  135.2910 C   0  0  2  0  0  3  0  0  0  0  0  0
  187.9410  171.4050  135.5820 C   0  0  0  0  0  2  0  0  0  0  0  0
  187.8310  172.6990  134.7970 C   0  0  0  0  0  3  0  0  0  0  0  0
  188.8540  172.5650  135.9100 C   0  0  0  0  0  2  0  0  0  0  0  0
  185.3610  172.9380  134.6470 C   0  0  0  0  0  2  0  0  0  0  0  0
  183.1930  173.7740  135.6190 C   0  0  0  0  0  1  0  0  0  0  0  0
  183.5700  171.3650  135.2880 C   0  0  0  0  0  1  0  0  0  0  0  0
  184.8000  172.5510  137.0590 C   0  0  0  0  0  1  0  0  0  0  0  0
  184.2390  172.6730  135.6540 C   0  0  0  0  0  0  0  0  0  0  0  0
  1 14  1  0  0  0  0
  1 17  2  0  0  0  0
  2  3  2  0  0  0  0
  2  5  1  0  0  0  0
  5  7  1  0  0  0  0
  6 12  1  0  0  0  0
  7  4  2  0  0  0  0
  7 25  1  0  0  0  0
  8 18  2  0  0  0  0
  9 10  1  0  0  0  0
 10 11  2  0  0  0  0
 11 26  1  0  0  0  0
 12  2  1  0  0  0  0
 13  9  2  0  0  0  0
 14 40  1  6  0  0  0
 14  8  1  0  0  0  0
 15 11  1  0  0  0  0
 15  4  1  0  0  0  0
 16 17  1  0  0  0  0
 16  6  1  0  0  0  0
 17 13  1  0  0  0  0
 18  9  1  0  0  0  0
 19 16  2  0  0  0  0
 20 22  2  0  0  0  0
 21 20  1  0  0  0  0
 23 22  1  0  0  0  0
 24 25  1  0  0  0  0
 24 21  2  0  0  0  0
 25 23  2  0  0  0  0
 26 31  1  0  0  0  0
 27 29  1  0  0  0  0
 27 28  2  0  0  0  0
 28 32  1  0  0  0  0
 29 33  1  0  0  0  0
 30 35  1  0  0  0  0
 30 37  1  0  0  0  0
 31 30  1  0  0  0  0
 33 39  1  6  0  0  0
 33 32  1  0  0  0  0
 34 31  2  0  0  0  0
 35 27  1  0  0  0  0
 36 28  1  0  0  0  0
 37 36  2  0  0  0  0
 39 38  2  0  0  0  0
 40 41  1  0  0  0  0
 41 45  1  6  0  0  0
 42 44  1  0  0  0  0
 43 41  1  0  0  0  0
 43 42  1  0  0  0  0
 43 44  1  0  0  0  0
 45 49  1  0  0  0  0
 46 49  1  0  0  0  0
 47 49  1  0  0  0  0
 49 48  1  0  0  0  0
M  END
>  <MODEL>
4

>  <REMARK>
 VINA RESULT:      -7.3      3.507      7.769
  Name = 
  9 active torsions:
  status: ('A' for Active; 'I' for Inactive)
    1  A    between atoms: C_12  and  C_16
    2  A    between atoms: C_15  and  C_49
    3  A    between atoms: C_16  and  C_26
    4  A    between atoms: C_16  and  C_35
    5  A    between atoms: C_20  and  C_22
    6  A    between atoms: C_20  and  C_31
    7  A    between atoms: C_25  and  C_30
    8  A    between atoms: C_26  and  C_39
    9  A    between atoms: C_35  and  C_42
                            x       y       z     vdW  Elec       q    Type
                         _______ _______ _______ _____ _____    ______ ____

>  <TORSDO>
F 9

$$$$
=
 OpenBabel11042410473D

 49 54  0  0  1  0  0  0  0  0999 V2000
  183.1760  176.7980  136.0480 C   0  0  0  0  0  3  0  0  0  0  0  0
  187.8550  175.2830  135.5940 C   0  0  0  0  0  0  0  0  0  0  0  0
  187.7440  176.4870  135.2390 O   0  0  0  0  0  0  0  0  0  0  0  0
  189.3590  176.6760  137.8970 N   0  0  0  0  0  0  0  0  0  0  0  0
  188.9570  174.8560  136.4010 N   0  0  0  0  0  2  0  0  0  0  0  0
  185.8190  174.0670  136.2660 C   0  0  0  0  0  2  0  0  0  0  0  0
  189.8250  175.7260  137.1420 C   0  0  0  0  0  0  0  0  0  0  0  0
  182.7620  178.3980  137.8590 C   0  0  0  0  0  3  0  0  0  0  0  0
  185.1320  177.7250  138.2610 C   0  0  0  0  0  0  0  0  0  0  0  0
  186.2430  178.2360  139.0200 N   0  0  0  0  0  0  0  0  0  0  0  0
  187.5080  177.9340  138.9380 C   0  0  0  0  0  0  0  0  0  0  0  0
  186.8390  174.2870  135.1600 C   0  0  0  0  0  2  0  0  0  0  0  0
  185.3120  176.7990  137.3000 C   0  0  0  0  0  3  0  0  0  0  0  0
  182.8670  178.2190  136.3850 C   0  0  2  0  0  3  0  0  0  0  0  0
  187.9880  176.9330  138.0370 N   0  0  0  0  0  2  0  0  0  0  0  0
  184.5370  174.7730  135.9530 C   0  0  0  0  0  0  0  0  0  0  0  0
  184.2860  176.1550  136.4400 C   0  0  0  0  0  0  0  0  0  0  0  0
  183.7960  178.2020  138.6760 C   0  0  0  0  0  3  0  0  0  0  0  0
  183.6370  174.1210  135.2190 C   0  0  0  0  0  2  0  0  0  0  0  0
  193.9810  174.9510  137.1190 C   0  0  0  0  0  3  0  0  0  0  0  0
  193.4790  176.1630  136.6520 C   0  0  0  0  0  3  0  0  0  0  0  0
  193.0780  174.0010  137.5960 C   0  0  0  0  0  3  0  0  0  0  0  0
  191.7470  174.2700  137.5960 N   0  0  0  0  0  0  0  0  0  0  0  0
  192.1410  176.3970  136.6670 N   0  0  0  0  0  0  0  0  0  0  0  0
  191.2720  175.4600  137.1360 C   0  0  0  0  0  0  0  0  0  0  0  0
  188.4670  178.6280  139.8510 C   0  0  0  0  0  2  0  0  0  0  0  0
  189.4180  177.3000  144.6040 C   0  0  0  0  0  0  0  0  0  0  0  0
  190.5930  176.8760  144.2040 C   0  0  0  0  0  0  0  0  0  0  0  0
  189.2550  177.0790  146.0660 C   0  0  0  0  0  2  0  0  0  0  0  0
  188.8940  177.9780  142.2860 N   0  0  0  0  0  0  0  0  0  0  0  0
  188.0180  178.5020  141.2740 C   0  0  0  0  0  0  0  0  0  0  0  0
  191.3270  176.3380  145.2400 O   0  0  0  0  0  0  0  0  0  0  0  0
  190.5760  176.3920  146.4500 C   0  0  1  0  0  3  0  0  0  0  0  0
  186.8560  178.8860  141.5770 O   0  0  0  0  0  0  0  0  0  0  0  0
  188.4230  177.9450  143.6840 C   0  0  0  0  0  2  0  0  0  0  0  0
  191.0370  176.9770  142.8160 C   0  0  0  0  0  3  0  0  0  0  0  0
  190.2080  177.5060  141.9130 C   0  0  0  0  0  3  0  0  0  0  0  0
  192.2320  176.7350  148.0900 O   0  0  0  0  0  0  0  0  0  0  0  0
  191.3000  177.2140  147.4640 C   0  0  0  0  0  3  0  0  0  0  0  0
  181.5620  178.6330  135.7290 C   0  0  0  0  0  2  0  0  0  0  0  0
  180.6960  179.4300  136.6960 C   0  0  2  0  0  3  0  0  0  0  0  0
  179.0260  178.5520  138.3050 C   0  0  0  0  0  2  0  0  0  0  0  0
  179.3300  178.7760  136.8350 C   0  0  0  0  0  3  0  0  0  0  0  0
  179.4790  177.3950  137.4450 C   0  0  0  0  0  2  0  0  0  0  0  0
  180.5250  180.8480  136.1560 C   0  0  0  0  0  2  0  0  0  0  0  0
  181.5800  181.5700  138.3260 C   0  0  0  0  0  1  0  0  0  0  0  0
  180.9790  183.2320  136.6120 C   0  0  0  0  0  1  0  0  0  0  0  0
  179.1980  182.0960  137.8770 C   0  0  0  0  0  1  0  0  0  0  0  0
  180.5680  181.9200  137.2480 C   0  0  0  0  0  0  0  0  0  0  0  0
  1 14  1  0  0  0  0
  1 17  2  0  0  0  0
  2  5  1  0  0  0  0
  3  2  2  0  0  0  0
  4 15  1  0  0  0  0
  5  7  1  0  0  0  0
  7  4  2  0  0  0  0
  8 18  2  0  0  0  0
  9 18  1  0  0  0  0
  9 10  1  0  0  0  0
 11 10  2  0  0  0  0
 11 26  1  0  0  0  0
 12  2  1  0  0  0  0
 12  6  1  0  0  0  0
 13  9  2  0  0  0  0
 14 40  1  6  0  0  0
 14  8  1  0  0  0  0
 15 11  1  0  0  0  0
 16  6  1  0  0  0  0
 16 17  1  0  0  0  0
 17 13  1  0  0  0  0
 19 16  2  0  0  0  0
 20 22  2  0  0  0  0
 21 24  2  0  0  0  0
 21 20  1  0  0  0  0
 22 23  1  0  0  0  0
 24 25  1  0  0  0  0
 25  7  1  0  0  0  0
 25 23  2  0  0  0  0
 26 31  1  0  0  0  0
 27 29  1  0  0  0  0
 28 27  2  0  0  0  0
 28 32  1  0  0  0  0
 29 33  1  0  0  0  0
 30 35  1  0  0  0  0
 31 34  2  0  0  0  0
 31 30  1  0  0  0  0
 32 33  1  0  0  0  0
 33 39  1  1  0  0  0
 35 27  1  0  0  0  0
 36 28  1  0  0  0  0
 37 30  1  0  0  0  0
 37 36  2  0  0  0  0
 39 38  2  0  0  0  0
 41 40  1  6  0  0  0
 41 43  1  0  0  0  0
 43 44  1  0  0  0  0
 43 42  1  0  0  0  0
 44 42  1  0  0  0  0
 45 41  1  0  0  0  0
 45 49  1  0  0  0  0
 47 49  1  0  0  0  0
 49 48  1  0  0  0  0
 49 46  1  0  0  0  0
M  END
>  <MODEL>
5

>  <REMARK>
 VINA RESULT:      -7.3      3.044      7.227
  Name = 
  9 active torsions:
  status: ('A' for Active; 'I' for Inactive)
    1  A    between atoms: C_12  and  C_16
    2  A    between atoms: C_15  and  C_49
    3  A    between atoms: C_16  and  C_26
    4  A    between atoms: C_16  and  C_35
    5  A    between atoms: C_20  and  C_22
    6  A    between atoms: C_20  and  C_31
    7  A    between atoms: C_25  and  C_30
    8  A    between atoms: C_26  and  C_39
    9  A    between atoms: C_35  and  C_42
                            x       y       z     vdW  Elec       q    Type
                         _______ _______ _______ _____ _____    ______ ____

>  <TORSDO>
F 9

$$$$
=
 OpenBabel11042410473D

 49 54  0  0  1  0  0  0  0  0999 V2000
  188.6140  177.7690  144.6640 C   0  0  0  0  0  3  0  0  0  0  0  0
  184.6310  179.3740  142.2240 C   0  0  0  0  0  0  0  0  0  0  0  0
  185.5850  180.1860  142.0940 O   0  0  0  0  0  0  0  0  0  0  0  0
  185.3110  178.9520  139.2460 N   0  0  0  0  0  0  0  0  0  0  0  0
  183.8100  179.0240  141.1060 N   0  0  0  0  0  2  0  0  0  0  0  0
  184.9620  177.3960  143.6580 C   0  0  0  0  0  2  0  0  0  0  0  0
  184.1430  179.2590  139.7300 C   0  0  0  0  0  0  0  0  0  0  0  0
  190.4690  177.0010  143.2560 C   0  0  0  0  0  3  0  0  0  0  0  0
  188.6460  177.3800  141.5930 C   0  0  0  0  0  0  0  0  0  0  0  0
  188.5570  177.5300  140.1650 N   0  0  0  0  0  0  0  0  0  0  0  0
  187.5740  177.9860  139.4410 C   0  0  0  0  0  0  0  0  0  0  0  0
  184.3410  178.7800  143.5570 C   0  0  0  0  0  2  0  0  0  0  0  0
  187.6230  177.7330  142.3950 C   0  0  0  0  0  3  0  0  0  0  0  0
  189.9860  178.0770  144.1640 C   0  0  2  0  0  3  0  0  0  0  0  0
  186.3310  178.3850  140.0240 N   0  0  0  0  0  2  0  0  0  0  0  0
  186.2010  177.4310  144.4950 C   0  0  0  0  0  0  0  0  0  0  0  0
  187.5380  177.6310  143.8750 C   0  0  0  0  0  0  0  0  0  0  0  0
  189.8730  176.7270  142.0970 C   0  0  0  0  0  3  0  0  0  0  0  0
  186.0610  177.2830  145.8110 C   0  0  0  0  0  2  0  0  0  0  0  0
  181.1490  180.6880  137.1100 C   0  0  0  0  0  3  0  0  0  0  0  0
  181.5550  179.3560  137.0690 C   0  0  0  0  0  3  0  0  0  0  0  0
  181.7520  181.5350  138.0380 C   0  0  0  0  0  3  0  0  0  0  0  0
  182.7110  181.0560  138.8720 N   0  0  0  0  0  0  0  0  0  0  0  0
  182.5180  178.9130  137.9190 N   0  0  0  0  0  0  0  0  0  0  0  0
  183.0980  179.7520  138.8190 C   0  0  0  0  0  0  0  0  0  0  0  0
  187.7470  178.0440  137.9570 C   0  0  0  0  0  2  0  0  0  0  0  0
  190.4790  174.2560  136.0980 C   0  0  0  0  0  0  0  0  0  0  0  0
  191.5380  175.0210  136.2130 C   0  0  0  0  0  0  0  0  0  0  0  0
  190.8520  172.9320  135.5340 C   0  0  0  0  0  2  0  0  0  0  0  0
  189.0830  176.0810  137.0110 N   0  0  0  0  0  0  0  0  0  0  0  0
  187.8230  176.6610  137.3860 C   0  0  0  0  0  0  0  0  0  0  0  0
  192.6800  174.3900  135.7690 O   0  0  0  0  0  0  0  0  0  0  0  0
  192.3650  173.0830  135.2990 C   0  0  1  0  0  3  0  0  0  0  0  0
  186.7570  176.0010  137.2590 O   0  0  0  0  0  0  0  0  0  0  0  0
  189.1050  174.6880  136.5220 C   0  0  0  0  0  2  0  0  0  0  0  0
  191.4750  176.3780  136.7510 C   0  0  0  0  0  3  0  0  0  0  0  0
  190.2900  176.8670  137.1260 C   0  0  0  0  0  3  0  0  0  0  0  0
  194.1420  172.3640  136.6680 O   0  0  0  0  0  0  0  0  0  0  0  0
  193.1070  172.0620  136.0950 C   0  0  0  0  0  3  0  0  0  0  0  0
  190.9420  178.2200  145.3350 C   0  0  0  0  0  2  0  0  0  0  0  0
  190.4080  177.4980  146.5660 C   0  0  2  0  0  3  0  0  0  0  0  0
  189.5500  178.2530  148.7670 C   0  0  0  0  0  2  0  0  0  0  0  0
  189.3650  178.3570  147.2640 C   0  0  0  0  0  3  0  0  0  0  0  0
  188.4420  177.4800  148.0890 C   0  0  0  0  0  2  0  0  0  0  0  0
  191.5650  177.2270  147.5240 C   0  0  0  0  0  2  0  0  0  0  0  0
  192.4310  175.2910  146.1650 C   0  0  0  0  0  1  0  0  0  0  0  0
  193.1810  175.6270  148.4860 C   0  0  0  0  0  1  0  0  0  0  0  0
  190.8770  174.8760  148.0540 C   0  0  0  0  0  1  0  0  0  0  0  0
  192.0010  175.7600  147.5460 C   0  0  0  0  0  0  0  0  0  0  0  0
  2 12  1  0  0  0  0
  3  2  2  0  0  0  0
  4  7  2  0  0  0  0
  4 15  1  0  0  0  0
  5  2  1  0  0  0  0
  6 16  1  0  0  0  0
  7  5  1  0  0  0  0
  8 14  1  0  0  0  0
  9 18  1  0  0  0  0
  9 13  2  0  0  0  0
 10  9  1  0  0  0  0
 11 15  1  0  0  0  0
 11 10  2  0  0  0  0
 12  6  1  0  0  0  0
 13 17  1  0  0  0  0
 14  1  1  0  0  0  0
 14 40  1  1  0  0  0
 16 19  2  0  0  0  0
 17 16  1  0  0  0  0
 17  1  2  0  0  0  0
 18  8  2  0  0  0  0
 20 22  2  0  0  0  0
 21 20  1  0  0  0  0
 21 24  2  0  0  0  0
 22 23  1  0  0  0  0
 24 25  1  0  0  0  0
 25 23  2  0  0  0  0
 25  7  1  0  0  0  0
 26 11  1  0  0  0  0
 27 28  2  0  0  0  0
 27 35  1  0  0  0  0
 28 36  1  0  0  0  0
 29 27  1  0  0  0  0
 30 37  1  0  0  0  0
 30 31  1  0  0  0  0
 31 26  1  0  0  0  0
 32 28  1  0  0  0  0
 33 29  1  0  0  0  0
 33 32  1  0  0  0  0
 33 39  1  1  0  0  0
 34 31  2  0  0  0  0
 35 30  1  0  0  0  0
 36 37  2  0  0  0  0
 39 38  2  0  0  0  0
 41 40  1  6  0  0  0
 41 43  1  0  0  0  0
 41 45  1  0  0  0  0
 43 44  1  0  0  0  0
 43 42  1  0  0  0  0
 44 42  1  0  0  0  0
 45 49  1  0  0  0  0
 46 49  1  0  0  0  0
 49 48  1  0  0  0  0
 49 47  1  0  0  0  0
M  END
>  <MODEL>
6

>  <REMARK>
 VINA RESULT:      -7.0      3.020      8.111
  Name = 
  9 active torsions:
  status: ('A' for Active; 'I' for Inactive)
    1  A    between atoms: C_12  and  C_16
    2  A    between atoms: C_15  and  C_49
    3  A    between atoms: C_16  and  C_26
    4  A    between atoms: C_16  and  C_35
    5  A    between atoms: C_20  and  C_22
    6  A    between atoms: C_20  and  C_31
    7  A    between atoms: C_25  and  C_30
    8  A    between atoms: C_26  and  C_39
    9  A    between atoms: C_35  and  C_42
                            x       y       z     vdW  Elec       q    Type
                         _______ _______ _______ _____ _____    ______ ____

>  <TORSDO>
F 9

$$$$
=
 OpenBabel11042410473D

 49 54  0  0  1  0  0  0  0  0999 V2000
  183.3720  175.2580  136.7350 C   0  0  0  0  0  3  0  0  0  0  0  0
  187.4700  172.8510  135.3930 C   0  0  0  0  0  0  0  0  0  0  0  0
  187.2330  173.7980  134.5960 O   0  0  0  0  0  0  0  0  0  0  0  0
  189.7770  174.7640  136.1130 N   0  0  0  0  0  0  0  0  0  0  0  0
  188.8000  172.5980  135.8560 N   0  0  0  0  0  2  0  0  0  0  0  0
  185.8650  172.4220  137.2140 C   0  0  0  0  0  2  0  0  0  0  0  0
  189.8970  173.5180  135.7610 C   0  0  0  0  0  0  0  0  0  0  0  0
  183.7260  177.5100  137.6390 C   0  0  0  0  0  3  0  0  0  0  0  0
  186.0550  176.6350  137.4340 C   0  0  0  0  0  0  0  0  0  0  0  0
  187.3790  177.1980  137.4290 N   0  0  0  0  0  0  0  0  0  0  0  0
  188.5040  176.6600  137.0510 C   0  0  0  0  0  0  0  0  0  0  0  0
  186.3590  171.9720  135.8480 C   0  0  0  0  0  2  0  0  0  0  0  0
  185.8300  175.3790  137.0030 C   0  0  0  0  0  3  0  0  0  0  0  0
  183.2320  176.7210  136.4770 C   0  0  2  0  0  3  0  0  0  0  0  0
  188.5780  175.3060  136.5970 N   0  0  0  0  0  2  0  0  0  0  0  0
  184.5700  173.1600  137.0920 C   0  0  0  0  0  0  0  0  0  0  0  0
  184.5420  174.6410  136.9540 C   0  0  0  0  0  0  0  0  0  0  0  0
  184.9990  177.4810  138.0300 C   0  0  0  0  0  3  0  0  0  0  0  0
  183.4480  172.4430  137.1060 C   0  0  0  0  0  2  0  0  0  0  0  0
  193.7020  172.0630  134.6310 C   0  0  0  0  0  3  0  0  0  0  0  0
  192.5860  171.2290  134.6150 C   0  0  0  0  0  3  0  0  0  0  0  0
  193.5310  173.3890  135.0260 C   0  0  0  0  0  3  0  0  0  0  0  0
  192.3000  173.8380  135.3840 N   0  0  0  0  0  0  0  0  0  0  0  0
  191.3710  171.7130  134.9800 N   0  0  0  0  0  0  0  0  0  0  0  0
  191.2190  173.0100  135.3640 C   0  0  0  0  0  0  0  0  0  0  0  0
  189.7530  177.4770  137.1440 C   0  0  0  0  0  2  0  0  0  0  0  0
  190.4470  177.4200  142.1210 C   0  0  0  0  0  0  0  0  0  0  0  0
  189.3800  178.1750  142.2350 C   0  0  0  0  0  0  0  0  0  0  0  0
  191.0290  177.1370  143.4600 C   0  0  0  0  0  2  0  0  0  0  0  0
  190.1550  177.4080  139.6670 N   0  0  0  0  0  0  0  0  0  0  0  0
  190.5620  177.0610  138.3330 C   0  0  0  0  0  0  0  0  0  0  0  0
  189.1150  178.4990  143.5480 O   0  0  0  0  0  0  0  0  0  0  0  0
  190.0980  177.9220  144.4020 C   0  0  1  0  0  3  0  0  0  0  0  0
  191.6040  176.3760  138.1440 O   0  0  0  0  0  0  0  0  0  0  0  0
  190.9520  176.9080  140.8040 C   0  0  0  0  0  2  0  0  0  0  0  0
  188.5920  178.6040  141.0810 C   0  0  0  0  0  3  0  0  0  0  0  0
  188.9810  178.2270  139.8610 C   0  0  0  0  0  3  0  0  0  0  0  0
  188.6120  177.4020  146.1540 O   0  0  0  0  0  0  0  0  0  0  0  0
  189.4500  176.9880  145.3690 C   0  0  0  0  0  3  0  0  0  0  0  0
  181.7750  177.0630  136.2140 C   0  0  0  0  0  2  0  0  0  0  0  0
  180.8540  176.2310  137.0970 C   0  0  2  0  0  3  0  0  0  0  0  0
  178.9970  174.5870  137.1060 C   0  0  0  0  0  2  0  0  0  0  0  0
  179.7740  175.5720  136.2530 C   0  0  0  0  0  3  0  0  0  0  0  0
  180.0440  174.0830  136.1390 C   0  0  0  0  0  2  0  0  0  0  0  0
  180.2010  177.1440  138.1320 C   0  0  0  0  0  2  0  0  0  0  0  0
  181.3850  177.8800  140.2290 C   0  0  0  0  0  1  0  0  0  0  0  0
  179.2820  176.6060  140.3600 C   0  0  0  0  0  1  0  0  0  0  0  0
  181.3390  175.4760  139.6170 C   0  0  0  0  0  1  0  0  0  0  0  0
  180.5650  176.7810  139.5740 C   0  0  0  0  0  0  0  0  0  0  0  0
  1 17  2  0  0  0  0
  2 12  1  0  0  0  0
  2  5  1  0  0  0  0
  3  2  2  0  0  0  0
  4 15  1  0  0  0  0
  7  5  1  0  0  0  0
  7  4  2  0  0  0  0
  8 18  2  0  0  0  0
  9 18  1  0  0  0  0
 10  9  1  0  0  0  0
 11 26  1  0  0  0  0
 11 10  2  0  0  0  0
 12  6  1  0  0  0  0
 13  9  2  0  0  0  0
 14 40  1  1  0  0  0
 14  1  1  0  0  0  0
 14  8  1  0  0  0  0
 15 11  1  0  0  0  0
 16 19  2  0  0  0  0
 16  6  1  0  0  0  0
 17 13  1  0  0  0  0
 17 16  1  0  0  0  0
 20 22  2  0  0  0  0
 21 20  1  0  0  0  0
 21 24  2  0  0  0  0
 22 23  1  0  0  0  0
 24 25  1  0  0  0  0
 25 23  2  0  0  0  0
 25  7  1  0  0  0  0
 26 31  1  0  0  0  0
 27 28  2  0  0  0  0
 27 29  1  0  0  0  0
 28 32  1  0  0  0  0
 29 33  1  0  0  0  0
 30 37  1  0  0  0  0
 30 35  1  0  0  0  0
 31 30  1  0  0  0  0
 32 33  1  0  0  0  0
 33 39  1  1  0  0  0
 34 31  2  0  0  0  0
 35 27  1  0  0  0  0
 36 28  1  0  0  0  0
 37 36  2  0  0  0  0
 39 38  2  0  0  0  0
 41 40  1  6  0  0  0
 41 45  1  0  0  0  0
 43 41  1  0  0  0  0
 43 42  1  0  0  0  0
 44 43  1  0  0  0  0
 44 42  1  0  0  0  0
 45 49  1  0  0  0  0
 49 48  1  0  0  0  0
 49 46  1  0  0  0  0
 49 47  1  0  0  0  0
M  END
>  <MODEL>
7

>  <REMARK>
 VINA RESULT:      -6.8      3.079      7.503
  Name = 
  9 active torsions:
  status: ('A' for Active; 'I' for Inactive)
    1  A    between atoms: C_12  and  C_16
    2  A    between atoms: C_15  and  C_49
    3  A    between atoms: C_16  and  C_26
    4  A    between atoms: C_16  and  C_35
    5  A    between atoms: C_20  and  C_22
    6  A    between atoms: C_20  and  C_31
    7  A    between atoms: C_25  and  C_30
    8  A    between atoms: C_26  and  C_39
    9  A    between atoms: C_35  and  C_42
                            x       y       z     vdW  Elec       q    Type
                         _______ _______ _______ _____ _____    ______ ____

>  <TORSDO>
F 9

$$$$
=
 OpenBabel11042410473D

 49 54  0  0  1  0  0  0  0  0999 V2000
  183.4060  178.4230  142.2260 C   0  0  0  0  0  3  0  0  0  0  0  0
  186.7720  177.2220  145.6350 C   0  0  0  0  0  0  0  0  0  0  0  0
  186.6180  176.2790  144.8150 O   0  0  0  0  0  0  0  0  0  0  0  0
  189.4710  177.3410  144.1500 N   0  0  0  0  0  0  0  0  0  0  0  0
  188.0790  177.6050  146.0750 N   0  0  0  0  0  2  0  0  0  0  0  0
  185.3610  179.2290  145.3920 C   0  0  0  0  0  2  0  0  0  0  0  0
  189.3080  177.2330  145.4360 C   0  0  0  0  0  0  0  0  0  0  0  0
  184.2900  178.8280  139.9750 C   0  0  0  0  0  3  0  0  0  0  0  0
  186.3670  178.5920  141.3400 C   0  0  0  0  0  0  0  0  0  0  0  0
  187.7620  178.3580  141.0760 N   0  0  0  0  0  0  0  0  0  0  0  0
  188.7080  177.9950  141.8950 C   0  0  0  0  0  0  0  0  0  0  0  0
  185.5830  177.9400  146.1680 C   0  0  0  0  0  2  0  0  0  0  0  0
  185.8570  178.4410  142.5770 C   0  0  0  0  0  3  0  0  0  0  0  0
  183.5120  177.8940  140.8350 C   0  0  2  0  0  3  0  0  0  0  0  0
  188.4670  177.8130  143.2930 N   0  0  0  0  0  2  0  0  0  0  0  0
  184.2230  179.0800  144.4320 C   0  0  0  0  0  0  0  0  0  0  0  0
  184.4570  178.6550  143.0260 C   0  0  0  0  0  0  0  0  0  0  0  0
  185.5740  179.1010  140.2010 C   0  0  0  0  0  3  0  0  0  0  0  0
  182.9970  179.3360  144.8850 C   0  0  0  0  0  2  0  0  0  0  0  0
  192.5960  176.0710  147.8260 C   0  0  0  0  0  3  0  0  0  0  0  0
  191.5970  176.8950  148.3390 C   0  0  0  0  0  3  0  0  0  0  0  0
  192.4820  175.6380  146.5060 C   0  0  0  0  0  3  0  0  0  0  0  0
  191.4170  176.0210  145.7550 N   0  0  0  0  0  0  0  0  0  0  0  0
  190.5470  177.2580  147.5590 N   0  0  0  0  0  0  0  0  0  0  0  0
  190.4490  176.8270  146.2710 C   0  0  0  0  0  0  0  0  0  0  0  0
  190.0900  177.8120  141.3540 C   0  0  0  0  0  2  0  0  0  0  0  0
  192.4800  175.7350  137.4510 C   0  0  0  0  0  0  0  0  0  0  0  0
  193.6120  176.0770  138.0180 C   0  0  0  0  0  0  0  0  0  0  0  0
  192.7330  175.0420  136.1590 C   0  0  0  0  0  2  0  0  0  0  0  0
  191.2480  176.7370  139.3450 N   0  0  0  0  0  0  0  0  0  0  0  0
  190.0420  177.1250  140.0240 C   0  0  0  0  0  0  0  0  0  0  0  0
  194.7010  175.7120  137.2560 O   0  0  0  0  0  0  0  0  0  0  0  0
  194.2680  175.0770  136.0570 C   0  0  1  0  0  3  0  0  0  0  0  0
  188.9170  176.8710  139.5150 O   0  0  0  0  0  0  0  0  0  0  0  0
  191.1390  175.9970  138.0720 C   0  0  0  0  0  2  0  0  0  0  0  0
  193.6710  176.7630  139.3070 C   0  0  0  0  0  3  0  0  0  0  0  0
  192.5290  177.0710  139.9240 C   0  0  0  0  0  3  0  0  0  0  0  0
  194.4680  172.8600  136.8280 O   0  0  0  0  0  0  0  0  0  0  0  0
  194.8040  173.6850  135.9940 C   0  0  0  0  0  3  0  0  0  0  0  0
  182.1250  177.7010  140.2480 C   0  0  0  0  0  2  0  0  0  0  0  0
  181.3910  179.0310  140.1370 C   0  0  2  0  0  3  0  0  0  0  0  0
  181.1900  180.9180  138.5410 C   0  0  0  0  0  2  0  0  0  0  0  0
  182.1610  179.9790  139.2310 C   0  0  0  0  0  3  0  0  0  0  0  0
  181.7680  179.7440  137.7840 C   0  0  0  0  0  2  0  0  0  0  0  0
  181.2680  179.6480  141.5280 C   0  0  0  0  0  2  0  0  0  0  0  0
  179.3380  180.8210  142.6430 C   0  0  0  0  0  1  0  0  0  0  0  0
  178.9380  178.9780  141.0610 C   0  0  0  0  0  1  0  0  0  0  0  0
  179.8950  178.4880  143.2760 C   0  0  0  0  0  1  0  0  0  0  0  0
  179.8720  179.4920  142.1370 C   0  0  0  0  0  0  0  0  0  0  0  0
  1 17  2  0  0  0  0
  2  5  1  0  0  0  0
  2 12  1  0  0  0  0
  3  2  2  0  0  0  0
  4  7  2  0  0  0  0
  6 12  1  0  0  0  0
  7  5  1  0  0  0  0
  7 25  1  0  0  0  0
  8 18  2  0  0  0  0
  8 14  1  0  0  0  0
  9 13  2  0  0  0  0
 10  9  1  0  0  0  0
 10 11  2  0  0  0  0
 11 15  1  0  0  0  0
 13 17  1  0  0  0  0
 14 40  1  6  0  0  0
 14  1  1  0  0  0  0
 15  4  1  0  0  0  0
 16 19  2  0  0  0  0
 16  6  1  0  0  0  0
 17 16  1  0  0  0  0
 18  9  1  0  0  0  0
 20 21  1  0  0  0  0
 22 20  2  0  0  0  0
 23 25  2  0  0  0  0
 23 22  1  0  0  0  0
 24 21  2  0  0  0  0
 25 24  1  0  0  0  0
 26 11  1  0  0  0  0
 27 28  2  0  0  0  0
 27 35  1  0  0  0  0
 28 36  1  0  0  0  0
 29 27  1  0  0  0  0
 30 37  1  0  0  0  0
 30 31  1  0  0  0  0
 31 26  1  0  0  0  0
 32 28  1  0  0  0  0
 33 39  1  1  0  0  0
 33 29  1  0  0  0  0
 33 32  1  0  0  0  0
 34 31  2  0  0  0  0
 35 30  1  0  0  0  0
 36 37  2  0  0  0  0
 39 38  2  0  0  0  0
 41 40  1  1  0  0  0
 41 45  1  0  0  0  0
 42 43  1  0  0  0  0
 43 41  1  0  0  0  0
 44 42  1  0  0  0  0
 44 43  1  0  0  0  0
 45 49  1  0  0  0  0
 47 49  1  0  0  0  0
 49 46  1  0  0  0  0
 49 48  1  0  0  0  0
M  END
>  <MODEL>
8

>  <REMARK>
 VINA RESULT:      -6.8      1.774      2.987
  Name = 
  9 active torsions:
  status: ('A' for Active; 'I' for Inactive)
    1  A    between atoms: C_12  and  C_16
    2  A    between atoms: C_15  and  C_49
    3  A    between atoms: C_16  and  C_26
    4  A    between atoms: C_16  and  C_35
    5  A    between atoms: C_20  and  C_22
    6  A    between atoms: C_20  and  C_31
    7  A    between atoms: C_25  and  C_30
    8  A    between atoms: C_26  and  C_39
    9  A    between atoms: C_35  and  C_42
                            x       y       z     vdW  Elec       q    Type
                         _______ _______ _______ _____ _____    ______ ____

>  <TORSDO>
F 9

$$$$
=
 OpenBabel11042410473D

 49 54  0  0  1  0  0  0  0  0999 V2000
  189.7920  176.0070  138.1910 C   0  0  0  0  0  3  0  0  0  0  0  0
  186.5400  172.5470  136.8320 C   0  0  0  0  0  0  0  0  0  0  0  0
  186.2110  173.0530  137.9380 O   0  0  0  0  0  0  0  0  0  0  0  0
  184.0260  174.1200  135.9890 N   0  0  0  0  0  0  0  0  0  0  0  0
  185.5600  172.2940  135.8210 N   0  0  0  0  0  2  0  0  0  0  0  0
  188.6400  173.2970  135.7800 C   0  0  0  0  0  2  0  0  0  0  0  0
  184.2380  172.8520  135.7930 C   0  0  0  0  0  0  0  0  0  0  0  0
  188.9720  178.3150  138.0920 C   0  0  0  0  0  3  0  0  0  0  0  0
  187.1150  177.0330  137.0250 C   0  0  0  0  0  0  0  0  0  0  0  0
  185.7340  177.2780  136.7030 N   0  0  0  0  0  0  0  0  0  0  0  0
  184.7970  176.4310  136.3810 C   0  0  0  0  0  0  0  0  0  0  0  0
  187.9620  172.1920  136.5760 C   0  0  0  0  0  2  0  0  0  0  0  0
  187.6170  175.7840  137.0290 C   0  0  0  0  0  3  0  0  0  0  0  0
  189.3540  177.1900  138.9880 C   0  0  2  0  0  3  0  0  0  0  0  0
  185.0580  175.0310  136.2520 N   0  0  0  0  0  2  0  0  0  0  0  0
  189.5210  174.1220  136.6630 C   0  0  0  0  0  0  0  0  0  0  0  0
  189.0100  175.3540  137.3190 C   0  0  0  0  0  0  0  0  0  0  0  0
  187.9470  178.2340  137.2440 C   0  0  0  0  0  3  0  0  0  0  0  0
  190.7750  173.7090  136.8410 C   0  0  0  0  0  2  0  0  0  0  0  0
  180.9950  170.3560  134.7330 C   0  0  0  0  0  3  0  0  0  0  0  0
  180.8530  171.7410  134.7480 C   0  0  0  0  0  3  0  0  0  0  0  0
  182.2330  169.8140  135.0740 C   0  0  0  0  0  3  0  0  0  0  0  0
  183.2630  170.6330  135.4100 N   0  0  0  0  0  0  0  0  0  0  0  0
  181.9050  172.5290  135.0900 N   0  0  0  0  0  0  0  0  0  0  0  0
  183.1090  171.9860  135.4210 C   0  0  0  0  0  0  0  0  0  0  0  0
  183.4260  176.9570  136.0980 C   0  0  0  0  0  2  0  0  0  0  0  0
  181.3120  177.9300  140.5530 C   0  0  0  0  0  0  0  0  0  0  0  0
  182.0740  178.9950  140.6330 C   0  0  0  0  0  0  0  0  0  0  0  0
  180.4560  177.8110  141.7630 C   0  0  0  0  0  2  0  0  0  0  0  0
  182.3130  177.4010  138.3560 N   0  0  0  0  0  0  0  0  0  0  0  0
  182.4820  176.5700  137.1950 C   0  0  0  0  0  0  0  0  0  0  0  0
  181.8750  179.6840  141.8100 O   0  0  0  0  0  0  0  0  0  0  0  0
  180.8990  179.0190  142.6060 C   0  0  1  0  0  3  0  0  0  0  0  0
  181.8180  175.5060  137.0720 O   0  0  0  0  0  0  0  0  0  0  0  0
  181.3140  177.0070  139.3690 C   0  0  0  0  0  2  0  0  0  0  0  0
  183.0120  179.3730  139.5780 C   0  0  0  0  0  3  0  0  0  0  0  0
  183.1120  178.5960  138.4970 C   0  0  0  0  0  3  0  0  0  0  0  0
  179.6800  181.0120  142.2990 O   0  0  0  0  0  0  0  0  0  0  0  0
  179.7350  179.9230  142.8480 C   0  0  0  0  0  3  0  0  0  0  0  0
  190.4740  177.6350  139.9120 C   0  0  0  0  0  2  0  0  0  0  0  0
  190.0560  177.5140  141.3720 C   0  0  2  0  0  3  0  0  0  0  0  0
  190.4300  176.3100  143.5070 C   0  0  0  0  0  2  0  0  0  0  0  0
  190.9090  176.4710  142.0770 C   0  0  0  0  0  3  0  0  0  0  0  0
  191.6760  177.1160  143.2160 C   0  0  0  0  0  2  0  0  0  0  0  0
  188.5890  177.0950  141.4350 C   0  0  0  0  0  2  0  0  0  0  0  0
  186.6340  178.6280  141.0210 C   0  0  0  0  0  1  0  0  0  0  0  0
  186.9620  177.5840  143.2260 C   0  0  0  0  0  1  0  0  0  0  0  0
  188.4920  179.3660  142.4890 C   0  0  0  0  0  1  0  0  0  0  0  0
  187.6770  178.1720  142.0270 C   0  0  0  0  0  0  0  0  0  0  0  0
  1 14  1  0  0  0  0
  2  3  2  0  0  0  0
  4 15  1  0  0  0  0
  5  2  1  0  0  0  0
  6 12  1  0  0  0  0
  6 16  1  0  0  0  0
  7  5  1  0  0  0  0
  7  4  2  0  0  0  0
  8 14  1  0  0  0  0
  9 13  2  0  0  0  0
  9 18  1  0  0  0  0
 10  9  1  0  0  0  0
 11 10  2  0  0  0  0
 12  2  1  0  0  0  0
 13 17  1  0  0  0  0
 14 40  1  1  0  0  0
 15 11  1  0  0  0  0
 16 19  2  0  0  0  0
 16 17  1  0  0  0  0
 17  1  2  0  0  0  0
 18  8  2  0  0  0  0
 20 21  1  0  0  0  0
 20 22  2  0  0  0  0
 21 24  2  0  0  0  0
 22 23  1  0  0  0  0
 23 25  2  0  0  0  0
 24 25  1  0  0  0  0
 25  7  1  0  0  0  0
 26 11  1  0  0  0  0
 26 31  1  0  0  0  0
 27 28  2  0  0  0  0
 27 29  1  0  0  0  0
 28 32  1  0  0  0  0
 29 33  1  0  0  0  0
 30 37  1  0  0  0  0
 30 35  1  0  0  0  0
 31 30  1  0  0  0  0
 32 33  1  0  0  0  0
 33 39  1  6  0  0  0
 34 31  2  0  0  0  0
 35 27  1  0  0  0  0
 36 28  1  0  0  0  0
 37 36  2  0  0  0  0
 38 39  2  0  0  0  0
 41 40  1  6  0  0  0
 41 45  1  0  0  0  0
 41 43  1  0  0  0  0
 43 44  1  0  0  0  0
 43 42  1  0  0  0  0
 44 42  1  0  0  0  0
 45 49  1  0  0  0  0
 46 49  1  0  0  0  0
 49 48  1  0  0  0  0
 49 47  1  0  0  0  0
M  END
>  <MODEL>
9

>  <REMARK>
 VINA RESULT:      -6.8      4.194     10.827
  Name = 
  9 active torsions:
  status: ('A' for Active; 'I' for Inactive)
    1  A    between atoms: C_12  and  C_16
    2  A    between atoms: C_15  and  C_49
    3  A    between atoms: C_16  and  C_26
    4  A    between atoms: C_16  and  C_35
    5  A    between atoms: C_20  and  C_22
    6  A    between atoms: C_20  and  C_31
    7  A    between atoms: C_25  and  C_30
    8  A    between atoms: C_26  and  C_39
    9  A    between atoms: C_35  and  C_42
                            x       y       z     vdW  Elec       q    Type
                         _______ _______ _______ _____ _____    ______ ____

>  <TORSDO>
F 9

$$$$
