=
 OpenBabel11032420303D

 33 38  0  0  1  0  0  0  0  0999 V2000
  186.5400  177.7740  144.5240 C   0  0  1  0  0  3  0  0  0  0  0  0
  188.4600  176.8150  145.9260 C   0  0  0  0  0  3  0  0  0  0  0  0
  184.4280  178.9710  143.8750 C   0  0  0  0  0  0  0  0  0  0  0  0
  187.4350  178.0170  143.3120 C   0  0  0  0  0  2  0  0  0  0  0  0
  183.1420  178.8460  144.4230 C   0  0  0  0  0  3  0  0  0  0  0  0
  186.8070  178.2860  146.8640 C   0  0  0  0  0  0  0  0  0  0  0  0
  182.1660  178.8530  142.2060 C   0  0  0  0  0  0  0  0  0  0  0  0
  189.0790  176.7500  147.1790 C   0  0  0  0  0  3  0  0  0  0  0  0
  187.3230  177.6130  145.7750 C   0  0  0  0  0  0  0  0  0  0  0  0
  188.5410  177.4760  148.2510 C   0  0  0  0  0  3  0  0  0  0  0  0
  185.9310  179.0970  141.8330 C   0  0  0  0  0  2  0  0  0  0  0  0
  183.4470  178.9670  141.6510 C   0  0  0  0  0  3  0  0  0  0  0  0
  184.5760  179.0250  142.4730 C   0  0  0  0  0  0  0  0  0  0  0  0
  186.6690  177.8620  142.0780 N   0  0  0  0  0  2  0  0  0  0  0  0
  185.6530  179.0030  144.7540 C   0  0  1  0  0  3  0  0  0  0  0  0
  185.3310  179.2230  146.5520 S   0  0  0  0  0  0  0  0  0  0  0  0
  187.4180  178.2280  148.0760 N   0  0  0  0  0  0  0  0  0  0  0  0
  182.0190  178.7920  143.5940 C   0  0  0  0  0  3  0  0  0  0  0  0
  180.9420  178.8050  141.3430 C   0  0  1  0  0  3  0  0  0  0  0  0
  179.6780  177.1670  142.5460 O   0  0  0  0  0  0  0  0  0  0  0  0
  180.3370  175.7480  138.0980 C   0  0  1  0  0  3  0  0  0  0  0  0
  180.2090  177.4990  141.4510 C   0  0  0  0  0  0  0  0  0  0  0  0
  180.1250  176.6300  140.3100 N   0  0  0  0  0  0  0  0  0  0  0  0
  182.3470  175.4290  139.4530 O   0  0  0  0  0  1  0  0  0  0  0  0
  180.5510  177.0060  138.9600 C   0  0  1  0  0  3  0  0  0  0  0  0
  179.6180  175.3050  140.2720 C   0  0  0  0  0  0  0  0  0  0  0  0
  179.3170  174.5830  141.3450 C   0  0  0  0  0  1  0  0  0  0  0  0
  181.7580  176.2100  138.4520 C   0  0  2  0  0  3  0  0  0  0  0  0
  179.8080  174.7210  139.0020 N   0  0  0  0  0  0  0  0  0  0  0  0
  179.7620  180.8140  140.3850 N   0  0  0  0  0  2  0  0  0  0  0  0
  178.9310  182.0010  140.4840 C   0  0  0  0  0  1  0  0  0  0  0  0
  179.6020  180.3000  142.6550 O   0  0  0  0  0  0  0  0  0  0  0  0
  180.0560  179.9990  141.5170 C   0  0  0  0  0  0  0  0  0  0  0  0
  1  4  1  6  0  0  0
  1 15  1  0  0  0  0
  1  9  1  0  0  0  0
  2  8  1  0  0  0  0
  3  5  1  0  0  0  0
  6 17  2  0  0  0  0
  7 18  1  0  0  0  0
  8 10  2  0  0  0  0
  9  2  2  0  0  0  0
  9  6  1  0  0  0  0
 11 14  1  0  0  0  0
 11 13  1  0  0  0  0
 12  7  2  0  0  0  0
 12 13  1  0  0  0  0
 13  3  2  0  0  0  0
 14  4  1  0  0  0  0
 15  3  1  6  0  0  0
 15 16  1  0  0  0  0
 16  6  1  0  0  0  0
 17 10  1  0  0  0  0
 18  5  2  0  0  0  0
 19 22  1  1  0  0  0
 19 33  1  0  0  0  0
 19  7  1  0  0  0  0
 21 28  1  0  0  0  0
 21 25  1  0  0  0  0
 21 29  1  1  0  0  0
 22 20  2  0  0  0  0
 23 22  1  0  0  0  0
 25 23  1  1  0  0  0
 26 23  1  0  0  0  0
 26 27  1  0  0  0  0
 28 25  1  0  0  0  0
 28 24  1  1  0  0  0
 29 26  2  0  0  0  0
 30 31  1  0  0  0  0
 30 33  1  0  0  0  0
 33 32  2  0  0  0  0
M  END
>  <MODEL>
1

>  <REMARK>
 VINA RESULT:      -9.1      0.000      0.000
  Name = 
  3 active torsions:
  status: ('A' for Active; 'I' for Inactive)
    1  A    between atoms: C_10  and  C_21
    2  A    between atoms: C_11  and  C_21
    3  A    between atoms: C_21  and  C_32
                            x       y       z     vdW  Elec       q    Type
                         _______ _______ _______ _____ _____    ______ ____

>  <TORSDO>
F 3

$$$$
=
 OpenBabel11032420303D

 33 38  0  0  1  0  0  0  0  0999 V2000
  187.4660  177.6070  144.3310 C   0  0  1  0  0  3  0  0  0  0  0  0
  188.9320  176.7600  146.2550 C   0  0  0  0  0  3  0  0  0  0  0  0
  185.5900  178.7000  143.0650 C   0  0  0  0  0  0  0  0  0  0  0  0
  188.6630  177.8610  143.4190 C   0  0  0  0  0  2  0  0  0  0  0  0
  184.2070  178.5330  143.2250 C   0  0  0  0  0  3  0  0  0  0  0  0
  187.0310  178.1810  146.6310 C   0  0  0  0  0  0  0  0  0  0  0  0
  183.9100  178.4510  140.8230 C   0  0  0  0  0  0  0  0  0  0  0  0
  189.1670  176.7480  147.6350 C   0  0  0  0  0  3  0  0  0  0  0  0
  187.8610  177.5070  145.7590 C   0  0  0  0  0  0  0  0  0  0  0  0
  188.3190  177.4750  148.4830 C   0  0  0  0  0  3  0  0  0  0  0  0
  187.6130  178.8450  141.5360 C   0  0  0  0  0  2  0  0  0  0  0  0
  185.2920  178.6060  140.6540 C   0  0  0  0  0  3  0  0  0  0  0  0
  186.1340  178.7300  141.7630 C   0  0  0  0  0  0  0  0  0  0  0  0
  188.2900  177.6470  142.0230 N   0  0  0  0  0  2  0  0  0  0  0  0
  186.5090  178.8020  144.2570 C   0  0  1  0  0  3  0  0  0  0  0  0
  185.6760  179.0490  145.8780 S   0  0  0  0  0  0  0  0  0  0  0  0
  187.2690  178.1760  147.9690 N   0  0  0  0  0  0  0  0  0  0  0  0
  183.3720  178.4140  142.1110 C   0  0  0  0  0  3  0  0  0  0  0  0
  182.9880  178.3330  139.6470 C   0  0  1  0  0  3  0  0  0  0  0  0
  183.6220  180.4430  138.7130 O   0  0  0  0  0  0  0  0  0  0  0  0
  178.9310  179.9820  138.6180 C   0  0  1  0  0  3  0  0  0  0  0  0
  182.6810  179.6600  139.0160 C   0  0  0  0  0  0  0  0  0  0  0  0
  181.3160  180.0360  138.7690 N   0  0  0  0  0  0  0  0  0  0  0  0
  179.7360  180.5460  140.8570 O   0  0  0  0  0  1  0  0  0  0  0  0
  180.1770  179.1280  138.9200 C   0  0  1  0  0  3  0  0  0  0  0  0
  180.8350  181.2980  138.3350 C   0  0  0  0  0  0  0  0  0  0  0  0
  181.5690  182.4030  138.2760 C   0  0  0  0  0  2  0  0  0  0  0  0
  179.2220  179.5210  140.0540 C   0  0  2  0  0  3  0  0  0  0  0  0
  179.4250  181.3300  138.3200 N   0  0  0  0  0  2  0  0  0  0  0  0
  183.0420  175.9370  138.8670 N   0  0  0  0  0  2  0  0  0  0  0  0
  183.4520  174.8740  137.9660 C   0  0  0  0  0  1  0  0  0  0  0  0
  184.1560  177.6090  137.6800 O   0  0  0  0  0  0  0  0  0  0  0  0
  183.4280  177.2940  138.6610 C   0  0  0  0  0  0  0  0  0  0  0  0
  1  4  1  6  0  0  0
  1  9  1  0  0  0  0
  2  8  1  0  0  0  0
  3  5  1  0  0  0  0
  6 17  2  0  0  0  0
  7 18  1  0  0  0  0
  8 10  2  0  0  0  0
  9  2  2  0  0  0  0
  9  6  1  0  0  0  0
 11 13  1  0  0  0  0
 11 14  1  0  0  0  0
 12  7  2  0  0  0  0
 12 13  1  0  0  0  0
 13  3  2  0  0  0  0
 14  4  1  0  0  0  0
 15  3  1  6  0  0  0
 15  1  1  0  0  0  0
 15 16  1  0  0  0  0
 16  6  1  0  0  0  0
 17 10  1  0  0  0  0
 18  5  2  0  0  0  0
 19 33  1  6  0  0  0
 19  7  1  0  0  0  0
 20 22  2  0  0  0  0
 21 29  1  1  0  0  0
 21 25  1  0  0  0  0
 21 28  1  0  0  0  0
 22 19  1  0  0  0  0
 23 22  1  0  0  0  0
 25 23  1  1  0  0  0
 25 28  1  0  0  0  0
 26 23  1  0  0  0  0
 27 26  2  0  0  0  0
 28 24  1  1  0  0  0
 29 26  1  0  0  0  0
 31 30  1  0  0  0  0
 32 33  2  0  0  0  0
 33 30  1  0  0  0  0
M  END
>  <MODEL>
2

>  <REMARK>
 VINA RESULT:      -8.8      2.191      4.074
  Name = 
  3 active torsions:
  status: ('A' for Active; 'I' for Inactive)
    1  A    between atoms: C_10  and  C_21
    2  A    between atoms: C_11  and  C_21
    3  A    between atoms: C_21  and  C_32
                            x       y       z     vdW  Elec       q    Type
                         _______ _______ _______ _____ _____    ______ ____

>  <TORSDO>
F 3

$$$$
=
 OpenBabel11032420303D

 33 38  0  0  1  0  0  0  0  0999 V2000
  187.4420  177.6140  144.1700 C   0  0  1  0  0  3  0  0  0  0  0  0
  188.8510  176.8760  146.1800 C   0  0  0  0  0  3  0  0  0  0  0  0
  185.5840  178.5970  142.7930 C   0  0  0  0  0  0  0  0  0  0  0  0
  188.6680  177.8970  143.3070 C   0  0  0  0  0  2  0  0  0  0  0  0
  184.2020  178.3760  142.8950 C   0  0  0  0  0  3  0  0  0  0  0  0
  186.8780  178.2230  146.4320 C   0  0  0  0  0  0  0  0  0  0  0  0
  184.0210  178.2250  140.4840 C   0  0  0  0  0  0  0  0  0  0  0  0
  189.0220  176.9060  147.5680 C   0  0  0  0  0  3  0  0  0  0  0  0
  187.7740  177.5650  145.6160 C   0  0  0  0  0  0  0  0  0  0  0  0
  188.1060  177.6160  148.3580 C   0  0  0  0  0  3  0  0  0  0  0  0
  187.6670  178.7920  141.3540 C   0  0  0  0  0  2  0  0  0  0  0  0
  185.4010  178.4350  140.3740 C   0  0  0  0  0  3  0  0  0  0  0  0
  186.1850  178.6200  141.5170 C   0  0  0  0  0  0  0  0  0  0  0  0
  188.3700  177.6360  141.9010 N   0  0  0  0  0  2  0  0  0  0  0  0
  186.4410  178.7660  144.0220 C   0  0  1  0  0  3  0  0  0  0  0  0
  185.5250  179.0150  145.5980 S   0  0  0  0  0  0  0  0  0  0  0  0
  187.0530  178.2590  147.7800 N   0  0  0  0  0  0  0  0  0  0  0  0
  183.4250  178.1960  141.7470 C   0  0  0  0  0  3  0  0  0  0  0  0
  183.1600  178.0400  139.2710 C   0  0  1  0  0  3  0  0  0  0  0  0
  182.6550  175.7040  139.3740 O   0  0  0  0  0  0  0  0  0  0  0  0
  185.1120  176.6510  135.4630 C   0  0  1  0  0  3  0  0  0  0  0  0
  183.2080  176.6390  138.7340 C   0  0  0  0  0  0  0  0  0  0  0  0
  183.8930  176.3690  137.5000 N   0  0  0  0  0  0  0  0  0  0  0  0
  186.5500  176.5940  137.4390 O   0  0  0  0  0  1  0  0  0  0  0  0
  184.4060  177.4070  136.6040 C   0  0  1  0  0  3  0  0  0  0  0  0
  184.1750  175.1000  136.9310 C   0  0  0  0  0  0  0  0  0  0  0  0
  184.0170  173.9420  137.5600 C   0  0  0  0  0  1  0  0  0  0  0  0
  185.9360  177.4290  136.4990 C   0  0  2  0  0  3  0  0  0  0  0  0
  184.9700  175.2250  135.7730 N   0  0  0  0  0  0  0  0  0  0  0  0
  181.5270  179.9580  139.3530 N   0  0  0  0  0  2  0  0  0  0  0  0
  180.2070  180.5310  139.5470 C   0  0  0  0  0  1  0  0  0  0  0  0
  180.8230  177.7670  139.7370 O   0  0  0  0  0  0  0  0  0  0  0  0
  181.7670  178.5560  139.4580 C   0  0  0  0  0  0  0  0  0  0  0  0
  1  4  1  6  0  0  0
  1  9  1  0  0  0  0
  2  8  1  0  0  0  0
  3  5  1  0  0  0  0
  6 17  2  0  0  0  0
  7 18  1  0  0  0  0
  8 10  2  0  0  0  0
  9  2  2  0  0  0  0
  9  6  1  0  0  0  0
 11 13  1  0  0  0  0
 11 14  1  0  0  0  0
 12  7  2  0  0  0  0
 12 13  1  0  0  0  0
 13  3  2  0  0  0  0
 14  4  1  0  0  0  0
 15  3  1  6  0  0  0
 15  1  1  0  0  0  0
 15 16  1  0  0  0  0
 16  6  1  0  0  0  0
 17 10  1  0  0  0  0
 18  5  2  0  0  0  0
 19 22  1  1  0  0  0
 19 33  1  0  0  0  0
 19  7  1  0  0  0  0
 21 29  1  1  0  0  0
 21 28  1  0  0  0  0
 21 25  1  0  0  0  0
 22 20  2  0  0  0  0
 23 22  1  0  0  0  0
 25 23  1  1  0  0  0
 26 23  1  0  0  0  0
 26 27  1  0  0  0  0
 28 25  1  0  0  0  0
 28 24  1  1  0  0  0
 29 26  2  0  0  0  0
 30 33  1  0  0  0  0
 30 31  1  0  0  0  0
 33 32  2  0  0  0  0
M  END
>  <MODEL>
3

>  <REMARK>
 VINA RESULT:      -8.7      2.507      3.252
  Name = 
  3 active torsions:
  status: ('A' for Active; 'I' for Inactive)
    1  A    between atoms: C_10  and  C_21
    2  A    between atoms: C_11  and  C_21
    3  A    between atoms: C_21  and  C_32
                            x       y       z     vdW  Elec       q    Type
                         _______ _______ _______ _____ _____    ______ ____

>  <TORSDO>
F 3

$$$$
=
 OpenBabel11032420303D

 33 38  0  0  1  0  0  0  0  0999 V2000
  186.2410  178.6630  145.4260 C   0  0  1  0  0  3  0  0  0  0  0  0
  187.1330  178.9910  147.8070 C   0  0  0  0  0  3  0  0  0  0  0  0
  186.0390  177.9040  143.0400 C   0  0  0  0  0  0  0  0  0  0  0  0
  184.7840  178.7110  145.8750 C   0  0  0  0  0  2  0  0  0  0  0  0
  186.9900  177.9750  142.0100 C   0  0  0  0  0  3  0  0  0  0  0  0
  188.1560  177.4610  146.2620 C   0  0  0  0  0  0  0  0  0  0  0  0
  185.2880  178.7090  140.4510 C   0  0  0  0  0  0  0  0  0  0  0  0
  188.0880  178.6280  148.7630 C   0  0  0  0  0  3  0  0  0  0  0  0
  187.1650  178.3770  146.5530 C   0  0  0  0  0  0  0  0  0  0  0  0
  189.0570  177.6680  148.4370 C   0  0  0  0  0  3  0  0  0  0  0  0
  183.6560  178.2530  143.8430 C   0  0  0  0  0  2  0  0  0  0  0  0
  184.3340  178.6510  141.4760 C   0  0  0  0  0  3  0  0  0  0  0  0
  184.7000  178.2530  142.7650 C   0  0  0  0  0  0  0  0  0  0  0  0
  183.9490  179.2900  144.8270 N   0  0  0  0  0  2  0  0  0  0  0  0
  186.4310  177.5050  144.4400 C   0  0  1  0  0  3  0  0  0  0  0  0
  188.1180  176.7930  144.6170 S   0  0  0  0  0  0  0  0  0  0  0  0
  189.0750  177.1040  147.1970 N   0  0  0  0  0  0  0  0  0  0  0  0
  186.6150  178.3710  140.7240 C   0  0  0  0  0  3  0  0  0  0  0  0
  184.9140  179.1190  139.0590 C   0  0  1  0  0  3  0  0  0  0  0  0
  183.8440  177.1990  138.1120 O   0  0  0  0  0  0  0  0  0  0  0  0
  188.0120  177.9150  136.0270 C   0  0  1  0  0  3  0  0  0  0  0  0
  184.8520  177.9570  138.1100 C   0  0  0  0  0  0  0  0  0  0  0  0
  185.9470  177.7080  137.2120 N   0  0  0  0  0  0  0  0  0  0  0  0
  188.2710  176.8870  138.2300 O   0  0  0  0  0  1  0  0  0  0  0  0
  187.0690  178.6280  137.0140 C   0  0  1  0  0  3  0  0  0  0  0  0
  186.1310  176.5810  136.3710 C   0  0  0  0  0  0  0  0  0  0  0  0
  185.4030  175.4710  136.4290 C   0  0  0  0  0  1  0  0  0  0  0  0
  188.4120  178.0730  137.5010 C   0  0  2  0  0  3  0  0  0  0  0  0
  187.3820  176.6270  135.7220 N   0  0  0  0  0  0  0  0  0  0  0  0
  182.4190  179.4060  139.2670 N   0  0  0  0  0  2  0  0  0  0  0  0
  181.1930  180.1840  139.2140 C   0  0  0  0  0  1  0  0  0  0  0  0
  183.7920  181.2120  138.7190 O   0  0  0  0  0  0  0  0  0  0  0  0
  183.6950  179.9890  139.0120 C   0  0  0  0  0  0  0  0  0  0  0  0
  1  4  1  1  0  0  0
  1  9  1  0  0  0  0
  2  8  1  0  0  0  0
  5  3  2  0  0  0  0
  6  9  1  0  0  0  0
  6 17  2  0  0  0  0
  7 18  2  0  0  0  0
  7 12  1  0  0  0  0
  9  2  2  0  0  0  0
 10  8  2  0  0  0  0
 11 14  1  0  0  0  0
 12 13  2  0  0  0  0
 13  3  1  0  0  0  0
 13 11  1  0  0  0  0
 14  4  1  0  0  0  0
 15  3  1  6  0  0  0
 15 16  1  0  0  0  0
 15  1  1  0  0  0  0
 16  6  1  0  0  0  0
 17 10  1  0  0  0  0
 18  5  1  0  0  0  0
 19 22  1  6  0  0  0
 19  7  1  0  0  0  0
 21 29  1  1  0  0  0
 21 25  1  0  0  0  0
 21 28  1  0  0  0  0
 22 20  2  0  0  0  0
 23 22  1  0  0  0  0
 25 23  1  1  0  0  0
 25 28  1  0  0  0  0
 26 27  1  0  0  0  0
 26 23  1  0  0  0  0
 28 24  1  1  0  0  0
 29 26  2  0  0  0  0
 31 30  1  0  0  0  0
 32 33  2  0  0  0  0
 33 19  1  0  0  0  0
 33 30  1  0  0  0  0
M  END
>  <MODEL>
4

>  <REMARK>
 VINA RESULT:      -8.5      3.404      4.817
  Name = 
  3 active torsions:
  status: ('A' for Active; 'I' for Inactive)
    1  A    between atoms: C_10  and  C_21
    2  A    between atoms: C_11  and  C_21
    3  A    between atoms: C_21  and  C_32
                            x       y       z     vdW  Elec       q    Type
                         _______ _______ _______ _____ _____    ______ ____

>  <TORSDO>
F 3

$$$$
=
 OpenBabel11032420303D

 33 38  0  0  1  0  0  0  0  0999 V2000
  187.0200  177.6990  144.1200 C   0  0  1  0  0  3  0  0  0  0  0  0
  188.5920  176.8170  145.9430 C   0  0  0  0  0  3  0  0  0  0  0  0
  185.0860  178.8300  142.9830 C   0  0  0  0  0  0  0  0  0  0  0  0
  188.1600  177.9390  143.1350 C   0  0  0  0  0  2  0  0  0  0  0  0
  183.7120  178.6860  143.2320 C   0  0  0  0  0  3  0  0  0  0  0  0
  186.7440  178.2670  146.4470 C   0  0  0  0  0  0  0  0  0  0  0  0
  183.2610  178.6230  140.8520 C   0  0  0  0  0  0  0  0  0  0  0  0
  188.9150  176.7940  147.3040 C   0  0  0  0  0  3  0  0  0  0  0  0
  187.5040  177.5850  145.5200 C   0  0  0  0  0  0  0  0  0  0  0  0
  188.1350  177.5290  148.2080 C   0  0  0  0  0  3  0  0  0  0  0  0
  187.0080  178.9510  141.3280 C   0  0  0  0  0  2  0  0  0  0  0  0
  184.6310  178.7560  140.5960 C   0  0  0  0  0  3  0  0  0  0  0  0
  185.5450  178.8590  141.6490 C   0  0  0  0  0  0  0  0  0  0  0  0
  187.6950  177.7400  141.7650 N   0  0  0  0  0  2  0  0  0  0  0  0
  186.0800  178.9110  144.1140 C   0  0  1  0  0  3  0  0  0  0  0  0
  185.3580  179.1610  145.7870 S   0  0  0  0  0  0  0  0  0  0  0  0
  187.0670  178.2500  147.7670 N   0  0  0  0  0  0  0  0  0  0  0  0
  182.8060  178.5870  142.1730 C   0  0  0  0  0  3  0  0  0  0  0  0
  182.2630  178.5260  139.7380 C   0  0  1  0  0  3  0  0  0  0  0  0
  180.6580  177.2080  140.9250 O   0  0  0  0  0  0  0  0  0  0  0  0
  181.6130  175.2190  136.7580 C   0  0  1  0  0  3  0  0  0  0  0  0
  181.3490  177.3440  139.8790 C   0  0  0  0  0  0  0  0  0  0  0  0
  181.2760  176.3670  138.8270 N   0  0  0  0  0  0  0  0  0  0  0  0
  183.3930  174.8080  138.3830 O   0  0  0  0  0  1  0  0  0  0  0  0
  181.9000  176.5310  137.5130 C   0  0  1  0  0  3  0  0  0  0  0  0
  180.5980  175.1210  138.8560 C   0  0  0  0  0  0  0  0  0  0  0  0
  180.0820  174.5700  139.9480 C   0  0  0  0  0  1  0  0  0  0  0  0
  183.0350  175.5360  137.2430 C   0  0  2  0  0  3  0  0  0  0  0  0
  180.8490  174.3770  137.6840 N   0  0  0  0  0  0  0  0  0  0  0  0
  182.0160  180.6950  138.4780 N   0  0  0  0  0  2  0  0  0  0  0  0
  181.3760  181.9690  138.2000 C   0  0  0  0  0  1  0  0  0  0  0  0
  180.5340  180.1270  140.1890 O   0  0  0  0  0  0  0  0  0  0  0  0
  181.5370  179.8120  139.4900 C   0  0  0  0  0  0  0  0  0  0  0  0
  1  4  1  6  0  0  0
  1  9  1  0  0  0  0
  2  8  1  0  0  0  0
  3  5  1  0  0  0  0
  6 17  2  0  0  0  0
  7 18  1  0  0  0  0
  8 10  2  0  0  0  0
  9  2  2  0  0  0  0
  9  6  1  0  0  0  0
 11 13  1  0  0  0  0
 11 14  1  0  0  0  0
 12  7  2  0  0  0  0
 12 13  1  0  0  0  0
 13  3  2  0  0  0  0
 14  4  1  0  0  0  0
 15  3  1  6  0  0  0
 15  1  1  0  0  0  0
 15 16  1  0  0  0  0
 16  6  1  0  0  0  0
 17 10  1  0  0  0  0
 18  5  2  0  0  0  0
 19 33  1  1  0  0  0
 19 22  1  0  0  0  0
 19  7  1  0  0  0  0
 21 28  1  0  0  0  0
 21 25  1  0  0  0  0
 21 29  1  1  0  0  0
 22 20  2  0  0  0  0
 23 26  1  0  0  0  0
 23 22  1  0  0  0  0
 25 23  1  1  0  0  0
 26 27  1  0  0  0  0
 28 25  1  0  0  0  0
 28 24  1  1  0  0  0
 29 26  2  0  0  0  0
 30 33  1  0  0  0  0
 31 30  1  0  0  0  0
 33 32  2  0  0  0  0
M  END
>  <MODEL>
5

>  <REMARK>
 VINA RESULT:      -8.4      1.483      1.648
  Name = 
  3 active torsions:
  status: ('A' for Active; 'I' for Inactive)
    1  A    between atoms: C_10  and  C_21
    2  A    between atoms: C_11  and  C_21
    3  A    between atoms: C_21  and  C_32
                            x       y       z     vdW  Elec       q    Type
                         _______ _______ _______ _____ _____    ______ ____

>  <TORSDO>
F 3

$$$$
=
 OpenBabel11032420303D

 33 38  0  0  1  0  0  0  0  0999 V2000
  188.7540  177.1430  142.6680 C   0  0  1  0  0  3  0  0  0  0  0  0
  187.7120  177.0930  145.0090 C   0  0  0  0  0  3  0  0  0  0  0  0
  189.0700  177.5410  140.2070 C   0  0  0  0  0  0  0  0  0  0  0  0
  190.1690  177.3260  143.2100 C   0  0  0  0  0  2  0  0  0  0  0  0
  188.2160  177.2070  139.1450 C   0  0  0  0  0  3  0  0  0  0  0  0
  186.6700  178.2430  143.1750 C   0  0  0  0  0  0  0  0  0  0  0  0
  190.1010  176.4310  137.8360 C   0  0  0  0  0  0  0  0  0  0  0  0
  186.6530  177.4930  145.8320 C   0  0  0  0  0  3  0  0  0  0  0  0
  187.7200  177.4980  143.6720 C   0  0  0  0  0  0  0  0  0  0  0  0
  185.6240  178.2780  145.2930 C   0  0  0  0  0  3  0  0  0  0  0  0
  191.4050  177.5840  141.2040 C   0  0  0  0  0  2  0  0  0  0  0  0
  190.9590  176.7520  138.8960 C   0  0  0  0  0  3  0  0  0  0  0  0
  190.4550  177.3030  140.0770 C   0  0  0  0  0  0  0  0  0  0  0  0
  191.1380  176.6870  142.3230 N   0  0  0  0  0  2  0  0  0  0  0  0
  188.5310  178.1070  141.4960 C   0  0  1  0  0  3  0  0  0  0  0  0
  186.7730  178.6480  141.4490 S   0  0  0  0  0  0  0  0  0  0  0  0
  185.6490  178.6380  143.9790 N   0  0  0  0  0  0  0  0  0  0  0  0
  188.7290  176.6600  137.9660 C   0  0  0  0  0  3  0  0  0  0  0  0
  190.6230  175.8540  136.5550 C   0  0  1  0  0  3  0  0  0  0  0  0
  191.2790  173.8000  137.5920 O   0  0  0  0  0  0  0  0  0  0  0  0
  194.6240  175.2320  134.5940 C   0  0  1  0  0  3  0  0  0  0  0  0
  191.5770  174.7170  136.7790 C   0  0  0  0  0  0  0  0  0  0  0  0
  192.8280  174.6830  136.0730 N   0  0  0  0  0  0  0  0  0  0  0  0
  194.6870  176.4960  136.6850 O   0  0  0  0  0  1  0  0  0  0  0  0
  193.1810  175.6000  134.9870 C   0  0  1  0  0  3  0  0  0  0  0  0
  193.9070  173.7840  136.2750 C   0  0  0  0  0  0  0  0  0  0  0  0
  194.0040  172.9430  137.2980 C   0  0  0  0  0  1  0  0  0  0  0  0
  194.3360  176.5470  135.3310 C   0  0  2  0  0  3  0  0  0  0  0  0
  195.0190  174.1330  135.4800 N   0  0  0  0  0  0  0  0  0  0  0  0
  188.8630  174.2840  135.6690 N   0  0  0  0  0  2  0  0  0  0  0  0
  187.8190  173.8990  134.7350 C   0  0  0  0  0  1  0  0  0  0  0  0
  189.2500  176.3490  134.6520 O   0  0  0  0  0  0  0  0  0  0  0  0
  189.5390  175.5360  135.5720 C   0  0  0  0  0  0  0  0  0  0  0  0
  1  4  1  1  0  0  0
  1  9  1  0  0  0  0
  2  8  1  0  0  0  0
  5  3  2  0  0  0  0
  6  9  1  0  0  0  0
  6 17  2  0  0  0  0
  7 18  2  0  0  0  0
  7 12  1  0  0  0  0
  9  2  2  0  0  0  0
 10  8  2  0  0  0  0
 11 14  1  0  0  0  0
 12 13  2  0  0  0  0
 13  3  1  0  0  0  0
 13 11  1  0  0  0  0
 14  4  1  0  0  0  0
 15  3  1  6  0  0  0
 15  1  1  0  0  0  0
 16 15  1  0  0  0  0
 16  6  1  0  0  0  0
 17 10  1  0  0  0  0
 18  5  1  0  0  0  0
 19 33  1  6  0  0  0
 19 22  1  0  0  0  0
 19  7  1  0  0  0  0
 21 25  1  0  0  0  0
 21 28  1  0  0  0  0
 21 29  1  1  0  0  0
 22 20  2  0  0  0  0
 23 26  1  0  0  0  0
 23 22  1  0  0  0  0
 25 28  1  0  0  0  0
 25 23  1  1  0  0  0
 26 27  1  0  0  0  0
 28 24  1  1  0  0  0
 29 26  2  0  0  0  0
 31 30  1  0  0  0  0
 32 33  2  0  0  0  0
 33 30  1  0  0  0  0
M  END
>  <MODEL>
6

>  <REMARK>
 VINA RESULT:      -8.2      7.085      9.947
  Name = 
  3 active torsions:
  status: ('A' for Active; 'I' for Inactive)
    1  A    between atoms: C_10  and  C_21
    2  A    between atoms: C_11  and  C_21
    3  A    between atoms: C_21  and  C_32
                            x       y       z     vdW  Elec       q    Type
                         _______ _______ _______ _____ _____    ______ ____

>  <TORSDO>
F 3

$$$$
=
 OpenBabel11032420303D

 33 38  0  0  1  0  0  0  0  0999 V2000
  186.3370  178.6000  145.6610 C   0  0  1  0  0  3  0  0  0  0  0  0
  187.4570  178.7840  147.9600 C   0  0  0  0  0  3  0  0  0  0  0  0
  185.9070  177.9970  143.2600 C   0  0  0  0  0  0  0  0  0  0  0  0
  184.9310  178.5930  146.2540 C   0  0  0  0  0  2  0  0  0  0  0  0
  186.7510  178.1520  142.1500 C   0  0  0  0  0  3  0  0  0  0  0  0
  188.3370  177.3770  146.2220 C   0  0  0  0  0  0  0  0  0  0  0  0
  184.8950  178.9600  140.8190 C   0  0  0  0  0  0  0  0  0  0  0  0
  188.5060  178.3740  148.7910 C   0  0  0  0  0  3  0  0  0  0  0  0
  187.3710  178.2550  146.6700 C   0  0  0  0  0  0  0  0  0  0  0  0
  189.4470  177.4540  148.3070 C   0  0  0  0  0  3  0  0  0  0  0  0
  183.6120  178.2530  144.3150 C   0  0  0  0  0  2  0  0  0  0  0  0
  184.0490  178.8180  141.9260 C   0  0  0  0  0  3  0  0  0  0  0  0
  184.5440  178.3410  143.1430 C   0  0  0  0  0  0  0  0  0  0  0  0
  183.9910  179.2270  145.3330 N   0  0  0  0  0  2  0  0  0  0  0  0
  186.4400  177.5130  144.5850 C   0  0  1  0  0  3  0  0  0  0  0  0
  188.1430  176.8180  144.5470 S   0  0  0  0  0  0  0  0  0  0  0  0
  189.3480  176.9730  147.0360 N   0  0  0  0  0  0  0  0  0  0  0  0
  186.2470  178.6260  140.9360 C   0  0  0  0  0  3  0  0  0  0  0  0
  184.3810  179.4550  139.5000 C   0  0  1  0  0  3  0  0  0  0  0  0
  185.7750  179.0730  137.5930 O   0  0  0  0  0  0  0  0  0  0  0  0
  182.9410  175.3690  138.2870 C   0  0  1  0  0  3  0  0  0  0  0  0
  184.8640  178.6290  138.3440 C   0  0  0  0  0  0  0  0  0  0  0  0
  184.2770  177.3410  138.0900 N   0  0  0  0  0  0  0  0  0  0  0  0
  181.7500  177.2330  137.2460 O   0  0  0  0  0  1  0  0  0  0  0  0
  183.3490  176.6710  139.0020 C   0  0  1  0  0  3  0  0  0  0  0  0
  184.4920  176.5030  136.9650 C   0  0  0  0  0  0  0  0  0  0  0  0
  185.1290  176.8750  135.8610 C   0  0  0  0  0  2  0  0  0  0  0  0
  181.9330  176.5170  138.4350 C   0  0  2  0  0  3  0  0  0  0  0  0
  183.6530  175.3700  137.0050 N   0  0  0  0  0  2  0  0  0  0  0  0
  182.3060  180.3600  138.3940 N   0  0  0  0  0  2  0  0  0  0  0  0
  180.8800  180.6300  138.3340 C   0  0  0  0  0  1  0  0  0  0  0  0
  182.1910  179.2910  140.4660 O   0  0  0  0  0  0  0  0  0  0  0  0
  182.9000  179.6750  139.4950 C   0  0  0  0  0  0  0  0  0  0  0  0
  1  4  1  1  0  0  0
  1  9  1  0  0  0  0
  2  8  1  0  0  0  0
  5  3  2  0  0  0  0
  6  9  1  0  0  0  0
  6 17  2  0  0  0  0
  7 18  2  0  0  0  0
  7 12  1  0  0  0  0
  9  2  2  0  0  0  0
 10  8  2  0  0  0  0
 11 14  1  0  0  0  0
 12 13  2  0  0  0  0
 13  3  1  0  0  0  0
 13 11  1  0  0  0  0
 14  4  1  0  0  0  0
 15  3  1  6  0  0  0
 15  1  1  0  0  0  0
 16 15  1  0  0  0  0
 16  6  1  0  0  0  0
 17 10  1  0  0  0  0
 18  5  1  0  0  0  0
 19 22  1  6  0  0  0
 19  7  1  0  0  0  0
 20 22  2  0  0  0  0
 21 29  1  6  0  0  0
 21 28  1  0  0  0  0
 21 25  1  0  0  0  0
 23 22  1  0  0  0  0
 25 23  1  6  0  0  0
 26 29  1  0  0  0  0
 26 23  1  0  0  0  0
 27 26  2  0  0  0  0
 28 24  1  6  0  0  0
 28 25  1  0  0  0  0
 30 33  1  0  0  0  0
 31 30  1  0  0  0  0
 33 19  1  0  0  0  0
 33 32  2  0  0  0  0
M  END
>  <MODEL>
7

>  <REMARK>
 VINA RESULT:      -7.8      2.646      3.830
  Name = 
  3 active torsions:
  status: ('A' for Active; 'I' for Inactive)
    1  A    between atoms: C_10  and  C_21
    2  A    between atoms: C_11  and  C_21
    3  A    between atoms: C_21  and  C_32
                            x       y       z     vdW  Elec       q    Type
                         _______ _______ _______ _____ _____    ______ ____

>  <TORSDO>
F 3

$$$$
=
 OpenBabel11032420303D

 33 38  0  0  1  0  0  0  0  0999 V2000
  187.4620  178.2580  145.2070 C   0  0  1  0  0  3  0  0  0  0  0  0
  189.8590  178.2870  146.1150 C   0  0  0  0  0  3  0  0  0  0  0  0
  185.4640  177.7600  143.7670 C   0  0  0  0  0  0  0  0  0  0  0  0
  186.8440  178.3430  146.6000 C   0  0  0  0  0  2  0  0  0  0  0  0
  185.3310  177.8810  142.3760 C   0  0  0  0  0  3  0  0  0  0  0  0
  189.2040  176.8680  144.2910 C   0  0  0  0  0  0  0  0  0  0  0  0
  183.1350  178.8690  142.6450 C   0  0  0  0  0  0  0  0  0  0  0  0
  191.1570  177.7730  146.0190 C   0  0  0  0  0  3  0  0  0  0  0  0
  188.8750  177.8040  145.2490 C   0  0  0  0  0  0  0  0  0  0  0  0
  191.4400  176.7970  145.0530 C   0  0  0  0  0  3  0  0  0  0  0  0
  184.5350  178.1620  146.0960 C   0  0  0  0  0  2  0  0  0  0  0  0
  183.2650  178.7610  144.0350 C   0  0  0  0  0  3  0  0  0  0  0  0
  184.4190  178.2120  144.6010 C   0  0  0  0  0  0  0  0  0  0  0  0
  185.5810  179.0740  146.5500 N   0  0  0  0  0  2  0  0  0  0  0  0
  186.7190  177.1980  144.3860 C   0  0  1  0  0  3  0  0  0  0  0  0
  187.8770  176.3750  143.2180 S   0  0  0  0  0  0  0  0  0  0  0  0
  190.4640  176.3630  144.2080 N   0  0  0  0  0  0  0  0  0  0  0  0
  184.1720  178.4280  141.8190 C   0  0  0  0  0  3  0  0  0  0  0  0
  181.9000  179.4400  142.0170 C   0  0  1  0  0  3  0  0  0  0  0  0
  181.6160  177.4080  140.7860 O   0  0  0  0  0  0  0  0  0  0  0  0
  179.8660  181.0360  138.3350 C   0  0  1  0  0  3  0  0  0  0  0  0
  181.4420  178.6570  140.8210 C   0  0  0  0  0  0  0  0  0  0  0  0
  180.8190  179.3350  139.7170 N   0  0  0  0  0  0  0  0  0  0  0  0
  182.3070  180.9600  138.2140 O   0  0  0  0  0  1  0  0  0  0  0  0
  180.4170  180.7420  139.7430 C   0  0  1  0  0  3  0  0  0  0  0  0
  180.4750  178.7880  138.4550 C   0  0  0  0  0  0  0  0  0  0  0  0
  180.8590  177.5930  138.0220 C   0  0  0  0  0  1  0  0  0  0  0  0
  181.2120  181.6270  138.7760 C   0  0  2  0  0  3  0  0  0  0  0  0
  179.9900  179.7840  137.5810 N   0  0  0  0  0  0  0  0  0  0  0  0
  180.2070  178.5990  143.6840 N   0  0  0  0  0  2  0  0  0  0  0  0
  179.1270  178.7770  144.6390 C   0  0  0  0  0  1  0  0  0  0  0  0
  180.4010  180.8780  143.2180 O   0  0  0  0  0  0  0  0  0  0  0  0
  180.8080  179.7020  143.0080 C   0  0  0  0  0  0  0  0  0  0  0  0
  1  9  1  0  0  0  0
  1  4  1  1  0  0  0
  3 15  1  0  0  0  0
  3 13  1  0  0  0  0
  5  3  2  0  0  0  0
  6  9  1  0  0  0  0
  7 12  1  0  0  0  0
  8  2  1  0  0  0  0
  9  2  2  0  0  0  0
 10  8  2  0  0  0  0
 11 14  1  0  0  0  0
 12 13  2  0  0  0  0
 13 11  1  0  0  0  0
 14  4  1  0  0  0  0
 15 16  1  6  0  0  0
 15  1  1  0  0  0  0
 16  6  1  0  0  0  0
 17  6  2  0  0  0  0
 17 10  1  0  0  0  0
 18  5  1  0  0  0  0
 18  7  2  0  0  0  0
 19 22  1  6  0  0  0
 19  7  1  0  0  0  0
 19 33  1  0  0  0  0
 20 22  2  0  0  0  0
 21 29  1  6  0  0  0
 21 28  1  0  0  0  0
 21 25  1  0  0  0  0
 23 22  1  0  0  0  0
 25 23  1  6  0  0  0
 26 23  1  0  0  0  0
 27 26  1  0  0  0  0
 28 24  1  6  0  0  0
 28 25  1  0  0  0  0
 29 26  2  0  0  0  0
 30 31  1  0  0  0  0
 33 32  2  0  0  0  0
 33 30  1  0  0  0  0
M  END
>  <MODEL>
8

>  <REMARK>
 VINA RESULT:      -7.7      2.398      3.622
  Name = 
  3 active torsions:
  status: ('A' for Active; 'I' for Inactive)
    1  A    between atoms: C_10  and  C_21
    2  A    between atoms: C_11  and  C_21
    3  A    between atoms: C_21  and  C_32
                            x       y       z     vdW  Elec       q    Type
                         _______ _______ _______ _____ _____    ______ ____

>  <TORSDO>
F 3

$$$$
=
 OpenBabel11032420303D

 33 38  0  0  1  0  0  0  0  0999 V2000
  186.4240  177.8070  144.2990 C   0  0  1  0  0  3  0  0  0  0  0  0
  188.5580  176.9320  145.4180 C   0  0  0  0  0  3  0  0  0  0  0  0
  184.1720  178.8700  143.9630 C   0  0  0  0  0  0  0  0  0  0  0  0
  187.1510  178.1720  143.0070 C   0  0  0  0  0  2  0  0  0  0  0  0
  182.9730  178.6240  144.6470 C   0  0  0  0  0  3  0  0  0  0  0  0
  186.9310  178.2300  146.6170 C   0  0  0  0  0  0  0  0  0  0  0  0
  181.7430  178.6600  142.5600 C   0  0  0  0  0  0  0  0  0  0  0  0
  189.3250  176.8570  146.5860 C   0  0  0  0  0  3  0  0  0  0  0  0
  187.3600  177.6490  145.4420 C   0  0  0  0  0  0  0  0  0  0  0  0
  188.8680  177.4910  147.7500 C   0  0  0  0  0  3  0  0  0  0  0  0
  185.4120  179.2040  141.7720 C   0  0  0  0  0  2  0  0  0  0  0  0
  182.9390  178.8950  141.8680 C   0  0  0  0  0  3  0  0  0  0  0  0
  184.1500  179.0000  142.5580 C   0  0  0  0  0  0  0  0  0  0  0  0
  186.2570  178.0180  141.8630 N   0  0  0  0  0  2  0  0  0  0  0  0
  185.4880  178.9540  144.6960 C   0  0  1  0  0  3  0  0  0  0  0  0
  185.3660  179.0670  146.5280 S   0  0  0  0  0  0  0  0  0  0  0  0
  187.6830  178.1630  147.7470 N   0  0  0  0  0  0  0  0  0  0  0  0
  181.7660  178.5240  143.9500 C   0  0  0  0  0  3  0  0  0  0  0  0
  180.4320  178.5590  141.8410 C   0  0  1  0  0  3  0  0  0  0  0  0
  179.0150  180.4840  141.9530 O   0  0  0  0  0  0  0  0  0  0  0  0
  181.9170  180.8310  138.2530 C   0  0  1  0  0  3  0  0  0  0  0  0
  179.9420  179.8870  141.3410 C   0  0  0  0  0  0  0  0  0  0  0  0
  180.5230  180.4650  140.1610 N   0  0  0  0  0  0  0  0  0  0  0  0
  180.0670  179.2950  137.8080 O   0  0  0  0  0  1  0  0  0  0  0  0
  181.7140  179.9370  139.4910 C   0  0  1  0  0  3  0  0  0  0  0  0
  180.0840  181.6190  139.4610 C   0  0  0  0  0  0  0  0  0  0  0  0
  178.9310  182.2390  139.6810 C   0  0  0  0  0  1  0  0  0  0  0  0
  181.4360  179.3820  138.0900 C   0  0  2  0  0  3  0  0  0  0  0  0
  180.8290  181.8140  138.2790 N   0  0  0  0  0  0  0  0  0  0  0  0
  179.2190  177.2500  140.0630 N   0  0  0  0  0  2  0  0  0  0  0  0
  179.1260  176.2120  139.0500 C   0  0  0  0  0  1  0  0  0  0  0  0
  181.4450  176.7860  140.5840 O   0  0  0  0  0  0  0  0  0  0  0  0
  180.4190  177.4890  140.7940 C   0  0  0  0  0  0  0  0  0  0  0  0
  1  4  1  6  0  0  0
  1 15  1  0  0  0  0
  1  9  1  0  0  0  0
  2  9  2  0  0  0  0
  2  8  1  0  0  0  0
  3  5  1  0  0  0  0
  6 17  2  0  0  0  0
  7 18  1  0  0  0  0
  8 10  2  0  0  0  0
  9  6  1  0  0  0  0
 11 14  1  0  0  0  0
 11 13  1  0  0  0  0
 12 13  1  0  0  0  0
 12  7  2  0  0  0  0
 13  3  2  0  0  0  0
 14  4  1  0  0  0  0
 15  3  1  6  0  0  0
 15 16  1  0  0  0  0
 16  6  1  0  0  0  0
 17 10  1  0  0  0  0
 18  5  2  0  0  0  0
 19 33  1  6  0  0  0
 19  7  1  0  0  0  0
 21 29  1  1  0  0  0
 21 25  1  0  0  0  0
 22 19  1  0  0  0  0
 22 20  2  0  0  0  0
 23 22  1  0  0  0  0
 25 23  1  1  0  0  0
 26 27  1  0  0  0  0
 26 23  1  0  0  0  0
 28 24  1  1  0  0  0
 28 21  1  0  0  0  0
 28 25  1  0  0  0  0
 29 26  2  0  0  0  0
 30 33  1  0  0  0  0
 31 30  1  0  0  0  0
 32 33  2  0  0  0  0
M  END
>  <MODEL>
9

>  <REMARK>
 VINA RESULT:      -7.7      1.496      3.201
  Name = 
  3 active torsions:
  status: ('A' for Active; 'I' for Inactive)
    1  A    between atoms: C_10  and  C_21
    2  A    between atoms: C_11  and  C_21
    3  A    between atoms: C_21  and  C_32
                            x       y       z     vdW  Elec       q    Type
                         _______ _______ _______ _____ _____    ______ ____

>  <TORSDO>
F 3

$$$$
