=
 OpenBabel11032419243D

 51 58  0  0  1  0  0  0  0  0999 V2000
  186.5230  177.3960  143.5940 C   0  0  0  0  0  3  0  0  0  0  0  0
  186.9750  177.8370  144.8490 C   0  0  0  0  0  0  0  0  0  0  0  0
  188.3910  177.5410  145.2430 C   0  0  0  0  0  0  0  0  0  0  0  0
  184.4270  178.5560  143.8700 C   0  0  0  0  0  0  0  0  0  0  0  0
  186.0920  178.6110  145.6420 C   0  0  0  0  0  0  0  0  0  0  0  0
  189.5540  177.9040  144.2980 C   0  0  1  0  0  3  0  0  0  0  0  0
  186.0030  180.0840  147.4880 O   0  0  0  0  0  0  0  0  0  0  0  0
  184.8390  178.9770  145.1330 C   0  0  0  0  0  3  0  0  0  0  0  0
  187.7630  176.9700  147.5390 N   0  0  0  0  0  2  0  0  0  0  0  0
  190.7430  177.2050  144.5900 O   0  0  0  0  0  0  0  0  0  0  0  0
  188.7230  177.1390  146.4950 C   0  0  0  0  0  0  0  0  0  0  0  0
  191.0960  177.5290  145.9040 C   0  0  0  0  0  2  0  0  0  0  0  0
  190.1460  176.8110  146.8460 C   0  0  0  0  0  2  0  0  0  0  0  0
  186.3780  178.9690  147.0360 C   0  0  0  0  0  0  0  0  0  0  0  0
  185.2640  177.7470  143.1070 C   0  0  0  0  0  3  0  0  0  0  0  0
  186.8910  177.9930  147.9360 N   0  0  0  0  0  2  0  0  0  0  0  0
  189.2670  177.8200  142.7960 C   0  0  0  0  0  2  0  0  0  0  0  0
  190.2840  176.9600  142.0460 C   0  0  0  0  0  2  0  0  0  0  0  0
  190.5490  177.0400  139.5250 C   0  0  0  0  0  0  0  0  0  0  0  0
  189.8530  176.7310  140.6330 C   0  0  0  0  0  3  0  0  0  0  0  0
  187.6150  177.9800  135.5680 C   0  0  0  0  0  2  0  0  0  0  0  0
  187.2780  179.1320  136.4220 N   0  0  0  0  0  2  0  0  0  0  0  0
  189.2410  176.0940  135.5280 N   0  0  0  0  0  2  0  0  0  0  0  0
  190.6750  174.0800  135.8210 C   0  0  2  0  0  3  0  0  0  0  0  0
  186.9680  178.6830  137.6770 O   0  0  0  0  0  0  0  0  0  0  0  0
  188.3840  176.9320  136.3710 C   0  0  1  0  0  3  0  0  0  0  0  0
  189.9410  172.9500  135.4650 O   0  0  0  0  0  1  0  0  0  0  0  0
  189.1810  177.6340  137.4890 C   0  0  1  0  0  3  0  0  0  0  0  0
  191.4000  174.7060  138.0260 O   0  0  0  0  0  0  0  0  0  0  0  0
  188.1900  178.4390  138.3540 C   0  0  0  0  0  2  0  0  0  0  0  0
  191.5960  173.7510  136.9990 C   0  0  0  0  0  2  0  0  0  0  0  0
  189.9970  176.6690  138.2500 N   0  0  0  0  0  0  0  0  0  0  0  0
  190.7330  175.7460  137.3760 C   0  0  2  0  0  3  0  0  0  0  0  0
  189.7760  175.0910  136.4380 C   0  0  1  0  0  3  0  0  0  0  0  0
  191.7880  177.7070  139.5420 O   0  0  0  0  0  0  0  0  0  0  0  0
  193.0290  177.1260  139.9210 C   0  0  0  0  0  1  0  0  0  0  0  0
  183.0990  178.9770  143.3370 C   0  0  0  0  0  2  0  0  0  0  0  0
  181.7160  179.3060  141.2750 C   0  0  1  0  0  3  0  0  0  0  0  0
  180.7740  177.1670  142.0840 F   0  0  0  0  0  0  0  0  0  0  0  0
  180.5410  178.3440  141.3800 C   0  0  2  0  0  0  0  0  0  0  0  0
  184.5880  176.7300  139.1510 O   0  0  0  0  0  0  0  0  0  0  0  0
  184.1470  179.3460  139.6090 C   0  0  0  0  0  2  0  0  0  0  0  0
  183.0170  178.7220  141.8390 C   0  0  1  0  0  3  0  0  0  0  0  0
  182.0100  177.3310  139.6070 C   0  0  0  0  0  2  0  0  0  0  0  0
  184.2610  179.2790  141.1350 C   0  0  0  0  0  2  0  0  0  0  0  0
  183.5760  177.8110  138.8940 S   0  0  0  0  0  0  0  0  0  0  0  0
  181.1920  178.5600  140.0220 C   0  0  2  0  0  3  0  0  0  0  0  0
  183.4090  177.9910  137.4130 O   0  0  0  0  0  0  0  0  0  0  0  0
  179.3240  179.0050  141.5890 O   0  0  0  0  0  0  0  0  0  0  0  0
  178.9310  178.6510  143.8090 O   0  0  0  0  0  1  0  0  0  0  0  0
  179.4000  179.5670  142.8680 C   0  0  0  0  0  2  0  0  0  0  0  0
  1  2  1  0  0  0  0
  2  3  1  0  0  0  0
  2  5  2  0  0  0  0
  3 11  2  0  0  0  0
  4  8  2  0  0  0  0
  5 14  1  0  0  0  0
  6 17  1  6  0  0  0
  6 10  1  0  0  0  0
  6  3  1  0  0  0  0
  8  5  1  0  0  0  0
  9 16  1  0  0  0  0
 10 12  1  0  0  0  0
 11 13  1  0  0  0  0
 11  9  1  0  0  0  0
 12 13  1  0  0  0  0
 14  7  2  0  0  0  0
 14 16  1  0  0  0  0
 15  1  2  0  0  0  0
 15  4  1  0  0  0  0
 18 17  1  0  0  0  0
 19 35  1  0  0  0  0
 19 20  2  0  0  0  0
 20 18  1  0  0  0  0
 21 22  1  0  0  0  0
 22 25  1  0  0  0  0
 23 26  1  0  0  0  0
 24 27  1  1  0  0  0
 24 34  1  0  0  0  0
 24 31  1  0  0  0  0
 25 30  1  0  0  0  0
 26 21  1  6  0  0  0
 26 28  1  0  0  0  0
 28 32  1  0  0  0  0
 28 30  1  1  0  0  0
 31 29  1  0  0  0  0
 32 19  1  0  0  0  0
 33 29  1  1  0  0  0
 33 32  1  0  0  0  0
 34 23  1  6  0  0  0
 34 33  1  0  0  0  0
 35 36  1  0  0  0  0
 37  4  1  0  0  0  0
 38 40  1  0  0  0  0
 38 43  1  0  0  0  0
 40 49  1  0  0  0  0
 40 39  1  0  0  0  0
 42 45  1  0  0  0  0
 43 37  1  0  0  0  0
 44 47  1  0  0  0  0
 45 43  1  0  0  0  0
 46 41  2  0  0  0  0
 46 44  1  0  0  0  0
 46 42  1  0  0  0  0
 47 38  1  0  0  0  0
 47 40  1  0  0  0  0
 48 46  2  0  0  0  0
 49 51  1  0  0  0  0
 51 50  1  0  0  0  0
M  END
>  <MODEL>
1

>  <REMARK>
 VINA RESULT:      -9.4      0.000      0.000
  Name = 
  9 active torsions:
  status: ('A' for Active; 'I' for Inactive)
    1  A    between atoms: O_1  and  C_18
    2  A    between atoms: C_2  and  C_15
    3  A    between atoms: C_2  and  C_35
    4  A    between atoms: O_8  and  C_12
    5  A    between atoms: O_8  and  C_41
    6  A    between atoms: C_14  and  C_25
    7  A    between atoms: C_15  and  C_17
    8  A    between atoms: C_18  and  N_44
    9  A    between atoms: C_25  and  C_34
                            x       y       z     vdW  Elec       q    Type
                         _______ _______ _______ _____ _____    ______ ____

>  <TORSDO>
F 9

$$$$
=
 OpenBabel11032419243D

 51 58  0  0  1  0  0  0  0  0999 V2000
  188.1590  178.6320  141.2320 C   0  0  0  0  0  3  0  0  0  0  0  0
  188.5560  177.8000  142.2910 C   0  0  0  0  0  0  0  0  0  0  0  0
  187.7520  177.8190  143.5560 C   0  0  0  0  0  0  0  0  0  0  0  0
  189.8110  177.6650  139.7660 C   0  0  0  0  0  0  0  0  0  0  0  0
  189.6480  176.9230  142.0770 C   0  0  0  0  0  0  0  0  0  0  0  0
  186.2220  177.6300  143.5100 C   0  0  1  0  0  3  0  0  0  0  0  0
  190.7200  174.9920  142.9180 O   0  0  0  0  0  0  0  0  0  0  0  0
  190.2470  176.8530  140.8110 C   0  0  0  0  0  3  0  0  0  0  0  0
  189.7490  177.7560  144.9710 N   0  0  0  0  0  2  0  0  0  0  0  0
  185.5740  178.0870  144.6750 O   0  0  0  0  0  0  0  0  0  0  0  0
  188.3340  177.8010  144.7810 C   0  0  0  0  0  0  0  0  0  0  0  0
  186.0970  177.3590  145.7480 C   0  0  0  0  0  2  0  0  0  0  0  0
  187.5010  177.8640  146.0290 C   0  0  0  0  0  2  0  0  0  0  0  0
  190.2710  176.1450  143.1540 C   0  0  0  0  0  0  0  0  0  0  0  0
  188.7760  178.5710  139.9830 C   0  0  0  0  0  3  0  0  0  0  0  0
  190.5550  176.7580  144.4070 N   0  0  0  0  0  2  0  0  0  0  0  0
  185.5030  178.1800  142.2750 C   0  0  0  0  0  2  0  0  0  0  0  0
  184.1980  178.8970  142.6200 C   0  0  0  0  0  2  0  0  0  0  0  0
  183.4780  178.9810  140.1900 C   0  0  0  0  0  0  0  0  0  0  0  0
  183.2180  178.7960  141.4950 C   0  0  0  0  0  3  0  0  0  0  0  0
  180.1880  175.9660  137.9010 C   0  0  0  0  0  2  0  0  0  0  0  0
  180.9450  174.9770  138.6880 N   0  0  0  0  0  2  0  0  0  0  0  0
  180.0220  178.4400  137.6700 N   0  0  0  0  0  2  0  0  0  0  0  0
  180.2380  180.8930  137.3010 C   0  0  2  0  0  3  0  0  0  0  0  0
  182.2830  175.1640  138.4740 O   0  0  0  0  0  0  0  0  0  0  0  0
  180.9240  177.3050  137.8840 C   0  0  1  0  0  3  0  0  0  0  0  0
  180.1970  181.1470  135.9310 O   0  0  0  0  0  1  0  0  0  0  0  0
  181.7390  177.4520  139.1850 C   0  0  1  0  0  3  0  0  0  0  0  0
  182.1290  181.1210  138.7660 O   0  0  0  0  0  0  0  0  0  0  0  0
  182.6960  176.2470  139.2920 C   0  0  0  0  0  2  0  0  0  0  0  0
  181.2110  181.8590  137.9800 C   0  0  0  0  0  2  0  0  0  0  0  0
  182.4130  178.7630  139.2470 N   0  0  0  0  0  0  0  0  0  0  0  0
  181.5200  179.8690  138.8840 C   0  0  2  0  0  3  0  0  0  0  0  0
  180.9080  179.5900  137.5530 C   0  0  1  0  0  3  0  0  0  0  0  0
  184.7330  179.3780  139.6920 O   0  0  0  0  0  0  0  0  0  0  0  0
  185.4050  178.7820  138.5910 C   0  0  0  0  0  1  0  0  0  0  0  0
  190.4450  177.5580  138.4200 C   0  0  0  0  0  2  0  0  0  0  0  0
  190.4560  175.1150  137.8650 C   0  0  1  0  0  3  0  0  0  0  0  0
  192.0600  175.9440  136.1750 F   0  0  0  0  0  0  0  0  0  0  0  0
  191.6660  174.8760  136.9750 C   0  0  2  0  0  0  0  0  0  0  0  0
  187.4360  175.9840  134.7810 O   0  0  0  0  0  0  0  0  0  0  0  0
  187.5540  175.1860  137.3480 C   0  0  0  0  0  2  0  0  0  0  0  0
  189.7770  176.4650  137.5990 C   0  0  1  0  0  3  0  0  0  0  0  0
  189.7060  174.6940  135.4100 C   0  0  0  0  0  2  0  0  0  0  0  0
  188.2700  176.4280  137.8860 C   0  0  0  0  0  2  0  0  0  0  0  0
  187.9410  174.8560  135.6340 S   0  0  0  0  0  0  0  0  0  0  0  0
  190.3740  174.1320  136.6700 C   0  0  2  0  0  3  0  0  0  0  0  0
  187.2720  173.5790  135.2160 O   0  0  0  0  0  0  0  0  0  0  0  0
  192.6650  174.1320  137.6170 O   0  0  0  0  0  0  0  0  0  0  0  0
  194.2840  175.5600  138.3550 O   0  0  0  0  0  1  0  0  0  0  0  0
  193.8790  174.7500  137.2960 C   0  0  0  0  0  2  0  0  0  0  0  0
  1  2  1  0  0  0  0
  2  3  1  0  0  0  0
  3 11  2  0  0  0  0
  4 15  1  0  0  0  0
  4  8  2  0  0  0  0
  5  2  2  0  0  0  0
  5 14  1  0  0  0  0
  6 17  1  6  0  0  0
  6  3  1  0  0  0  0
  6 10  1  0  0  0  0
  7 14  2  0  0  0  0
  8  5  1  0  0  0  0
 10 12  1  0  0  0  0
 11  9  1  0  0  0  0
 11 13  1  0  0  0  0
 12 13  1  0  0  0  0
 14 16  1  0  0  0  0
 15  1  2  0  0  0  0
 16  9  1  0  0  0  0
 17 18  1  0  0  0  0
 19 20  2  0  0  0  0
 20 18  1  0  0  0  0
 21 22  1  0  0  0  0
 23 26  1  0  0  0  0
 24 27  1  6  0  0  0
 24 34  1  0  0  0  0
 24 31  1  0  0  0  0
 25 22  1  0  0  0  0
 25 30  1  0  0  0  0
 26 21  1  1  0  0  0
 26 28  1  0  0  0  0
 28 32  1  0  0  0  0
 28 30  1  6  0  0  0
 31 29  1  0  0  0  0
 32 19  1  0  0  0  0
 33 29  1  6  0  0  0
 33 32  1  0  0  0  0
 34 23  1  1  0  0  0
 34 33  1  0  0  0  0
 35 19  1  0  0  0  0
 36 35  1  0  0  0  0
 37  4  1  0  0  0  0
 39 40  1  0  0  0  0
 40 49  1  0  0  0  0
 40 38  1  0  0  0  0
 41 46  2  0  0  0  0
 42 45  1  0  0  0  0
 43 38  1  0  0  0  0
 43 45  1  0  0  0  0
 43 37  1  0  0  0  0
 44 46  1  0  0  0  0
 44 47  1  0  0  0  0
 46 42  1  0  0  0  0
 47 40  1  0  0  0  0
 47 38  1  0  0  0  0
 48 46  2  0  0  0  0
 51 49  1  0  0  0  0
 51 50  1  0  0  0  0
M  END
>  <MODEL>
2

>  <REMARK>
 VINA RESULT:      -9.4      3.422      8.484
  Name = 
  9 active torsions:
  status: ('A' for Active; 'I' for Inactive)
    1  A    between atoms: O_1  and  C_18
    2  A    between atoms: C_2  and  C_15
    3  A    between atoms: C_2  and  C_35
    4  A    between atoms: O_8  and  C_12
    5  A    between atoms: O_8  and  C_41
    6  A    between atoms: C_14  and  C_25
    7  A    between atoms: C_15  and  C_17
    8  A    between atoms: C_18  and  N_44
    9  A    between atoms: C_25  and  C_34
                            x       y       z     vdW  Elec       q    Type
                         _______ _______ _______ _____ _____    ______ ____

>  <TORSDO>
F 9

$$$$
=
 OpenBabel11032419243D

 51 58  0  0  1  0  0  0  0  0999 V2000
  187.8810  177.9630  138.2080 C   0  0  0  0  0  3  0  0  0  0  0  0
  188.1870  176.8350  137.4300 C   0  0  0  0  0  0  0  0  0  0  0  0
  189.6110  176.3690  137.3740 C   0  0  0  0  0  0  0  0  0  0  0  0
  185.5180  177.6570  137.8420 C   0  0  0  0  0  0  0  0  0  0  0  0
  187.1170  176.1460  136.8050 C   0  0  0  0  0  0  0  0  0  0  0  0
  190.4040  176.1290  138.6740 C   0  0  1  0  0  3  0  0  0  0  0  0
  186.5240  174.1010  135.7810 O   0  0  0  0  0  0  0  0  0  0  0  0
  185.7970  176.5540  137.0380 C   0  0  0  0  0  3  0  0  0  0  0  0
  189.4970  175.9170  134.9700 N   0  0  0  0  0  2  0  0  0  0  0  0
  191.8000  176.1160  138.4750 O   0  0  0  0  0  0  0  0  0  0  0  0
  190.1880  175.9540  136.2190 C   0  0  0  0  0  0  0  0  0  0  0  0
  192.0750  175.0860  137.5700 C   0  0  0  0  0  2  0  0  0  0  0  0
  191.6300  175.5330  136.1880 C   0  0  0  0  0  2  0  0  0  0  0  0
  187.3230  175.0740  135.8250 C   0  0  0  0  0  0  0  0  0  0  0  0
  186.5650  178.3750  138.4140 C   0  0  0  0  0  3  0  0  0  0  0  0
  188.2930  175.2230  134.7940 N   0  0  0  0  0  2  0  0  0  0  0  0
  190.0640  177.0390  139.8590 C   0  0  0  0  0  2  0  0  0  0  0  0
  190.5070  176.4540  141.2000 C   0  0  0  0  0  2  0  0  0  0  0  0
  189.3700  177.7910  143.0300 C   0  0  0  0  0  0  0  0  0  0  0  0
  189.4780  176.6970  142.2570 C   0  0  0  0  0  3  0  0  0  0  0  0
  184.4610  178.2690  143.9400 C   0  0  0  0  0  2  0  0  0  0  0  0
  184.4760  178.4600  142.4790 N   0  0  0  0  0  2  0  0  0  0  0  0
  186.0360  177.6140  145.7550 N   0  0  0  0  0  2  0  0  0  0  0  0
  187.8040  177.3030  147.4800 C   0  0  2  0  0  3  0  0  0  0  0  0
  185.4200  179.3970  142.1600 O   0  0  0  0  0  0  0  0  0  0  0  0
  185.8810  178.3520  144.4990 C   0  0  1  0  0  3  0  0  0  0  0  0
  187.5750  178.1960  148.5250 O   0  0  0  0  0  1  0  0  0  0  0  0
  186.8780  177.8770  143.4230 C   0  0  1  0  0  3  0  0  0  0  0  0
  189.6050  177.3570  145.8890 O   0  0  0  0  0  0  0  0  0  0  0  0
  186.6810  178.7470  142.1660 C   0  0  0  0  0  2  0  0  0  0  0  0
  189.3090  177.1390  147.2570 C   0  0  0  0  0  2  0  0  0  0  0  0
  188.2600  177.8720  143.9410 N   0  0  0  0  0  0  0  0  0  0  0  0
  188.3580  177.2550  145.2690 C   0  0  2  0  0  3  0  0  0  0  0  0
  187.3910  177.9180  146.1910 C   0  0  1  0  0  3  0  0  0  0  0  0
  190.2820  178.8620  142.9980 O   0  0  0  0  0  0  0  0  0  0  0  0
  191.4230  178.9950  143.8360 C   0  0  0  0  0  1  0  0  0  0  0  0
  184.1050  178.0600  138.0960 C   0  0  0  0  0  2  0  0  0  0  0  0
  181.7820  177.1250  138.1700 C   0  0  1  0  0  3  0  0  0  0  0  0
  182.9000  175.6140  139.7760 F   0  0  0  0  0  0  0  0  0  0  0  0
  181.7110  176.2290  139.3970 C   0  0  2  0  0  0  0  0  0  0  0  0
  183.0650  174.1680  135.1710 O   0  0  0  0  0  0  0  0  0  0  0  0
  181.8730  176.5790  135.2750 C   0  0  0  0  0  2  0  0  0  0  0  0
  183.1420  177.0650  137.4640 C   0  0  1  0  0  3  0  0  0  0  0  0
  181.7400  174.6230  137.4610 C   0  0  0  0  0  2  0  0  0  0  0  0
  183.0290  177.3180  135.9550 C   0  0  0  0  0  2  0  0  0  0  0  0
  181.8270  174.8410  135.6910 S   0  0  0  0  0  0  0  0  0  0  0  0
  180.9990  175.7890  138.1260 C   0  0  2  0  0  3  0  0  0  0  0  0
  180.6190  174.2160  135.0570 O   0  0  0  0  0  0  0  0  0  0  0  0
  180.8960  176.7610  140.4050 O   0  0  0  0  0  0  0  0  0  0  0  0
  180.9960  178.5900  141.7650 O   0  0  0  0  0  1  0  0  0  0  0  0
  181.1930  178.1270  140.4650 C   0  0  0  0  0  2  0  0  0  0  0  0
  1 15  1  0  0  0  0
  2  1  2  0  0  0  0
  3  2  1  0  0  0  0
  3  6  1  0  0  0  0
  4 37  1  0  0  0  0
  4 15  2  0  0  0  0
  5  8  2  0  0  0  0
  5  2  1  0  0  0  0
  6 17  1  1  0  0  0
  7 14  2  0  0  0  0
  8  4  1  0  0  0  0
  9 11  1  0  0  0  0
 10  6  1  0  0  0  0
 11  3  2  0  0  0  0
 12 10  1  0  0  0  0
 13 11  1  0  0  0  0
 13 12  1  0  0  0  0
 14  5  1  0  0  0  0
 16  9  1  0  0  0  0
 16 14  1  0  0  0  0
 17 18  1  0  0  0  0
 18 20  1  0  0  0  0
 19 32  1  0  0  0  0
 20 19  2  0  0  0  0
 22 21  1  0  0  0  0
 24 27  1  1  0  0  0
 25 30  1  0  0  0  0
 25 22  1  0  0  0  0
 26 21  1  6  0  0  0
 26 23  1  0  0  0  0
 28 30  1  6  0  0  0
 28 32  1  0  0  0  0
 28 26  1  0  0  0  0
 29 31  1  0  0  0  0
 31 24  1  0  0  0  0
 32 33  1  0  0  0  0
 33 29  1  1  0  0  0
 33 34  1  0  0  0  0
 34 23  1  6  0  0  0
 34 24  1  0  0  0  0
 35 19  1  0  0  0  0
 35 36  1  0  0  0  0
 38 40  1  0  0  0  0
 40 39  1  0  0  0  0
 40 49  1  0  0  0  0
 41 46  2  0  0  0  0
 42 46  1  0  0  0  0
 42 45  1  0  0  0  0
 43 37  1  0  0  0  0
 43 38  1  0  0  0  0
 44 47  1  0  0  0  0
 45 43  1  0  0  0  0
 46 44  1  0  0  0  0
 47 38  1  0  0  0  0
 47 40  1  0  0  0  0
 48 46  2  0  0  0  0
 49 51  1  0  0  0  0
 51 50  1  0  0  0  0
M  END
>  <MODEL>
3

>  <REMARK>
 VINA RESULT:      -9.4      2.495      7.565
  Name = 
  9 active torsions:
  status: ('A' for Active; 'I' for Inactive)
    1  A    between atoms: O_1  and  C_18
    2  A    between atoms: C_2  and  C_15
    3  A    between atoms: C_2  and  C_35
    4  A    between atoms: O_8  and  C_12
    5  A    between atoms: O_8  and  C_41
    6  A    between atoms: C_14  and  C_25
    7  A    between atoms: C_15  and  C_17
    8  A    between atoms: C_18  and  N_44
    9  A    between atoms: C_25  and  C_34
                            x       y       z     vdW  Elec       q    Type
                         _______ _______ _______ _____ _____    ______ ____

>  <TORSDO>
F 9

$$$$
=
 OpenBabel11032419243D

 51 58  0  0  1  0  0  0  0  0999 V2000
  186.2610  177.4410  143.3800 C   0  0  0  0  0  3  0  0  0  0  0  0
  186.8060  177.8660  144.6020 C   0  0  0  0  0  0  0  0  0  0  0  0
  188.2470  177.5670  144.8860 C   0  0  0  0  0  0  0  0  0  0  0  0
  184.1920  178.5970  143.8240 C   0  0  0  0  0  0  0  0  0  0  0  0
  185.9850  178.6320  145.4680 C   0  0  0  0  0  0  0  0  0  0  0  0
  189.3370  177.9410  143.8610 C   0  0  1  0  0  3  0  0  0  0  0  0
  186.0340  180.0830  147.3320 O   0  0  0  0  0  0  0  0  0  0  0  0
  184.6970  179.0030  145.0570 C   0  0  0  0  0  3  0  0  0  0  0  0
  187.7910  176.9690  147.2160 N   0  0  0  0  0  2  0  0  0  0  0  0
  190.5430  177.2380  144.0570 O   0  0  0  0  0  0  0  0  0  0  0  0
  188.6700  177.1500  146.1060 C   0  0  0  0  0  0  0  0  0  0  0  0
  190.9940  177.5470  145.3440 C   0  0  0  0  0  2  0  0  0  0  0  0
  190.1150  176.8180  146.3460 C   0  0  0  0  0  2  0  0  0  0  0  0
  186.3730  178.9730  146.8410 C   0  0  0  0  0  0  0  0  0  0  0  0
  184.9700  177.7970  142.9910 C   0  0  0  0  0  3  0  0  0  0  0  0
  186.9510  177.9870  147.6880 N   0  0  0  0  0  2  0  0  0  0  0  0
  188.9380  177.8730  142.3840 C   0  0  0  0  0  2  0  0  0  0  0  0
  190.1020  178.1810  141.4420 C   0  0  0  0  0  2  0  0  0  0  0  0
  190.1320  177.3650  139.0420 C   0  0  0  0  0  0  0  0  0  0  0  0
  190.2060  177.1490  140.3660 C   0  0  0  0  0  3  0  0  0  0  0  0
  193.1140  173.9610  136.8790 C   0  0  0  0  0  2  0  0  0  0  0  0
  194.1160  174.7680  137.5970 N   0  0  0  0  0  2  0  0  0  0  0  0
  190.6360  173.7710  136.7160 N   0  0  0  0  0  2  0  0  0  0  0  0
  188.1740  173.9520  136.3930 C   0  0  2  0  0  3  0  0  0  0  0  0
  193.9150  176.0900  137.3090 O   0  0  0  0  0  0  0  0  0  0  0  0
  191.7700  174.6880  136.8510 C   0  0  1  0  0  3  0  0  0  0  0  0
  187.8880  173.8310  135.0340 O   0  0  0  0  0  1  0  0  0  0  0  0
  191.6480  175.5780  138.1050 C   0  0  1  0  0  3  0  0  0  0  0  0
  187.9680  175.9250  137.7500 O   0  0  0  0  0  0  0  0  0  0  0  0
  192.8490  176.5450  138.1270 C   0  0  0  0  0  2  0  0  0  0  0  0
  187.2180  174.9600  137.0370 C   0  0  0  0  0  2  0  0  0  0  0  0
  190.3350  176.2480  138.1580 N   0  0  0  0  0  0  0  0  0  0  0  0
  189.2260  175.3300  137.8740 C   0  0  2  0  0  3  0  0  0  0  0  0
  189.4780  174.6430  136.5750 C   0  0  1  0  0  3  0  0  0  0  0  0
  189.8660  178.6230  138.4700 O   0  0  0  0  0  0  0  0  0  0  0  0
  189.0430  178.8510  137.3340 C   0  0  0  0  0  1  0  0  0  0  0  0
  182.8290  179.0240  143.3960 C   0  0  0  0  0  2  0  0  0  0  0  0
  181.3020  179.3370  141.4350 C   0  0  1  0  0  3  0  0  0  0  0  0
  180.2440  177.3660  142.4880 F   0  0  0  0  0  0  0  0  0  0  0  0
  180.0580  178.5060  141.7130 C   0  0  2  0  0  0  0  0  0  0  0  0
  183.7230  176.3450  139.2960 O   0  0  0  0  0  0  0  0  0  0  0  0
  183.5680  179.0170  139.5770 C   0  0  0  0  0  2  0  0  0  0  0  0
  182.5900  178.6700  141.9350 C   0  0  1  0  0  3  0  0  0  0  0  0
  181.2630  177.2280  139.9120 C   0  0  0  0  0  2  0  0  0  0  0  0
  183.8120  179.0500  141.0880 C   0  0  0  0  0  2  0  0  0  0  0  0
  182.7960  177.4980  139.0370 S   0  0  0  0  0  0  0  0  0  0  0  0
  180.6030  178.5590  140.2930 C   0  0  2  0  0  3  0  0  0  0  0  0
  182.5150  177.5860  137.5650 O   0  0  0  0  0  0  0  0  0  0  0  0
  178.9310  179.2980  141.9680 O   0  0  0  0  0  0  0  0  0  0  0  0
  178.9340  181.5590  141.6680 O   0  0  0  0  0  1  0  0  0  0  0  0
  179.4120  180.5160  142.4590 C   0  0  0  0  0  2  0  0  0  0  0  0
  1  2  1  0  0  0  0
  2  3  1  0  0  0  0
  2  5  2  0  0  0  0
  3 11  2  0  0  0  0
  4  8  2  0  0  0  0
  5 14  1  0  0  0  0
  6 17  1  6  0  0  0
  6 10  1  0  0  0  0
  6  3  1  0  0  0  0
  8  5  1  0  0  0  0
  9 16  1  0  0  0  0
 10 12  1  0  0  0  0
 11 13  1  0  0  0  0
 11  9  1  0  0  0  0
 12 13  1  0  0  0  0
 14  7  2  0  0  0  0
 14 16  1  0  0  0  0
 15  1  2  0  0  0  0
 15  4  1  0  0  0  0
 18 17  1  0  0  0  0
 19 20  2  0  0  0  0
 20 18  1  0  0  0  0
 21 22  1  0  0  0  0
 23 26  1  0  0  0  0
 24 27  1  6  0  0  0
 24 34  1  0  0  0  0
 24 31  1  0  0  0  0
 25 22  1  0  0  0  0
 25 30  1  0  0  0  0
 26 21  1  1  0  0  0
 26 28  1  0  0  0  0
 28 30  1  6  0  0  0
 28 32  1  0  0  0  0
 31 29  1  0  0  0  0
 32 19  1  0  0  0  0
 33 29  1  6  0  0  0
 33 32  1  0  0  0  0
 34 23  1  1  0  0  0
 34 33  1  0  0  0  0
 35 19  1  0  0  0  0
 36 35  1  0  0  0  0
 37  4  1  0  0  0  0
 38 40  1  0  0  0  0
 38 43  1  0  0  0  0
 40 49  1  0  0  0  0
 40 39  1  0  0  0  0
 42 45  1  0  0  0  0
 43 37  1  0  0  0  0
 44 47  1  0  0  0  0
 45 43  1  0  0  0  0
 46 41  2  0  0  0  0
 46 42  1  0  0  0  0
 46 44  1  0  0  0  0
 47 38  1  0  0  0  0
 47 40  1  0  0  0  0
 48 46  2  0  0  0  0
 49 51  1  0  0  0  0
 50 51  1  0  0  0  0
M  END
>  <MODEL>
4

>  <REMARK>
 VINA RESULT:      -9.3      1.396      2.573
  Name = 
  9 active torsions:
  status: ('A' for Active; 'I' for Inactive)
    1  A    between atoms: O_1  and  C_18
    2  A    between atoms: C_2  and  C_15
    3  A    between atoms: C_2  and  C_35
    4  A    between atoms: O_8  and  C_12
    5  A    between atoms: O_8  and  C_41
    6  A    between atoms: C_14  and  C_25
    7  A    between atoms: C_15  and  C_17
    8  A    between atoms: C_18  and  N_44
    9  A    between atoms: C_25  and  C_34
                            x       y       z     vdW  Elec       q    Type
                         _______ _______ _______ _____ _____    ______ ____

>  <TORSDO>
F 9

$$$$
=
 OpenBabel11032419243D

 51 58  0  0  1  0  0  0  0  0999 V2000
  185.7500  178.6070  138.3890 C   0  0  0  0  0  3  0  0  0  0  0  0
  186.1630  177.5120  137.6150 C   0  0  0  0  0  0  0  0  0  0  0  0
  187.6140  177.3940  137.2570 C   0  0  0  0  0  0  0  0  0  0  0  0
  183.5200  177.7130  138.5860 C   0  0  0  0  0  0  0  0  0  0  0  0
  185.1980  176.5280  137.2830 C   0  0  0  0  0  0  0  0  0  0  0  0
  188.6960  177.4840  138.3530 C   0  0  1  0  0  3  0  0  0  0  0  0
  184.9450  174.3070  136.5160 O   0  0  0  0  0  0  0  0  0  0  0  0
  183.8960  176.6320  137.7910 C   0  0  0  0  0  3  0  0  0  0  0  0
  187.1200  176.6860  134.9670 N   0  0  0  0  0  2  0  0  0  0  0  0
  189.9760  177.7820  137.8420 O   0  0  0  0  0  0  0  0  0  0  0  0
  188.0240  177.0130  136.0220 C   0  0  0  0  0  0  0  0  0  0  0  0
  190.3080  176.7610  136.9470 C   0  0  0  0  0  2  0  0  0  0  0  0
  189.4860  176.9460  135.6840 C   0  0  0  0  0  2  0  0  0  0  0  0
  185.4600  175.4420  136.3320 C   0  0  0  0  0  0  0  0  0  0  0  0
  184.4460  178.7130  138.8700 C   0  0  0  0  0  3  0  0  0  0  0  0
  186.1220  175.7110  135.1020 N   0  0  0  0  0  2  0  0  0  0  0  0
  188.3920  178.4020  139.5410 C   0  0  0  0  0  2  0  0  0  0  0  0
  188.8810  177.8300  140.8710 C   0  0  0  0  0  2  0  0  0  0  0  0
  187.6210  177.3040  143.0070 C   0  0  0  0  0  0  0  0  0  0  0  0
  187.9010  178.1050  141.9650 C   0  0  0  0  0  3  0  0  0  0  0  0
  186.5740  178.7150  147.7050 C   0  0  0  0  0  2  0  0  0  0  0  0
  187.9640  178.2580  147.8730 N   0  0  0  0  0  2  0  0  0  0  0  0
  184.9500  179.1230  145.8600 N   0  0  0  0  0  2  0  0  0  0  0  0
  183.3480  179.1310  143.9550 C   0  0  2  0  0  3  0  0  0  0  0  0
  188.0950  177.0130  147.3240 O   0  0  0  0  0  0  0  0  0  0  0  0
  186.0260  178.2590  146.3530 C   0  0  1  0  0  3  0  0  0  0  0  0
  182.1380  178.5840  144.3830 O   0  0  0  0  0  1  0  0  0  0  0  0
  187.1890  178.1520  145.3450 C   0  0  1  0  0  3  0  0  0  0  0  0
  184.9140  178.1640  142.4100 O   0  0  0  0  0  0  0  0  0  0  0  0
  188.2380  177.1800  145.9220 C   0  0  0  0  0  2  0  0  0  0  0  0
  183.6170  178.7250  142.5040 C   0  0  0  0  0  2  0  0  0  0  0  0
  186.6990  177.7810  144.0030 N   0  0  0  0  0  0  0  0  0  0  0  0
  185.5270  178.5670  143.5980 C   0  0  2  0  0  3  0  0  0  0  0  0
  184.4770  178.4620  144.6520 C   0  0  1  0  0  3  0  0  0  0  0  0
  188.1780  176.0240  143.1800 O   0  0  0  0  0  0  0  0  0  0  0  0
  189.5690  175.7270  143.1840 C   0  0  0  0  0  1  0  0  0  0  0  0
  182.1360  177.7910  139.1360 C   0  0  0  0  0  2  0  0  0  0  0  0
  180.2120  178.6850  137.8040 C   0  0  1  0  0  3  0  0  0  0  0  0
  181.9050  178.4680  136.0140 F   0  0  0  0  0  0  0  0  0  0  0  0
  180.5530  178.4560  136.3380 C   0  0  2  0  0  0  0  0  0  0  0  0
  181.9360  182.7010  138.3400 O   0  0  0  0  0  0  0  0  0  0  0  0
  180.1140  181.0950  139.4990 C   0  0  0  0  0  2  0  0  0  0  0  0
  181.4370  179.0530  138.6510 C   0  0  1  0  0  3  0  0  0  0  0  0
  180.8170  180.9380  136.6510 C   0  0  0  0  0  2  0  0  0  0  0  0
  181.0770  179.9540  139.8390 C   0  0  0  0  0  2  0  0  0  0  0  0
  180.6270  182.0210  138.0580 S   0  0  0  0  0  0  0  0  0  0  0  0
  179.8530  179.7480  136.7350 C   0  0  2  0  0  3  0  0  0  0  0  0
  179.5870  183.0570  137.7450 O   0  0  0  0  0  0  0  0  0  0  0  0
  179.7430  177.4770  135.7470 O   0  0  0  0  0  0  0  0  0  0  0  0
  180.8050  175.5310  136.2870 O   0  0  0  0  0  1  0  0  0  0  0  0
  180.6100  176.4810  135.2850 C   0  0  0  0  0  2  0  0  0  0  0  0
  1 15  1  0  0  0  0
  2  1  2  0  0  0  0
  3  2  1  0  0  0  0
  3  6  1  0  0  0  0
  4 15  2  0  0  0  0
  4 37  1  0  0  0  0
  5  2  1  0  0  0  0
  5  8  2  0  0  0  0
  6 17  1  1  0  0  0
  8  4  1  0  0  0  0
  9 16  1  0  0  0  0
  9 11  1  0  0  0  0
 10  6  1  0  0  0  0
 11  3  2  0  0  0  0
 12 10  1  0  0  0  0
 13 11  1  0  0  0  0
 13 12  1  0  0  0  0
 14  7  2  0  0  0  0
 14  5  1  0  0  0  0
 16 14  1  0  0  0  0
 17 18  1  0  0  0  0
 18 20  1  0  0  0  0
 19 35  1  0  0  0  0
 19 32  1  0  0  0  0
 20 19  2  0  0  0  0
 21 22  1  0  0  0  0
 23 26  1  0  0  0  0
 24 27  1  1  0  0  0
 24 34  1  0  0  0  0
 25 22  1  0  0  0  0
 26 21  1  1  0  0  0
 28 30  1  1  0  0  0
 28 26  1  0  0  0  0
 29 31  1  0  0  0  0
 30 25  1  0  0  0  0
 31 24  1  0  0  0  0
 32 28  1  0  0  0  0
 33 29  1  6  0  0  0
 33 32  1  0  0  0  0
 33 34  1  0  0  0  0
 34 23  1  1  0  0  0
 35 36  1  0  0  0  0
 38 43  1  0  0  0  0
 39 40  1  0  0  0  0
 40 47  1  0  0  0  0
 40 38  1  0  0  0  0
 42 45  1  0  0  0  0
 43 37  1  0  0  0  0
 43 45  1  0  0  0  0
 44 47  1  0  0  0  0
 44 46  1  0  0  0  0
 46 41  2  0  0  0  0
 46 42  1  0  0  0  0
 47 38  1  0  0  0  0
 48 46  2  0  0  0  0
 49 40  1  0  0  0  0
 51 49  1  0  0  0  0
 51 50  1  0  0  0  0
M  END
>  <MODEL>
5

>  <REMARK>
 VINA RESULT:      -9.2      2.839      8.149
  Name = 
  9 active torsions:
  status: ('A' for Active; 'I' for Inactive)
    1  A    between atoms: O_1  and  C_18
    2  A    between atoms: C_2  and  C_15
    3  A    between atoms: C_2  and  C_35
    4  A    between atoms: O_8  and  C_12
    5  A    between atoms: O_8  and  C_41
    6  A    between atoms: C_14  and  C_25
    7  A    between atoms: C_15  and  C_17
    8  A    between atoms: C_18  and  N_44
    9  A    between atoms: C_25  and  C_34
                            x       y       z     vdW  Elec       q    Type
                         _______ _______ _______ _____ _____    ______ ____

>  <TORSDO>
F 9

$$$$
=
 OpenBabel11032419243D

 51 58  0  0  1  0  0  0  0  0999 V2000
  185.8940  178.7370  139.0660 C   0  0  0  0  0  3  0  0  0  0  0  0
  186.0740  177.8640  137.9810 C   0  0  0  0  0  0  0  0  0  0  0  0
  187.4560  177.6810  137.4310 C   0  0  0  0  0  0  0  0  0  0  0  0
  183.5810  178.0940  139.2850 C   0  0  0  0  0  0  0  0  0  0  0  0
  184.9490  177.1360  137.5180 C   0  0  0  0  0  0  0  0  0  0  0  0
  188.6280  177.3280  138.3700 C   0  0  1  0  0  3  0  0  0  0  0  0
  184.3070  175.2680  136.2200 O   0  0  0  0  0  0  0  0  0  0  0  0
  183.7240  177.2460  138.1900 C   0  0  0  0  0  3  0  0  0  0  0  0
  186.6710  177.7130  135.1120 N   0  0  0  0  0  2  0  0  0  0  0  0
  189.8900  177.6050  137.8060 O   0  0  0  0  0  0  0  0  0  0  0  0
  187.7000  177.6180  136.0980 C   0  0  0  0  0  0  0  0  0  0  0  0
  189.9910  176.8460  136.6350 C   0  0  0  0  0  2  0  0  0  0  0  0
  189.1020  177.4770  135.5790 C   0  0  0  0  0  2  0  0  0  0  0  0
  184.9670  176.3390  136.2850 C   0  0  0  0  0  0  0  0  0  0  0  0
  184.6650  178.8560  139.7120 C   0  0  0  0  0  3  0  0  0  0  0  0
  185.5560  176.8650  135.1010 N   0  0  0  0  0  2  0  0  0  0  0  0
  188.5640  177.9020  139.7880 C   0  0  0  0  0  2  0  0  0  0  0  0
  189.1530  176.9580  140.8360 C   0  0  0  0  0  2  0  0  0  0  0  0
  188.8030  177.8830  143.1710 C   0  0  0  0  0  0  0  0  0  0  0  0
  188.4400  177.0980  142.1430 C   0  0  0  0  0  3  0  0  0  0  0  0
  184.2730  178.4760  145.2390 C   0  0  0  0  0  2  0  0  0  0  0  0
  183.9580  178.7710  143.8310 N   0  0  0  0  0  2  0  0  0  0  0  0
  186.1890  177.6340  146.5890 N   0  0  0  0  0  2  0  0  0  0  0  0
  188.2910  177.1330  147.8260 C   0  0  2  0  0  3  0  0  0  0  0  0
  184.8500  179.6930  143.3560 O   0  0  0  0  0  0  0  0  0  0  0  0
  185.7860  178.4660  145.4520 C   0  0  1  0  0  3  0  0  0  0  0  0
  188.3590  177.9570  148.9490 O   0  0  0  0  0  1  0  0  0  0  0  0
  186.4790  178.0330  144.1440 C   0  0  1  0  0  3  0  0  0  0  0  0
  189.6730  177.2360  145.8630 O   0  0  0  0  0  0  0  0  0  0  0  0
  186.0410  178.9990  143.0250 C   0  0  0  0  0  2  0  0  0  0  0  0
  189.6920  176.9300  147.2450 C   0  0  0  0  0  2  0  0  0  0  0  0
  187.9410  177.9400  144.3210 N   0  0  0  0  0  0  0  0  0  0  0  0
  188.3130  177.2250  145.5480 C   0  0  2  0  0  3  0  0  0  0  0  0
  187.6230  177.8550  146.7110 C   0  0  1  0  0  3  0  0  0  0  0  0
  189.9800  178.6550  143.1860 O   0  0  0  0  0  0  0  0  0  0  0  0
  191.3010  178.1370  143.2650 C   0  0  0  0  0  1  0  0  0  0  0  0
  182.2750  178.1780  140.0010 C   0  0  0  0  0  2  0  0  0  0  0  0
  180.6770  180.0090  140.6090 C   0  0  1  0  0  3  0  0  0  0  0  0
  179.0800  178.1630  140.2110 F   0  0  0  0  0  0  0  0  0  0  0  0
  179.3410  179.3420  140.9020 C   0  0  2  0  0  0  0  0  0  0  0  0
  180.1880  180.7730  136.3000 O   0  0  0  0  0  0  0  0  0  0  0  0
  181.6610  181.6570  138.3720 C   0  0  0  0  0  2  0  0  0  0  0  0
  181.4430  179.3330  139.4640 C   0  0  1  0  0  3  0  0  0  0  0  0
  178.9890  180.4770  138.6850 C   0  0  0  0  0  2  0  0  0  0  0  0
  182.3320  180.3180  138.6940 C   0  0  0  0  0  2  0  0  0  0  0  0
  180.0470  181.4560  137.6300 S   0  0  0  0  0  0  0  0  0  0  0  0
  179.3500  180.6720  140.1630 C   0  0  2  0  0  3  0  0  0  0  0  0
  179.4270  182.8090  137.4290 O   0  0  0  0  0  0  0  0  0  0  0  0
  179.0010  179.3970  142.2600 O   0  0  0  0  0  0  0  0  0  0  0  0
  180.3950  178.5480  143.8540 O   0  0  0  0  0  1  0  0  0  0  0  0
  180.1990  179.5950  142.9540 C   0  0  0  0  0  2  0  0  0  0  0  0
  1 15  1  0  0  0  0
  2  1  2  0  0  0  0
  3  2  1  0  0  0  0
  3  6  1  0  0  0  0
  4 15  2  0  0  0  0
  4 37  1  0  0  0  0
  5  2  1  0  0  0  0
  5  8  2  0  0  0  0
  6 17  1  1  0  0  0
  7 14  2  0  0  0  0
  8  4  1  0  0  0  0
  9 11  1  0  0  0  0
 10  6  1  0  0  0  0
 11  3  2  0  0  0  0
 12 10  1  0  0  0  0
 13 11  1  0  0  0  0
 13 12  1  0  0  0  0
 14  5  1  0  0  0  0
 16  9  1  0  0  0  0
 16 14  1  0  0  0  0
 17 18  1  0  0  0  0
 18 20  1  0  0  0  0
 19 35  1  0  0  0  0
 19 32  1  0  0  0  0
 20 19  2  0  0  0  0
 22 21  1  0  0  0  0
 24 27  1  1  0  0  0
 25 22  1  0  0  0  0
 26 21  1  6  0  0  0
 26 23  1  0  0  0  0
 28 30  1  6  0  0  0
 28 32  1  0  0  0  0
 28 26  1  0  0  0  0
 29 31  1  0  0  0  0
 30 25  1  0  0  0  0
 31 24  1  0  0  0  0
 32 33  1  0  0  0  0
 33 29  1  1  0  0  0
 33 34  1  0  0  0  0
 34 23  1  6  0  0  0
 34 24  1  0  0  0  0
 35 36  1  0  0  0  0
 38 40  1  0  0  0  0
 39 40  1  0  0  0  0
 40 49  1  0  0  0  0
 41 46  2  0  0  0  0
 42 45  1  0  0  0  0
 43 37  1  0  0  0  0
 43 38  1  0  0  0  0
 44 47  1  0  0  0  0
 45 43  1  0  0  0  0
 46 42  1  0  0  0  0
 46 44  1  0  0  0  0
 47 38  1  0  0  0  0
 47 40  1  0  0  0  0
 48 46  2  0  0  0  0
 49 51  1  0  0  0  0
 51 50  1  0  0  0  0
M  END
>  <MODEL>
6

>  <REMARK>
 VINA RESULT:      -9.2      2.426      7.502
  Name = 
  9 active torsions:
  status: ('A' for Active; 'I' for Inactive)
    1  A    between atoms: O_1  and  C_18
    2  A    between atoms: C_2  and  C_15
    3  A    between atoms: C_2  and  C_35
    4  A    between atoms: O_8  and  C_12
    5  A    between atoms: O_8  and  C_41
    6  A    between atoms: C_14  and  C_25
    7  A    between atoms: C_15  and  C_17
    8  A    between atoms: C_18  and  N_44
    9  A    between atoms: C_25  and  C_34
                            x       y       z     vdW  Elec       q    Type
                         _______ _______ _______ _____ _____    ______ ____

>  <TORSDO>
F 9

$$$$
=
 OpenBabel11032419243D

 51 58  0  0  1  0  0  0  0  0999 V2000
  188.0780  178.6900  141.2870 C   0  0  0  0  0  3  0  0  0  0  0  0
  188.4820  177.8520  142.3390 C   0  0  0  0  0  0  0  0  0  0  0  0
  187.6910  177.8720  143.6130 C   0  0  0  0  0  0  0  0  0  0  0  0
  189.7090  177.7190  139.8010 C   0  0  0  0  0  0  0  0  0  0  0  0
  189.5670  176.9690  142.1100 C   0  0  0  0  0  0  0  0  0  0  0  0
  186.1600  177.6920  143.5820 C   0  0  1  0  0  3  0  0  0  0  0  0
  190.6350  175.0290  142.9350 O   0  0  0  0  0  0  0  0  0  0  0  0
  190.1510  176.9000  140.8380 C   0  0  0  0  0  3  0  0  0  0  0  0
  189.7020  177.7910  145.0070 N   0  0  0  0  0  2  0  0  0  0  0  0
  185.5270  178.1490  144.7560 O   0  0  0  0  0  0  0  0  0  0  0  0
  188.2860  177.8460  144.8310 C   0  0  0  0  0  0  0  0  0  0  0  0
  186.0570  177.4140  145.8210 C   0  0  0  0  0  2  0  0  0  0  0  0
  187.4670  177.9100  146.0880 C   0  0  0  0  0  2  0  0  0  0  0  0
  190.1960  176.1840  143.1790 C   0  0  0  0  0  0  0  0  0  0  0  0
  188.6830  178.6290  140.0320 C   0  0  0  0  0  3  0  0  0  0  0  0
  190.4960  176.7910  144.4310 N   0  0  0  0  0  2  0  0  0  0  0  0
  185.4310  178.2500  142.3560 C   0  0  0  0  0  2  0  0  0  0  0  0
  184.0940  178.9010  142.7080 C   0  0  0  0  0  2  0  0  0  0  0  0
  183.1150  178.9010  140.3690 C   0  0  0  0  0  0  0  0  0  0  0  0
  183.0590  178.5900  141.6750 C   0  0  0  0  0  3  0  0  0  0  0  0
  178.9620  179.7590  137.6910 C   0  0  0  0  0  2  0  0  0  0  0  0
  179.1470  181.0790  138.3170 N   0  0  0  0  0  2  0  0  0  0  0  0
  180.1870  177.6000  137.4860 N   0  0  0  0  0  2  0  0  0  0  0  0
  181.3570  175.4110  137.6810 C   0  0  2  0  0  3  0  0  0  0  0  0
  179.3220  180.9160  139.6630 O   0  0  0  0  0  0  0  0  0  0  0  0
  179.8570  178.7220  138.3680 C   0  0  1  0  0  3  0  0  0  0  0  0
  180.4090  174.4120  137.8970 O   0  0  0  0  0  1  0  0  0  0  0  0
  181.1200  179.4200  138.9120 C   0  0  1  0  0  3  0  0  0  0  0  0
  182.9880  176.2290  139.2450 O   0  0  0  0  0  0  0  0  0  0  0  0
  180.6750  180.5420  139.8720 C   0  0  0  0  0  2  0  0  0  0  0  0
  182.6300  175.0990  138.4710 C   0  0  0  0  0  2  0  0  0  0  0  0
  182.0500  178.4460  139.5150 N   0  0  0  0  0  0  0  0  0  0  0  0
  182.2470  177.2630  138.6700 C   0  0  2  0  0  3  0  0  0  0  0  0
  180.9190  176.6720  138.3360 C   0  0  1  0  0  3  0  0  0  0  0  0
  184.1570  179.6480  139.7880 O   0  0  0  0  0  0  0  0  0  0  0  0
  185.1160  179.1420  138.8690 C   0  0  0  0  0  1  0  0  0  0  0  0
  190.3290  177.6120  138.4480 C   0  0  0  0  0  2  0  0  0  0  0  0
  190.2670  175.1760  137.8650 C   0  0  1  0  0  3  0  0  0  0  0  0
  191.8830  175.9790  136.1740 F   0  0  0  0  0  0  0  0  0  0  0  0
  191.4650  174.9130  136.9640 C   0  0  2  0  0  0  0  0  0  0  0  0
  187.2520  176.1650  134.8110 O   0  0  0  0  0  0  0  0  0  0  0  0
  187.3660  175.3340  137.3690 C   0  0  0  0  0  2  0  0  0  0  0  0
  189.6250  176.5480  137.6190 C   0  0  1  0  0  3  0  0  0  0  0  0
  189.4890  174.8050  135.4100 C   0  0  0  0  0  2  0  0  0  0  0  0
  188.1200  176.5500  137.9160 C   0  0  0  0  0  2  0  0  0  0  0  0
  187.7320  175.0140  135.6490 S   0  0  0  0  0  0  0  0  0  0  0  0
  190.1500  174.2100  136.6600 C   0  0  2  0  0  3  0  0  0  0  0  0
  187.0240  173.7610  135.2210 O   0  0  0  0  0  0  0  0  0  0  0  0
  192.4460  174.1340  137.5910 O   0  0  0  0  0  0  0  0  0  0  0  0
  193.9210  175.7040  138.3430 O   0  0  0  0  0  1  0  0  0  0  0  0
  193.6670  174.7700  137.3400 C   0  0  0  0  0  2  0  0  0  0  0  0
  1  2  1  0  0  0  0
  2  3  1  0  0  0  0
  3 11  2  0  0  0  0
  4 15  1  0  0  0  0
  4  8  2  0  0  0  0
  5  2  2  0  0  0  0
  5 14  1  0  0  0  0
  6 17  1  6  0  0  0
  6  3  1  0  0  0  0
  6 10  1  0  0  0  0
  7 14  2  0  0  0  0
  8  5  1  0  0  0  0
 10 12  1  0  0  0  0
 11  9  1  0  0  0  0
 11 13  1  0  0  0  0
 12 13  1  0  0  0  0
 14 16  1  0  0  0  0
 15  1  2  0  0  0  0
 16  9  1  0  0  0  0
 17 18  1  0  0  0  0
 19 20  2  0  0  0  0
 20 18  1  0  0  0  0
 21 22  1  0  0  0  0
 22 25  1  0  0  0  0
 23 26  1  0  0  0  0
 24 27  1  1  0  0  0
 24 34  1  0  0  0  0
 24 31  1  0  0  0  0
 25 30  1  0  0  0  0
 26 21  1  6  0  0  0
 26 28  1  0  0  0  0
 28 32  1  0  0  0  0
 28 30  1  1  0  0  0
 31 29  1  0  0  0  0
 32 19  1  0  0  0  0
 33 29  1  1  0  0  0
 33 32  1  0  0  0  0
 34 23  1  6  0  0  0
 34 33  1  0  0  0  0
 35 19  1  0  0  0  0
 36 35  1  0  0  0  0
 37  4  1  0  0  0  0
 39 40  1  0  0  0  0
 40 49  1  0  0  0  0
 40 38  1  0  0  0  0
 41 46  2  0  0  0  0
 42 45  1  0  0  0  0
 43 38  1  0  0  0  0
 43 45  1  0  0  0  0
 43 37  1  0  0  0  0
 44 46  1  0  0  0  0
 44 47  1  0  0  0  0
 46 42  1  0  0  0  0
 47 40  1  0  0  0  0
 47 38  1  0  0  0  0
 48 46  2  0  0  0  0
 51 49  1  0  0  0  0
 51 50  1  0  0  0  0
M  END
>  <MODEL>
7

>  <REMARK>
 VINA RESULT:      -9.1      3.329      8.199
  Name = 
  9 active torsions:
  status: ('A' for Active; 'I' for Inactive)
    1  A    between atoms: O_1  and  C_18
    2  A    between atoms: C_2  and  C_15
    3  A    between atoms: C_2  and  C_35
    4  A    between atoms: O_8  and  C_12
    5  A    between atoms: O_8  and  C_41
    6  A    between atoms: C_14  and  C_25
    7  A    between atoms: C_15  and  C_17
    8  A    between atoms: C_18  and  N_44
    9  A    between atoms: C_25  and  C_34
                            x       y       z     vdW  Elec       q    Type
                         _______ _______ _______ _____ _____    ______ ____

>  <TORSDO>
F 9

$$$$
=
 OpenBabel11032419243D

 51 58  0  0  1  0  0  0  0  0999 V2000
  186.5370  178.0400  137.6420 C   0  0  0  0  0  3  0  0  0  0  0  0
  187.0790  176.8070  137.2480 C   0  0  0  0  0  0  0  0  0  0  0  0
  188.5250  176.5360  137.5380 C   0  0  0  0  0  0  0  0  0  0  0  0
  184.3180  177.3410  137.0090 C   0  0  0  0  0  0  0  0  0  0  0  0
  186.2090  175.8490  136.6710 C   0  0  0  0  0  0  0  0  0  0  0  0
  189.0840  176.7320  138.9620 C   0  0  1  0  0  3  0  0  0  0  0  0
  185.9990  173.5540  136.1470 O   0  0  0  0  0  0  0  0  0  0  0  0
  184.8370  176.1210  136.5790 C   0  0  0  0  0  3  0  0  0  0  0  0
  188.8960  175.4960  135.3530 N   0  0  0  0  0  2  0  0  0  0  0  0
  190.4870  176.8560  138.9930 O   0  0  0  0  0  0  0  0  0  0  0  0
  189.3400  175.9300  136.6390 C   0  0  0  0  0  0  0  0  0  0  0  0
  191.0150  175.6810  138.4470 C   0  0  0  0  0  2  0  0  0  0  0  0
  190.7940  175.7110  136.9450 C   0  0  0  0  0  2  0  0  0  0  0  0
  186.6860  174.6060  136.0540 C   0  0  0  0  0  0  0  0  0  0  0  0
  185.1740  178.3100  137.5240 C   0  0  0  0  0  3  0  0  0  0  0  0
  187.8120  174.6250  135.1830 N   0  0  0  0  0  2  0  0  0  0  0  0
  188.4520  177.8510  139.7960 C   0  0  0  0  0  2  0  0  0  0  0  0
  189.3460  178.3070  140.9490 C   0  0  0  0  0  2  0  0  0  0  0  0
  188.3330  177.4030  143.0900 C   0  0  0  0  0  0  0  0  0  0  0  0
  188.5700  178.4010  142.2230 C   0  0  0  0  0  3  0  0  0  0  0  0
  184.1510  178.7060  145.5320 C   0  0  0  0  0  2  0  0  0  0  0  0
  183.6830  178.8100  144.1400 N   0  0  0  0  0  2  0  0  0  0  0  0
  186.1570  177.9110  146.7760 N   0  0  0  0  0  2  0  0  0  0  0  0
  188.3570  177.4190  147.8330 C   0  0  2  0  0  3  0  0  0  0  0  0
  184.5710  179.5660  143.4250 O   0  0  0  0  0  0  0  0  0  0  0  0
  185.6740  178.5930  145.5720 C   0  0  1  0  0  3  0  0  0  0  0  0
  188.6230  178.3940  148.7930 O   0  0  0  0  0  1  0  0  0  0  0  0
  186.1660  177.9060  144.2820 C   0  0  1  0  0  3  0  0  0  0  0  0
  189.4860  177.0970  145.7360 O   0  0  0  0  0  0  0  0  0  0  0  0
  185.6600  178.7250  143.0780 C   0  0  0  0  0  2  0  0  0  0  0  0
  189.6560  177.0050  147.1380 C   0  0  0  0  0  2  0  0  0  0  0  0
  187.6280  177.7100  144.3060 N   0  0  0  0  0  0  0  0  0  0  0  0
  188.0990  177.1600  145.5820 C   0  0  2  0  0  3  0  0  0  0  0  0
  187.6070  178.0190  146.6980 C   0  0  1  0  0  3  0  0  0  0  0  0
  188.7340  176.0710  142.8760 O   0  0  0  0  0  0  0  0  0  0  0  0
  190.0790  175.6100  142.8670 C   0  0  0  0  0  1  0  0  0  0  0  0
  182.8520  177.6010  136.9240 C   0  0  0  0  0  2  0  0  0  0  0  0
  182.1050  176.2050  138.8660 C   0  0  1  0  0  3  0  0  0  0  0  0
  180.0330  176.2030  137.5170 F   0  0  0  0  0  0  0  0  0  0  0  0
  180.8170  175.5170  138.4380 C   0  0  2  0  0  0  0  0  0  0  0  0
  180.4290  179.8730  140.6320 O   0  0  0  0  0  0  0  0  0  0  0  0
  182.6900  178.4170  140.7240 C   0  0  0  0  0  2  0  0  0  0  0  0
  182.2320  177.6310  138.3140 C   0  0  1  0  0  3  0  0  0  0  0  0
  180.0640  177.2710  140.0760 C   0  0  0  0  0  2  0  0  0  0  0  0
  183.0430  178.5460  139.2400 C   0  0  0  0  0  2  0  0  0  0  0  0
  180.9300  178.5130  141.0240 S   0  0  0  0  0  0  0  0  0  0  0  0
  180.9370  176.0280  139.8670 C   0  0  2  0  0  3  0  0  0  0  0  0
  180.6680  178.2900  142.4850 O   0  0  0  0  0  0  0  0  0  0  0  0
  180.9790  174.1360  138.2650 O   0  0  0  0  0  0  0  0  0  0  0  0
  182.7070  173.3300  137.0130 O   0  0  0  0  0  1  0  0  0  0  0  0
  181.4650  173.9600  136.9650 C   0  0  0  0  0  2  0  0  0  0  0  0
  2  3  1  0  0  0  0
  2  1  2  0  0  0  0
  3  6  1  0  0  0  0
  4 15  2  0  0  0  0
  5  2  1  0  0  0  0
  6 10  1  0  0  0  0
  6 17  1  6  0  0  0
  8  5  2  0  0  0  0
  8  4  1  0  0  0  0
  9 11  1  0  0  0  0
 11 13  1  0  0  0  0
 11  3  2  0  0  0  0
 12 10  1  0  0  0  0
 13 12  1  0  0  0  0
 14  7  2  0  0  0  0
 14  5  1  0  0  0  0
 15  1  1  0  0  0  0
 16  9  1  0  0  0  0
 16 14  1  0  0  0  0
 17 18  1  0  0  0  0
 18 20  1  0  0  0  0
 19 32  1  0  0  0  0
 20 19  2  0  0  0  0
 22 21  1  0  0  0  0
 24 27  1  1  0  0  0
 25 22  1  0  0  0  0
 26 21  1  6  0  0  0
 26 23  1  0  0  0  0
 28 30  1  6  0  0  0
 28 32  1  0  0  0  0
 28 26  1  0  0  0  0
 29 31  1  0  0  0  0
 30 25  1  0  0  0  0
 31 24  1  0  0  0  0
 32 33  1  0  0  0  0
 33 29  1  6  0  0  0
 33 34  1  0  0  0  0
 34 23  1  1  0  0  0
 34 24  1  0  0  0  0
 35 19  1  0  0  0  0
 36 35  1  0  0  0  0
 37  4  1  0  0  0  0
 37 43  1  0  0  0  0
 38 47  1  0  0  0  0
 39 40  1  0  0  0  0
 40 38  1  0  0  0  0
 40 47  1  0  0  0  0
 41 46  2  0  0  0  0
 42 46  1  0  0  0  0
 43 38  1  0  0  0  0
 43 45  1  0  0  0  0
 44 46  1  0  0  0  0
 45 42  1  0  0  0  0
 46 48  2  0  0  0  0
 47 44  1  0  0  0  0
 49 40  1  0  0  0  0
 51 50  1  0  0  0  0
 51 49  1  0  0  0  0
M  END
>  <MODEL>
8

>  <REMARK>
 VINA RESULT:      -9.0      2.441      7.900
  Name = 
  9 active torsions:
  status: ('A' for Active; 'I' for Inactive)
    1  A    between atoms: O_1  and  C_18
    2  A    between atoms: C_2  and  C_15
    3  A    between atoms: C_2  and  C_35
    4  A    between atoms: O_8  and  C_12
    5  A    between atoms: O_8  and  C_41
    6  A    between atoms: C_14  and  C_25
    7  A    between atoms: C_15  and  C_17
    8  A    between atoms: C_18  and  N_44
    9  A    between atoms: C_25  and  C_34
                            x       y       z     vdW  Elec       q    Type
                         _______ _______ _______ _____ _____    ______ ____

>  <TORSDO>
F 9

$$$$
=
 OpenBabel11032419243D

 51 58  0  0  1  0  0  0  0  0999 V2000
  184.9040  177.8070  141.5970 C   0  0  0  0  0  3  0  0  0  0  0  0
  185.5470  178.0780  142.8160 C   0  0  0  0  0  0  0  0  0  0  0  0
  187.0280  177.8680  142.9060 C   0  0  0  0  0  0  0  0  0  0  0  0
  182.8170  178.6860  142.4260 C   0  0  0  0  0  0  0  0  0  0  0  0
  184.7720  178.6180  143.8730 C   0  0  0  0  0  0  0  0  0  0  0  0
  187.9690  178.4980  141.8590 C   0  0  1  0  0  3  0  0  0  0  0  0
  184.9200  179.7510  145.9420 O   0  0  0  0  0  0  0  0  0  0  0  0
  183.4230  178.9340  143.6560 C   0  0  0  0  0  3  0  0  0  0  0  0
  186.8750  176.8670  145.1340 N   0  0  0  0  0  2  0  0  0  0  0  0
  189.2380  177.8840  141.8160 O   0  0  0  0  0  0  0  0  0  0  0  0
  187.6120  177.3020  143.9910 C   0  0  0  0  0  0  0  0  0  0  0  0
  189.8030  178.0220  143.0880 C   0  0  0  0  0  2  0  0  0  0  0  0
  189.0950  177.0670  144.0320 C   0  0  0  0  0  2  0  0  0  0  0  0
  185.2830  178.7690  145.2400 C   0  0  0  0  0  0  0  0  0  0  0  0
  183.5550  178.1030  141.4000 C   0  0  0  0  0  3  0  0  0  0  0  0
  186.0200  177.7160  145.8490 N   0  0  0  0  0  2  0  0  0  0  0  0
  187.4170  178.6320  140.4360 C   0  0  0  0  0  2  0  0  0  0  0  0
  188.5020  178.5170  139.3660 C   0  0  0  0  0  2  0  0  0  0  0  0
  188.1850  176.9880  137.3690 C   0  0  0  0  0  0  0  0  0  0  0  0
  188.4320  177.1940  138.6730 C   0  0  0  0  0  3  0  0  0  0  0  0
  190.7550  173.0180  135.7000 C   0  0  0  0  0  2  0  0  0  0  0  0
  191.8440  174.0020  135.8200 N   0  0  0  0  0  2  0  0  0  0  0  0
  188.3410  172.8200  136.2810 N   0  0  0  0  0  2  0  0  0  0  0  0
  185.8730  172.9200  136.5940 C   0  0  2  0  0  3  0  0  0  0  0  0
  191.4750  175.1570  135.1870 O   0  0  0  0  0  0  0  0  0  0  0  0
  189.3980  173.7140  135.8020 C   0  0  1  0  0  3  0  0  0  0  0  0
  185.2550  172.3590  135.4760 O   0  0  0  0  0  1  0  0  0  0  0  0
  189.5380  174.9700  136.6860 C   0  0  1  0  0  3  0  0  0  0  0  0
  185.8770  175.2330  137.2440 O   0  0  0  0  0  0  0  0  0  0  0  0
  190.6270  175.8730  136.0710 C   0  0  0  0  0  2  0  0  0  0  0  0
  185.0430  174.0970  137.1100 C   0  0  0  0  0  2  0  0  0  0  0  0
  188.2360  175.6390  136.8720 N   0  0  0  0  0  0  0  0  0  0  0  0
  187.1640  174.6950  137.2090 C   0  0  2  0  0  3  0  0  0  0  0  0
  187.1230  173.6120  136.1840 C   0  0  1  0  0  3  0  0  0  0  0  0
  187.8770  178.0170  136.4600 O   0  0  0  0  0  0  0  0  0  0  0  0
  187.0420  177.8830  135.3180 C   0  0  0  0  0  1  0  0  0  0  0  0
  181.3880  179.0520  142.2100 C   0  0  0  0  0  2  0  0  0  0  0  0
  179.7050  178.0040  140.6780 C   0  0  1  0  0  3  0  0  0  0  0  0
  181.2770  176.1140  140.9400 F   0  0  0  0  0  0  0  0  0  0  0  0
  179.9630  176.5050  140.7070 C   0  0  2  0  0  0  0  0  0  0  0  0
  182.3170  179.1370  137.3200 O   0  0  0  0  0  0  0  0  0  0  0  0
  180.1890  180.0970  138.6600 C   0  0  0  0  0  2  0  0  0  0  0  0
  180.9930  178.8340  140.7560 C   0  0  1  0  0  3  0  0  0  0  0  0
  180.7980  177.2320  138.4480 C   0  0  0  0  0  2  0  0  0  0  0  0
  180.8670  180.1790  140.0300 C   0  0  0  0  0  2  0  0  0  0  0  0
  180.8820  178.8150  137.6250 S   0  0  0  0  0  0  0  0  0  0  0  0
  179.5870  177.1600  139.3850 C   0  0  2  0  0  3  0  0  0  0  0  0
  180.1060  178.7450  136.3420 O   0  0  0  0  0  0  0  0  0  0  0  0
  178.9410  175.7970  141.3530 O   0  0  0  0  0  0  0  0  0  0  0  0
  179.1840  173.6560  142.1020 O   0  0  0  0  0  1  0  0  0  0  0  0
  179.0880  174.4610  140.9680 C   0  0  0  0  0  2  0  0  0  0  0  0
  1  2  1  0  0  0  0
  2  3  1  0  0  0  0
  2  5  2  0  0  0  0
  3 11  2  0  0  0  0
  4  8  2  0  0  0  0
  5 14  1  0  0  0  0
  6 17  1  6  0  0  0
  6  3  1  0  0  0  0
  8  5  1  0  0  0  0
  9 16  1  0  0  0  0
 10  6  1  0  0  0  0
 10 12  1  0  0  0  0
 11 13  1  0  0  0  0
 11  9  1  0  0  0  0
 12 13  1  0  0  0  0
 14 16  1  0  0  0  0
 14  7  2  0  0  0  0
 15  1  2  0  0  0  0
 15  4  1  0  0  0  0
 18 17  1  0  0  0  0
 19 20  2  0  0  0  0
 20 18  1  0  0  0  0
 21 22  1  0  0  0  0
 24 27  1  6  0  0  0
 24 31  1  0  0  0  0
 25 22  1  0  0  0  0
 25 30  1  0  0  0  0
 26 21  1  1  0  0  0
 26 23  1  0  0  0  0
 26 28  1  0  0  0  0
 28 30  1  6  0  0  0
 28 32  1  0  0  0  0
 31 29  1  0  0  0  0
 32 33  1  0  0  0  0
 32 19  1  0  0  0  0
 33 29  1  6  0  0  0
 34 23  1  1  0  0  0
 34 24  1  0  0  0  0
 34 33  1  0  0  0  0
 35 19  1  0  0  0  0
 36 35  1  0  0  0  0
 37  4  1  0  0  0  0
 38 40  1  0  0  0  0
 38 43  1  0  0  0  0
 40 39  1  0  0  0  0
 40 49  1  0  0  0  0
 41 46  2  0  0  0  0
 42 45  1  0  0  0  0
 43 37  1  0  0  0  0
 44 47  1  0  0  0  0
 45 43  1  0  0  0  0
 46 44  1  0  0  0  0
 46 42  1  0  0  0  0
 47 38  1  0  0  0  0
 47 40  1  0  0  0  0
 48 46  2  0  0  0  0
 51 49  1  0  0  0  0
 51 50  1  0  0  0  0
M  END
>  <MODEL>
9

>  <REMARK>
 VINA RESULT:      -9.0      2.342      3.742
  Name = 
  9 active torsions:
  status: ('A' for Active; 'I' for Inactive)
    1  A    between atoms: O_1  and  C_18
    2  A    between atoms: C_2  and  C_15
    3  A    between atoms: C_2  and  C_35
    4  A    between atoms: O_8  and  C_12
    5  A    between atoms: O_8  and  C_41
    6  A    between atoms: C_14  and  C_25
    7  A    between atoms: C_15  and  C_17
    8  A    between atoms: C_18  and  N_44
    9  A    between atoms: C_25  and  C_34
                            x       y       z     vdW  Elec       q    Type
                         _______ _______ _______ _____ _____    ______ ____

>  <TORSDO>
F 9

$$$$
