=
 OpenBabel11042410263D

 29 32  0  0  1  0  0  0  0  0999 V2000
  187.4090  177.3690  137.9590 C   0  0  0  0  0  1  0  0  0  0  0  0
  188.9810  177.6860  142.1210 C   0  0  2  0  0  3  0  0  0  0  0  0
  187.7680  178.2420  139.1450 C   0  0  2  0  0  3  0  0  0  0  0  0
  189.2900  178.4600  139.1960 C   0  0  0  0  0  2  0  0  0  0  0  0
  189.8270  176.9100  141.1390 C   0  0  0  0  0  0  0  0  0  0  0  0
  187.7460  178.3770  141.5210 C   0  0  1  0  0  3  0  0  0  0  0  0
  190.4330  175.8890  141.5650 O   0  0  0  0  0  0  0  0  0  0  0  0
  190.9090  176.5890  138.8970 C   0  0  0  0  0  1  0  0  0  0  0  0
  187.2320  177.6430  140.3690 N   0  0  0  0  0  2  0  0  0  0  0  0
  189.9860  177.3080  139.7620 N   0  0  0  0  0  0  0  0  0  0  0  0
  186.6750  178.5660  142.5480 C   0  0  0  0  0  0  0  0  0  0  0  0
  184.3970  179.2650  143.1560 C   0  0  0  0  0  3  0  0  0  0  0  0
  185.7920  178.0600  146.1330 C   0  0  0  0  0  0  0  0  0  0  0  0
  185.4140  179.1130  142.1930 C   0  0  0  0  0  3  0  0  0  0  0  0
  183.8770  178.9120  145.5320 N   0  0  0  0  0  2  0  0  0  0  0  0
  184.6830  178.8590  144.4550 C   0  0  0  0  0  0  0  0  0  0  0  0
  184.5600  178.4200  146.5630 N   0  0  0  0  0  0  0  0  0  0  0  0
  185.8960  178.3320  144.7950 C   0  0  0  0  0  0  0  0  0  0  0  0
  186.9240  178.1620  143.8740 C   0  0  0  0  0  3  0  0  0  0  0  0
  187.4320  178.2680  147.9440 C   0  0  0  0  0  1  0  0  0  0  0  0
  186.7890  177.5070  146.9330 O   0  0  0  0  0  0  0  0  0  0  0  0
  189.7740  178.6190  142.7960 O   0  0  0  0  0  0  0  0  0  0  0  0
  190.9000  177.8960  143.2140 C   0  0  2  0  0  3  0  0  0  0  0  0
  191.3540  180.0480  144.2460 O   0  0  0  0  0  1  0  0  0  0  0  0
  189.8090  178.2560  145.4130 O   0  0  0  0  0  1  0  0  0  0  0  0
  190.9070  177.7290  144.7210 C   0  0  2  0  0  0  0  0  0  0  0  0
  191.8410  178.7450  144.0870 C   0  0  1  0  0  3  0  0  0  0  0  0
  191.5570  176.4680  145.2580 C   0  0  0  0  0  2  0  0  0  0  0  0
  191.5820  176.4960  146.7750 C   0  0  0  0  0  1  0  0  0  0  0  0
  2 22  1  6  0  0  0
  3  1  1  6  0  0  0
  3  4  1  0  0  0  0
  3  9  1  0  0  0  0
  4 10  1  0  0  0  0
  5  7  2  0  0  0  0
  5  2  1  0  0  0  0
  6  2  1  0  0  0  0
  6 11  1  1  0  0  0
  8 10  1  0  0  0  0
  9  6  1  0  0  0  0
 10  5  1  0  0  0  0
 11 19  1  0  0  0  0
 12 16  2  0  0  0  0
 13 17  2  0  0  0  0
 13 21  1  0  0  0  0
 14 11  2  0  0  0  0
 14 12  1  0  0  0  0
 15 17  1  0  0  0  0
 16 18  1  0  0  0  0
 16 15  1  0  0  0  0
 18 13  1  0  0  0  0
 19 18  2  0  0  0  0
 21 20  1  0  0  0  0
 23 22  1  1  0  0  0
 23 27  1  0  0  0  0
 23 26  1  0  0  0  0
 26 28  1  0  0  0  0
 26 25  1  1  0  0  0
 27 24  1  1  0  0  0
 27 26  1  0  0  0  0
 28 29  1  0  0  0  0
M  END
>  <MODEL>
1

>  <REMARK>
 VINA RESULT:      -8.8      0.000      0.000
  Name = 
  5 active torsions:
  status: ('A' for Active; 'I' for Inactive)
    1  A    between atoms: C_1  and  C_11
    2  A    between atoms: C_2  and  C_20
    3  A    between atoms: C_5  and  O_26
    4  A    between atoms: C_8  and  O_19
    5  A    between atoms: C_10  and  O_26
                            x       y       z     vdW  Elec       q    Type
                         _______ _______ _______ _____ _____    ______ ____

>  <TORSDO>
F 5

$$$$
=
 OpenBabel11042410263D

 29 32  0  0  1  0  0  0  0  0999 V2000
  187.6050  177.4090  137.7160 C   0  0  0  0  0  1  0  0  0  0  0  0
  188.8800  177.6130  141.9860 C   0  0  2  0  0  3  0  0  0  0  0  0
  187.8330  178.2430  138.9620 C   0  0  2  0  0  3  0  0  0  0  0  0
  189.3320  178.5440  139.1260 C   0  0  0  0  0  2  0  0  0  0  0  0
  189.8340  176.9350  141.0290 C   0  0  0  0  0  0  0  0  0  0  0  0
  187.6480  178.2610  141.3350 C   0  0  1  0  0  3  0  0  0  0  0  0
  190.4710  175.9310  141.4500 O   0  0  0  0  0  0  0  0  0  0  0  0
  191.0770  176.7860  138.8550 C   0  0  0  0  0  1  0  0  0  0  0  0
  187.2560  177.5550  140.1180 N   0  0  0  0  0  2  0  0  0  0  0  0
  190.0580  177.4080  139.6860 N   0  0  0  0  0  0  0  0  0  0  0  0
  186.5030  178.3380  142.2940 C   0  0  0  0  0  0  0  0  0  0  0  0
  185.6370  178.3040  144.5950 C   0  0  0  0  0  3  0  0  0  0  0  0
  182.8280  178.8850  142.5860 C   0  0  0  0  0  0  0  0  0  0  0  0
  186.7130  178.2050  143.6910 C   0  0  0  0  0  3  0  0  0  0  0  0
  183.2090  178.6650  144.7220 N   0  0  0  0  0  2  0  0  0  0  0  0
  184.3740  178.5380  144.0600 C   0  0  0  0  0  0  0  0  0  0  0  0
  182.2590  178.8790  143.8150 N   0  0  0  0  0  0  0  0  0  0  0  0
  184.1740  178.6680  142.7160 C   0  0  0  0  0  0  0  0  0  0  0  0
  185.2090  178.5800  141.7910 C   0  0  0  0  0  3  0  0  0  0  0  0
  181.1650  178.1540  140.9400 C   0  0  0  0  0  1  0  0  0  0  0  0
  182.1440  179.0780  141.3880 O   0  0  0  0  0  0  0  0  0  0  0  0
  189.5700  178.5560  142.7540 O   0  0  0  0  0  0  0  0  0  0  0  0
  190.7360  177.8960  143.1680 C   0  0  2  0  0  3  0  0  0  0  0  0
  191.1030  180.0900  144.1460 O   0  0  0  0  0  1  0  0  0  0  0  0
  189.6630  178.2540  145.3770 O   0  0  0  0  0  1  0  0  0  0  0  0
  190.7740  177.7640  144.6780 C   0  0  2  0  0  0  0  0  0  0  0  0
  191.6490  178.8080  144.0070 C   0  0  1  0  0  3  0  0  0  0  0  0
  191.4920  176.5470  145.2320 C   0  0  0  0  0  2  0  0  0  0  0  0
  191.4690  176.5700  146.7480 C   0  0  0  0  0  1  0  0  0  0  0  0
  2 22  1  6  0  0  0
  3  1  1  6  0  0  0
  3  4  1  0  0  0  0
  3  9  1  0  0  0  0
  4 10  1  0  0  0  0
  5  7  2  0  0  0  0
  5  2  1  0  0  0  0
  6  2  1  0  0  0  0
  6 11  1  1  0  0  0
  8 10  1  0  0  0  0
  9  6  1  0  0  0  0
 10  5  1  0  0  0  0
 11 14  1  0  0  0  0
 13 18  1  0  0  0  0
 13 17  2  0  0  0  0
 14 12  2  0  0  0  0
 16 12  1  0  0  0  0
 16 15  1  0  0  0  0
 17 15  1  0  0  0  0
 18 16  2  0  0  0  0
 19 11  2  0  0  0  0
 19 18  1  0  0  0  0
 20 21  1  0  0  0  0
 21 13  1  0  0  0  0
 23 22  1  1  0  0  0
 23 27  1  0  0  0  0
 23 26  1  0  0  0  0
 26 28  1  0  0  0  0
 26 25  1  1  0  0  0
 27 24  1  1  0  0  0
 27 26  1  0  0  0  0
 28 29  1  0  0  0  0
M  END
>  <MODEL>
2

>  <REMARK>
 VINA RESULT:      -8.0      1.697      2.657
  Name = 
  5 active torsions:
  status: ('A' for Active; 'I' for Inactive)
    1  A    between atoms: C_1  and  C_11
    2  A    between atoms: C_2  and  C_20
    3  A    between atoms: C_5  and  O_26
    4  A    between atoms: C_8  and  O_19
    5  A    between atoms: C_10  and  O_26
                            x       y       z     vdW  Elec       q    Type
                         _______ _______ _______ _____ _____    ______ ____

>  <TORSDO>
F 5

$$$$
=
 OpenBabel11042410263D

 29 32  0  0  1  0  0  0  0  0999 V2000
  179.0440  179.1770  143.9510 C   0  0  0  0  0  1  0  0  0  0  0  0
  182.7590  178.3070  141.6400 C   0  0  2  0  0  3  0  0  0  0  0  0
  180.3830  179.6530  143.4250 C   0  0  2  0  0  3  0  0  0  0  0  0
  180.2630  180.0210  141.9370 C   0  0  0  0  0  2  0  0  0  0  0  0
  181.4490  177.9990  140.9520 C   0  0  0  0  0  0  0  0  0  0  0  0
  182.6350  179.0040  143.0050 C   0  0  1  0  0  3  0  0  0  0  0  0
  181.3990  176.9750  140.2170 O   0  0  0  0  0  0  0  0  0  0  0  0
  179.0910  178.5560  140.2970 C   0  0  0  0  0  1  0  0  0  0  0  0
  181.3980  178.6280  143.6830 N   0  0  0  0  0  2  0  0  0  0  0  0
  180.2840  178.8390  141.0800 N   0  0  0  0  0  0  0  0  0  0  0  0
  183.8210  178.7200  143.8710 C   0  0  0  0  0  0  0  0  0  0  0  0
  184.8780  178.6500  146.0890 C   0  0  0  0  0  3  0  0  0  0  0  0
  187.3130  177.4210  143.8930 C   0  0  0  0  0  0  0  0  0  0  0  0
  183.7690  178.9430  145.2720 C   0  0  0  0  0  3  0  0  0  0  0  0
  187.1800  177.7900  146.0380 N   0  0  0  0  0  2  0  0  0  0  0  0
  186.0120  178.1370  145.4670 C   0  0  0  0  0  0  0  0  0  0  0  0
  187.9800  177.3500  145.0700 N   0  0  0  0  0  0  0  0  0  0  0  0
  186.0590  177.9220  144.1200 C   0  0  0  0  0  0  0  0  0  0  0  0
  184.9850  178.1950  143.2790 C   0  0  0  0  0  3  0  0  0  0  0  0
  188.4060  178.0020  141.7770 C   0  0  0  0  0  1  0  0  0  0  0  0
  187.8310  177.0470  142.6560 O   0  0  0  0  0  0  0  0  0  0  0  0
  183.5760  179.0570  140.7890 O   0  0  0  0  0  0  0  0  0  0  0  0
  183.3790  178.4970  139.5190 C   0  0  2  0  0  3  0  0  0  0  0  0
  184.0750  180.7430  138.9050 O   0  0  0  0  0  1  0  0  0  0  0  0
  185.8340  178.8500  139.4340 O   0  0  0  0  0  1  0  0  0  0  0  0
  184.6870  178.4180  138.7550 C   0  0  2  0  0  0  0  0  0  0  0  0
  183.6850  179.5000  138.3920 C   0  0  1  0  0  3  0  0  0  0  0  0
  184.8240  177.2750  137.7670 C   0  0  0  0  0  2  0  0  0  0  0  0
  186.0530  177.4760  136.9010 C   0  0  0  0  0  1  0  0  0  0  0  0
  2 22  1  6  0  0  0
  2  6  1  0  0  0  0
  3  9  1  0  0  0  0
  3  1  1  6  0  0  0
  4  3  1  0  0  0  0
  5 10  1  0  0  0  0
  5  2  1  0  0  0  0
  6  9  1  0  0  0  0
  6 11  1  1  0  0  0
  7  5  2  0  0  0  0
  8 10  1  0  0  0  0
 10  4  1  0  0  0  0
 11 14  1  0  0  0  0
 13 18  1  0  0  0  0
 13 17  2  0  0  0  0
 14 12  2  0  0  0  0
 16 15  1  0  0  0  0
 16 12  1  0  0  0  0
 17 15  1  0  0  0  0
 18 16  2  0  0  0  0
 19 11  2  0  0  0  0
 19 18  1  0  0  0  0
 20 21  1  0  0  0  0
 21 13  1  0  0  0  0
 23 22  1  1  0  0  0
 26 25  1  1  0  0  0
 26 23  1  0  0  0  0
 27 26  1  0  0  0  0
 27 24  1  1  0  0  0
 27 23  1  0  0  0  0
 28 26  1  0  0  0  0
 29 28  1  0  0  0  0
M  END
>  <MODEL>
3

>  <REMARK>
 VINA RESULT:      -7.8      3.935      7.370
  Name = 
  5 active torsions:
  status: ('A' for Active; 'I' for Inactive)
    1  A    between atoms: C_1  and  C_11
    2  A    between atoms: C_2  and  C_20
    3  A    between atoms: C_5  and  O_26
    4  A    between atoms: C_8  and  O_19
    5  A    between atoms: C_10  and  O_26
                            x       y       z     vdW  Elec       q    Type
                         _______ _______ _______ _____ _____    ______ ____

>  <TORSDO>
F 5

$$$$
=
 OpenBabel11042410263D

 29 32  0  0  1  0  0  0  0  0999 V2000
  191.6770  177.1270  145.1850 C   0  0  0  0  0  1  0  0  0  0  0  0
  187.8170  177.4730  142.9770 C   0  0  2  0  0  3  0  0  0  0  0  0
  190.7770  177.9310  144.2680 C   0  0  2  0  0  3  0  0  0  0  0  0
  189.6780  178.6270  145.0880 C   0  0  0  0  0  2  0  0  0  0  0  0
  187.7240  177.1310  144.4470 C   0  0  0  0  0  0  0  0  0  0  0  0
  189.2310  177.7850  142.4630 C   0  0  1  0  0  3  0  0  0  0  0  0
  186.8250  176.3240  144.8060 O   0  0  0  0  0  0  0  0  0  0  0  0
  188.3800  177.4350  146.8500 C   0  0  0  0  0  1  0  0  0  0  0  0
  190.2450  177.0560  143.2210 N   0  0  0  0  0  2  0  0  0  0  0  0
  188.5970  177.7100  145.4380 N   0  0  0  0  0  0  0  0  0  0  0  0
  189.3550  177.4970  141.0010 C   0  0  0  0  0  0  0  0  0  0  0  0
  190.5550  176.4600  139.1220 C   0  0  0  0  0  3  0  0  0  0  0  0
  187.7140  177.9140  137.6820 C   0  0  0  0  0  0  0  0  0  0  0  0
  190.4540  176.7530  140.4960 C   0  0  0  0  0  3  0  0  0  0  0  0
  189.4270  176.7730  136.9610 N   0  0  0  0  0  2  0  0  0  0  0  0
  189.5400  176.9260  138.2930 C   0  0  0  0  0  0  0  0  0  0  0  0
  188.3030  177.3810  136.5860 N   0  0  0  0  0  0  0  0  0  0  0  0
  188.4830  177.6400  138.7810 C   0  0  0  0  0  0  0  0  0  0  0  0
  188.3440  177.9480  140.1310 C   0  0  0  0  0  3  0  0  0  0  0  0
  185.2640  177.9700  137.7880 C   0  0  0  0  0  1  0  0  0  0  0  0
  186.5180  178.6280  137.6800 O   0  0  0  0  0  0  0  0  0  0  0  0
  186.9530  178.5320  142.6820 O   0  0  0  0  0  0  0  0  0  0  0  0
  185.6740  177.9570  142.6680 C   0  0  2  0  0  3  0  0  0  0  0  0
  185.1620  180.1450  143.5930 O   0  0  0  0  0  1  0  0  0  0  0  0
  185.3330  179.7530  140.9900 O   0  0  0  0  0  1  0  0  0  0  0  0
  184.7600  178.6970  141.7110 C   0  0  2  0  0  0  0  0  0  0  0  0
  184.6010  178.9230  143.2040 C   0  0  1  0  0  3  0  0  0  0  0  0
  183.6760  177.8740  141.0410 C   0  0  0  0  0  2  0  0  0  0  0  0
  182.3360  178.5750  141.1610 C   0  0  0  0  0  1  0  0  0  0  0  0
  2 22  1  1  0  0  0
  2  5  1  0  0  0  0
  3  4  1  0  0  0  0
  3  1  1  1  0  0  0
  4 10  1  0  0  0  0
  5  7  2  0  0  0  0
  5 10  1  0  0  0  0
  6 11  1  6  0  0  0
  6  2  1  0  0  0  0
  6  9  1  0  0  0  0
  9  3  1  0  0  0  0
 10  8  1  0  0  0  0
 12 14  2  0  0  0  0
 13 18  1  0  0  0  0
 14 11  1  0  0  0  0
 15 16  1  0  0  0  0
 16 18  2  0  0  0  0
 16 12  1  0  0  0  0
 17 15  1  0  0  0  0
 17 13  2  0  0  0  0
 18 19  1  0  0  0  0
 19 11  2  0  0  0  0
 21 13  1  0  0  0  0
 21 20  1  0  0  0  0
 23 22  1  6  0  0  0
 23 27  1  0  0  0  0
 26 25  1  6  0  0  0
 26 23  1  0  0  0  0
 26 27  1  0  0  0  0
 27 24  1  6  0  0  0
 28 29  1  0  0  0  0
 28 26  1  0  0  0  0
M  END
>  <MODEL>
4

>  <REMARK>
 VINA RESULT:      -7.5      2.534      7.078
  Name = 
  5 active torsions:
  status: ('A' for Active; 'I' for Inactive)
    1  A    between atoms: C_1  and  C_11
    2  A    between atoms: C_2  and  C_20
    3  A    between atoms: C_5  and  O_26
    4  A    between atoms: C_8  and  O_19
    5  A    between atoms: C_10  and  O_26
                            x       y       z     vdW  Elec       q    Type
                         _______ _______ _______ _____ _____    ______ ____

>  <TORSDO>
F 5

$$$$
=
 OpenBabel11042410263D

 29 32  0  0  1  0  0  0  0  0999 V2000
  184.4650  178.6300  146.1720 C   0  0  0  0  0  1  0  0  0  0  0  0
  184.6090  178.3570  141.7220 C   0  0  2  0  0  3  0  0  0  0  0  0
  184.9330  179.2120  144.8530 C   0  0  2  0  0  3  0  0  0  0  0  0
  183.7770  179.9610  144.1680 C   0  0  0  0  0  2  0  0  0  0  0  0
  183.2430  178.2560  142.3590 C   0  0  0  0  0  0  0  0  0  0  0  0
  185.7630  178.6720  142.6880 C   0  0  1  0  0  3  0  0  0  0  0  0
  182.4110  177.4620  141.8410 O   0  0  0  0  0  0  0  0  0  0  0  0
  181.4880  178.9930  143.9950 C   0  0  0  0  0  1  0  0  0  0  0  0
  185.4970  178.1450  144.0230 N   0  0  0  0  0  2  0  0  0  0  0  0
  182.8550  179.0460  143.5020 N   0  0  0  0  0  0  0  0  0  0  0  0
  187.0660  178.1560  142.1660 C   0  0  0  0  0  0  0  0  0  0  0  0
  189.0470  176.7210  142.4090 C   0  0  0  0  0  3  0  0  0  0  0  0
  189.4290  178.2570  139.2860 C   0  0  0  0  0  0  0  0  0  0  0  0
  187.8330  177.2250  142.9140 C   0  0  0  0  0  3  0  0  0  0  0  0
  190.5690  176.8340  140.4820 N   0  0  0  0  0  2  0  0  0  0  0  0
  189.4540  177.1700  141.1570 C   0  0  0  0  0  0  0  0  0  0  0  0
  190.5520  177.5030  139.3310 N   0  0  0  0  0  0  0  0  0  0  0  0
  188.7150  178.0650  140.4390 C   0  0  0  0  0  0  0  0  0  0  0  0
  187.5100  178.5840  140.9000 C   0  0  0  0  0  3  0  0  0  0  0  0
  189.0190  178.6200  136.8960 C   0  0  0  0  0  1  0  0  0  0  0  0
  189.0690  179.0950  138.2330 O   0  0  0  0  0  0  0  0  0  0  0  0
  184.5810  179.2950  140.6850 O   0  0  0  0  0  0  0  0  0  0  0  0
  183.6570  178.7820  139.7640 C   0  0  2  0  0  3  0  0  0  0  0  0
  184.1800  180.9120  138.7190 O   0  0  0  0  0  1  0  0  0  0  0  0
  185.6920  178.7830  138.3440 O   0  0  0  0  0  1  0  0  0  0  0  0
  184.3170  178.5260  138.4230 C   0  0  2  0  0  0  0  0  0  0  0  0
  183.4230  179.7430  138.5840 C   0  0  1  0  0  3  0  0  0  0  0  0
  183.7500  177.3850  137.5980 C   0  0  0  0  0  2  0  0  0  0  0  0
  183.0510  176.3840  138.4980 C   0  0  0  0  0  1  0  0  0  0  0  0
  2 22  1  6  0  0  0
  2  5  1  0  0  0  0
  2  6  1  0  0  0  0
  3  1  1  1  0  0  0
  4  3  1  0  0  0  0
  5 10  1  0  0  0  0
  6 11  1  6  0  0  0
  6  9  1  0  0  0  0
  7  5  2  0  0  0  0
  9  3  1  0  0  0  0
 10  8  1  0  0  0  0
 10  4  1  0  0  0  0
 11 14  1  0  0  0  0
 12 14  2  0  0  0  0
 13 17  2  0  0  0  0
 13 18  1  0  0  0  0
 15 16  1  0  0  0  0
 16 12  1  0  0  0  0
 17 15  1  0  0  0  0
 18 19  1  0  0  0  0
 18 16  2  0  0  0  0
 19 11  2  0  0  0  0
 20 21  1  0  0  0  0
 21 13  1  0  0  0  0
 23 22  1  1  0  0  0
 26 25  1  6  0  0  0
 26 27  1  0  0  0  0
 26 23  1  0  0  0  0
 27 24  1  1  0  0  0
 27 23  1  0  0  0  0
 28 26  1  0  0  0  0
 28 29  1  0  0  0  0
M  END
>  <MODEL>
5

>  <REMARK>
 VINA RESULT:      -7.3      3.293      7.787
  Name = 
  5 active torsions:
  status: ('A' for Active; 'I' for Inactive)
    1  A    between atoms: C_1  and  C_11
    2  A    between atoms: C_2  and  C_20
    3  A    between atoms: C_5  and  O_26
    4  A    between atoms: C_8  and  O_19
    5  A    between atoms: C_10  and  O_26
                            x       y       z     vdW  Elec       q    Type
                         _______ _______ _______ _____ _____    ______ ____

>  <TORSDO>
F 5

$$$$
=
 OpenBabel11042410263D

 29 32  0  0  1  0  0  0  0  0999 V2000
  191.7170  177.0730  144.7000 C   0  0  0  0  0  1  0  0  0  0  0  0
  187.6500  177.4970  142.9160 C   0  0  2  0  0  3  0  0  0  0  0  0
  190.7300  177.9080  143.9080 C   0  0  2  0  0  3  0  0  0  0  0  0
  189.7250  178.5790  144.8590 C   0  0  0  0  0  2  0  0  0  0  0  0
  187.7090  177.1080  144.3750 C   0  0  0  0  0  0  0  0  0  0  0  0
  189.0060  177.8230  142.2690 C   0  0  1  0  0  3  0  0  0  0  0  0
  186.8470  176.2910  144.7990 O   0  0  0  0  0  0  0  0  0  0  0  0
  188.6110  177.3320  146.7060 C   0  0  0  0  0  1  0  0  0  0  0  0
  190.0890  177.0690  142.8930 N   0  0  0  0  0  2  0  0  0  0  0  0
  188.6820  177.6530  145.2890 N   0  0  0  0  0  0  0  0  0  0  0  0
  188.9760  177.5830  140.7930 C   0  0  0  0  0  0  0  0  0  0  0  0
  188.0110  178.0240  138.5760 C   0  0  0  0  0  3  0  0  0  0  0  0
  190.6490  175.8000  137.9800 C   0  0  0  0  0  0  0  0  0  0  0  0
  188.0200  178.2310  139.9680 C   0  0  0  0  0  3  0  0  0  0  0  0
  189.1520  176.8170  136.7640 N   0  0  0  0  0  2  0  0  0  0  0  0
  188.9720  177.1660  138.0510 C   0  0  0  0  0  0  0  0  0  0  0  0
  190.1840  175.9770  136.7210 N   0  0  0  0  0  0  0  0  0  0  0  0
  189.8920  176.5440  138.8450 C   0  0  0  0  0  0  0  0  0  0  0  0
  189.9380  176.7250  140.2240 C   0  0  0  0  0  3  0  0  0  0  0  0
  192.3630  174.1550  137.3710 C   0  0  0  0  0  1  0  0  0  0  0  0
  191.7240  174.9860  138.3290 O   0  0  0  0  0  0  0  0  0  0  0  0
  186.7660  178.5660  142.7460 O   0  0  0  0  0  0  0  0  0  0  0  0
  185.4960  177.9750  142.6890 C   0  0  2  0  0  3  0  0  0  0  0  0
  184.9230  180.1600  143.5850 O   0  0  0  0  0  1  0  0  0  0  0  0
  185.1920  179.7590  140.9910 O   0  0  0  0  0  1  0  0  0  0  0  0
  184.6070  178.6980  141.6970 C   0  0  2  0  0  0  0  0  0  0  0  0
  184.3920  178.9290  143.1820 C   0  0  1  0  0  3  0  0  0  0  0  0
  183.5580  177.8590  140.9920 C   0  0  0  0  0  2  0  0  0  0  0  0
  182.2230  178.5790  140.9920 C   0  0  0  0  0  1  0  0  0  0  0  0
  2 22  1  1  0  0  0
  2  5  1  0  0  0  0
  3  1  1  1  0  0  0
  3  4  1  0  0  0  0
  4 10  1  0  0  0  0
  5  7  2  0  0  0  0
  5 10  1  0  0  0  0
  6 11  1  6  0  0  0
  6  9  1  0  0  0  0
  6  2  1  0  0  0  0
  9  3  1  0  0  0  0
 10  8  1  0  0  0  0
 12 14  1  0  0  0  0
 13 21  1  0  0  0  0
 13 18  1  0  0  0  0
 14 11  2  0  0  0  0
 15 16  1  0  0  0  0
 16 12  2  0  0  0  0
 16 18  1  0  0  0  0
 17 15  1  0  0  0  0
 17 13  2  0  0  0  0
 18 19  2  0  0  0  0
 19 11  1  0  0  0  0
 20 21  1  0  0  0  0
 23 22  1  6  0  0  0
 23 27  1  0  0  0  0
 26 25  1  6  0  0  0
 26 23  1  0  0  0  0
 26 27  1  0  0  0  0
 27 24  1  6  0  0  0
 28 26  1  0  0  0  0
 29 28  1  0  0  0  0
M  END
>  <MODEL>
6

>  <REMARK>
 VINA RESULT:      -7.3      2.455      7.239
  Name = 
  5 active torsions:
  status: ('A' for Active; 'I' for Inactive)
    1  A    between atoms: C_1  and  C_11
    2  A    between atoms: C_2  and  C_20
    3  A    between atoms: C_5  and  O_26
    4  A    between atoms: C_8  and  O_19
    5  A    between atoms: C_10  and  O_26
                            x       y       z     vdW  Elec       q    Type
                         _______ _______ _______ _____ _____    ______ ____

>  <TORSDO>
F 5

$$$$
=
 OpenBabel11042410263D

 29 32  0  0  1  0  0  0  0  0999 V2000
  181.8220  178.9510  140.9610 C   0  0  0  0  0  1  0  0  0  0  0  0
  185.7690  177.9230  139.1540 C   0  0  2  0  0  3  0  0  0  0  0  0
  183.2300  179.3780  140.5960 C   0  0  2  0  0  3  0  0  0  0  0  0
  183.3070  179.7090  139.0960 C   0  0  0  0  0  2  0  0  0  0  0  0
  184.5460  177.6310  138.3140 C   0  0  0  0  0  0  0  0  0  0  0  0
  185.4970  178.6590  140.4760 C   0  0  1  0  0  3  0  0  0  0  0  0
  184.5580  176.5890  137.6040 O   0  0  0  0  0  0  0  0  0  0  0  0
  182.3060  178.2320  137.3570 C   0  0  0  0  0  1  0  0  0  0  0  0
  184.1740  178.3340  141.0030 N   0  0  0  0  0  2  0  0  0  0  0  0
  183.3990  178.5040  138.2770 N   0  0  0  0  0  0  0  0  0  0  0  0
  186.5570  178.3680  141.4900 C   0  0  0  0  0  0  0  0  0  0  0  0
  188.9280  178.1210  142.0910 C   0  0  0  0  0  3  0  0  0  0  0  0
  187.1830  177.6060  145.0830 C   0  0  0  0  0  0  0  0  0  0  0  0
  187.9300  178.3690  141.1290 C   0  0  0  0  0  3  0  0  0  0  0  0
  189.2760  177.6140  144.4700 N   0  0  0  0  0  2  0  0  0  0  0  0
  188.5110  177.8780  143.3960 C   0  0  0  0  0  0  0  0  0  0  0  0
  188.4590  177.4470  145.5080 N   0  0  0  0  0  0  0  0  0  0  0  0
  187.1900  177.8780  143.7410 C   0  0  0  0  0  0  0  0  0  0  0  0
  186.1740  178.1220  142.8230 C   0  0  0  0  0  3  0  0  0  0  0  0
  185.5300  178.6290  146.5780 C   0  0  0  0  0  1  0  0  0  0  0  0
  186.0530  177.5020  145.8890 O   0  0  0  0  0  0  0  0  0  0  0  0
  186.7080  178.6280  138.3950 O   0  0  0  0  0  0  0  0  0  0  0  0
  187.6240  177.6570  137.9680 C   0  0  2  0  0  3  0  0  0  0  0  0
  187.1890  178.8010  135.8690 O   0  0  0  0  0  1  0  0  0  0  0  0
  188.9830  179.6980  137.5830 O   0  0  0  0  0  1  0  0  0  0  0  0
  188.9080  178.3020  137.4820 C   0  0  2  0  0  0  0  0  0  0  0  0
  187.9200  177.7640  136.4610 C   0  0  1  0  0  3  0  0  0  0  0  0
  190.1810  177.4980  137.6680 C   0  0  0  0  0  2  0  0  0  0  0  0
  189.9560  176.3850  138.6730 C   0  0  0  0  0  1  0  0  0  0  0  0
  2 22  1  6  0  0  0
  2  6  1  0  0  0  0
  3  1  1  6  0  0  0
  3  9  1  0  0  0  0
  4  3  1  0  0  0  0
  5  2  1  0  0  0  0
  6  9  1  0  0  0  0
  6 11  1  1  0  0  0
  7  5  2  0  0  0  0
  8 10  1  0  0  0  0
 10  5  1  0  0  0  0
 10  4  1  0  0  0  0
 11 19  1  0  0  0  0
 12 16  2  0  0  0  0
 13 17  2  0  0  0  0
 13 21  1  0  0  0  0
 14 11  2  0  0  0  0
 14 12  1  0  0  0  0
 15 17  1  0  0  0  0
 16 18  1  0  0  0  0
 16 15  1  0  0  0  0
 18 13  1  0  0  0  0
 19 18  2  0  0  0  0
 21 20  1  0  0  0  0
 23 22  1  6  0  0  0
 26 25  1  1  0  0  0
 26 28  1  0  0  0  0
 26 23  1  0  0  0  0
 27 24  1  6  0  0  0
 27 26  1  0  0  0  0
 27 23  1  0  0  0  0
 28 29  1  0  0  0  0
M  END
>  <MODEL>
7

>  <REMARK>
 VINA RESULT:      -7.3      3.333      5.713
  Name = 
  5 active torsions:
  status: ('A' for Active; 'I' for Inactive)
    1  A    between atoms: C_1  and  C_11
    2  A    between atoms: C_2  and  C_20
    3  A    between atoms: C_5  and  O_26
    4  A    between atoms: C_8  and  O_19
    5  A    between atoms: C_10  and  O_26
                            x       y       z     vdW  Elec       q    Type
                         _______ _______ _______ _____ _____    ______ ____

>  <TORSDO>
F 5

$$$$
=
 OpenBabel11042410263D

 29 32  0  0  1  0  0  0  0  0999 V2000
  191.6140  177.2340  142.1390 C   0  0  0  0  0  1  0  0  0  0  0  0
  187.7130  178.2860  140.2490 C   0  0  2  0  0  3  0  0  0  0  0  0
  190.1810  176.8510  141.8270 C   0  0  2  0  0  3  0  0  0  0  0  0
  190.0710  176.3680  140.3710 C   0  0  0  0  0  2  0  0  0  0  0  0
  188.9410  178.4180  139.3780 C   0  0  0  0  0  0  0  0  0  0  0  0
  187.9570  177.6800  141.6400 C   0  0  1  0  0  3  0  0  0  0  0  0
  188.9810  179.3780  138.5610 O   0  0  0  0  0  0  0  0  0  0  0  0
  191.1360  177.5940  138.4810 C   0  0  0  0  0  1  0  0  0  0  0  0
  189.3010  177.9830  142.1250 N   0  0  0  0  0  2  0  0  0  0  0  0
  190.0380  177.4820  139.4290 N   0  0  0  0  0  0  0  0  0  0  0  0
  186.9250  178.1360  142.6220 C   0  0  0  0  0  0  0  0  0  0  0  0
  184.7860  179.2440  143.1120 C   0  0  0  0  0  3  0  0  0  0  0  0
  185.9560  178.1320  146.2200 C   0  0  0  0  0  0  0  0  0  0  0  0
  185.7690  178.8380  142.1900 C   0  0  0  0  0  3  0  0  0  0  0  0
  184.2050  179.2140  145.5000 N   0  0  0  0  0  2  0  0  0  0  0  0
  184.9970  178.9280  144.4510 C   0  0  0  0  0  0  0  0  0  0  0  0
  184.7950  178.7240  146.5890 N   0  0  0  0  0  0  0  0  0  0  0  0
  186.1080  178.2520  144.8650 C   0  0  0  0  0  0  0  0  0  0  0  0
  187.1010  177.8300  143.9850 C   0  0  0  0  0  3  0  0  0  0  0  0
  187.5580  178.2470  148.0730 C   0  0  0  0  0  1  0  0  0  0  0  0
  186.8480  177.5100  147.0900 O   0  0  0  0  0  0  0  0  0  0  0  0
  186.7290  177.5590  139.5730 O   0  0  0  0  0  0  0  0  0  0  0  0
  186.0390  178.5130  138.8120 C   0  0  2  0  0  3  0  0  0  0  0  0
  185.5700  176.5040  137.5270 O   0  0  0  0  0  1  0  0  0  0  0  0
  184.1170  177.1710  139.6260 O   0  0  0  0  0  1  0  0  0  0  0  0
  184.5460  178.2470  138.8380 C   0  0  2  0  0  0  0  0  0  0  0  0
  185.3380  177.8840  137.5940 C   0  0  1  0  0  3  0  0  0  0  0  0
  183.6420  179.4600  138.7230 C   0  0  0  0  0  2  0  0  0  0  0  0
  182.5140  179.3710  139.7320 C   0  0  0  0  0  1  0  0  0  0  0  0
  2 22  1  6  0  0  0
  2  6  1  0  0  0  0
  3  9  1  0  0  0  0
  3  1  1  6  0  0  0
  4  3  1  0  0  0  0
  5 10  1  0  0  0  0
  5  2  1  0  0  0  0
  6  9  1  0  0  0  0
  6 11  1  1  0  0  0
  7  5  2  0  0  0  0
  8 10  1  0  0  0  0
 10  4  1  0  0  0  0
 11 19  1  0  0  0  0
 12 16  2  0  0  0  0
 13 17  2  0  0  0  0
 13 21  1  0  0  0  0
 14 11  2  0  0  0  0
 14 12  1  0  0  0  0
 15 17  1  0  0  0  0
 16 18  1  0  0  0  0
 16 15  1  0  0  0  0
 18 13  1  0  0  0  0
 19 18  2  0  0  0  0
 21 20  1  0  0  0  0
 23 26  1  0  0  0  0
 23 22  1  1  0  0  0
 26 25  1  1  0  0  0
 27 24  1  1  0  0  0
 27 23  1  0  0  0  0
 27 26  1  0  0  0  0
 28 26  1  0  0  0  0
 28 29  1  0  0  0  0
M  END
>  <MODEL>
8

>  <REMARK>
 VINA RESULT:      -7.3      2.535      5.050
  Name = 
  5 active torsions:
  status: ('A' for Active; 'I' for Inactive)
    1  A    between atoms: C_1  and  C_11
    2  A    between atoms: C_2  and  C_20
    3  A    between atoms: C_5  and  O_26
    4  A    between atoms: C_8  and  O_19
    5  A    between atoms: C_10  and  O_26
                            x       y       z     vdW  Elec       q    Type
                         _______ _______ _______ _____ _____    ______ ____

>  <TORSDO>
F 5

$$$$
=
 OpenBabel11042410263D

 29 32  0  0  1  0  0  0  0  0999 V2000
  188.4720  177.6240  147.2120 C   0  0  0  0  0  1  0  0  0  0  0  0
  188.7330  178.2210  142.7990 C   0  0  2  0  0  3  0  0  0  0  0  0
  188.2150  177.0930  145.8160 C   0  0  2  0  0  3  0  0  0  0  0  0
  189.5200  176.5460  145.2130 C   0  0  0  0  0  2  0  0  0  0  0  0
  190.0060  178.4370  143.5850 C   0  0  0  0  0  0  0  0  0  0  0  0
  187.5400  177.6950  143.6140 C   0  0  1  0  0  3  0  0  0  0  0  0
  190.7750  179.3640  143.2110 O   0  0  0  0  0  0  0  0  0  0  0  0
  191.6710  177.7950  145.3480 C   0  0  0  0  0  1  0  0  0  0  0  0
  187.6030  178.1460  145.0010 N   0  0  0  0  0  2  0  0  0  0  0  0
  190.3770  177.6150  144.7090 N   0  0  0  0  0  0  0  0  0  0  0  0
  186.2380  178.0880  142.9900 C   0  0  0  0  0  0  0  0  0  0  0  0
  183.8540  178.6480  143.1950 C   0  0  0  0  0  3  0  0  0  0  0  0
  184.5730  179.0140  139.7880 C   0  0  0  0  0  0  0  0  0  0  0  0
  185.0710  178.2530  143.7810 C   0  0  0  0  0  3  0  0  0  0  0  0
  182.8100  179.2440  141.0510 N   0  0  0  0  0  2  0  0  0  0  0  0
  183.8480  178.8690  141.8210 C   0  0  0  0  0  0  0  0  0  0  0  0
  183.2570  179.3340  139.8000 N   0  0  0  0  0  0  0  0  0  0  0  0
  184.9710  178.7110  141.0620 C   0  0  0  0  0  0  0  0  0  0  0  0
  186.1940  178.3260  141.6020 C   0  0  0  0  0  3  0  0  0  0  0  0
  185.3300  177.9180  137.7290 C   0  0  0  0  0  1  0  0  0  0  0  0
  185.3810  178.9950  138.6530 O   0  0  0  0  0  0  0  0  0  0  0  0
  188.9830  177.3770  141.7140 O   0  0  0  0  0  0  0  0  0  0  0  0
  189.5760  178.2030  140.7480 C   0  0  2  0  0  3  0  0  0  0  0  0
  190.5750  176.0640  140.1690 O   0  0  0  0  0  1  0  0  0  0  0  0
  188.1970  176.7660  139.2670 O   0  0  0  0  0  1  0  0  0  0  0  0
  189.1280  177.8100  139.3530 C   0  0  2  0  0  0  0  0  0  0  0  0
  190.5210  177.4190  139.8180 C   0  0  1  0  0  3  0  0  0  0  0  0
  189.0550  178.9250  138.3280 C   0  0  0  0  0  2  0  0  0  0  0  0
  189.0310  178.3470  136.9250 C   0  0  0  0  0  1  0  0  0  0  0  0
  2 22  1  6  0  0  0
  2  5  1  0  0  0  0
  2  6  1  0  0  0  0
  3  1  1  1  0  0  0
  4  3  1  0  0  0  0
  5 10  1  0  0  0  0
  6 11  1  6  0  0  0
  6  9  1  0  0  0  0
  7  5  2  0  0  0  0
  9  3  1  0  0  0  0
 10  4  1  0  0  0  0
 10  8  1  0  0  0  0
 11 14  1  0  0  0  0
 12 14  2  0  0  0  0
 13 17  2  0  0  0  0
 13 18  1  0  0  0  0
 15 16  1  0  0  0  0
 16 12  1  0  0  0  0
 17 15  1  0  0  0  0
 18 19  1  0  0  0  0
 18 16  2  0  0  0  0
 19 11  2  0  0  0  0
 20 21  1  0  0  0  0
 21 13  1  0  0  0  0
 23 22  1  1  0  0  0
 26 25  1  6  0  0  0
 26 27  1  0  0  0  0
 26 23  1  0  0  0  0
 27 24  1  1  0  0  0
 27 23  1  0  0  0  0
 28 26  1  0  0  0  0
 29 28  1  0  0  0  0
M  END
>  <MODEL>
9

>  <REMARK>
 VINA RESULT:      -7.2      2.461      5.653
  Name = 
  5 active torsions:
  status: ('A' for Active; 'I' for Inactive)
    1  A    between atoms: C_1  and  C_11
    2  A    between atoms: C_2  and  C_20
    3  A    between atoms: C_5  and  O_26
    4  A    between atoms: C_8  and  O_19
    5  A    between atoms: C_10  and  O_26
                            x       y       z     vdW  Elec       q    Type
                         _______ _______ _______ _____ _____    ______ ____

>  <TORSDO>
F 5

$$$$
