=
 OpenBabel11032421283D

 34 38  0  0  1  0  0  0  0  0999 V2000
  189.8720  174.6160  136.8980 C   0  0  1  0  0  0  0  0  0  0  0  0
  191.0360  176.0270  138.6950 C   0  0  0  0  0  3  0  0  0  0  0  0
  187.9810  174.2390  135.4070 C   0  0  0  0  0  2  0  0  0  0  0  0
  188.7390  174.7670  137.7310 O   0  0  0  0  0  0  0  0  0  0  0  0
  190.0210  173.2190  136.2810 C   0  0  1  0  0  3  0  0  0  0  0  0
  188.6130  175.1990  136.3930 C   0  0  1  0  0  0  0  0  0  0  0  0
  190.4400  177.1270  139.1750 C   0  0  0  0  0  0  0  0  0  0  0  0
  187.6980  177.2280  136.8650 C   0  0  0  0  0  2  0  0  0  0  0  0
  188.7010  176.5770  136.1280 O   0  0  0  0  0  0  0  0  0  0  0  0
  191.0300  175.5900  137.2560 C   0  0  1  0  0  3  0  0  0  0  0  0
  187.9270  172.0910  136.4380 O   0  0  0  0  0  1  0  0  0  0  0  0
  189.6400  178.0250  138.2770 C   0  0  0  0  0  2  0  0  0  0  0  0
  188.6920  172.9070  135.6040 C   0  0  1  0  0  3  0  0  0  0  0  0
  188.1810  177.5850  138.2720 C   0  0  0  0  0  2  0  0  0  0  0  0
  191.0140  173.2160  135.2990 O   0  0  0  0  0  1  0  0  0  0  0  0
  194.2660  175.0000  135.2820 C   0  0  0  0  0  3  0  0  0  0  0  0
  194.9690  174.1990  136.1840 C   0  0  0  0  0  0  0  0  0  0  0  0
  192.9880  175.4710  135.5950 C   0  0  0  0  0  0  0  0  0  0  0  0
  194.3920  173.8650  137.4170 C   0  0  0  0  0  0  0  0  0  0  0  0
  196.2380  173.7430  135.8480 O   0  0  0  0  0  1  0  0  0  0  0  0
  192.4010  175.1340  136.8380 C   0  0  0  0  0  0  0  0  0  0  0  0
  193.1150  174.3330  137.7350 C   0  0  0  0  0  3  0  0  0  0  0  0
  195.1200  173.0140  138.3980 C   0  0  0  0  0  1  0  0  0  0  0  0
  192.2890  176.3280  134.5940 C   0  0  0  0  0  1  0  0  0  0  0  0
  190.5100  177.4410  140.6270 C   0  0  0  0  0  0  0  0  0  0  0  0
  191.6230  177.7780  141.1140 O   0  0  0  0  0  0  0  0  0  0  0  0
  185.8490  179.3690  141.9950 Cl  0  0  0  0  0  0  0  0  0  0  0  0
  189.2260  176.3670  142.5240 C   0  0  0  0  0  0  0  0  0  0  0  0
  187.1440  178.2100  142.1970 C   0  0  0  0  0  0  0  0  0  0  0  0
  190.2470  175.4440  142.7220 O   0  0  0  0  0  1  0  0  0  0  0  0
  188.0940  176.3060  143.3430 C   0  0  0  0  0  3  0  0  0  0  0  0
  188.2690  178.2730  141.3740 C   0  0  0  0  0  3  0  0  0  0  0  0
  189.3270  177.3630  141.5270 C   0  0  0  0  0  0  0  0  0  0  0  0
  187.0560  177.2260  143.1810 C   0  0  0  0  0  3  0  0  0  0  0  0
  1 10  1  0  0  0  0
  1  4  1  1  0  0  0
  2  7  2  0  0  0  0
  3 13  1  0  0  0  0
  5 15  1  6  0  0  0
  5  1  1  0  0  0  0
  6  3  1  6  0  0  0
  6  1  1  0  0  0  0
  6  4  1  0  0  0  0
  7 25  1  0  0  0  0
  8 14  1  0  0  0  0
  9  6  1  0  0  0  0
  9  8  1  0  0  0  0
 10 21  1  1  0  0  0
 10  2  1  0  0  0  0
 12  7  1  0  0  0  0
 13  5  1  0  0  0  0
 13 11  1  1  0  0  0
 14 12  1  0  0  0  0
 16 18  2  0  0  0  0
 16 17  1  0  0  0  0
 17 19  2  0  0  0  0
 18 21  1  0  0  0  0
 19 22  1  0  0  0  0
 19 23  1  0  0  0  0
 20 17  1  0  0  0  0
 21 22  2  0  0  0  0
 24 18  1  0  0  0  0
 25 26  2  0  0  0  0
 25 33  1  0  0  0  0
 27 29  1  0  0  0  0
 28 30  1  0  0  0  0
 28 31  1  0  0  0  0
 29 34  1  0  0  0  0
 32 33  1  0  0  0  0
 32 29  2  0  0  0  0
 33 28  2  0  0  0  0
 34 31  2  0  0  0  0
M  END
>  <MODEL>
1

>  <REMARK>
 VINA RESULT:      -7.6      0.000      0.000
  Name = 
  3 active torsions:
  status: ('A' for Active; 'I' for Inactive)
    1  A    between atoms: C_8  and  C_24
    2  A    between atoms: C_19  and  C_27
    3  A    between atoms: C_24  and  C_30
                            x       y       z     vdW  Elec       q    Type
                         _______ _______ _______ _____ _____    ______ ____

>  <TORSDO>
F 3

$$$$
=
 OpenBabel11032421283D

 34 38  0  0  1  0  0  0  0  0999 V2000
  181.3210  175.6680  138.6530 C   0  0  1  0  0  0  0  0  0  0  0  0
  183.3020  177.2920  138.5330 C   0  0  0  0  0  3  0  0  0  0  0  0
  178.9310  175.2700  138.9190 C   0  0  0  0  0  2  0  0  0  0  0  0
  180.9700  176.4220  139.7970 O   0  0  0  0  0  0  0  0  0  0  0  0
  181.1020  174.1570  138.7990 C   0  0  1  0  0  3  0  0  0  0  0  0
  180.0060  176.3270  138.7710 C   0  0  1  0  0  0  0  0  0  0  0  0
  183.1020  178.6080  138.6900 C   0  0  0  0  0  0  0  0  0  0  0  0
  179.5160  178.5470  138.6770 C   0  0  0  0  0  2  0  0  0  0  0  0
  179.8480  177.4220  137.9040 O   0  0  0  0  0  0  0  0  0  0  0  0
  182.4010  176.3580  137.7720 C   0  0  1  0  0  3  0  0  0  0  0  0
  179.6330  173.7760  140.6380 O   0  0  0  0  0  1  0  0  0  0  0  0
  181.8770  179.2740  138.1340 C   0  0  0  0  0  2  0  0  0  0  0  0
  179.6590  173.9760  139.2580 C   0  0  1  0  0  3  0  0  0  0  0  0
  180.7670  179.2710  139.1780 C   0  0  0  0  0  2  0  0  0  0  0  0
  181.2450  173.5150  137.5670 O   0  0  0  0  0  1  0  0  0  0  0  0
  183.7820  174.3710  134.7960 C   0  0  0  0  0  3  0  0  0  0  0  0
  184.7990  173.6480  135.4250 C   0  0  0  0  0  0  0  0  0  0  0  0
  182.9860  175.2600  135.5240 C   0  0  0  0  0  0  0  0  0  0  0  0
  185.0260  173.8160  136.7990 C   0  0  0  0  0  0  0  0  0  0  0  0
  185.5750  172.7700  134.6790 O   0  0  0  0  0  1  0  0  0  0  0  0
  183.2130  175.4300  136.9100 C   0  0  0  0  0  0  0  0  0  0  0  0
  184.2340  174.7030  137.5310 C   0  0  0  0  0  3  0  0  0  0  0  0
  186.1040  173.0590  137.4940 C   0  0  0  0  0  1  0  0  0  0  0  0
  181.9210  176.0080  134.7950 C   0  0  0  0  0  1  0  0  0  0  0  0
  184.0640  179.4200  139.4800 C   0  0  0  0  0  0  0  0  0  0  0  0
  184.5170  180.4800  138.9660 O   0  0  0  0  0  0  0  0  0  0  0  0
  182.8600  178.6410  144.5050 Cl  0  0  0  0  0  0  0  0  0  0  0  0
  185.8610  178.6480  141.0850 C   0  0  0  0  0  0  0  0  0  0  0  0
  184.0150  178.6380  143.1910 C   0  0  0  0  0  0  0  0  0  0  0  0
  186.8060  178.6530  140.0650 O   0  0  0  0  0  1  0  0  0  0  0  0
  186.2590  178.2690  142.3710 C   0  0  0  0  0  3  0  0  0  0  0  0
  183.6110  179.0130  141.9080 C   0  0  0  0  0  3  0  0  0  0  0  0
  184.5230  179.0320  140.8410 C   0  0  0  0  0  0  0  0  0  0  0  0
  185.3390  178.2650  143.4220 C   0  0  0  0  0  3  0  0  0  0  0  0
  1  6  1  0  0  0  0
  1  5  1  0  0  0  0
  1  4  1  1  0  0  0
  2  7  2  0  0  0  0
  3 13  1  0  0  0  0
  5 15  1  6  0  0  0
  5 13  1  0  0  0  0
  6  3  1  1  0  0  0
  6  4  1  0  0  0  0
  7 25  1  0  0  0  0
  8 14  1  0  0  0  0
  9  8  1  0  0  0  0
  9  6  1  0  0  0  0
 10 21  1  1  0  0  0
 10  2  1  0  0  0  0
 10  1  1  0  0  0  0
 12  7  1  0  0  0  0
 12 14  1  0  0  0  0
 13 11  1  1  0  0  0
 16 17  2  0  0  0  0
 16 18  1  0  0  0  0
 17 19  1  0  0  0  0
 18 21  2  0  0  0  0
 19 23  1  0  0  0  0
 19 22  2  0  0  0  0
 20 17  1  0  0  0  0
 21 22  1  0  0  0  0
 24 18  1  0  0  0  0
 25 33  1  0  0  0  0
 26 25  2  0  0  0  0
 28 31  1  0  0  0  0
 29 34  1  0  0  0  0
 29 27  1  0  0  0  0
 30 28  1  0  0  0  0
 31 34  2  0  0  0  0
 32 29  2  0  0  0  0
 33 28  2  0  0  0  0
 33 32  1  0  0  0  0
M  END
>  <MODEL>
2

>  <REMARK>
 VINA RESULT:      -7.4      5.849      8.187
  Name = 
  3 active torsions:
  status: ('A' for Active; 'I' for Inactive)
    1  A    between atoms: C_8  and  C_24
    2  A    between atoms: C_19  and  C_27
    3  A    between atoms: C_24  and  C_30
                            x       y       z     vdW  Elec       q    Type
                         _______ _______ _______ _____ _____    ______ ____

>  <TORSDO>
F 3

$$$$
=
 OpenBabel11032421283D

 34 38  0  0  1  0  0  0  0  0999 V2000
  181.2530  175.7990  138.7580 C   0  0  1  0  0  0  0  0  0  0  0  0
  182.9010  177.3920  139.9100 C   0  0  0  0  0  3  0  0  0  0  0  0
  178.9670  175.0510  138.3620 C   0  0  0  0  0  2  0  0  0  0  0  0
  180.6980  175.6820  140.0530 O   0  0  0  0  0  0  0  0  0  0  0  0
  181.3110  174.4820  137.9740 C   0  0  1  0  0  3  0  0  0  0  0  0
  179.8330  176.1040  139.0210 C   0  0  1  0  0  0  0  0  0  0  0  0
  182.4490  178.3250  140.7590 C   0  0  0  0  0  0  0  0  0  0  0  0
  178.9450  177.8750  140.1400 C   0  0  0  0  0  2  0  0  0  0  0  0
  179.5280  177.4740  138.9280 O   0  0  0  0  0  0  0  0  0  0  0  0
  182.2380  176.9940  138.6190 C   0  0  1  0  0  3  0  0  0  0  0  0
  179.8280  172.9210  138.9980 O   0  0  0  0  0  1  0  0  0  0  0  0
  181.1590  179.0460  140.4990 C   0  0  0  0  0  2  0  0  0  0  0  0
  179.9020  173.9020  138.0080 C   0  0  1  0  0  3  0  0  0  0  0  0
  180.0060  178.2980  141.1580 C   0  0  0  0  0  2  0  0  0  0  0  0
  181.6470  174.7160  136.6390 O   0  0  0  0  0  1  0  0  0  0  0  0
  184.0840  177.2160  135.2630 C   0  0  0  0  0  3  0  0  0  0  0  0
  185.2500  176.5110  135.5700 C   0  0  0  0  0  0  0  0  0  0  0  0
  183.0870  177.3950  136.2270 C   0  0  0  0  0  0  0  0  0  0  0  0
  185.4250  175.9780  136.8550 C   0  0  0  0  0  0  0  0  0  0  0  0
  186.2250  176.3470  134.5940 O   0  0  0  0  0  1  0  0  0  0  0  0
  183.2600  176.8570  137.5240 C   0  0  0  0  0  0  0  0  0  0  0  0
  184.4320  176.1530  137.8210 C   0  0  0  0  0  3  0  0  0  0  0  0
  186.6590  175.2230  137.2080 C   0  0  0  0  0  1  0  0  0  0  0  0
  181.8670  178.1630  135.8420 C   0  0  0  0  0  1  0  0  0  0  0  0
  183.1930  178.6160  142.0130 C   0  0  0  0  0  0  0  0  0  0  0  0
  182.5370  178.9800  143.0280 O   0  0  0  0  0  0  0  0  0  0  0  0
  187.3280  176.9760  144.7570 Cl  0  0  0  0  0  0  0  0  0  0  0  0
  185.5220  178.9950  141.1020 C   0  0  0  0  0  0  0  0  0  0  0  0
  186.6360  177.7480  143.3470 C   0  0  0  0  0  0  0  0  0  0  0  0
  185.0030  179.6300  139.9790 O   0  0  0  0  0  1  0  0  0  0  0  0
  186.9090  178.8600  141.2190 C   0  0  0  0  0  3  0  0  0  0  0  0
  185.2510  177.8760  143.2340 C   0  0  0  0  0  3  0  0  0  0  0  0
  184.6730  178.5050  142.1190 C   0  0  0  0  0  0  0  0  0  0  0  0
  187.4650  178.2390  142.3400 C   0  0  0  0  0  3  0  0  0  0  0  0
  1  6  1  0  0  0  0
  1  4  1  1  0  0  0
  2  7  2  0  0  0  0
  5 15  1  6  0  0  0
  5 13  1  0  0  0  0
  5  1  1  0  0  0  0
  6  3  1  6  0  0  0
  6  4  1  0  0  0  0
  7 25  1  0  0  0  0
  8 14  1  0  0  0  0
  9  6  1  0  0  0  0
  9  8  1  0  0  0  0
 10 21  1  6  0  0  0
 10  1  1  0  0  0  0
 10  2  1  0  0  0  0
 12  7  1  0  0  0  0
 12 14  1  0  0  0  0
 13  3  1  0  0  0  0
 13 11  1  1  0  0  0
 16 17  2  0  0  0  0
 16 18  1  0  0  0  0
 17 19  1  0  0  0  0
 18 21  2  0  0  0  0
 19 23  1  0  0  0  0
 19 22  2  0  0  0  0
 20 17  1  0  0  0  0
 21 22  1  0  0  0  0
 24 18  1  0  0  0  0
 25 33  1  0  0  0  0
 25 26  2  0  0  0  0
 28 31  2  0  0  0  0
 28 33  1  0  0  0  0
 29 27  1  0  0  0  0
 30 28  1  0  0  0  0
 31 34  1  0  0  0  0
 32 29  1  0  0  0  0
 33 32  2  0  0  0  0
 34 29  2  0  0  0  0
M  END
>  <MODEL>
3

>  <REMARK>
 VINA RESULT:      -7.0      5.787      8.325
  Name = 
  3 active torsions:
  status: ('A' for Active; 'I' for Inactive)
    1  A    between atoms: C_8  and  C_24
    2  A    between atoms: C_19  and  C_27
    3  A    between atoms: C_24  and  C_30
                            x       y       z     vdW  Elec       q    Type
                         _______ _______ _______ _____ _____    ______ ____

>  <TORSDO>
F 3

$$$$
=
 OpenBabel11032421283D

 34 38  0  0  1  0  0  0  0  0999 V2000
  189.4730  177.2500  138.2490 C   0  0  1  0  0  0  0  0  0  0  0  0
  191.8660  176.3690  138.5240 C   0  0  0  0  0  3  0  0  0  0  0  0
  187.3260  177.2040  137.0960 C   0  0  0  0  0  2  0  0  0  0  0  0
  189.8150  177.3080  136.8780 O   0  0  0  0  0  0  0  0  0  0  0  0
  188.6400  178.4400  138.7430 C   0  0  1  0  0  3  0  0  0  0  0  0
  188.6820  176.5420  137.2240 C   0  0  1  0  0  0  0  0  0  0  0  0
  192.3330  175.4250  137.6960 C   0  0  0  0  0  0  0  0  0  0  0  0
  189.2460  174.6950  136.0210 C   0  0  0  0  0  2  0  0  0  0  0  0
  188.8170  175.1430  137.2810 O   0  0  0  0  0  0  0  0  0  0  0  0
  190.4760  176.4170  139.0970 C   0  0  1  0  0  3  0  0  0  0  0  0
  187.6980  179.5460  136.8530 O   0  0  0  0  0  1  0  0  0  0  0  0
  191.4460  174.3150  137.2130 C   0  0  0  0  0  2  0  0  0  0  0  0
  187.4490  178.5500  137.7980 C   0  0  1  0  0  3  0  0  0  0  0  0
  190.7720  174.7220  135.9080 C   0  0  0  0  0  2  0  0  0  0  0  0
  188.1480  178.2000  140.0280 O   0  0  0  0  0  1  0  0  0  0  0  0
  191.5870  177.6850  142.5420 C   0  0  0  0  0  3  0  0  0  0  0  0
  190.4720  177.3420  143.3100 C   0  0  0  0  0  0  0  0  0  0  0  0
  191.6240  177.4040  141.1740 C   0  0  0  0  0  0  0  0  0  0  0  0
  189.3770  176.7090  142.7040 C   0  0  0  0  0  0  0  0  0  0  0  0
  190.4620  177.6320  144.6680 O   0  0  0  0  0  1  0  0  0  0  0  0
  190.5200  176.7640  140.5600 C   0  0  0  0  0  0  0  0  0  0  0  0
  189.4080  176.4250  141.3370 C   0  0  0  0  0  3  0  0  0  0  0  0
  188.1750  176.3330  143.4990 C   0  0  0  0  0  1  0  0  0  0  0  0
  192.8390  177.8010  140.4050 C   0  0  0  0  0  1  0  0  0  0  0  0
  193.7280  175.5010  137.1890 C   0  0  0  0  0  0  0  0  0  0  0  0
  194.1200  176.5840  136.6730 O   0  0  0  0  0  0  0  0  0  0  0  0
  195.6070  171.1770  134.9330 Cl  0  0  0  0  0  0  0  0  0  0  0  0
  195.5700  174.1980  138.3340 C   0  0  0  0  0  0  0  0  0  0  0  0
  195.5990  172.3400  136.2400 C   0  0  0  0  0  0  0  0  0  0  0  0
  195.5740  175.0960  139.3970 O   0  0  0  0  0  1  0  0  0  0  0  0
  196.4610  173.1210  138.3590 C   0  0  0  0  0  3  0  0  0  0  0  0
  194.7100  173.4160  136.2080 C   0  0  0  0  0  3  0  0  0  0  0  0
  194.6750  174.3540  137.2530 C   0  0  0  0  0  0  0  0  0  0  0  0
  196.4760  172.1930  137.3150 C   0  0  0  0  0  3  0  0  0  0  0  0
  1  4  1  6  0  0  0
  1  5  1  0  0  0  0
  1 10  1  0  0  0  0
  2 10  1  0  0  0  0
  3 13  1  0  0  0  0
  4  6  1  0  0  0  0
  5 15  1  1  0  0  0
  6  3  1  6  0  0  0
  6  9  1  0  0  0  0
  6  1  1  0  0  0  0
  7  2  2  0  0  0  0
  8  9  1  0  0  0  0
 10 21  1  1  0  0  0
 12  7  1  0  0  0  0
 13 11  1  6  0  0  0
 13  5  1  0  0  0  0
 14  8  1  0  0  0  0
 14 12  1  0  0  0  0
 16 17  1  0  0  0  0
 17 20  1  0  0  0  0
 18 16  2  0  0  0  0
 19 17  2  0  0  0  0
 19 23  1  0  0  0  0
 21 18  1  0  0  0  0
 21 22  2  0  0  0  0
 22 19  1  0  0  0  0
 24 18  1  0  0  0  0
 25 33  1  0  0  0  0
 25  7  1  0  0  0  0
 26 25  2  0  0  0  0
 27 29  1  0  0  0  0
 28 31  1  0  0  0  0
 28 30  1  0  0  0  0
 29 34  1  0  0  0  0
 32 29  2  0  0  0  0
 32 33  1  0  0  0  0
 33 28  2  0  0  0  0
 34 31  2  0  0  0  0
M  END
>  <MODEL>
4

>  <REMARK>
 VINA RESULT:      -6.8      3.079      7.147
  Name = 
  3 active torsions:
  status: ('A' for Active; 'I' for Inactive)
    1  A    between atoms: C_8  and  C_24
    2  A    between atoms: C_19  and  C_27
    3  A    between atoms: C_24  and  C_30
                            x       y       z     vdW  Elec       q    Type
                         _______ _______ _______ _____ _____    ______ ____

>  <TORSDO>
F 3

$$$$
=
 OpenBabel11032421283D

 34 38  0  0  1  0  0  0  0  0999 V2000
  184.7950  176.1160  137.2200 C   0  0  1  0  0  0  0  0  0  0  0  0
  186.0560  177.6520  138.8430 C   0  0  0  0  0  3  0  0  0  0  0  0
  182.7320  175.4810  136.0880 C   0  0  0  0  0  2  0  0  0  0  0  0
  183.8320  176.0680  138.2560 O   0  0  0  0  0  0  0  0  0  0  0  0
  185.0320  174.7750  136.5150 C   0  0  1  0  0  3  0  0  0  0  0  0
  183.3900  176.5050  136.9890 C   0  0  1  0  0  0  0  0  0  0  0  0
  185.4040  178.6330  139.4810 C   0  0  0  0  0  0  0  0  0  0  0  0
  182.2880  178.3530  137.7280 C   0  0  0  0  0  2  0  0  0  0  0  0
  183.2170  177.8850  136.7850 O   0  0  0  0  0  0  0  0  0  0  0  0
  185.8400  177.2520  137.4080 C   0  0  1  0  0  3  0  0  0  0  0  0
  183.2000  173.3280  136.9980 O   0  0  0  0  0  1  0  0  0  0  0  0
  184.3210  179.4140  138.7960 C   0  0  0  0  0  2  0  0  0  0  0  0
  183.6590  174.2730  136.0800 C   0  0  1  0  0  3  0  0  0  0  0  0
  182.9710  178.7490  139.0380 C   0  0  0  0  0  2  0  0  0  0  0  0
  185.8080  174.9510  135.3670 O   0  0  0  0  0  1  0  0  0  0  0  0
  188.6870  177.2160  134.8370 C   0  0  0  0  0  3  0  0  0  0  0  0
  189.6660  176.5250  135.5550 C   0  0  0  0  0  0  0  0  0  0  0  0
  187.4360  177.4730  135.4060 C   0  0  0  0  0  0  0  0  0  0  0  0
  189.3950  176.0840  136.8580 C   0  0  0  0  0  0  0  0  0  0  0  0
  190.9010  176.2820  134.9660 O   0  0  0  0  0  1  0  0  0  0  0  0
  187.1590  177.0280  136.7210 C   0  0  0  0  0  0  0  0  0  0  0  0
  188.1460  176.3370  137.4310 C   0  0  0  0  0  3  0  0  0  0  0  0
  190.4210  175.3450  137.6450 C   0  0  0  0  0  1  0  0  0  0  0  0
  186.4340  178.2220  134.5940 C   0  0  0  0  0  1  0  0  0  0  0  0
  185.7020  178.9200  140.9090 C   0  0  0  0  0  0  0  0  0  0  0  0
  184.9820  179.7610  141.5140 O   0  0  0  0  0  0  0  0  0  0  0  0
  190.6940  177.3740  140.9360 Cl  0  0  0  0  0  0  0  0  0  0  0  0
  186.6470  177.7990  142.9710 C   0  0  0  0  0  0  0  0  0  0  0  0
  189.1400  177.5410  141.7240 C   0  0  0  0  0  0  0  0  0  0  0  0
  185.4190  177.9000  143.6160 O   0  0  0  0  0  1  0  0  0  0  0  0
  187.7180  177.2070  143.6480 C   0  0  0  0  0  3  0  0  0  0  0  0
  188.0760  178.1360  141.0440 C   0  0  0  0  0  3  0  0  0  0  0  0
  186.8160  178.2680  141.6490 C   0  0  0  0  0  0  0  0  0  0  0  0
  188.9610  177.0770  143.0260 C   0  0  0  0  0  3  0  0  0  0  0  0
  1 10  1  0  0  0  0
  1  4  1  1  0  0  0
  2  7  2  0  0  0  0
  5 15  1  6  0  0  0
  5  1  1  0  0  0  0
  6  3  1  6  0  0  0
  6  1  1  0  0  0  0
  6  4  1  0  0  0  0
  7 25  1  0  0  0  0
  8 14  1  0  0  0  0
  9  6  1  0  0  0  0
  9  8  1  0  0  0  0
 10 21  1  1  0  0  0
 10  2  1  0  0  0  0
 12 14  1  0  0  0  0
 12  7  1  0  0  0  0
 13  3  1  0  0  0  0
 13  5  1  0  0  0  0
 13 11  1  1  0  0  0
 16 18  2  0  0  0  0
 16 17  1  0  0  0  0
 17 19  2  0  0  0  0
 18 21  1  0  0  0  0
 19 22  1  0  0  0  0
 19 23  1  0  0  0  0
 20 17  1  0  0  0  0
 21 22  2  0  0  0  0
 24 18  1  0  0  0  0
 25 26  2  0  0  0  0
 25 33  1  0  0  0  0
 27 29  1  0  0  0  0
 28 30  1  0  0  0  0
 28 31  1  0  0  0  0
 29 34  1  0  0  0  0
 32 33  1  0  0  0  0
 32 29  2  0  0  0  0
 33 28  2  0  0  0  0
 34 31  2  0  0  0  0
M  END
>  <MODEL>
5

>  <REMARK>
 VINA RESULT:      -6.7      3.512      5.101
  Name = 
  3 active torsions:
  status: ('A' for Active; 'I' for Inactive)
    1  A    between atoms: C_8  and  C_24
    2  A    between atoms: C_19  and  C_27
    3  A    between atoms: C_24  and  C_30
                            x       y       z     vdW  Elec       q    Type
                         _______ _______ _______ _____ _____    ______ ____

>  <TORSDO>
F 3

$$$$
=
 OpenBabel11032421283D

 34 38  0  0  1  0  0  0  0  0999 V2000
  181.0280  179.1660  139.0390 C   0  0  1  0  0  0  0  0  0  0  0  0
  182.7550  177.2730  139.1540 C   0  0  0  0  0  3  0  0  0  0  0  0
  178.9690  180.0920  138.1180 C   0  0  0  0  0  2  0  0  0  0  0  0
  181.1700  179.0040  137.6410 O   0  0  0  0  0  0  0  0  0  0  0  0
  180.9140  180.6250  139.4980 C   0  0  1  0  0  3  0  0  0  0  0  0
  179.8690  178.8750  138.1720 C   0  0  1  0  0  0  0  0  0  0  0  0
  182.6160  176.1900  138.3780 C   0  0  0  0  0  0  0  0  0  0  0  0
  179.3490  176.9360  137.1010 C   0  0  0  0  0  2  0  0  0  0  0  0
  179.3490  177.5800  138.3480 O   0  0  0  0  0  0  0  0  0  0  0  0
  181.6350  177.9910  139.8560 C   0  0  1  0  0  3  0  0  0  0  0  0
  180.3450  181.9720  137.6150 O   0  0  0  0  0  1  0  0  0  0  0  0
  181.2610  175.6110  138.0950 C   0  0  0  0  0  2  0  0  0  0  0  0
  179.7940  181.2470  138.6710 C   0  0  1  0  0  3  0  0  0  0  0  0
  180.6830  176.2380  136.8310 C   0  0  0  0  0  2  0  0  0  0  0  0
  180.5430  180.6930  140.8420 O   0  0  0  0  0  1  0  0  0  0  0  0
  181.5700  178.6660  143.6320 C   0  0  0  0  0  3  0  0  0  0  0  0
  182.9090  179.0020  143.8510 C   0  0  0  0  0  0  0  0  0  0  0  0
  181.1220  178.3300  142.3520 C   0  0  0  0  0  0  0  0  0  0  0  0
  183.8120  179.0030  142.7790 C   0  0  0  0  0  0  0  0  0  0  0  0
  183.3290  179.3330  145.1340 O   0  0  0  0  0  1  0  0  0  0  0  0
  182.0310  178.3310  141.2680 C   0  0  0  0  0  0  0  0  0  0  0  0
  183.3690  178.6690  141.4970 C   0  0  0  0  0  3  0  0  0  0  0  0
  185.2440  179.3570  142.9850 C   0  0  0  0  0  1  0  0  0  0  0  0
  179.6830  177.9730  142.1820 C   0  0  0  0  0  1  0  0  0  0  0  0
  183.8070  175.5820  137.7270 C   0  0  0  0  0  0  0  0  0  0  0  0
  184.0640  174.3690  137.9630 O   0  0  0  0  0  0  0  0  0  0  0  0
  188.0220  178.6270  137.2080 Cl  0  0  0  0  0  0  0  0  0  0  0  0
  184.5080  176.3560  135.4220 C   0  0  0  0  0  0  0  0  0  0  0  0
  186.6740  177.7500  136.5180 C   0  0  0  0  0  0  0  0  0  0  0  0
  183.4350  175.6850  134.8460 O   0  0  0  0  0  1  0  0  0  0  0  0
  185.3840  177.0650  134.5940 C   0  0  0  0  0  3  0  0  0  0  0  0
  185.8060  177.0420  137.3500 C   0  0  0  0  0  3  0  0  0  0  0  0
  184.7090  176.3420  136.8210 C   0  0  0  0  0  0  0  0  0  0  0  0
  186.4640  177.7610  135.1400 C   0  0  0  0  0  3  0  0  0  0  0  0
  1  4  1  6  0  0  0
  1  5  1  0  0  0  0
  1 10  1  0  0  0  0
  2 10  1  0  0  0  0
  3 13  1  0  0  0  0
  4  6  1  0  0  0  0
  5 15  1  1  0  0  0
  6  3  1  6  0  0  0
  6  9  1  0  0  0  0
  6  1  1  0  0  0  0
  7  2  2  0  0  0  0
  8  9  1  0  0  0  0
 10 21  1  1  0  0  0
 12  7  1  0  0  0  0
 13 11  1  6  0  0  0
 13  5  1  0  0  0  0
 14  8  1  0  0  0  0
 14 12  1  0  0  0  0
 16 17  1  0  0  0  0
 17 20  1  0  0  0  0
 18 16  2  0  0  0  0
 19 23  1  0  0  0  0
 19 17  2  0  0  0  0
 21 22  2  0  0  0  0
 21 18  1  0  0  0  0
 22 19  1  0  0  0  0
 24 18  1  0  0  0  0
 25 26  2  0  0  0  0
 25  7  1  0  0  0  0
 28 33  1  0  0  0  0
 29 27  1  0  0  0  0
 29 32  1  0  0  0  0
 30 28  1  0  0  0  0
 31 34  1  0  0  0  0
 31 28  2  0  0  0  0
 33 32  2  0  0  0  0
 33 25  1  0  0  0  0
 34 29  2  0  0  0  0
M  END
>  <MODEL>
6

>  <REMARK>
 VINA RESULT:      -6.7      6.345     10.770
  Name = 
  3 active torsions:
  status: ('A' for Active; 'I' for Inactive)
    1  A    between atoms: C_8  and  C_24
    2  A    between atoms: C_19  and  C_27
    3  A    between atoms: C_24  and  C_30
                            x       y       z     vdW  Elec       q    Type
                         _______ _______ _______ _____ _____    ______ ____

>  <TORSDO>
F 3

$$$$
=
 OpenBabel11032421283D

 34 38  0  0  1  0  0  0  0  0999 V2000
  181.2670  178.7140  139.9140 C   0  0  1  0  0  0  0  0  0  0  0  0
  183.2940  178.6620  138.3440 C   0  0  0  0  0  3  0  0  0  0  0  0
  180.3340  178.5760  142.1630 C   0  0  0  0  0  2  0  0  0  0  0  0
  181.8560  177.5500  140.4630 O   0  0  0  0  0  0  0  0  0  0  0  0
  179.7390  178.6520  139.7940 C   0  0  1  0  0  3  0  0  0  0  0  0
  181.6100  178.6220  141.3470 C   0  0  1  0  0  0  0  0  0  0  0  0
  184.5210  178.4500  138.8390 C   0  0  0  0  0  0  0  0  0  0  0  0
  183.6680  178.6290  142.3180 C   0  0  0  0  0  2  0  0  0  0  0  0
  182.6920  179.4400  141.7170 O   0  0  0  0  0  0  0  0  0  0  0  0
  182.2300  179.5080  138.9870 C   0  0  1  0  0  3  0  0  0  0  0  0
  178.9350  176.9030  141.2010 O   0  0  0  0  0  1  0  0  0  0  0  0
  184.9300  179.0270  140.1620 C   0  0  0  0  0  2  0  0  0  0  0  0
  179.2160  178.2690  141.1740 C   0  0  1  0  0  3  0  0  0  0  0  0
  184.6200  178.0360  141.2770 C   0  0  0  0  0  2  0  0  0  0  0  0
  179.2180  179.9060  139.4710 O   0  0  0  0  0  1  0  0  0  0  0  0
  180.3870  180.7500  135.8600 C   0  0  0  0  0  3  0  0  0  0  0  0
  180.3400  182.1220  136.1230 C   0  0  0  0  0  0  0  0  0  0  0  0
  180.9880  179.8730  136.7660 C   0  0  0  0  0  0  0  0  0  0  0  0
  180.9010  182.6250  137.3060 C   0  0  0  0  0  0  0  0  0  0  0  0
  179.7370  182.9730  135.2050 O   0  0  0  0  0  1  0  0  0  0  0  0
  181.5560  180.3780  137.9600 C   0  0  0  0  0  0  0  0  0  0  0  0
  181.5040  181.7520  138.2140 C   0  0  0  0  0  3  0  0  0  0  0  0
  180.8650  184.0820  137.6110 C   0  0  0  0  0  1  0  0  0  0  0  0
  181.0000  178.4180  136.4340 C   0  0  0  0  0  1  0  0  0  0  0  0
  185.4790  177.5770  138.1090 C   0  0  0  0  0  0  0  0  0  0  0  0
  185.0300  176.5570  137.5190 O   0  0  0  0  0  0  0  0  0  0  0  0
  190.0920  177.5030  140.5640 Cl  0  0  0  0  0  0  0  0  0  0  0  0
  187.5550  178.3460  136.8840 C   0  0  0  0  0  0  0  0  0  0  0  0
  189.1190  177.8230  139.1450 C   0  0  0  0  0  0  0  0  0  0  0  0
  186.8060  178.6280  135.7460 O   0  0  0  0  0  1  0  0  0  0  0  0
  188.9340  178.5760  136.8560 C   0  0  0  0  0  3  0  0  0  0  0  0
  187.7440  177.5880  139.1770 C   0  0  0  0  0  3  0  0  0  0  0  0
  186.9410  177.8510  138.0550 C   0  0  0  0  0  0  0  0  0  0  0  0
  189.7150  178.3160  137.9850 C   0  0  0  0  0  3  0  0  0  0  0  0
  1  4  1  6  0  0  0
  1  6  1  0  0  0  0
  2  7  2  0  0  0  0
  2 10  1  0  0  0  0
  4  6  1  0  0  0  0
  5 15  1  1  0  0  0
  5  1  1  0  0  0  0
  5 13  1  0  0  0  0
  6  9  1  0  0  0  0
  6  3  1  1  0  0  0
  7 12  1  0  0  0  0
  9  8  1  0  0  0  0
 10 21  1  6  0  0  0
 10  1  1  0  0  0  0
 12 14  1  0  0  0  0
 13 11  1  6  0  0  0
 13  3  1  0  0  0  0
 14  8  1  0  0  0  0
 16 17  2  0  0  0  0
 16 18  1  0  0  0  0
 17 19  1  0  0  0  0
 18 21  2  0  0  0  0
 19 23  1  0  0  0  0
 19 22  2  0  0  0  0
 20 17  1  0  0  0  0
 21 22  1  0  0  0  0
 24 18  1  0  0  0  0
 25  7  1  0  0  0  0
 26 25  2  0  0  0  0
 28 33  1  0  0  0  0
 29 32  1  0  0  0  0
 29 27  1  0  0  0  0
 30 28  1  0  0  0  0
 31 28  2  0  0  0  0
 31 34  1  0  0  0  0
 33 25  1  0  0  0  0
 33 32  2  0  0  0  0
 34 29  2  0  0  0  0
M  END
>  <MODEL>
7

>  <REMARK>
 VINA RESULT:      -6.6      6.449     10.561
  Name = 
  3 active torsions:
  status: ('A' for Active; 'I' for Inactive)
    1  A    between atoms: C_8  and  C_24
    2  A    between atoms: C_19  and  C_27
    3  A    between atoms: C_24  and  C_30
                            x       y       z     vdW  Elec       q    Type
                         _______ _______ _______ _____ _____    ______ ____

>  <TORSDO>
F 3

$$$$
=
 OpenBabel11032421283D

 34 38  0  0  1  0  0  0  0  0999 V2000
  181.4730  178.2490  139.8420 C   0  0  1  0  0  0  0  0  0  0  0  0
  183.7220  178.7830  138.7310 C   0  0  0  0  0  3  0  0  0  0  0  0
  180.1750  177.7330  141.8390 C   0  0  0  0  0  2  0  0  0  0  0  0
  182.2040  177.2150  140.4720 O   0  0  0  0  0  0  0  0  0  0  0  0
  180.0600  177.8470  139.4020 C   0  0  1  0  0  3  0  0  0  0  0  0
  181.5380  178.1320  141.3110 C   0  0  1  0  0  0  0  0  0  0  0  0
  184.8420  178.8220  139.4670 C   0  0  0  0  0  0  0  0  0  0  0  0
  183.2990  178.5390  142.6920 C   0  0  0  0  0  2  0  0  0  0  0  0
  182.2960  179.1470  141.9210 O   0  0  0  0  0  0  0  0  0  0  0  0
  182.3800  179.3120  139.1580 C   0  0  1  0  0  3  0  0  0  0  0  0
  179.4380  175.8600  140.5630 O   0  0  0  0  0  1  0  0  0  0  0  0
  184.8300  179.3770  140.8610 C   0  0  0  0  0  2  0  0  0  0  0  0
  179.3820  177.2520  140.6310 C   0  0  1  0  0  3  0  0  0  0  0  0
  184.5530  178.2610  141.8610 C   0  0  0  0  0  2  0  0  0  0  0  0
  179.3270  178.9690  139.0080 O   0  0  0  0  0  1  0  0  0  0  0  0
  180.8830  180.3030  135.7680 C   0  0  0  0  0  3  0  0  0  0  0  0
  180.5320  181.6300  136.0260 C   0  0  0  0  0  0  0  0  0  0  0  0
  181.4810  179.5200  136.7590 C   0  0  0  0  0  0  0  0  0  0  0  0
  180.7810  182.1850  137.2890 C   0  0  0  0  0  0  0  0  0  0  0  0
  179.9400  182.3870  135.0230 O   0  0  0  0  0  1  0  0  0  0  0  0
  181.7340  180.0770  138.0350 C   0  0  0  0  0  0  0  0  0  0  0  0
  181.3790  181.4070  138.2830 C   0  0  0  0  0  3  0  0  0  0  0  0
  180.4170  183.5970  137.5910 C   0  0  0  0  0  1  0  0  0  0  0  0
  181.8260  178.1070  136.4270 C   0  0  0  0  0  1  0  0  0  0  0  0
  186.1060  178.2510  138.9320 C   0  0  0  0  0  0  0  0  0  0  0  0
  187.1210  178.2380  139.6810 O   0  0  0  0  0  0  0  0  0  0  0  0
  184.8670  174.4760  135.5370 Cl  0  0  0  0  0  0  0  0  0  0  0  0
  186.9580  178.3860  136.5540 C   0  0  0  0  0  0  0  0  0  0  0  0
  185.6680  175.9830  135.9240 C   0  0  0  0  0  0  0  0  0  0  0  0
  187.6210  179.5760  136.8360 O   0  0  0  0  0  1  0  0  0  0  0  0
  187.0380  177.8600  135.2610 C   0  0  0  0  0  3  0  0  0  0  0  0
  185.5800  176.5060  137.2150 C   0  0  0  0  0  3  0  0  0  0  0  0
  186.2270  177.7060  137.5530 C   0  0  0  0  0  0  0  0  0  0  0  0
  186.3950  176.6610  134.9460 C   0  0  0  0  0  3  0  0  0  0  0  0
  1  4  1  6  0  0  0
  1  6  1  0  0  0  0
  2 10  1  0  0  0  0
  2  7  2  0  0  0  0
  4  6  1  0  0  0  0
  5 15  1  1  0  0  0
  5  1  1  0  0  0  0
  5 13  1  0  0  0  0
  6  3  1  1  0  0  0
  6  9  1  0  0  0  0
  7 12  1  0  0  0  0
  9  8  1  0  0  0  0
 10 21  1  6  0  0  0
 10  1  1  0  0  0  0
 12 14  1  0  0  0  0
 13 11  1  6  0  0  0
 13  3  1  0  0  0  0
 14  8  1  0  0  0  0
 16 17  2  0  0  0  0
 16 18  1  0  0  0  0
 17 19  1  0  0  0  0
 18 21  2  0  0  0  0
 19 23  1  0  0  0  0
 19 22  2  0  0  0  0
 20 17  1  0  0  0  0
 21 22  1  0  0  0  0
 24 18  1  0  0  0  0
 25  7  1  0  0  0  0
 25 26  2  0  0  0  0
 27 29  1  0  0  0  0
 28 30  1  0  0  0  0
 28 33  1  0  0  0  0
 29 32  1  0  0  0  0
 31 28  2  0  0  0  0
 32 33  2  0  0  0  0
 33 25  1  0  0  0  0
 34 31  1  0  0  0  0
 34 29  2  0  0  0  0
M  END
>  <MODEL>
8

>  <REMARK>
 VINA RESULT:      -6.5      6.386     10.457
  Name = 
  3 active torsions:
  status: ('A' for Active; 'I' for Inactive)
    1  A    between atoms: C_8  and  C_24
    2  A    between atoms: C_19  and  C_27
    3  A    between atoms: C_24  and  C_30
                            x       y       z     vdW  Elec       q    Type
                         _______ _______ _______ _____ _____    ______ ____

>  <TORSDO>
F 3

$$$$
=
 OpenBabel11032421283D

 34 38  0  0  1  0  0  0  0  0999 V2000
  189.2060  177.1990  138.0840 C   0  0  1  0  0  0  0  0  0  0  0  0
  191.3790  175.8380  138.0310 C   0  0  0  0  0  3  0  0  0  0  0  0
  186.9210  177.5570  137.3150 C   0  0  0  0  0  2  0  0  0  0  0  0
  189.2970  177.1110  136.6750 O   0  0  0  0  0  0  0  0  0  0  0  0
  188.7360  178.5640  138.6040 C   0  0  1  0  0  3  0  0  0  0  0  0
  188.1140  176.6260  137.2730 C   0  0  1  0  0  0  0  0  0  0  0  0
  191.4850  174.7740  137.2230 C   0  0  0  0  0  0  0  0  0  0  0  0
  188.0620  174.6420  136.1600 C   0  0  0  0  0  2  0  0  0  0  0  0
  187.9710  175.2360  137.4290 O   0  0  0  0  0  0  0  0  0  0  0  0
  190.1560  176.2130  138.8220 C   0  0  1  0  0  3  0  0  0  0  0  0
  187.7100  179.7490  136.8080 O   0  0  0  0  0  1  0  0  0  0  0  0
  190.3180  173.8590  136.9950 C   0  0  0  0  0  2  0  0  0  0  0  0
  187.4400  178.8790  137.8650 C   0  0  1  0  0  3  0  0  0  0  0  0
  189.5150  174.3340  135.7900 C   0  0  0  0  0  2  0  0  0  0  0  0
  188.4480  178.5000  139.9690 O   0  0  0  0  0  1  0  0  0  0  0  0
  192.0560  177.5510  141.8740 C   0  0  0  0  0  3  0  0  0  0  0  0
  191.1180  177.3080  142.8810 C   0  0  0  0  0  0  0  0  0  0  0  0
  191.7780  177.2120  140.5470 C   0  0  0  0  0  0  0  0  0  0  0  0
  189.8870  176.7190  142.5600 C   0  0  0  0  0  0  0  0  0  0  0  0
  191.4200  177.6530  144.1930 O   0  0  0  0  0  1  0  0  0  0  0  0
  190.5360  176.6170  140.2200 C   0  0  0  0  0  0  0  0  0  0  0  0
  189.6040  176.3780  141.2360 C   0  0  0  0  0  3  0  0  0  0  0  0
  188.8700  176.4500  143.6140 C   0  0  0  0  0  1  0  0  0  0  0  0
  192.8150  177.5030  139.5150 C   0  0  0  0  0  1  0  0  0  0  0  0
  192.7510  174.5220  136.4840 C   0  0  0  0  0  0  0  0  0  0  0  0
  192.8150  174.8660  135.2720 O   0  0  0  0  0  0  0  0  0  0  0  0
  196.7390  174.8770  139.8420 Cl  0  0  0  0  0  0  0  0  0  0  0  0
  194.3040  172.5480  136.7870 C   0  0  0  0  0  0  0  0  0  0  0  0
  195.8010  173.9770  138.6720 C   0  0  0  0  0  0  0  0  0  0  0  0
  193.5890  171.8130  135.8460 O   0  0  0  0  0  1  0  0  0  0  0  0
  195.4110  171.9570  137.4040 C   0  0  0  0  0  3  0  0  0  0  0  0
  194.6940  174.5700  138.0620 C   0  0  0  0  0  3  0  0  0  0  0  0
  193.9350  173.8730  137.1080 C   0  0  0  0  0  0  0  0  0  0  0  0
  196.1590  172.6690  138.3430 C   0  0  0  0  0  3  0  0  0  0  0  0
  1  4  1  6  0  0  0
  1  5  1  0  0  0  0
  1 10  1  0  0  0  0
  2 10  1  0  0  0  0
  3 13  1  0  0  0  0
  4  6  1  0  0  0  0
  5 15  1  1  0  0  0
  6  3  1  6  0  0  0
  6  9  1  0  0  0  0
  6  1  1  0  0  0  0
  7  2  2  0  0  0  0
  8  9  1  0  0  0  0
 10 21  1  1  0  0  0
 12  7  1  0  0  0  0
 13 11  1  6  0  0  0
 13  5  1  0  0  0  0
 14  8  1  0  0  0  0
 14 12  1  0  0  0  0
 16 17  1  0  0  0  0
 17 20  1  0  0  0  0
 18 16  2  0  0  0  0
 19 17  2  0  0  0  0
 19 23  1  0  0  0  0
 21 18  1  0  0  0  0
 21 22  2  0  0  0  0
 22 19  1  0  0  0  0
 24 18  1  0  0  0  0
 25 33  1  0  0  0  0
 25  7  1  0  0  0  0
 26 25  2  0  0  0  0
 28 33  2  0  0  0  0
 28 31  1  0  0  0  0
 29 27  1  0  0  0  0
 30 28  1  0  0  0  0
 31 34  2  0  0  0  0
 32 29  2  0  0  0  0
 33 32  1  0  0  0  0
 34 29  1  0  0  0  0
M  END
>  <MODEL>
9

>  <REMARK>
 VINA RESULT:      -6.3      2.662      6.816
  Name = 
  3 active torsions:
  status: ('A' for Active; 'I' for Inactive)
    1  A    between atoms: C_8  and  C_24
    2  A    between atoms: C_19  and  C_27
    3  A    between atoms: C_24  and  C_30
                            x       y       z     vdW  Elec       q    Type
                         _______ _______ _______ _____ _____    ______ ____

>  <TORSDO>
F 3

$$$$
