=
 OpenBabel11032419183D

 25 28  0  0  1  0  0  0  0  0999 V2000
  186.2840  178.6360  141.1060 C   0  0  0  0  0  0  0  0  0  0  0  0
  187.7220  177.9270  142.9350 C   0  0  0  0  0  0  0  0  0  0  0  0
  187.3160  178.4710  140.2370 N   0  0  0  0  0  0  0  0  0  0  0  0
  190.0410  177.3530  142.3920 O   0  0  0  0  0  0  0  0  0  0  0  0
  189.6060  177.8290  139.6010 C   0  0  2  0  0  3  0  0  0  0  0  0
  188.7760  177.7870  142.0030 C   0  0  0  0  0  0  0  0  0  0  0  0
  188.5450  178.0590  140.6450 C   0  0  0  0  0  0  0  0  0  0  0  0
  186.4740  178.3590  142.4610 C   0  0  0  0  0  3  0  0  0  0  0  0
  190.1280  176.3970  139.6990 C   0  0  2  0  0  3  0  0  0  0  0  0
  191.2080  177.6600  141.6360 C   0  0  0  0  0  2  0  0  0  0  0  0
  191.0210  177.5550  140.1130 C   0  0  2  0  0  3  0  0  0  0  0  0
  186.9040  177.3940  146.5650 N   0  0  0  0  0  0  0  0  0  0  0  0
  187.8770  177.6470  144.3930 C   0  0  0  0  0  0  0  0  0  0  0  0
  189.2250  177.1470  146.3380 C   0  0  0  0  0  0  0  0  0  0  0  0
  188.1020  177.1500  147.0990 N   0  0  0  0  0  0  0  0  0  0  0  0
  189.1270  177.3930  144.9700 C   0  0  0  0  0  3  0  0  0  0  0  0
  186.7580  177.6450  145.2370 C   0  0  0  0  0  3  0  0  0  0  0  0
  191.5800  176.5980  145.8740 C   0  0  0  0  0  1  0  0  0  0  0  0
  190.5470  176.8530  146.9540 C   0  0  0  0  0  2  0  0  0  0  0  0
  191.1130  174.8000  138.2210 O   0  0  0  0  0  0  0  0  0  0  0  0
  190.1760  176.6520  137.1830 N   0  0  0  0  0  1  0  0  0  0  0  0
  190.5200  175.9030  138.3440 C   0  0  0  0  0  0  0  0  0  0  0  0
  184.8940  179.7260  139.5290 O   0  0  0  0  0  0  0  0  0  0  0  0
  183.7870  178.8160  141.3510 N   0  0  0  0  0  1  0  0  0  0  0  0
  184.9740  179.0890  140.6130 C   0  0  0  0  0  0  0  0  0  0  0  0
  1  8  1  0  0  0  0
  2 13  1  0  0  0  0
  3  7  1  0  0  0  0
  3  1  2  0  0  0  0
  5  9  1  0  0  0  0
  5 11  1  0  0  0  0
  5  7  1  1  0  0  0
  6  4  1  0  0  0  0
  6  2  1  0  0  0  0
  7  6  2  0  0  0  0
  8  2  2  0  0  0  0
  9 22  1  6  0  0  0
  9 11  1  0  0  0  0
 10  4  1  0  0  0  0
 11 10  1  1  0  0  0
 12 15  1  0  0  0  0
 13 16  2  0  0  0  0
 13 17  1  0  0  0  0
 14 19  1  0  0  0  0
 14 15  2  0  0  0  0
 16 14  1  0  0  0  0
 17 12  2  0  0  0  0
 18 19  1  0  0  0  0
 20 22  2  0  0  0  0
 21 22  1  0  0  0  0
 23 25  2  0  0  0  0
 25  1  1  0  0  0  0
 25 24  1  0  0  0  0
M  END
>  <MODEL>
1

>  <REMARK>
 VINA RESULT:      -8.8      0.000      0.000
  Name = 
  4 active torsions:
  status: ('A' for Active; 'I' for Inactive)
    1  A    between atoms: C_2  and  C_6
    2  A    between atoms: C_3  and  C_11
    3  A    between atoms: C_4  and  C_20
    4  A    between atoms: C_18  and  C_23
                            x       y       z     vdW  Elec       q    Type
                         _______ _______ _______ _____ _____    ______ ____

>  <TORSDO>
F 4

$$$$
=
 OpenBabel11032419183D

 25 28  0  0  1  0  0  0  0  0999 V2000
  187.1520  178.3040  141.8390 C   0  0  0  0  0  0  0  0  0  0  0  0
  189.0880  177.6580  143.1630 C   0  0  0  0  0  0  0  0  0  0  0  0
  187.8920  178.1800  140.7060 N   0  0  0  0  0  0  0  0  0  0  0  0
  191.1690  177.1790  141.9630 O   0  0  0  0  0  0  0  0  0  0  0  0
  189.9220  177.6320  139.4250 C   0  0  2  0  0  3  0  0  0  0  0  0
  189.8300  177.5600  141.9630 C   0  0  0  0  0  0  0  0  0  0  0  0
  189.2020  177.8190  140.7340 C   0  0  0  0  0  0  0  0  0  0  0  0
  187.7390  178.0370  143.0780 C   0  0  0  0  0  3  0  0  0  0  0  0
  190.5060  176.2230  139.3510 C   0  0  2  0  0  3  0  0  0  0  0  0
  192.0520  177.5320  140.9030 C   0  0  0  0  0  2  0  0  0  0  0  0
  191.4340  177.4170  139.4990 C   0  0  2  0  0  3  0  0  0  0  0  0
  191.4940  176.6160  145.8570 N   0  0  0  0  0  0  0  0  0  0  0  0
  189.6720  177.3870  144.5100 C   0  0  0  0  0  0  0  0  0  0  0  0
  189.5380  177.3490  146.9250 C   0  0  0  0  0  0  0  0  0  0  0  0
  190.8010  176.8540  146.9720 N   0  0  0  0  0  0  0  0  0  0  0  0
  188.9570  177.6270  145.6890 C   0  0  0  0  0  3  0  0  0  0  0  0
  190.9670  176.8650  144.6290 C   0  0  0  0  0  3  0  0  0  0  0  0
  187.4350  178.2170  147.8650 C   0  0  0  0  0  1  0  0  0  0  0  0
  188.7930  177.6240  148.1840 C   0  0  0  0  0  2  0  0  0  0  0  0
  190.5380  176.5720  136.9880 O   0  0  0  0  0  0  0  0  0  0  0  0
  190.5240  174.3480  137.6540 N   0  0  0  0  0  1  0  0  0  0  0  0
  190.5060  175.7430  137.9360 C   0  0  0  0  0  0  0  0  0  0  0  0
  184.9390  178.3920  142.6750 O   0  0  0  0  0  0  0  0  0  0  0  0
  185.2610  179.4400  140.6330 N   0  0  0  0  0  1  0  0  0  0  0  0
  185.7390  178.7020  141.7530 C   0  0  0  0  0  0  0  0  0  0  0  0
  1  8  1  0  0  0  0
  2 13  1  0  0  0  0
  3  7  1  0  0  0  0
  3  1  2  0  0  0  0
  5 11  1  0  0  0  0
  5  7  1  1  0  0  0
  6  4  1  0  0  0  0
  6  2  1  0  0  0  0
  7  6  2  0  0  0  0
  8  2  2  0  0  0  0
  9 22  1  6  0  0  0
  9  5  1  0  0  0  0
  9 11  1  0  0  0  0
 10  4  1  0  0  0  0
 11 10  1  1  0  0  0
 12 15  1  0  0  0  0
 13 17  1  0  0  0  0
 13 16  2  0  0  0  0
 14 15  2  0  0  0  0
 14 19  1  0  0  0  0
 16 14  1  0  0  0  0
 17 12  2  0  0  0  0
 18 19  1  0  0  0  0
 20 22  2  0  0  0  0
 21 22  1  0  0  0  0
 24 25  1  0  0  0  0
 25  1  1  0  0  0  0
 25 23  2  0  0  0  0
M  END
>  <MODEL>
2

>  <REMARK>
 VINA RESULT:      -8.6      1.668      2.198
  Name = 
  4 active torsions:
  status: ('A' for Active; 'I' for Inactive)
    1  A    between atoms: C_2  and  C_6
    2  A    between atoms: C_3  and  C_11
    3  A    between atoms: C_4  and  C_20
    4  A    between atoms: C_18  and  C_23
                            x       y       z     vdW  Elec       q    Type
                         _______ _______ _______ _____ _____    ______ ____

>  <TORSDO>
F 4

$$$$
=
 OpenBabel11032419183D

 25 28  0  0  1  0  0  0  0  0999 V2000
  189.1410  177.6230  142.7060 C   0  0  0  0  0  0  0  0  0  0  0  0
  187.6260  177.9680  144.5770 C   0  0  0  0  0  0  0  0  0  0  0  0
  190.1770  177.4890  143.5750 N   0  0  0  0  0  0  0  0  0  0  0  0
  188.5870  177.9300  146.8300 O   0  0  0  0  0  0  0  0  0  0  0  0
  191.2000  177.3530  145.8100 C   0  0  2  0  0  3  0  0  0  0  0  0
  188.7330  177.8430  145.4490 C   0  0  0  0  0  0  0  0  0  0  0  0
  190.0100  177.5920  144.9200 C   0  0  0  0  0  0  0  0  0  0  0  0
  187.8550  177.8570  143.1970 C   0  0  0  0  0  3  0  0  0  0  0  0
  190.8890  176.2340  146.8030 C   0  0  2  0  0  3  0  0  0  0  0  0
  189.6700  178.2980  147.6800 C   0  0  0  0  0  2  0  0  0  0  0  0
  191.0180  177.6660  147.2960 C   0  0  2  0  0  3  0  0  0  0  0  0
  184.6670  178.4060  146.8540 N   0  0  0  0  0  0  0  0  0  0  0  0
  186.2350  178.2220  145.0540 C   0  0  0  0  0  0  0  0  0  0  0  0
  183.9010  178.7150  144.6580 C   0  0  0  0  0  0  0  0  0  0  0  0
  183.6790  178.6700  145.9970 N   0  0  0  0  0  0  0  0  0  0  0  0
  185.1860  178.4950  144.1680 C   0  0  0  0  0  3  0  0  0  0  0  0
  185.9360  178.1790  146.4230 C   0  0  0  0  0  3  0  0  0  0  0  0
  183.1840  178.6870  142.3030 C   0  0  0  0  0  1  0  0  0  0  0  0
  182.7850  179.0300  143.7240 C   0  0  0  0  0  2  0  0  0  0  0  0
  192.5480  174.5860  146.3180 O   0  0  0  0  0  0  0  0  0  0  0  0
  192.8830  175.7680  148.2870 N   0  0  0  0  0  1  0  0  0  0  0  0
  192.1330  175.4680  147.1150 C   0  0  0  0  0  0  0  0  0  0  0  0
  188.6380  178.1250  140.4470 O   0  0  0  0  0  0  0  0  0  0  0  0
  190.4400  176.7010  140.7600 N   0  0  0  0  0  1  0  0  0  0  0  0
  189.3780  177.5070  141.2590 C   0  0  0  0  0  0  0  0  0  0  0  0
  1  8  2  0  0  0  0
  1  3  1  0  0  0  0
  2 13  1  0  0  0  0
  2  6  2  0  0  0  0
  3  7  2  0  0  0  0
  4 10  1  0  0  0  0
  5  7  1  6  0  0  0
  5  9  1  0  0  0  0
  5 11  1  0  0  0  0
  6  4  1  0  0  0  0
  7  6  1  0  0  0  0
  8  2  1  0  0  0  0
  9 22  1  1  0  0  0
  9 11  1  0  0  0  0
 11 10  1  6  0  0  0
 13 17  2  0  0  0  0
 14 15  1  0  0  0  0
 15 12  2  0  0  0  0
 16 14  2  0  0  0  0
 16 13  1  0  0  0  0
 17 12  1  0  0  0  0
 18 19  1  0  0  0  0
 19 14  1  0  0  0  0
 20 22  2  0  0  0  0
 22 21  1  0  0  0  0
 23 25  2  0  0  0  0
 24 25  1  0  0  0  0
 25  1  1  0  0  0  0
M  END
>  <MODEL>
3

>  <REMARK>
 VINA RESULT:      -8.3      2.698      5.974
  Name = 
  4 active torsions:
  status: ('A' for Active; 'I' for Inactive)
    1  A    between atoms: C_2  and  C_6
    2  A    between atoms: C_3  and  C_11
    3  A    between atoms: C_4  and  C_20
    4  A    between atoms: C_18  and  C_23
                            x       y       z     vdW  Elec       q    Type
                         _______ _______ _______ _____ _____    ______ ____

>  <TORSDO>
F 4

$$$$
=
 OpenBabel11032419183D

 25 28  0  0  1  0  0  0  0  0999 V2000
  185.7720  178.3670  144.8570 C   0  0  0  0  0  0  0  0  0  0  0  0
  186.2820  178.2830  142.4810 C   0  0  0  0  0  0  0  0  0  0  0  0
  186.9890  177.8280  145.1330 N   0  0  0  0  0  0  0  0  0  0  0  0
  188.4570  177.3680  141.8230 O   0  0  0  0  0  0  0  0  0  0  0  0
  189.2250  176.9760  144.5550 C   0  0  2  0  0  3  0  0  0  0  0  0
  187.5320  177.7060  142.8070 C   0  0  0  0  0  0  0  0  0  0  0  0
  187.8700  177.4950  144.1530 C   0  0  0  0  0  0  0  0  0  0  0  0
  185.4090  178.6060  143.5300 C   0  0  0  0  0  3  0  0  0  0  0  0
  190.3170  177.8490  143.9410 C   0  0  2  0  0  3  0  0  0  0  0  0
  189.4580  176.3780  142.0410 C   0  0  0  0  0  2  0  0  0  0  0  0
  190.1110  176.4320  143.4330 C   0  0  2  0  0  3  0  0  0  0  0  0
  186.3430  178.6280  138.7370 N   0  0  0  0  0  0  0  0  0  0  0  0
  185.8480  178.5550  141.0780 C   0  0  0  0  0  0  0  0  0  0  0  0
  184.1990  179.2530  139.4540 C   0  0  0  0  0  0  0  0  0  0  0  0
  185.1070  179.0510  138.4660 N   0  0  0  0  0  0  0  0  0  0  0  0
  184.5570  179.0030  140.7760 C   0  0  0  0  0  3  0  0  0  0  0  0
  186.7410  178.3760  140.0130 C   0  0  0  0  0  3  0  0  0  0  0  0
  181.8260  179.1000  140.0910 C   0  0  0  0  0  1  0  0  0  0  0  0
  182.8210  179.7080  139.1220 C   0  0  0  0  0  2  0  0  0  0  0  0
  192.3600  178.8120  144.7180 O   0  0  0  0  0  0  0  0  0  0  0  0
  191.6340  176.9560  145.9070 N   0  0  0  0  0  1  0  0  0  0  0  0
  191.5010  177.9020  144.8510 C   0  0  0  0  0  0  0  0  0  0  0  0
  183.6550  179.0030  145.7060 O   0  0  0  0  0  0  0  0  0  0  0  0
  185.3060  178.7030  147.3060 N   0  0  0  0  0  1  0  0  0  0  0  0
  184.8540  178.7060  145.9550 C   0  0  0  0  0  0  0  0  0  0  0  0
  1  3  1  0  0  0  0
  1 25  1  0  0  0  0
  2  6  2  0  0  0  0
  2  8  1  0  0  0  0
  4 10  1  0  0  0  0
  4  6  1  0  0  0  0
  5  7  1  6  0  0  0
  6  7  1  0  0  0  0
  7  3  2  0  0  0  0
  8  1  2  0  0  0  0
  9  5  1  0  0  0  0
  9 22  1  1  0  0  0
 11 10  1  6  0  0  0
 11  9  1  0  0  0  0
 11  5  1  0  0  0  0
 12 17  1  0  0  0  0
 13  2  1  0  0  0  0
 14 16  2  0  0  0  0
 15 12  2  0  0  0  0
 15 14  1  0  0  0  0
 16 13  1  0  0  0  0
 17 13  2  0  0  0  0
 19 14  1  0  0  0  0
 19 18  1  0  0  0  0
 20 22  2  0  0  0  0
 22 21  1  0  0  0  0
 23 25  2  0  0  0  0
 25 24  1  0  0  0  0
M  END
>  <MODEL>
4

>  <REMARK>
 VINA RESULT:      -8.1      2.510      6.305
  Name = 
  4 active torsions:
  status: ('A' for Active; 'I' for Inactive)
    1  A    between atoms: C_2  and  C_6
    2  A    between atoms: C_3  and  C_11
    3  A    between atoms: C_4  and  C_20
    4  A    between atoms: C_18  and  C_23
                            x       y       z     vdW  Elec       q    Type
                         _______ _______ _______ _____ _____    ______ ____

>  <TORSDO>
F 4

$$$$
=
 OpenBabel11032419183D

 25 28  0  0  1  0  0  0  0  0999 V2000
  186.7390  178.5030  140.4850 C   0  0  0  0  0  0  0  0  0  0  0  0
  185.2780  178.5820  142.4270 C   0  0  0  0  0  0  0  0  0  0  0  0
  185.6540  178.5750  139.6700 N   0  0  0  0  0  0  0  0  0  0  0  0
  182.8660  178.7170  142.0210 O   0  0  0  0  0  0  0  0  0  0  0  0
  183.2510  178.7970  139.1840 C   0  0  2  0  0  3  0  0  0  0  0  0
  184.1720  178.6360  141.5460 C   0  0  0  0  0  0  0  0  0  0  0  0
  184.3880  178.6400  140.1590 C   0  0  0  0  0  0  0  0  0  0  0  0
  186.5640  178.5120  141.8700 C   0  0  0  0  0  3  0  0  0  0  0  0
  182.4430  180.0470  139.5260 C   0  0  2  0  0  3  0  0  0  0  0  0
  181.7540  178.2870  141.2410 C   0  0  0  0  0  2  0  0  0  0  0  0
  181.8370  178.6720  139.7540 C   0  0  2  0  0  3  0  0  0  0  0  0
  183.8220  179.0010  145.8670 N   0  0  0  0  0  0  0  0  0  0  0  0
  185.1400  178.5850  143.9140 C   0  0  0  0  0  0  0  0  0  0  0  0
  186.0200  178.2270  146.1380 C   0  0  0  0  0  0  0  0  0  0  0  0
  184.8300  178.6250  146.6560 N   0  0  0  0  0  0  0  0  0  0  0  0
  186.1900  178.1980  144.7550 C   0  0  0  0  0  3  0  0  0  0  0  0
  183.9420  178.9950  144.5130 C   0  0  0  0  0  3  0  0  0  0  0  0
  188.3670  177.4910  146.2290 C   0  0  0  0  0  1  0  0  0  0  0  0
  187.1230  177.7950  147.0390 C   0  0  0  0  0  2  0  0  0  0  0  0
  181.5610  179.9170  137.3100 O   0  0  0  0  0  0  0  0  0  0  0  0
  181.6750  182.0590  138.1980 N   0  0  0  0  0  1  0  0  0  0  0  0
  181.8880  180.6530  138.2780 C   0  0  0  0  0  0  0  0  0  0  0  0
  189.0570  178.0340  140.6060 O   0  0  0  0  0  0  0  0  0  0  0  0
  188.3160  178.8000  138.5480 N   0  0  0  0  0  1  0  0  0  0  0  0
  188.0890  178.4290  139.9040 C   0  0  0  0  0  0  0  0  0  0  0  0
  1  8  1  0  0  0  0
  2 13  1  0  0  0  0
  3  7  1  0  0  0  0
  3  1  2  0  0  0  0
  5  9  1  0  0  0  0
  5 11  1  0  0  0  0
  5  7  1  1  0  0  0
  6  4  1  0  0  0  0
  6  2  1  0  0  0  0
  7  6  2  0  0  0  0
  8  2  2  0  0  0  0
  9 22  1  6  0  0  0
  9 11  1  0  0  0  0
 10  4  1  0  0  0  0
 11 10  1  1  0  0  0
 12 15  1  0  0  0  0
 13 17  1  0  0  0  0
 13 16  2  0  0  0  0
 14 15  2  0  0  0  0
 14 19  1  0  0  0  0
 16 14  1  0  0  0  0
 17 12  2  0  0  0  0
 18 19  1  0  0  0  0
 20 22  2  0  0  0  0
 21 22  1  0  0  0  0
 24 25  1  0  0  0  0
 25  1  1  0  0  0  0
 25 23  2  0  0  0  0
M  END
>  <MODEL>
5

>  <REMARK>
 VINA RESULT:      -8.0      2.549      5.869
  Name = 
  4 active torsions:
  status: ('A' for Active; 'I' for Inactive)
    1  A    between atoms: C_2  and  C_6
    2  A    between atoms: C_3  and  C_11
    3  A    between atoms: C_4  and  C_20
    4  A    between atoms: C_18  and  C_23
                            x       y       z     vdW  Elec       q    Type
                         _______ _______ _______ _____ _____    ______ ____

>  <TORSDO>
F 4

$$$$
=
 OpenBabel11032419183D

 25 28  0  0  1  0  0  0  0  0999 V2000
  190.9670  176.6430  146.4570 C   0  0  0  0  0  0  0  0  0  0  0  0
  188.7690  177.3860  145.7280 C   0  0  0  0  0  0  0  0  0  0  0  0
  191.2850  176.3370  145.1720 N   0  0  0  0  0  0  0  0  0  0  0  0
  188.2570  177.2230  143.3380 O   0  0  0  0  0  0  0  0  0  0  0  0
  190.8750  176.2220  142.7470 C   0  0  2  0  0  3  0  0  0  0  0  0
  189.1300  177.0360  144.4060 C   0  0  0  0  0  0  0  0  0  0  0  0
  190.4090  176.5170  144.1490 C   0  0  0  0  0  0  0  0  0  0  0  0
  189.7100  177.1760  146.7480 C   0  0  0  0  0  3  0  0  0  0  0  0
  190.7000  177.4620  141.8720 C   0  0  2  0  0  3  0  0  0  0  0  0
  188.3650  176.4660  142.1360 C   0  0  0  0  0  2  0  0  0  0  0  0
  189.8090  176.2510  141.6510 C   0  0  2  0  0  3  0  0  0  0  0  0
  185.9470  178.8520  147.7330 N   0  0  0  0  0  0  0  0  0  0  0  0
  187.4370  177.9550  146.0880 C   0  0  0  0  0  0  0  0  0  0  0  0
  185.1880  178.6420  145.5240 C   0  0  0  0  0  0  0  0  0  0  0  0
  184.9890  179.0030  146.8170 N   0  0  0  0  0  0  0  0  0  0  0  0
  186.4190  178.1160  145.1400 C   0  0  0  0  0  3  0  0  0  0  0  0
  187.1630  178.3380  147.4080 C   0  0  0  0  0  3  0  0  0  0  0  0
  184.5860  178.3930  143.1500 C   0  0  0  0  0  1  0  0  0  0  0  0
  184.1090  178.8380  144.5180 C   0  0  0  0  0  2  0  0  0  0  0  0
  192.9840  177.5040  141.1740 O   0  0  0  0  0  0  0  0  0  0  0  0
  191.4300  177.5030  139.4510 N   0  0  0  0  0  1  0  0  0  0  0  0
  191.7730  177.5080  140.8330 C   0  0  0  0  0  0  0  0  0  0  0  0
  192.0560  177.2570  148.4690 O   0  0  0  0  0  0  0  0  0  0  0  0
  192.7910  175.2740  147.5180 N   0  0  0  0  0  1  0  0  0  0  0  0
  191.9510  176.4240  147.5290 C   0  0  0  0  0  0  0  0  0  0  0  0
  1  8  1  0  0  0  0
  1 25  1  0  0  0  0
  2 13  1  0  0  0  0
  2  8  2  0  0  0  0
  3  1  2  0  0  0  0
  4  6  1  0  0  0  0
  5  7  1  1  0  0  0
  6  2  1  0  0  0  0
  7  6  2  0  0  0  0
  7  3  1  0  0  0  0
  9 22  1  6  0  0  0
  9  5  1  0  0  0  0
 10  4  1  0  0  0  0
 11  9  1  0  0  0  0
 11 10  1  1  0  0  0
 11  5  1  0  0  0  0
 13 17  2  0  0  0  0
 14 15  1  0  0  0  0
 15 12  2  0  0  0  0
 16 14  2  0  0  0  0
 16 13  1  0  0  0  0
 17 12  1  0  0  0  0
 18 19  1  0  0  0  0
 19 14  1  0  0  0  0
 21 22  1  0  0  0  0
 22 20  2  0  0  0  0
 24 25  1  0  0  0  0
 25 23  2  0  0  0  0
M  END
>  <MODEL>
6

>  <REMARK>
 VINA RESULT:      -8.0      2.682      5.574
  Name = 
  4 active torsions:
  status: ('A' for Active; 'I' for Inactive)
    1  A    between atoms: C_2  and  C_6
    2  A    between atoms: C_3  and  C_11
    3  A    between atoms: C_4  and  C_20
    4  A    between atoms: C_18  and  C_23
                            x       y       z     vdW  Elec       q    Type
                         _______ _______ _______ _____ _____    ______ ____

>  <TORSDO>
F 4

$$$$
=
 OpenBabel11032419183D

 25 28  0  0  1  0  0  0  0  0999 V2000
  189.9830  177.0230  140.2830 C   0  0  0  0  0  0  0  0  0  0  0  0
  188.2810  177.8140  141.8290 C   0  0  0  0  0  0  0  0  0  0  0  0
  190.8580  176.9000  141.3160 N   0  0  0  0  0  0  0  0  0  0  0  0
  188.8980  178.0000  144.1920 O   0  0  0  0  0  0  0  0  0  0  0  0
  191.5260  176.9790  143.6840 C   0  0  2  0  0  3  0  0  0  0  0  0
  189.2260  177.6920  142.8740 C   0  0  0  0  0  0  0  0  0  0  0  0
  190.5180  177.2200  142.5920 C   0  0  0  0  0  0  0  0  0  0  0  0
  188.6850  177.4750  140.5290 C   0  0  0  0  0  3  0  0  0  0  0  0
  190.9270  176.0630  144.7500 C   0  0  2  0  0  3  0  0  0  0  0  0
  189.8900  178.3610  145.1490 C   0  0  0  0  0  2  0  0  0  0  0  0
  191.1800  177.5270  145.0690 C   0  0  2  0  0  3  0  0  0  0  0  0
  184.8940  179.3150  141.1850 N   0  0  0  0  0  0  0  0  0  0  0  0
  186.8830  178.2960  142.0420 C   0  0  0  0  0  0  0  0  0  0  0  0
  184.9480  178.6740  143.4410 C   0  0  0  0  0  0  0  0  0  0  0  0
  184.3020  179.2150  142.3770 N   0  0  0  0  0  0  0  0  0  0  0  0
  186.2490  178.2020  143.2860 C   0  0  0  0  0  3  0  0  0  0  0  0
  186.1650  178.8740  140.9870 C   0  0  0  0  0  3  0  0  0  0  0  0
  185.2730  178.5870  145.8800 C   0  0  0  0  0  1  0  0  0  0  0  0
  184.2580  178.5560  144.7550 C   0  0  0  0  0  2  0  0  0  0  0  0
  192.5300  174.2940  144.6760 O   0  0  0  0  0  0  0  0  0  0  0  0
  192.4580  175.4720  146.6750 N   0  0  0  0  0  1  0  0  0  0  0  0
  191.9970  175.2130  145.3520 C   0  0  0  0  0  0  0  0  0  0  0  0
  191.0980  175.6360  138.7210 O   0  0  0  0  0  0  0  0  0  0  0  0
  190.0330  177.4830  137.8110 N   0  0  0  0  0  1  0  0  0  0  0  0
  190.4040  176.6680  138.9190 C   0  0  0  0  0  0  0  0  0  0  0  0
  1  8  2  0  0  0  0
  1  3  1  0  0  0  0
  2 13  1  0  0  0  0
  2  6  2  0  0  0  0
  3  7  2  0  0  0  0
  4 10  1  0  0  0  0
  5  7  1  6  0  0  0
  5  9  1  0  0  0  0
  5 11  1  0  0  0  0
  6  4  1  0  0  0  0
  7  6  1  0  0  0  0
  8  2  1  0  0  0  0
  9 11  1  0  0  0  0
  9 22  1  1  0  0  0
 11 10  1  6  0  0  0
 12 15  1  0  0  0  0
 13 16  2  0  0  0  0
 14 19  1  0  0  0  0
 15 14  2  0  0  0  0
 16 14  1  0  0  0  0
 17 12  2  0  0  0  0
 17 13  1  0  0  0  0
 19 18  1  0  0  0  0
 20 22  2  0  0  0  0
 22 21  1  0  0  0  0
 23 25  2  0  0  0  0
 24 25  1  0  0  0  0
 25  1  1  0  0  0  0
M  END
>  <MODEL>
7

>  <REMARK>
 VINA RESULT:      -7.9      2.324      5.371
  Name = 
  4 active torsions:
  status: ('A' for Active; 'I' for Inactive)
    1  A    between atoms: C_2  and  C_6
    2  A    between atoms: C_3  and  C_11
    3  A    between atoms: C_4  and  C_20
    4  A    between atoms: C_18  and  C_23
                            x       y       z     vdW  Elec       q    Type
                         _______ _______ _______ _____ _____    ______ ____

>  <TORSDO>
F 4

$$$$
=
 OpenBabel11032419183D

 25 28  0  0  1  0  0  0  0  0999 V2000
  185.7520  178.5650  145.4850 C   0  0  0  0  0  0  0  0  0  0  0  0
  187.4710  177.6790  144.0100 C   0  0  0  0  0  0  0  0  0  0  0  0
  185.0150  178.9240  144.4010 N   0  0  0  0  0  0  0  0  0  0  0  0
  187.0930  177.8600  141.5970 O   0  0  0  0  0  0  0  0  0  0  0  0
  184.5250  179.0650  141.9930 C   0  0  2  0  0  3  0  0  0  0  0  0
  186.6840  178.0860  142.9080 C   0  0  0  0  0  0  0  0  0  0  0  0
  185.4430  178.7040  143.1310 C   0  0  0  0  0  0  0  0  0  0  0  0
  186.9840  177.9330  145.3010 C   0  0  0  0  0  3  0  0  0  0  0  0
  184.2740  177.8370  141.1200 C   0  0  2  0  0  3  0  0  0  0  0  0
  186.6150  178.6500  140.5120 C   0  0  0  0  0  2  0  0  0  0  0  0
  185.1150  178.9830  140.5840 C   0  0  2  0  0  3  0  0  0  0  0  0
  190.3510  175.7690  142.5290 N   0  0  0  0  0  0  0  0  0  0  0  0
  188.7950  177.0040  143.8650 C   0  0  0  0  0  0  0  0  0  0  0  0
  190.9380  176.3000  144.7370 C   0  0  0  0  0  0  0  0  0  0  0  0
  191.2230  175.7300  143.5380 N   0  0  0  0  0  0  0  0  0  0  0  0
  189.7190  176.9510  144.9150 C   0  0  0  0  0  3  0  0  0  0  0  0
  189.1460  176.3870  142.6570 C   0  0  0  0  0  3  0  0  0  0  0  0
  191.2890  176.6930  147.1420 C   0  0  0  0  0  1  0  0  0  0  0  0
  191.9350  176.2590  145.8410 C   0  0  0  0  0  2  0  0  0  0  0  0
  182.6830  177.4640  139.3780 O   0  0  0  0  0  0  0  0  0  0  0  0
  181.8130  178.3860  141.3230 N   0  0  0  0  0  1  0  0  0  0  0  0
  182.8970  177.8940  140.5420 C   0  0  0  0  0  0  0  0  0  0  0  0
  184.2750  178.1660  147.2920 O   0  0  0  0  0  0  0  0  0  0  0  0
  185.8400  179.8370  147.6530 N   0  0  0  0  0  1  0  0  0  0  0  0
  185.2440  178.8310  146.8400 C   0  0  0  0  0  0  0  0  0  0  0  0
  1 25  1  0  0  0  0
  2  8  2  0  0  0  0
  3  1  2  0  0  0  0
  4  6  1  0  0  0  0
  5  7  1  1  0  0  0
  6  7  2  0  0  0  0
  6  2  1  0  0  0  0
  7  3  1  0  0  0  0
  8  1  1  0  0  0  0
  9 22  1  6  0  0  0
  9  5  1  0  0  0  0
 10  4  1  0  0  0  0
 11 10  1  1  0  0  0
 11  9  1  0  0  0  0
 11  5  1  0  0  0  0
 12 17  2  0  0  0  0
 12 15  1  0  0  0  0
 13  2  1  0  0  0  0
 13 16  2  0  0  0  0
 14 16  1  0  0  0  0
 14 19  1  0  0  0  0
 15 14  2  0  0  0  0
 17 13  1  0  0  0  0
 19 18  1  0  0  0  0
 20 22  2  0  0  0  0
 22 21  1  0  0  0  0
 25 23  2  0  0  0  0
 25 24  1  0  0  0  0
M  END
>  <MODEL>
8

>  <REMARK>
 VINA RESULT:      -7.7      2.860      5.220
  Name = 
  4 active torsions:
  status: ('A' for Active; 'I' for Inactive)
    1  A    between atoms: C_2  and  C_6
    2  A    between atoms: C_3  and  C_11
    3  A    between atoms: C_4  and  C_20
    4  A    between atoms: C_18  and  C_23
                            x       y       z     vdW  Elec       q    Type
                         _______ _______ _______ _____ _____    ______ ____

>  <TORSDO>
F 4

$$$$
=
 OpenBabel11032419183D

 25 28  0  0  1  0  0  0  0  0999 V2000
  185.1500  178.4270  143.9570 C   0  0  0  0  0  0  0  0  0  0  0  0
  186.4610  178.1890  141.9230 C   0  0  0  0  0  0  0  0  0  0  0  0
  186.1500  177.8380  144.6650 N   0  0  0  0  0  0  0  0  0  0  0  0
  188.6580  177.1220  142.1120 O   0  0  0  0  0  0  0  0  0  0  0  0
  188.3800  176.8350  144.9490 C   0  0  2  0  0  3  0  0  0  0  0  0
  187.4700  177.5620  142.6900 C   0  0  0  0  0  0  0  0  0  0  0  0
  187.2940  177.4050  144.0740 C   0  0  0  0  0  0  0  0  0  0  0  0
  185.2970  178.6150  142.5820 C   0  0  0  0  0  3  0  0  0  0  0  0
  189.6770  177.6130  144.7380 C   0  0  2  0  0  3  0  0  0  0  0  0
  189.4450  176.0920  142.7020 C   0  0  0  0  0  2  0  0  0  0  0  0
  189.5650  176.1840  144.2320 C   0  0  2  0  0  3  0  0  0  0  0  0
  185.5350  178.9060  138.3500 N   0  0  0  0  0  0  0  0  0  0  0  0
  186.5710  178.4080  140.4500 C   0  0  0  0  0  0  0  0  0  0  0  0
  187.8470  178.5120  138.3980 C   0  0  0  0  0  0  0  0  0  0  0  0
  186.7080  178.8120  137.7220 N   0  0  0  0  0  0  0  0  0  0  0  0
  187.7930  178.3100  139.7760 C   0  0  0  0  0  3  0  0  0  0  0  0
  185.4320  178.7110  139.6920 C   0  0  0  0  0  3  0  0  0  0  0  0
  189.8720  177.1560  138.0540 C   0  0  0  0  0  1  0  0  0  0  0  0
  189.1460  178.4320  137.6780 C   0  0  0  0  0  2  0  0  0  0  0  0
  191.7160  177.5320  145.9800 O   0  0  0  0  0  0  0  0  0  0  0  0
  189.8030  177.8710  147.2510 N   0  0  0  0  0  1  0  0  0  0  0  0
  190.4630  177.6500  146.0080 C   0  0  0  0  0  0  0  0  0  0  0  0
  183.9380  179.0570  145.8910 O   0  0  0  0  0  0  0  0  0  0  0  0
  182.7280  179.1030  143.9140 N   0  0  0  0  0  1  0  0  0  0  0  0
  183.9290  178.8740  144.6450 C   0  0  0  0  0  0  0  0  0  0  0  0
  1 25  1  0  0  0  0
  1  3  1  0  0  0  0
  2  8  1  0  0  0  0
  2  6  2  0  0  0  0
  4  6  1  0  0  0  0
  4 10  1  0  0  0  0
  5  7  1  6  0  0  0
  6  7  1  0  0  0  0
  7  3  2  0  0  0  0
  8  1  2  0  0  0  0
  9  5  1  0  0  0  0
  9 22  1  1  0  0  0
 11 10  1  6  0  0  0
 11  9  1  0  0  0  0
 11  5  1  0  0  0  0
 12 17  1  0  0  0  0
 13  2  1  0  0  0  0
 14 16  2  0  0  0  0
 15 12  2  0  0  0  0
 15 14  1  0  0  0  0
 16 13  1  0  0  0  0
 17 13  2  0  0  0  0
 19 18  1  0  0  0  0
 19 14  1  0  0  0  0
 20 22  2  0  0  0  0
 22 21  1  0  0  0  0
 24 25  1  0  0  0  0
 25 23  2  0  0  0  0
M  END
>  <MODEL>
9

>  <REMARK>
 VINA RESULT:      -7.6      2.287      6.019
  Name = 
  4 active torsions:
  status: ('A' for Active; 'I' for Inactive)
    1  A    between atoms: C_2  and  C_6
    2  A    between atoms: C_3  and  C_11
    3  A    between atoms: C_4  and  C_20
    4  A    between atoms: C_18  and  C_23
                            x       y       z     vdW  Elec       q    Type
                         _______ _______ _______ _____ _____    ______ ____

>  <TORSDO>
F 4

$$$$
