=
 OpenBabel11042411323D

 36 41  0  0  1  0  0  0  0  0999 V2000
  182.0310  178.2690  141.1380 C   0  0  0  0  0  0  0  0  0  0  0  0
  184.1860  178.5890  142.4130 C   0  0  0  0  0  0  0  0  0  0  0  0
  183.5550  177.8570  139.1780 C   0  0  0  0  0  0  0  0  0  0  0  0
  184.2710  179.1330  139.4440 C   0  0  0  0  0  2  0  0  0  0  0  0
  184.1760  178.5600  143.8780 C   0  0  0  0  0  0  0  0  0  0  0  0
  183.2850  175.8660  137.8080 C   0  0  0  0  0  0  0  0  0  0  0  0
  187.6310  177.8290  144.5180 N   0  0  0  0  0  0  0  0  0  0  0  0
  183.9500  177.0650  138.0940 C   0  0  0  0  0  3  0  0  0  0  0  0
  185.3070  178.3530  146.0570 C   0  0  0  0  0  3  0  0  0  0  0  0
  180.6040  178.2620  141.5950 C   0  0  0  0  0  3  0  0  0  0  0  0
  185.3440  178.5190  141.7090 C   0  0  0  0  0  0  0  0  0  0  0  0
  185.2760  178.3120  144.5920 C   0  0  0  0  0  0  0  0  0  0  0  0
  186.5370  178.0920  143.8670 C   0  0  0  0  0  0  0  0  0  0  0  0
  185.5240  178.8600  140.2520 C   0  0  0  0  0  2  0  0  0  0  0  0
  182.4970  177.4460  140.0040 C   0  0  0  0  0  0  0  0  0  0  0  0
  186.4390  178.0620  146.6990 C   0  0  0  0  0  3  0  0  0  0  0  0
  182.7920  178.8620  142.0540 C   0  0  2  0  0  3  0  0  0  0  0  0
  182.8180  178.9080  144.4110 C   0  0  0  0  0  2  0  0  0  0  0  0
  180.6610  178.8250  143.0210 C   0  0  1  0  0  3  0  0  0  0  0  0
  187.6890  177.6190  145.9730 C   0  0  0  0  0  2  0  0  0  0  0  0
  181.8210  176.2550  139.7020 C   0  0  0  0  0  3  0  0  0  0  0  0
  186.5530  178.2410  142.4400 N   0  0  0  0  0  2  0  0  0  0  0  0
  182.2130  175.4690  138.6170 C   0  0  0  0  0  3  0  0  0  0  0  0
  182.0490  179.2000  143.2060 N   0  0  2  0  0  0  0  0  0  0  0  0
  184.1020  175.5680  135.6010 O   0  0  0  0  0  0  0  0  0  0  0  0
  183.6580  173.6470  136.7590 O   0  0  0  0  0  1  0  0  0  0  0  0
  183.7000  175.0340  136.6670 C   0  0  0  0  0  0  0  0  0  0  0  0
  179.7810  180.0550  143.1330 C   0  0  0  0  0  2  0  0  0  0  0  0
  178.9990  180.2480  141.8490 C   0  0  0  0  0  2  0  0  0  0  0  0
  179.2500  181.5800  141.3250 N   0  0  0  0  0  2  0  0  0  0  0  0
  179.1570  181.4970  139.8780 C   0  0  0  0  0  2  0  0  0  0  0  0
  180.5350  181.2460  139.2850 C   0  0  0  0  0  2  0  0  0  0  0  0
  180.6440  181.8800  137.9790 N   0  0  0  0  0  0  0  0  0  0  0  0
  181.0150  180.9090  137.1120 O   0  0  0  0  0  1  0  0  0  0  0  0
  181.2670  183.8530  137.2800 C   0  0  0  0  0  1  0  0  0  0  0  0
  181.6750  182.7600  138.0490 O   0  0  0  0  0  0  0  0  0  0  0  0
  1 10  2  0  0  0  0
  2  5  1  0  0  0  0
  3  4  1  0  0  0  0
  3 15  1  0  0  0  0
  4 14  1  0  0  0  0
  5 18  1  0  0  0  0
  5 12  2  0  0  0  0
  6  8  1  0  0  0  0
  6 23  2  0  0  0  0
  7 20  1  0  0  0  0
  8  3  2  0  0  0  0
  9 16  2  0  0  0  0
 10 19  1  0  0  0  0
 11  2  2  0  0  0  0
 11 22  1  0  0  0  0
 12  9  1  0  0  0  0
 13  7  2  0  0  0  0
 13 12  1  0  0  0  0
 14 11  1  0  0  0  0
 15  1  1  0  0  0  0
 17  1  1  1  0  0  0
 17  2  1  0  0  0  0
 17 24  1  0  0  0  0
 19 28  1  6  0  0  0
 19 24  1  0  0  0  0
 20 16  1  0  0  0  0
 21 15  2  0  0  0  0
 22 13  1  0  0  0  0
 23 21  1  0  0  0  0
 24 18  1  1  0  0  0
 25 27  2  0  0  0  0
 27 26  1  0  0  0  0
 27  6  1  0  0  0  0
 29 28  1  0  0  0  0
 30 29  1  0  0  0  0
 31 30  1  0  0  0  0
 32 31  1  0  0  0  0
 33 36  1  0  0  0  0
 33 32  1  0  0  0  0
 34 33  1  0  0  0  0
 35 36  1  0  0  0  0
M  END
>  <MODEL>
1

>  <REMARK>
 VINA RESULT:      -7.8      0.000      0.000
  Name = 
  8 active torsions:
  status: ('A' for Active; 'I' for Inactive)
    1  A    between atoms: N_2  and  C_16
    2  A    between atoms: N_2  and  O_24
    3  A    between atoms: C_8  and  C_33
    4  A    between atoms: N_9  and  C_22
    5  A    between atoms: N_9  and  C_29
    6  A    between atoms: C_16  and  C_29
    7  A    between atoms: C_22  and  C_31
    8  A    between atoms: C_27  and  C_31
                            x       y       z     vdW  Elec       q    Type
                         _______ _______ _______ _____ _____    ______ ____

>  <TORSDO>
F 8

$$$$
=
 OpenBabel11042411323D

 36 41  0  0  1  0  0  0  0  0999 V2000
  190.3680  176.5790  138.1410 C   0  0  0  0  0  0  0  0  0  0  0  0
  190.6080  177.2780  140.5540 C   0  0  0  0  0  0  0  0  0  0  0  0
  192.8400  176.1330  138.2950 C   0  0  0  0  0  0  0  0  0  0  0  0
  193.0720  177.5040  138.8240 C   0  0  0  0  0  2  0  0  0  0  0  0
  189.4160  177.4060  141.3970 C   0  0  0  0  0  0  0  0  0  0  0  0
  193.7480  173.9870  137.5960 C   0  0  0  0  0  0  0  0  0  0  0  0
  190.9110  177.1460  144.6500 N   0  0  0  0  0  0  0  0  0  0  0  0
  193.9320  175.2780  138.1080 C   0  0  0  0  0  3  0  0  0  0  0  0
  188.3120  177.5660  143.5940 C   0  0  0  0  0  3  0  0  0  0  0  0
  189.1600  176.4590  137.2620 C   0  0  0  0  0  3  0  0  0  0  0  0
  191.8560  177.2640  141.0870 C   0  0  0  0  0  0  0  0  0  0  0  0
  189.4790  177.3630  142.7300 C   0  0  0  0  0  0  0  0  0  0  0  0
  190.8010  177.2110  143.3560 C   0  0  0  0  0  0  0  0  0  0  0  0
  193.1480  177.4640  140.3370 C   0  0  0  0  0  2  0  0  0  0  0  0
  191.5420  175.6960  137.9880 C   0  0  0  0  0  0  0  0  0  0  0  0
  188.4510  177.4770  144.9170 C   0  0  0  0  0  3  0  0  0  0  0  0
  190.0860  177.3510  139.1880 C   0  0  2  0  0  3  0  0  0  0  0  0
  188.1950  177.6530  140.5630 C   0  0  0  0  0  2  0  0  0  0  0  0
  188.0520  177.1760  138.0440 C   0  0  1  0  0  3  0  0  0  0  0  0
  189.7630  177.1030  145.5690 C   0  0  0  0  0  2  0  0  0  0  0  0
  191.3640  174.4110  137.4560 C   0  0  0  0  0  3  0  0  0  0  0  0
  191.9690  177.2060  142.5210 N   0  0  0  0  0  2  0  0  0  0  0  0
  192.4560  173.5610  137.2660 C   0  0  0  0  0  3  0  0  0  0  0  0
  188.7250  177.7240  139.2050 N   0  0  2  0  0  0  0  0  0  0  0  0
  195.4280  172.9720  136.2640 O   0  0  0  0  0  0  0  0  0  0  0  0
  195.4130  172.3660  138.4700 O   0  0  0  0  0  1  0  0  0  0  0  0
  194.8970  173.0890  137.4000 C   0  0  0  0  0  0  0  0  0  0  0  0
  187.4700  178.3030  137.2120 C   0  0  0  0  0  2  0  0  0  0  0  0
  186.1590  177.8610  136.5900 C   0  0  0  0  0  2  0  0  0  0  0  0
  185.3370  177.2160  137.6010 N   0  0  0  0  0  2  0  0  0  0  0  0
  184.3360  178.1820  138.0200 C   0  0  0  0  0  2  0  0  0  0  0  0
  184.1920  178.1510  139.5340 C   0  0  0  0  0  2  0  0  0  0  0  0
  184.2590  179.5020  140.0730 N   0  0  0  0  0  0  0  0  0  0  0  0
  184.3940  180.3310  139.0110 O   0  0  0  0  0  1  0  0  0  0  0  0
  185.0780  179.1140  142.0590 C   0  0  0  0  0  1  0  0  0  0  0  0
  185.4090  179.5880  140.7880 O   0  0  0  0  0  0  0  0  0  0  0  0
  2 11  2  0  0  0  0
  2  5  1  0  0  0  0
  3  4  1  0  0  0  0
  4 14  1  0  0  0  0
  5 12  2  0  0  0  0
  6  8  2  0  0  0  0
  7 20  1  0  0  0  0
  8  3  1  0  0  0  0
  9 16  2  0  0  0  0
 10 19  1  0  0  0  0
 10  1  2  0  0  0  0
 11 22  1  0  0  0  0
 12 13  1  0  0  0  0
 12  9  1  0  0  0  0
 13  7  2  0  0  0  0
 14 11  1  0  0  0  0
 15  1  1  0  0  0  0
 15  3  2  0  0  0  0
 16 20  1  0  0  0  0
 17  1  1  1  0  0  0
 17 24  1  0  0  0  0
 17  2  1  0  0  0  0
 18  5  1  0  0  0  0
 19 28  1  6  0  0  0
 19 24  1  0  0  0  0
 21 15  1  0  0  0  0
 22 13  1  0  0  0  0
 23 21  2  0  0  0  0
 23  6  1  0  0  0  0
 24 18  1  1  0  0  0
 25 27  2  0  0  0  0
 27  6  1  0  0  0  0
 27 26  1  0  0  0  0
 29 28  1  0  0  0  0
 29 30  1  0  0  0  0
 30 31  1  0  0  0  0
 31 32  1  0  0  0  0
 32 33  1  0  0  0  0
 33 36  1  0  0  0  0
 34 33  1  0  0  0  0
 36 35  1  0  0  0  0
M  END
>  <MODEL>
2

>  <REMARK>
 VINA RESULT:      -7.6      6.122      7.934
  Name = 
  8 active torsions:
  status: ('A' for Active; 'I' for Inactive)
    1  A    between atoms: N_2  and  C_16
    2  A    between atoms: N_2  and  O_24
    3  A    between atoms: C_8  and  C_33
    4  A    between atoms: N_9  and  C_22
    5  A    between atoms: N_9  and  C_29
    6  A    between atoms: C_16  and  C_29
    7  A    between atoms: C_22  and  C_31
    8  A    between atoms: C_27  and  C_31
                            x       y       z     vdW  Elec       q    Type
                         _______ _______ _______ _____ _____    ______ ____

>  <TORSDO>
F 8

$$$$
=
 OpenBabel11042411323D

 36 41  0  0  1  0  0  0  0  0999 V2000
  185.6000  178.1210  138.2540 C   0  0  0  0  0  0  0  0  0  0  0  0
  186.8500  178.3450  140.4350 C   0  0  0  0  0  0  0  0  0  0  0  0
  187.8550  177.4980  137.3250 C   0  0  0  0  0  0  0  0  0  0  0  0
  188.4540  178.7290  137.9050 C   0  0  0  0  0  2  0  0  0  0  0  0
  186.1070  178.3910  141.6980 C   0  0  0  0  0  0  0  0  0  0  0  0
  188.1260  175.4650  136.0180 C   0  0  0  0  0  0  0  0  0  0  0  0
  188.7010  177.4400  143.9890 N   0  0  0  0  0  0  0  0  0  0  0  0
  188.6650  176.6240  136.5910 C   0  0  0  0  0  3  0  0  0  0  0  0
  185.9770  178.2120  144.1510 C   0  0  0  0  0  3  0  0  0  0  0  0
  184.1410  178.2430  137.9330 C   0  0  0  0  0  3  0  0  0  0  0  0
  188.1930  178.1530  140.4070 C   0  0  0  0  0  0  0  0  0  0  0  0
  186.6770  178.0990  142.8690 C   0  0  0  0  0  0  0  0  0  0  0  0
  188.1060  177.7500  142.8760 C   0  0  0  0  0  0  0  0  0  0  0  0
  189.1060  178.4050  139.2350 C   0  0  0  0  0  2  0  0  0  0  0  0
  186.4940  177.2090  137.5120 C   0  0  0  0  0  0  0  0  0  0  0  0
  186.6060  177.8710  145.2760 C   0  0  0  0  0  3  0  0  0  0  0  0
  185.8520  178.7020  139.4240 C   0  0  2  0  0  3  0  0  0  0  0  0
  184.7030  178.8660  141.4760 C   0  0  0  0  0  2  0  0  0  0  0  0
  183.5290  178.8720  139.1910 C   0  0  1  0  0  3  0  0  0  0  0  0
  188.0060  177.3010  145.2790 C   0  0  0  0  0  2  0  0  0  0  0  0
  185.9550  176.0580  136.9190 C   0  0  0  0  0  3  0  0  0  0  0  0
  188.8460  177.8240  141.6480 N   0  0  0  0  0  2  0  0  0  0  0  0
  186.7640  175.1900  136.1830 C   0  0  0  0  0  3  0  0  0  0  0  0
  184.6670  179.1520  140.0450 N   0  0  2  0  0  0  0  0  0  0  0  0
  189.9870  174.9800  134.6280 O   0  0  0  0  0  0  0  0  0  0  0  0
  188.6820  173.1890  135.1950 O   0  0  0  0  0  1  0  0  0  0  0  0
  188.9790  174.5470  135.2450 C   0  0  0  0  0  0  0  0  0  0  0  0
  182.8250  180.1680  138.8390 C   0  0  0  0  0  2  0  0  0  0  0  0
  181.3600  180.0780  139.2170 C   0  0  0  0  0  2  0  0  0  0  0  0
  180.7440  181.3880  139.0860 N   0  0  0  0  0  2  0  0  0  0  0  0
  181.6140  182.1890  138.2430 C   0  0  0  0  0  2  0  0  0  0  0  0
  180.8110  183.2950  137.5760 C   0  0  0  0  0  2  0  0  0  0  0  0
  181.6970  184.1840  136.8390 N   0  0  0  0  0  0  0  0  0  0  0  0
  182.4100  184.8690  137.7650 O   0  0  0  0  0  1  0  0  0  0  0  0
  180.4650  184.4300  135.0530 C   0  0  0  0  0  1  0  0  0  0  0  0
  180.9110  185.0880  136.2000 O   0  0  0  0  0  0  0  0  0  0  0  0
  2  5  1  0  0  0  0
  3 15  1  0  0  0  0
  3  4  1  0  0  0  0
  4 14  1  0  0  0  0
  5 12  2  0  0  0  0
  6 23  2  0  0  0  0
  6  8  1  0  0  0  0
  7 20  1  0  0  0  0
  8  3  2  0  0  0  0
  9 16  2  0  0  0  0
 10  1  2  0  0  0  0
 10 19  1  0  0  0  0
 11  2  2  0  0  0  0
 11 22  1  0  0  0  0
 12 13  1  0  0  0  0
 12  9  1  0  0  0  0
 13  7  2  0  0  0  0
 14 11  1  0  0  0  0
 15  1  1  0  0  0  0
 16 20  1  0  0  0  0
 17  1  1  1  0  0  0
 17 24  1  0  0  0  0
 17  2  1  0  0  0  0
 18  5  1  0  0  0  0
 19 28  1  6  0  0  0
 19 24  1  0  0  0  0
 21 15  2  0  0  0  0
 22 13  1  0  0  0  0
 23 21  1  0  0  0  0
 24 18  1  1  0  0  0
 25 27  2  0  0  0  0
 26 27  1  0  0  0  0
 27  6  1  0  0  0  0
 28 29  1  0  0  0  0
 30 29  1  0  0  0  0
 31 30  1  0  0  0  0
 32 31  1  0  0  0  0
 33 32  1  0  0  0  0
 33 34  1  0  0  0  0
 35 36  1  0  0  0  0
 36 33  1  0  0  0  0
M  END
>  <MODEL>
3

>  <REMARK>
 VINA RESULT:      -7.3      2.820      3.902
  Name = 
  8 active torsions:
  status: ('A' for Active; 'I' for Inactive)
    1  A    between atoms: N_2  and  C_16
    2  A    between atoms: N_2  and  O_24
    3  A    between atoms: C_8  and  C_33
    4  A    between atoms: N_9  and  C_22
    5  A    between atoms: N_9  and  C_29
    6  A    between atoms: C_16  and  C_29
    7  A    between atoms: C_22  and  C_31
    8  A    between atoms: C_27  and  C_31
                            x       y       z     vdW  Elec       q    Type
                         _______ _______ _______ _____ _____    ______ ____

>  <TORSDO>
F 8

$$$$
=
 OpenBabel11042411323D

 36 41  0  0  1  0  0  0  0  0999 V2000
  190.1770  176.5610  138.2490 C   0  0  0  0  0  0  0  0  0  0  0  0
  190.5920  177.2430  140.6430 C   0  0  0  0  0  0  0  0  0  0  0  0
  192.6570  176.1320  138.2140 C   0  0  0  0  0  0  0  0  0  0  0  0
  192.9190  177.5000  138.7350 C   0  0  0  0  0  2  0  0  0  0  0  0
  189.4650  177.3560  141.5740 C   0  0  0  0  0  0  0  0  0  0  0  0
  193.5230  173.9980  137.4320 C   0  0  0  0  0  0  0  0  0  0  0  0
  191.2020  177.0820  144.7030 N   0  0  0  0  0  0  0  0  0  0  0  0
  193.7380  175.2860  137.9390 C   0  0  0  0  0  3  0  0  0  0  0  0
  188.5290  177.4920  143.8480 C   0  0  0  0  0  3  0  0  0  0  0  0
  188.9070  176.4400  137.4620 C   0  0  0  0  0  3  0  0  0  0  0  0
  191.8770  177.2340  141.0810 C   0  0  0  0  0  0  0  0  0  0  0  0
  189.6280  177.3040  142.8980 C   0  0  0  0  0  0  0  0  0  0  0  0
  190.9940  177.1560  143.4220 C   0  0  0  0  0  0  0  0  0  0  0  0
  193.1080  177.4490  140.2390 C   0  0  0  0  0  2  0  0  0  0  0  0
  191.3420  175.6880  138.0010 C   0  0  0  0  0  0  0  0  0  0  0  0
  188.7660  177.3930  145.1560 C   0  0  0  0  0  3  0  0  0  0  0  0
  189.9690  177.3230  139.3200 C   0  0  2  0  0  3  0  0  0  0  0  0
  188.1840  177.6010  140.8350 C   0  0  0  0  0  2  0  0  0  0  0  0
  187.8560  177.1420  138.3300 C   0  0  1  0  0  3  0  0  0  0  0  0
  190.1260  177.0240  145.7050 C   0  0  0  0  0  2  0  0  0  0  0  0
  191.1330  174.4050  137.4740 C   0  0  0  0  0  3  0  0  0  0  0  0
  192.0960  177.1650  142.5030 N   0  0  0  0  0  2  0  0  0  0  0  0
  192.2130  173.5650  137.1960 C   0  0  0  0  0  3  0  0  0  0  0  0
  188.6110  177.6860  139.4420 N   0  0  2  0  0  0  0  0  0  0  0  0
  195.4280  172.7330  138.0680 O   0  0  0  0  0  1  0  0  0  0  0  0
  194.8950  172.6710  135.8440 O   0  0  0  0  0  0  0  0  0  0  0  0
  194.6610  173.1090  137.1430 C   0  0  0  0  0  0  0  0  0  0  0  0
  187.2060  178.2710  137.5530 C   0  0  0  0  0  2  0  0  0  0  0  0
  185.7040  178.2370  137.7530 C   0  0  0  0  0  2  0  0  0  0  0  0
  185.3250  179.2260  138.7490 N   0  0  0  0  0  2  0  0  0  0  0  0
  184.4930  178.5510  139.7300 C   0  0  0  0  0  2  0  0  0  0  0  0
  184.9800  178.8780  141.1330 C   0  0  0  0  0  2  0  0  0  0  0  0
  184.2340  178.1080  142.1170 N   0  0  0  0  0  0  0  0  0  0  0  0
  183.0150  178.6910  142.2150 O   0  0  0  0  0  1  0  0  0  0  0  0
  184.3380  179.4860  143.8080 C   0  0  0  0  0  1  0  0  0  0  0  0
  184.8510  178.2850  143.3130 O   0  0  0  0  0  0  0  0  0  0  0  0
  2 11  2  0  0  0  0
  2  5  1  0  0  0  0
  3  4  1  0  0  0  0
  4 14  1  0  0  0  0
  5 12  2  0  0  0  0
  6  8  1  0  0  0  0
  7 20  1  0  0  0  0
  8  3  2  0  0  0  0
  9 16  2  0  0  0  0
 10  1  2  0  0  0  0
 10 19  1  0  0  0  0
 11 22  1  0  0  0  0
 12 13  1  0  0  0  0
 12  9  1  0  0  0  0
 13  7  2  0  0  0  0
 14 11  1  0  0  0  0
 15  3  1  0  0  0  0
 15  1  1  0  0  0  0
 16 20  1  0  0  0  0
 17  1  1  1  0  0  0
 17 24  1  0  0  0  0
 17  2  1  0  0  0  0
 18  5  1  0  0  0  0
 19 28  1  6  0  0  0
 19 24  1  0  0  0  0
 21 15  2  0  0  0  0
 22 13  1  0  0  0  0
 23  6  2  0  0  0  0
 23 21  1  0  0  0  0
 24 18  1  1  0  0  0
 26 27  2  0  0  0  0
 27  6  1  0  0  0  0
 27 25  1  0  0  0  0
 28 29  1  0  0  0  0
 29 30  1  0  0  0  0
 30 31  1  0  0  0  0
 31 32  1  0  0  0  0
 32 33  1  0  0  0  0
 33 34  1  0  0  0  0
 33 36  1  0  0  0  0
 36 35  1  0  0  0  0
M  END
>  <MODEL>
4

>  <REMARK>
 VINA RESULT:      -7.1      6.084      7.894
  Name = 
  8 active torsions:
  status: ('A' for Active; 'I' for Inactive)
    1  A    between atoms: N_2  and  C_16
    2  A    between atoms: N_2  and  O_24
    3  A    between atoms: C_8  and  C_33
    4  A    between atoms: N_9  and  C_22
    5  A    between atoms: N_9  and  C_29
    6  A    between atoms: C_16  and  C_29
    7  A    between atoms: C_22  and  C_31
    8  A    between atoms: C_27  and  C_31
                            x       y       z     vdW  Elec       q    Type
                         _______ _______ _______ _____ _____    ______ ____

>  <TORSDO>
F 8

$$$$
=
 OpenBabel11042411323D

 36 41  0  0  1  0  0  0  0  0999 V2000
  185.9040  178.0660  138.3210 C   0  0  0  0  0  0  0  0  0  0  0  0
  187.2030  178.2650  140.4750 C   0  0  0  0  0  0  0  0  0  0  0  0
  188.1460  177.5060  137.3240 C   0  0  0  0  0  0  0  0  0  0  0  0
  188.7370  178.7350  137.9170 C   0  0  0  0  0  2  0  0  0  0  0  0
  186.4910  178.2700  141.7570 C   0  0  0  0  0  0  0  0  0  0  0  0
  188.4220  175.5070  135.9660 C   0  0  0  0  0  0  0  0  0  0  0  0
  189.1570  177.3170  143.9630 N   0  0  0  0  0  0  0  0  0  0  0  0
  188.9540  176.6640  136.5510 C   0  0  0  0  0  3  0  0  0  0  0  0
  186.4240  178.0350  144.2080 C   0  0  0  0  0  3  0  0  0  0  0  0
  184.4350  178.1680  138.0380 C   0  0  0  0  0  3  0  0  0  0  0  0
  188.5490  178.0990  140.4110 C   0  0  0  0  0  0  0  0  0  0  0  0
  187.0950  177.9630  142.9070 C   0  0  0  0  0  0  0  0  0  0  0  0
  188.5290  177.6400  142.8710 C   0  0  0  0  0  0  0  0  0  0  0  0
  189.4270  178.3940  139.2230 C   0  0  0  0  0  2  0  0  0  0  0  0
  186.7960  177.1870  137.5370 C   0  0  0  0  0  0  0  0  0  0  0  0
  187.0870  177.6810  145.3090 C   0  0  0  0  0  3  0  0  0  0  0  0
  186.1740  178.6260  139.4970 C   0  0  2  0  0  3  0  0  0  0  0  0
  185.0730  178.7230  141.5790 C   0  0  0  0  0  2  0  0  0  0  0  0
  183.8440  178.7580  139.3250 C   0  0  1  0  0  3  0  0  0  0  0  0
  188.4970  177.1370  145.2650 C   0  0  0  0  0  2  0  0  0  0  0  0
  186.2630  176.0400  136.9320 C   0  0  0  0  0  3  0  0  0  0  0  0
  189.2370  177.7550  141.6280 N   0  0  0  0  0  2  0  0  0  0  0  0
  187.0690  175.2040  136.1570 C   0  0  0  0  0  3  0  0  0  0  0  0
  184.9970  179.0400  140.1570 N   0  0  2  0  0  0  0  0  0  0  0  0
  188.8180  173.5370  134.7040 O   0  0  0  0  0  0  0  0  0  0  0  0
  190.5840  174.9820  134.8640 O   0  0  0  0  0  1  0  0  0  0  0  0
  189.2720  174.6230  135.1520 C   0  0  0  0  0  0  0  0  0  0  0  0
  183.1080  180.0480  139.0180 C   0  0  0  0  0  2  0  0  0  0  0  0
  181.6110  179.8060  139.0450 C   0  0  0  0  0  2  0  0  0  0  0  0
  181.2380  179.2190  140.3220 N   0  0  0  0  0  2  0  0  0  0  0  0
  180.1520  180.0180  140.8610 C   0  0  0  0  0  2  0  0  0  0  0  0
  180.1450  179.9230  142.3790 C   0  0  0  0  0  2  0  0  0  0  0  0
  180.4960  178.5740  142.7990 N   0  0  0  0  0  0  0  0  0  0  0  0
  179.3360  177.8770  142.8580 O   0  0  0  0  0  1  0  0  0  0  0  0
  182.3420  178.8540  143.9310 C   0  0  0  0  0  1  0  0  0  0  0  0
  180.9660  178.6630  144.0690 O   0  0  0  0  0  0  0  0  0  0  0  0
  2  5  1  0  0  0  0
  3 15  1  0  0  0  0
  3  4  1  0  0  0  0
  4 14  1  0  0  0  0
  5 12  2  0  0  0  0
  6 23  2  0  0  0  0
  6  8  1  0  0  0  0
  7 20  1  0  0  0  0
  8  3  2  0  0  0  0
  9 16  2  0  0  0  0
 10  1  2  0  0  0  0
 10 19  1  0  0  0  0
 11  2  2  0  0  0  0
 11 22  1  0  0  0  0
 12  9  1  0  0  0  0
 13 12  1  0  0  0  0
 13  7  2  0  0  0  0
 14 11  1  0  0  0  0
 15  1  1  0  0  0  0
 17  1  1  1  0  0  0
 17 24  1  0  0  0  0
 17  2  1  0  0  0  0
 18  5  1  0  0  0  0
 19 28  1  6  0  0  0
 19 24  1  0  0  0  0
 20 16  1  0  0  0  0
 21 15  2  0  0  0  0
 22 13  1  0  0  0  0
 23 21  1  0  0  0  0
 24 18  1  1  0  0  0
 25 27  2  0  0  0  0
 26 27  1  0  0  0  0
 27  6  1  0  0  0  0
 28 29  1  0  0  0  0
 29 30  1  0  0  0  0
 30 31  1  0  0  0  0
 31 32  1  0  0  0  0
 32 33  1  0  0  0  0
 33 34  1  0  0  0  0
 33 36  1  0  0  0  0
 35 36  1  0  0  0  0
M  END
>  <MODEL>
5

>  <REMARK>
 VINA RESULT:      -7.1      3.337      4.650
  Name = 
  8 active torsions:
  status: ('A' for Active; 'I' for Inactive)
    1  A    between atoms: N_2  and  C_16
    2  A    between atoms: N_2  and  O_24
    3  A    between atoms: C_8  and  C_33
    4  A    between atoms: N_9  and  C_22
    5  A    between atoms: N_9  and  C_29
    6  A    between atoms: C_16  and  C_29
    7  A    between atoms: C_22  and  C_31
    8  A    between atoms: C_27  and  C_31
                            x       y       z     vdW  Elec       q    Type
                         _______ _______ _______ _____ _____    ______ ____

>  <TORSDO>
F 8

$$$$
=
 OpenBabel11042411323D

 36 41  0  0  1  0  0  0  0  0999 V2000
  190.9030  176.7140  139.1900 C   0  0  0  0  0  0  0  0  0  0  0  0
  189.0550  176.0520  137.6040 C   0  0  0  0  0  0  0  0  0  0  0  0
  189.0640  177.9120  140.4220 C   0  0  0  0  0  0  0  0  0  0  0  0
  188.6520  178.6030  139.1710 C   0  0  0  0  0  2  0  0  0  0  0  0
  189.2680  174.9570  136.6540 C   0  0  0  0  0  0  0  0  0  0  0  0
  188.7500  177.5580  142.8070 C   0  0  0  0  0  0  0  0  0  0  0  0
  185.8640  174.0820  135.9250 N   0  0  0  0  0  0  0  0  0  0  0  0
  188.3740  178.1800  141.6100 C   0  0  0  0  0  3  0  0  0  0  0  0
  188.4410  173.2480  135.0840 C   0  0  0  0  0  3  0  0  0  0  0  0
  192.3530  176.3370  139.2300 C   0  0  0  0  0  3  0  0  0  0  0  0
  187.8160  176.5520  137.8460 C   0  0  0  0  0  0  0  0  0  0  0  0
  188.2540  174.2940  136.0930 C   0  0  0  0  0  0  0  0  0  0  0  0
  186.8840  174.7090  136.4310 C   0  0  0  0  0  0  0  0  0  0  0  0
  187.4980  177.8570  138.5290 C   0  0  0  0  0  2  0  0  0  0  0  0
  190.1310  176.9990  140.4160 C   0  0  0  0  0  0  0  0  0  0  0  0
  187.3780  172.6090  134.5950 C   0  0  0  0  0  3  0  0  0  0  0  0
  190.4090  176.4650  137.9790 C   0  0  2  0  0  3  0  0  0  0  0  0
  190.7290  174.7670  136.3750 C   0  0  0  0  0  2  0  0  0  0  0  0
  192.6090  175.6750  137.8710 C   0  0  1  0  0  3  0  0  0  0  0  0
  185.9750  172.8740  135.0930 C   0  0  0  0  0  2  0  0  0  0  0  0
  190.5170  176.3950  141.6210 C   0  0  0  0  0  3  0  0  0  0  0  0
  186.6930  175.8580  137.2700 N   0  0  0  0  0  2  0  0  0  0  0  0
  189.8300  176.6670  142.8060 C   0  0  0  0  0  3  0  0  0  0  0  0
  191.3600  175.8300  137.1520 N   0  0  2  0  0  0  0  0  0  0  0  0
  188.6440  177.9260  145.1490 O   0  0  0  0  0  1  0  0  0  0  0  0
  186.6460  178.0230  144.0400 O   0  0  0  0  0  0  0  0  0  0  0  0
  188.0240  177.8400  144.0560 C   0  0  0  0  0  0  0  0  0  0  0  0
  193.7160  176.4040  137.1330 C   0  0  0  0  0  2  0  0  0  0  0  0
  194.4090  175.4560  136.1750 C   0  0  0  0  0  2  0  0  0  0  0  0
  195.8350  175.4410  136.4550 N   0  0  0  0  0  2  0  0  0  0  0  0
  196.1990  174.0690  136.7640 C   0  0  0  0  0  2  0  0  0  0  0  0
  196.5240  173.9410  138.2440 C   0  0  0  0  0  2  0  0  0  0  0  0
  196.8050  175.2520  138.8120 N   0  0  0  0  0  0  0  0  0  0  0  0
  198.1520  175.3420  138.9180 O   0  0  0  0  0  1  0  0  0  0  0  0
  197.4330  175.3180  140.9020 C   0  0  0  0  0  1  0  0  0  0  0  0
  196.3090  175.2520  140.0760 O   0  0  0  0  0  0  0  0  0  0  0  0
  1 10  2  0  0  0  0
  1 15  1  0  0  0  0
  2 11  2  0  0  0  0
  3  8  1  0  0  0  0
  4  3  1  0  0  0  0
  5  2  1  0  0  0  0
  6 27  1  0  0  0  0
  7 13  2  0  0  0  0
  8  6  2  0  0  0  0
  9 12  1  0  0  0  0
 11 14  1  0  0  0  0
 12 13  1  0  0  0  0
 12  5  2  0  0  0  0
 13 22  1  0  0  0  0
 14  4  1  0  0  0  0
 15  3  2  0  0  0  0
 15 21  1  0  0  0  0
 16  9  2  0  0  0  0
 16 20  1  0  0  0  0
 17  2  1  1  0  0  0
 17  1  1  0  0  0  0
 18  5  1  0  0  0  0
 19 28  1  6  0  0  0
 19 10  1  0  0  0  0
 20  7  1  0  0  0  0
 21 23  2  0  0  0  0
 22 11  1  0  0  0  0
 23  6  1  0  0  0  0
 24 18  1  1  0  0  0
 24 19  1  0  0  0  0
 24 17  1  0  0  0  0
 26 27  2  0  0  0  0
 27 25  1  0  0  0  0
 29 30  1  0  0  0  0
 29 28  1  0  0  0  0
 30 31  1  0  0  0  0
 31 32  1  0  0  0  0
 32 33  1  0  0  0  0
 33 34  1  0  0  0  0
 33 36  1  0  0  0  0
 36 35  1  0  0  0  0
M  END
>  <MODEL>
6

>  <REMARK>
 VINA RESULT:      -6.5      7.654     11.953
  Name = 
  8 active torsions:
  status: ('A' for Active; 'I' for Inactive)
    1  A    between atoms: N_2  and  C_16
    2  A    between atoms: N_2  and  O_24
    3  A    between atoms: C_8  and  C_33
    4  A    between atoms: N_9  and  C_22
    5  A    between atoms: N_9  and  C_29
    6  A    between atoms: C_16  and  C_29
    7  A    between atoms: C_22  and  C_31
    8  A    between atoms: C_27  and  C_31
                            x       y       z     vdW  Elec       q    Type
                         _______ _______ _______ _____ _____    ______ ____

>  <TORSDO>
F 8

$$$$
=
 OpenBabel11042411323D

 36 41  0  0  1  0  0  0  0  0999 V2000
  190.4190  176.5650  138.1060 C   0  0  0  0  0  0  0  0  0  0  0  0
  190.6780  177.2770  140.5140 C   0  0  0  0  0  0  0  0  0  0  0  0
  192.8940  176.1280  138.2400 C   0  0  0  0  0  0  0  0  0  0  0  0
  193.1260  177.5010  138.7610 C   0  0  0  0  0  2  0  0  0  0  0  0
  189.4920  177.4060  141.3660 C   0  0  0  0  0  0  0  0  0  0  0  0
  193.8020  173.9810  137.5450 C   0  0  0  0  0  0  0  0  0  0  0  0
  191.0170  177.1660  144.6070 N   0  0  0  0  0  0  0  0  0  0  0  0
  193.9870  175.2750  138.0490 C   0  0  0  0  0  3  0  0  0  0  0  0
  188.4080  177.5730  143.5710 C   0  0  0  0  0  3  0  0  0  0  0  0
  189.2040  176.4380  137.2380 C   0  0  0  0  0  3  0  0  0  0  0  0
  191.9310  177.2690  141.0360 C   0  0  0  0  0  0  0  0  0  0  0  0
  189.5670  177.3700  142.6990 C   0  0  0  0  0  0  0  0  0  0  0  0
  190.8950  177.2250  143.3140 C   0  0  0  0  0  0  0  0  0  0  0  0
  193.2150  177.4690  140.2740 C   0  0  0  0  0  2  0  0  0  0  0  0
  191.5940  175.6850  137.9470 C   0  0  0  0  0  0  0  0  0  0  0  0
  188.5580  177.4910  144.8930 C   0  0  0  0  0  3  0  0  0  0  0  0
  190.1430  177.3410  139.1510 C   0  0  2  0  0  3  0  0  0  0  0  0
  188.2640  177.6450  140.5410 C   0  0  0  0  0  2  0  0  0  0  0  0
  188.1000  177.1550  138.0250 C   0  0  1  0  0  3  0  0  0  0  0  0
  189.8770  177.1240  145.5360 C   0  0  0  0  0  2  0  0  0  0  0  0
  191.4160  174.3970  137.4230 C   0  0  0  0  0  3  0  0  0  0  0  0
  192.0550  177.2180  142.4690 N   0  0  0  0  0  2  0  0  0  0  0  0
  192.5080  173.5490  137.2280 C   0  0  0  0  0  3  0  0  0  0  0  0
  188.7820  177.7110  139.1780 N   0  0  2  0  0  0  0  0  0  0  0  0
  195.3950  172.8670  136.1840 O   0  0  0  0  0  0  0  0  0  0  0  0
  195.5660  172.4760  138.4320 O   0  0  0  0  0  1  0  0  0  0  0  0
  194.9520  173.0850  137.3430 C   0  0  0  0  0  0  0  0  0  0  0  0
  187.5080  178.2760  137.1930 C   0  0  0  0  0  2  0  0  0  0  0  0
  185.9980  178.2760  137.3280 C   0  0  0  0  0  2  0  0  0  0  0  0
  185.6190  178.9980  138.5310 N   0  0  0  0  0  2  0  0  0  0  0  0
  184.4370  178.3470  139.0690 C   0  0  0  0  0  2  0  0  0  0  0  0
  183.4200  179.3950  139.4950 C   0  0  0  0  0  2  0  0  0  0  0  0
  182.1250  179.1130  138.8920 N   0  0  0  0  0  0  0  0  0  0  0  0
  182.3610  178.2800  137.8510 O   0  0  0  0  0  1  0  0  0  0  0  0
  181.1820  179.9370  137.1040 C   0  0  0  0  0  1  0  0  0  0  0  0
  181.6680  180.2780  138.3670 O   0  0  0  0  0  0  0  0  0  0  0  0
  2 11  2  0  0  0  0
  2  5  1  0  0  0  0
  3  4  1  0  0  0  0
  4 14  1  0  0  0  0
  5 12  2  0  0  0  0
  6  8  2  0  0  0  0
  7 20  1  0  0  0  0
  8  3  1  0  0  0  0
  9 16  2  0  0  0  0
 10 19  1  0  0  0  0
 10  1  2  0  0  0  0
 11 22  1  0  0  0  0
 12 13  1  0  0  0  0
 12  9  1  0  0  0  0
 13  7  2  0  0  0  0
 14 11  1  0  0  0  0
 15  1  1  0  0  0  0
 15  3  2  0  0  0  0
 16 20  1  0  0  0  0
 17  1  1  1  0  0  0
 17 24  1  0  0  0  0
 17  2  1  0  0  0  0
 18  5  1  0  0  0  0
 19 28  1  6  0  0  0
 19 24  1  0  0  0  0
 21 15  1  0  0  0  0
 22 13  1  0  0  0  0
 23 21  2  0  0  0  0
 23  6  1  0  0  0  0
 24 18  1  1  0  0  0
 25 27  2  0  0  0  0
 27  6  1  0  0  0  0
 27 26  1  0  0  0  0
 28 29  1  0  0  0  0
 29 30  1  0  0  0  0
 30 31  1  0  0  0  0
 31 32  1  0  0  0  0
 33 32  1  0  0  0  0
 34 33  1  0  0  0  0
 35 36  1  0  0  0  0
 36 33  1  0  0  0  0
M  END
>  <MODEL>
7

>  <REMARK>
 VINA RESULT:      -6.5      6.081      7.756
  Name = 
  8 active torsions:
  status: ('A' for Active; 'I' for Inactive)
    1  A    between atoms: N_2  and  C_16
    2  A    between atoms: N_2  and  O_24
    3  A    between atoms: C_8  and  C_33
    4  A    between atoms: N_9  and  C_22
    5  A    between atoms: N_9  and  C_29
    6  A    between atoms: C_16  and  C_29
    7  A    between atoms: C_22  and  C_31
    8  A    between atoms: C_27  and  C_31
                            x       y       z     vdW  Elec       q    Type
                         _______ _______ _______ _____ _____    ______ ____

>  <TORSDO>
F 8

$$$$
=
 OpenBabel11042411323D

 36 41  0  0  1  0  0  0  0  0999 V2000
  185.9520  178.0700  138.4080 C   0  0  0  0  0  0  0  0  0  0  0  0
  187.1980  178.2840  140.5920 C   0  0  0  0  0  0  0  0  0  0  0  0
  188.2370  177.6340  137.4460 C   0  0  0  0  0  0  0  0  0  0  0  0
  188.7580  178.8760  138.0750 C   0  0  0  0  0  2  0  0  0  0  0  0
  186.4620  178.2290  141.8590 C   0  0  0  0  0  0  0  0  0  0  0  0
  188.6310  175.6790  136.0540 C   0  0  0  0  0  0  0  0  0  0  0  0
  189.1270  177.3540  144.0990 N   0  0  0  0  0  0  0  0  0  0  0  0
  189.0970  176.8460  136.6730 C   0  0  0  0  0  3  0  0  0  0  0  0
  186.3590  177.9410  144.3030 C   0  0  0  0  0  3  0  0  0  0  0  0
  184.4860  178.1100  138.0980 C   0  0  0  0  0  3  0  0  0  0  0  0
  188.5510  178.1810  140.5520 C   0  0  0  0  0  0  0  0  0  0  0  0
  187.0570  177.9260  143.0150 C   0  0  0  0  0  0  0  0  0  0  0  0
  188.5060  177.6710  143.0020 C   0  0  0  0  0  0  0  0  0  0  0  0
  189.4380  178.5410  139.3880 C   0  0  0  0  0  2  0  0  0  0  0  0
  186.8980  177.2490  137.6260 C   0  0  0  0  0  0  0  0  0  0  0  0
  187.0160  177.5950  145.4100 C   0  0  0  0  0  3  0  0  0  0  0  0
  186.1730  178.6170  139.6010 C   0  0  2  0  0  3  0  0  0  0  0  0
  185.0280  178.6200  141.6610 C   0  0  0  0  0  2  0  0  0  0  0  0
  183.8430  178.6450  139.3840 C   0  0  1  0  0  3  0  0  0  0  0  0
  188.4500  177.1170  145.3840 C   0  0  0  0  0  2  0  0  0  0  0  0
  186.4310  176.0910  136.9870 C   0  0  0  0  0  3  0  0  0  0  0  0
  189.2310  177.8440  141.7750 N   0  0  0  0  0  2  0  0  0  0  0  0
  187.2900  175.3090  136.2120 C   0  0  0  0  0  3  0  0  0  0  0  0
  184.9660  178.9630  140.2440 N   0  0  2  0  0  0  0  0  0  0  0  0
  190.4770  175.3820  134.5940 O   0  0  0  0  0  0  0  0  0  0  0  0
  189.3650  173.4720  135.1840 O   0  0  0  0  0  1  0  0  0  0  0  0
  189.5360  174.8510  135.2410 C   0  0  0  0  0  0  0  0  0  0  0  0
  183.0540  179.9060  139.0880 C   0  0  0  0  0  2  0  0  0  0  0  0
  181.6230  179.7420  139.5610 C   0  0  0  0  0  2  0  0  0  0  0  0
  181.4530  178.4190  140.1400 N   0  0  0  0  0  2  0  0  0  0  0  0
  180.2220  178.4420  140.9110 C   0  0  0  0  0  2  0  0  0  0  0  0
  179.4960  177.1140  140.7630 C   0  0  0  0  0  2  0  0  0  0  0  0
  180.0230  176.3770  139.6240 N   0  0  0  0  0  0  0  0  0  0  0  0
  178.9700  176.1320  138.8070 O   0  0  0  0  0  1  0  0  0  0  0  0
  179.3330  174.6220  140.7240 C   0  0  0  0  0  1  0  0  0  0  0  0
  180.4470  175.1750  140.0900 O   0  0  0  0  0  0  0  0  0  0  0  0
  2  5  1  0  0  0  0
  3 15  1  0  0  0  0
  3  4  1  0  0  0  0
  4 14  1  0  0  0  0
  5 12  2  0  0  0  0
  6 23  2  0  0  0  0
  6  8  1  0  0  0  0
  7 20  1  0  0  0  0
  8  3  2  0  0  0  0
  9 16  2  0  0  0  0
 10  1  2  0  0  0  0
 10 19  1  0  0  0  0
 11  2  2  0  0  0  0
 11 22  1  0  0  0  0
 12  9  1  0  0  0  0
 13 12  1  0  0  0  0
 13  7  2  0  0  0  0
 14 11  1  0  0  0  0
 15  1  1  0  0  0  0
 17  1  1  6  0  0  0
 17 24  1  0  0  0  0
 17  2  1  0  0  0  0
 18  5  1  0  0  0  0
 19 28  1  6  0  0  0
 19 24  1  0  0  0  0
 20 16  1  0  0  0  0
 21 15  2  0  0  0  0
 22 13  1  0  0  0  0
 23 21  1  0  0  0  0
 24 18  1  1  0  0  0
 25 27  2  0  0  0  0
 26 27  1  0  0  0  0
 27  6  1  0  0  0  0
 28 29  1  0  0  0  0
 29 30  1  0  0  0  0
 30 31  1  0  0  0  0
 32 31  1  0  0  0  0
 33 36  1  0  0  0  0
 33 32  1  0  0  0  0
 34 33  1  0  0  0  0
 36 35  1  0  0  0  0
M  END
>  <MODEL>
8

>  <REMARK>
 VINA RESULT:      -6.5      3.326      4.772
  Name = 
  8 active torsions:
  status: ('A' for Active; 'I' for Inactive)
    1  A    between atoms: N_2  and  C_16
    2  A    between atoms: N_2  and  O_24
    3  A    between atoms: C_8  and  C_33
    4  A    between atoms: N_9  and  C_22
    5  A    between atoms: N_9  and  C_29
    6  A    between atoms: C_16  and  C_29
    7  A    between atoms: C_22  and  C_31
    8  A    between atoms: C_27  and  C_31
                            x       y       z     vdW  Elec       q    Type
                         _______ _______ _______ _____ _____    ______ ____

>  <TORSDO>
F 8

$$$$
=
 OpenBabel11042411323D

 36 41  0  0  1  0  0  0  0  0999 V2000
  184.3700  178.0300  138.6760 C   0  0  0  0  0  0  0  0  0  0  0  0
  183.4850  175.9730  137.5110 C   0  0  0  0  0  0  0  0  0  0  0  0
  181.9730  178.3470  139.3750 C   0  0  0  0  0  0  0  0  0  0  0  0
  181.5260  178.2270  137.9620 C   0  0  0  0  0  2  0  0  0  0  0  0
  184.4160  174.9350  137.0600 C   0  0  0  0  0  0  0  0  0  0  0  0
  181.4130  178.7040  141.7150 C   0  0  0  0  0  0  0  0  0  0  0  0
  182.1710  172.1470  136.7960 N   0  0  0  0  0  0  0  0  0  0  0  0
  181.0210  178.5710  140.3770 C   0  0  0  0  0  3  0  0  0  0  0  0
  184.9190  172.6460  136.3000 C   0  0  0  0  0  3  0  0  0  0  0  0
  185.7660  178.5540  138.8340 C   0  0  0  0  0  3  0  0  0  0  0  0
  182.1470  175.7540  137.5620 C   0  0  0  0  0  0  0  0  0  0  0  0
  184.0230  173.6810  136.8230 C   0  0  0  0  0  0  0  0  0  0  0  0
  182.5990  173.3580  136.9970 C   0  0  0  0  0  0  0  0  0  0  0  0
  181.0750  176.8060  137.6850 C   0  0  0  0  0  2  0  0  0  0  0  0
  183.3320  178.2350  139.7070 C   0  0  0  0  0  0  0  0  0  0  0  0
  184.4580  171.4080  136.1200 C   0  0  0  0  0  3  0  0  0  0  0  0
  184.3290  177.1610  137.6690 C   0  0  2  0  0  3  0  0  0  0  0  0
  185.7890  175.5010  136.8520 C   0  0  0  0  0  2  0  0  0  0  0  0
  186.5920  177.7320  137.8370 C   0  0  1  0  0  3  0  0  0  0  0  0
  183.0510  171.0050  136.5020 C   0  0  0  0  0  2  0  0  0  0  0  0
  183.7220  178.3900  141.0450 C   0  0  0  0  0  3  0  0  0  0  0  0
  181.6820  174.4120  137.3240 N   0  0  0  0  0  2  0  0  0  0  0  0
  182.7710  178.6180  142.0420 C   0  0  0  0  0  3  0  0  0  0  0  0
  185.6140  176.9210  137.1380 N   0  0  2  0  0  0  0  0  0  0  0  0
  180.2010  180.1050  143.1990 O   0  0  0  0  0  0  0  0  0  0  0  0
  179.6800  177.8790  143.2910 O   0  0  0  0  0  1  0  0  0  0  0  0
  180.4110  178.9400  142.7670 C   0  0  0  0  0  0  0  0  0  0  0  0
  187.2900  178.6510  136.8530 C   0  0  0  0  0  2  0  0  0  0  0  0
  188.7850  178.6310  137.1000 C   0  0  0  0  0  2  0  0  0  0  0  0
  189.0520  178.9750  138.4860 N   0  0  0  0  0  2  0  0  0  0  0  0
  189.8140  177.8800  139.0610 C   0  0  0  0  0  2  0  0  0  0  0  0
  189.1920  177.4570  140.3840 C   0  0  0  0  0  2  0  0  0  0  0  0
  190.2250  177.3000  141.3970 N   0  0  0  0  0  0  0  0  0  0  0  0
  191.4090  177.4910  140.7690 O   0  0  0  0  0  1  0  0  0  0  0  0
  189.7060  176.0410  143.1040 C   0  0  0  0  0  1  0  0  0  0  0  0
  190.1960  176.0030  141.7970 O   0  0  0  0  0  0  0  0  0  0  0  0
  1 10  2  0  0  0  0
  1 15  1  0  0  0  0
  2 11  2  0  0  0  0
  3 15  2  0  0  0  0
  3  8  1  0  0  0  0
  4  3  1  0  0  0  0
  5  2  1  0  0  0  0
  6 23  1  0  0  0  0
  6 27  1  0  0  0  0
  7 13  2  0  0  0  0
  8  6  2  0  0  0  0
  9 12  1  0  0  0  0
 11 14  1  0  0  0  0
 12 13  1  0  0  0  0
 12  5  2  0  0  0  0
 13 22  1  0  0  0  0
 14  4  1  0  0  0  0
 15 21  1  0  0  0  0
 16  9  2  0  0  0  0
 16 20  1  0  0  0  0
 17  2  1  1  0  0  0
 17  1  1  0  0  0  0
 18  5  1  0  0  0  0
 19 28  1  6  0  0  0
 19 10  1  0  0  0  0
 20  7  1  0  0  0  0
 21 23  2  0  0  0  0
 22 11  1  0  0  0  0
 24 18  1  1  0  0  0
 24 17  1  0  0  0  0
 24 19  1  0  0  0  0
 27 25  2  0  0  0  0
 27 26  1  0  0  0  0
 28 29  1  0  0  0  0
 29 30  1  0  0  0  0
 30 31  1  0  0  0  0
 31 32  1  0  0  0  0
 32 33  1  0  0  0  0
 33 36  1  0  0  0  0
 34 33  1  0  0  0  0
 36 35  1  0  0  0  0
M  END
>  <MODEL>
9

>  <REMARK>
 VINA RESULT:      -6.4      4.153      8.574
  Name = 
  8 active torsions:
  status: ('A' for Active; 'I' for Inactive)
    1  A    between atoms: N_2  and  C_16
    2  A    between atoms: N_2  and  O_24
    3  A    between atoms: C_8  and  C_33
    4  A    between atoms: N_9  and  C_22
    5  A    between atoms: N_9  and  C_29
    6  A    between atoms: C_16  and  C_29
    7  A    between atoms: C_22  and  C_31
    8  A    between atoms: C_27  and  C_31
                            x       y       z     vdW  Elec       q    Type
                         _______ _______ _______ _____ _____    ______ ____

>  <TORSDO>
F 8

$$$$
