=
 OpenBabel11042410143D

 65 72  0  0  1  0  0  0  0  0999 V2000
  191.4950  176.8450  138.7260 C   0  0  0  0  0  0  0  0  0  0  0  0
  188.1280  176.4860  134.9810 C   0  0  0  0  0  3  0  0  0  0  0  0
  192.1040  176.2560  137.5750 N   0  0  0  0  0  2  0  0  0  0  0  0
  191.3440  176.0170  136.4170 N   0  0  0  0  0  0  0  0  0  0  0  0
  192.2040  176.9770  139.8490 C   0  0  0  0  0  3  0  0  0  0  0  0
  189.3360  176.0490  135.1710 N   0  0  0  0  0  0  0  0  0  0  0  0
  187.9520  177.3450  137.3850 C   0  0  1  0  0  3  0  0  0  0  0  0
  187.4530  177.4420  135.9310 C   0  0  2  0  0  3  0  0  0  0  0  0
  190.0940  176.3680  136.3430 C   0  0  0  0  0  0  0  0  0  0  0  0
  189.4210  177.0360  137.4850 C   0  0  0  0  0  0  0  0  0  0  0  0
  190.0800  177.2310  138.6300 C   0  0  0  0  0  3  0  0  0  0  0  0
  184.8140  177.0640  135.9010 C   0  0  0  0  0  0  0  0  0  0  0  0
  186.0070  177.2220  135.8980 C   0  0  0  0  0  0  0  0  0  0  0  0
  183.5780  174.7110  136.8260 N   0  0  0  0  0  2  0  0  0  0  0  0
  183.4210  176.9070  135.9240 N   0  0  0  0  0  0  0  0  0  0  0  0
  182.8200  175.8320  136.3350 C   0  0  0  0  0  0  0  0  0  0  0  0
  183.0610  173.3720  137.1390 C   0  0  1  0  0  3  0  0  0  0  0  0
  180.8210  172.3630  137.4100 C   0  0  0  0  0  2  0  0  0  0  0  0
  180.2330  171.2330  136.6000 C   0  0  0  0  0  2  0  0  0  0  0  0
  181.2720  170.8950  135.5600 C   0  0  0  0  0  2  0  0  0  0  0  0
  181.7360  173.1200  136.4730 C   0  0  2  0  0  3  0  0  0  0  0  0
  183.9250  172.2460  136.5910 C   0  0  1  0  0  3  0  0  0  0  0  0
  183.4490  171.8820  135.3230 O   0  0  0  0  0  0  0  0  0  0  0  0
  182.0670  172.1660  135.3340 C   0  0  1  0  0  3  0  0  0  0  0  0
  188.4740  170.6390  134.7970 C   0  0  0  0  0  3  0  0  0  0  0  0
  187.5390  173.3540  136.8970 N   0  0  0  0  0  0  0  0  0  0  0  0
  186.0990  170.6780  135.1820 N   0  0  0  0  0  0  0  0  0  0  0  0
  188.6330  171.7470  135.5800 N   0  0  0  0  0  0  0  0  0  0  0  0
  186.1410  173.6060  137.2760 C   0  0  0  0  0  2  0  0  0  0  0  0
  187.5340  172.3030  136.1510 C   0  0  0  0  0  0  0  0  0  0  0  0
  186.2950  171.7810  135.9490 C   0  0  0  0  0  0  0  0  0  0  0  0
  185.3980  172.4980  136.5860 C   0  0  0  0  0  0  0  0  0  0  0  0
  187.1870  170.0950  134.5940 C   0  0  0  0  0  3  0  0  0  0  0  0
  181.4260  175.7520  136.2840 O   0  0  0  0  0  0  0  0  0  0  0  0
  181.0870  176.0250  139.0290 O   0  0  0  0  0  1  0  0  0  0  0  0
  180.2080  178.0340  137.3480 O   0  0  0  0  0  0  0  0  0  0  0  0
  180.3950  176.3580  137.5230 P   0  0  0  0  0  0  0  0  0  0  0  0
  179.0430  175.6870  137.4340 O   0  0  0  0  0  1  0  0  0  0  0  0
  191.6530  177.5600  141.1150 C   0  0  0  0  0  2  0  0  0  0  0  0
  191.3250  176.4750  142.1330 C   0  0  0  0  0  2  0  0  0  0  0  0
  189.9580  176.6130  142.6110 N   0  0  0  0  0  2  0  0  0  0  0  0
  189.8760  177.8550  143.3660 C   0  0  0  0  0  2  0  0  0  0  0  0
  188.0000  177.4790  144.9420 C   0  0  0  0  0  0  0  0  0  0  0  0
  191.6840  177.2260  145.5990 C   0  0  0  0  0  1  0  0  0  0  0  0
  189.7620  176.8700  147.1390 C   0  0  0  0  0  2  0  0  0  0  0  0
  187.8400  177.2100  148.5170 O   0  0  0  0  0  0  0  0  0  0  0  0
  188.3190  177.1590  147.3530 C   0  0  0  0  0  0  0  0  0  0  0  0
  189.3300  177.5790  144.7390 C   0  0  0  0  0  0  0  0  0  0  0  0
  187.4920  177.3630  146.2480 O   0  0  0  0  0  0  0  0  0  0  0  0
  190.2650  177.6590  145.9320 C   0  0  2  0  0  3  0  0  0  0  0  0
  187.0330  177.5710  143.7890 C   0  0  0  0  0  2  0  0  0  0  0  0
  185.7540  178.2530  144.1720 C   0  0  0  0  0  0  0  0  0  0  0  0
  183.4940  179.3370  143.5580 C   0  0  2  0  0  3  0  0  0  0  0  0
  184.8910  178.8750  143.0790 C   0  0  0  0  0  2  0  0  0  0  0  0
  183.0500  178.6660  144.8600 C   0  0  0  0  0  2  0  0  0  0  0  0
  185.3940  178.2630  145.4700 C   0  0  0  0  0  3  0  0  0  0  0  0
  184.1160  178.9050  145.9170 C   0  0  0  0  0  2  0  0  0  0  0  0
  182.4630  179.1340  142.4470 C   0  0  0  0  0  3  0  0  0  0  0  0
  182.8440  178.0800  141.6040 O   0  0  0  0  0  1  0  0  0  0  0  0
  181.1980  178.8700  142.9840 O   0  0  0  0  0  1  0  0  0  0  0  0
  187.5840  178.5130  138.1390 O   0  0  0  0  0  0  0  0  0  0  0  0
  187.1810  178.2950  140.4820 C   0  0  0  0  0  2  0  0  0  0  0  0
  186.7270  178.5250  139.2540 C   0  0  0  0  0  0  0  0  0  0  0  0
  185.3690  178.7800  139.0520 O   0  0  0  0  0  0  0  0  0  0  0  0
  184.7470  179.8060  139.6600 O   0  0  0  0  0  1  0  0  0  0  0  0
  1  5  2  0  0  0  0
  2  6  2  0  0  0  0
  2  8  1  0  0  0  0
  3  1  1  0  0  0  0
  4  3  1  0  0  0  0
  5 39  1  0  0  0  0
  6  9  1  0  0  0  0
  7 10  1  0  0  0  0
  7 61  1  6  0  0  0
  8 13  1  1  0  0  0
  8  7  1  0  0  0  0
  9  4  2  0  0  0  0
  9 10  1  0  0  0  0
 10 11  2  0  0  0  0
 11  1  1  0  0  0  0
 12 15  1  0  0  0  0
 13 12  3  0  0  0  0
 15 16  2  0  0  0  0
 16 14  1  0  0  0  0
 17 14  1  6  0  0  0
 19 18  1  0  0  0  0
 20 19  1  0  0  0  0
 21 17  1  0  0  0  0
 21 18  1  1  0  0  0
 22 32  1  6  0  0  0
 22 17  1  0  0  0  0
 23 24  1  0  0  0  0
 23 22  1  0  0  0  0
 24 20  1  1  0  0  0
 24 21  1  0  0  0  0
 25 28  2  0  0  0  0
 26 29  1  0  0  0  0
 27 31  1  0  0  0  0
 28 30  1  0  0  0  0
 30 26  2  0  0  0  0
 31 30  1  0  0  0  0
 31 32  2  0  0  0  0
 32 29  1  0  0  0  0
 33 25  1  0  0  0  0
 33 27  2  0  0  0  0
 34 16  1  0  0  0  0
 34 37  1  0  0  0  0
 36 37  2  0  0  0  0
 37 35  1  0  0  0  0
 38 37  1  0  0  0  0
 39 40  1  0  0  0  0
 40 41  1  0  0  0  0
 41 42  1  0  0  0  0
 42 48  1  0  0  0  0
 43 49  1  0  0  0  0
 45 47  1  0  0  0  0
 47 46  2  0  0  0  0
 48 43  2  0  0  0  0
 48 50  1  0  0  0  0
 49 47  1  0  0  0  0
 50 44  1  6  0  0  0
 50 45  1  0  0  0  0
 51 52  1  0  0  0  0
 51 43  1  0  0  0  0
 52 56  2  0  0  0  0
 53 58  1  6  0  0  0
 53 55  1  0  0  0  0
 54 53  1  0  0  0  0
 54 52  1  0  0  0  0
 55 57  1  0  0  0  0
 56 57  1  0  0  0  0
 58 60  1  0  0  0  0
 59 58  1  0  0  0  0
 61 63  1  0  0  0  0
 63 62  2  0  0  0  0
 64 63  1  0  0  0  0
 64 65  1  0  0  0  0
M  END
>  <MODEL>
1

>  <REMARK>
 VINA RESULT:      -8.9      0.000      0.000
  Name = 
  17 active torsions:
  status: ('A' for Active; 'I' for Inactive)
    1  A    between atoms: C_2  and  C_19
    2  A    between atoms: C_3  and  N_15
    3  A    between atoms: C_5  and  C_19
    4  A    between atoms: C_6  and  C_9
    5  A    between atoms: C_7  and  N_30
    6  A    between atoms: O_11  and  C_42
    7  A    between atoms: C_13  and  N_28
    8  A    between atoms: C_13  and  C_53
    9  A    between atoms: O_14  and  P_27
   10  A    between atoms: O_14  and  C_59
   11  A    between atoms: O_24  and  C_42
   12  A    between atoms: O_24  and  C_46
   13  A    between atoms: N_28  and  C_29
   14  A    between atoms: C_29  and  C_40
   15  A    between atoms: C_33  and  C_53
   16  A    between atoms: C_35  and  C_50
   17  A    between atoms: C_56  and  C_63
                            x       y       z     vdW  Elec       q    Type
                         _______ _______ _______ _____ _____    ______ ____

>  <TORSDO>
F 17

$$$$
=
 OpenBabel11042410143D

 65 72  0  0  1  0  0  0  0  0999 V2000
  190.7050  177.0960  139.0960 C   0  0  0  0  0  0  0  0  0  0  0  0
  187.9600  176.9450  134.8610 C   0  0  0  0  0  3  0  0  0  0  0  0
  191.5340  176.7430  137.9870 N   0  0  0  0  0  2  0  0  0  0  0  0
  190.9780  176.5990  136.7050 N   0  0  0  0  0  0  0  0  0  0  0  0
  191.2300  177.1350  140.3220 C   0  0  0  0  0  3  0  0  0  0  0  0
  189.1740  176.6090  135.1780 N   0  0  0  0  0  0  0  0  0  0  0  0
  187.3490  177.4270  137.2980 C   0  0  1  0  0  3  0  0  0  0  0  0
  187.0490  177.6820  135.8090 C   0  0  2  0  0  3  0  0  0  0  0  0
  189.7170  176.8290  136.4840 C   0  0  0  0  0  0  0  0  0  0  0  0
  188.8160  177.2550  137.5840 C   0  0  0  0  0  0  0  0  0  0  0  0
  189.2810  177.3490  138.8330 C   0  0  0  0  0  3  0  0  0  0  0  0
  184.5050  177.0530  135.3230 C   0  0  0  0  0  0  0  0  0  0  0  0
  185.6590  177.3260  135.5260 C   0  0  0  0  0  0  0  0  0  0  0  0
  183.3150  174.6720  136.2370 N   0  0  0  0  0  2  0  0  0  0  0  0
  183.1510  176.7590  135.1070 N   0  0  0  0  0  0  0  0  0  0  0  0
  182.5740  175.6670  135.5070 C   0  0  0  0  0  0  0  0  0  0  0  0
  182.8600  173.3180  136.5820 C   0  0  1  0  0  3  0  0  0  0  0  0
  180.6780  172.1600  136.6810 C   0  0  0  0  0  2  0  0  0  0  0  0
  180.2630  170.9430  135.8910 C   0  0  0  0  0  2  0  0  0  0  0  0
  181.4310  170.6240  134.9920 C   0  0  0  0  0  2  0  0  0  0  0  0
  181.6370  172.9280  135.7990 C   0  0  2  0  0  3  0  0  0  0  0  0
  183.8550  172.2310  136.2050 C   0  0  1  0  0  3  0  0  0  0  0  0
  183.5480  171.7580  134.9210 O   0  0  0  0  0  0  0  0  0  0  0  0
  182.1560  171.9360  134.7670 C   0  0  1  0  0  3  0  0  0  0  0  0
  188.6670  170.9350  134.9170 C   0  0  0  0  0  3  0  0  0  0  0  0
  187.3280  173.6150  136.8350 N   0  0  0  0  0  0  0  0  0  0  0  0
  186.2690  170.8020  135.0630 N   0  0  0  0  0  0  0  0  0  0  0  0
  188.6640  172.0670  135.6800 N   0  0  0  0  0  0  0  0  0  0  0  0
  185.8850  173.7680  137.0670 C   0  0  0  0  0  2  0  0  0  0  0  0
  187.4760  172.5510  136.1230 C   0  0  0  0  0  0  0  0  0  0  0  0
  186.3050  171.9320  135.8140 C   0  0  0  0  0  0  0  0  0  0  0  0
  185.2990  172.5930  136.3380 C   0  0  0  0  0  0  0  0  0  0  0  0
  187.4490  170.2900  134.6020 C   0  0  0  0  0  3  0  0  0  0  0  0
  181.2270  175.4450  135.2100 O   0  0  0  0  0  0  0  0  0  0  0  0
  179.0310  177.1100  134.8490 O   0  0  0  0  0  0  0  0  0  0  0  0
  178.9330  175.1380  136.7810 O   0  0  0  0  0  1  0  0  0  0  0  0
  179.9340  176.2620  136.0000 P   0  0  0  0  0  0  0  0  0  0  0  0
  180.4890  177.2340  137.0150 O   0  0  0  0  0  1  0  0  0  0  0  0
  190.4420  177.4710  141.5520 C   0  0  0  0  0  2  0  0  0  0  0  0
  189.8020  176.2310  142.1620 C   0  0  0  0  0  2  0  0  0  0  0  0
  188.3580  176.3910  142.2600 N   0  0  0  0  0  2  0  0  0  0  0  0
  188.0760  177.8170  142.3430 C   0  0  0  0  0  2  0  0  0  0  0  0
  187.6490  178.4060  144.7130 C   0  0  0  0  0  0  0  0  0  0  0  0
  185.1650  177.9460  141.9400 C   0  0  0  0  0  1  0  0  0  0  0  0
  184.7960  178.5270  144.3320 C   0  0  0  0  0  2  0  0  0  0  0  0
  184.6720  178.4360  146.7170 O   0  0  0  0  0  0  0  0  0  0  0  0
  185.4010  178.4860  145.6900 C   0  0  0  0  0  0  0  0  0  0  0  0
  187.1540  178.0840  143.4990 C   0  0  0  0  0  0  0  0  0  0  0  0
  186.7890  178.5150  145.8200 O   0  0  0  0  0  0  0  0  0  0  0  0
  185.6800  177.7510  143.3570 C   0  0  2  0  0  3  0  0  0  0  0  0
  189.1330  178.5730  144.9220 C   0  0  0  0  0  2  0  0  0  0  0  0
  189.6120  177.8920  146.1680 C   0  0  0  0  0  0  0  0  0  0  0  0
  191.1690  176.2320  147.3860 C   0  0  2  0  0  3  0  0  0  0  0  0
  190.5580  176.7010  146.0430 C   0  0  0  0  0  2  0  0  0  0  0  0
  191.1170  177.3020  148.4790 C   0  0  0  0  0  2  0  0  0  0  0  0
  189.2150  178.3760  147.3600 C   0  0  0  0  0  3  0  0  0  0  0  0
  189.6770  177.7580  148.6440 C   0  0  0  0  0  2  0  0  0  0  0  0
  192.5960  175.7270  147.1660 C   0  0  0  0  0  3  0  0  0  0  0  0
  193.1980  175.3960  148.3880 O   0  0  0  0  0  1  0  0  0  0  0  0
  192.6030  174.6100  146.3220 O   0  0  0  0  0  1  0  0  0  0  0  0
  186.7420  178.4310  138.1290 O   0  0  0  0  0  0  0  0  0  0  0  0
  184.6280  177.5590  138.8140 C   0  0  0  0  0  2  0  0  0  0  0  0
  185.3620  178.5700  138.3610 C   0  0  0  0  0  0  0  0  0  0  0  0
  184.7600  179.8040  138.1010 O   0  0  0  0  0  0  0  0  0  0  0  0
  184.0400  180.4470  139.0360 O   0  0  0  0  0  1  0  0  0  0  0  0
  1  5  2  0  0  0  0
  2  6  2  0  0  0  0
  2  8  1  0  0  0  0
  3  1  1  0  0  0  0
  4  3  1  0  0  0  0
  5 39  1  0  0  0  0
  6  9  1  0  0  0  0
  7 10  1  0  0  0  0
  7 61  1  1  0  0  0
  8 13  1  6  0  0  0
  8  7  1  0  0  0  0
  9  4  2  0  0  0  0
  9 10  1  0  0  0  0
 10 11  2  0  0  0  0
 11  1  1  0  0  0  0
 12 13  3  0  0  0  0
 15 12  1  0  0  0  0
 15 16  2  0  0  0  0
 16 14  1  0  0  0  0
 17 14  1  6  0  0  0
 19 18  1  0  0  0  0
 20 19  1  0  0  0  0
 21 17  1  0  0  0  0
 21 18  1  1  0  0  0
 22 32  1  6  0  0  0
 22 17  1  0  0  0  0
 23 22  1  0  0  0  0
 24 23  1  0  0  0  0
 24 20  1  1  0  0  0
 24 21  1  0  0  0  0
 25 28  2  0  0  0  0
 26 29  1  0  0  0  0
 27 31  1  0  0  0  0
 28 30  1  0  0  0  0
 30 26  2  0  0  0  0
 31 30  1  0  0  0  0
 31 32  2  0  0  0  0
 32 29  1  0  0  0  0
 33 25  1  0  0  0  0
 33 27  2  0  0  0  0
 34 16  1  0  0  0  0
 34 37  1  0  0  0  0
 35 37  2  0  0  0  0
 37 36  1  0  0  0  0
 37 38  1  0  0  0  0
 39 40  1  0  0  0  0
 40 41  1  0  0  0  0
 41 42  1  0  0  0  0
 42 48  1  0  0  0  0
 43 51  1  0  0  0  0
 43 49  1  0  0  0  0
 45 47  1  0  0  0  0
 47 49  1  0  0  0  0
 47 46  2  0  0  0  0
 48 43  2  0  0  0  0
 50 44  1  6  0  0  0
 50 48  1  0  0  0  0
 50 45  1  0  0  0  0
 51 52  1  0  0  0  0
 52 56  2  0  0  0  0
 53 58  1  6  0  0  0
 53 55  1  0  0  0  0
 54 52  1  0  0  0  0
 54 53  1  0  0  0  0
 55 57  1  0  0  0  0
 56 57  1  0  0  0  0
 58 59  1  0  0  0  0
 60 58  1  0  0  0  0
 61 63  1  0  0  0  0
 63 62  2  0  0  0  0
 64 63  1  0  0  0  0
 64 65  1  0  0  0  0
M  END
>  <MODEL>
2

>  <REMARK>
 VINA RESULT:      -6.8      1.525      3.898
  Name = 
  17 active torsions:
  status: ('A' for Active; 'I' for Inactive)
    1  A    between atoms: C_2  and  C_19
    2  A    between atoms: C_3  and  N_15
    3  A    between atoms: C_5  and  C_19
    4  A    between atoms: C_6  and  C_9
    5  A    between atoms: C_7  and  N_30
    6  A    between atoms: O_11  and  C_42
    7  A    between atoms: C_13  and  N_28
    8  A    between atoms: C_13  and  C_53
    9  A    between atoms: O_14  and  P_27
   10  A    between atoms: O_14  and  C_59
   11  A    between atoms: O_24  and  C_42
   12  A    between atoms: O_24  and  C_46
   13  A    between atoms: N_28  and  C_29
   14  A    between atoms: C_29  and  C_40
   15  A    between atoms: C_33  and  C_53
   16  A    between atoms: C_35  and  C_50
   17  A    between atoms: C_56  and  C_63
                            x       y       z     vdW  Elec       q    Type
                         _______ _______ _______ _____ _____    ______ ____

>  <TORSDO>
F 17

$$$$
=
 OpenBabel11042410143D

 65 72  0  0  1  0  0  0  0  0999 V2000
  185.5630  177.7360  135.2710 C   0  0  0  0  0  0  0  0  0  0  0  0
  189.4840  179.0320  138.1750 C   0  0  0  0  0  3  0  0  0  0  0  0
  186.1190  178.9730  134.8190 N   0  0  0  0  0  2  0  0  0  0  0  0
  187.2000  179.5530  135.5040 N   0  0  0  0  0  0  0  0  0  0  0  0
  184.4780  177.2450  134.6680 C   0  0  0  0  0  3  0  0  0  0  0  0
  188.8070  179.6200  137.2350 N   0  0  0  0  0  0  0  0  0  0  0  0
  187.8670  177.0510  138.2410 C   0  0  1  0  0  3  0  0  0  0  0  0
  189.2820  177.5820  138.5340 C   0  0  2  0  0  3  0  0  0  0  0  0
  187.7500  178.9650  136.5240 C   0  0  0  0  0  0  0  0  0  0  0  0
  187.2550  177.6520  137.0050 C   0  0  0  0  0  0  0  0  0  0  0  0
  186.1920  177.0840  136.4290 C   0  0  0  0  0  3  0  0  0  0  0  0
  189.8430  177.2540  141.1200 C   0  0  0  0  0  0  0  0  0  0  0  0
  189.5930  177.3820  139.9500 C   0  0  0  0  0  0  0  0  0  0  0  0
  187.8120  177.0330  143.0550 N   0  0  0  0  0  2  0  0  0  0  0  0
  190.1200  177.1350  142.4890 N   0  0  0  0  0  0  0  0  0  0  0  0
  189.2070  177.0410  143.4070 C   0  0  0  0  0  0  0  0  0  0  0  0
  186.6730  177.1270  143.9800 C   0  0  1  0  0  3  0  0  0  0  0  0
  186.3150  176.7030  146.3880 C   0  0  0  0  0  2  0  0  0  0  0  0
  185.8670  177.7020  147.4270 C   0  0  0  0  0  2  0  0  0  0  0  0
  185.7450  179.0180  146.6990 C   0  0  0  0  0  2  0  0  0  0  0  0
  187.1180  177.4830  145.3720 C   0  0  2  0  0  3  0  0  0  0  0  0
  185.7110  178.2560  143.6420 C   0  0  1  0  0  3  0  0  0  0  0  0
  186.0880  179.4040  144.3530 O   0  0  0  0  0  0  0  0  0  0  0  0
  186.7100  178.9410  145.5320 C   0  0  1  0  0  3  0  0  0  0  0  0
  182.2470  179.0480  139.9180 C   0  0  0  0  0  3  0  0  0  0  0  0
  185.8040  178.9940  139.9230 N   0  0  0  0  0  0  0  0  0  0  0  0
  183.1180  178.5760  142.1100 N   0  0  0  0  0  0  0  0  0  0  0  0
  183.5150  179.1280  139.4170 N   0  0  0  0  0  0  0  0  0  0  0  0
  186.5820  178.7360  141.1440 C   0  0  0  0  0  2  0  0  0  0  0  0
  184.5620  178.9320  140.2590 C   0  0  0  0  0  0  0  0  0  0  0  0
  184.3630  178.6680  141.5780 C   0  0  0  0  0  0  0  0  0  0  0  0
  185.5190  178.5360  142.1860 C   0  0  0  0  0  0  0  0  0  0  0  0
  182.0440  178.7680  141.2870 C   0  0  0  0  0  3  0  0  0  0  0  0
  189.5800  176.9650  144.7520 O   0  0  0  0  0  0  0  0  0  0  0  0
  192.0100  178.2980  144.5420 O   0  0  0  0  0  0  0  0  0  0  0  0
  191.2660  177.2100  146.9700 O   0  0  0  0  0  1  0  0  0  0  0  0
  191.2150  177.0050  145.2880 P   0  0  0  0  0  0  0  0  0  0  0  0
  191.9050  175.7130  144.9150 O   0  0  0  0  0  1  0  0  0  0  0  0
  183.8050  175.9710  135.0790 C   0  0  0  0  0  2  0  0  0  0  0  0
  182.3620  175.9180  134.5940 C   0  0  0  0  0  2  0  0  0  0  0  0
  181.5230  176.8190  135.3700 N   0  0  0  0  0  2  0  0  0  0  0  0
  182.2180  177.1060  136.6160 C   0  0  0  0  0  2  0  0  0  0  0  0
  181.9030  175.7220  138.6490 C   0  0  0  0  0  0  0  0  0  0  0  0
  179.6010  178.3110  137.2120 C   0  0  0  0  0  1  0  0  0  0  0  0
  179.3350  176.8880  139.2360 C   0  0  0  0  0  2  0  0  0  0  0  0
  179.0430  175.0220  140.7000 O   0  0  0  0  0  0  0  0  0  0  0  0
  179.7970  175.6420  139.9030 C   0  0  0  0  0  0  0  0  0  0  0  0
  181.3970  176.6210  137.7780 C   0  0  0  0  0  0  0  0  0  0  0  0
  181.0840  175.1670  139.6470 O   0  0  0  0  0  0  0  0  0  0  0  0
  179.9180  176.9570  137.8260 C   0  0  2  0  0  3  0  0  0  0  0  0
  183.3250  175.2370  138.5190 C   0  0  0  0  0  2  0  0  0  0  0  0
  183.4210  173.9590  137.7420 C   0  0  0  0  0  0  0  0  0  0  0  0
  182.3950  172.1680  136.1910 C   0  0  2  0  0  3  0  0  0  0  0  0
  182.1480  173.3460  137.1660 C   0  0  0  0  0  2  0  0  0  0  0  0
  183.8110  172.1510  135.6130 C   0  0  0  0  0  2  0  0  0  0  0  0
  184.6360  173.4120  137.5500 C   0  0  0  0  0  3  0  0  0  0  0  0
  184.8050  172.1490  136.7620 C   0  0  0  0  0  2  0  0  0  0  0  0
  181.3400  172.1720  135.0840 C   0  0  0  0  0  3  0  0  0  0  0  0
  180.6160  170.9720  135.0850 O   0  0  0  0  0  1  0  0  0  0  0  0
  180.4600  173.2500  135.2400 O   0  0  0  0  0  1  0  0  0  0  0  0
  187.8460  175.6130  138.2200 O   0  0  0  0  0  0  0  0  0  0  0  0
  188.1790  174.5950  136.0860 C   0  0  0  0  0  2  0  0  0  0  0  0
  188.5810  174.8020  137.3360 C   0  0  0  0  0  0  0  0  0  0  0  0
  189.7560  174.2030  137.7970 O   0  0  0  0  0  0  0  0  0  0  0  0
  190.3980  173.2670  137.0760 O   0  0  0  0  0  1  0  0  0  0  0  0
  1 11  1  0  0  0  0
  2  8  1  0  0  0  0
  3  1  1  0  0  0  0
  3  4  1  0  0  0  0
  4  9  2  0  0  0  0
  5 39  1  0  0  0  0
  5  1  2  0  0  0  0
  6  2  2  0  0  0  0
  7 61  1  6  0  0  0
  7  8  1  0  0  0  0
  8 13  1  1  0  0  0
  9 10  1  0  0  0  0
  9  6  1  0  0  0  0
 10  7  1  0  0  0  0
 11 10  2  0  0  0  0
 12 15  1  0  0  0  0
 13 12  3  0  0  0  0
 14 16  1  0  0  0  0
 15 16  2  0  0  0  0
 16 34  1  0  0  0  0
 17 14  1  6  0  0  0
 17 21  1  0  0  0  0
 18 19  1  0  0  0  0
 20 19  1  0  0  0  0
 21 24  1  0  0  0  0
 21 18  1  1  0  0  0
 22 32  1  6  0  0  0
 22 17  1  0  0  0  0
 22 23  1  0  0  0  0
 23 24  1  0  0  0  0
 24 20  1  1  0  0  0
 25 33  1  0  0  0  0
 26 30  2  0  0  0  0
 26 29  1  0  0  0  0
 28 25  2  0  0  0  0
 28 30  1  0  0  0  0
 29 32  1  0  0  0  0
 30 31  1  0  0  0  0
 31 27  1  0  0  0  0
 31 32  2  0  0  0  0
 33 27  2  0  0  0  0
 34 37  1  0  0  0  0
 35 37  2  0  0  0  0
 37 36  1  0  0  0  0
 38 37  1  0  0  0  0
 40 39  1  0  0  0  0
 40 41  1  0  0  0  0
 41 42  1  0  0  0  0
 42 48  1  0  0  0  0
 43 49  1  0  0  0  0
 45 47  1  0  0  0  0
 47 46  2  0  0  0  0
 48 50  1  0  0  0  0
 48 43  2  0  0  0  0
 49 47  1  0  0  0  0
 50 44  1  1  0  0  0
 50 45  1  0  0  0  0
 51 43  1  0  0  0  0
 52 51  1  0  0  0  0
 53 58  1  6  0  0  0
 53 54  1  0  0  0  0
 54 52  1  0  0  0  0
 55 53  1  0  0  0  0
 55 57  1  0  0  0  0
 56 52  2  0  0  0  0
 57 56  1  0  0  0  0
 58 59  1  0  0  0  0
 58 60  1  0  0  0  0
 62 63  2  0  0  0  0
 63 64  1  0  0  0  0
 63 61  1  0  0  0  0
 65 64  1  0  0  0  0
M  END
>  <MODEL>
3

>  <REMARK>
 VINA RESULT:      -6.1      3.328      9.747
  Name = 
  17 active torsions:
  status: ('A' for Active; 'I' for Inactive)
    1  A    between atoms: C_2  and  C_19
    2  A    between atoms: C_3  and  N_15
    3  A    between atoms: C_5  and  C_19
    4  A    between atoms: C_6  and  C_9
    5  A    between atoms: C_7  and  N_30
    6  A    between atoms: O_11  and  C_42
    7  A    between atoms: C_13  and  N_28
    8  A    between atoms: C_13  and  C_53
    9  A    between atoms: O_14  and  P_27
   10  A    between atoms: O_14  and  C_59
   11  A    between atoms: O_24  and  C_42
   12  A    between atoms: O_24  and  C_46
   13  A    between atoms: N_28  and  C_29
   14  A    between atoms: C_29  and  C_40
   15  A    between atoms: C_33  and  C_53
   16  A    between atoms: C_35  and  C_50
   17  A    between atoms: C_56  and  C_63
                            x       y       z     vdW  Elec       q    Type
                         _______ _______ _______ _____ _____    ______ ____

>  <TORSDO>
F 17

$$$$
