=
 OpenBabel11032420043D

 46 51  0  0  1  0  0  0  0  0999 V2000
  182.6560  179.3870  145.4140 O   0  0  0  0  0  1  0  0  0  0  0  0
  183.1160  179.0050  144.1540 C   0  0  0  0  0  0  0  0  0  0  0  0
  184.4130  177.8570  140.2060 C   0  0  0  0  0  2  0  0  0  0  0  0
  184.4610  178.6110  143.9580 C   0  0  0  0  0  0  0  0  0  0  0  0
  182.2220  179.0100  143.0720 C   0  0  0  0  0  0  0  0  0  0  0  0
  185.0460  178.9690  139.6180 O   0  0  0  0  0  0  0  0  0  0  0  0
  187.9460  178.5830  140.6130 C   0  0  0  0  0  2  0  0  0  0  0  0
  184.8910  178.2170  142.6740 C   0  0  0  0  0  0  0  0  0  0  0  0
  187.1920  177.7280  139.5970 C   0  0  0  0  0  2  0  0  0  0  0  0
  186.3470  177.8800  142.4270 C   0  0  2  0  0  3  0  0  0  0  0  0
  187.0990  177.4810  143.6620 C   0  0  0  0  0  3  0  0  0  0  0  0
  187.0480  179.0560  141.7550 C   0  0  0  0  0  2  0  0  0  0  0  0
  182.6640  178.6130  141.8000 C   0  0  0  0  0  3  0  0  0  0  0  0
  186.7090  177.8370  144.8880 C   0  0  0  0  0  0  0  0  0  0  0  0
  183.9830  178.2140  141.5970 C   0  0  0  0  0  0  0  0  0  0  0  0
  185.1840  179.0940  146.1870 O   0  0  0  0  0  0  0  0  0  0  0  0
  186.1360  178.5370  138.8230 C   0  0  1  0  0  3  0  0  0  0  0  0
  185.4320  178.5480  145.0810 C   0  0  0  0  0  0  0  0  0  0  0  0
  180.8680  179.4320  143.2710 N   0  0  0  0  0  2  0  0  0  0  0  0
  179.7240  178.5610  143.0260 C   0  0  0  0  0  1  0  0  0  0  0  0
  187.5660  177.4640  146.0520 C   0  0  0  0  0  2  0  0  0  0  0  0
  188.8540  176.8220  145.5670 C   0  0  0  0  0  2  0  0  0  0  0  0
  189.9690  177.7370  145.8060 N   0  0  0  0  0  2  0  0  0  0  0  0
  190.8940  176.4970  143.8560 C   0  0  0  0  0  2  0  0  0  0  0  0
  190.4300  178.7450  143.1920 O   0  0  0  0  0  0  0  0  0  0  0  0
  190.8290  177.4920  142.6960 C   0  0  0  0  0  2  0  0  0  0  0  0
  192.0700  178.3380  144.8910 O   0  0  0  0  0  0  0  0  0  0  0  0
  191.5160  179.2650  143.9540 C   0  0  0  0  0  2  0  0  0  0  0  0
  191.8610  176.3800  146.0320 O   0  0  0  0  0  1  0  0  0  0  0  0
  191.2030  177.2480  145.1620 C   0  0  1  0  0  0  0  0  0  0  0  0
  185.6720  177.8160  137.5540 C   0  0  0  0  0  2  0  0  0  0  0  0
  185.8000  175.7750  135.0140 Cl  0  0  0  0  0  0  0  0  0  0  0  0
  187.1270  176.5470  135.9220 C   0  0  2  0  0  3  0  0  0  0  0  0
  186.7090  177.9270  136.4440 C   0  0  2  0  0  3  0  0  0  0  0  0
  187.8980  178.6700  136.9900 C   0  0  0  0  0  3  0  0  0  0  0  0
  189.1560  178.3460  136.6640 C   0  0  0  0  0  3  0  0  0  0  0  0
  188.2900  176.6650  135.0390 N   0  0  0  0  0  2  0  0  0  0  0  0
  189.4680  177.1780  135.7590 C   0  0  2  0  0  3  0  0  0  0  0  0
  190.3050  176.0960  136.4640 C   0  0  1  0  0  3  0  0  0  0  0  0
  191.4650  174.8950  134.5940 O   0  0  0  0  0  0  0  0  0  0  0  0
  190.5430  174.8660  135.6370 C   0  0  0  0  0  0  0  0  0  0  0  0
  189.9370  173.7870  135.9230 O   0  0  0  0  0  1  0  0  0  0  0  0
  191.5230  176.6370  136.8920 O   0  0  0  0  0  0  0  0  0  0  0  0
  192.0260  176.9790  139.1850 C   0  0  0  0  0  2  0  0  0  0  0  0
  190.7110  176.2180  139.0900 C   0  0  0  0  0  2  0  0  0  0  0  0
  191.8190  175.9580  138.0840 C   0  0  0  0  0  3  0  0  0  0  0  0
  2  1  1  0  0  0  0
  3 15  1  0  0  0  0
  4  2  1  0  0  0  0
  4 18  1  0  0  0  0
  5 19  1  0  0  0  0
  5  2  2  0  0  0  0
  6  3  1  0  0  0  0
  7 12  1  0  0  0  0
  8  4  2  0  0  0  0
  9  7  1  0  0  0  0
 10 12  1  1  0  0  0
 10  8  1  0  0  0  0
 10 11  1  0  0  0  0
 11 14  2  0  0  0  0
 13  5  1  0  0  0  0
 14 18  1  0  0  0  0
 14 21  1  0  0  0  0
 15 13  2  0  0  0  0
 15  8  1  0  0  0  0
 17 31  1  6  0  0  0
 17  9  1  0  0  0  0
 17  6  1  0  0  0  0
 18 16  2  0  0  0  0
 20 19  1  0  0  0  0
 22 23  1  0  0  0  0
 22 21  1  0  0  0  0
 24 30  1  0  0  0  0
 25 28  1  0  0  0  0
 26 25  1  0  0  0  0
 26 24  1  0  0  0  0
 27 30  1  0  0  0  0
 28 27  1  0  0  0  0
 30 23  1  0  0  0  0
 30 29  1  1  0  0  0
 33 32  1  6  0  0  0
 33 34  1  0  0  0  0
 34 35  1  0  0  0  0
 34 31  1  1  0  0  0
 36 35  2  0  0  0  0
 37 38  1  0  0  0  0
 37 33  1  0  0  0  0
 38 39  1  1  0  0  0
 38 36  1  0  0  0  0
 39 41  1  6  0  0  0
 39 43  1  0  0  0  0
 40 41  2  0  0  0  0
 41 42  1  0  0  0  0
 43 46  1  0  0  0  0
 45 44  1  0  0  0  0
 46 45  1  0  0  0  0
 46 44  1  0  0  0  0
M  END
>  <MODEL>
1

>  <REMARK>
 VINA RESULT:      -8.6      0.000      0.000
  Name = 
  11 active torsions:
  status: ('A' for Active; 'I' for Inactive)
    1  A    between atoms: N_2  and  C_12
    2  A    between atoms: O_4  and  C_36
    3  A    between atoms: O_4  and  C_46
    4  A    between atoms: C_5  and  C_27
    5  A    between atoms: C_5  and  C_38
    6  A    between atoms: N_15  and  C_38
    7  A    between atoms: N_15  and  C_43
    8  A    between atoms: C_28  and  C_30
    9  A    between atoms: C_30  and  C_33
   10  A    between atoms: C_32  and  C_46
   11  A    between atoms: C_45  and  C_46
                            x       y       z     vdW  Elec       q    Type
                         _______ _______ _______ _____ _____    ______ ____

>  <TORSDO>
F 11

$$$$
=
 OpenBabel11032420043D

 46 51  0  0  1  0  0  0  0  0999 V2000
  191.3160  177.5580  145.6740 O   0  0  0  0  0  1  0  0  0  0  0  0
  189.9520  177.5990  145.3840 C   0  0  0  0  0  0  0  0  0  0  0  0
  185.7110  177.7460  144.6200 C   0  0  0  0  0  2  0  0  0  0  0  0
  189.4900  177.5370  144.0480 C   0  0  0  0  0  0  0  0  0  0  0  0
  189.0320  177.6990  146.4400 C   0  0  0  0  0  0  0  0  0  0  0  0
  185.3790  179.0710  144.2770 O   0  0  0  0  0  0  0  0  0  0  0  0
  185.8620  179.0230  141.2260 C   0  0  0  0  0  2  0  0  0  0  0  0
  188.1050  177.5670  143.7880 C   0  0  0  0  0  0  0  0  0  0  0  0
  184.7510  178.3170  142.0010 C   0  0  0  0  0  2  0  0  0  0  0  0
  187.5960  177.5930  142.3620 C   0  0  2  0  0  3  0  0  0  0  0  0
  188.5700  177.0540  141.3560 C   0  0  0  0  0  3  0  0  0  0  0  0
  187.1920  179.0130  141.9770 C   0  0  0  0  0  2  0  0  0  0  0  0
  187.6560  177.7240  146.1660 C   0  0  0  0  0  3  0  0  0  0  0  0
  189.8850  177.0110  141.5810 C   0  0  0  0  0  0  0  0  0  0  0  0
  187.1890  177.6540  144.8560 C   0  0  0  0  0  0  0  0  0  0  0  0
  191.6580  177.5820  143.0380 O   0  0  0  0  0  0  0  0  0  0  0  0
  184.3670  179.0720  143.2870 C   0  0  1  0  0  3  0  0  0  0  0  0
  190.4230  177.3880  142.9010 C   0  0  0  0  0  0  0  0  0  0  0  0
  189.5060  177.7850  147.7890 N   0  0  0  0  0  2  0  0  0  0  0  0
  188.6750  178.2560  148.8900 C   0  0  0  0  0  1  0  0  0  0  0  0
  190.7850  176.5350  140.4890 C   0  0  0  0  0  2  0  0  0  0  0  0
  190.6440  177.4290  139.2700 C   0  0  0  0  0  2  0  0  0  0  0  0
  189.6390  176.8610  138.3710 N   0  0  0  0  0  2  0  0  0  0  0  0
  189.1480  178.1540  136.3020 C   0  0  0  0  0  2  0  0  0  0  0  0
  188.0510  176.0350  136.1660 O   0  0  0  0  0  0  0  0  0  0  0  0
  188.3380  177.1950  135.4270 C   0  0  0  0  0  2  0  0  0  0  0  0
  187.4300  177.5710  137.8980 O   0  0  0  0  0  0  0  0  0  0  0  0
  187.0950  176.3930  137.1610 C   0  0  0  0  0  2  0  0  0  0  0  0
  189.0020  179.1090  138.4810 O   0  0  0  0  0  1  0  0  0  0  0  0
  188.7990  177.9210  137.7810 C   0  0  1  0  0  0  0  0  0  0  0  0
  183.0160  178.6130  143.8430 C   0  0  0  0  0  2  0  0  0  0  0  0
  179.8930  177.8830  144.4350 Cl  0  0  0  0  0  0  0  0  0  0  0  0
  180.7530  178.0310  142.8790 C   0  0  2  0  0  3  0  0  0  0  0  0
  181.8670  179.0820  142.9610 C   0  0  2  0  0  3  0  0  0  0  0  0
  182.4180  179.3770  141.5930 C   0  0  0  0  0  3  0  0  0  0  0  0
  181.7440  179.0920  140.4720 C   0  0  0  0  0  3  0  0  0  0  0  0
  179.7820  178.3930  141.8440 N   0  0  0  0  0  2  0  0  0  0  0  0
  180.3980  178.4090  140.5050 C   0  0  2  0  0  3  0  0  0  0  0  0
  180.4140  177.0430  139.7950 C   0  0  1  0  0  3  0  0  0  0  0  0
  181.7890  177.5910  137.7710 O   0  0  0  0  0  0  0  0  0  0  0  0
  181.6120  176.8200  138.9180 C   0  0  0  0  0  0  0  0  0  0  0  0
  182.4870  175.9620  139.2500 O   0  0  0  0  0  1  0  0  0  0  0  0
  180.3020  176.0130  140.7360 O   0  0  0  0  0  0  0  0  0  0  0  0
  179.4680  173.9470  139.9210 C   0  0  0  0  0  2  0  0  0  0  0  0
  178.9320  174.1590  141.3290 C   0  0  0  0  0  2  0  0  0  0  0  0
  179.1170  175.3430  140.3960 C   0  0  0  0  0  3  0  0  0  0  0  0
  2  1  1  0  0  0  0
  2  5  1  0  0  0  0
  3 15  1  0  0  0  0
  4  2  2  0  0  0  0
  5 19  1  0  0  0  0
  6  3  1  0  0  0  0
  7 12  1  0  0  0  0
  7  9  1  0  0  0  0
  8  4  1  0  0  0  0
  8 15  2  0  0  0  0
  9 17  1  0  0  0  0
 10 11  1  6  0  0  0
 10  8  1  0  0  0  0
 11 14  2  0  0  0  0
 12 10  1  0  0  0  0
 13  5  2  0  0  0  0
 14 18  1  0  0  0  0
 15 13  1  0  0  0  0
 17 31  1  1  0  0  0
 17  6  1  0  0  0  0
 18 16  2  0  0  0  0
 18  4  1  0  0  0  0
 19 20  1  0  0  0  0
 21 14  1  0  0  0  0
 22 21  1  0  0  0  0
 23 22  1  0  0  0  0
 24 30  1  0  0  0  0
 25 28  1  0  0  0  0
 26 25  1  0  0  0  0
 26 24  1  0  0  0  0
 28 27  1  0  0  0  0
 30 27  1  0  0  0  0
 30 23  1  0  0  0  0
 30 29  1  1  0  0  0
 33 34  1  0  0  0  0
 33 32  1  1  0  0  0
 34 31  1  1  0  0  0
 35 34  1  0  0  0  0
 36 38  1  0  0  0  0
 36 35  2  0  0  0  0
 37 33  1  0  0  0  0
 38 39  1  1  0  0  0
 38 37  1  0  0  0  0
 39 41  1  1  0  0  0
 39 43  1  0  0  0  0
 40 41  2  0  0  0  0
 41 42  1  0  0  0  0
 44 46  1  0  0  0  0
 44 45  1  0  0  0  0
 46 43  1  0  0  0  0
 46 45  1  0  0  0  0
M  END
>  <MODEL>
2

>  <REMARK>
 VINA RESULT:      -7.3      2.946      8.079
  Name = 
  11 active torsions:
  status: ('A' for Active; 'I' for Inactive)
    1  A    between atoms: N_2  and  C_12
    2  A    between atoms: O_4  and  C_36
    3  A    between atoms: O_4  and  C_46
    4  A    between atoms: C_5  and  C_27
    5  A    between atoms: C_5  and  C_38
    6  A    between atoms: N_15  and  C_38
    7  A    between atoms: N_15  and  C_43
    8  A    between atoms: C_28  and  C_30
    9  A    between atoms: C_30  and  C_33
   10  A    between atoms: C_32  and  C_46
   11  A    between atoms: C_45  and  C_46
                            x       y       z     vdW  Elec       q    Type
                         _______ _______ _______ _____ _____    ______ ____

>  <TORSDO>
F 11

$$$$
=
 OpenBabel11032420043D

 46 51  0  0  1  0  0  0  0  0999 V2000
  191.1820  177.4970  145.7640 O   0  0  0  0  0  1  0  0  0  0  0  0
  189.8470  177.5120  145.3610 C   0  0  0  0  0  0  0  0  0  0  0  0
  185.6820  177.5750  144.2480 C   0  0  0  0  0  2  0  0  0  0  0  0
  189.5000  177.5070  143.9890 C   0  0  0  0  0  0  0  0  0  0  0  0
  188.8390  177.5290  146.3390 C   0  0  0  0  0  0  0  0  0  0  0  0
  185.3350  178.9060  143.9460 O   0  0  0  0  0  0  0  0  0  0  0  0
  186.0720  179.0330  140.9470 C   0  0  0  0  0  2  0  0  0  0  0  0
  188.1410  177.5100  143.6140 C   0  0  0  0  0  0  0  0  0  0  0  0
  184.9250  178.2550  141.5890 C   0  0  0  0  0  2  0  0  0  0  0  0
  187.7520  177.5970  142.1530 C   0  0  2  0  0  3  0  0  0  0  0  0
  188.8240  177.1400  141.2090 C   0  0  0  0  0  3  0  0  0  0  0  0
  187.3340  179.0220  141.8080 C   0  0  0  0  0  2  0  0  0  0  0  0
  187.4910  177.5290  145.9510 C   0  0  0  0  0  3  0  0  0  0  0  0
  190.1160  177.1240  141.5420 C   0  0  0  0  0  0  0  0  0  0  0  0
  187.1370  177.5140  144.6040 C   0  0  0  0  0  0  0  0  0  0  0  0
  191.7420  177.6690  143.1700 O   0  0  0  0  0  0  0  0  0  0  0  0
  184.4100  178.9290  142.8740 C   0  0  1  0  0  3  0  0  0  0  0  0
  190.5300  177.4470  142.9190 C   0  0  0  0  0  0  0  0  0  0  0  0
  189.1960  177.5580  147.7250 N   0  0  0  0  0  2  0  0  0  0  0  0
  188.3040  178.0660  148.7610 C   0  0  0  0  0  1  0  0  0  0  0  0
  191.1200  176.7330  140.5080 C   0  0  0  0  0  2  0  0  0  0  0  0
  190.5880  177.0440  139.1200 C   0  0  0  0  0  2  0  0  0  0  0  0
  190.3800  175.7920  138.3930 N   0  0  0  0  0  2  0  0  0  0  0  0
  192.0160  174.3110  137.2410 C   0  0  0  0  0  2  0  0  0  0  0  0
  189.8070  173.6800  136.5830 O   0  0  0  0  0  0  0  0  0  0  0  0
  191.1560  173.3020  136.4760 C   0  0  0  0  0  2  0  0  0  0  0  0
  190.6160  175.8690  136.0370 O   0  0  0  0  0  0  0  0  0  0  0  0
  189.6340  174.8580  135.7990 C   0  0  0  0  0  2  0  0  0  0  0  0
  192.2830  176.6760  137.3580 O   0  0  0  0  0  1  0  0  0  0  0  0
  191.3150  175.6780  137.2570 C   0  0  1  0  0  0  0  0  0  0  0  0
  183.0330  178.4020  143.2900 C   0  0  0  0  0  2  0  0  0  0  0  0
  179.9520  178.5560  144.3450 Cl  0  0  0  0  0  0  0  0  0  0  0  0
  180.5790  178.3680  142.6860 C   0  0  2  0  0  3  0  0  0  0  0  0
  181.9190  179.0940  142.5170 C   0  0  2  0  0  3  0  0  0  0  0  0
  182.3160  179.1420  141.0660 C   0  0  0  0  0  3  0  0  0  0  0  0
  181.4320  178.9670  140.0760 C   0  0  0  0  0  3  0  0  0  0  0  0
  179.5860  178.9000  141.7500 N   0  0  0  0  0  2  0  0  0  0  0  0
  179.9790  178.6640  140.3500 C   0  0  2  0  0  3  0  0  0  0  0  0
  179.5490  177.2960  139.7900 C   0  0  1  0  0  3  0  0  0  0  0  0
  181.1310  176.3740  138.0770 O   0  0  0  0  0  1  0  0  0  0  0  0
  179.9530  177.0610  138.3630 C   0  0  0  0  0  0  0  0  0  0  0  0
  179.1950  177.4460  137.4200 O   0  0  0  0  0  0  0  0  0  0  0  0
  180.0320  176.2690  140.6080 O   0  0  0  0  0  0  0  0  0  0  0  0
  179.5640  173.9900  140.1440 C   0  0  0  0  0  2  0  0  0  0  0  0
  179.3590  174.2290  141.6330 C   0  0  0  0  0  2  0  0  0  0  0  0
  179.0060  175.3130  140.6290 C   0  0  0  0  0  3  0  0  0  0  0  0
  2  1  1  0  0  0  0
  2  5  1  0  0  0  0
  3 15  1  0  0  0  0
  4  2  2  0  0  0  0
  5 19  1  0  0  0  0
  6  3  1  0  0  0  0
  7  9  1  0  0  0  0
  7 12  1  0  0  0  0
  8  4  1  0  0  0  0
  8 15  2  0  0  0  0
  9 17  1  0  0  0  0
 10 11  1  6  0  0  0
 10  8  1  0  0  0  0
 11 14  2  0  0  0  0
 12 10  1  0  0  0  0
 13  5  2  0  0  0  0
 14 18  1  0  0  0  0
 15 13  1  0  0  0  0
 17 31  1  1  0  0  0
 17  6  1  0  0  0  0
 18 16  2  0  0  0  0
 18  4  1  0  0  0  0
 19 20  1  0  0  0  0
 21 14  1  0  0  0  0
 22 21  1  0  0  0  0
 23 22  1  0  0  0  0
 24 30  1  0  0  0  0
 26 25  1  0  0  0  0
 26 24  1  0  0  0  0
 27 30  1  0  0  0  0
 28 27  1  0  0  0  0
 28 25  1  0  0  0  0
 30 29  1  1  0  0  0
 30 23  1  0  0  0  0
 33 32  1  1  0  0  0
 34 33  1  0  0  0  0
 34 31  1  1  0  0  0
 35 34  1  0  0  0  0
 36 38  1  0  0  0  0
 36 35  2  0  0  0  0
 37 33  1  0  0  0  0
 38 39  1  1  0  0  0
 38 37  1  0  0  0  0
 39 41  1  6  0  0  0
 39 43  1  0  0  0  0
 40 41  1  0  0  0  0
 42 41  2  0  0  0  0
 43 46  1  0  0  0  0
 44 46  1  0  0  0  0
 44 45  1  0  0  0  0
 46 45  1  0  0  0  0
M  END
>  <MODEL>
3

>  <REMARK>
 VINA RESULT:      -7.1      3.028      8.234
  Name = 
  11 active torsions:
  status: ('A' for Active; 'I' for Inactive)
    1  A    between atoms: N_2  and  C_12
    2  A    between atoms: O_4  and  C_36
    3  A    between atoms: O_4  and  C_46
    4  A    between atoms: C_5  and  C_27
    5  A    between atoms: C_5  and  C_38
    6  A    between atoms: N_15  and  C_38
    7  A    between atoms: N_15  and  C_43
    8  A    between atoms: C_28  and  C_30
    9  A    between atoms: C_30  and  C_33
   10  A    between atoms: C_32  and  C_46
   11  A    between atoms: C_45  and  C_46
                            x       y       z     vdW  Elec       q    Type
                         _______ _______ _______ _____ _____    ______ ____

>  <TORSDO>
F 11

$$$$
=
 OpenBabel11032420043D

 46 51  0  0  1  0  0  0  0  0999 V2000
  188.3480  177.0500  145.1400 O   0  0  0  0  0  1  0  0  0  0  0  0
  188.1860  177.4420  143.8110 C   0  0  0  0  0  0  0  0  0  0  0  0
  187.8130  178.6130  139.6790 C   0  0  0  0  0  2  0  0  0  0  0  0
  186.9340  177.8960  143.3340 C   0  0  0  0  0  0  0  0  0  0  0  0
  189.2880  177.3850  142.9430 C   0  0  0  0  0  0  0  0  0  0  0  0
  187.2670  177.5260  138.9690 O   0  0  0  0  0  0  0  0  0  0  0  0
  184.2440  178.0570  139.3250 C   0  0  0  0  0  2  0  0  0  0  0  0
  186.8050  178.2980  141.9890 C   0  0  0  0  0  0  0  0  0  0  0  0
  185.2370  178.8670  138.4930 C   0  0  0  0  0  2  0  0  0  0  0  0
  185.4530  178.7000  141.4380 C   0  0  2  0  0  3  0  0  0  0  0  0
  184.4760  179.1460  142.4850 C   0  0  0  0  0  3  0  0  0  0  0  0
  184.8550  177.5520  140.6310 C   0  0  0  0  0  2  0  0  0  0  0  0
  189.1460  177.7910  141.6070 C   0  0  0  0  0  3  0  0  0  0  0  0
  184.5790  178.7830  143.7650 C   0  0  0  0  0  0  0  0  0  0  0  0
  187.9210  178.2490  141.1290 C   0  0  0  0  0  0  0  0  0  0  0  0
  185.7320  177.4680  145.3580 O   0  0  0  0  0  0  0  0  0  0  0  0
  186.3930  178.0010  137.9610 C   0  0  1  0  0  3  0  0  0  0  0  0
  185.7500  178.0150  144.2240 C   0  0  0  0  0  0  0  0  0  0  0  0
  190.5470  176.9020  143.4250 N   0  0  0  0  0  2  0  0  0  0  0  0
  191.5560  177.7750  144.0150 C   0  0  0  0  0  1  0  0  0  0  0  0
  183.5120  179.2070  144.7210 C   0  0  0  0  0  2  0  0  0  0  0  0
  182.2630  179.6150  143.9600 C   0  0  0  0  0  2  0  0  0  0  0  0
  181.3680  178.4640  143.8500 N   0  0  0  0  0  2  0  0  0  0  0  0
  180.0070  180.1860  142.6770 C   0  0  0  0  0  2  0  0  0  0  0  0
  180.8440  178.6330  141.0640 O   0  0  0  0  0  0  0  0  0  0  0  0
  180.1480  179.8480  141.1910 C   0  0  0  0  0  2  0  0  0  0  0  0
  179.3470  177.8640  142.7700 O   0  0  0  0  0  0  0  0  0  0  0  0
  179.9730  177.5980  141.5130 C   0  0  0  0  0  2  0  0  0  0  0  0
  179.2760  179.1090  144.6730 O   0  0  0  0  0  1  0  0  0  0  0  0
  179.9990  178.8890  143.5020 C   0  0  1  0  0  0  0  0  0  0  0  0
  187.1500  178.6880  136.8200 C   0  0  0  0  0  2  0  0  0  0  0  0
  184.6790  177.1330  135.3670 Cl  0  0  0  0  0  0  0  0  0  0  0  0
  186.3450  176.5790  135.6820 C   0  0  2  0  0  3  0  0  0  0  0  0
  187.3340  177.7500  135.6340 C   0  0  2  0  0  3  0  0  0  0  0  0
  188.7520  177.2470  135.6530 C   0  0  0  0  0  3  0  0  0  0  0  0
  189.0690  175.9880  135.3240 C   0  0  0  0  0  3  0  0  0  0  0  0
  186.6970  175.5700  134.6810 N   0  0  0  0  0  2  0  0  0  0  0  0
  188.0160  174.9720  134.9540 C   0  0  2  0  0  3  0  0  0  0  0  0
  187.9860  173.7780  135.9240 C   0  0  1  0  0  3  0  0  0  0  0  0
  190.0980  172.5450  135.3730 O   0  0  0  0  0  0  0  0  0  0  0  0
  189.3420  173.2570  136.3010 C   0  0  0  0  0  0  0  0  0  0  0  0
  189.8170  173.5090  137.4510 O   0  0  0  0  0  1  0  0  0  0  0  0
  187.2560  174.1100  137.0710 O   0  0  0  0  0  0  0  0  0  0  0  0
  185.0900  173.3220  137.6350 C   0  0  0  0  0  2  0  0  0  0  0  0
  185.5000  172.6940  136.3110 C   0  0  0  0  0  2  0  0  0  0  0  0
  186.5380  172.9470  137.3900 C   0  0  0  0  0  3  0  0  0  0  0  0
  2  1  1  0  0  0  0
  3 15  1  0  0  0  0
  4  2  1  0  0  0  0
  4 18  1  0  0  0  0
  5 19  1  0  0  0  0
  5  2  2  0  0  0  0
  6  3  1  0  0  0  0
  7 12  1  0  0  0  0
  8  4  2  0  0  0  0
  9  7  1  0  0  0  0
 10 12  1  1  0  0  0
 10  8  1  0  0  0  0
 10 11  1  0  0  0  0
 11 14  2  0  0  0  0
 13  5  1  0  0  0  0
 14 18  1  0  0  0  0
 14 21  1  0  0  0  0
 15 13  2  0  0  0  0
 15  8  1  0  0  0  0
 17 31  1  6  0  0  0
 17  9  1  0  0  0  0
 17  6  1  0  0  0  0
 18 16  2  0  0  0  0
 19 20  1  0  0  0  0
 22 21  1  0  0  0  0
 23 22  1  0  0  0  0
 24 30  1  0  0  0  0
 25 26  1  0  0  0  0
 25 28  1  0  0  0  0
 26 24  1  0  0  0  0
 27 30  1  0  0  0  0
 28 27  1  0  0  0  0
 30 23  1  0  0  0  0
 30 29  1  1  0  0  0
 33 32  1  6  0  0  0
 34 35  1  0  0  0  0
 34 33  1  0  0  0  0
 34 31  1  1  0  0  0
 36 35  2  0  0  0  0
 37 38  1  0  0  0  0
 37 33  1  0  0  0  0
 38 36  1  0  0  0  0
 38 39  1  1  0  0  0
 39 41  1  1  0  0  0
 39 43  1  0  0  0  0
 40 41  2  0  0  0  0
 41 42  1  0  0  0  0
 43 46  1  0  0  0  0
 45 46  1  0  0  0  0
 45 44  1  0  0  0  0
 46 44  1  0  0  0  0
M  END
>  <MODEL>
4

>  <REMARK>
 VINA RESULT:      -7.0      2.114      6.341
  Name = 
  11 active torsions:
  status: ('A' for Active; 'I' for Inactive)
    1  A    between atoms: N_2  and  C_12
    2  A    between atoms: O_4  and  C_36
    3  A    between atoms: O_4  and  C_46
    4  A    between atoms: C_5  and  C_27
    5  A    between atoms: C_5  and  C_38
    6  A    between atoms: N_15  and  C_38
    7  A    between atoms: N_15  and  C_43
    8  A    between atoms: C_28  and  C_30
    9  A    between atoms: C_30  and  C_33
   10  A    between atoms: C_32  and  C_46
   11  A    between atoms: C_45  and  C_46
                            x       y       z     vdW  Elec       q    Type
                         _______ _______ _______ _____ _____    ______ ____

>  <TORSDO>
F 11

$$$$
=
 OpenBabel11032420043D

 46 51  0  0  1  0  0  0  0  0999 V2000
  190.9450  175.8140  139.0370 O   0  0  0  0  0  1  0  0  0  0  0  0
  189.7400  176.5130  138.9550 C   0  0  0  0  0  0  0  0  0  0  0  0
  186.0030  178.6270  138.5700 C   0  0  0  0  0  2  0  0  0  0  0  0
  189.2070  177.1790  140.0830 C   0  0  0  0  0  0  0  0  0  0  0  0
  189.0580  176.5530  137.7290 C   0  0  0  0  0  0  0  0  0  0  0  0
  184.9800  177.7880  139.0510 O   0  0  0  0  0  0  0  0  0  0  0  0
  185.0020  178.5040  142.0570 C   0  0  0  0  0  2  0  0  0  0  0  0
  187.9940  177.8880  139.9640 C   0  0  0  0  0  0  0  0  0  0  0  0
  184.5460  179.3850  140.8960 C   0  0  0  0  0  2  0  0  0  0  0  0
  187.3620  178.5310  141.1810 C   0  0  2  0  0  3  0  0  0  0  0  0
  188.3290  178.8140  142.2930 C   0  0  0  0  0  3  0  0  0  0  0  0
  186.2240  177.6590  141.7000 C   0  0  0  0  0  2  0  0  0  0  0  0
  187.8530  177.2650  137.6250 C   0  0  0  0  0  3  0  0  0  0  0  0
  189.4850  178.1600  142.4230 C   0  0  0  0  0  0  0  0  0  0  0  0
  187.3230  177.9330  138.7250 C   0  0  0  0  0  0  0  0  0  0  0  0
  190.8670  176.4140  141.6260 O   0  0  0  0  0  0  0  0  0  0  0  0
  183.9980  178.5610  139.7170 C   0  0  1  0  0  3  0  0  0  0  0  0
  189.9140  177.2010  141.3900 C   0  0  0  0  0  0  0  0  0  0  0  0
  189.5900  175.8570  136.5960 N   0  0  0  0  0  2  0  0  0  0  0  0
  190.1810  176.5430  135.4520 C   0  0  0  0  0  1  0  0  0  0  0  0
  190.3460  178.4520  143.6090 C   0  0  0  0  0  2  0  0  0  0  0  0
  189.9590  177.5510  144.7690 C   0  0  0  0  0  2  0  0  0  0  0  0
  189.2080  178.3300  145.7530 N   0  0  0  0  0  2  0  0  0  0  0  0
  187.8010  178.2490  147.8040 C   0  0  0  0  0  2  0  0  0  0  0  0
  186.4180  178.8230  145.9410 O   0  0  0  0  0  0  0  0  0  0  0  0
  186.4120  178.6930  147.3410 C   0  0  0  0  0  2  0  0  0  0  0  0
  187.5120  176.6910  145.9790 O   0  0  0  0  0  0  0  0  0  0  0  0
  186.4960  177.5090  145.3940 C   0  0  0  0  0  2  0  0  0  0  0  0
  189.3860  176.5520  147.2640 O   0  0  0  0  0  1  0  0  0  0  0  0
  188.4840  177.4450  146.6860 C   0  0  1  0  0  0  0  0  0  0  0  0
  183.1810  179.4160  138.7450 C   0  0  0  0  0  2  0  0  0  0  0  0
  180.9040  178.3320  140.8130 Cl  0  0  0  0  0  0  0  0  0  0  0  0
  181.5040  177.6070  139.2960 C   0  0  2  0  0  3  0  0  0  0  0  0
  181.9200  178.6900  138.2940 C   0  0  2  0  0  3  0  0  0  0  0  0
  182.1880  178.0870  136.9420 C   0  0  0  0  0  3  0  0  0  0  0  0
  181.7130  176.8850  136.5880 C   0  0  0  0  0  3  0  0  0  0  0  0
  180.4450  176.7670  138.7320 N   0  0  0  0  0  2  0  0  0  0  0  0
  180.9120  176.0330  137.5430 C   0  0  2  0  0  3  0  0  0  0  0  0
  181.6010  174.6920  137.8510 C   0  0  1  0  0  3  0  0  0  0  0  0
  179.6150  173.3340  138.5560 O   0  0  0  0  0  1  0  0  0  0  0  0
  180.7080  173.4940  137.7080 C   0  0  0  0  0  0  0  0  0  0  0  0
  180.9240  172.6530  136.7810 O   0  0  0  0  0  0  0  0  0  0  0  0
  182.7430  174.5450  137.0560 O   0  0  0  0  0  0  0  0  0  0  0  0
  184.7140  173.3400  137.5950 C   0  0  0  0  0  2  0  0  0  0  0  0
  185.1080  174.7610  137.2180 C   0  0  0  0  0  2  0  0  0  0  0  0
  183.8120  174.5000  137.9640 C   0  0  0  0  0  3  0  0  0  0  0  0
  2  1  1  0  0  0  0
  2  4  1  0  0  0  0
  3 15  1  0  0  0  0
  3  6  1  0  0  0  0
  4 18  1  0  0  0  0
  5  2  2  0  0  0  0
  6 17  1  0  0  0  0
  8  4  2  0  0  0  0
  8 10  1  0  0  0  0
  9  7  1  0  0  0  0
 10 12  1  1  0  0  0
 10 11  1  0  0  0  0
 11 14  2  0  0  0  0
 12  7  1  0  0  0  0
 13  5  1  0  0  0  0
 13 15  2  0  0  0  0
 14 21  1  0  0  0  0
 15  8  1  0  0  0  0
 17 31  1  6  0  0  0
 17  9  1  0  0  0  0
 18 16  2  0  0  0  0
 18 14  1  0  0  0  0
 19  5  1  0  0  0  0
 20 19  1  0  0  0  0
 21 22  1  0  0  0  0
 22 23  1  0  0  0  0
 23 30  1  0  0  0  0
 25 26  1  0  0  0  0
 26 24  1  0  0  0  0
 27 30  1  0  0  0  0
 28 25  1  0  0  0  0
 28 27  1  0  0  0  0
 30 29  1  1  0  0  0
 30 24  1  0  0  0  0
 33 32  1  1  0  0  0
 34 31  1  1  0  0  0
 34 33  1  0  0  0  0
 35 34  1  0  0  0  0
 36 35  2  0  0  0  0
 36 38  1  0  0  0  0
 37 33  1  0  0  0  0
 38 39  1  1  0  0  0
 38 37  1  0  0  0  0
 39 43  1  6  0  0  0
 41 39  1  0  0  0  0
 41 40  1  0  0  0  0
 42 41  2  0  0  0  0
 43 46  1  0  0  0  0
 44 46  1  0  0  0  0
 45 44  1  0  0  0  0
 45 46  1  0  0  0  0
M  END
>  <MODEL>
5

>  <REMARK>
 VINA RESULT:      -6.9      3.344      6.780
  Name = 
  11 active torsions:
  status: ('A' for Active; 'I' for Inactive)
    1  A    between atoms: N_2  and  C_12
    2  A    between atoms: O_4  and  C_36
    3  A    between atoms: O_4  and  C_46
    4  A    between atoms: C_5  and  C_27
    5  A    between atoms: C_5  and  C_38
    6  A    between atoms: N_15  and  C_38
    7  A    between atoms: N_15  and  C_43
    8  A    between atoms: C_28  and  C_30
    9  A    between atoms: C_30  and  C_33
   10  A    between atoms: C_32  and  C_46
   11  A    between atoms: C_45  and  C_46
                            x       y       z     vdW  Elec       q    Type
                         _______ _______ _______ _____ _____    ______ ____

>  <TORSDO>
F 11

$$$$
=
 OpenBabel11032420043D

 46 51  0  0  1  0  0  0  0  0999 V2000
  182.8700  176.4170  134.5940 O   0  0  0  0  0  1  0  0  0  0  0  0
  183.4130  176.7710  135.8290 C   0  0  0  0  0  0  0  0  0  0  0  0
  185.2010  177.9200  139.5800 C   0  0  0  0  0  2  0  0  0  0  0  0
  182.6780  176.5940  137.0250 C   0  0  0  0  0  0  0  0  0  0  0  0
  184.7090  177.3080  135.8750 C   0  0  0  0  0  0  0  0  0  0  0  0
  184.7180  179.2000  139.9150 O   0  0  0  0  0  0  0  0  0  0  0  0
  182.1350  178.4670  141.4440 C   0  0  0  0  0  2  0  0  0  0  0  0
  183.2600  176.9510  138.2580 C   0  0  0  0  0  0  0  0  0  0  0  0
  183.5770  178.2420  141.8960 C   0  0  0  0  0  2  0  0  0  0  0  0
  182.4560  176.8530  139.5380 C   0  0  2  0  0  3  0  0  0  0  0  0
  181.3030  175.8960  139.4630 C   0  0  0  0  0  3  0  0  0  0  0  0
  181.9530  178.2340  139.9450 C   0  0  0  0  0  2  0  0  0  0  0  0
  185.2770  177.6550  137.1110 C   0  0  0  0  0  3  0  0  0  0  0  0
  180.7390  175.5400  138.3070 C   0  0  0  0  0  0  0  0  0  0  0  0
  184.5670  177.4760  138.2960 C   0  0  0  0  0  0  0  0  0  0  0  0
  180.6610  175.8650  135.9660 O   0  0  0  0  0  0  0  0  0  0  0  0
  184.5400  179.2940  141.3170 C   0  0  1  0  0  3  0  0  0  0  0  0
  181.3200  175.9910  137.0300 C   0  0  0  0  0  0  0  0  0  0  0  0
  185.4400  177.5070  134.6590 N   0  0  0  0  0  2  0  0  0  0  0  0
  186.8740  177.7700  134.6320 C   0  0  0  0  0  1  0  0  0  0  0  0
  179.5430  174.6470  138.3360 C   0  0  0  0  0  2  0  0  0  0  0  0
  179.7050  173.5230  137.3280 C   0  0  0  0  0  2  0  0  0  0  0  0
  180.8020  172.6530  137.7510 N   0  0  0  0  0  2  0  0  0  0  0  0
  181.4490  172.5070  135.3510 C   0  0  0  0  0  2  0  0  0  0  0  0
  183.3530  173.1920  136.6240 O   0  0  0  0  0  0  0  0  0  0  0  0
  182.8970  173.0000  135.3080 C   0  0  0  0  0  2  0  0  0  0  0  0
  182.3800  171.0400  137.0300 O   0  0  0  0  0  0  0  0  0  0  0  0
  183.5050  171.9030  137.2120 C   0  0  0  0  0  2  0  0  0  0  0  0
  180.1930  170.8060  136.4500 O   0  0  0  0  0  1  0  0  0  0  0  0
  181.2040  171.7420  136.6620 C   0  0  1  0  0  0  0  0  0  0  0  0
  185.8750  179.3280  142.0660 C   0  0  0  0  0  2  0  0  0  0  0  0
  184.6180  179.4620  145.0720 Cl  0  0  0  0  0  0  0  0  0  0  0  0
  186.1280  178.7020  144.5020 C   0  0  2  0  0  3  0  0  0  0  0  0
  185.9780  178.1840  143.0660 C   0  0  2  0  0  3  0  0  0  0  0  0
  187.1580  177.3340  142.6830 C   0  0  0  0  0  3  0  0  0  0  0  0
  187.9670  176.7790  143.5960 C   0  0  0  0  0  3  0  0  0  0  0  0
  186.4680  177.6040  145.4100 N   0  0  0  0  0  2  0  0  0  0  0  0
  187.7740  177.0090  145.0750 C   0  0  2  0  0  3  0  0  0  0  0  0
  188.9790  177.7130  145.7220 C   0  0  1  0  0  3  0  0  0  0  0  0
  190.0790  176.3550  147.5200 O   0  0  0  0  0  0  0  0  0  0  0  0
  189.1900  177.3680  147.1680 C   0  0  0  0  0  0  0  0  0  0  0  0
  188.5930  178.0340  148.0700 O   0  0  0  0  0  1  0  0  0  0  0  0
  190.1400  177.4500  144.9860 O   0  0  0  0  0  0  0  0  0  0  0  0
  191.8290  178.9860  144.3420 C   0  0  0  0  0  2  0  0  0  0  0  0
  191.3060  178.2960  143.0910 C   0  0  0  0  0  2  0  0  0  0  0  0
  190.3630  178.6160  144.2380 C   0  0  0  0  0  3  0  0  0  0  0  0
  1  2  1  0  0  0  0
  2  5  2  0  0  0  0
  2  4  1  0  0  0  0
  3  6  1  0  0  0  0
  4 18  1  0  0  0  0
  4  8  2  0  0  0  0
  5 13  1  0  0  0  0
  6 17  1  0  0  0  0
  7  9  1  0  0  0  0
  8 15  1  0  0  0  0
  8 10  1  0  0  0  0
 10 11  1  6  0  0  0
 10 12  1  0  0  0  0
 12  7  1  0  0  0  0
 13 15  2  0  0  0  0
 14 21  1  0  0  0  0
 14 11  2  0  0  0  0
 15  3  1  0  0  0  0
 16 18  2  0  0  0  0
 17  9  1  0  0  0  0
 17 31  1  1  0  0  0
 18 14  1  0  0  0  0
 19  5  1  0  0  0  0
 20 19  1  0  0  0  0
 22 23  1  0  0  0  0
 22 21  1  0  0  0  0
 24 30  1  0  0  0  0
 25 28  1  0  0  0  0
 26 24  1  0  0  0  0
 26 25  1  0  0  0  0
 27 28  1  0  0  0  0
 30 29  1  6  0  0  0
 30 27  1  0  0  0  0
 30 23  1  0  0  0  0
 33 32  1  1  0  0  0
 33 37  1  0  0  0  0
 34 31  1  6  0  0  0
 34 33  1  0  0  0  0
 35 34  1  0  0  0  0
 35 36  2  0  0  0  0
 36 38  1  0  0  0  0
 38 37  1  0  0  0  0
 38 39  1  6  0  0  0
 39 43  1  6  0  0  0
 39 41  1  0  0  0  0
 41 40  2  0  0  0  0
 41 42  1  0  0  0  0
 45 46  1  0  0  0  0
 45 44  1  0  0  0  0
 46 44  1  0  0  0  0
 46 43  1  0  0  0  0
M  END
>  <MODEL>
6

>  <REMARK>
 VINA RESULT:      -6.7      4.449      9.455
  Name = 
  11 active torsions:
  status: ('A' for Active; 'I' for Inactive)
    1  A    between atoms: N_2  and  C_12
    2  A    between atoms: O_4  and  C_36
    3  A    between atoms: O_4  and  C_46
    4  A    between atoms: C_5  and  C_27
    5  A    between atoms: C_5  and  C_38
    6  A    between atoms: N_15  and  C_38
    7  A    between atoms: N_15  and  C_43
    8  A    between atoms: C_28  and  C_30
    9  A    between atoms: C_30  and  C_33
   10  A    between atoms: C_32  and  C_46
   11  A    between atoms: C_45  and  C_46
                            x       y       z     vdW  Elec       q    Type
                         _______ _______ _______ _____ _____    ______ ____

>  <TORSDO>
F 11

$$$$
=
 OpenBabel11032420043D

 46 51  0  0  1  0  0  0  0  0999 V2000
  192.5790  177.5610  142.1110 O   0  0  0  0  0  1  0  0  0  0  0  0
  191.3270  177.4770  141.5010 C   0  0  0  0  0  0  0  0  0  0  0  0
  187.4010  177.2480  139.7360 C   0  0  0  0  0  2  0  0  0  0  0  0
  191.2100  177.2910  140.1030 C   0  0  0  0  0  0  0  0  0  0  0  0
  190.1730  177.5770  142.2940 C   0  0  0  0  0  0  0  0  0  0  0  0
  187.0860  178.5170  139.2150 O   0  0  0  0  0  0  0  0  0  0  0  0
  188.3010  178.3020  136.3820 C   0  0  0  0  0  2  0  0  0  0  0  0
  189.9310  177.1970  139.5180 C   0  0  0  0  0  0  0  0  0  0  0  0
  187.0780  177.5670  136.9250 C   0  0  0  0  0  2  0  0  0  0  0  0
  189.7850  177.0890  138.0140 C   0  0  2  0  0  3  0  0  0  0  0  0
  191.0050  176.5600  137.3200 C   0  0  0  0  0  3  0  0  0  0  0  0
  189.4060  178.4440  137.4280 C   0  0  0  0  0  2  0  0  0  0  0  0
  188.9070  177.4790  141.6980 C   0  0  0  0  0  3  0  0  0  0  0  0
  192.2250  176.6320  137.8550 C   0  0  0  0  0  0  0  0  0  0  0  0
  188.7780  177.2850  140.3250 C   0  0  0  0  0  0  0  0  0  0  0  0
  193.5530  177.4340  139.6410 O   0  0  0  0  0  0  0  0  0  0  0  0
  186.3480  178.3740  138.0140 C   0  0  1  0  0  3  0  0  0  0  0  0
  192.4020  177.1370  139.2290 C   0  0  0  0  0  0  0  0  0  0  0  0
  190.2980  177.7890  143.7050 N   0  0  0  0  0  2  0  0  0  0  0  0
  189.1710  177.6770  144.6240 C   0  0  0  0  0  1  0  0  0  0  0  0
  193.3910  176.1550  137.0540 C   0  0  0  0  0  2  0  0  0  0  0  0
  193.9860  174.9100  137.6880 C   0  0  0  0  0  2  0  0  0  0  0  0
  195.2740  175.2460  138.2940 N   0  0  0  0  0  2  0  0  0  0  0  0
  197.0900  173.7060  137.5690 C   0  0  0  0  0  2  0  0  0  0  0  0
  198.0720  175.6260  138.5980 O   0  0  0  0  0  0  0  0  0  0  0  0
  198.3860  174.4540  137.8900 C   0  0  0  0  0  2  0  0  0  0  0  0
  196.6610  174.1900  139.8970 O   0  0  0  0  0  0  0  0  0  0  0  0
  197.6370  175.2340  139.8970 C   0  0  0  0  0  2  0  0  0  0  0  0
  195.1500  172.9510  138.7300 O   0  0  0  0  0  1  0  0  0  0  0  0
  196.0320  174.0270  138.6360 C   0  0  1  0  0  0  0  0  0  0  0  0
  184.9310  177.8510  138.2680 C   0  0  0  0  0  2  0  0  0  0  0  0
  185.0020  178.7850  141.3910 Cl  0  0  0  0  0  0  0  0  0  0  0  0
  183.6160  178.6370  140.2780 C   0  0  2  0  0  3  0  0  0  0  0  0
  184.0320  178.9420  138.8340 C   0  0  2  0  0  3  0  0  0  0  0  0
  182.8220  179.0570  137.9470 C   0  0  0  0  0  3  0  0  0  0  0  0
  181.5960  179.2880  138.4350 C   0  0  0  0  0  3  0  0  0  0  0  0
  182.5670  179.5610  140.7150 N   0  0  0  0  0  2  0  0  0  0  0  0
  181.3380  179.4020  139.9180 C   0  0  2  0  0  3  0  0  0  0  0  0
  180.3800  178.3140  140.4330 C   0  0  1  0  0  3  0  0  0  0  0  0
  179.4410  176.9230  138.5700 O   0  0  0  0  0  0  0  0  0  0  0  0
  180.3660  177.0630  139.6030 C   0  0  0  0  0  0  0  0  0  0  0  0
  181.2290  176.1560  139.8130 O   0  0  0  0  0  1  0  0  0  0  0  0
  180.6750  178.0090  141.7670 O   0  0  0  0  0  0  0  0  0  0  0  0
  179.8570  178.3280  143.9710 C   0  0  0  0  0  2  0  0  0  0  0  0
  179.9190  179.6830  143.2800 C   0  0  0  0  0  2  0  0  0  0  0  0
  179.5520  178.4390  142.4910 C   0  0  0  0  0  3  0  0  0  0  0  0
  2  1  1  0  0  0  0
  2  5  1  0  0  0  0
  3 15  1  0  0  0  0
  4  2  2  0  0  0  0
  5 19  1  0  0  0  0
  6  3  1  0  0  0  0
  7  9  1  0  0  0  0
  7 12  1  0  0  0  0
  8  4  1  0  0  0  0
  8 15  2  0  0  0  0
  9 17  1  0  0  0  0
 10 11  1  6  0  0  0
 10  8  1  0  0  0  0
 11 14  2  0  0  0  0
 12 10  1  0  0  0  0
 13  5  2  0  0  0  0
 14 18  1  0  0  0  0
 15 13  1  0  0  0  0
 17 31  1  1  0  0  0
 17  6  1  0  0  0  0
 18 16  2  0  0  0  0
 18  4  1  0  0  0  0
 19 20  1  0  0  0  0
 21 22  1  0  0  0  0
 21 14  1  0  0  0  0
 22 23  1  0  0  0  0
 23 30  1  0  0  0  0
 24 26  1  0  0  0  0
 24 30  1  0  0  0  0
 25 28  1  0  0  0  0
 26 25  1  0  0  0  0
 27 28  1  0  0  0  0
 30 29  1  1  0  0  0
 30 27  1  0  0  0  0
 33 37  1  0  0  0  0
 33 32  1  1  0  0  0
 34 31  1  6  0  0  0
 34 33  1  0  0  0  0
 35 36  2  0  0  0  0
 35 34  1  0  0  0  0
 36 38  1  0  0  0  0
 38 39  1  1  0  0  0
 38 37  1  0  0  0  0
 39 41  1  6  0  0  0
 39 43  1  0  0  0  0
 40 41  2  0  0  0  0
 41 42  1  0  0  0  0
 43 46  1  0  0  0  0
 45 44  1  0  0  0  0
 46 45  1  0  0  0  0
 46 44  1  0  0  0  0
M  END
>  <MODEL>
7

>  <REMARK>
 VINA RESULT:      -6.7      3.514      8.574
  Name = 
  11 active torsions:
  status: ('A' for Active; 'I' for Inactive)
    1  A    between atoms: N_2  and  C_12
    2  A    between atoms: O_4  and  C_36
    3  A    between atoms: O_4  and  C_46
    4  A    between atoms: C_5  and  C_27
    5  A    between atoms: C_5  and  C_38
    6  A    between atoms: N_15  and  C_38
    7  A    between atoms: N_15  and  C_43
    8  A    between atoms: C_28  and  C_30
    9  A    between atoms: C_30  and  C_33
   10  A    between atoms: C_32  and  C_46
   11  A    between atoms: C_45  and  C_46
                            x       y       z     vdW  Elec       q    Type
                         _______ _______ _______ _____ _____    ______ ____

>  <TORSDO>
F 11

$$$$
=
 OpenBabel11032420043D

 46 51  0  0  1  0  0  0  0  0999 V2000
  187.2160  177.3030  147.5310 O   0  0  0  0  0  1  0  0  0  0  0  0
  187.7310  177.5150  146.2520 C   0  0  0  0  0  0  0  0  0  0  0  0
  189.4440  178.1190  142.3420 C   0  0  0  0  0  2  0  0  0  0  0  0
  186.9050  177.9830  145.2030 C   0  0  0  0  0  0  0  0  0  0  0  0
  189.0910  177.2620  146.0140 C   0  0  0  0  0  0  0  0  0  0  0  0
  189.1520  176.9830  141.5620 O   0  0  0  0  0  0  0  0  0  0  0  0
  186.3950  177.7630  140.4050 C   0  0  0  0  0  2  0  0  0  0  0  0
  187.4590  178.2000  143.9250 C   0  0  0  0  0  0  0  0  0  0  0  0
  187.7520  178.3790  140.0670 C   0  0  0  0  0  2  0  0  0  0  0  0
  186.5720  178.6120  142.7690 C   0  0  2  0  0  3  0  0  0  0  0  0
  185.2880  179.2650  143.1870 C   0  0  0  0  0  3  0  0  0  0  0  0
  186.2710  177.4060  141.8850 C   0  0  0  0  0  2  0  0  0  0  0  0
  189.6290  177.4860  144.7380 C   0  0  0  0  0  3  0  0  0  0  0  0
  184.7460  179.0790  144.3930 C   0  0  0  0  0  0  0  0  0  0  0  0
  188.8280  177.9550  143.6990 C   0  0  0  0  0  0  0  0  0  0  0  0
  184.8660  177.9250  146.4540 O   0  0  0  0  0  0  0  0  0  0  0  0
  188.9050  177.3710  140.2230 C   0  0  1  0  0  3  0  0  0  0  0  0
  185.4700  178.3050  145.4170 C   0  0  0  0  0  0  0  0  0  0  0  0
  189.9180  176.7670  147.0740 N   0  0  0  0  0  2  0  0  0  0  0  0
  191.3130  176.3900  146.8790 C   0  0  0  0  0  1  0  0  0  0  0  0
  183.4230  179.7040  144.6910 C   0  0  0  0  0  2  0  0  0  0  0  0
  182.3020  178.7340  144.3610 C   0  0  0  0  0  2  0  0  0  0  0  0
  181.7610  179.0550  143.0410 N   0  0  0  0  0  2  0  0  0  0  0  0
  179.5100  180.0970  143.2450 C   0  0  0  0  0  2  0  0  0  0  0  0
  180.3670  180.5330  141.0570 O   0  0  0  0  0  0  0  0  0  0  0  0
  179.3050  180.8420  141.9240 C   0  0  0  0  0  2  0  0  0  0  0  0
  179.9530  178.2700  141.7270 O   0  0  0  0  0  0  0  0  0  0  0  0
  180.2030  179.1770  140.6510 C   0  0  0  0  0  2  0  0  0  0  0  0
  179.9680  177.8720  143.9670 O   0  0  0  0  0  1  0  0  0  0  0  0
  180.3070  178.8080  142.9910 C   0  0  1  0  0  0  0  0  0  0  0  0
  190.1790  177.8380  139.5140 C   0  0  0  0  0  2  0  0  0  0  0  0
  189.0550  179.3810  136.8700 Cl  0  0  0  0  0  0  0  0  0  0  0  0
  189.0520  177.6400  137.2600 C   0  0  2  0  0  3  0  0  0  0  0  0
  190.2730  177.2620  138.1070 C   0  0  2  0  0  3  0  0  0  0  0  0
  190.3960  175.7670  138.2230 C   0  0  0  0  0  3  0  0  0  0  0  0
  189.7950  174.9310  137.3660 C   0  0  0  0  0  3  0  0  0  0  0  0
  189.0440  176.8820  136.0070 N   0  0  0  0  0  2  0  0  0  0  0  0
  188.9120  175.4350  136.2500 C   0  0  2  0  0  3  0  0  0  0  0  0
  187.4610  174.9400  136.3800 C   0  0  1  0  0  3  0  0  0  0  0  0
  186.8360  173.0830  137.9440 O   0  0  0  0  0  1  0  0  0  0  0  0
  187.3350  173.4800  136.7050 C   0  0  0  0  0  0  0  0  0  0  0  0
  187.6390  172.6100  135.8320 O   0  0  0  0  0  0  0  0  0  0  0  0
  186.7750  175.7100  137.3270 O   0  0  0  0  0  0  0  0  0  0  0  0
  184.9600  177.2350  137.2390 C   0  0  0  0  0  2  0  0  0  0  0  0
  185.5230  177.0770  135.8340 C   0  0  0  0  0  2  0  0  0  0  0  0
  185.4940  175.8920  136.7830 C   0  0  0  0  0  3  0  0  0  0  0  0
  2  1  1  0  0  0  0
  3 15  1  0  0  0  0
  4 18  1  0  0  0  0
  4  2  2  0  0  0  0
  5  2  1  0  0  0  0
  5 19  1  0  0  0  0
  6  3  1  0  0  0  0
  7 12  1  0  0  0  0
  8  4  1  0  0  0  0
  9 17  1  0  0  0  0
  9  7  1  0  0  0  0
 10 12  1  1  0  0  0
 10 11  1  0  0  0  0
 10  8  1  0  0  0  0
 11 14  2  0  0  0  0
 13  5  2  0  0  0  0
 14 21  1  0  0  0  0
 14 18  1  0  0  0  0
 15  8  2  0  0  0  0
 15 13  1  0  0  0  0
 17 31  1  1  0  0  0
 17  6  1  0  0  0  0
 18 16  2  0  0  0  0
 20 19  1  0  0  0  0
 22 21  1  0  0  0  0
 23 22  1  0  0  0  0
 25 26  1  0  0  0  0
 26 24  1  0  0  0  0
 27 30  1  0  0  0  0
 28 25  1  0  0  0  0
 28 27  1  0  0  0  0
 30 23  1  0  0  0  0
 30 24  1  0  0  0  0
 30 29  1  1  0  0  0
 33 32  1  6  0  0  0
 33 34  1  0  0  0  0
 34 35  1  0  0  0  0
 34 31  1  1  0  0  0
 36 35  2  0  0  0  0
 37 38  1  0  0  0  0
 37 33  1  0  0  0  0
 38 39  1  1  0  0  0
 38 36  1  0  0  0  0
 39 41  1  1  0  0  0
 39 43  1  0  0  0  0
 41 40  1  0  0  0  0
 42 41  2  0  0  0  0
 45 46  1  0  0  0  0
 45 44  1  0  0  0  0
 46 44  1  0  0  0  0
 46 43  1  0  0  0  0
M  END
>  <MODEL>
8

>  <REMARK>
 VINA RESULT:      -6.7      2.266      6.609
  Name = 
  11 active torsions:
  status: ('A' for Active; 'I' for Inactive)
    1  A    between atoms: N_2  and  C_12
    2  A    between atoms: O_4  and  C_36
    3  A    between atoms: O_4  and  C_46
    4  A    between atoms: C_5  and  C_27
    5  A    between atoms: C_5  and  C_38
    6  A    between atoms: N_15  and  C_38
    7  A    between atoms: N_15  and  C_43
    8  A    between atoms: C_28  and  C_30
    9  A    between atoms: C_30  and  C_33
   10  A    between atoms: C_32  and  C_46
   11  A    between atoms: C_45  and  C_46
                            x       y       z     vdW  Elec       q    Type
                         _______ _______ _______ _____ _____    ______ ____

>  <TORSDO>
F 11

$$$$
=
 OpenBabel11032420043D

 46 51  0  0  1  0  0  0  0  0999 V2000
  188.7650  176.7590  145.3010 O   0  0  0  0  0  1  0  0  0  0  0  0
  189.4480  176.8900  144.0910 C   0  0  0  0  0  0  0  0  0  0  0  0
  191.6670  177.2390  140.4120 C   0  0  0  0  0  2  0  0  0  0  0  0
  188.7860  177.3550  142.9290 C   0  0  0  0  0  0  0  0  0  0  0  0
  190.8100  176.5580  144.0370 C   0  0  0  0  0  0  0  0  0  0  0  0
  191.4120  176.0880  139.6410 O   0  0  0  0  0  0  0  0  0  0  0  0
  188.8700  176.9600  138.1160 C   0  0  0  0  0  2  0  0  0  0  0  0
  189.5070  177.4890  141.7250 C   0  0  0  0  0  0  0  0  0  0  0  0
  190.2900  177.4910  137.9320 C   0  0  0  0  0  2  0  0  0  0  0  0
  188.7970  177.8980  140.4520 C   0  0  2  0  0  3  0  0  0  0  0  0
  187.5090  178.6330  140.6810 C   0  0  0  0  0  3  0  0  0  0  0  0
  188.5420  176.6720  139.5800 C   0  0  0  0  0  2  0  0  0  0  0  0
  191.5150  176.6990  142.8320 C   0  0  0  0  0  3  0  0  0  0  0  0
  186.8120  178.5260  141.8130 C   0  0  0  0  0  0  0  0  0  0  0  0
  190.8790  177.1650  141.6840 C   0  0  0  0  0  0  0  0  0  0  0  0
  186.6080  177.4550  143.9120 O   0  0  0  0  0  0  0  0  0  0  0  0
  191.3560  176.4320  138.2690 C   0  0  1  0  0  3  0  0  0  0  0  0
  187.3570  177.7590  142.9480 C   0  0  0  0  0  0  0  0  0  0  0  0
  191.4690  176.0660  145.2100 N   0  0  0  0  0  2  0  0  0  0  0  0
  191.6550  176.8730  146.4100 C   0  0  0  0  0  1  0  0  0  0  0  0
  185.4990  179.2300  141.9190 C   0  0  0  0  0  2  0  0  0  0  0  0
  184.3820  178.3260  141.4270 C   0  0  0  0  0  2  0  0  0  0  0  0
  183.3610  179.1390  140.7660 N   0  0  0  0  0  2  0  0  0  0  0  0
  184.0450  177.8280  138.7630 C   0  0  0  0  0  2  0  0  0  0  0  0
  181.7500  177.3640  139.2420 O   0  0  0  0  0  0  0  0  0  0  0  0
  182.8210  176.9780  138.4180 C   0  0  0  0  0  2  0  0  0  0  0  0
  182.3990  179.5940  138.6490 O   0  0  0  0  0  0  0  0  0  0  0  0
  181.3320  178.6580  138.8150 C   0  0  0  0  0  2  0  0  0  0  0  0
  184.5760  180.1360  139.0330 O   0  0  0  0  0  1  0  0  0  0  0  0
  183.5890  179.1910  139.3090 C   0  0  1  0  0  0  0  0  0  0  0  0
  192.7340  176.8030  137.7120 C   0  0  0  0  0  2  0  0  0  0  0  0
  191.8840  173.6970  137.1950 Cl  0  0  0  0  0  0  0  0  0  0  0  0
  193.3390  174.5830  136.6650 C   0  0  2  0  0  3  0  0  0  0  0  0
  193.0230  176.0620  136.4130 C   0  0  2  0  0  3  0  0  0  0  0  0
  194.1810  176.7430  135.7350 C   0  0  0  0  0  3  0  0  0  0  0  0
  195.1290  176.0610  135.0800 C   0  0  0  0  0  3  0  0  0  0  0  0
  193.8480  173.9530  135.4450 N   0  0  0  0  0  2  0  0  0  0  0  0
  195.1250  174.5520  135.0180 C   0  0  2  0  0  3  0  0  0  0  0  0
  196.3710  173.9330  135.6750 C   0  0  1  0  0  3  0  0  0  0  0  0
  196.4490  174.5620  138.1000 O   0  0  0  0  0  1  0  0  0  0  0  0
  196.9350  174.7410  136.8070 C   0  0  0  0  0  0  0  0  0  0  0  0
  197.8890  175.5510  136.5910 O   0  0  0  0  0  0  0  0  0  0  0  0
  196.0910  172.6300  136.1000 O   0  0  0  0  0  0  0  0  0  0  0  0
  197.1960  170.8260  137.1730 C   0  0  0  0  0  2  0  0  0  0  0  0
  197.3060  170.6290  135.6680 C   0  0  0  0  0  2  0  0  0  0  0  0
  197.3480  172.0260  136.2610 C   0  0  0  0  0  3  0  0  0  0  0  0
  2  1  1  0  0  0  0
  3 15  1  0  0  0  0
  4 18  1  0  0  0  0
  4  2  2  0  0  0  0
  5  2  1  0  0  0  0
  5 19  1  0  0  0  0
  6  3  1  0  0  0  0
  7 12  1  0  0  0  0
  8  4  1  0  0  0  0
  9  7  1  0  0  0  0
  9 17  1  0  0  0  0
 10 12  1  6  0  0  0
 10 11  1  0  0  0  0
 10  8  1  0  0  0  0
 11 14  2  0  0  0  0
 13  5  2  0  0  0  0
 14 21  1  0  0  0  0
 14 18  1  0  0  0  0
 15  8  2  0  0  0  0
 15 13  1  0  0  0  0
 17 31  1  1  0  0  0
 17  6  1  0  0  0  0
 18 16  2  0  0  0  0
 19 20  1  0  0  0  0
 22 21  1  0  0  0  0
 23 22  1  0  0  0  0
 24 30  1  0  0  0  0
 26 24  1  0  0  0  0
 26 25  1  0  0  0  0
 27 28  1  0  0  0  0
 27 30  1  0  0  0  0
 28 25  1  0  0  0  0
 30 29  1  6  0  0  0
 30 23  1  0  0  0  0
 33 32  1  6  0  0  0
 34 33  1  0  0  0  0
 34 31  1  1  0  0  0
 35 34  1  0  0  0  0
 36 35  2  0  0  0  0
 37 33  1  0  0  0  0
 38 36  1  0  0  0  0
 38 37  1  0  0  0  0
 38 39  1  1  0  0  0
 39 43  1  1  0  0  0
 39 41  1  0  0  0  0
 41 40  1  0  0  0  0
 42 41  2  0  0  0  0
 43 46  1  0  0  0  0
 45 46  1  0  0  0  0
 45 44  1  0  0  0  0
 46 44  1  0  0  0  0
M  END
>  <MODEL>
9

>  <REMARK>
 VINA RESULT:      -6.6      3.616      7.355
  Name = 
  11 active torsions:
  status: ('A' for Active; 'I' for Inactive)
    1  A    between atoms: N_2  and  C_12
    2  A    between atoms: O_4  and  C_36
    3  A    between atoms: O_4  and  C_46
    4  A    between atoms: C_5  and  C_27
    5  A    between atoms: C_5  and  C_38
    6  A    between atoms: N_15  and  C_38
    7  A    between atoms: N_15  and  C_43
    8  A    between atoms: C_28  and  C_30
    9  A    between atoms: C_30  and  C_33
   10  A    between atoms: C_32  and  C_46
   11  A    between atoms: C_45  and  C_46
                            x       y       z     vdW  Elec       q    Type
                         _______ _______ _______ _____ _____    ______ ____

>  <TORSDO>
F 11

$$$$
