=
 OpenBabel11032419193D

 25 29  0  0  1  0  0  0  0  0999 V2000
  189.0750  176.9000  141.4880 C   0  0  0  0  0  2  0  0  0  0  0  0
  188.3960  177.6510  142.5430 N   0  0  2  0  0  0  0  0  0  0  0  0
  188.6330  177.8520  140.3990 C   0  0  0  0  0  2  0  0  0  0  0  0
  187.9790  178.6170  141.5280 C   0  0  1  0  0  3  0  0  0  0  0  0
  190.8570  176.5500  147.5510 C   0  0  0  0  0  3  0  0  0  0  0  0
  188.7860  177.9190  147.8910 C   0  0  0  0  0  1  0  0  0  0  0  0
  190.8350  177.0580  144.8450 C   0  0  0  0  0  0  0  0  0  0  0  0
  191.8460  176.0190  146.7060 C   0  0  0  0  0  0  0  0  0  0  0  0
  190.6880  177.4170  143.4230 C   0  0  0  0  0  2  0  0  0  0  0  0
  191.8200  176.2820  145.3670 N   0  0  0  0  0  0  0  0  0  0  0  0
  192.8790  175.2060  147.2490 N   0  0  0  0  0  1  0  0  0  0  0  0
  189.4110  178.2820  143.3890 C   0  0  2  0  0  3  0  0  0  0  0  0
  189.8540  177.5940  145.6320 C   0  0  0  0  0  0  0  0  0  0  0  0
  188.8980  178.3990  144.8420 C   0  0  0  0  0  2  0  0  0  0  0  0
  189.8430  177.3510  147.0070 C   0  0  0  0  0  0  0  0  0  0  0  0
  184.3120  178.5700  139.9890 C   0  0  0  0  0  3  0  0  0  0  0  0
  183.6530  178.6690  141.1380 C   0  0  0  0  0  0  0  0  0  0  0  0
  185.8310  178.5490  140.0050 C   0  0  0  0  0  3  0  0  0  0  0  0
  182.2520  178.7060  141.3500 N   0  0  0  0  0  0  0  0  0  0  0  0
  186.4840  178.6410  141.3940 C   0  0  0  0  0  0  0  0  0  0  0  0
  184.3060  178.7540  142.3990 C   0  0  2  0  0  3  0  0  0  0  0  0
  182.0650  178.8020  142.6090 N   0  0  0  0  0  0  0  0  0  0  0  0
  185.7600  178.7380  142.5210 C   0  0  0  0  0  3  0  0  0  0  0  0
  183.4940  178.9390  144.7610 C   0  0  0  0  0  1  0  0  0  0  0  0
  183.3310  178.8340  143.2840 C   0  0  0  0  0  0  0  0  0  0  0  0
  2  1  1  6  0  0  0
  2 12  1  0  0  0  0
  3  1  1  0  0  0  0
  3  4  1  0  0  0  0
  4 20  1  6  0  0  0
  4  2  1  0  0  0  0
  7 10  2  0  0  0  0
  7 13  1  0  0  0  0
  8 11  1  0  0  0  0
  8  5  2  0  0  0  0
  9  7  1  0  0  0  0
 10  8  1  0  0  0  0
 12  9  1  1  0  0  0
 12 14  1  0  0  0  0
 13 15  2  0  0  0  0
 14 13  1  0  0  0  0
 15  5  1  0  0  0  0
 15  6  1  0  0  0  0
 16 18  2  0  0  0  0
 16 17  1  0  0  0  0
 17 19  2  0  0  0  0
 17 21  1  0  0  0  0
 18 20  1  0  0  0  0
 19 22  1  0  0  0  0
 20 23  2  0  0  0  0
 21 23  1  1  0  0  0
 21 25  1  0  0  0  0
 22 25  2  0  0  0  0
 25 24  1  0  0  0  0
M  END
>  <MODEL>
1

>  <REMARK>
 VINA RESULT:      -9.2      0.000      0.000
  Name = 
  2 active torsions:
  status: ('A' for Active; 'I' for Inactive)
    1  A    between atoms: N_11  and  C_17
    2  A    between atoms: C_14  and  C_24
                            x       y       z     vdW  Elec       q    Type
                         _______ _______ _______ _____ _____    ______ ____

>  <TORSDO>
F 2

$$$$
=
 OpenBabel11032419193D

 25 29  0  0  1  0  0  0  0  0999 V2000
  188.5220  178.6880  141.4860 C   0  0  0  0  0  2  0  0  0  0  0  0
  189.3350  177.5310  141.8610 N   0  0  2  0  0  0  0  0  0  0  0  0
  188.3350  178.2110  140.0630 C   0  0  0  0  0  2  0  0  0  0  0  0
  189.1470  177.0150  140.5060 C   0  0  1  0  0  3  0  0  0  0  0  0
  187.3750  177.9940  147.1800 C   0  0  0  0  0  3  0  0  0  0  0  0
  189.6760  177.0040  147.1920 C   0  0  0  0  0  1  0  0  0  0  0  0
  187.1420  177.5970  144.4660 C   0  0  0  0  0  0  0  0  0  0  0  0
  186.2100  178.3710  146.4900 C   0  0  0  0  0  0  0  0  0  0  0  0
  187.1660  177.3230  143.0170 C   0  0  0  0  0  2  0  0  0  0  0  0
  186.1110  178.1670  145.1440 N   0  0  0  0  0  0  0  0  0  0  0  0
  185.1300  178.9670  147.1980 N   0  0  0  0  0  1  0  0  0  0  0  0
  188.5590  176.7000  142.7830 C   0  0  2  0  0  3  0  0  0  0  0  0
  188.2910  177.2160  145.0980 C   0  0  0  0  0  0  0  0  0  0  0  0
  189.2640  176.6230  144.1550 C   0  0  0  0  0  2  0  0  0  0  0  0
  188.4350  177.4060  146.4750 C   0  0  0  0  0  0  0  0  0  0  0  0
  193.0250  177.2280  139.6480 C   0  0  0  0  0  3  0  0  0  0  0  0
  192.9430  176.7510  138.4120 C   0  0  0  0  0  0  0  0  0  0  0  0
  191.7570  177.3700  140.4740 C   0  0  0  0  0  2  0  0  0  0  0  0
  193.9900  176.5370  137.4790 N   0  0  0  0  0  0  0  0  0  0  0  0
  190.4580  176.9290  139.7800 C   0  0  0  0  0  0  0  0  0  0  0  0
  191.7140  176.3570  137.8140 C   0  0  0  0  0  0  0  0  0  0  0  0
  193.4570  176.0620  136.4200 N   0  0  0  0  0  0  0  0  0  0  0  0
  190.4430  176.4520  138.5240 C   0  0  0  0  0  3  0  0  0  0  0  0
  191.0990  175.4190  135.5760 C   0  0  0  0  0  1  0  0  0  0  0  0
  192.0390  175.9410  136.6050 C   0  0  0  0  0  0  0  0  0  0  0  0
  2  1  1  6  0  0  0
  2 12  1  0  0  0  0
  3  4  1  0  0  0  0
  3  1  1  0  0  0  0
  4 20  1  6  0  0  0
  4  2  1  0  0  0  0
  7 13  2  0  0  0  0
  7 10  1  0  0  0  0
  8  5  1  0  0  0  0
  8 11  1  0  0  0  0
  9  7  1  0  0  0  0
 10  8  2  0  0  0  0
 12  9  1  1  0  0  0
 12 14  1  0  0  0  0
 13 15  1  0  0  0  0
 14 13  1  0  0  0  0
 15  5  2  0  0  0  0
 15  6  1  0  0  0  0
 16 18  1  0  0  0  0
 17 16  2  0  0  0  0
 19 17  1  0  0  0  0
 20 18  1  0  0  0  0
 21 17  1  0  0  0  0
 21 23  1  0  0  0  0
 22 25  1  0  0  0  0
 22 19  2  0  0  0  0
 23 20  2  0  0  0  0
 24 25  1  0  0  0  0
 25 21  2  0  0  0  0
M  END
>  <MODEL>
2

>  <REMARK>
 VINA RESULT:      -9.1      3.721      6.894
  Name = 
  2 active torsions:
  status: ('A' for Active; 'I' for Inactive)
    1  A    between atoms: N_11  and  C_17
    2  A    between atoms: C_14  and  C_24
                            x       y       z     vdW  Elec       q    Type
                         _______ _______ _______ _____ _____    ______ ____

>  <TORSDO>
F 2

$$$$
=
 OpenBabel11032419193D

 25 29  0  0  1  0  0  0  0  0999 V2000
  190.5180  176.5860  142.5920 C   0  0  0  0  0  2  0  0  0  0  0  0
  189.7550  177.8240  142.4350 N   0  0  2  0  0  0  0  0  0  0  0  0
  189.2790  175.7320  142.7360 C   0  0  0  0  0  2  0  0  0  0  0  0
  188.5310  177.0310  142.5310 C   0  0  1  0  0  3  0  0  0  0  0  0
  189.4790  175.4830  137.2580 C   0  0  0  0  0  3  0  0  0  0  0  0
  191.8190  175.3430  138.1450 C   0  0  0  0  0  1  0  0  0  0  0  0
  188.7670  177.2780  139.2210 C   0  0  0  0  0  0  0  0  0  0  0  0
  188.1750  176.0030  137.3270 C   0  0  0  0  0  0  0  0  0  0  0  0
  188.5380  178.2260  140.3270 C   0  0  0  0  0  2  0  0  0  0  0  0
  187.8390  176.8920  138.3070 N   0  0  0  0  0  0  0  0  0  0  0  0
  187.2010  175.6000  136.3720 N   0  0  0  0  0  1  0  0  0  0  0  0
  189.8990  178.2840  141.0520 C   0  0  2  0  0  3  0  0  0  0  0  0
  190.0460  176.7980  139.1890 C   0  0  0  0  0  0  0  0  0  0  0  0
  190.8690  177.3620  140.2810 C   0  0  0  0  0  2  0  0  0  0  0  0
  190.4330  175.8870  138.2040 C   0  0  0  0  0  0  0  0  0  0  0  0
  187.4760  177.7500  146.2970 C   0  0  0  0  0  3  0  0  0  0  0  0
  186.2400  178.1610  146.0430 C   0  0  0  0  0  0  0  0  0  0  0  0
  188.3680  177.3240  145.1430 C   0  0  0  0  0  3  0  0  0  0  0  0
  185.2520  178.6010  146.9600 N   0  0  0  0  0  2  0  0  0  0  0  0
  187.7370  177.4160  143.7440 C   0  0  0  0  0  0  0  0  0  0  0  0
  185.7020  178.2270  144.7280 C   0  0  0  0  0  0  0  0  0  0  0  0
  184.2150  178.9040  146.2780 N   0  0  0  0  0  0  0  0  0  0  0  0
  186.4770  177.8430  143.5540 C   0  0  0  0  0  3  0  0  0  0  0  0
  183.4850  178.9290  143.7970 C   0  0  0  0  0  1  0  0  0  0  0  0
  184.4720  178.6790  144.8840 C   0  0  0  0  0  0  0  0  0  0  0  0
  1  3  1  0  0  0  0
  2  4  1  0  0  0  0
  2  1  1  6  0  0  0
  4  3  1  0  0  0  0
  4 20  1  1  0  0  0
  5  8  2  0  0  0  0
  5 15  1  0  0  0  0
  6 15  1  0  0  0  0
  7  9  1  0  0  0  0
  8 10  1  0  0  0  0
  9 12  1  0  0  0  0
 10  7  2  0  0  0  0
 11  8  1  0  0  0  0
 12 14  1  6  0  0  0
 12  2  1  0  0  0  0
 13  7  1  0  0  0  0
 13 14  1  0  0  0  0
 15 13  2  0  0  0  0
 17 16  1  0  0  0  0
 17 19  1  0  0  0  0
 18 16  2  0  0  0  0
 20 18  1  0  0  0  0
 21 25  1  0  0  0  0
 21 17  2  0  0  0  0
 22 19  1  0  0  0  0
 23 20  2  0  0  0  0
 23 21  1  0  0  0  0
 24 25  1  0  0  0  0
 25 22  2  0  0  0  0
M  END
>  <MODEL>
3

>  <REMARK>
 VINA RESULT:      -9.1      2.967      6.196
  Name = 
  2 active torsions:
  status: ('A' for Active; 'I' for Inactive)
    1  A    between atoms: N_11  and  C_17
    2  A    between atoms: C_14  and  C_24
                            x       y       z     vdW  Elec       q    Type
                         _______ _______ _______ _____ _____    ______ ____

>  <TORSDO>
F 2

$$$$
=
 OpenBabel11032419193D

 25 29  0  0  1  0  0  0  0  0999 V2000
  184.7560  177.9460  146.3060 C   0  0  0  0  0  2  0  0  0  0  0  0
  185.6080  178.1980  145.1430 N   0  0  2  0  0  0  0  0  0  0  0  0
  185.7170  178.6070  147.2680 C   0  0  0  0  0  2  0  0  0  0  0  0
  186.5460  178.8800  146.0330 C   0  0  1  0  0  3  0  0  0  0  0  0
  181.5720  178.2410  141.1360 C   0  0  0  0  0  3  0  0  0  0  0  0
  183.8200  177.8780  140.0910 C   0  0  0  0  0  1  0  0  0  0  0  0
  182.7230  178.9980  143.5200 C   0  0  0  0  0  0  0  0  0  0  0  0
  180.7810  178.6060  142.2390 C   0  0  0  0  0  0  0  0  0  0  0  0
  183.4820  179.3780  144.7250 C   0  0  0  0  0  2  0  0  0  0  0  0
  181.3680  178.9790  143.4130 N   0  0  0  0  0  0  0  0  0  0  0  0
  179.3630  178.5860  142.1310 N   0  0  0  0  0  1  0  0  0  0  0  0
  184.9560  179.2050  144.3030 C   0  0  2  0  0  3  0  0  0  0  0  0
  183.5280  178.6520  142.4720 C   0  0  0  0  0  0  0  0  0  0  0  0
  184.9600  178.7510  142.8260 C   0  0  0  0  0  2  0  0  0  0  0  0
  182.9690  178.2640  141.2520 C   0  0  0  0  0  0  0  0  0  0  0  0
  189.8160  177.0330  147.3440 C   0  0  0  0  0  3  0  0  0  0  0  0
  190.3490  176.7840  146.1540 C   0  0  0  0  0  0  0  0  0  0  0  0
  188.4870  177.7670  147.4230 C   0  0  0  0  0  2  0  0  0  0  0  0
  191.5650  176.1200  145.8550 N   0  0  0  0  0  0  0  0  0  0  0  0
  187.8630  178.1610  146.0740 C   0  0  0  0  0  0  0  0  0  0  0  0
  189.7310  177.1720  144.9330 C   0  0  0  0  0  0  0  0  0  0  0  0
  191.6800  176.1020  144.5830 N   0  0  0  0  0  0  0  0  0  0  0  0
  188.4540  177.8780  144.9010 C   0  0  0  0  0  3  0  0  0  0  0  0
  190.3480  176.9130  142.5190 C   0  0  0  0  0  1  0  0  0  0  0  0
  190.5490  176.7520  143.9860 C   0  0  0  0  0  0  0  0  0  0  0  0
  1  3  1  0  0  0  0
  2  4  1  0  0  0  0
  2  1  1  1  0  0  0
  4 20  1  1  0  0  0
  4  3  1  0  0  0  0
  5 15  2  0  0  0  0
  5  8  1  0  0  0  0
  6 15  1  0  0  0  0
  7  9  1  0  0  0  0
  8 10  2  0  0  0  0
 10  7  1  0  0  0  0
 11  8  1  0  0  0  0
 12 14  1  6  0  0  0
 12  9  1  0  0  0  0
 12  2  1  0  0  0  0
 13 14  1  0  0  0  0
 13  7  2  0  0  0  0
 15 13  1  0  0  0  0
 16 18  1  0  0  0  0
 17 16  2  0  0  0  0
 19 17  1  0  0  0  0
 20 18  1  0  0  0  0
 21 17  1  0  0  0  0
 22 19  2  0  0  0  0
 23 21  1  0  0  0  0
 23 20  2  0  0  0  0
 24 25  1  0  0  0  0
 25 22  1  0  0  0  0
 25 21  2  0  0  0  0
M  END
>  <MODEL>
4

>  <REMARK>
 VINA RESULT:      -8.8      1.701      8.423
  Name = 
  2 active torsions:
  status: ('A' for Active; 'I' for Inactive)
    1  A    between atoms: N_11  and  C_17
    2  A    between atoms: C_14  and  C_24
                            x       y       z     vdW  Elec       q    Type
                         _______ _______ _______ _____ _____    ______ ____

>  <TORSDO>
F 2

$$$$
=
 OpenBabel11032419193D

 25 29  0  0  1  0  0  0  0  0999 V2000
  190.7760  178.2510  144.3510 C   0  0  0  0  0  2  0  0  0  0  0  0
  190.4610  176.9570  143.7460 N   0  0  2  0  0  0  0  0  0  0  0  0
  190.1700  179.0350  143.2090 C   0  0  0  0  0  2  0  0  0  0  0  0
  189.8310  177.6760  142.6400 C   0  0  1  0  0  3  0  0  0  0  0  0
  186.2350  178.6790  147.1400 C   0  0  0  0  0  3  0  0  0  0  0  0
  188.3350  178.3650  148.4700 C   0  0  0  0  0  1  0  0  0  0  0  0
  187.3140  177.3430  144.9880 C   0  0  0  0  0  0  0  0  0  0  0  0
  185.4970  178.4930  145.9580 C   0  0  0  0  0  0  0  0  0  0  0  0
  188.0260  176.6110  143.9250 C   0  0  0  0  0  2  0  0  0  0  0  0
  186.0480  177.8280  144.9010 N   0  0  0  0  0  0  0  0  0  0  0  0
  184.1710  179.0000  145.8640 N   0  0  0  0  0  1  0  0  0  0  0  0
  189.4100  176.3190  144.5400 C   0  0  2  0  0  3  0  0  0  0  0  0
  188.0650  177.5010  146.1180 C   0  0  0  0  0  0  0  0  0  0  0  0
  189.4040  176.8900  145.9750 C   0  0  0  0  0  2  0  0  0  0  0  0
  187.5400  178.1750  147.2240 C   0  0  0  0  0  0  0  0  0  0  0  0
  192.7090  177.2060  139.9360 C   0  0  0  0  0  3  0  0  0  0  0  0
  191.9200  176.9020  138.9130 C   0  0  0  0  0  0  0  0  0  0  0  0
  192.0850  177.5030  141.2900 C   0  0  0  0  0  2  0  0  0  0  0  0
  192.2890  176.5920  137.5780 N   0  0  0  0  0  0  0  0  0  0  0  0
  190.5510  177.4140  141.3510 C   0  0  0  0  0  0  0  0  0  0  0  0
  190.5040  176.8340  139.0200 C   0  0  0  0  0  0  0  0  0  0  0  0
  191.2100  176.3600  136.9360 N   0  0  0  0  0  0  0  0  0  0  0  0
  189.8090  177.0990  140.2760 C   0  0  0  0  0  3  0  0  0  0  0  0
  188.6660  176.3040  137.4030 C   0  0  0  0  0  1  0  0  0  0  0  0
  190.0840  176.5050  137.8140 C   0  0  0  0  0  0  0  0  0  0  0  0
  2  1  1  1  0  0  0
  2 12  1  0  0  0  0
  3  1  1  0  0  0  0
  4 20  1  6  0  0  0
  4  3  1  0  0  0  0
  4  2  1  0  0  0  0
  5 15  1  0  0  0  0
  7 13  1  0  0  0  0
  8  5  2  0  0  0  0
  9  7  1  0  0  0  0
 10  7  2  0  0  0  0
 10  8  1  0  0  0  0
 11  8  1  0  0  0  0
 12  9  1  6  0  0  0
 12 14  1  0  0  0  0
 13 15  2  0  0  0  0
 14 13  1  0  0  0  0
 15  6  1  0  0  0  0
 16 18  1  0  0  0  0
 17 21  1  0  0  0  0
 17 16  2  0  0  0  0
 18 20  1  0  0  0  0
 19 17  1  0  0  0  0
 21 23  1  0  0  0  0
 22 19  2  0  0  0  0
 22 25  1  0  0  0  0
 23 20  2  0  0  0  0
 24 25  1  0  0  0  0
 25 21  2  0  0  0  0
M  END
>  <MODEL>
5

>  <REMARK>
 VINA RESULT:      -8.6      3.059      6.240
  Name = 
  2 active torsions:
  status: ('A' for Active; 'I' for Inactive)
    1  A    between atoms: N_11  and  C_17
    2  A    between atoms: C_14  and  C_24
                            x       y       z     vdW  Elec       q    Type
                         _______ _______ _______ _____ _____    ______ ____

>  <TORSDO>
F 2

$$$$
=
 OpenBabel11032419193D

 25 29  0  0  1  0  0  0  0  0999 V2000
  188.9120  177.0560  141.5380 C   0  0  0  0  0  2  0  0  0  0  0  0
  188.3500  177.6630  142.7440 N   0  0  2  0  0  0  0  0  0  0  0  0
  188.2870  178.0820  140.6200 C   0  0  0  0  0  2  0  0  0  0  0  0
  187.7580  178.6970  141.8960 C   0  0  1  0  0  3  0  0  0  0  0  0
  191.0120  176.6070  147.6580 C   0  0  0  0  0  3  0  0  0  0  0  0
  189.0410  178.1030  148.0500 C   0  0  0  0  0  1  0  0  0  0  0  0
  190.8730  177.0160  144.9390 C   0  0  0  0  0  0  0  0  0  0  0  0
  191.9240  175.9900  146.7840 C   0  0  0  0  0  0  0  0  0  0  0  0
  190.6700  177.3300  143.5130 C   0  0  0  0  0  2  0  0  0  0  0  0
  191.8410  176.2050  145.4390 N   0  0  0  0  0  0  0  0  0  0  0  0
  192.9390  175.1400  147.3050 N   0  0  0  0  0  1  0  0  0  0  0  0
  189.4420  178.2650  143.5110 C   0  0  2  0  0  3  0  0  0  0  0  0
  189.9670  177.6350  145.7530 C   0  0  0  0  0  0  0  0  0  0  0  0
  189.0150  178.4640  144.9820 C   0  0  0  0  0  2  0  0  0  0  0  0
  190.0160  177.4440  147.1360 C   0  0  0  0  0  0  0  0  0  0  0  0
  184.0330  178.3770  143.2510 C   0  0  0  0  0  3  0  0  0  0  0  0
  183.4210  178.5780  142.0900 C   0  0  0  0  0  0  0  0  0  0  0  0
  185.5520  178.3910  143.3010 C   0  0  0  0  0  2  0  0  0  0  0  0
  182.0290  178.6070  141.8210 N   0  0  0  0  0  0  0  0  0  0  0  0
  186.2600  178.6500  141.9610 C   0  0  0  0  0  0  0  0  0  0  0  0
  184.1240  178.8120  140.8760 C   0  0  0  0  0  0  0  0  0  0  0  0
  181.8930  178.8350  140.5720 N   0  0  0  0  0  0  0  0  0  0  0  0
  185.5810  178.8480  140.8190 C   0  0  0  0  0  3  0  0  0  0  0  0
  183.4070  179.2400  138.5140 C   0  0  0  0  0  1  0  0  0  0  0  0
  183.1850  178.9670  139.9610 C   0  0  0  0  0  0  0  0  0  0  0  0
  2  1  1  6  0  0  0
  2 12  1  0  0  0  0
  3  1  1  0  0  0  0
  3  4  1  0  0  0  0
  4 20  1  6  0  0  0
  4  2  1  0  0  0  0
  7 10  2  0  0  0  0
  7 13  1  0  0  0  0
  8 11  1  0  0  0  0
  8  5  2  0  0  0  0
  9  7  1  0  0  0  0
 10  8  1  0  0  0  0
 12  9  1  1  0  0  0
 12 14  1  0  0  0  0
 13 15  2  0  0  0  0
 14 13  1  0  0  0  0
 15  5  1  0  0  0  0
 15  6  1  0  0  0  0
 16 18  1  0  0  0  0
 17 16  2  0  0  0  0
 19 17  1  0  0  0  0
 20 18  1  0  0  0  0
 21 17  1  0  0  0  0
 22 19  2  0  0  0  0
 23 21  1  0  0  0  0
 23 20  2  0  0  0  0
 24 25  1  0  0  0  0
 25 22  1  0  0  0  0
 25 21  2  0  0  0  0
M  END
>  <MODEL>
6

>  <REMARK>
 VINA RESULT:      -8.5      0.653      1.832
  Name = 
  2 active torsions:
  status: ('A' for Active; 'I' for Inactive)
    1  A    between atoms: N_11  and  C_17
    2  A    between atoms: C_14  and  C_24
                            x       y       z     vdW  Elec       q    Type
                         _______ _______ _______ _____ _____    ______ ____

>  <TORSDO>
F 2

$$$$
=
 OpenBabel11032419193D

 25 29  0  0  1  0  0  0  0  0999 V2000
  185.4810  179.3610  144.8800 C   0  0  0  0  0  2  0  0  0  0  0  0
  185.8540  178.4170  143.8270 N   0  0  2  0  0  0  0  0  0  0  0  0
  183.9990  179.1620  144.6600 C   0  0  0  0  0  2  0  0  0  0  0  0
  184.4310  178.1670  143.6070 C   0  0  1  0  0  3  0  0  0  0  0  0
  191.0770  176.6120  145.1740 C   0  0  0  0  0  3  0  0  0  0  0  0
  190.4890  175.8920  142.8470 C   0  0  0  0  0  1  0  0  0  0  0  0
  188.4600  177.2820  145.7040 C   0  0  0  0  0  0  0  0  0  0  0  0
  190.7000  177.1280  146.4260 C   0  0  0  0  0  0  0  0  0  0  0  0
  187.0250  177.5940  145.8360 C   0  0  0  0  0  2  0  0  0  0  0  0
  189.3980  177.4540  146.6710 N   0  0  0  0  0  0  0  0  0  0  0  0
  191.6800  177.3100  147.4400 N   0  0  0  0  0  1  0  0  0  0  0  0
  186.4390  177.2310  144.4560 C   0  0  2  0  0  3  0  0  0  0  0  0
  188.7840  176.7830  144.4740 C   0  0  0  0  0  0  0  0  0  0  0  0
  187.6000  176.6870  143.5930 C   0  0  0  0  0  2  0  0  0  0  0  0
  190.1050  176.4360  144.1790 C   0  0  0  0  0  0  0  0  0  0  0  0
  184.5530  179.3780  139.8210 C   0  0  0  0  0  3  0  0  0  0  0  0
  183.2420  179.3910  139.6130 C   0  0  0  0  0  0  0  0  0  0  0  0
  185.0840  178.9710  141.1860 C   0  0  0  0  0  2  0  0  0  0  0  0
  182.5400  179.7330  138.4290 N   0  0  0  0  0  0  0  0  0  0  0  0
  184.0190  178.5950  142.2290 C   0  0  0  0  0  0  0  0  0  0  0  0
  182.2960  179.0350  140.6140 C   0  0  0  0  0  0  0  0  0  0  0  0
  181.2950  179.6010  138.6790 N   0  0  0  0  0  0  0  0  0  0  0  0
  182.7040  178.6280  141.9540 C   0  0  0  0  0  3  0  0  0  0  0  0
  179.7960  178.9070  140.6690 C   0  0  0  0  0  1  0  0  0  0  0  0
  181.1180  179.1670  140.0350 C   0  0  0  0  0  0  0  0  0  0  0  0
  2 12  1  0  0  0  0
  2  1  1  1  0  0  0
  3  1  1  0  0  0  0
  4 20  1  6  0  0  0
  4  2  1  0  0  0  0
  4  3  1  0  0  0  0
  5  8  1  0  0  0  0
  6 15  1  0  0  0  0
  7  9  1  0  0  0  0
  7 10  1  0  0  0  0
  8 10  2  0  0  0  0
  8 11  1  0  0  0  0
 12 14  1  6  0  0  0
 12  9  1  0  0  0  0
 13  7  2  0  0  0  0
 14 13  1  0  0  0  0
 15 13  1  0  0  0  0
 15  5  2  0  0  0  0
 16 18  1  0  0  0  0
 17 16  2  0  0  0  0
 17 21  1  0  0  0  0
 18 20  1  0  0  0  0
 19 22  2  0  0  0  0
 19 17  1  0  0  0  0
 21 23  1  0  0  0  0
 22 25  1  0  0  0  0
 23 20  2  0  0  0  0
 25 21  2  0  0  0  0
 25 24  1  0  0  0  0
M  END
>  <MODEL>
7

>  <REMARK>
 VINA RESULT:      -8.5      2.073      3.523
  Name = 
  2 active torsions:
  status: ('A' for Active; 'I' for Inactive)
    1  A    between atoms: N_11  and  C_17
    2  A    between atoms: C_14  and  C_24
                            x       y       z     vdW  Elec       q    Type
                         _______ _______ _______ _____ _____    ______ ____

>  <TORSDO>
F 2

$$$$
=
 OpenBabel11032419193D

 25 29  0  0  1  0  0  0  0  0999 V2000
  190.7700  178.1090  143.5720 C   0  0  0  0  0  2  0  0  0  0  0  0
  190.2320  176.8790  142.9910 N   0  0  2  0  0  0  0  0  0  0  0  0
  189.8870  179.0020  142.7290 C   0  0  0  0  0  2  0  0  0  0  0  0
  189.3340  177.7050  142.1850 C   0  0  1  0  0  3  0  0  0  0  0  0
  186.8800  178.4110  147.3230 C   0  0  0  0  0  3  0  0  0  0  0  0
  189.2520  178.2030  148.1010 C   0  0  0  0  0  1  0  0  0  0  0  0
  187.4650  177.1200  144.9630 C   0  0  0  0  0  0  0  0  0  0  0  0
  185.8870  178.1850  146.3550 C   0  0  0  0  0  0  0  0  0  0  0  0
  187.9320  176.4180  143.7530 C   0  0  0  0  0  2  0  0  0  0  0  0
  186.1940  177.5440  145.1900 N   0  0  0  0  0  0  0  0  0  0  0  0
  184.5550  178.6280  146.5890 N   0  0  0  0  0  1  0  0  0  0  0  0
  189.4360  176.1950  144.0120 C   0  0  2  0  0  3  0  0  0  0  0  0
  188.4600  177.3170  145.8790 C   0  0  0  0  0  0  0  0  0  0  0  0
  189.7510  176.7710  145.4100 C   0  0  0  0  0  2  0  0  0  0  0  0
  188.1890  177.9700  147.0840 C   0  0  0  0  0  0  0  0  0  0  0  0
  191.1990  176.9400  138.7560 C   0  0  0  0  0  3  0  0  0  0  0  0
  190.1800  177.2180  137.9520 C   0  0  0  0  0  0  0  0  0  0  0  0
  191.0190  177.0810  140.2590 C   0  0  0  0  0  2  0  0  0  0  0  0
  190.1300  177.1520  136.5360 N   0  0  0  0  0  0  0  0  0  0  0  0
  189.6270  177.5420  140.7220 C   0  0  0  0  0  0  0  0  0  0  0  0
  188.9100  177.6430  138.4320 C   0  0  0  0  0  0  0  0  0  0  0  0
  188.9530  177.5020  136.1850 N   0  0  0  0  0  0  0  0  0  0  0  0
  188.6350  177.8060  139.8550 C   0  0  0  0  0  3  0  0  0  0  0  0
  186.7520  178.2520  137.3160 C   0  0  0  0  0  1  0  0  0  0  0  0
  188.1740  177.8120  137.3500 C   0  0  0  0  0  0  0  0  0  0  0  0
  2  1  1  1  0  0  0
  2 12  1  0  0  0  0
  3  1  1  0  0  0  0
  4 20  1  6  0  0  0
  4  3  1  0  0  0  0
  4  2  1  0  0  0  0
  7 10  2  0  0  0  0
  7 13  1  0  0  0  0
  8 11  1  0  0  0  0
  8  5  2  0  0  0  0
  9  7  1  0  0  0  0
 10  8  1  0  0  0  0
 12  9  1  6  0  0  0
 12 14  1  0  0  0  0
 13 15  2  0  0  0  0
 14 13  1  0  0  0  0
 15  5  1  0  0  0  0
 15  6  1  0  0  0  0
 16 18  1  0  0  0  0
 17 21  1  0  0  0  0
 17 16  2  0  0  0  0
 18 20  1  0  0  0  0
 19 17  1  0  0  0  0
 21 23  1  0  0  0  0
 22 19  2  0  0  0  0
 22 25  1  0  0  0  0
 23 20  2  0  0  0  0
 24 25  1  0  0  0  0
 25 21  2  0  0  0  0
M  END
>  <MODEL>
8

>  <REMARK>
 VINA RESULT:      -8.4      3.025      5.435
  Name = 
  2 active torsions:
  status: ('A' for Active; 'I' for Inactive)
    1  A    between atoms: N_11  and  C_17
    2  A    between atoms: C_14  and  C_24
                            x       y       z     vdW  Elec       q    Type
                         _______ _______ _______ _____ _____    ______ ____

>  <TORSDO>
F 2

$$$$
=
 OpenBabel11032419193D

 25 29  0  0  1  0  0  0  0  0999 V2000
  190.5650  176.4230  141.0630 C   0  0  0  0  0  2  0  0  0  0  0  0
  189.3660  177.2020  141.3730 N   0  0  2  0  0  0  0  0  0  0  0  0
  190.7650  177.0930  139.7230 C   0  0  0  0  0  2  0  0  0  0  0  0
  189.5450  177.9010  140.1020 C   0  0  1  0  0  3  0  0  0  0  0  0
  189.7750  176.9370  147.0400 C   0  0  0  0  0  3  0  0  0  0  0  0
  187.4280  177.5030  146.3700 C   0  0  0  0  0  1  0  0  0  0  0  0
  190.6990  177.4490  144.4970 C   0  0  0  0  0  0  0  0  0  0  0  0
  191.1370  176.7940  146.7210 C   0  0  0  0  0  0  0  0  0  0  0  0
  191.0400  177.7570  143.0960 C   0  0  0  0  0  2  0  0  0  0  0  0
  191.5770  177.0520  145.4550 N   0  0  0  0  0  0  0  0  0  0  0  0
  192.0580  176.3780  147.7210 N   0  0  0  0  0  1  0  0  0  0  0  0
  189.6850  178.1300  142.4590 C   0  0  2  0  0  3  0  0  0  0  0  0
  189.3680  177.6020  144.7650 C   0  0  0  0  0  0  0  0  0  0  0  0
  188.6160  178.0400  143.5700 C   0  0  0  0  0  2  0  0  0  0  0  0
  188.8740  177.3480  146.0470 C   0  0  0  0  0  0  0  0  0  0  0  0
  187.3220  176.4850  137.1240 C   0  0  0  0  0  3  0  0  0  0  0  0
  186.2020  177.1250  137.4390 C   0  0  0  0  0  0  0  0  0  0  0  0
  188.5590  176.6860  137.9840 C   0  0  0  0  0  2  0  0  0  0  0  0
  184.9470  177.0810  136.7810 N   0  0  0  0  0  0  0  0  0  0  0  0
  188.3910  177.6380  139.1790 C   0  0  0  0  0  0  0  0  0  0  0  0
  186.0990  177.9980  138.5570 C   0  0  0  0  0  0  0  0  0  0  0  0
  184.1570  177.8470  137.4290 N   0  0  0  0  0  0  0  0  0  0  0  0
  187.2280  178.2550  139.4450 C   0  0  0  0  0  3  0  0  0  0  0  0
  184.2390  179.3740  139.5150 C   0  0  0  0  0  1  0  0  0  0  0  0
  184.8520  178.4300  138.5400 C   0  0  0  0  0  0  0  0  0  0  0  0
  2  1  1  6  0  0  0
  2 12  1  0  0  0  0
  3  4  1  0  0  0  0
  3  1  1  0  0  0  0
  4 20  1  6  0  0  0
  4  2  1  0  0  0  0
  7 13  2  0  0  0  0
  7 10  1  0  0  0  0
  8  5  1  0  0  0  0
  8 11  1  0  0  0  0
  9  7  1  0  0  0  0
 10  8  2  0  0  0  0
 12  9  1  1  0  0  0
 12 14  1  0  0  0  0
 13 15  1  0  0  0  0
 14 13  1  0  0  0  0
 15  6  1  0  0  0  0
 15  5  2  0  0  0  0
 16 17  2  0  0  0  0
 16 18  1  0  0  0  0
 17 21  1  0  0  0  0
 18 20  1  0  0  0  0
 19 22  2  0  0  0  0
 19 17  1  0  0  0  0
 20 23  2  0  0  0  0
 21 23  1  0  0  0  0
 22 25  1  0  0  0  0
 25 21  2  0  0  0  0
 25 24  1  0  0  0  0
M  END
>  <MODEL>
9

>  <REMARK>
 VINA RESULT:      -8.4      2.349      3.145
  Name = 
  2 active torsions:
  status: ('A' for Active; 'I' for Inactive)
    1  A    between atoms: N_11  and  C_17
    2  A    between atoms: C_14  and  C_24
                            x       y       z     vdW  Elec       q    Type
                         _______ _______ _______ _____ _____    ______ ____

>  <TORSDO>
F 2

$$$$
