=
 OpenBabel11032419503D

 27 31  0  0  1  0  0  0  0  0999 V2000
  179.9110  178.9350  140.0550 C   0  0  2  0  0  3  0  0  0  0  0  0
  181.4110  176.7340  139.1200 S   0  0  0  0  0  0  0  0  0  0  0  0
  181.7420  178.0450  141.6710 C   0  0  2  0  0  3  0  0  0  0  0  0
  179.7450  179.3390  142.6010 C   0  0  1  0  0  3  0  0  0  0  0  0
  184.8400  178.6580  139.6930 N   0  0  0  0  0  0  0  0  0  0  0  0
  180.7230  179.9400  139.5270 O   0  0  0  0  0  1  0  0  0  0  0  0
  185.2960  178.8910  141.0200 C   0  0  0  0  0  0  0  0  0  0  0  0
  182.9270  178.2770  137.5660 O   0  0  0  0  0  0  0  0  0  0  0  0
  179.0880  179.4990  141.2200 C   0  0  0  0  0  2  0  0  0  0  0  0
  183.1710  178.2600  141.2270 C   0  0  0  0  0  0  0  0  0  0  0  0
  180.7530  177.7380  140.5080 C   0  0  1  0  0  3  0  0  0  0  0  0
  184.2270  178.5890  141.9730 C   0  0  0  0  0  0  0  0  0  0  0  0
  179.2320  178.2120  143.2460 O   0  0  0  0  0  1  0  0  0  0  0  0
  183.6080  178.2890  139.8330 C   0  0  0  0  0  0  0  0  0  0  0  0
  181.2680  179.2470  142.5100 C   0  0  0  0  0  2  0  0  0  0  0  0
  182.7480  177.8610  138.7400 C   0  0  0  0  0  0  0  0  0  0  0  0
  186.5630  179.1470  141.3190 C   0  0  0  0  0  2  0  0  0  0  0  0
  187.0490  177.6770  146.5190 C   0  0  0  0  0  3  0  0  0  0  0  0
  186.5360  177.6720  144.1000 C   0  0  0  0  0  3  0  0  0  0  0  0
  187.4100  177.3730  145.2560 C   0  0  0  0  0  3  0  0  0  0  0  0
  183.7760  179.2220  145.6070 N   0  0  0  0  0  0  0  0  0  0  0  0
  184.9200  178.6210  145.6460 C   0  0  0  0  0  0  0  0  0  0  0  0
  185.3570  178.2400  144.3330 C   0  0  0  0  0  0  0  0  0  0  0  0
  183.3880  179.2750  144.2260 C   0  0  0  0  0  3  0  0  0  0  0  0
  186.0070  179.5950  147.5720 N   0  0  0  0  0  1  0  0  0  0  0  0
  184.2990  178.6900  143.4460 C   0  0  0  0  0  0  0  0  0  0  0  0
  185.7350  178.3490  146.8770 C   0  0  2  0  0  3  0  0  0  0  0  0
  1  6  1  1  0  0  0
  1 11  1  0  0  0  0
  1  9  1  0  0  0  0
  3 15  1  6  0  0  0
  4 13  1  6  0  0  0
  5 14  2  0  0  0  0
  5  7  1  0  0  0  0
  7 17  2  0  0  0  0
  7 12  1  0  0  0  0
  8 16  2  0  0  0  0
  9  4  1  0  0  0  0
 10  3  1  0  0  0  0
 10 12  2  0  0  0  0
 11  2  1  6  0  0  0
 11  3  1  0  0  0  0
 12 26  1  0  0  0  0
 14 10  1  0  0  0  0
 15  4  1  0  0  0  0
 16  2  1  0  0  0  0
 16 14  1  0  0  0  0
 18 27  1  0  0  0  0
 19 23  2  0  0  0  0
 19 20  1  0  0  0  0
 20 18  2  0  0  0  0
 21 22  2  0  0  0  0
 22 27  1  0  0  0  0
 23 22  1  0  0  0  0
 24 21  1  0  0  0  0
 26 24  2  0  0  0  0
 26 23  1  0  0  0  0
 27 25  1  6  0  0  0
M  END
>  <MODEL>
1

>  <REMARK>
 VINA RESULT:      -9.3      0.000      0.000
  Name = 
  1 active torsions:
  status: ('A' for Active; 'I' for Inactive)
    1  A    between atoms: C_18  and  C_26
                            x       y       z     vdW  Elec       q    Type
                         _______ _______ _______ _____ _____    ______ ____

>  <TORSDO>
F 1

$$$$
=
 OpenBabel11032419503D

 27 31  0  0  1  0  0  0  0  0999 V2000
  180.3650  176.8360  139.6320 C   0  0  2  0  0  3  0  0  0  0  0  0
  179.6610  179.4070  140.5590 S   0  0  0  0  0  0  0  0  0  0  0  0
  182.3430  178.3560  140.3650 C   0  0  2  0  0  3  0  0  0  0  0  0
  182.7480  176.4520  138.7090 C   0  0  1  0  0  3  0  0  0  0  0  0
  181.5980  178.8490  143.9830 N   0  0  0  0  0  0  0  0  0  0  0  0
  180.2840  176.1770  140.8610 O   0  0  0  0  0  1  0  0  0  0  0  0
  183.0200  178.8230  143.9840 C   0  0  0  0  0  0  0  0  0  0  0  0
  178.9310  178.4760  142.9450 O   0  0  0  0  0  0  0  0  0  0  0  0
  181.2670  176.0390  138.6810 C   0  0  0  0  0  2  0  0  0  0  0  0
  182.4260  178.6570  141.8450 C   0  0  0  0  0  0  0  0  0  0  0  0
  180.8890  178.2650  139.8150 C   0  0  1  0  0  3  0  0  0  0  0  0
  183.5160  178.7430  142.6090 C   0  0  0  0  0  0  0  0  0  0  0  0
  183.0170  177.3350  137.6620 O   0  0  0  0  0  1  0  0  0  0  0  0
  181.2720  178.7560  142.7350 C   0  0  0  0  0  0  0  0  0  0  0  0
  183.1460  177.0810  140.0440 C   0  0  0  0  0  2  0  0  0  0  0  0
  179.9080  178.8250  142.2330 C   0  0  0  0  0  0  0  0  0  0  0  0
  183.7500  179.0430  145.0690 C   0  0  0  0  0  2  0  0  0  0  0  0
  188.6090  177.1820  143.6540 C   0  0  0  0  0  3  0  0  0  0  0  0
  186.1810  177.4770  144.0210 C   0  0  0  0  0  3  0  0  0  0  0  0
  187.5190  176.9890  144.4240 C   0  0  0  0  0  3  0  0  0  0  0  0
  186.8110  178.9500  140.9030 N   0  0  0  0  0  0  0  0  0  0  0  0
  187.1820  178.3520  141.9870 C   0  0  1  0  0  3  0  0  0  0  0  0
  186.0720  178.1370  142.8730 C   0  0  0  0  0  0  0  0  0  0  0  0
  185.3960  179.1650  141.0160 C   0  0  0  0  0  3  0  0  0  0  0  0
  189.0620  177.0100  141.2790 N   0  0  0  0  0  1  0  0  0  0  0  0
  184.9300  178.7050  142.1790 C   0  0  0  0  0  0  0  0  0  0  0  0
  188.5750  177.9010  142.3170 C   0  0  0  0  0  0  0  0  0  0  0  0
  1 11  1  0  0  0  0
  1  6  1  1  0  0  0
  2 16  1  0  0  0  0
  3 15  1  1  0  0  0
  3 10  1  0  0  0  0
  4 13  1  6  0  0  0
  4 15  1  0  0  0  0
  5  7  1  0  0  0  0
  7 17  2  0  0  0  0
  9  4  1  0  0  0  0
  9  1  1  0  0  0  0
 10 12  2  0  0  0  0
 10 14  1  0  0  0  0
 11  3  1  0  0  0  0
 11  2  1  1  0  0  0
 12  7  1  0  0  0  0
 14  5  2  0  0  0  0
 16 14  1  0  0  0  0
 16  8  2  0  0  0  0
 18 20  1  0  0  0  0
 19 20  2  0  0  0  0
 21 24  2  0  0  0  0
 22 21  1  6  0  0  0
 22 27  1  0  0  0  0
 22 23  1  0  0  0  0
 23 19  1  0  0  0  0
 24 26  1  0  0  0  0
 25 27  1  0  0  0  0
 26 12  1  0  0  0  0
 26 23  2  0  0  0  0
 27 18  2  0  0  0  0
M  END
>  <MODEL>
2

>  <REMARK>
 VINA RESULT:      -9.2      1.985      4.151
  Name = 
  1 active torsions:
  status: ('A' for Active; 'I' for Inactive)
    1  A    between atoms: C_18  and  C_26
                            x       y       z     vdW  Elec       q    Type
                         _______ _______ _______ _____ _____    ______ ____

>  <TORSDO>
F 1

$$$$
=
 OpenBabel11032419503D

 27 31  0  0  1  0  0  0  0  0999 V2000
  189.5910  177.4210  144.8690 C   0  0  2  0  0  3  0  0  0  0  0  0
  187.3420  176.3630  143.5310 S   0  0  0  0  0  0  0  0  0  0  0  0
  190.0270  176.5020  142.4770 C   0  0  2  0  0  3  0  0  0  0  0  0
  191.9490  176.6410  144.1560 C   0  0  1  0  0  3  0  0  0  0  0  0
  187.9010  178.7640  140.4150 N   0  0  0  0  0  0  0  0  0  0  0  0
  189.4440  178.7430  144.4440 O   0  0  0  0  0  1  0  0  0  0  0  0
  189.0020  178.5330  139.5450 C   0  0  0  0  0  0  0  0  0  0  0  0
  186.4320  178.7840  142.8990 O   0  0  0  0  0  0  0  0  0  0  0  0
  191.0470  177.1730  145.2820 C   0  0  0  0  0  2  0  0  0  0  0  0
  189.4010  177.2890  141.3470 C   0  0  0  0  0  0  0  0  0  0  0  0
  189.1600  176.4450  143.7690 C   0  0  1  0  0  3  0  0  0  0  0  0
  189.9150  177.5610  140.1470 C   0  0  0  0  0  0  0  0  0  0  0  0
  192.0550  175.2520  144.2460 O   0  0  0  0  0  1  0  0  0  0  0  0
  188.1470  178.0310  141.4530 C   0  0  2  0  0  3  0  0  0  0  0  0
  191.4400  177.0420  142.7710 C   0  0  0  0  0  2  0  0  0  0  0  0
  187.2460  177.8780  142.5840 C   0  0  0  0  0  0  0  0  0  0  0  0
  189.0550  178.9940  138.3020 C   0  0  0  0  0  1  0  0  0  0  0  0
  192.3130  174.1690  136.6530 C   0  0  0  0  0  3  0  0  0  0  0  0
  190.4690  175.2680  137.8820 C   0  0  0  0  0  3  0  0  0  0  0  0
  190.9920  174.3030  136.8890 C   0  0  0  0  0  3  0  0  0  0  0  0
  193.3910  176.7990  139.0710 N   0  0  0  0  0  0  0  0  0  0  0  0
  192.7590  175.9370  138.3440 C   0  0  0  0  0  0  0  0  0  0  0  0
  191.3420  176.0030  138.5640 C   0  0  0  0  0  0  0  0  0  0  0  0
  192.3940  177.5020  139.8300 C   0  0  0  0  0  3  0  0  0  0  0  0
  194.1560  175.7200  136.3830 N   0  0  0  0  0  1  0  0  0  0  0  0
  191.1710  177.0450  139.5610 C   0  0  0  0  0  0  0  0  0  0  0  0
  193.3790  174.9830  137.3650 C   0  0  2  0  0  3  0  0  0  0  0  0
  1  6  1  6  0  0  0
  1  9  1  0  0  0  0
  3 15  1  1  0  0  0
  3 11  1  0  0  0  0
  4 13  1  6  0  0  0
  4  9  1  0  0  0  0
  7 12  1  0  0  0  0
  7  5  2  0  0  0  0
 10 14  1  0  0  0  0
 10  3  1  0  0  0  0
 11  2  1  6  0  0  0
 11  1  1  0  0  0  0
 12 10  2  0  0  0  0
 14  5  1  6  0  0  0
 14 16  1  0  0  0  0
 15  4  1  0  0  0  0
 16  8  2  0  0  0  0
 16  2  1  0  0  0  0
 17  7  1  0  0  0  0
 18 20  2  0  0  0  0
 18 27  1  0  0  0  0
 19 23  2  0  0  0  0
 20 19  1  0  0  0  0
 21 24  1  0  0  0  0
 22 23  1  0  0  0  0
 22 21  2  0  0  0  0
 23 26  1  0  0  0  0
 26 24  2  0  0  0  0
 26 12  1  0  0  0  0
 27 25  1  6  0  0  0
 27 22  1  0  0  0  0
M  END
>  <MODEL>
3

>  <REMARK>
 VINA RESULT:      -9.2      6.348      9.459
  Name = 
  1 active torsions:
  status: ('A' for Active; 'I' for Inactive)
    1  A    between atoms: C_18  and  C_26
                            x       y       z     vdW  Elec       q    Type
                         _______ _______ _______ _____ _____    ______ ____

>  <TORSDO>
F 1

$$$$
=
 OpenBabel11032419503D

 27 31  0  0  1  0  0  0  0  0999 V2000
  188.8490  177.4750  136.4400 C   0  0  2  0  0  3  0  0  0  0  0  0
  190.1680  175.2410  137.5520 S   0  0  0  0  0  0  0  0  0  0  0  0
  188.2370  176.9100  138.9020 C   0  0  2  0  0  3  0  0  0  0  0  0
  186.5930  178.2230  137.4530 C   0  0  1  0  0  3  0  0  0  0  0  0
  191.5160  177.3920  140.6090 N   0  0  0  0  0  0  0  0  0  0  0  0
  189.8000  178.4350  136.7890 O   0  0  0  0  0  1  0  0  0  0  0  0
  190.6040  177.8300  141.6090 C   0  0  0  0  0  0  0  0  0  0  0  0
  192.4050  176.6240  137.9730 O   0  0  0  0  0  0  0  0  0  0  0  0
  187.4940  178.1560  136.2090 C   0  0  0  0  0  2  0  0  0  0  0  0
  189.3360  177.1310  139.9180 C   0  0  0  0  0  0  0  0  0  0  0  0
  188.7420  176.3950  137.5220 C   0  0  1  0  0  3  0  0  0  0  0  0
  189.2290  177.6120  141.1570 C   0  0  0  0  0  0  0  0  0  0  0  0
  185.6730  177.1730  137.4330 O   0  0  0  0  0  1  0  0  0  0  0  0
  190.7630  176.9860  139.6380 C   0  0  0  0  0  0  0  0  0  0  0  0
  187.3990  178.1930  138.7520 C   0  0  0  0  0  2  0  0  0  0  0  0
  191.2560  176.3680  138.4170 C   0  0  0  0  0  0  0  0  0  0  0  0
  190.9810  178.1870  142.8300 C   0  0  0  0  0  2  0  0  0  0  0  0
  186.5120  177.4040  145.8520 C   0  0  0  0  0  3  0  0  0  0  0  0
  188.3740  177.0480  144.2630 C   0  0  0  0  0  3  0  0  0  0  0  0
  187.7490  176.9320  145.6010 C   0  0  0  0  0  3  0  0  0  0  0  0
  185.9210  178.7440  142.4190 N   0  0  0  0  0  0  0  0  0  0  0  0
  186.3640  178.1760  143.4930 C   0  0  1  0  0  3  0  0  0  0  0  0
  187.6730  177.6220  143.2900 C   0  0  0  0  0  0  0  0  0  0  0  0
  186.9460  178.5940  141.4240 C   0  0  0  0  0  3  0  0  0  0  0  0
  185.3180  179.4330  145.2720 N   0  0  0  0  0  1  0  0  0  0  0  0
  187.9920  177.9220  141.9060 C   0  0  0  0  0  0  0  0  0  0  0  0
  185.6500  178.0960  144.8100 C   0  0  0  0  0  0  0  0  0  0  0  0
  1  6  1  1  0  0  0
  1 11  1  0  0  0  0
  2 16  1  0  0  0  0
  3 15  1  6  0  0  0
  3 10  1  0  0  0  0
  4 13  1  1  0  0  0
  4 15  1  0  0  0  0
  5  7  1  0  0  0  0
  7 17  2  0  0  0  0
  8 16  2  0  0  0  0
  9  1  1  0  0  0  0
  9  4  1  0  0  0  0
 10 12  2  0  0  0  0
 11  2  1  1  0  0  0
 11  3  1  0  0  0  0
 12  7  1  0  0  0  0
 12 26  1  0  0  0  0
 14 10  1  0  0  0  0
 14  5  2  0  0  0  0
 16 14  1  0  0  0  0
 19 20  2  0  0  0  0
 20 18  1  0  0  0  0
 22 21  1  1  0  0  0
 22 27  1  0  0  0  0
 23 22  1  0  0  0  0
 23 19  1  0  0  0  0
 24 26  1  0  0  0  0
 24 21  2  0  0  0  0
 26 23  2  0  0  0  0
 27 25  1  0  0  0  0
 27 18  2  0  0  0  0
M  END
>  <MODEL>
4

>  <REMARK>
 VINA RESULT:      -8.4      4.499      6.567
  Name = 
  1 active torsions:
  status: ('A' for Active; 'I' for Inactive)
    1  A    between atoms: C_18  and  C_26
                            x       y       z     vdW  Elec       q    Type
                         _______ _______ _______ _____ _____    ______ ____

>  <TORSDO>
F 1

$$$$
=
 OpenBabel11032419503D

 27 31  0  0  1  0  0  0  0  0999 V2000
  189.6970  176.3270  137.2070 C   0  0  2  0  0  3  0  0  0  0  0  0
  188.6780  178.9350  136.8440 S   0  0  0  0  0  0  0  0  0  0  0  0
  189.8030  177.8830  139.2870 C   0  0  2  0  0  3  0  0  0  0  0  0
  191.4160  175.9110  139.0910 C   0  0  1  0  0  3  0  0  0  0  0  0
  186.1870  178.5310  139.9130 N   0  0  0  0  0  0  0  0  0  0  0  0
  188.5010  175.7220  137.5950 O   0  0  0  0  0  1  0  0  0  0  0  0
  186.7080  178.5100  141.2360 C   0  0  0  0  0  0  0  0  0  0  0  0
  186.1570  178.1060  137.0580 O   0  0  0  0  0  0  0  0  0  0  0  0
  190.8810  175.4930  137.7110 C   0  0  0  0  0  2  0  0  0  0  0  0
  188.4710  178.2490  139.9020 C   0  0  0  0  0  0  0  0  0  0  0  0
  189.7760  177.7640  137.7350 C   0  0  1  0  0  3  0  0  0  0  0  0
  188.1640  178.3710  141.1940 C   0  0  0  0  0  0  0  0  0  0  0  0
  192.5230  176.7480  138.9400 O   0  0  0  0  0  1  0  0  0  0  0  0
  187.2230  178.3830  139.1530 C   0  0  0  0  0  0  0  0  0  0  0  0
  190.3470  176.5990  139.9400 C   0  0  0  0  0  2  0  0  0  0  0  0
  187.1910  178.4270  137.6990 C   0  0  0  0  0  0  0  0  0  0  0  0
  185.9770  178.7780  142.3100 C   0  0  0  0  0  2  0  0  0  0  0  0
  188.9160  177.1290  146.4250 C   0  0  0  0  0  3  0  0  0  0  0  0
  187.7090  177.3950  144.2830 C   0  0  0  0  0  3  0  0  0  0  0  0
  187.7790  177.0090  145.7100 C   0  0  0  0  0  3  0  0  0  0  0  0
  190.9860  178.4450  143.6120 N   0  0  0  0  0  0  0  0  0  0  0  0
  190.0560  178.0130  144.3990 C   0  0  0  0  0  0  0  0  0  0  0  0
  188.8030  177.8880  143.7100 C   0  0  0  0  0  0  0  0  0  0  0  0
  190.3800  178.6290  142.3230 C   0  0  0  0  0  3  0  0  0  0  0  0
  191.2520  176.6460  145.9930 N   0  0  0  0  0  1  0  0  0  0  0  0
  189.0820  178.3190  142.3520 C   0  0  0  0  0  0  0  0  0  0  0  0
  190.2180  177.6560  145.8480 C   0  0  2  0  0  3  0  0  0  0  0  0
  1  6  1  1  0  0  0
  1  9  1  0  0  0  0
  1 11  1  0  0  0  0
  2 16  1  0  0  0  0
  3 10  1  0  0  0  0
  3 15  1  1  0  0  0
  4 13  1  6  0  0  0
  4 15  1  0  0  0  0
  5  7  1  0  0  0  0
  7 17  2  0  0  0  0
  8 16  2  0  0  0  0
  9  4  1  0  0  0  0
 10 12  2  0  0  0  0
 11  2  1  1  0  0  0
 11  3  1  0  0  0  0
 12  7  1  0  0  0  0
 12 26  1  0  0  0  0
 14 10  1  0  0  0  0
 14  5  2  0  0  0  0
 16 14  1  0  0  0  0
 19 20  1  0  0  0  0
 20 18  2  0  0  0  0
 21 22  2  0  0  0  0
 22 27  1  0  0  0  0
 23 19  2  0  0  0  0
 23 22  1  0  0  0  0
 24 26  2  0  0  0  0
 24 21  1  0  0  0  0
 26 23  1  0  0  0  0
 27 25  1  6  0  0  0
 27 18  1  0  0  0  0
M  END
>  <MODEL>
5

>  <REMARK>
 VINA RESULT:      -8.3      4.594      7.133
  Name = 
  1 active torsions:
  status: ('A' for Active; 'I' for Inactive)
    1  A    between atoms: C_18  and  C_26
                            x       y       z     vdW  Elec       q    Type
                         _______ _______ _______ _____ _____    ______ ____

>  <TORSDO>
F 1

$$$$
=
 OpenBabel11032419503D

 27 31  0  0  1  0  0  0  0  0999 V2000
  184.1870  179.4990  143.9680 C   0  0  2  0  0  3  0  0  0  0  0  0
  183.4360  177.8780  141.7830 S   0  0  0  0  0  0  0  0  0  0  0  0
  185.9390  177.7340  143.2150 C   0  0  2  0  0  3  0  0  0  0  0  0
  185.9840  178.6300  145.6080 C   0  0  1  0  0  3  0  0  0  0  0  0
  186.7010  178.8750  139.7500 N   0  0  0  0  0  0  0  0  0  0  0  0
  184.7640  180.5350  143.2300 O   0  0  0  0  0  1  0  0  0  0  0  0
  187.9650  178.3790  140.1740 C   0  0  0  0  0  0  0  0  0  0  0  0
  183.9800  179.7980  140.0190 O   0  0  0  0  0  0  0  0  0  0  0  0
  184.7450  179.5150  145.3960 C   0  0  0  0  0  2  0  0  0  0  0  0
  186.5750  177.9740  141.8640 C   0  0  0  0  0  0  0  0  0  0  0  0
  184.4400  178.1460  143.2950 C   0  0  1  0  0  3  0  0  0  0  0  0
  187.8430  177.7750  141.5010 C   0  0  0  0  0  0  0  0  0  0  0  0
  185.6050  177.3980  146.1440 O   0  0  0  0  0  1  0  0  0  0  0  0
  185.9070  178.6280  140.7410 C   0  0  2  0  0  3  0  0  0  0  0  0
  186.7720  178.4210  144.3140 C   0  0  0  0  0  2  0  0  0  0  0  0
  184.4750  178.8860  140.7320 C   0  0  0  0  0  0  0  0  0  0  0  0
  189.0240  178.3110  139.3770 C   0  0  0  0  0  1  0  0  0  0  0  0
  192.1730  178.3790  144.7190 C   0  0  0  0  0  3  0  0  0  0  0  0
  190.2660  179.0470  143.2920 C   0  0  0  0  0  3  0  0  0  0  0  0
  191.4240  179.3520  144.1620 C   0  0  0  0  0  3  0  0  0  0  0  0
  190.2030  175.5410  143.3050 N   0  0  0  0  0  0  0  0  0  0  0  0
  190.7150  176.6830  143.6310 C   0  0  0  0  0  0  0  0  0  0  0  0
  189.9830  177.7710  143.0480 C   0  0  0  0  0  0  0  0  0  0  0  0
  189.0700  175.8240  142.4680 C   0  0  0  0  0  3  0  0  0  0  0  0
  191.6800  176.2700  145.8070 N   0  0  0  0  0  1  0  0  0  0  0  0
  188.9210  177.1370  142.2870 C   0  0  0  0  0  0  0  0  0  0  0  0
  191.9070  176.8970  144.5170 C   0  0  2  0  0  3  0  0  0  0  0  0
  1  6  1  6  0  0  0
  1  9  1  0  0  0  0
  3 11  1  0  0  0  0
  3 15  1  1  0  0  0
  4 13  1  6  0  0  0
  5  7  2  0  0  0  0
  7 12  1  0  0  0  0
  8 16  2  0  0  0  0
  9  4  1  0  0  0  0
 10  3  1  0  0  0  0
 11  2  1  6  0  0  0
 11  1  1  0  0  0  0
 12 10  2  0  0  0  0
 12 26  1  0  0  0  0
 14  5  1  6  0  0  0
 14 10  1  0  0  0  0
 15  4  1  0  0  0  0
 16 14  1  0  0  0  0
 16  2  1  0  0  0  0
 17  7  1  0  0  0  0
 19 20  1  0  0  0  0
 20 18  2  0  0  0  0
 21 22  2  0  0  0  0
 22 27  1  0  0  0  0
 23 19  2  0  0  0  0
 23 22  1  0  0  0  0
 24 21  1  0  0  0  0
 26 24  2  0  0  0  0
 26 23  1  0  0  0  0
 27 18  1  0  0  0  0
 27 25  1  1  0  0  0
M  END
>  <MODEL>
6

>  <REMARK>
 VINA RESULT:      -8.0      3.640      5.197
  Name = 
  1 active torsions:
  status: ('A' for Active; 'I' for Inactive)
    1  A    between atoms: C_18  and  C_26
                            x       y       z     vdW  Elec       q    Type
                         _______ _______ _______ _____ _____    ______ ____

>  <TORSDO>
F 1

$$$$
=
 OpenBabel11032419503D

 27 31  0  0  1  0  0  0  0  0999 V2000
  188.1720  177.5470  143.8630 C   0  0  2  0  0  3  0  0  0  0  0  0
  190.5880  178.9970  143.6890 S   0  0  0  0  0  0  0  0  0  0  0  0
  188.7600  178.4900  141.5130 C   0  0  2  0  0  3  0  0  0  0  0  0
  186.3270  177.9830  142.1080 C   0  0  1  0  0  3  0  0  0  0  0  0
  191.9260  176.6750  140.7560 N   0  0  0  0  0  0  0  0  0  0  0  0
  188.7050  176.2830  143.6000 O   0  0  0  0  0  1  0  0  0  0  0  0
  191.3340  176.7700  139.4660 C   0  0  0  0  0  0  0  0  0  0  0  0
  192.0550  176.7760  143.6380 O   0  0  0  0  0  0  0  0  0  0  0  0
  186.6730  177.5480  143.5420 C   0  0  0  0  0  2  0  0  0  0  0  0
  189.9540  177.8590  140.8320 C   0  0  0  0  0  0  0  0  0  0  0  0
  188.9060  178.6250  143.0570 C   0  0  1  0  0  3  0  0  0  0  0  0
  190.1060  177.5620  139.5400 C   0  0  0  0  0  0  0  0  0  0  0  0
  185.9740  179.3340  142.0900 O   0  0  0  0  0  1  0  0  0  0  0  0
  191.1140  177.3150  141.5340 C   0  0  2  0  0  3  0  0  0  0  0  0
  187.4770  177.7260  141.1330 C   0  0  0  0  0  2  0  0  0  0  0  0
  191.3500  177.5580  142.9490 C   0  0  0  0  0  0  0  0  0  0  0  0
  191.9370  176.3610  138.3580 C   0  0  0  0  0  1  0  0  0  0  0  0
  186.6940  175.8400  135.6860 C   0  0  0  0  0  3  0  0  0  0  0  0
  188.2870  175.6890  137.5720 C   0  0  0  0  0  3  0  0  0  0  0  0
  187.3770  175.0870  136.5710 C   0  0  0  0  0  3  0  0  0  0  0  0
  187.9740  179.1200  136.9240 N   0  0  0  0  0  0  0  0  0  0  0  0
  187.7180  177.8770  136.6810 C   0  0  0  0  0  0  0  0  0  0  0  0
  188.4360  177.0090  137.5710 C   0  0  0  0  0  0  0  0  0  0  0  0
  188.9000  179.1400  138.0220 C   0  0  0  0  0  2  0  0  0  0  0  0
  185.4580  177.9220  135.8240 N   0  0  0  0  0  1  0  0  0  0  0  0
  189.2030  177.9040  138.4200 C   0  0  0  0  0  0  0  0  0  0  0  0
  186.7820  177.3560  135.6300 C   0  0  0  0  0  0  0  0  0  0  0  0
  1  6  1  6  0  0  0
  3 15  1  1  0  0  0
  3 11  1  0  0  0  0
  4 13  1  1  0  0  0
  4  9  1  0  0  0  0
  7 12  1  0  0  0  0
  7  5  2  0  0  0  0
  9  1  1  0  0  0  0
 10  3  1  0  0  0  0
 10 14  1  0  0  0  0
 11  2  1  6  0  0  0
 11  1  1  0  0  0  0
 12 10  2  0  0  0  0
 14  5  1  6  0  0  0
 14 16  1  0  0  0  0
 15  4  1  0  0  0  0
 16  8  2  0  0  0  0
 16  2  1  0  0  0  0
 17  7  1  0  0  0  0
 18 20  1  0  0  0  0
 20 19  2  0  0  0  0
 21 24  1  0  0  0  0
 22 21  2  0  0  0  0
 22 23  1  0  0  0  0
 23 19  1  0  0  0  0
 23 26  2  0  0  0  0
 24 26  1  0  0  0  0
 26 12  1  0  0  0  0
 27 18  2  0  0  0  0
 27 25  1  0  0  0  0
 27 22  1  0  0  0  0
M  END
>  <MODEL>
7

>  <REMARK>
 VINA RESULT:      -7.7      5.439      8.605
  Name = 
  1 active torsions:
  status: ('A' for Active; 'I' for Inactive)
    1  A    between atoms: C_18  and  C_26
                            x       y       z     vdW  Elec       q    Type
                         _______ _______ _______ _____ _____    ______ ____

>  <TORSDO>
F 1

$$$$
=
 OpenBabel11032419503D

 27 31  0  0  1  0  0  0  0  0999 V2000
  192.0550  177.2600  142.6630 C   0  0  2  0  0  3  0  0  0  0  0  0
  191.5900  175.2530  144.5920 S   0  0  0  0  0  0  0  0  0  0  0  0
  189.5610  176.7040  143.1370 C   0  0  2  0  0  3  0  0  0  0  0  0
  190.2290  177.7450  140.9020 C   0  0  1  0  0  3  0  0  0  0  0  0
  189.2580  177.6600  146.7270 N   0  0  0  0  0  0  0  0  0  0  0  0
  192.0850  178.3460  143.5410 O   0  0  0  0  0  1  0  0  0  0  0  0
  187.9730  178.0090  146.2270 C   0  0  0  0  0  0  0  0  0  0  0  0
  192.0470  176.9250  146.6140 O   0  0  0  0  0  0  0  0  0  0  0  0
  191.7270  177.7530  141.2480 C   0  0  0  0  0  2  0  0  0  0  0  0
  189.0490  177.0970  144.5050 C   0  0  0  0  0  0  0  0  0  0  0  0
  191.0390  176.2120  143.1280 C   0  0  1  0  0  3  0  0  0  0  0  0
  187.8570  177.6020  144.8260 C   0  0  0  0  0  0  0  0  0  0  0  0
  189.9090  176.5860  140.1930 O   0  0  0  0  0  1  0  0  0  0  0  0
  189.8660  177.1280  145.7160 C   0  0  0  0  0  0  0  0  0  0  0  0
  189.3470  177.8630  142.1460 C   0  0  0  0  0  2  0  0  0  0  0  0
  191.1950  176.5380  145.7730 C   0  0  0  0  0  0  0  0  0  0  0  0
  186.9890  178.4530  146.9980 C   0  0  0  0  0  2  0  0  0  0  0  0
  182.6400  179.0200  144.3440 C   0  0  0  0  0  3  0  0  0  0  0  0
  184.8030  178.5840  145.4610 C   0  0  0  0  0  3  0  0  0  0  0  0
  183.3830  179.0030  145.4690 C   0  0  0  0  0  3  0  0  0  0  0  0
  185.3740  177.8780  142.0750 N   0  0  0  0  0  0  0  0  0  0  0  0
  184.6180  178.2230  143.0650 C   0  0  1  0  0  3  0  0  0  0  0  0
  185.3380  178.2000  144.3070 C   0  0  0  0  0  0  0  0  0  0  0  0
  186.6720  177.6050  142.6250 C   0  0  0  0  0  3  0  0  0  0  0  0
  183.0280  179.7410  142.0620 N   0  0  0  0  0  1  0  0  0  0  0  0
  186.6800  177.7740  143.9480 C   0  0  0  0  0  0  0  0  0  0  0  0
  183.1740  178.6240  142.9790 C   0  0  0  0  0  0  0  0  0  0  0  0
  1 11  1  0  0  0  0
  1  6  1  1  0  0  0
  2 16  1  0  0  0  0
  3 15  1  6  0  0  0
  3 10  1  0  0  0  0
  4 13  1  1  0  0  0
  4  9  1  0  0  0  0
  4 15  1  0  0  0  0
  7  5  1  0  0  0  0
  7 17  2  0  0  0  0
  9  1  1  0  0  0  0
 10 12  2  0  0  0  0
 10 14  1  0  0  0  0
 11  3  1  0  0  0  0
 11  2  1  1  0  0  0
 12  7  1  0  0  0  0
 14 16  1  0  0  0  0
 14  5  2  0  0  0  0
 16  8  2  0  0  0  0
 18 20  1  0  0  0  0
 19 20  2  0  0  0  0
 21 24  2  0  0  0  0
 22 21  1  6  0  0  0
 22 23  1  0  0  0  0
 23 19  1  0  0  0  0
 24 26  1  0  0  0  0
 25 27  1  0  0  0  0
 26 23  2  0  0  0  0
 26 12  1  0  0  0  0
 27 22  1  0  0  0  0
 27 18  2  0  0  0  0
M  END
>  <MODEL>
8

>  <REMARK>
 VINA RESULT:      -7.6      4.934      8.214
  Name = 
  1 active torsions:
  status: ('A' for Active; 'I' for Inactive)
    1  A    between atoms: C_18  and  C_26
                            x       y       z     vdW  Elec       q    Type
                         _______ _______ _______ _____ _____    ______ ____

>  <TORSDO>
F 1

$$$$
=
 OpenBabel11032419503D

 27 31  0  0  1  0  0  0  0  0999 V2000
  191.3320  177.8230  144.4350 C   0  0  2  0  0  3  0  0  0  0  0  0
  190.2880  175.9870  146.3080 S   0  0  0  0  0  0  0  0  0  0  0  0
  188.8490  177.1390  144.0850 C   0  0  2  0  0  3  0  0  0  0  0  0
  190.2220  178.0000  142.1100 C   0  0  1  0  0  3  0  0  0  0  0  0
  187.2800  178.4190  147.2140 N   0  0  0  0  0  0  0  0  0  0  0  0
  191.0180  178.9890  145.1360 O   0  0  0  0  0  1  0  0  0  0  0  0
  186.2400  178.6250  146.2650 C   0  0  0  0  0  0  0  0  0  0  0  0
  189.9540  177.8780  148.1530 O   0  0  0  0  0  0  0  0  0  0  0  0
  191.5030  178.1500  142.9470 C   0  0  0  0  0  2  0  0  0  0  0  0
  187.8790  177.6280  145.1380 C   0  0  0  0  0  0  0  0  0  0  0  0
  190.2520  176.7560  144.6420 C   0  0  1  0  0  3  0  0  0  0  0  0
  186.6340  178.0750  144.9680 C   0  0  0  0  0  0  0  0  0  0  0  0
  190.2080  176.7570  141.4750 O   0  0  0  0  0  1  0  0  0  0  0  0
  188.2200  177.8360  146.5430 C   0  0  2  0  0  3  0  0  0  0  0  0
  188.9580  178.1760  142.9520 C   0  0  0  0  0  2  0  0  0  0  0  0
  189.4630  177.3510  147.1210 C   0  0  0  0  0  0  0  0  0  0  0  0
  185.0340  179.0710  146.5940 C   0  0  0  0  0  1  0  0  0  0  0  0
  181.8020  178.7980  142.6040 C   0  0  0  0  0  3  0  0  0  0  0  0
  183.4630  178.6680  144.4310 C   0  0  0  0  0  3  0  0  0  0  0  0
  182.0950  178.9010  143.9160 C   0  0  0  0  0  3  0  0  0  0  0  0
  185.2730  177.9690  141.5110 N   0  0  0  0  0  0  0  0  0  0  0  0
  184.1810  178.2350  142.1510 C   0  0  0  0  0  0  0  0  0  0  0  0
  184.4130  178.3320  143.5640 C   0  0  0  0  0  0  0  0  0  0  0  0
  186.3130  177.8780  142.4970 C   0  0  0  0  0  2  0  0  0  0  0  0
  182.8890  179.5140  140.5590 N   0  0  0  0  0  1  0  0  0  0  0  0
  185.8330  178.0750  143.7250 C   0  0  0  0  0  0  0  0  0  0  0  0
  182.8270  178.4450  141.5400 C   0  0  0  0  0  0  0  0  0  0  0  0
  1 11  1  0  0  0  0
  1  6  1  1  0  0  0
  2 16  1  0  0  0  0
  3 15  1  6  0  0  0
  3 11  1  0  0  0  0
  3 10  1  0  0  0  0
  4 13  1  1  0  0  0
  4  9  1  0  0  0  0
  4 15  1  0  0  0  0
  7 17  1  0  0  0  0
  7  5  2  0  0  0  0
  9  1  1  0  0  0  0
 11  2  1  1  0  0  0
 12 10  2  0  0  0  0
 12  7  1  0  0  0  0
 14 10  1  1  0  0  0
 14 16  1  0  0  0  0
 14  5  1  0  0  0  0
 16  8  2  0  0  0  0
 18 20  1  0  0  0  0
 20 19  2  0  0  0  0
 21 22  2  0  0  0  0
 21 24  1  0  0  0  0
 22 23  1  0  0  0  0
 23 26  2  0  0  0  0
 23 19  1  0  0  0  0
 24 26  1  0  0  0  0
 25 27  1  0  0  0  0
 26 12  1  0  0  0  0
 27 22  1  0  0  0  0
 27 18  2  0  0  0  0
M  END
>  <MODEL>
9

>  <REMARK>
 VINA RESULT:      -7.2      4.586      8.153
  Name = 
  1 active torsions:
  status: ('A' for Active; 'I' for Inactive)
    1  A    between atoms: C_18  and  C_26
                            x       y       z     vdW  Elec       q    Type
                         _______ _______ _______ _____ _____    ______ ____

>  <TORSDO>
F 1

$$$$
