=
 OpenBabel11042410233D

 29 32  0  0  1  0  0  0  0  0999 V2000
  186.0230  178.3510  143.2420 C   0  0  1  0  0  3  0  0  0  0  0  0
  186.5650  178.3690  146.9360 N   0  0  0  0  0  0  0  0  0  0  0  0
  184.7490  178.7450  143.9620 C   0  0  0  0  0  2  0  0  0  0  0  0
  185.0830  179.5200  145.2210 C   0  0  0  0  0  2  0  0  0  0  0  0
  190.9020  176.0870  143.7100 C   0  0  0  0  0  3  0  0  0  0  0  0
  191.6380  176.2730  144.8970 C   0  0  0  0  0  3  0  0  0  0  0  0
  189.3490  178.1100  148.2730 C   0  0  0  0  0  1  0  0  0  0  0  0
  191.0430  176.8730  146.0190 C   0  0  0  0  0  3  0  0  0  0  0  0
  184.2560  178.1150  146.9520 O   0  0  0  0  0  0  0  0  0  0  0  0
  187.7510  177.5620  144.8840 C   0  0  0  0  0  0  0  0  0  0  0  0
  189.5630  176.5030  143.6270 C   0  0  0  0  0  3  0  0  0  0  0  0
  186.6970  177.2860  143.9630 N   0  0  0  0  0  2  0  0  0  0  0  0
  187.6310  178.0300  146.2730 C   0  0  0  0  0  0  0  0  0  0  0  0
  185.2680  178.6000  146.3810 C   0  0  0  0  0  0  0  0  0  0  0  0
  189.7130  177.2860  145.9200 C   0  0  0  0  0  0  0  0  0  0  0  0
  188.9920  177.1130  144.7470 C   0  0  0  0  0  0  0  0  0  0  0  0
  188.9490  177.8220  146.8650 C   0  0  0  0  0  0  0  0  0  0  0  0
  185.6790  177.8740  141.8410 C   0  0  0  0  0  2  0  0  0  0  0  0
  184.9960  179.7430  140.5240 O   0  0  0  0  0  1  0  0  0  0  0  0
  186.0840  178.9160  140.8120 C   0  0  2  0  0  3  0  0  0  0  0  0
  186.5540  178.2230  139.5430 C   0  0  0  0  0  2  0  0  0  0  0  0
  188.0090  176.5840  137.5590 O   0  0  0  0  0  1  0  0  0  0  0  0
  188.0100  177.8680  139.5920 C   0  0  0  0  0  0  0  0  0  0  0  0
  190.0090  176.9690  139.0440 C   0  0  0  0  0  0  0  0  0  0  0  0
  188.9890  178.2650  140.6550 C   0  0  0  0  0  2  0  0  0  0  0  0
  188.6170  177.1270  138.6850 C   0  0  0  0  0  0  0  0  0  0  0  0
  190.2560  177.6270  140.1650 C   0  0  0  0  0  3  0  0  0  0  0  0
  190.8190  174.8740  138.3280 O   0  0  0  0  0  1  0  0  0  0  0  0
  191.0360  176.2490  138.2430 C   0  0  0  0  0  2  0  0  0  0  0  0
  1 18  1  6  0  0  0
  1  3  1  0  0  0  0
  1 12  1  0  0  0  0
  3  4  1  0  0  0  0
  4 14  1  0  0  0  0
  5  6  1  0  0  0  0
  6  8  2  0  0  0  0
 10 13  1  0  0  0  0
 11  5  2  0  0  0  0
 11 16  1  0  0  0  0
 12 10  1  0  0  0  0
 13 17  1  0  0  0  0
 13  2  2  0  0  0  0
 14  2  1  0  0  0  0
 14  9  2  0  0  0  0
 15  8  1  0  0  0  0
 15 17  2  0  0  0  0
 16 10  2  0  0  0  0
 16 15  1  0  0  0  0
 17  7  1  0  0  0  0
 20 19  1  6  0  0  0
 20 18  1  0  0  0  0
 21 23  1  0  0  0  0
 21 20  1  0  0  0  0
 22 26  1  0  0  0  0
 23 25  1  0  0  0  0
 24 27  2  0  0  0  0
 26 24  1  0  0  0  0
 26 23  2  0  0  0  0
 27 25  1  0  0  0  0
 29 28  1  0  0  0  0
 29 24  1  0  0  0  0
M  END
>  <MODEL>
1

>  <REMARK>
 VINA RESULT:      -9.4      0.000      0.000
  Name = 
  5 active torsions:
  status: ('A' for Active; 'I' for Inactive)
    1  A    between atoms: C_1  and  C_13
    2  A    between atoms: C_8  and  C_28
    3  A    between atoms: C_9  and  C_15
    4  A    between atoms: C_13  and  C_18
    5  A    between atoms: C_18  and  C_28
                            x       y       z     vdW  Elec       q    Type
                         _______ _______ _______ _____ _____    ______ ____

>  <TORSDO>
F 5

$$$$
=
 OpenBabel11042410233D

 29 32  0  0  1  0  0  0  0  0999 V2000
  190.1240  176.8750  144.8790 C   0  0  1  0  0  3  0  0  0  0  0  0
  187.6860  177.9750  147.4850 N   0  0  0  0  0  2  0  0  0  0  0  0
  190.7920  176.9400  146.2380 C   0  0  0  0  0  2  0  0  0  0  0  0
  189.8010  176.5740  147.3230 C   0  0  0  0  0  2  0  0  0  0  0  0
  185.8650  178.3810  141.9220 C   0  0  0  0  0  3  0  0  0  0  0  0
  184.6000  178.4780  142.5340 C   0  0  0  0  0  3  0  0  0  0  0  0
  184.6340  178.2180  147.0000 C   0  0  0  0  0  1  0  0  0  0  0  0
  184.4710  178.3760  143.9290 C   0  0  0  0  0  3  0  0  0  0  0  0
  189.6350  178.5760  148.5960 O   0  0  0  0  0  0  0  0  0  0  0  0
  187.8230  177.8760  144.9870 C   0  0  0  0  0  0  0  0  0  0  0  0
  187.0180  178.1740  142.6960 C   0  0  0  0  0  2  0  0  0  0  0  0
  189.2180  177.9990  144.7140 N   0  0  0  0  0  2  0  0  0  0  0  0
  187.1580  177.9100  146.2980 C   0  0  0  0  0  0  0  0  0  0  0  0
  189.0650  177.7800  147.8030 C   0  0  0  0  0  0  0  0  0  0  0  0
  185.6260  178.1650  144.6840 C   0  0  0  0  0  0  0  0  0  0  0  0
  186.8710  178.0570  144.0800 C   0  0  0  0  0  0  0  0  0  0  0  0
  185.7390  178.0910  146.0060 C   0  0  0  0  0  0  0  0  0  0  0  0
  191.1870  176.9190  143.7950 C   0  0  0  0  0  2  0  0  0  0  0  0
  190.1930  175.5830  142.0850 O   0  0  0  0  0  1  0  0  0  0  0  0
  190.5430  176.8940  142.4190 C   0  0  2  0  0  3  0  0  0  0  0  0
  191.5150  177.4450  141.3900 C   0  0  0  0  0  2  0  0  0  0  0  0
  189.0760  178.7320  140.3220 O   0  0  0  0  0  1  0  0  0  0  0  0
  190.9950  177.3220  139.9880 C   0  0  0  0  0  0  0  0  0  0  0  0
  189.6810  177.5720  138.1680 C   0  0  0  0  0  0  0  0  0  0  0  0
  191.6060  176.5200  138.8780 C   0  0  0  0  0  3  0  0  0  0  0  0
  189.8970  177.9110  139.5570 C   0  0  2  0  0  3  0  0  0  0  0  0
  190.6580  176.7850  137.7460 C   0  0  0  0  0  3  0  0  0  0  0  0
  188.6790  179.4720  137.1980 O   0  0  0  0  0  1  0  0  0  0  0  0
  188.5790  178.0860  137.3090 C   0  0  0  0  0  2  0  0  0  0  0  0
  1 18  1  6  0  0  0
  1  3  1  0  0  0  0
  2 14  1  0  0  0  0
  3  4  1  0  0  0  0
  4 14  1  0  0  0  0
  5  6  2  0  0  0  0
  5 11  1  0  0  0  0
  6  8  1  0  0  0  0
  8 15  2  0  0  0  0
 10 13  1  0  0  0  0
 11 16  1  0  0  0  0
 12  1  1  0  0  0  0
 12 10  1  0  0  0  0
 13  2  1  0  0  0  0
 14  9  2  0  0  0  0
 15 17  1  0  0  0  0
 16 15  1  0  0  0  0
 16 10  2  0  0  0  0
 17 13  2  0  0  0  0
 17  7  1  0  0  0  0
 20 19  1  6  0  0  0
 20 18  1  0  0  0  0
 21 20  1  0  0  0  0
 23 21  1  0  0  0  0
 24 26  1  0  0  0  0
 25 23  2  0  0  0  0
 26 23  1  0  0  0  0
 26 22  1  6  0  0  0
 27 24  2  0  0  0  0
 27 25  1  0  0  0  0
 28 29  1  0  0  0  0
 29 24  1  0  0  0  0
M  END
>  <MODEL>
2

>  <REMARK>
 VINA RESULT:      -9.3      1.984      4.530
  Name = 
  5 active torsions:
  status: ('A' for Active; 'I' for Inactive)
    1  A    between atoms: C_1  and  C_13
    2  A    between atoms: C_8  and  C_28
    3  A    between atoms: C_9  and  C_15
    4  A    between atoms: C_13  and  C_18
    5  A    between atoms: C_18  and  C_28
                            x       y       z     vdW  Elec       q    Type
                         _______ _______ _______ _____ _____    ______ ____

>  <TORSDO>
F 5

$$$$
=
 OpenBabel11042410233D

 29 32  0  0  1  0  0  0  0  0999 V2000
  186.7160  178.6930  142.1840 C   0  0  1  0  0  3  0  0  0  0  0  0
  185.6680  178.4360  145.7580 N   0  0  0  0  0  0  0  0  0  0  0  0
  185.2430  179.0200  142.3300 C   0  0  0  0  0  2  0  0  0  0  0  0
  184.9910  179.7000  143.6600 C   0  0  0  0  0  2  0  0  0  0  0  0
  191.0430  176.4460  144.5020 C   0  0  0  0  0  3  0  0  0  0  0  0
  191.2100  176.5490  145.8970 C   0  0  0  0  0  3  0  0  0  0  0  0
  187.6500  178.1010  148.1180 C   0  0  0  0  0  1  0  0  0  0  0  0
  190.1780  177.0560  146.7050 C   0  0  0  0  0  3  0  0  0  0  0  0
  183.5750  178.1600  144.7900 O   0  0  0  0  0  0  0  0  0  0  0  0
  187.6330  177.7980  144.3440 C   0  0  0  0  0  0  0  0  0  0  0  0
  189.8450  176.8550  143.8940 C   0  0  0  0  0  3  0  0  0  0  0  0
  187.0710  177.5830  143.0510 N   0  0  0  0  0  2  0  0  0  0  0  0
  186.9260  178.1580  145.5820 C   0  0  0  0  0  0  0  0  0  0  0  0
  184.7130  178.6960  144.7280 C   0  0  0  0  0  0  0  0  0  0  0  0
  188.9950  177.4620  146.0850 C   0  0  0  0  0  0  0  0  0  0  0  0
  188.8360  177.3730  144.7090 C   0  0  0  0  0  0  0  0  0  0  0  0
  187.8850  177.9180  146.6560 C   0  0  0  0  0  0  0  0  0  0  0  0
  187.0060  178.3210  140.7400 C   0  0  0  0  0  2  0  0  0  0  0  0
  188.7090  179.0300  139.2260 O   0  0  0  0  0  1  0  0  0  0  0  0
  188.4970  178.4090  140.4590 C   0  0  2  0  0  3  0  0  0  0  0  0
  189.0960  177.0130  140.4420 C   0  0  0  0  0  2  0  0  0  0  0  0
  190.1220  175.9760  137.8700 O   0  0  0  0  0  1  0  0  0  0  0  0
  190.5290  177.0110  140.0010 C   0  0  0  0  0  0  0  0  0  0  0  0
  192.3790  176.6750  138.7480 C   0  0  0  0  0  0  0  0  0  0  0  0
  191.7030  177.5220  140.7820 C   0  0  0  0  0  2  0  0  0  0  0  0
  190.9430  176.5320  138.8450 C   0  0  0  0  0  0  0  0  0  0  0  0
  192.8420  177.2570  139.8420 C   0  0  0  0  0  3  0  0  0  0  0  0
  194.3600  175.6390  137.9990 O   0  0  0  0  0  1  0  0  0  0  0  0
  193.2110  176.3040  137.5710 C   0  0  0  0  0  2  0  0  0  0  0  0
  1 18  1  6  0  0  0
  1  3  1  0  0  0  0
  1 12  1  0  0  0  0
  3  4  1  0  0  0  0
  4 14  1  0  0  0  0
  5  6  1  0  0  0  0
  6  8  2  0  0  0  0
 10 16  2  0  0  0  0
 10 13  1  0  0  0  0
 11  5  2  0  0  0  0
 11 16  1  0  0  0  0
 12 10  1  0  0  0  0
 13  2  2  0  0  0  0
 13 17  1  0  0  0  0
 14  9  2  0  0  0  0
 14  2  1  0  0  0  0
 15 17  2  0  0  0  0
 15  8  1  0  0  0  0
 16 15  1  0  0  0  0
 17  7  1  0  0  0  0
 20 19  1  6  0  0  0
 20 18  1  0  0  0  0
 21 20  1  0  0  0  0
 22 26  1  0  0  0  0
 23 21  1  0  0  0  0
 23 25  1  0  0  0  0
 24 26  1  0  0  0  0
 24 27  2  0  0  0  0
 26 23  2  0  0  0  0
 27 25  1  0  0  0  0
 29 28  1  0  0  0  0
 29 24  1  0  0  0  0
M  END
>  <MODEL>
3

>  <REMARK>
 VINA RESULT:      -9.2      1.505      2.029
  Name = 
  5 active torsions:
  status: ('A' for Active; 'I' for Inactive)
    1  A    between atoms: C_1  and  C_13
    2  A    between atoms: C_8  and  C_28
    3  A    between atoms: C_9  and  C_15
    4  A    between atoms: C_13  and  C_18
    5  A    between atoms: C_18  and  C_28
                            x       y       z     vdW  Elec       q    Type
                         _______ _______ _______ _____ _____    ______ ____

>  <TORSDO>
F 5

$$$$
=
 OpenBabel11042410233D

 29 32  0  0  1  0  0  0  0  0999 V2000
  185.9150  178.6490  141.3220 C   0  0  1  0  0  3  0  0  0  0  0  0
  188.2140  177.7400  138.5230 N   0  0  0  0  0  2  0  0  0  0  0  0
  185.2180  178.8190  139.9870 C   0  0  0  0  0  2  0  0  0  0  0  0
  185.7180  177.7800  139.0040 C   0  0  0  0  0  2  0  0  0  0  0  0
  190.6540  178.0920  143.8480 C   0  0  0  0  0  3  0  0  0  0  0  0
  191.6890  177.3680  143.2220 C   0  0  0  0  0  3  0  0  0  0  0  0
  190.9610  176.3600  138.9250 C   0  0  0  0  0  1  0  0  0  0  0  0
  191.5670  176.9600  141.8830 C   0  0  0  0  0  3  0  0  0  0  0  0
  186.7610  179.0940  137.3180 O   0  0  0  0  0  0  0  0  0  0  0  0
  188.3610  178.1900  140.9820 C   0  0  0  0  0  0  0  0  0  0  0  0
  189.4810  178.4110  143.1460 C   0  0  0  0  0  3  0  0  0  0  0  0
  187.2920  179.1020  141.2290 N   0  0  0  0  0  2  0  0  0  0  0  0
  188.7700  177.6150  139.6920 C   0  0  0  0  0  0  0  0  0  0  0  0
  186.9150  178.2770  138.2640 C   0  0  0  0  0  0  0  0  0  0  0  0
  190.3920  177.2820  141.2000 C   0  0  0  0  0  0  0  0  0  0  0  0
  189.3690  177.9840  141.8210 C   0  0  2  0  0  3  0  0  0  0  0  0
  190.0920  177.0410  139.9280 C   0  0  0  0  0  0  0  0  0  0  0  0
  185.1840  179.4620  142.3760 C   0  0  0  0  0  2  0  0  0  0  0  0
  183.0360  178.5840  142.9330 O   0  0  0  0  0  1  0  0  0  0  0  0
  184.3860  178.5490  143.2910 C   0  0  2  0  0  3  0  0  0  0  0  0
  184.5470  179.0040  144.7320 C   0  0  0  0  0  2  0  0  0  0  0  0
  185.5860  179.6800  147.4180 O   0  0  0  0  0  1  0  0  0  0  0  0
  185.7420  178.3870  145.3960 C   0  0  0  0  0  0  0  0  0  0  0  0
  187.3480  177.9470  146.9240 C   0  0  0  0  0  0  0  0  0  0  0  0
  186.6330  177.3270  144.8210 C   0  0  0  0  0  3  0  0  0  0  0  0
  186.1730  178.7240  146.5960 C   0  0  2  0  0  3  0  0  0  0  0  0
  187.6270  177.1220  145.9270 C   0  0  0  0  0  3  0  0  0  0  0  0
  189.3990  177.5500  148.0170 O   0  0  0  0  0  1  0  0  0  0  0  0
  188.0920  177.9970  148.2120 C   0  0  0  0  0  2  0  0  0  0  0  0
  1 18  1  1  0  0  0
  2 13  1  0  0  0  0
  3  1  1  0  0  0  0
  4  3  1  0  0  0  0
  6  5  1  0  0  0  0
  7 17  1  0  0  0  0
  8  6  2  0  0  0  0
  9 14  2  0  0  0  0
 10 12  1  0  0  0  0
 10 16  1  0  0  0  0
 11  5  2  0  0  0  0
 12  1  1  0  0  0  0
 13 17  1  0  0  0  0
 13 10  2  0  0  0  0
 14  2  1  0  0  0  0
 14  4  1  0  0  0  0
 15 16  1  0  0  0  0
 15  8  1  0  0  0  0
 16 11  1  6  0  0  0
 17 15  2  0  0  0  0
 18 20  1  0  0  0  0
 20 19  1  6  0  0  0
 20 21  1  0  0  0  0
 21 23  1  0  0  0  0
 23 26  1  0  0  0  0
 24 29  1  0  0  0  0
 25 23  2  0  0  0  0
 25 27  1  0  0  0  0
 26 24  1  0  0  0  0
 26 22  1  1  0  0  0
 27 24  2  0  0  0  0
 28 29  1  0  0  0  0
M  END
>  <MODEL>
4

>  <REMARK>
 VINA RESULT:      -9.1      2.238      6.452
  Name = 
  5 active torsions:
  status: ('A' for Active; 'I' for Inactive)
    1  A    between atoms: C_1  and  C_13
    2  A    between atoms: C_8  and  C_28
    3  A    between atoms: C_9  and  C_15
    4  A    between atoms: C_13  and  C_18
    5  A    between atoms: C_18  and  C_28
                            x       y       z     vdW  Elec       q    Type
                         _______ _______ _______ _____ _____    ______ ____

>  <TORSDO>
F 5

$$$$
=
 OpenBabel11042410233D

 29 32  0  0  1  0  0  0  0  0999 V2000
  185.9360  178.0880  141.9300 C   0  0  1  0  0  3  0  0  0  0  0  0
  185.6800  178.9160  138.2980 N   0  0  0  0  0  2  0  0  0  0  0  0
  184.6250  178.7880  141.6370 C   0  0  0  0  0  2  0  0  0  0  0  0
  184.1340  178.4150  140.2530 C   0  0  0  0  0  2  0  0  0  0  0  0
  190.9050  176.9770  140.1320 C   0  0  0  0  0  3  0  0  0  0  0  0
  191.1100  176.7730  138.7530 C   0  0  0  0  0  3  0  0  0  0  0  0
  187.6430  177.8600  136.1440 C   0  0  0  0  0  1  0  0  0  0  0  0
  190.0850  177.0430  137.8310 C   0  0  0  0  0  3  0  0  0  0  0  0
  184.1700  180.4910  139.0940 O   0  0  0  0  0  0  0  0  0  0  0  0
  187.4330  178.1510  139.9140 C   0  0  0  0  0  0  0  0  0  0  0  0
  189.6700  177.4470  140.6080 C   0  0  0  0  0  2  0  0  0  0  0  0
  187.0100  178.6950  141.1630 N   0  0  0  0  0  2  0  0  0  0  0  0
  186.7940  178.3170  138.5990 C   0  0  0  0  0  0  0  0  0  0  0  0
  184.6800  179.3480  139.2240 C   0  0  0  0  0  0  0  0  0  0  0  0
  188.8620  177.5050  138.3200 C   0  0  0  0  0  0  0  0  0  0  0  0
  188.6570  177.6940  139.6800 C   0  0  0  0  0  0  0  0  0  0  0  0
  187.7870  177.8670  137.6290 C   0  0  0  0  0  0  0  0  0  0  0  0
  186.2460  178.2030  143.4130 C   0  0  0  0  0  2  0  0  0  0  0  0
  187.5730  176.2210  143.4930 O   0  0  0  0  0  1  0  0  0  0  0  0
  187.6060  177.5990  143.7190 C   0  0  2  0  0  3  0  0  0  0  0  0
  187.9720  177.8750  145.1680 C   0  0  0  0  0  2  0  0  0  0  0  0
  188.9300  176.7520  147.7300 O   0  0  0  0  0  1  0  0  0  0  0  0
  189.3850  177.4830  145.4850 C   0  0  0  0  0  0  0  0  0  0  0  0
  191.1910  176.7360  146.6180 C   0  0  0  0  0  0  0  0  0  0  0  0
  190.5680  177.5970  144.5720 C   0  0  0  0  0  3  0  0  0  0  0  0
  189.7680  176.9900  146.6470 C   0  0  2  0  0  3  0  0  0  0  0  0
  191.6760  177.0600  145.4300 C   0  0  0  0  0  3  0  0  0  0  0  0
  192.4220  177.1230  148.5910 O   0  0  0  0  0  1  0  0  0  0  0  0
  191.9880  176.1260  147.7170 C   0  0  0  0  0  2  0  0  0  0  0  0
  1 18  1  1  0  0  0
  2 13  1  0  0  0  0
  2 14  1  0  0  0  0
  3  1  1  0  0  0  0
  4  3  1  0  0  0  0
  5 11  1  0  0  0  0
  6  5  2  0  0  0  0
  7 17  1  0  0  0  0
  8 15  2  0  0  0  0
  8  6  1  0  0  0  0
  9 14  2  0  0  0  0
 10 12  1  0  0  0  0
 12  1  1  0  0  0  0
 13 10  1  0  0  0  0
 14  4  1  0  0  0  0
 15 16  1  0  0  0  0
 16 10  2  0  0  0  0
 16 11  1  0  0  0  0
 17 15  1  0  0  0  0
 17 13  2  0  0  0  0
 18 20  1  0  0  0  0
 20 19  1  1  0  0  0
 20 21  1  0  0  0  0
 21 23  1  0  0  0  0
 23 26  1  0  0  0  0
 24 26  1  0  0  0  0
 24 29  1  0  0  0  0
 25 27  1  0  0  0  0
 25 23  2  0  0  0  0
 26 22  1  6  0  0  0
 27 24  2  0  0  0  0
 29 28  1  0  0  0  0
M  END
>  <MODEL>
5

>  <REMARK>
 VINA RESULT:      -9.1      2.679      6.870
  Name = 
  5 active torsions:
  status: ('A' for Active; 'I' for Inactive)
    1  A    between atoms: C_1  and  C_13
    2  A    between atoms: C_8  and  C_28
    3  A    between atoms: C_9  and  C_15
    4  A    between atoms: C_13  and  C_18
    5  A    between atoms: C_18  and  C_28
                            x       y       z     vdW  Elec       q    Type
                         _______ _______ _______ _____ _____    ______ ____

>  <TORSDO>
F 5

$$$$
=
 OpenBabel11042410233D

 29 32  0  0  1  0  0  0  0  0999 V2000
  188.7140  177.1290  141.7260 C   0  0  1  0  0  3  0  0  0  0  0  0
  189.9270  177.4440  145.2430 N   0  0  0  0  0  0  0  0  0  0  0  0
  190.2210  176.9840  141.7820 C   0  0  0  0  0  2  0  0  0  0  0  0
  190.6310  176.3140  143.0780 C   0  0  0  0  0  2  0  0  0  0  0  0
  184.2850  178.7780  144.3370 C   0  0  0  0  0  3  0  0  0  0  0  0
  184.2130  178.6280  145.7360 C   0  0  0  0  0  3  0  0  0  0  0  0
  188.0580  177.4850  147.7160 C   0  0  0  0  0  1  0  0  0  0  0  0
  185.3440  178.2370  146.4720 C   0  0  0  0  0  3  0  0  0  0  0  0
  191.9110  177.9960  144.1690 O   0  0  0  0  0  0  0  0  0  0  0  0
  187.8200  177.8610  143.9550 C   0  0  0  0  0  0  0  0  0  0  0  0
  185.4870  178.5320  143.6540 C   0  0  0  0  0  3  0  0  0  0  0  0
  188.2760  178.1690  142.6400 N   0  0  0  0  0  2  0  0  0  0  0  0
  188.6360  177.5670  145.1430 C   0  0  0  0  0  0  0  0  0  0  0  0
  190.8460  177.3240  144.1550 C   0  0  0  0  0  0  0  0  0  0  0  0
  186.5310  177.9920  145.7770 C   0  0  0  0  0  0  0  0  0  0  0  0
  186.5980  178.1280  144.3980 C   0  0  0  0  0  0  0  0  0  0  0  0
  187.7190  177.6660  146.2750 C   0  0  0  0  0  0  0  0  0  0  0  0
  188.2970  177.4900  140.3100 C   0  0  0  0  0  2  0  0  0  0  0  0
  189.4300  178.7960  138.6660 O   0  0  0  0  0  1  0  0  0  0  0  0
  189.5180  177.6210  139.4150 C   0  0  2  0  0  3  0  0  0  0  0  0
  189.6000  176.4220  138.4850 C   0  0  0  0  0  2  0  0  0  0  0  0
  190.4700  173.8080  137.4130 O   0  0  0  0  0  1  0  0  0  0  0  0
  191.0150  176.0120  138.2040 C   0  0  0  0  0  0  0  0  0  0  0  0
  192.7960  174.7630  137.5920 C   0  0  0  0  0  0  0  0  0  0  0  0
  192.2440  176.8410  138.4250 C   0  0  0  0  0  2  0  0  0  0  0  0
  191.3580  174.8300  137.7300 C   0  0  0  0  0  0  0  0  0  0  0  0
  193.3320  175.9130  137.9690 C   0  0  0  0  0  3  0  0  0  0  0  0
  194.5530  173.2310  137.9400 O   0  0  0  0  0  1  0  0  0  0  0  0
  193.5630  173.6150  137.0370 C   0  0  0  0  0  2  0  0  0  0  0  0
  1 18  1  6  0  0  0
  1  3  1  0  0  0  0
  1 12  1  0  0  0  0
  3  4  1  0  0  0  0
  4 14  1  0  0  0  0
  5  6  1  0  0  0  0
  6  8  2  0  0  0  0
 10 16  2  0  0  0  0
 10 13  1  0  0  0  0
 11  5  2  0  0  0  0
 11 16  1  0  0  0  0
 12 10  1  0  0  0  0
 13  2  2  0  0  0  0
 13 17  1  0  0  0  0
 14  9  2  0  0  0  0
 14  2  1  0  0  0  0
 15 17  2  0  0  0  0
 15  8  1  0  0  0  0
 16 15  1  0  0  0  0
 17  7  1  0  0  0  0
 20 19  1  6  0  0  0
 20 18  1  0  0  0  0
 21 20  1  0  0  0  0
 22 26  1  0  0  0  0
 23 25  1  0  0  0  0
 23 21  1  0  0  0  0
 24 26  1  0  0  0  0
 24 27  2  0  0  0  0
 26 23  2  0  0  0  0
 27 25  1  0  0  0  0
 29 24  1  0  0  0  0
 29 28  1  0  0  0  0
M  END
>  <MODEL>
6

>  <REMARK>
 VINA RESULT:      -9.0      2.344      4.538
  Name = 
  5 active torsions:
  status: ('A' for Active; 'I' for Inactive)
    1  A    between atoms: C_1  and  C_13
    2  A    between atoms: C_8  and  C_28
    3  A    between atoms: C_9  and  C_15
    4  A    between atoms: C_13  and  C_18
    5  A    between atoms: C_18  and  C_28
                            x       y       z     vdW  Elec       q    Type
                         _______ _______ _______ _____ _____    ______ ____

>  <TORSDO>
F 5

$$$$
=
 OpenBabel11042410233D

 29 32  0  0  1  0  0  0  0  0999 V2000
  189.0570  176.7050  142.4370 C   0  0  1  0  0  3  0  0  0  0  0  0
  189.9830  177.5340  145.9570 N   0  0  0  0  0  0  0  0  0  0  0  0
  190.5570  176.6080  142.6270 C   0  0  0  0  0  2  0  0  0  0  0  0
  190.8730  176.1350  144.0310 C   0  0  0  0  0  2  0  0  0  0  0  0
  184.4120  178.5850  144.4470 C   0  0  0  0  0  3  0  0  0  0  0  0
  184.2320  178.6280  145.8440 C   0  0  0  0  0  3  0  0  0  0  0  0
  187.9250  177.8670  148.2510 C   0  0  0  0  0  1  0  0  0  0  0  0
  185.3070  178.3710  146.7110 C   0  0  0  0  0  3  0  0  0  0  0  0
  192.0380  177.9830  144.9710 O   0  0  0  0  0  0  0  0  0  0  0  0
  187.9790  177.7150  144.4680 C   0  0  0  0  0  0  0  0  0  0  0  0
  185.6670  178.2780  143.8980 C   0  0  0  0  0  3  0  0  0  0  0  0
  188.5330  177.8510  143.1610 N   0  0  0  0  0  2  0  0  0  0  0  0
  188.7030  177.6090  145.7440 C   0  0  0  0  0  0  0  0  0  0  0  0
  190.9880  177.2880  144.9700 C   0  0  0  0  0  0  0  0  0  0  0  0
  186.5480  178.0630  146.1500 C   0  0  0  0  0  0  0  0  0  0  0  0
  186.7220  178.0090  144.7740 C   0  0  0  0  0  0  0  0  0  0  0  0
  187.6980  177.8390  146.7770 C   0  0  0  0  0  0  0  0  0  0  0  0
  188.7480  176.8570  140.9570 C   0  0  0  0  0  2  0  0  0  0  0  0
  187.2590  178.6200  140.3510 O   0  0  0  0  0  1  0  0  0  0  0  0
  188.6020  178.3250  140.5940 C   0  0  2  0  0  3  0  0  0  0  0  0
  189.4270  178.6280  139.3540 C   0  0  0  0  0  2  0  0  0  0  0  0
  191.9740  177.1290  139.4470 O   0  0  0  0  0  1  0  0  0  0  0  0
  189.7520  177.3930  138.5670 C   0  0  0  0  0  0  0  0  0  0  0  0
  190.8890  175.6230  137.7430 C   0  0  0  0  0  0  0  0  0  0  0  0
  188.8560  176.6990  137.5860 C   0  0  0  0  0  3  0  0  0  0  0  0
  190.9070  176.7590  138.6370 C   0  0  2  0  0  3  0  0  0  0  0  0
  189.7140  175.5530  137.1360 C   0  0  0  0  0  3  0  0  0  0  0  0
  191.5240  173.5400  136.8380 O   0  0  0  0  0  1  0  0  0  0  0  0
  191.9840  174.6280  137.5800 C   0  0  0  0  0  2  0  0  0  0  0  0
  1 18  1  6  0  0  0
  1  3  1  0  0  0  0
  1 12  1  0  0  0  0
  3  4  1  0  0  0  0
  4 14  1  0  0  0  0
  5  6  1  0  0  0  0
  6  8  2  0  0  0  0
 10 16  2  0  0  0  0
 10 13  1  0  0  0  0
 11  5  2  0  0  0  0
 11 16  1  0  0  0  0
 12 10  1  0  0  0  0
 13  2  2  0  0  0  0
 13 17  1  0  0  0  0
 14  9  2  0  0  0  0
 14  2  1  0  0  0  0
 15  8  1  0  0  0  0
 15 17  2  0  0  0  0
 16 15  1  0  0  0  0
 17  7  1  0  0  0  0
 20 19  1  6  0  0  0
 20 18  1  0  0  0  0
 21 20  1  0  0  0  0
 23 26  1  0  0  0  0
 23 21  1  0  0  0  0
 24 26  1  0  0  0  0
 25 23  2  0  0  0  0
 26 22  1  1  0  0  0
 27 25  1  0  0  0  0
 27 24  2  0  0  0  0
 28 29  1  0  0  0  0
 29 24  1  0  0  0  0
M  END
>  <MODEL>
7

>  <REMARK>
 VINA RESULT:      -8.9      2.123      4.171
  Name = 
  5 active torsions:
  status: ('A' for Active; 'I' for Inactive)
    1  A    between atoms: C_1  and  C_13
    2  A    between atoms: C_8  and  C_28
    3  A    between atoms: C_9  and  C_15
    4  A    between atoms: C_13  and  C_18
    5  A    between atoms: C_18  and  C_28
                            x       y       z     vdW  Elec       q    Type
                         _______ _______ _______ _____ _____    ______ ____

>  <TORSDO>
F 5

$$$$
=
 OpenBabel11042410233D

 29 32  0  0  1  0  0  0  0  0999 V2000
  188.3680  177.6050  141.9290 C   0  0  1  0  0  3  0  0  0  0  0  0
  191.6800  176.8730  143.4880 N   0  0  0  0  0  2  0  0  0  0  0  0
  189.4420  177.5010  140.8660 C   0  0  0  0  0  2  0  0  0  0  0  0
  190.4850  176.4820  141.2790 C   0  0  0  0  0  2  0  0  0  0  0  0
  187.3370  178.2270  147.1930 C   0  0  0  0  0  3  0  0  0  0  0  0
  188.2100  177.6550  148.1390 C   0  0  0  0  0  3  0  0  0  0  0  0
  192.0530  176.0930  146.4650 C   0  0  0  0  0  1  0  0  0  0  0  0
  189.4340  177.0970  147.7350 C   0  0  0  0  0  3  0  0  0  0  0  0
  192.4570  177.7920  141.5010 O   0  0  0  0  0  0  0  0  0  0  0  0
  189.3960  177.5910  144.2200 C   0  0  0  0  0  0  0  0  0  0  0  0
  187.6730  178.2430  145.8290 C   0  0  0  0  0  3  0  0  0  0  0  0
  188.8820  178.3020  143.0950 N   0  0  0  0  0  2  0  0  0  0  0  0
  190.7250  176.9760  144.3640 C   0  0  0  0  0  0  0  0  0  0  0  0
  191.5660  177.1210  142.0850 C   0  0  0  0  0  0  0  0  0  0  0  0
  189.7520  177.1160  146.3760 C   0  0  0  0  0  0  0  0  0  0  0  0
  188.8860  177.6680  145.4430 C   0  0  2  0  0  3  0  0  0  0  0  0
  190.8660  176.6940  145.7890 C   0  0  0  0  0  0  0  0  0  0  0  0
  187.1790  178.3670  141.3680 C   0  0  0  0  0  2  0  0  0  0  0  0
  186.0040  177.3360  143.1710 O   0  0  0  0  0  1  0  0  0  0  0  0
  186.0960  178.5120  142.4230 C   0  0  2  0  0  3  0  0  0  0  0  0
  184.7640  178.7990  141.7500 C   0  0  0  0  0  2  0  0  0  0  0  0
  181.8890  178.5860  141.0910 O   0  0  0  0  0  1  0  0  0  0  0  0
  183.6280  178.8520  142.7290 C   0  0  0  0  0  0  0  0  0  0  0  0
  181.5310  178.8610  143.5700 C   0  0  0  0  0  0  0  0  0  0  0  0
  183.7390  179.0320  144.2130 C   0  0  0  0  0  2  0  0  0  0  0  0
  182.3580  178.7580  142.3880 C   0  0  0  0  0  0  0  0  0  0  0  0
  182.3000  179.0030  144.6390 C   0  0  0  0  0  3  0  0  0  0  0  0
  179.6840  177.6150  144.3390 O   0  0  0  0  0  1  0  0  0  0  0  0
  180.0480  178.7440  143.6070 C   0  0  0  0  0  2  0  0  0  0  0  0
  1 18  1  6  0  0  0
  1 12  1  0  0  0  0
  2 13  1  0  0  0  0
  3  4  1  0  0  0  0
  3  1  1  0  0  0  0
  4 14  1  0  0  0  0
  5  6  1  0  0  0  0
  8  6  2  0  0  0  0
  9 14  2  0  0  0  0
 10 13  2  0  0  0  0
 10 16  1  0  0  0  0
 11  5  2  0  0  0  0
 12 10  1  0  0  0  0
 13 17  1  0  0  0  0
 14  2  1  0  0  0  0
 15  8  1  0  0  0  0
 16 11  1  1  0  0  0
 16 15  1  0  0  0  0
 17 15  2  0  0  0  0
 17  7  1  0  0  0  0
 18 20  1  0  0  0  0
 20 19  1  6  0  0  0
 21 20  1  0  0  0  0
 21 23  1  0  0  0  0
 22 26  1  0  0  0  0
 23 25  1  0  0  0  0
 24 29  1  0  0  0  0
 24 27  2  0  0  0  0
 25 27  1  0  0  0  0
 26 23  2  0  0  0  0
 26 24  1  0  0  0  0
 29 28  1  0  0  0  0
M  END
>  <MODEL>
8

>  <REMARK>
 VINA RESULT:      -8.9      2.497      6.219
  Name = 
  5 active torsions:
  status: ('A' for Active; 'I' for Inactive)
    1  A    between atoms: C_1  and  C_13
    2  A    between atoms: C_8  and  C_28
    3  A    between atoms: C_9  and  C_15
    4  A    between atoms: C_13  and  C_18
    5  A    between atoms: C_18  and  C_28
                            x       y       z     vdW  Elec       q    Type
                         _______ _______ _______ _____ _____    ______ ____

>  <TORSDO>
F 5

$$$$
=
 OpenBabel11042410233D

 29 32  0  0  1  0  0  0  0  0999 V2000
  186.7530  177.1190  143.8290 C   0  0  1  0  0  3  0  0  0  0  0  0
  183.9270  178.9600  145.4320 N   0  0  0  0  0  2  0  0  0  0  0  0
  187.0740  177.4280  145.2780 C   0  0  0  0  0  2  0  0  0  0  0  0
  185.8090  177.3920  146.1100 C   0  0  0  0  0  2  0  0  0  0  0  0
  183.5800  178.2730  139.6150 C   0  0  0  0  0  3  0  0  0  0  0  0
  182.2290  178.6040  139.8390 C   0  0  0  0  0  3  0  0  0  0  0  0
  181.1450  179.3350  144.1170 C   0  0  0  0  0  1  0  0  0  0  0  0
  181.7540  178.8240  141.1430 C   0  0  0  0  0  3  0  0  0  0  0  0
  185.6110  179.6320  146.8830 O   0  0  0  0  0  0  0  0  0  0  0  0
  184.6510  178.3010  143.1270 C   0  0  0  0  0  0  0  0  0  0  0  0
  184.4730  178.1490  140.6920 C   0  0  0  0  0  2  0  0  0  0  0  0
  186.0730  178.2480  143.2160 N   0  0  0  0  0  2  0  0  0  0  0  0
  183.6990  178.6770  144.1840 C   0  0  0  0  0  0  0  0  0  0  0  0
  185.1490  178.7300  146.1360 C   0  0  0  0  0  0  0  0  0  0  0  0
  182.6530  178.6930  142.2030 C   0  0  0  0  0  0  0  0  0  0  0  0
  183.9800  178.3540  141.9830 C   0  0  0  0  0  0  0  0  0  0  0  0
  182.4310  178.9030  143.4960 C   0  0  0  0  0  0  0  0  0  0  0  0
  188.0430  176.8360  143.0780 C   0  0  0  0  0  2  0  0  0  0  0  0
  188.5720  178.5600  141.5160 O   0  0  0  0  0  1  0  0  0  0  0  0
  188.8020  178.1270  142.8230 C   0  0  2  0  0  3  0  0  0  0  0  0
  190.2890  177.8930  143.0330 C   0  0  0  0  0  2  0  0  0  0  0  0
  191.9770  175.6180  143.8810 O   0  0  0  0  0  1  0  0  0  0  0  0
  190.6140  177.5160  144.4480 C   0  0  0  0  0  0  0  0  0  0  0  0
  191.4660  176.4040  146.2210 C   0  0  0  0  0  0  0  0  0  0  0  0
  190.1380  178.2120  145.6880 C   0  0  0  0  0  2  0  0  0  0  0  0
  191.3690  176.4870  144.7800 C   0  0  0  0  0  0  0  0  0  0  0  0
  190.7800  177.3940  146.7700 C   0  0  0  0  0  3  0  0  0  0  0  0
  192.8700  176.0350  148.0790 O   0  0  0  0  0  1  0  0  0  0  0  0
  192.2740  175.4120  146.9820 C   0  0  0  0  0  2  0  0  0  0  0  0
  1 18  1  6  0  0  0
  1  3  1  0  0  0  0
  2 14  1  0  0  0  0
  3  4  1  0  0  0  0
  4 14  1  0  0  0  0
  5  6  2  0  0  0  0
  5 11  1  0  0  0  0
  6  8  1  0  0  0  0
  8 15  2  0  0  0  0
 10 12  1  0  0  0  0
 10 13  1  0  0  0  0
 11 16  1  0  0  0  0
 12  1  1  0  0  0  0
 13  2  1  0  0  0  0
 14  9  2  0  0  0  0
 15 17  1  0  0  0  0
 16 15  1  0  0  0  0
 16 10  2  0  0  0  0
 17  7  1  0  0  0  0
 17 13  2  0  0  0  0
 20 19  1  6  0  0  0
 20 21  1  0  0  0  0
 20 18  1  0  0  0  0
 21 23  1  0  0  0  0
 22 26  1  0  0  0  0
 23 26  2  0  0  0  0
 23 25  1  0  0  0  0
 24 27  2  0  0  0  0
 24 29  1  0  0  0  0
 25 27  1  0  0  0  0
 26 24  1  0  0  0  0
 29 28  1  0  0  0  0
M  END
>  <MODEL>
9

>  <REMARK>
 VINA RESULT:      -8.8      2.893      6.300
  Name = 
  5 active torsions:
  status: ('A' for Active; 'I' for Inactive)
    1  A    between atoms: C_1  and  C_13
    2  A    between atoms: C_8  and  C_28
    3  A    between atoms: C_9  and  C_15
    4  A    between atoms: C_13  and  C_18
    5  A    between atoms: C_18  and  C_28
                            x       y       z     vdW  Elec       q    Type
                         _______ _______ _______ _____ _____    ______ ____

>  <TORSDO>
F 5

$$$$
