=
 OpenBabel11032421193D

 52 56  0  0  1  0  0  0  0  0999 V2000
  183.7030  178.9240  139.5050 C   0  0  2  0  0  3  0  0  0  0  0  0
  184.8160  179.7590  139.6130 O   0  0  0  0  0  1  0  0  0  0  0  0
  183.4090  178.7190  138.1280 O   0  0  0  0  0  0  0  0  0  0  0  0
  181.3400  179.6610  137.2360 C   0  0  0  0  0  3  0  0  0  0  0  0
  180.0540  179.4880  136.7270 C   0  0  0  0  0  3  0  0  0  0  0  0
  182.1070  178.5540  137.6330 C   0  0  0  0  0  0  0  0  0  0  0  0
  181.5640  177.2600  137.5300 C   0  0  0  0  0  0  0  0  0  0  0  0
  179.7150  175.8240  136.8530 O   0  0  0  0  0  1  0  0  0  0  0  0
  179.5200  178.2050  136.6060 C   0  0  0  0  0  3  0  0  0  0  0  0
  180.2660  177.0920  136.9980 C   0  0  0  0  0  0  0  0  0  0  0  0
  182.4100  176.0850  137.9440 C   0  0  1  0  0  3  0  0  0  0  0  0
  181.7810  175.3090  139.0860 C   0  0  0  0  0  1  0  0  0  0  0  0
  182.7310  175.1640  136.7730 C   0  0  0  0  0  2  0  0  0  0  0  0
  185.7540  172.0180  136.1820 C   0  0  0  0  0  2  0  0  0  0  0  0
  187.0970  172.7110  136.0450 C   0  0  0  0  0  2  0  0  0  0  0  0
  187.0080  173.9780  136.8830 C   0  0  2  0  0  3  0  0  0  0  0  0
  183.0910  171.5270  137.1180 O   0  0  0  0  0  0  0  0  0  0  0  0
  182.5030  173.7710  137.1350 N   0  0  0  0  0  2  0  0  0  0  0  0
  184.8600  173.0000  136.7600 N   0  0  0  0  0  0  0  0  0  0  0  0
  185.5350  174.2110  137.1770 C   0  0  0  0  0  2  0  0  0  0  0  0
  183.4750  172.7240  137.0150 C   0  0  0  0  0  0  0  0  0  0  0  0
  187.6280  175.1680  136.1660 C   0  0  0  0  0  2  0  0  0  0  0  0
  188.3160  176.0010  137.0710 O   0  0  0  0  0  0  0  0  0  0  0  0
  189.2360  178.2570  136.7800 C   0  0  0  0  0  1  0  0  0  0  0  0
  188.0120  177.3500  136.7830 C   0  0  0  0  0  3  0  0  0  0  0  0
  186.8840  177.9080  137.6430 C   0  0  0  0  0  1  0  0  0  0  0  0
  182.5610  179.5500  140.1590 N   0  0  0  0  0  2  0  0  0  0  0  0
  180.8640  177.9860  141.2340 C   0  0  0  0  0  2  0  0  0  0  0  0
  180.9320  179.3170  141.9690 C   0  0  0  0  0  2  0  0  0  0  0  0
  182.1700  178.7510  141.3150 C   0  0  0  0  0  0  0  0  0  0  0  0
  183.2250  178.3690  142.3370 C   0  0  0  0  0  2  0  0  0  0  0  0
  182.8590  178.8880  143.7120 C   0  0  0  0  0  2  0  0  0  0  0  0
  184.0340  179.6550  144.2760 C   0  0  0  0  0  2  0  0  0  0  0  0
  184.6330  178.8910  145.4390 C   0  0  0  0  0  2  0  0  0  0  0  0
  185.8010  178.0540  144.9560 C   0  0  0  0  0  2  0  0  0  0  0  0
  188.1330  177.6580  145.8380 C   0  0  0  0  0  0  0  0  0  0  0  0
  191.0660  177.6100  142.6530 O   0  0  0  0  0  1  0  0  0  0  0  0
  190.2020  176.5590  142.9910 C   0  0  1  0  0  3  0  0  0  0  0  0
  188.4420  177.3350  148.2010 O   0  0  0  0  0  1  0  0  0  0  0  0
  192.0360  176.1070  145.3250 O   0  0  0  0  0  1  0  0  0  0  0  0
  190.3690  176.9060  146.8430 C   0  0  1  0  0  3  0  0  0  0  0  0
  189.0810  177.7350  147.0260 C   0  0  1  0  0  3  0  0  0  0  0  0
  186.8290  177.9330  146.0350 C   0  0  0  0  0  3  0  0  0  0  0  0
  190.9670  176.9970  145.4330 C   0  0  2  0  0  3  0  0  0  0  0  0
  188.7820  177.6280  144.4730 C   0  0  2  0  0  3  0  0  0  0  0  0
  191.3170  177.3040  147.7870 O   0  0  0  0  0  1  0  0  0  0  0  0
  187.9440  177.3410  143.3820 O   0  0  0  0  0  0  0  0  0  0  0  0
  189.8730  176.6050  144.4520 C   0  0  1  0  0  3  0  0  0  0  0  0
  188.8000  176.7780  142.4020 C   0  0  1  0  0  3  0  0  0  0  0  0
  189.3710  177.1380  140.0990 O   0  0  0  0  0  0  0  0  0  0  0  0
  188.7830  177.5680  141.1270 C   0  0  0  0  0  0  0  0  0  0  0  0
  188.0710  178.7570  141.0660 O   0  0  0  0  0  1  0  0  0  0  0  0
  1  2  1  6  0  0  0
  1 27  1  0  0  0  0
  3  1  1  0  0  0  0
  4  6  1  0  0  0  0
  5  4  2  0  0  0  0
  6  3  1  0  0  0  0
  7  6  2  0  0  0  0
  7 11  1  0  0  0  0
  8 10  1  0  0  0  0
  9  5  1  0  0  0  0
  9 10  2  0  0  0  0
 10  7  1  0  0  0  0
 11 12  1  1  0  0  0
 13 18  1  0  0  0  0
 13 11  1  0  0  0  0
 14 19  1  0  0  0  0
 15 14  1  0  0  0  0
 15 16  1  0  0  0  0
 16 22  1  6  0  0  0
 16 20  1  0  0  0  0
 19 21  1  0  0  0  0
 19 20  1  0  0  0  0
 21 17  2  0  0  0  0
 21 18  1  0  0  0  0
 22 23  1  0  0  0  0
 24 25  1  0  0  0  0
 25 23  1  0  0  0  0
 25 26  1  0  0  0  0
 27 30  1  0  0  0  0
 28 30  1  0  0  0  0
 28 29  1  0  0  0  0
 30 29  1  0  0  0  0
 30 31  1  0  0  0  0
 31 32  1  0  0  0  0
 32 33  1  0  0  0  0
 33 34  1  0  0  0  0
 35 34  1  0  0  0  0
 35 43  1  0  0  0  0
 36 43  2  0  0  0  0
 36 42  1  0  0  0  0
 38 37  1  1  0  0  0
 38 48  1  0  0  0  0
 41 42  1  0  0  0  0
 41 46  1  1  0  0  0
 42 39  1  1  0  0  0
 44 40  1  1  0  0  0
 44 41  1  0  0  0  0
 45 47  1  6  0  0  0
 45 36  1  0  0  0  0
 48 45  1  0  0  0  0
 48 44  1  0  0  0  0
 49 38  1  0  0  0  0
 49 47  1  0  0  0  0
 50 51  2  0  0  0  0
 51 49  1  0  0  0  0
 52 51  1  0  0  0  0
M  END
>  <MODEL>
1

>  <REMARK>
 VINA RESULT:      -8.2      0.000      0.000
  Name = 
  17 active torsions:
  status: ('A' for Active; 'I' for Inactive)
    1  A    between atoms: O_1  and  C_8
    2  A    between atoms: O_1  and  C_26
    3  A    between atoms: O_7  and  C_9
    4  A    between atoms: O_7  and  C_23
    5  A    between atoms: C_8  and  N_40
    6  A    between atoms: C_9  and  C_12
    7  A    between atoms: C_10  and  C_31
    8  A    between atoms: C_10  and  C_39
    9  A    between atoms: C_16  and  C_18
   10  A    between atoms: C_16  and  N_35
   11  A    between atoms: C_18  and  C_28
   12  A    between atoms: C_20  and  C_39
   13  A    between atoms: C_20  and  C_43
   14  A    between atoms: C_29  and  C_31
   15  A    between atoms: C_34  and  C_48
   16  A    between atoms: N_40  and  C_44
   17  A    between atoms: C_43  and  C_44
                            x       y       z     vdW  Elec       q    Type
                         _______ _______ _______ _____ _____    ______ ____

>  <TORSDO>
F 17

$$$$
=
 OpenBabel11032421193D

 52 56  0  0  1  0  0  0  0  0999 V2000
  181.0990  179.2620  139.8690 C   0  0  2  0  0  3  0  0  0  0  0  0
  180.2820  180.1850  140.5240 O   0  0  0  0  0  1  0  0  0  0  0  0
  180.3110  178.5110  138.9530 O   0  0  0  0  0  0  0  0  0  0  0  0
  180.6970  179.6940  136.8520 C   0  0  0  0  0  3  0  0  0  0  0  0
  180.9430  179.6710  135.4800 C   0  0  0  0  0  3  0  0  0  0  0  0
  180.5390  178.4980  137.5700 C   0  0  0  0  0  0  0  0  0  0  0  0
  180.6150  177.2660  136.8930 C   0  0  0  0  0  0  0  0  0  0  0  0
  180.9940  176.0500  134.8150 O   0  0  0  0  0  1  0  0  0  0  0  0
  181.0370  178.4520  134.8090 C   0  0  0  0  0  3  0  0  0  0  0  0
  180.8810  177.2510  135.5060 C   0  0  0  0  0  0  0  0  0  0  0  0
  180.4610  175.9940  137.6850 C   0  0  1  0  0  3  0  0  0  0  0  0
  179.2400  175.2030  137.2550 C   0  0  0  0  0  1  0  0  0  0  0  0
  181.7150  175.1290  137.6340 C   0  0  0  0  0  2  0  0  0  0  0  0
  184.5120  172.2150  135.8790 C   0  0  0  0  0  2  0  0  0  0  0  0
  185.9080  172.7880  136.0350 C   0  0  0  0  0  2  0  0  0  0  0  0
  185.8810  173.6300  137.3040 C   0  0  2  0  0  3  0  0  0  0  0  0
  181.7830  171.6290  136.5260 O   0  0  0  0  0  0  0  0  0  0  0  0
  181.3670  173.7300  137.4190 N   0  0  0  0  0  2  0  0  0  0  0  0
  183.6720  172.9670  136.7900 N   0  0  0  0  0  0  0  0  0  0  0  0
  184.4200  173.8560  137.6540 C   0  0  0  0  0  2  0  0  0  0  0  0
  182.2600  172.7330  136.9050 C   0  0  0  0  0  0  0  0  0  0  0  0
  186.6190  174.9480  137.1160 C   0  0  0  0  0  2  0  0  0  0  0  0
  186.3460  175.5020  135.8490 O   0  0  0  0  0  0  0  0  0  0  0  0
  186.5680  177.4810  137.2850 C   0  0  0  0  0  1  0  0  0  0  0  0
  186.0190  176.8680  136.0020 C   0  0  0  0  0  3  0  0  0  0  0  0
  184.5330  177.1540  135.8190 C   0  0  0  0  0  1  0  0  0  0  0  0
  181.6970  178.3620  140.8490 N   0  0  0  0  0  2  0  0  0  0  0  0
  183.7440  179.2540  139.6250 C   0  0  0  0  0  2  0  0  0  0  0  0
  183.6850  177.7340  139.5690 C   0  0  0  0  0  2  0  0  0  0  0  0
  183.1500  178.4670  140.7760 C   0  0  0  0  0  0  0  0  0  0  0  0
  183.9720  178.1820  142.0200 C   0  0  0  0  0  2  0  0  0  0  0  0
  183.4350  178.9480  143.2110 C   0  0  0  0  0  2  0  0  0  0  0  0
  184.5960  179.4100  144.0620 C   0  0  0  0  0  2  0  0  0  0  0  0
  185.0170  178.2980  145.0010 C   0  0  0  0  0  2  0  0  0  0  0  0
  186.5210  178.1180  144.9400 C   0  0  0  0  0  2  0  0  0  0  0  0
  188.2040  177.5800  143.1370 C   0  0  0  0  0  0  0  0  0  0  0  0
  191.8900  176.0260  144.7980 O   0  0  0  0  0  1  0  0  0  0  0  0
  191.5080  177.3750  144.7610 C   0  0  1  0  0  3  0  0  0  0  0  0
  187.6230  177.9980  140.8420 O   0  0  0  0  0  1  0  0  0  0  0  0
  192.2210  177.2580  141.8460 O   0  0  0  0  0  1  0  0  0  0  0  0
  189.9140  177.4160  141.2340 C   0  0  1  0  0  3  0  0  0  0  0  0
  188.4460  177.2390  141.6750 C   0  0  1  0  0  3  0  0  0  0  0  0
  186.9570  177.9080  143.5250 C   0  0  0  0  0  3  0  0  0  0  0  0
  190.9330  176.9250  142.2690 C   0  0  2  0  0  3  0  0  0  0  0  0
  189.3000  177.1810  144.1020 C   0  0  2  0  0  3  0  0  0  0  0  0
  190.1180  176.7590  140.0190 O   0  0  0  0  0  1  0  0  0  0  0  0
  189.1960  177.6740  145.4120 O   0  0  0  0  0  0  0  0  0  0  0  0
  190.6250  177.6340  143.5790 C   0  0  1  0  0  3  0  0  0  0  0  0
  190.5290  177.7090  145.8950 C   0  0  1  0  0  3  0  0  0  0  0  0
  191.7690  176.9050  147.7860 O   0  0  0  0  0  1  0  0  0  0  0  0
  190.6970  176.8670  147.1250 C   0  0  0  0  0  0  0  0  0  0  0  0
  189.6460  176.0760  147.5660 O   0  0  0  0  0  0  0  0  0  0  0  0
  1  2  1  1  0  0  0
  1 27  1  0  0  0  0
  3  1  1  0  0  0  0
  4  6  1  0  0  0  0
  5  4  2  0  0  0  0
  6  3  1  0  0  0  0
  7  6  2  0  0  0  0
  7 11  1  0  0  0  0
  8 10  1  0  0  0  0
  9  5  1  0  0  0  0
  9 10  2  0  0  0  0
 10  7  1  0  0  0  0
 11 12  1  6  0  0  0
 13 11  1  0  0  0  0
 14 15  1  0  0  0  0
 14 19  1  0  0  0  0
 15 16  1  0  0  0  0
 16 22  1  6  0  0  0
 16 20  1  0  0  0  0
 17 21  2  0  0  0  0
 18 13  1  0  0  0  0
 19 21  1  0  0  0  0
 19 20  1  0  0  0  0
 21 18  1  0  0  0  0
 23 25  1  0  0  0  0
 23 22  1  0  0  0  0
 25 24  1  0  0  0  0
 26 25  1  0  0  0  0
 28 30  1  0  0  0  0
 29 28  1  0  0  0  0
 29 30  1  0  0  0  0
 30 27  1  0  0  0  0
 30 31  1  0  0  0  0
 31 32  1  0  0  0  0
 32 33  1  0  0  0  0
 33 34  1  0  0  0  0
 35 34  1  0  0  0  0
 36 43  2  0  0  0  0
 38 37  1  1  0  0  0
 38 49  1  0  0  0  0
 41 46  1  6  0  0  0
 41 42  1  0  0  0  0
 41 44  1  0  0  0  0
 42 39  1  6  0  0  0
 42 36  1  0  0  0  0
 43 35  1  0  0  0  0
 44 40  1  6  0  0  0
 44 48  1  0  0  0  0
 45 36  1  6  0  0  0
 45 47  1  0  0  0  0
 47 49  1  0  0  0  0
 48 45  1  0  0  0  0
 48 38  1  0  0  0  0
 49 51  1  0  0  0  0
 51 52  2  0  0  0  0
 51 50  1  0  0  0  0
M  END
>  <MODEL>
2

>  <REMARK>
 VINA RESULT:      -7.6      1.539      3.292
  Name = 
  17 active torsions:
  status: ('A' for Active; 'I' for Inactive)
    1  A    between atoms: O_1  and  C_8
    2  A    between atoms: O_1  and  C_26
    3  A    between atoms: O_7  and  C_9
    4  A    between atoms: O_7  and  C_23
    5  A    between atoms: C_8  and  N_40
    6  A    between atoms: C_9  and  C_12
    7  A    between atoms: C_10  and  C_31
    8  A    between atoms: C_10  and  C_39
    9  A    between atoms: C_16  and  C_18
   10  A    between atoms: C_16  and  N_35
   11  A    between atoms: C_18  and  C_28
   12  A    between atoms: C_20  and  C_39
   13  A    between atoms: C_20  and  C_43
   14  A    between atoms: C_29  and  C_31
   15  A    between atoms: C_34  and  C_48
   16  A    between atoms: N_40  and  C_44
   17  A    between atoms: C_43  and  C_44
                            x       y       z     vdW  Elec       q    Type
                         _______ _______ _______ _____ _____    ______ ____

>  <TORSDO>
F 17

$$$$
=
 OpenBabel11032421193D

 52 56  0  0  1  0  0  0  0  0999 V2000
  184.2980  178.8510  139.1110 C   0  0  2  0  0  3  0  0  0  0  0  0
  184.6790  180.1790  138.9090 O   0  0  0  0  0  1  0  0  0  0  0  0
  184.4850  178.1250  137.9030 O   0  0  0  0  0  0  0  0  0  0  0  0
  186.9250  178.0260  137.8780 C   0  0  0  0  0  3  0  0  0  0  0  0
  188.1040  177.3480  137.5710 C   0  0  0  0  0  3  0  0  0  0  0  0
  185.6760  177.4590  137.5790 C   0  0  0  0  0  0  0  0  0  0  0  0
  185.6170  176.2010  136.9500 C   0  0  0  0  0  0  0  0  0  0  0  0
  186.7890  174.2550  136.0670 O   0  0  0  0  0  1  0  0  0  0  0  0
  188.0480  176.0930  136.9640 C   0  0  0  0  0  3  0  0  0  0  0  0
  186.8150  175.5140  136.6580 C   0  0  0  0  0  0  0  0  0  0  0  0
  184.2660  175.6020  136.6560 C   0  0  1  0  0  3  0  0  0  0  0  0
  184.1980  175.0190  135.2570 C   0  0  0  0  0  1  0  0  0  0  0  0
  183.8560  174.5670  137.6970 C   0  0  0  0  0  2  0  0  0  0  0  0
  180.2420  172.0550  137.5670 C   0  0  0  0  0  2  0  0  0  0  0  0
  179.0510  172.9780  137.7420 C   0  0  0  0  0  2  0  0  0  0  0  0
  179.4590  174.3150  137.1380 C   0  0  2  0  0  3  0  0  0  0  0  0
  182.8350  171.1790  136.7180 O   0  0  0  0  0  0  0  0  0  0  0  0
  183.8430  173.2300  137.1160 N   0  0  0  0  0  2  0  0  0  0  0  0
  181.3580  172.9100  137.2170 N   0  0  0  0  0  0  0  0  0  0  0  0
  180.9690  174.2840  136.9740 C   0  0  0  0  0  2  0  0  0  0  0  0
  182.6810  172.3980  137.0000 C   0  0  0  0  0  0  0  0  0  0  0  0
  179.0170  175.4810  138.0100 C   0  0  0  0  0  2  0  0  0  0  0  0
  178.9610  176.6760  137.2650 O   0  0  0  0  0  0  0  0  0  0  0  0
  178.9310  178.3980  139.0130 C   0  0  0  0  0  1  0  0  0  0  0  0
  179.7140  177.6710  137.9270 C   0  0  0  0  0  3  0  0  0  0  0  0
  180.4060  178.6360  136.9720 C   0  0  0  0  0  1  0  0  0  0  0  0
  182.8930  178.8030  139.4960 N   0  0  0  0  0  2  0  0  0  0  0  0
  181.7020  177.6020  141.3990 C   0  0  0  0  0  2  0  0  0  0  0  0
  181.5130  179.1080  141.4930 C   0  0  0  0  0  2  0  0  0  0  0  0
  182.7930  178.5420  140.9270 C   0  0  0  0  0  0  0  0  0  0  0  0
  183.9860  178.8440  141.8160 C   0  0  0  0  0  2  0  0  0  0  0  0
  183.7550  178.3370  143.2240 C   0  0  0  0  0  2  0  0  0  0  0  0
  183.8210  179.5040  144.1840 C   0  0  0  0  0  2  0  0  0  0  0  0
  185.0760  179.4040  145.0260 C   0  0  0  0  0  2  0  0  0  0  0  0
  185.5230  177.9570  145.1090 C   0  0  0  0  0  2  0  0  0  0  0  0
  187.8550  177.5950  146.0050 C   0  0  0  0  0  0  0  0  0  0  0  0
  190.8420  177.9450  142.8880 O   0  0  0  0  0  1  0  0  0  0  0  0
  190.0220  176.8310  143.1210 C   0  0  1  0  0  3  0  0  0  0  0  0
  188.1390  177.0910  148.3390 O   0  0  0  0  0  1  0  0  0  0  0  0
  191.8350  176.2710  145.4470 O   0  0  0  0  0  1  0  0  0  0  0  0
  190.1060  176.8640  146.9910 C   0  0  1  0  0  3  0  0  0  0  0  0
  188.7780  177.6160  147.2140 C   0  0  1  0  0  3  0  0  0  0  0  0
  186.5370  177.7940  146.1960 C   0  0  0  0  0  3  0  0  0  0  0  0
  190.7230  177.0990  145.6060 C   0  0  2  0  0  3  0  0  0  0  0  0
  188.5290  177.7080  144.6550 C   0  0  2  0  0  3  0  0  0  0  0  0
  191.0190  177.2250  147.9840 O   0  0  0  0  0  1  0  0  0  0  0  0
  187.7240  177.4750  143.5280 O   0  0  0  0  0  0  0  0  0  0  0  0
  189.6670  176.7400  144.5730 C   0  0  1  0  0  3  0  0  0  0  0  0
  188.6220  177.0350  142.5230 C   0  0  1  0  0  3  0  0  0  0  0  0
  189.4860  177.8450  140.4350 O   0  0  0  0  0  0  0  0  0  0  0  0
  188.5890  177.9260  141.3170 C   0  0  0  0  0  0  0  0  0  0  0  0
  187.5360  178.8140  141.1470 O   0  0  0  0  0  1  0  0  0  0  0  0
  1  2  1  6  0  0  0
  1 27  1  0  0  0  0
  3  1  1  0  0  0  0
  5  4  2  0  0  0  0
  6  4  1  0  0  0  0
  6  3  1  0  0  0  0
  7  6  2  0  0  0  0
  8 10  1  0  0  0  0
  9  5  1  0  0  0  0
 10  7  1  0  0  0  0
 10  9  2  0  0  0  0
 11 12  1  6  0  0  0
 11  7  1  0  0  0  0
 11 13  1  0  0  0  0
 14 15  1  0  0  0  0
 16 15  1  0  0  0  0
 16 22  1  1  0  0  0
 17 21  2  0  0  0  0
 18 13  1  0  0  0  0
 19 14  1  0  0  0  0
 20 16  1  0  0  0  0
 20 19  1  0  0  0  0
 21 18  1  0  0  0  0
 21 19  1  0  0  0  0
 23 25  1  0  0  0  0
 23 22  1  0  0  0  0
 25 24  1  0  0  0  0
 26 25  1  0  0  0  0
 27 30  1  0  0  0  0
 28 29  1  0  0  0  0
 30 28  1  0  0  0  0
 30 29  1  0  0  0  0
 30 31  1  0  0  0  0
 31 32  1  0  0  0  0
 32 33  1  0  0  0  0
 33 34  1  0  0  0  0
 34 35  1  0  0  0  0
 35 43  1  0  0  0  0
 36 43  2  0  0  0  0
 36 42  1  0  0  0  0
 38 37  1  1  0  0  0
 38 48  1  0  0  0  0
 41 42  1  0  0  0  0
 41 46  1  1  0  0  0
 42 39  1  1  0  0  0
 44 40  1  6  0  0  0
 44 41  1  0  0  0  0
 45 47  1  6  0  0  0
 45 36  1  0  0  0  0
 48 45  1  0  0  0  0
 48 44  1  0  0  0  0
 49 38  1  0  0  0  0
 49 47  1  0  0  0  0
 50 51  2  0  0  0  0
 51 49  1  0  0  0  0
 52 51  1  0  0  0  0
M  END
>  <MODEL>
3

>  <REMARK>
 VINA RESULT:      -7.5      1.347      4.243
  Name = 
  17 active torsions:
  status: ('A' for Active; 'I' for Inactive)
    1  A    between atoms: O_1  and  C_8
    2  A    between atoms: O_1  and  C_26
    3  A    between atoms: O_7  and  C_9
    4  A    between atoms: O_7  and  C_23
    5  A    between atoms: C_8  and  N_40
    6  A    between atoms: C_9  and  C_12
    7  A    between atoms: C_10  and  C_31
    8  A    between atoms: C_10  and  C_39
    9  A    between atoms: C_16  and  C_18
   10  A    between atoms: C_16  and  N_35
   11  A    between atoms: C_18  and  C_28
   12  A    between atoms: C_20  and  C_39
   13  A    between atoms: C_20  and  C_43
   14  A    between atoms: C_29  and  C_31
   15  A    between atoms: C_34  and  C_48
   16  A    between atoms: N_40  and  C_44
   17  A    between atoms: C_43  and  C_44
                            x       y       z     vdW  Elec       q    Type
                         _______ _______ _______ _____ _____    ______ ____

>  <TORSDO>
F 17

$$$$
=
 OpenBabel11032421193D

 52 56  0  0  1  0  0  0  0  0999 V2000
  184.4170  178.6010  138.9980 C   0  0  2  0  0  3  0  0  0  0  0  0
  184.5520  179.9860  139.1080 O   0  0  0  0  0  1  0  0  0  0  0  0
  184.7650  178.2050  137.6760 O   0  0  0  0  0  0  0  0  0  0  0  0
  187.2050  178.1170  137.6580 C   0  0  0  0  0  3  0  0  0  0  0  0
  188.3880  177.4440  137.3570 C   0  0  0  0  0  3  0  0  0  0  0  0
  185.9600  177.5430  137.3590 C   0  0  0  0  0  0  0  0  0  0  0  0
  185.9080  176.2810  136.7370 C   0  0  0  0  0  0  0  0  0  0  0  0
  187.0910  174.3370  135.8660 O   0  0  0  0  0  1  0  0  0  0  0  0
  188.3400  176.1850  136.7570 C   0  0  0  0  0  3  0  0  0  0  0  0
  187.1100  175.5980  136.4500 C   0  0  0  0  0  0  0  0  0  0  0  0
  184.5610  175.6740  136.4430 C   0  0  1  0  0  3  0  0  0  0  0  0
  184.5340  174.9820  135.0930 C   0  0  0  0  0  1  0  0  0  0  0  0
  184.1010  174.7300  137.5470 C   0  0  0  0  0  2  0  0  0  0  0  0
  180.7200  171.9090  137.4820 C   0  0  0  0  0  2  0  0  0  0  0  0
  179.4490  172.7370  137.4720 C   0  0  0  0  0  2  0  0  0  0  0  0
  179.7910  174.0300  136.7430 C   0  0  2  0  0  3  0  0  0  0  0  0
  183.4300  171.1770  136.9070 O   0  0  0  0  0  0  0  0  0  0  0  0
  184.2380  173.3410  137.1270 N   0  0  0  0  0  2  0  0  0  0  0  0
  181.7860  172.8160  137.1060 N   0  0  0  0  0  0  0  0  0  0  0  0
  181.3070  174.1140  136.6800 C   0  0  0  0  0  2  0  0  0  0  0  0
  183.1590  172.4020  137.0340 C   0  0  0  0  0  0  0  0  0  0  0  0
  179.1940  175.2420  137.4440 C   0  0  0  0  0  2  0  0  0  0  0  0
  179.5440  176.4330  136.7770 O   0  0  0  0  0  0  0  0  0  0  0  0
  178.9310  177.5170  138.8920 C   0  0  0  0  0  1  0  0  0  0  0  0
  179.9130  177.4070  137.7320 C   0  0  0  0  0  3  0  0  0  0  0  0
  180.2280  178.7640  137.1140 C   0  0  0  0  0  1  0  0  0  0  0  0
  183.0350  178.2260  139.2700 N   0  0  0  0  0  2  0  0  0  0  0  0
  181.4310  177.8480  141.2120 C   0  0  0  0  0  2  0  0  0  0  0  0
  181.8150  179.3150  141.0890 C   0  0  0  0  0  2  0  0  0  0  0  0
  182.8070  178.2410  140.7110 C   0  0  0  0  0  0  0  0  0  0  0  0
  184.0020  178.2210  141.6470 C   0  0  0  0  0  2  0  0  0  0  0  0
  183.7380  179.0590  142.8800 C   0  0  0  0  0  2  0  0  0  0  0  0
  184.0950  178.2510  144.1080 C   0  0  0  0  0  2  0  0  0  0  0  0
  185.1780  178.9620  144.8920 C   0  0  0  0  0  2  0  0  0  0  0  0
  186.4390  178.1200  144.9040 C   0  0  0  0  0  2  0  0  0  0  0  0
  188.1810  177.5690  143.1620 C   0  0  0  0  0  0  0  0  0  0  0  0
  191.8230  176.0630  144.9570 O   0  0  0  0  0  1  0  0  0  0  0  0
  191.4340  177.4090  144.8900 C   0  0  1  0  0  3  0  0  0  0  0  0
  187.6690  177.9520  140.8440 O   0  0  0  0  0  1  0  0  0  0  0  0
  192.2380  177.2570  142.0010 O   0  0  0  0  0  1  0  0  0  0  0  0
  189.9500  177.3910  141.3140 C   0  0  1  0  0  3  0  0  0  0  0  0
  188.4710  177.2100  141.7130 C   0  0  1  0  0  3  0  0  0  0  0  0
  186.9200  177.8940  143.5060 C   0  0  0  0  0  3  0  0  0  0  0  0
  190.9400  176.9210  142.3880 C   0  0  2  0  0  3  0  0  0  0  0  0
  189.2480  177.1910  144.1650 C   0  0  2  0  0  3  0  0  0  0  0  0
  190.1970  176.7190  140.1160 O   0  0  0  0  0  1  0  0  0  0  0  0
  189.1010  177.7010  145.4650 O   0  0  0  0  0  0  0  0  0  0  0  0
  190.5870  177.6460  143.6770 C   0  0  1  0  0  3  0  0  0  0  0  0
  190.4180  177.7510  145.9890 C   0  0  1  0  0  3  0  0  0  0  0  0
  191.6280  176.9310  147.8920 O   0  0  0  0  0  1  0  0  0  0  0  0
  190.5530  176.9270  147.2340 C   0  0  0  0  0  0  0  0  0  0  0  0
  189.4690  176.1930  147.6930 O   0  0  0  0  0  0  0  0  0  0  0  0
  1  2  1  6  0  0  0
  1 27  1  0  0  0  0
  3  1  1  0  0  0  0
  5  4  2  0  0  0  0
  6  4  1  0  0  0  0
  6  3  1  0  0  0  0
  7  6  2  0  0  0  0
  8 10  1  0  0  0  0
  9  5  1  0  0  0  0
 10  7  1  0  0  0  0
 10  9  2  0  0  0  0
 11 12  1  6  0  0  0
 11  7  1  0  0  0  0
 11 13  1  0  0  0  0
 15 14  1  0  0  0  0
 16 22  1  1  0  0  0
 16 15  1  0  0  0  0
 17 21  2  0  0  0  0
 18 13  1  0  0  0  0
 19 14  1  0  0  0  0
 20 16  1  0  0  0  0
 20 19  1  0  0  0  0
 21 19  1  0  0  0  0
 21 18  1  0  0  0  0
 23 22  1  0  0  0  0
 23 25  1  0  0  0  0
 25 24  1  0  0  0  0
 26 25  1  0  0  0  0
 27 30  1  0  0  0  0
 29 28  1  0  0  0  0
 30 29  1  0  0  0  0
 30 28  1  0  0  0  0
 30 31  1  0  0  0  0
 31 32  1  0  0  0  0
 32 33  1  0  0  0  0
 33 34  1  0  0  0  0
 34 35  1  0  0  0  0
 36 43  2  0  0  0  0
 38 37  1  1  0  0  0
 38 49  1  0  0  0  0
 41 46  1  6  0  0  0
 41 42  1  0  0  0  0
 41 44  1  0  0  0  0
 42 39  1  6  0  0  0
 42 36  1  0  0  0  0
 43 35  1  0  0  0  0
 44 40  1  6  0  0  0
 44 48  1  0  0  0  0
 45 36  1  6  0  0  0
 45 47  1  0  0  0  0
 47 49  1  0  0  0  0
 48 45  1  0  0  0  0
 48 38  1  0  0  0  0
 49 51  1  0  0  0  0
 51 52  2  0  0  0  0
 51 50  1  0  0  0  0
M  END
>  <MODEL>
4

>  <REMARK>
 VINA RESULT:      -7.2      1.485      5.072
  Name = 
  17 active torsions:
  status: ('A' for Active; 'I' for Inactive)
    1  A    between atoms: O_1  and  C_8
    2  A    between atoms: O_1  and  C_26
    3  A    between atoms: O_7  and  C_9
    4  A    between atoms: O_7  and  C_23
    5  A    between atoms: C_8  and  N_40
    6  A    between atoms: C_9  and  C_12
    7  A    between atoms: C_10  and  C_31
    8  A    between atoms: C_10  and  C_39
    9  A    between atoms: C_16  and  C_18
   10  A    between atoms: C_16  and  N_35
   11  A    between atoms: C_18  and  C_28
   12  A    between atoms: C_20  and  C_39
   13  A    between atoms: C_20  and  C_43
   14  A    between atoms: C_29  and  C_31
   15  A    between atoms: C_34  and  C_48
   16  A    between atoms: N_40  and  C_44
   17  A    between atoms: C_43  and  C_44
                            x       y       z     vdW  Elec       q    Type
                         _______ _______ _______ _____ _____    ______ ____

>  <TORSDO>
F 17

$$$$
=
 OpenBabel11032421193D

 52 56  0  0  1  0  0  0  0  0999 V2000
  184.9830  178.4180  139.8170 C   0  0  2  0  0  3  0  0  0  0  0  0
  184.7220  179.7400  140.1840 O   0  0  0  0  0  1  0  0  0  0  0  0
  184.8010  178.2810  138.4130 O   0  0  0  0  0  0  0  0  0  0  0  0
  187.1050  178.1900  137.6100 C   0  0  0  0  0  3  0  0  0  0  0  0
  188.0710  177.6400  136.7690 C   0  0  0  0  0  3  0  0  0  0  0  0
  185.7740  177.7460  137.5570 C   0  0  0  0  0  0  0  0  0  0  0  0
  185.4120  176.7460  136.6350 C   0  0  0  0  0  0  0  0  0  0  0  0
  186.0810  175.1700  134.9010 O   0  0  0  0  0  1  0  0  0  0  0  0
  187.7190  176.6360  135.8680 C   0  0  0  0  0  3  0  0  0  0  0  0
  186.4000  176.1820  135.7990 C   0  0  0  0  0  0  0  0  0  0  0  0
  183.9830  176.2710  136.6080 C   0  0  1  0  0  3  0  0  0  0  0  0
  183.3310  176.5130  135.2600 C   0  0  0  0  0  1  0  0  0  0  0  0
  183.8550  174.8080  137.0190 C   0  0  0  0  0  2  0  0  0  0  0  0
  181.8300  171.1760  135.5720 C   0  0  0  0  0  2  0  0  0  0  0  0
  182.9120  170.1980  135.1560 C   0  0  0  0  0  2  0  0  0  0  0  0
  184.1080  170.4820  136.0550 C   0  0  2  0  0  3  0  0  0  0  0  0
  180.5370  173.2380  137.0840 O   0  0  0  0  0  0  0  0  0  0  0  0
  182.4730  174.4870  137.3540 N   0  0  0  0  0  2  0  0  0  0  0  0
  182.4890  172.1700  136.3940 N   0  0  0  0  0  0  0  0  0  0  0  0
  183.8640  171.8360  136.7000 C   0  0  0  0  0  2  0  0  0  0  0  0
  181.7900  173.2910  136.9550 C   0  0  0  0  0  0  0  0  0  0  0  0
  185.4130  170.4640  135.2720 C   0  0  0  0  0  2  0  0  0  0  0  0
  185.9790  171.7520  135.2060 O   0  0  0  0  0  0  0  0  0  0  0  0
  187.8630  170.2420  135.6480 C   0  0  0  0  0  1  0  0  0  0  0  0
  187.3500  171.6730  135.5390 C   0  0  0  0  0  3  0  0  0  0  0  0
  187.7230  172.5130  136.7550 C   0  0  0  0  0  1  0  0  0  0  0  0
  184.0620  177.5300  140.5170 N   0  0  0  0  0  2  0  0  0  0  0  0
  181.5500  177.9340  140.6010 C   0  0  0  0  0  2  0  0  0  0  0  0
  182.2760  179.1030  139.9520 C   0  0  0  0  0  2  0  0  0  0  0  0
  182.9490  178.3100  141.0460 C   0  0  0  0  0  0  0  0  0  0  0  0
  183.1620  179.1420  142.2980 C   0  0  0  0  0  2  0  0  0  0  0  0
  184.0320  178.4060  143.2950 C   0  0  0  0  0  2  0  0  0  0  0  0
  183.5560  178.7270  144.6940 C   0  0  0  0  0  2  0  0  0  0  0  0
  184.7460  178.8680  145.6200 C   0  0  0  0  0  2  0  0  0  0  0  0
  185.9220  178.0880  145.0670 C   0  0  0  0  0  2  0  0  0  0  0  0
  188.2580  177.5970  145.8890 C   0  0  0  0  0  0  0  0  0  0  0  0
  191.1070  177.4540  142.6310 O   0  0  0  0  0  1  0  0  0  0  0  0
  190.2110  176.4350  142.9860 C   0  0  1  0  0  3  0  0  0  0  0  0
  188.6130  177.2500  148.2420 O   0  0  0  0  0  1  0  0  0  0  0  0
  192.0840  175.9010  145.2710 O   0  0  0  0  0  1  0  0  0  0  0  0
  190.4870  176.7540  146.8340 C   0  0  1  0  0  3  0  0  0  0  0  0
  189.2370  177.6310  147.0520 C   0  0  1  0  0  3  0  0  0  0  0  0
  186.9710  177.9210  146.1190 C   0  0  0  0  0  3  0  0  0  0  0  0
  191.0530  176.8300  145.4100 C   0  0  2  0  0  3  0  0  0  0  0  0
  188.8710  177.5490  144.5070 C   0  0  2  0  0  3  0  0  0  0  0  0
  191.4730  177.1100  147.7560 O   0  0  0  0  0  1  0  0  0  0  0  0
  187.9960  177.3010  143.4370 O   0  0  0  0  0  0  0  0  0  0  0  0
  189.9210  176.4850  144.4550 C   0  0  1  0  0  3  0  0  0  0  0  0
  188.8050  176.7110  142.4330 C   0  0  1  0  0  3  0  0  0  0  0  0
  188.2660  178.6550  141.1330 O   0  0  0  0  0  1  0  0  0  0  0  0
  188.7870  177.5080  141.1630 C   0  0  0  0  0  0  0  0  0  0  0  0
  189.3910  176.9980  140.0230 O   0  0  0  0  0  0  0  0  0  0  0  0
  1  2  1  1  0  0  0
  1 27  1  0  0  0  0
  3  1  1  0  0  0  0
  5  4  2  0  0  0  0
  6  4  1  0  0  0  0
  6  3  1  0  0  0  0
  7  6  2  0  0  0  0
  8 10  1  0  0  0  0
  9  5  1  0  0  0  0
 10  9  2  0  0  0  0
 10  7  1  0  0  0  0
 11 12  1  6  0  0  0
 11  7  1  0  0  0  0
 11 13  1  0  0  0  0
 13 18  1  0  0  0  0
 14 19  1  0  0  0  0
 15 14  1  0  0  0  0
 15 16  1  0  0  0  0
 16 22  1  6  0  0  0
 16 20  1  0  0  0  0
 19 20  1  0  0  0  0
 19 21  1  0  0  0  0
 21 17  2  0  0  0  0
 21 18  1  0  0  0  0
 23 22  1  0  0  0  0
 23 25  1  0  0  0  0
 25 24  1  0  0  0  0
 25 26  1  0  0  0  0
 27 30  1  0  0  0  0
 28 30  1  0  0  0  0
 29 28  1  0  0  0  0
 29 30  1  0  0  0  0
 30 31  1  0  0  0  0
 31 32  1  0  0  0  0
 32 33  1  0  0  0  0
 33 34  1  0  0  0  0
 35 34  1  0  0  0  0
 35 43  1  0  0  0  0
 36 43  2  0  0  0  0
 36 42  1  0  0  0  0
 38 37  1  1  0  0  0
 38 48  1  0  0  0  0
 41 42  1  0  0  0  0
 41 46  1  1  0  0  0
 42 39  1  1  0  0  0
 44 40  1  1  0  0  0
 44 41  1  0  0  0  0
 45 47  1  6  0  0  0
 45 36  1  0  0  0  0
 48 45  1  0  0  0  0
 48 44  1  0  0  0  0
 49 38  1  0  0  0  0
 49 47  1  0  0  0  0
 50 51  1  0  0  0  0
 51 49  1  0  0  0  0
 52 51  2  0  0  0  0
M  END
>  <MODEL>
5

>  <REMARK>
 VINA RESULT:      -7.1      1.721      3.462
  Name = 
  17 active torsions:
  status: ('A' for Active; 'I' for Inactive)
    1  A    between atoms: O_1  and  C_8
    2  A    between atoms: O_1  and  C_26
    3  A    between atoms: O_7  and  C_9
    4  A    between atoms: O_7  and  C_23
    5  A    between atoms: C_8  and  N_40
    6  A    between atoms: C_9  and  C_12
    7  A    between atoms: C_10  and  C_31
    8  A    between atoms: C_10  and  C_39
    9  A    between atoms: C_16  and  C_18
   10  A    between atoms: C_16  and  N_35
   11  A    between atoms: C_18  and  C_28
   12  A    between atoms: C_20  and  C_39
   13  A    between atoms: C_20  and  C_43
   14  A    between atoms: C_29  and  C_31
   15  A    between atoms: C_34  and  C_48
   16  A    between atoms: N_40  and  C_44
   17  A    between atoms: C_43  and  C_44
                            x       y       z     vdW  Elec       q    Type
                         _______ _______ _______ _____ _____    ______ ____

>  <TORSDO>
F 17

$$$$
=
 OpenBabel11032421193D

 52 56  0  0  1  0  0  0  0  0999 V2000
  182.4540  178.2670  140.4200 C   0  0  2  0  0  3  0  0  0  0  0  0
  183.4890  179.0490  139.9060 O   0  0  0  0  0  1  0  0  0  0  0  0
  181.9890  177.3860  139.4040 O   0  0  0  0  0  0  0  0  0  0  0  0
  180.8190  178.7250  137.7300 C   0  0  0  0  0  3  0  0  0  0  0  0
  180.6480  179.1240  136.4050 C   0  0  0  0  0  3  0  0  0  0  0  0
  181.7980  177.7780  138.0710 C   0  0  0  0  0  0  0  0  0  0  0  0
  182.6020  177.2160  137.0620 C   0  0  0  0  0  0  0  0  0  0  0  0
  183.2350  177.1250  134.7100 O   0  0  0  0  0  1  0  0  0  0  0  0
  181.4560  178.5820  135.4060 C   0  0  0  0  0  3  0  0  0  0  0  0
  182.4340  177.6370  135.7250 C   0  0  0  0  0  0  0  0  0  0  0  0
  183.6580  176.2160  137.4520 C   0  0  1  0  0  3  0  0  0  0  0  0
  183.3250  174.8190  136.9620 C   0  0  0  0  0  1  0  0  0  0  0  0
  185.0490  176.6360  136.9900 C   0  0  0  0  0  2  0  0  0  0  0  0
  189.3420  176.9990  137.9010 C   0  0  0  0  0  2  0  0  0  0  0  0
  190.0920  176.2410  136.8210 C   0  0  0  0  0  2  0  0  0  0  0  0
  189.2420  176.3460  135.5620 C   0  0  2  0  0  3  0  0  0  0  0  0
  187.3070  178.6280  139.0910 O   0  0  0  0  0  0  0  0  0  0  0  0
  185.5880  177.6760  137.8580 N   0  0  0  0  0  2  0  0  0  0  0  0
  188.0050  177.2060  137.3820 N   0  0  0  0  0  0  0  0  0  0  0  0
  187.8630  176.8110  135.9960 C   0  0  0  0  0  2  0  0  0  0  0  0
  186.9800  177.8690  138.1380 C   0  0  0  0  0  0  0  0  0  0  0  0
  189.1750  175.0180  134.8200 C   0  0  0  0  0  2  0  0  0  0  0  0
  187.8580  174.5190  134.7990 O   0  0  0  0  0  0  0  0  0  0  0  0
  186.7380  172.3350  134.7700 C   0  0  0  0  0  1  0  0  0  0  0  0
  187.8490  173.2120  135.3350 C   0  0  0  0  0  3  0  0  0  0  0  0
  187.8840  173.1870  136.8590 C   0  0  0  0  0  1  0  0  0  0  0  0
  181.3620  179.1310  140.8530 N   0  0  0  0  0  2  0  0  0  0  0  0
  179.5440  177.3760  141.1670 C   0  0  0  0  0  2  0  0  0  0  0  0
  179.0470  178.7610  141.5520 C   0  0  0  0  0  2  0  0  0  0  0  0
  180.4950  178.3920  141.7650 C   0  0  0  0  0  0  0  0  0  0  0  0
  180.8540  178.3380  143.2390 C   0  0  0  0  0  2  0  0  0  0  0  0
  181.8980  179.3810  143.5810 C   0  0  0  0  0  2  0  0  0  0  0  0
  183.1340  178.6840  144.1040 C   0  0  0  0  0  2  0  0  0  0  0  0
  184.3250  179.0300  143.2340 C   0  0  0  0  0  2  0  0  0  0  0  0
  185.4800  178.1020  143.5540 C   0  0  0  0  0  2  0  0  0  0  0  0
  187.1260  178.0160  145.4660 C   0  0  0  0  0  0  0  0  0  0  0  0
  191.1750  177.3770  144.0680 O   0  0  0  0  0  1  0  0  0  0  0  0
  190.1840  176.3930  144.1960 C   0  0  1  0  0  3  0  0  0  0  0  0
  186.3080  178.2470  147.7150 O   0  0  0  0  0  1  0  0  0  0  0  0
  190.7260  176.5580  147.1450 O   0  0  0  0  0  1  0  0  0  0  0  0
  188.6080  177.6060  147.5180 C   0  0  1  0  0  3  0  0  0  0  0  0
  187.4350  178.3980  146.9050 C   0  0  1  0  0  3  0  0  0  0  0  0
  185.8960  178.2720  144.9800 C   0  0  0  0  0  3  0  0  0  0  0  0
  189.7850  177.4030  146.5550 C   0  0  2  0  0  3  0  0  0  0  0  0
  188.3210  177.7060  144.5910 C   0  0  2  0  0  3  0  0  0  0  0  0
  189.0490  178.2460  148.6770 O   0  0  0  0  0  1  0  0  0  0  0  0
  188.0520  177.1460  143.3320 O   0  0  0  0  0  0  0  0  0  0  0  0
  189.2320  176.7530  145.2960 C   0  0  1  0  0  3  0  0  0  0  0  0
  189.2200  176.4130  143.0010 C   0  0  1  0  0  3  0  0  0  0  0  0
  190.6540  176.1720  141.0910 O   0  0  0  0  0  0  0  0  0  0  0  0
  189.8350  176.8940  141.7200 C   0  0  0  0  0  0  0  0  0  0  0  0
  189.4600  178.1240  141.1970 O   0  0  0  0  0  1  0  0  0  0  0  0
  1  2  1  6  0  0  0
  1 27  1  0  0  0  0
  3  1  1  0  0  0  0
  4  6  1  0  0  0  0
  5  4  2  0  0  0  0
  6  3  1  0  0  0  0
  7 11  1  0  0  0  0
  7  6  2  0  0  0  0
  8 10  1  0  0  0  0
  9 10  2  0  0  0  0
  9  5  1  0  0  0  0
 10  7  1  0  0  0  0
 11 12  1  6  0  0  0
 13 11  1  0  0  0  0
 13 18  1  0  0  0  0
 15 14  1  0  0  0  0
 16 22  1  1  0  0  0
 16 20  1  0  0  0  0
 16 15  1  0  0  0  0
 18 21  1  0  0  0  0
 19 14  1  0  0  0  0
 19 21  1  0  0  0  0
 20 19  1  0  0  0  0
 21 17  2  0  0  0  0
 23 22  1  0  0  0  0
 23 25  1  0  0  0  0
 24 25  1  0  0  0  0
 25 26  1  0  0  0  0
 27 30  1  0  0  0  0
 28 29  1  0  0  0  0
 28 30  1  0  0  0  0
 29 30  1  0  0  0  0
 30 31  1  0  0  0  0
 31 32  1  0  0  0  0
 32 33  1  0  0  0  0
 34 35  1  0  0  0  0
 34 33  1  0  0  0  0
 35 43  1  0  0  0  0
 36 42  1  0  0  0  0
 38 37  1  6  0  0  0
 38 48  1  0  0  0  0
 41 46  1  1  0  0  0
 42 41  1  0  0  0  0
 42 39  1  1  0  0  0
 43 36  2  0  0  0  0
 44 40  1  1  0  0  0
 44 41  1  0  0  0  0
 45 47  1  6  0  0  0
 45 48  1  0  0  0  0
 45 36  1  0  0  0  0
 48 44  1  0  0  0  0
 49 47  1  0  0  0  0
 49 38  1  0  0  0  0
 50 51  2  0  0  0  0
 51 49  1  0  0  0  0
 52 51  1  0  0  0  0
M  END
>  <MODEL>
6

>  <REMARK>
 VINA RESULT:      -7.1      1.917      3.065
  Name = 
  17 active torsions:
  status: ('A' for Active; 'I' for Inactive)
    1  A    between atoms: O_1  and  C_8
    2  A    between atoms: O_1  and  C_26
    3  A    between atoms: O_7  and  C_9
    4  A    between atoms: O_7  and  C_23
    5  A    between atoms: C_8  and  N_40
    6  A    between atoms: C_9  and  C_12
    7  A    between atoms: C_10  and  C_31
    8  A    between atoms: C_10  and  C_39
    9  A    between atoms: C_16  and  C_18
   10  A    between atoms: C_16  and  N_35
   11  A    between atoms: C_18  and  C_28
   12  A    between atoms: C_20  and  C_39
   13  A    between atoms: C_20  and  C_43
   14  A    between atoms: C_29  and  C_31
   15  A    between atoms: C_34  and  C_48
   16  A    between atoms: N_40  and  C_44
   17  A    between atoms: C_43  and  C_44
                            x       y       z     vdW  Elec       q    Type
                         _______ _______ _______ _____ _____    ______ ____

>  <TORSDO>
F 17

$$$$
=
 OpenBabel11032421193D

 52 56  0  0  1  0  0  0  0  0999 V2000
  186.5220  177.9340  139.2080 C   0  0  2  0  0  3  0  0  0  0  0  0
  187.5170  178.0070  140.1850 O   0  0  0  0  0  1  0  0  0  0  0  0
  187.1250  178.0260  137.9230 O   0  0  0  0  0  0  0  0  0  0  0  0
  189.5520  177.7900  138.0360 C   0  0  0  0  0  3  0  0  0  0  0  0
  190.7160  177.1010  137.6990 C   0  0  0  0  0  3  0  0  0  0  0  0
  188.3020  177.3500  137.5730 C   0  0  0  0  0  0  0  0  0  0  0  0
  188.2280  176.2120  136.7480 C   0  0  0  0  0  0  0  0  0  0  0  0
  189.3650  174.3630  135.6400 O   0  0  0  0  0  1  0  0  0  0  0  0
  190.6440  175.9610  136.8970 C   0  0  0  0  0  3  0  0  0  0  0  0
  189.4100  175.5100  136.4250 C   0  0  0  0  0  0  0  0  0  0  0  0
  186.8740  175.7470  136.2780 C   0  0  1  0  0  3  0  0  0  0  0  0
  186.8520  175.4920  134.7820 C   0  0  0  0  0  1  0  0  0  0  0  0
  186.3870  174.5230  137.0450 C   0  0  0  0  0  2  0  0  0  0  0  0
  183.4180  171.2800  136.8110 C   0  0  0  0  0  2  0  0  0  0  0  0
  182.0810  171.8700  137.2190 C   0  0  0  0  0  2  0  0  0  0  0  0
  182.1170  173.3330  136.7980 C   0  0  2  0  0  3  0  0  0  0  0  0
  186.0290  171.1510  135.6380 O   0  0  0  0  0  0  0  0  0  0  0  0
  186.6020  173.3090  136.2680 N   0  0  0  0  0  2  0  0  0  0  0  0
  184.2740  172.4100  136.5120 N   0  0  0  0  0  0  0  0  0  0  0  0
  183.5700  173.6750  136.5140 C   0  0  0  0  0  2  0  0  0  0  0  0
  185.6440  172.2530  136.1160 C   0  0  0  0  0  0  0  0  0  0  0  0
  181.5300  174.2380  137.8720 C   0  0  0  0  0  2  0  0  0  0  0  0
  181.8020  175.5920  137.5930 O   0  0  0  0  0  0  0  0  0  0  0  0
  180.5200  177.1850  136.2350 C   0  0  0  0  0  1  0  0  0  0  0  0
  180.5820  176.2940  137.4700 C   0  0  0  0  0  3  0  0  0  0  0  0
  180.1880  177.0420  138.7390 C   0  0  0  0  0  1  0  0  0  0  0  0
  185.5850  179.0370  139.3870 N   0  0  0  0  0  2  0  0  0  0  0  0
  183.5450  178.4230  137.9930 C   0  0  0  0  0  2  0  0  0  0  0  0
  183.2500  179.5960  138.9160 C   0  0  0  0  0  2  0  0  0  0  0  0
  184.2210  178.5220  139.3460 C   0  0  0  0  0  0  0  0  0  0  0  0
  183.6970  177.7280  140.5290 C   0  0  0  0  0  2  0  0  0  0  0  0
  182.9600  178.6270  141.5000 C   0  0  0  0  0  2  0  0  0  0  0  0
  183.5290  178.4230  142.8870 C   0  0  0  0  0  2  0  0  0  0  0  0
  184.9360  178.9790  142.9500 C   0  0  0  0  0  2  0  0  0  0  0  0
  185.8860  177.9120  143.4570 C   0  0  0  0  0  2  0  0  0  0  0  0
  187.2430  177.9160  145.5860 C   0  0  0  0  0  0  0  0  0  0  0  0
  191.4960  177.8610  144.7770 O   0  0  0  0  0  1  0  0  0  0  0  0
  190.6340  176.7570  144.7180 C   0  0  1  0  0  3  0  0  0  0  0  0
  186.0910  177.9140  147.6970 O   0  0  0  0  0  1  0  0  0  0  0  0
  190.7270  176.8150  147.7190 O   0  0  0  0  0  1  0  0  0  0  0  0
  188.4600  177.5710  147.8160 C   0  0  1  0  0  3  0  0  0  0  0  0
  187.2930  178.2490  147.0690 C   0  0  1  0  0  3  0  0  0  0  0  0
  186.0710  178.0470  144.9350 C   0  0  0  0  0  3  0  0  0  0  0  0
  189.7770  177.5710  147.0310 C   0  0  2  0  0  3  0  0  0  0  0  0
  188.5790  177.8070  144.8860 C   0  0  2  0  0  3  0  0  0  0  0  0
  188.6460  178.1930  149.0530 O   0  0  0  0  0  1  0  0  0  0  0  0
  188.5660  177.2920  143.5790 O   0  0  0  0  0  0  0  0  0  0  0  0
  189.4980  176.9320  145.6790 C   0  0  1  0  0  3  0  0  0  0  0  0
  189.8540  176.7290  143.3960 C   0  0  1  0  0  3  0  0  0  0  0  0
  190.2060  178.4690  141.7800 O   0  0  0  0  0  1  0  0  0  0  0  0
  190.5760  177.3550  142.2400 C   0  0  0  0  0  0  0  0  0  0  0  0
  191.6910  176.7270  141.7040 O   0  0  0  0  0  0  0  0  0  0  0  0
  1 27  1  0  0  0  0
  1  2  1  1  0  0  0
  3  1  1  0  0  0  0
  5  4  1  0  0  0  0
  6  3  1  0  0  0  0
  6  4  2  0  0  0  0
  7  6  1  0  0  0  0
  8 10  1  0  0  0  0
  9  5  2  0  0  0  0
 10  7  2  0  0  0  0
 10  9  1  0  0  0  0
 11 12  1  6  0  0  0
 11  7  1  0  0  0  0
 11 13  1  0  0  0  0
 14 15  1  0  0  0  0
 16 15  1  0  0  0  0
 16 22  1  1  0  0  0
 17 21  2  0  0  0  0
 18 13  1  0  0  0  0
 19 20  1  0  0  0  0
 19 14  1  0  0  0  0
 20 16  1  0  0  0  0
 21 18  1  0  0  0  0
 21 19  1  0  0  0  0
 23 22  1  0  0  0  0
 24 25  1  0  0  0  0
 25 23  1  0  0  0  0
 25 26  1  0  0  0  0
 28 29  1  0  0  0  0
 28 30  1  0  0  0  0
 29 30  1  0  0  0  0
 30 27  1  0  0  0  0
 30 31  1  0  0  0  0
 31 32  1  0  0  0  0
 32 33  1  0  0  0  0
 33 34  1  0  0  0  0
 34 35  1  0  0  0  0
 35 43  1  0  0  0  0
 36 42  1  0  0  0  0
 38 37  1  6  0  0  0
 38 48  1  0  0  0  0
 41 46  1  1  0  0  0
 42 39  1  1  0  0  0
 42 41  1  0  0  0  0
 43 36  2  0  0  0  0
 44 40  1  1  0  0  0
 44 41  1  0  0  0  0
 45 47  1  6  0  0  0
 45 36  1  0  0  0  0
 45 48  1  0  0  0  0
 48 44  1  0  0  0  0
 49 47  1  0  0  0  0
 49 38  1  0  0  0  0
 50 51  1  0  0  0  0
 51 49  1  0  0  0  0
 52 51  2  0  0  0  0
M  END
>  <MODEL>
7

>  <REMARK>
 VINA RESULT:      -6.8      1.667      4.841
  Name = 
  17 active torsions:
  status: ('A' for Active; 'I' for Inactive)
    1  A    between atoms: O_1  and  C_8
    2  A    between atoms: O_1  and  C_26
    3  A    between atoms: O_7  and  C_9
    4  A    between atoms: O_7  and  C_23
    5  A    between atoms: C_8  and  N_40
    6  A    between atoms: C_9  and  C_12
    7  A    between atoms: C_10  and  C_31
    8  A    between atoms: C_10  and  C_39
    9  A    between atoms: C_16  and  C_18
   10  A    between atoms: C_16  and  N_35
   11  A    between atoms: C_18  and  C_28
   12  A    between atoms: C_20  and  C_39
   13  A    between atoms: C_20  and  C_43
   14  A    between atoms: C_29  and  C_31
   15  A    between atoms: C_34  and  C_48
   16  A    between atoms: N_40  and  C_44
   17  A    between atoms: C_43  and  C_44
                            x       y       z     vdW  Elec       q    Type
                         _______ _______ _______ _____ _____    ______ ____

>  <TORSDO>
F 17

$$$$
=
 OpenBabel11032421193D

 52 56  0  0  1  0  0  0  0  0999 V2000
  183.5850  175.5890  136.8140 C   0  0  2  0  0  3  0  0  0  0  0  0
  183.5570  176.7310  136.0130 O   0  0  0  0  0  1  0  0  0  0  0  0
  183.4830  175.9770  138.1790 O   0  0  0  0  0  0  0  0  0  0  0  0
  181.2220  175.1710  138.6320 C   0  0  0  0  0  3  0  0  0  0  0  0
  180.0190  175.2760  139.3280 C   0  0  0  0  0  3  0  0  0  0  0  0
  182.2620  176.0870  138.8600 C   0  0  0  0  0  0  0  0  0  0  0  0
  182.0790  177.1280  139.7890 C   0  0  0  0  0  0  0  0  0  0  0  0
  180.6640  178.2140  141.4500 O   0  0  0  0  0  1  0  0  0  0  0  0
  179.8410  176.2960  140.2630 C   0  0  0  0  0  3  0  0  0  0  0  0
  180.8630  177.2170  140.5020 C   0  0  0  0  0  0  0  0  0  0  0  0
  183.2140  178.0880  140.0330 C   0  0  1  0  0  3  0  0  0  0  0  0
  182.7880  179.5300  139.8320 C   0  0  0  0  0  1  0  0  0  0  0  0
  183.8470  177.8950  141.4060 C   0  0  0  0  0  2  0  0  0  0  0  0
  185.3710  178.2840  145.5190 C   0  0  0  0  0  2  0  0  0  0  0  0
  186.7570  177.6670  145.5410 C   0  0  0  0  0  2  0  0  0  0  0  0
  187.3380  177.8800  144.1490 C   0  0  2  0  0  3  0  0  0  0  0  0
  183.1070  179.7170  144.5060 O   0  0  0  0  0  0  0  0  0  0  0  0
  183.3050  178.8510  142.3630 N   0  0  0  0  0  2  0  0  0  0  0  0
  185.0590  178.5060  144.1220 N   0  0  0  0  0  0  0  0  0  0  0  0
  186.1810  178.2570  143.2400 C   0  0  0  0  0  2  0  0  0  0  0  0
  183.8050  179.0540  143.6910 C   0  0  0  0  0  0  0  0  0  0  0  0
  188.0600  176.6380  143.6480 C   0  0  0  0  0  2  0  0  0  0  0  0
  189.3600  176.9540  143.2050 O   0  0  0  0  0  0  0  0  0  0  0  0
  190.9670  178.7500  143.6710 C   0  0  0  0  0  1  0  0  0  0  0  0
  190.0310  177.6780  144.2160 C   0  0  0  0  0  3  0  0  0  0  0  0
  190.7170  176.7820  145.2410 C   0  0  0  0  0  1  0  0  0  0  0  0
  184.8410  174.8780  136.6030 N   0  0  0  0  0  2  0  0  0  0  0  0
  183.3500  172.8160  136.6860 C   0  0  0  0  0  2  0  0  0  0  0  0
  184.7450  172.5110  137.2110 C   0  0  0  0  0  2  0  0  0  0  0  0
  184.5570  173.5330  136.1160 C   0  0  0  0  0  0  0  0  0  0  0  0
  185.1760  173.0780  134.8060 C   0  0  0  0  0  2  0  0  0  0  0  0
  186.0650  171.8710  135.0190 C   0  0  0  0  0  2  0  0  0  0  0  0
  187.4740  172.2180  134.5940 C   0  0  0  0  0  2  0  0  0  0  0  0
  188.1710  172.9790  135.7020 C   0  0  0  0  0  2  0  0  0  0  0  0
  188.6400  174.3240  135.1840 C   0  0  0  0  0  2  0  0  0  0  0  0
  188.9340  176.0770  136.9760 C   0  0  0  0  0  0  0  0  0  0  0  0
  193.1120  176.7480  137.8940 O   0  0  0  0  0  1  0  0  0  0  0  0
  192.3330  175.6740  138.3470 C   0  0  1  0  0  3  0  0  0  0  0  0
  186.9790  177.0920  137.9410 O   0  0  0  0  0  1  0  0  0  0  0  0
  191.1120  177.6580  140.2410 O   0  0  0  0  0  1  0  0  0  0  0  0
  189.0490  177.6060  139.0310 C   0  0  1  0  0  3  0  0  0  0  0  0
  188.3420  177.2770  137.7010 C   0  0  1  0  0  3  0  0  0  0  0  0
  188.1670  175.4180  136.0870 C   0  0  0  0  0  3  0  0  0  0  0  0
  190.5770  177.4840  138.9650 C   0  0  2  0  0  3  0  0  0  0  0  0
  190.4380  175.9370  137.0460 C   0  0  2  0  0  3  0  0  0  0  0  0
  188.6940  178.8930  139.4420 O   0  0  0  0  0  1  0  0  0  0  0  0
  190.9820  174.7320  136.5730 O   0  0  0  0  0  0  0  0  0  0  0  0
  190.8970  176.0850  138.4620 C   0  0  1  0  0  3  0  0  0  0  0  0
  192.2060  174.5840  137.2720 C   0  0  1  0  0  3  0  0  0  0  0  0
  194.3670  173.7730  136.6110 O   0  0  0  0  0  1  0  0  0  0  0  0
  193.3760  174.5020  136.3360 C   0  0  0  0  0  0  0  0  0  0  0  0
  193.3440  175.1940  135.1340 O   0  0  0  0  0  0  0  0  0  0  0  0
  1  2  1  6  0  0  0
  1  3  1  0  0  0  0
  3  6  1  0  0  0  0
  4  6  2  0  0  0  0
  4  5  1  0  0  0  0
  5  9  2  0  0  0  0
  6  7  1  0  0  0  0
  7 11  1  0  0  0  0
  7 10  2  0  0  0  0
  9 10  1  0  0  0  0
 10  8  1  0  0  0  0
 11 12  1  1  0  0  0
 11 13  1  0  0  0  0
 13 18  1  0  0  0  0
 14 15  1  0  0  0  0
 16 22  1  6  0  0  0
 16 15  1  0  0  0  0
 18 21  1  0  0  0  0
 19 14  1  0  0  0  0
 20 19  1  0  0  0  0
 20 16  1  0  0  0  0
 21 19  1  0  0  0  0
 21 17  2  0  0  0  0
 23 22  1  0  0  0  0
 23 25  1  0  0  0  0
 24 25  1  0  0  0  0
 25 26  1  0  0  0  0
 27  1  1  0  0  0  0
 28 29  1  0  0  0  0
 30 27  1  0  0  0  0
 30 28  1  0  0  0  0
 30 29  1  0  0  0  0
 31 32  1  0  0  0  0
 31 30  1  0  0  0  0
 33 32  1  0  0  0  0
 33 34  1  0  0  0  0
 35 34  1  0  0  0  0
 35 43  1  0  0  0  0
 36 45  1  0  0  0  0
 36 42  1  0  0  0  0
 38 37  1  6  0  0  0
 38 48  1  0  0  0  0
 41 46  1  6  0  0  0
 42 39  1  1  0  0  0
 42 41  1  0  0  0  0
 43 36  2  0  0  0  0
 44 41  1  0  0  0  0
 44 40  1  1  0  0  0
 45 47  1  1  0  0  0
 45 48  1  0  0  0  0
 47 49  1  0  0  0  0
 48 44  1  0  0  0  0
 49 38  1  0  0  0  0
 51 50  1  0  0  0  0
 51 49  1  0  0  0  0
 52 51  2  0  0  0  0
M  END
>  <MODEL>
8

>  <REMARK>
 VINA RESULT:      -6.6      2.641      7.757
  Name = 
  17 active torsions:
  status: ('A' for Active; 'I' for Inactive)
    1  A    between atoms: O_1  and  C_8
    2  A    between atoms: O_1  and  C_26
    3  A    between atoms: O_7  and  C_9
    4  A    between atoms: O_7  and  C_23
    5  A    between atoms: C_8  and  N_40
    6  A    between atoms: C_9  and  C_12
    7  A    between atoms: C_10  and  C_31
    8  A    between atoms: C_10  and  C_39
    9  A    between atoms: C_16  and  C_18
   10  A    between atoms: C_16  and  N_35
   11  A    between atoms: C_18  and  C_28
   12  A    between atoms: C_20  and  C_39
   13  A    between atoms: C_20  and  C_43
   14  A    between atoms: C_29  and  C_31
   15  A    between atoms: C_34  and  C_48
   16  A    between atoms: N_40  and  C_44
   17  A    between atoms: C_43  and  C_44
                            x       y       z     vdW  Elec       q    Type
                         _______ _______ _______ _____ _____    ______ ____

>  <TORSDO>
F 17

$$$$
=
 OpenBabel11032421193D

 52 56  0  0  1  0  0  0  0  0999 V2000
  188.8460  174.2380  137.0480 C   0  0  2  0  0  3  0  0  0  0  0  0
  189.0450  172.9380  136.5800 O   0  0  0  0  0  1  0  0  0  0  0  0
  187.4700  174.4120  137.3650 O   0  0  0  0  0  0  0  0  0  0  0  0
  186.1900  173.0070  135.8310 C   0  0  0  0  0  3  0  0  0  0  0  0
  185.1490  172.8520  134.9170 C   0  0  0  0  0  3  0  0  0  0  0  0
  186.4370  174.2530  136.4300 C   0  0  0  0  0  0  0  0  0  0  0  0
  185.6330  175.3580  136.0910 C   0  0  0  0  0  0  0  0  0  0  0  0
  183.7380  176.2520  134.8470 O   0  0  0  0  0  1  0  0  0  0  0  0
  184.3390  173.9410  134.5940 C   0  0  0  0  0  3  0  0  0  0  0  0
  184.5700  175.1890  135.1770 C   0  0  0  0  0  0  0  0  0  0  0  0
  185.9030  176.6800  136.7590 C   0  0  1  0  0  3  0  0  0  0  0  0
  186.1830  177.7780  135.7500 C   0  0  0  0  0  1  0  0  0  0  0  0
  184.7800  177.0870  137.7060 C   0  0  0  0  0  2  0  0  0  0  0  0
  181.6640  179.3900  139.7980 C   0  0  0  0  0  2  0  0  0  0  0  0
  180.6200  178.3970  140.2750 C   0  0  0  0  0  2  0  0  0  0  0  0
  181.3650  177.0970  140.5440 C   0  0  2  0  0  3  0  0  0  0  0  0
  184.2510  180.4270  139.1350 O   0  0  0  0  0  0  0  0  0  0  0  0
  185.0040  178.4310  138.2240 N   0  0  0  0  0  2  0  0  0  0  0  0
  182.8400  178.6060  139.4790 N   0  0  0  0  0  0  0  0  0  0  0  0
  182.7220  177.2170  139.8720 C   0  0  0  0  0  2  0  0  0  0  0  0
  184.0400  179.1960  138.9600 C   0  0  0  0  0  0  0  0  0  0  0  0
  180.5910  175.8920  140.0270 C   0  0  0  0  0  2  0  0  0  0  0  0
  181.2050  175.3540  138.8790 O   0  0  0  0  0  0  0  0  0  0  0  0
  179.5770  173.8510  137.8230 C   0  0  0  0  0  1  0  0  0  0  0  0
  180.2400  175.2230  137.8550 C   0  0  0  0  0  3  0  0  0  0  0  0
  180.7560  175.6460  136.4850 C   0  0  0  0  0  1  0  0  0  0  0  0
  189.2320  175.1900  136.0140 N   0  0  0  0  0  2  0  0  0  0  0  0
  191.5760  175.9640  135.3880 C   0  0  0  0  0  2  0  0  0  0  0  0
  191.6180  174.8900  136.4640 C   0  0  0  0  0  2  0  0  0  0  0  0
  190.4640  175.8620  136.4130 C   0  0  0  0  0  0  0  0  0  0  0  0
  190.4440  176.7800  137.6220 C   0  0  0  0  0  2  0  0  0  0  0  0
  189.3650  177.8340  137.4840 C   0  0  0  0  0  2  0  0  0  0  0  0
  189.1670  178.5120  138.8210 C   0  0  0  0  0  2  0  0  0  0  0  0
  187.8830  178.0240  139.4590 C   0  0  0  0  0  2  0  0  0  0  0  0
  188.0790  177.8740  140.9550 C   0  0  0  0  0  2  0  0  0  0  0  0
  186.6810  178.2790  143.0170 C   0  0  0  0  0  0  0  0  0  0  0  0
  189.0870  178.2420  146.6180 O   0  0  0  0  0  1  0  0  0  0  0  0
  188.6470  177.1140  145.9110 C   0  0  1  0  0  3  0  0  0  0  0  0
  184.3090  178.5840  142.7710 O   0  0  0  0  0  1  0  0  0  0  0  0
  185.9670  177.6700  147.1430 O   0  0  0  0  0  1  0  0  0  0  0  0
  185.0880  178.3510  145.0250 C   0  0  1  0  0  3  0  0  0  0  0  0
  185.3990  178.8540  143.6000 C   0  0  1  0  0  3  0  0  0  0  0  0
  186.8280  178.2590  141.6790 C   0  0  0  0  0  3  0  0  0  0  0  0
  186.3220  178.2680  145.9330 C   0  0  2  0  0  3  0  0  0  0  0  0
  187.8300  178.1030  143.9860 C   0  0  2  0  0  3  0  0  0  0  0  0
  184.1240  179.1750  145.6100 O   0  0  0  0  0  1  0  0  0  0  0  0
  188.9400  177.3790  143.5220 O   0  0  0  0  0  0  0  0  0  0  0  0
  187.3510  177.4050  145.2190 C   0  0  1  0  0  3  0  0  0  0  0  0
  189.5380  176.8400  144.6900 C   0  0  1  0  0  3  0  0  0  0  0  0
  191.3260  178.4160  144.4140 O   0  0  0  0  0  0  0  0  0  0  0  0
  190.9590  177.2920  144.8470 C   0  0  0  0  0  0  0  0  0  0  0  0
  191.8660  176.4850  145.5200 O   0  0  0  0  0  1  0  0  0  0  0  0
  1  2  1  6  0  0  0
  1  3  1  0  0  0  0
  4  6  1  0  0  0  0
  5  4  2  0  0  0  0
  6  3  1  0  0  0  0
  7  6  2  0  0  0  0
  7 11  1  0  0  0  0
  8 10  1  0  0  0  0
  9  5  1  0  0  0  0
  9 10  2  0  0  0  0
 10  7  1  0  0  0  0
 11 12  1  6  0  0  0
 11 13  1  0  0  0  0
 13 18  1  0  0  0  0
 14 15  1  0  0  0  0
 15 16  1  0  0  0  0
 16 22  1  6  0  0  0
 18 21  1  0  0  0  0
 19 14  1  0  0  0  0
 19 20  1  0  0  0  0
 20 16  1  0  0  0  0
 21 17  2  0  0  0  0
 21 19  1  0  0  0  0
 23 22  1  0  0  0  0
 24 25  1  0  0  0  0
 25 23  1  0  0  0  0
 26 25  1  0  0  0  0
 27 30  1  0  0  0  0
 27  1  1  0  0  0  0
 28 30  1  0  0  0  0
 28 29  1  0  0  0  0
 30 29  1  0  0  0  0
 30 31  1  0  0  0  0
 32 31  1  0  0  0  0
 32 33  1  0  0  0  0
 33 34  1  0  0  0  0
 34 35  1  0  0  0  0
 35 43  1  0  0  0  0
 36 42  1  0  0  0  0
 38 37  1  6  0  0  0
 41 46  1  1  0  0  0
 41 44  1  0  0  0  0
 42 39  1  6  0  0  0
 42 41  1  0  0  0  0
 43 36  2  0  0  0  0
 44 40  1  1  0  0  0
 45 36  1  6  0  0  0
 45 48  1  0  0  0  0
 47 45  1  0  0  0  0
 47 49  1  0  0  0  0
 48 38  1  0  0  0  0
 48 44  1  0  0  0  0
 49 51  1  0  0  0  0
 49 38  1  0  0  0  0
 50 51  2  0  0  0  0
 51 52  1  0  0  0  0
M  END
>  <MODEL>
9

>  <REMARK>
 VINA RESULT:      -6.6      2.218      6.928
  Name = 
  17 active torsions:
  status: ('A' for Active; 'I' for Inactive)
    1  A    between atoms: O_1  and  C_8
    2  A    between atoms: O_1  and  C_26
    3  A    between atoms: O_7  and  C_9
    4  A    between atoms: O_7  and  C_23
    5  A    between atoms: C_8  and  N_40
    6  A    between atoms: C_9  and  C_12
    7  A    between atoms: C_10  and  C_31
    8  A    between atoms: C_10  and  C_39
    9  A    between atoms: C_16  and  C_18
   10  A    between atoms: C_16  and  N_35
   11  A    between atoms: C_18  and  C_28
   12  A    between atoms: C_20  and  C_39
   13  A    between atoms: C_20  and  C_43
   14  A    between atoms: C_29  and  C_31
   15  A    between atoms: C_34  and  C_48
   16  A    between atoms: N_40  and  C_44
   17  A    between atoms: C_43  and  C_44
                            x       y       z     vdW  Elec       q    Type
                         _______ _______ _______ _____ _____    ______ ____

>  <TORSDO>
F 17

$$$$
