=
 OpenBabel11032420293D

 33 37  0  0  1  0  0  0  0  0999 V2000
  189.8590  176.9770  140.8980 C   0  0  2  0  0  3  0  0  0  0  0  0
  188.6480  177.8380  137.2560 C   0  0  0  0  0  3  0  0  0  0  0  0
  185.3010  178.7310  138.5140 N   0  0  0  0  0  0  0  0  0  0  0  0
  187.5170  178.3460  139.2770 C   0  0  0  0  0  0  0  0  0  0  0  0
  184.9040  178.9790  139.7940 C   0  0  0  0  0  3  0  0  0  0  0  0
  188.6540  177.1320  141.8230 C   0  0  0  0  0  2  0  0  0  0  0  0
  187.1760  178.1370  136.9460 C   0  0  0  0  0  3  0  0  0  0  0  0
  189.4350  176.7280  139.4270 C   0  0  1  0  0  3  0  0  0  0  0  0
  186.5970  178.4180  138.2700 C   0  0  0  0  0  0  0  0  0  0  0  0
  188.8770  178.0130  138.7760 C   0  0  1  0  0  3  0  0  0  0  0  0
  187.1110  178.6040  140.5870 C   0  0  0  0  0  0  0  0  0  0  0  0
  188.0690  178.5290  141.7240 C   0  0  0  0  0  2  0  0  0  0  0  0
  185.8050  178.9140  140.8180 N   0  0  0  0  0  0  0  0  0  0  0  0
  191.8090  177.0620  138.6100 C   0  0  0  0  0  2  0  0  0  0  0  0
  191.4170  174.1620  136.0930 C   0  0  2  0  0  0  0  0  0  0  0  0
  193.0820  174.4830  137.9590 O   0  0  0  0  0  0  0  0  0  0  0  0
  192.1970  172.8720  136.3400 C   0  0  0  0  0  2  0  0  0  0  0  0
  190.5820  176.1520  138.5720 C   0  0  2  0  0  3  0  0  0  0  0  0
  193.8790  174.4850  135.6810 O   0  0  0  0  0  1  0  0  0  0  0  0
  192.8530  174.2180  136.5930 C   0  0  1  0  0  0  0  0  0  0  0  0
  190.3160  174.5010  137.1070 C   0  0  1  0  0  3  0  0  0  0  0  0
  190.1760  175.8850  137.2560 O   0  0  0  0  0  0  0  0  0  0  0  0
  192.6930  176.7450  137.5720 O   0  0  0  0  0  0  0  0  0  0  0  0
  193.5900  175.7940  138.0850 C   0  0  0  0  0  2  0  0  0  0  0  0
  187.9420  174.6950  135.5490 S   0  0  0  0  0  1  0  0  0  0  0  0
  189.0000  173.8830  136.7410 C   0  0  0  0  0  0  0  0  0  0  0  0
  188.6540  172.8200  137.2320 O   0  0  0  0  0  0  0  0  0  0  0  0
  191.2820  174.5830  134.7590 O   0  0  0  0  0  0  0  0  0  0  0  0
  191.3360  175.9000  134.7860 O   0  0  0  0  0  1  0  0  0  0  0  0
  190.6490  175.9290  141.3800 O   0  0  0  0  0  0  0  0  0  0  0  0
  190.3290  175.8290  142.7370 C   0  0  0  0  0  2  0  0  0  0  0  0
  191.2320  176.8580  144.8160 C   0  0  0  0  0  1  0  0  0  0  0  0
  191.5700  176.0440  143.5830 C   0  0  0  0  0  2  0  0  0  0  0  0
  1 30  1  1  0  0  0
  1  6  1  0  0  0  0
  3  5  1  0  0  0  0
  4 11  2  0  0  0  0
  5 13  2  0  0  0  0
  7  2  2  0  0  0  0
  7  9  1  0  0  0  0
  8 18  1  6  0  0  0
  8  1  1  0  0  0  0
  9  3  2  0  0  0  0
  9  4  1  0  0  0  0
 10  2  1  6  0  0  0
 10  4  1  0  0  0  0
 10  8  1  0  0  0  0
 11 13  1  0  0  0  0
 11 12  1  0  0  0  0
 12  6  1  0  0  0  0
 15 28  1  6  0  0  0
 15 17  1  0  0  0  0
 15 20  1  0  0  0  0
 15 21  1  0  0  0  0
 16 24  1  0  0  0  0
 17 20  1  0  0  0  0
 18 14  1  6  0  0  0
 20 19  1  6  0  0  0
 20 16  1  0  0  0  0
 21 26  1  6  0  0  0
 21 22  1  0  0  0  0
 22 18  1  0  0  0  0
 23 24  1  0  0  0  0
 23 14  1  0  0  0  0
 25 26  1  0  0  0  0
 26 27  2  0  0  0  0
 28 29  1  0  0  0  0
 30 31  1  0  0  0  0
 31 33  1  0  0  0  0
 33 32  1  0  0  0  0
M  END
>  <MODEL>
1

>  <REMARK>
 VINA RESULT:      -6.5      0.000      0.000
  Name = 
  6 active torsions:
  status: ('A' for Active; 'I' for Inactive)
    1  A    between atoms: C_2  and  O_6
    2  A    between atoms: C_3  and  O_12
    3  A    between atoms: O_12  and  C_27
    4  A    between atoms: C_13  and  C_19
    5  A    between atoms: C_18  and  C_28
    6  A    between atoms: C_27  and  C_29
                            x       y       z     vdW  Elec       q    Type
                         _______ _______ _______ _____ _____    ______ ____

>  <TORSDO>
F 6

$$$$
=
 OpenBabel11032420293D

 33 37  0  0  1  0  0  0  0  0999 V2000
  184.5660  178.5650  140.2080 C   0  0  2  0  0  3  0  0  0  0  0  0
  181.3350  178.8810  142.4310 C   0  0  0  0  0  3  0  0  0  0  0  0
  183.3620  178.7190  145.5050 N   0  0  0  0  0  0  0  0  0  0  0  0
  183.5810  179.0740  143.1670 C   0  0  0  0  0  0  0  0  0  0  0  0
  184.7080  178.8720  145.6550 C   0  0  0  0  0  3  0  0  0  0  0  0
  185.7470  178.3650  141.1540 C   0  0  0  0  0  2  0  0  0  0  0  0
  181.3830  178.6920  143.9530 C   0  0  0  0  0  3  0  0  0  0  0  0
  183.2220  178.1470  140.8590 C   0  0  1  0  0  3  0  0  0  0  0  0
  182.8150  178.8200  144.2690 C   0  0  0  0  0  0  0  0  0  0  0  0
  182.7690  179.1690  141.9250 C   0  0  1  0  0  3  0  0  0  0  0  0
  184.9580  179.2360  143.3210 C   0  0  0  0  0  0  0  0  0  0  0  0
  185.8430  179.5040  142.1530 C   0  0  0  0  0  2  0  0  0  0  0  0
  185.4940  179.1280  144.5690 N   0  0  0  0  0  0  0  0  0  0  0  0
  181.8600  176.4440  139.5690 C   0  0  0  0  0  2  0  0  0  0  0  0
  180.4090  179.2210  137.3150 C   0  0  2  0  0  0  0  0  0  0  0  0
  179.2380  177.5490  138.7930 O   0  0  0  0  0  0  0  0  0  0  0  0
  178.9310  179.5790  137.4580 C   0  0  0  0  0  2  0  0  0  0  0  0
  182.1040  177.9320  139.8190 C   0  0  2  0  0  3  0  0  0  0  0  0
  178.9310  177.3980  136.4040 O   0  0  0  0  0  1  0  0  0  0  0  0
  179.3710  178.1270  137.5150 C   0  0  1  0  0  0  0  0  0  0  0  0
  181.3120  179.5480  138.5120 C   0  0  1  0  0  3  0  0  0  0  0  0
  182.3560  178.6230  138.6240 O   0  0  0  0  0  0  0  0  0  0  0  0
  181.1290  176.2540  138.3910 O   0  0  0  0  0  0  0  0  0  0  0  0
  179.7730  176.2430  138.7560 C   0  0  0  0  0  2  0  0  0  0  0  0
  180.7840  182.2920  137.9760 S   0  0  0  0  0  1  0  0  0  0  0  0
  181.8590  180.9410  138.4450 C   0  0  0  0  0  0  0  0  0  0  0  0
  183.0240  181.1670  138.7290 O   0  0  0  0  0  0  0  0  0  0  0  0
  180.9480  179.2380  136.0170 O   0  0  0  0  0  0  0  0  0  0  0  0
  181.8530  178.2790  135.9870 O   0  0  0  0  0  1  0  0  0  0  0  0
  184.8100  177.8350  139.0410 O   0  0  0  0  0  0  0  0  0  0  0  0
  186.0610  178.2720  138.5960 C   0  0  0  0  0  2  0  0  0  0  0  0
  185.1140  177.0180  136.6670 C   0  0  0  0  0  1  0  0  0  0  0  0
  186.2660  177.8790  137.1450 C   0  0  0  0  0  2  0  0  0  0  0  0
  1 30  1  6  0  0  0
  1  8  1  0  0  0  0
  1  6  1  0  0  0  0
  2  7  2  0  0  0  0
  3  5  1  0  0  0  0
  4 11  2  0  0  0  0
  4  9  1  0  0  0  0
  6 12  1  0  0  0  0
  7  9  1  0  0  0  0
  8 18  1  6  0  0  0
  8 10  1  0  0  0  0
  9  3  2  0  0  0  0
 10  2  1  1  0  0  0
 10  4  1  0  0  0  0
 11 13  1  0  0  0  0
 12 11  1  0  0  0  0
 13  5  2  0  0  0  0
 15 28  1  6  0  0  0
 15 17  1  0  0  0  0
 15 20  1  0  0  0  0
 15 21  1  0  0  0  0
 17 20  1  0  0  0  0
 18 14  1  6  0  0  0
 20 19  1  6  0  0  0
 20 16  1  0  0  0  0
 21 26  1  6  0  0  0
 21 22  1  0  0  0  0
 22 18  1  0  0  0  0
 23 24  1  0  0  0  0
 23 14  1  0  0  0  0
 24 16  1  0  0  0  0
 25 26  1  0  0  0  0
 26 27  2  0  0  0  0
 29 28  1  0  0  0  0
 31 30  1  0  0  0  0
 32 33  1  0  0  0  0
 33 31  1  0  0  0  0
M  END
>  <MODEL>
2

>  <REMARK>
 VINA RESULT:      -6.0      6.004      9.525
  Name = 
  6 active torsions:
  status: ('A' for Active; 'I' for Inactive)
    1  A    between atoms: C_2  and  O_6
    2  A    between atoms: C_3  and  O_12
    3  A    between atoms: O_12  and  C_27
    4  A    between atoms: C_13  and  C_19
    5  A    between atoms: C_18  and  C_28
    6  A    between atoms: C_27  and  C_29
                            x       y       z     vdW  Elec       q    Type
                         _______ _______ _______ _____ _____    ______ ____

>  <TORSDO>
F 6

$$$$
=
 OpenBabel11032420293D

 33 37  0  0  1  0  0  0  0  0999 V2000
  189.2950  176.7870  142.0160 C   0  0  2  0  0  3  0  0  0  0  0  0
  187.3570  178.4530  139.0240 C   0  0  0  0  0  3  0  0  0  0  0  0
  184.3220  178.7740  141.0900 N   0  0  0  0  0  0  0  0  0  0  0  0
  186.6520  178.3590  141.2860 C   0  0  0  0  0  0  0  0  0  0  0  0
  184.1880  178.6650  142.4420 C   0  0  0  0  0  3  0  0  0  0  0  0
  188.3000  176.6240  143.1620 C   0  0  0  0  0  2  0  0  0  0  0  0
  185.8480  178.7200  139.0910 C   0  0  0  0  0  3  0  0  0  0  0  0
  188.5850  176.8880  140.6410 C   0  0  1  0  0  3  0  0  0  0  0  0
  185.5460  178.6190  140.5280 C   0  0  0  0  0  0  0  0  0  0  0  0
  187.8870  178.2550  140.4640 C   0  0  1  0  0  3  0  0  0  0  0  0
  186.5160  178.2520  142.6710 C   0  0  0  0  0  0  0  0  0  0  0  0
  187.6860  177.9580  143.5440 C   0  0  0  0  0  2  0  0  0  0  0  0
  185.2790  178.4060  143.2210 N   0  0  0  0  0  0  0  0  0  0  0  0
  190.8250  177.4440  139.5980 C   0  0  0  0  0  2  0  0  0  0  0  0
  189.8440  175.5990  136.3530 C   0  0  2  0  0  0  0  0  0  0  0  0
  191.7920  175.2270  137.9100 O   0  0  0  0  0  0  0  0  0  0  0  0
  190.5560  174.2900  136.0150 C   0  0  0  0  0  2  0  0  0  0  0  0
  189.5430  176.6240  139.4620 C   0  0  2  0  0  3  0  0  0  0  0  0
  192.2330  176.0030  135.6670 O   0  0  0  0  0  1  0  0  0  0  0  0
  191.3400  175.4540  136.5940 C   0  0  1  0  0  0  0  0  0  0  0  0
  188.9370  175.5850  137.5910 C   0  0  1  0  0  3  0  0  0  0  0  0
  188.9240  176.8340  138.2210 O   0  0  0  0  0  0  0  0  0  0  0  0
  191.5160  177.4900  138.3810 O   0  0  0  0  0  0  0  0  0  0  0  0
  192.4080  176.4060  138.3840 C   0  0  0  0  0  2  0  0  0  0  0  0
  187.1400  173.4110  137.2180 S   0  0  0  0  0  1  0  0  0  0  0  0
  187.5400  175.1530  137.2650 C   0  0  0  0  0  0  0  0  0  0  0  0
  186.6670  175.9800  137.0520 O   0  0  0  0  0  0  0  0  0  0  0  0
  189.5400  176.4560  135.2830 O   0  0  0  0  0  0  0  0  0  0  0  0
  189.4490  177.6660  135.8000 O   0  0  0  0  0  1  0  0  0  0  0  0
  190.1820  175.7070  142.0480 O   0  0  0  0  0  0  0  0  0  0  0  0
  190.9110  175.8730  143.2300 C   0  0  0  0  0  2  0  0  0  0  0  0
  191.6200  177.8690  144.5360 C   0  0  0  0  0  1  0  0  0  0  0  0
  191.6810  177.1800  143.1880 C   0  0  0  0  0  2  0  0  0  0  0  0
  1 30  1  6  0  0  0
  1  6  1  0  0  0  0
  2  7  2  0  0  0  0
  3  5  1  0  0  0  0
  4 11  2  0  0  0  0
  5 13  2  0  0  0  0
  6 12  1  0  0  0  0
  7  9  1  0  0  0  0
  8 18  1  6  0  0  0
  8  1  1  0  0  0  0
  9  3  2  0  0  0  0
  9  4  1  0  0  0  0
 10  2  1  6  0  0  0
 10  8  1  0  0  0  0
 10  4  1  0  0  0  0
 11 13  1  0  0  0  0
 11 12  1  0  0  0  0
 15 28  1  6  0  0  0
 15 20  1  0  0  0  0
 15 21  1  0  0  0  0
 16 24  1  0  0  0  0
 17 15  1  0  0  0  0
 17 20  1  0  0  0  0
 18 14  1  1  0  0  0
 20 19  1  6  0  0  0
 20 16  1  0  0  0  0
 21 26  1  6  0  0  0
 21 22  1  0  0  0  0
 22 18  1  0  0  0  0
 23 24  1  0  0  0  0
 23 14  1  0  0  0  0
 25 26  1  0  0  0  0
 27 26  2  0  0  0  0
 28 29  1  0  0  0  0
 30 31  1  0  0  0  0
 33 31  1  0  0  0  0
 33 32  1  0  0  0  0
M  END
>  <MODEL>
3

>  <REMARK>
 VINA RESULT:      -5.8      1.636      2.062
  Name = 
  6 active torsions:
  status: ('A' for Active; 'I' for Inactive)
    1  A    between atoms: C_2  and  O_6
    2  A    between atoms: C_3  and  O_12
    3  A    between atoms: O_12  and  C_27
    4  A    between atoms: C_13  and  C_19
    5  A    between atoms: C_18  and  C_28
    6  A    between atoms: C_27  and  C_29
                            x       y       z     vdW  Elec       q    Type
                         _______ _______ _______ _____ _____    ______ ____

>  <TORSDO>
F 6

$$$$
=
 OpenBabel11032420293D

 33 37  0  0  1  0  0  0  0  0999 V2000
  185.0370  178.6820  140.7900 C   0  0  2  0  0  3  0  0  0  0  0  0
  185.4420  177.9650  136.9430 C   0  0  0  0  0  3  0  0  0  0  0  0
  189.1010  178.3160  137.2010 N   0  0  0  0  0  0  0  0  0  0  0  0
  187.1750  178.0210  138.5600 C   0  0  0  0  0  0  0  0  0  0  0  0
  189.8870  178.3170  138.3150 C   0  0  0  0  0  3  0  0  0  0  0  0
  186.4250  179.0040  141.3370 C   0  0  0  0  0  2  0  0  0  0  0  0
  186.7880  178.1370  136.2290 C   0  0  0  0  0  3  0  0  0  0  0  0
  184.9420  178.9340  139.2630 C   0  0  1  0  0  3  0  0  0  0  0  0
  187.7600  178.1700  137.3340 C   0  0  0  0  0  0  0  0  0  0  0  0
  185.7010  177.8520  138.4640 C   0  0  1  0  0  3  0  0  0  0  0  0
  187.9800  178.0170  139.6990 C   0  0  0  0  0  0  0  0  0  0  0  0
  187.3950  177.8700  141.0610 C   0  0  0  0  0  2  0  0  0  0  0  0
  189.3260  178.1690  139.5510 N   0  0  0  0  0  0  0  0  0  0  0  0
  182.9590  180.4640  138.8840 C   0  0  0  0  0  2  0  0  0  0  0  0
  180.6700  177.4320  138.2030 C   0  0  2  0  0  0  0  0  0  0  0  0
  181.2050  179.4240  136.7530 O   0  0  0  0  0  0  0  0  0  0  0  0
  180.1560  177.2110  136.7810 C   0  0  0  0  0  2  0  0  0  0  0  0
  183.4840  179.0330  138.7710 C   0  0  2  0  0  3  0  0  0  0  0  0
  178.9500  179.1570  137.5700 O   0  0  0  0  0  1  0  0  0  0  0  0
  180.2210  178.6140  137.3570 C   0  0  1  0  0  0  0  0  0  0  0  0
  182.1800  177.2660  138.4180 C   0  0  1  0  0  3  0  0  0  0  0  0
  182.6430  178.1210  139.4250 O   0  0  0  0  0  0  0  0  0  0  0  0
  181.5620  180.4880  138.7920 O   0  0  0  0  0  0  0  0  0  0  0  0
  181.2510  180.6600  137.4340 C   0  0  0  0  0  2  0  0  0  0  0  0
  183.2510  174.8180  137.4420 S   0  0  0  0  0  1  0  0  0  0  0  0
  182.5560  175.8490  138.7270 C   0  0  0  0  0  0  0  0  0  0  0  0
  182.4130  175.3980  139.8530 O   0  0  0  0  0  0  0  0  0  0  0  0
  179.7850  177.1410  139.2550 O   0  0  0  0  0  0  0  0  0  0  0  0
  180.0930  177.9740  140.2300 O   0  0  0  0  0  1  0  0  0  0  0  0
  184.1010  179.4530  141.4880 O   0  0  0  0  0  0  0  0  0  0  0  0
  183.7300  178.6660  142.5820 C   0  0  0  0  0  2  0  0  0  0  0  0
  184.8480  178.9600  144.7860 C   0  0  0  0  0  1  0  0  0  0  0  0
  183.7750  179.4900  143.8560 C   0  0  0  0  0  2  0  0  0  0  0  0
  1  6  1  0  0  0  0
  1 30  1  1  0  0  0
  3  9  2  0  0  0  0
  3  5  1  0  0  0  0
  4 11  2  0  0  0  0
  5 13  2  0  0  0  0
  7  2  2  0  0  0  0
  7  9  1  0  0  0  0
  8 18  1  6  0  0  0
  8  1  1  0  0  0  0
  9  4  1  0  0  0  0
 10  2  1  6  0  0  0
 10  4  1  0  0  0  0
 10  8  1  0  0  0  0
 11 12  1  0  0  0  0
 12  6  1  0  0  0  0
 13 11  1  0  0  0  0
 15 21  1  0  0  0  0
 15 28  1  1  0  0  0
 16 20  1  0  0  0  0
 16 24  1  0  0  0  0
 17 20  1  0  0  0  0
 17 15  1  0  0  0  0
 18 14  1  1  0  0  0
 18 22  1  0  0  0  0
 20 19  1  1  0  0  0
 20 15  1  0  0  0  0
 21 26  1  1  0  0  0
 21 22  1  0  0  0  0
 23 14  1  0  0  0  0
 24 23  1  0  0  0  0
 25 26  1  0  0  0  0
 26 27  2  0  0  0  0
 28 29  1  0  0  0  0
 30 31  1  0  0  0  0
 31 33  1  0  0  0  0
 33 32  1  0  0  0  0
M  END
>  <MODEL>
4

>  <REMARK>
 VINA RESULT:      -5.8      5.648      8.372
  Name = 
  6 active torsions:
  status: ('A' for Active; 'I' for Inactive)
    1  A    between atoms: C_2  and  O_6
    2  A    between atoms: C_3  and  O_12
    3  A    between atoms: O_12  and  C_27
    4  A    between atoms: C_13  and  C_19
    5  A    between atoms: C_18  and  C_28
    6  A    between atoms: C_27  and  C_29
                            x       y       z     vdW  Elec       q    Type
                         _______ _______ _______ _____ _____    ______ ____

>  <TORSDO>
F 6

$$$$
=
 OpenBabel11032420293D

 33 37  0  0  1  0  0  0  0  0999 V2000
  186.5840  178.5020  138.4480 C   0  0  2  0  0  3  0  0  0  0  0  0
  184.5740  178.8450  141.8120 C   0  0  0  0  0  3  0  0  0  0  0  0
  187.4200  177.4890  143.7220 N   0  0  0  0  0  0  0  0  0  0  0  0
  186.8920  178.3970  141.5910 C   0  0  0  0  0  0  0  0  0  0  0  0
  188.7170  177.3320  143.3330 C   0  0  0  0  0  3  0  0  0  0  0  0
  187.9140  177.8330  138.7840 C   0  0  0  0  0  2  0  0  0  0  0  0
  185.0990  178.2580  143.1280 C   0  0  0  0  0  3  0  0  0  0  0  0
  185.4960  178.1970  139.5110 C   0  0  1  0  0  3  0  0  0  0  0  0
  186.5250  178.0170  142.8500 C   0  0  0  0  0  0  0  0  0  0  0  0
  185.7560  178.9710  140.8220 C   0  0  1  0  0  3  0  0  0  0  0  0
  188.2210  178.2410  141.1950 C   0  0  0  0  0  0  0  0  0  0  0  0
  188.6730  178.6280  139.8310 C   0  0  0  0  0  2  0  0  0  0  0  0
  189.1080  177.7060  142.0790 N   0  0  0  0  0  0  0  0  0  0  0  0
  183.4700  179.7060  139.6910 C   0  0  0  0  0  2  0  0  0  0  0  0
  181.3850  177.2690  137.5430 C   0  0  2  0  0  0  0  0  0  0  0  0
  181.9190  179.7070  137.1820 O   0  0  0  0  0  0  0  0  0  0  0  0
  180.9810  177.7010  136.1350 C   0  0  0  0  0  2  0  0  0  0  0  0
  184.0710  178.4850  138.9960 C   0  0  2  0  0  3  0  0  0  0  0  0
  179.6290  179.0710  137.6050 O   0  0  0  0  0  1  0  0  0  0  0  0
  180.9370  178.6990  137.2780 C   0  0  1  0  0  0  0  0  0  0  0  0
  182.8840  177.0460  137.7870 C   0  0  1  0  0  3  0  0  0  0  0  0
  183.2350  177.3650  139.1030 O   0  0  0  0  0  0  0  0  0  0  0  0
  182.0830  179.7490  139.5030 O   0  0  0  0  0  0  0  0  0  0  0  0
  181.8570  180.5070  138.3430 C   0  0  0  0  0  2  0  0  0  0  0  0
  183.6800  175.2040  135.7700 S   0  0  0  0  0  1  0  0  0  0  0  0
  183.3080  175.6450  137.4620 C   0  0  0  0  0  0  0  0  0  0  0  0
  183.4230  174.8090  138.3440 O   0  0  0  0  0  0  0  0  0  0  0  0
  180.4470  176.5250  138.2780 O   0  0  0  0  0  0  0  0  0  0  0  0
  180.5910  176.8980  139.5350 O   0  0  0  0  0  1  0  0  0  0  0  0
  186.1850  178.0700  137.1790 O   0  0  0  0  0  0  0  0  0  0  0  0
  186.9070  176.8950  136.9530 C   0  0  0  0  0  2  0  0  0  0  0  0
  186.8090  177.9920  134.7210 C   0  0  0  0  0  1  0  0  0  0  0  0
  187.1770  176.7270  135.4690 C   0  0  0  0  0  2  0  0  0  0  0  0
  1 30  1  6  0  0  0
  1  6  1  0  0  0  0
  1  8  1  0  0  0  0
  2  7  2  0  0  0  0
  4  9  1  0  0  0  0
  5  3  1  0  0  0  0
  6 12  1  0  0  0  0
  8 18  1  6  0  0  0
  8 10  1  0  0  0  0
  9  7  1  0  0  0  0
  9  3  2  0  0  0  0
 10  4  1  0  0  0  0
 10  2  1  1  0  0  0
 11  4  2  0  0  0  0
 11 13  1  0  0  0  0
 12 11  1  0  0  0  0
 13  5  2  0  0  0  0
 15 21  1  0  0  0  0
 15 28  1  1  0  0  0
 16 20  1  0  0  0  0
 16 24  1  0  0  0  0
 17 20  1  0  0  0  0
 17 15  1  0  0  0  0
 18 22  1  0  0  0  0
 18 14  1  1  0  0  0
 20 15  1  0  0  0  0
 20 19  1  1  0  0  0
 21 26  1  1  0  0  0
 21 22  1  0  0  0  0
 23 14  1  0  0  0  0
 24 23  1  0  0  0  0
 25 26  1  0  0  0  0
 26 27  2  0  0  0  0
 28 29  1  0  0  0  0
 31 30  1  0  0  0  0
 32 33  1  0  0  0  0
 33 31  1  0  0  0  0
M  END
>  <MODEL>
5

>  <REMARK>
 VINA RESULT:      -5.6      4.832      8.239
  Name = 
  6 active torsions:
  status: ('A' for Active; 'I' for Inactive)
    1  A    between atoms: C_2  and  O_6
    2  A    between atoms: C_3  and  O_12
    3  A    between atoms: O_12  and  C_27
    4  A    between atoms: C_13  and  C_19
    5  A    between atoms: C_18  and  C_28
    6  A    between atoms: C_27  and  C_29
                            x       y       z     vdW  Elec       q    Type
                         _______ _______ _______ _____ _____    ______ ____

>  <TORSDO>
F 6

$$$$
=
 OpenBabel11032420293D

 33 37  0  0  1  0  0  0  0  0999 V2000
  191.0680  177.3970  139.9010 C   0  0  2  0  0  3  0  0  0  0  0  0
  187.3900  178.1870  141.0550 C   0  0  0  0  0  3  0  0  0  0  0  0
  188.2230  177.2860  144.5300 N   0  0  0  0  0  0  0  0  0  0  0  0
  189.2630  177.8140  142.4610 C   0  0  0  0  0  0  0  0  0  0  0  0
  189.4480  177.1270  145.1050 C   0  0  0  0  0  3  0  0  0  0  0  0
  191.8140  176.8520  141.1160 C   0  0  0  0  0  2  0  0  0  0  0  0
  186.8980  177.8430  142.4660 C   0  0  0  0  0  3  0  0  0  0  0  0
  189.5330  177.2190  140.0350 C   0  0  1  0  0  3  0  0  0  0  0  0
  188.1430  177.6250  143.2200 C   0  0  0  0  0  0  0  0  0  0  0  0
  188.9380  178.2050  141.0640 C   0  0  1  0  0  3  0  0  0  0  0  0
  190.5170  177.6560  143.0520 C   0  0  0  0  0  0  0  0  0  0  0  0
  191.7710  177.8390  142.2690 C   0  0  0  0  0  2  0  0  0  0  0  0
  190.5820  177.3110  144.3680 N   0  0  0  0  0  0  0  0  0  0  0  0
  187.8730  178.5680  138.6770 C   0  0  0  0  0  2  0  0  0  0  0  0
  187.7780  175.8320  135.9570 C   0  0  2  0  0  0  0  0  0  0  0  0
  188.3760  178.2750  135.7870 O   0  0  0  0  0  0  0  0  0  0  0  0
  188.4020  176.1340  134.5960 C   0  0  0  0  0  2  0  0  0  0  0  0
  188.8040  177.3560  138.6830 C   0  0  2  0  0  3  0  0  0  0  0  0
  186.3930  177.4860  134.6590 O   0  0  0  0  0  1  0  0  0  0  0  0
  187.5950  177.2000  135.3160 C   0  0  1  0  0  0  0  0  0  0  0  0
  188.7410  175.7470  137.1490 C   0  0  1  0  0  3  0  0  0  0  0  0
  188.1250  176.1810  138.3280 O   0  0  0  0  0  0  0  0  0  0  0  0
  186.9590  178.4860  137.6210 O   0  0  0  0  0  0  0  0  0  0  0  0
  187.5470  179.1440  136.5280 C   0  0  0  0  0  2  0  0  0  0  0  0
  188.3270  172.9500  136.8290 S   0  0  0  0  0  1  0  0  0  0  0  0
  189.2960  174.3670  137.3310 C   0  0  0  0  0  0  0  0  0  0  0  0
  190.4120  174.2010  137.7970 O   0  0  0  0  0  0  0  0  0  0  0  0
  186.6000  175.0650  135.9640 O   0  0  0  0  0  0  0  0  0  0  0  0
  185.8460  175.5650  136.9240 O   0  0  0  0  0  1  0  0  0  0  0  0
  191.5550  176.7500  138.7610 O   0  0  0  0  0  0  0  0  0  0  0  0
  192.9460  176.8120  138.8760 C   0  0  0  0  0  2  0  0  0  0  0  0
  193.7390  176.3030  136.5730 C   0  0  0  0  0  1  0  0  0  0  0  0
  193.5910  175.7690  137.9830 C   0  0  0  0  0  2  0  0  0  0  0  0
  1 30  1  6  0  0  0
  1  8  1  0  0  0  0
  1  6  1  0  0  0  0
  2  7  2  0  0  0  0
  3  5  1  0  0  0  0
  4 11  2  0  0  0  0
  4  9  1  0  0  0  0
  6 12  1  0  0  0  0
  7  9  1  0  0  0  0
  8 18  1  6  0  0  0
  8 10  1  0  0  0  0
  9  3  2  0  0  0  0
 10  2  1  1  0  0  0
 10  4  1  0  0  0  0
 11 13  1  0  0  0  0
 12 11  1  0  0  0  0
 13  5  2  0  0  0  0
 15 28  1  1  0  0  0
 15 21  1  0  0  0  0
 16 24  1  0  0  0  0
 17 20  1  0  0  0  0
 17 15  1  0  0  0  0
 18 14  1  1  0  0  0
 20 19  1  6  0  0  0
 20 16  1  0  0  0  0
 20 15  1  0  0  0  0
 21 26  1  1  0  0  0
 21 22  1  0  0  0  0
 22 18  1  0  0  0  0
 23 14  1  0  0  0  0
 24 23  1  0  0  0  0
 25 26  1  0  0  0  0
 26 27  2  0  0  0  0
 28 29  1  0  0  0  0
 30 31  1  0  0  0  0
 32 33  1  0  0  0  0
 33 31  1  0  0  0  0
M  END
>  <MODEL>
6

>  <REMARK>
 VINA RESULT:      -5.5      2.532      4.908
  Name = 
  6 active torsions:
  status: ('A' for Active; 'I' for Inactive)
    1  A    between atoms: C_2  and  O_6
    2  A    between atoms: C_3  and  O_12
    3  A    between atoms: O_12  and  C_27
    4  A    between atoms: C_13  and  C_19
    5  A    between atoms: C_18  and  C_28
    6  A    between atoms: C_27  and  C_29
                            x       y       z     vdW  Elec       q    Type
                         _______ _______ _______ _____ _____    ______ ____

>  <TORSDO>
F 6

$$$$
=
 OpenBabel11032420293D

 33 37  0  0  1  0  0  0  0  0999 V2000
  184.6690  178.5040  142.1670 C   0  0  2  0  0  3  0  0  0  0  0  0
  181.5720  178.5650  139.7410 C   0  0  0  0  0  3  0  0  0  0  0  0
  179.2550  178.3000  142.5950 N   0  0  0  0  0  0  0  0  0  0  0  0
  181.5240  178.8000  142.1000 C   0  0  0  0  0  0  0  0  0  0  0  0
  179.5010  178.4940  143.9210 C   0  0  0  0  0  3  0  0  0  0  0  0
  184.1310  178.2930  143.5800 C   0  0  0  0  0  2  0  0  0  0  0  0
  180.1500  178.2890  140.2440 C   0  0  0  0  0  3  0  0  0  0  0  0
  183.6780  177.9970  141.0860 C   0  0  1  0  0  3  0  0  0  0  0  0
  180.2640  178.4530  141.7030 C   0  0  0  0  0  0  0  0  0  0  0  0
  182.4600  178.9370  140.9530 C   0  0  1  0  0  3  0  0  0  0  0  0
  181.7740  179.0040  143.4580 C   0  0  0  0  0  0  0  0  0  0  0  0
  183.1310  179.3740  143.9480 C   0  0  0  0  0  2  0  0  0  0  0  0
  180.7520  178.8430  144.3430 N   0  0  0  0  0  0  0  0  0  0  0  0
  185.1960  179.0180  139.3340 C   0  0  0  0  0  2  0  0  0  0  0  0
  184.2870  176.2270  136.8290 C   0  0  2  0  0  0  0  0  0  0  0  0
  186.5320  176.9300  137.7370 O   0  0  0  0  0  0  0  0  0  0  0  0
  185.3570  175.2000  136.4610 C   0  0  0  0  0  2  0  0  0  0  0  0
  184.3520  177.8020  139.7130 C   0  0  2  0  0  3  0  0  0  0  0  0
  186.0820  177.2460  135.3870 O   0  0  0  0  0  1  0  0  0  0  0  0
  185.7280  176.6650  136.6100 C   0  0  1  0  0  0  0  0  0  0  0  0
  183.7830  176.2010  138.2780 C   0  0  1  0  0  3  0  0  0  0  0  0
  183.4250  177.4830  138.7110 O   0  0  0  0  0  0  0  0  0  0  0  0
  185.5010  179.0030  137.9690 O   0  0  0  0  0  0  0  0  0  0  0  0
  186.7230  178.3250  137.8360 C   0  0  0  0  0  2  0  0  0  0  0  0
  182.3040  174.0150  137.2160 S   0  0  0  0  0  1  0  0  0  0  0  0
  182.6380  175.2530  138.4620 C   0  0  0  0  0  0  0  0  0  0  0  0
  181.9430  175.3020  139.4660 O   0  0  0  0  0  0  0  0  0  0  0  0
  183.4230  176.6440  135.8030 O   0  0  0  0  0  0  0  0  0  0  0  0
  183.0030  177.8460  136.1480 O   0  0  0  0  0  1  0  0  0  0  0  0
  185.9030  177.8530  142.0660 O   0  0  0  0  0  0  0  0  0  0  0  0
  186.4310  177.8780  143.3600 C   0  0  0  0  0  2  0  0  0  0  0  0
  188.4440  177.2130  144.6640 C   0  0  0  0  0  1  0  0  0  0  0  0
  187.5600  176.8710  143.4810 C   0  0  0  0  0  2  0  0  0  0  0  0
  1 30  1  1  0  0  0
  1  6  1  0  0  0  0
  2  7  2  0  0  0  0
  3  5  1  0  0  0  0
  4 11  2  0  0  0  0
  5 13  2  0  0  0  0
  6 12  1  0  0  0  0
  7  9  1  0  0  0  0
  8 18  1  6  0  0  0
  8  1  1  0  0  0  0
  9  4  1  0  0  0  0
  9  3  2  0  0  0  0
 10  2  1  6  0  0  0
 10  8  1  0  0  0  0
 10  4  1  0  0  0  0
 11 12  1  0  0  0  0
 11 13  1  0  0  0  0
 15 28  1  6  0  0  0
 15 21  1  0  0  0  0
 16 24  1  0  0  0  0
 17 20  1  0  0  0  0
 17 15  1  0  0  0  0
 18 14  1  6  0  0  0
 20 19  1  6  0  0  0
 20 15  1  0  0  0  0
 20 16  1  0  0  0  0
 21 26  1  6  0  0  0
 21 22  1  0  0  0  0
 22 18  1  0  0  0  0
 23 14  1  0  0  0  0
 24 23  1  0  0  0  0
 25 26  1  0  0  0  0
 26 27  2  0  0  0  0
 28 29  1  0  0  0  0
 30 31  1  0  0  0  0
 31 33  1  0  0  0  0
 33 32  1  0  0  0  0
M  END
>  <MODEL>
7

>  <REMARK>
 VINA RESULT:      -5.5      4.851      6.716
  Name = 
  6 active torsions:
  status: ('A' for Active; 'I' for Inactive)
    1  A    between atoms: C_2  and  O_6
    2  A    between atoms: C_3  and  O_12
    3  A    between atoms: O_12  and  C_27
    4  A    between atoms: C_13  and  C_19
    5  A    between atoms: C_18  and  C_28
    6  A    between atoms: C_27  and  C_29
                            x       y       z     vdW  Elec       q    Type
                         _______ _______ _______ _____ _____    ______ ____

>  <TORSDO>
F 6

$$$$
=
 OpenBabel11032420293D

 33 37  0  0  1  0  0  0  0  0999 V2000
  184.7460  178.8930  141.3770 C   0  0  2  0  0  3  0  0  0  0  0  0
  187.8620  177.0830  142.9550 C   0  0  0  0  0  3  0  0  0  0  0  0
  186.8390  178.1370  146.3350 N   0  0  0  0  0  0  0  0  0  0  0  0
  185.9910  177.9510  144.1250 C   0  0  0  0  0  0  0  0  0  0  0  0
  185.6390  178.6280  146.7550 C   0  0  0  0  0  3  0  0  0  0  0  0
  184.0190  179.6110  142.5120 C   0  0  0  0  0  2  0  0  0  0  0  0
  188.2300  177.2550  144.4340 C   0  0  0  0  0  3  0  0  0  0  0  0
  186.2360  178.6290  141.7170 C   0  0  1  0  0  3  0  0  0  0  0  0
  187.0030  177.8060  145.0310 C   0  0  0  0  0  0  0  0  0  0  0  0
  186.3850  177.5020  142.7630 C   0  0  1  0  0  3  0  0  0  0  0  0
  184.7610  178.4480  144.5550 C   0  0  0  0  0  0  0  0  0  0  0  0
  183.6270  178.6370  143.6080 C   0  0  0  0  0  2  0  0  0  0  0  0
  184.6120  178.7810  145.8680 N   0  0  0  0  0  0  0  0  0  0  0  0
  188.4470  178.9860  140.5330 C   0  0  0  0  0  2  0  0  0  0  0  0
  187.0560  177.3700  137.3160 C   0  0  2  0  0  0  0  0  0  0  0  0
  189.0550  176.7430  138.7180 O   0  0  0  0  0  0  0  0  0  0  0  0
  187.5990  176.0070  136.8900 C   0  0  0  0  0  2  0  0  0  0  0  0
  187.0780  178.3090  140.4660 C   0  0  2  0  0  3  0  0  0  0  0  0
  189.4210  177.5480  136.4730 O   0  0  0  0  0  1  0  0  0  0  0  0
  188.5400  177.0620  137.4450 C   0  0  1  0  0  0  0  0  0  0  0  0
  186.2390  177.4070  138.6150 C   0  0  1  0  0  3  0  0  0  0  0  0
  186.4010  178.6270  139.2790 O   0  0  0  0  0  0  0  0  0  0  0  0
  189.0530  179.0030  139.2720 O   0  0  0  0  0  0  0  0  0  0  0  0
  189.8230  177.8330  139.1800 C   0  0  0  0  0  2  0  0  0  0  0  0
  184.0660  177.4990  136.7810 S   0  0  0  0  0  1  0  0  0  0  0  0
  184.7850  177.1350  138.3770 C   0  0  0  0  0  0  0  0  0  0  0  0
  184.0910  176.6460  139.2550 O   0  0  0  0  0  0  0  0  0  0  0  0
  186.7720  178.2920  136.2950 O   0  0  0  0  0  0  0  0  0  0  0  0
  187.1810  179.4650  136.7390 O   0  0  0  0  0  1  0  0  0  0  0  0
  184.6210  179.6660  140.2190 O   0  0  0  0  0  0  0  0  0  0  0  0
  183.2460  179.7400  139.9800 C   0  0  0  0  0  2  0  0  0  0  0  0
  181.5200  180.4250  138.3230 C   0  0  0  0  0  1  0  0  0  0  0  0
  182.9780  180.5400  138.7190 C   0  0  0  0  0  2  0  0  0  0  0  0
  1 30  1  6  0  0  0
  1  8  1  0  0  0  0
  1  6  1  0  0  0  0
  2  7  2  0  0  0  0
  3  5  1  0  0  0  0
  4 11  2  0  0  0  0
  4  9  1  0  0  0  0
  6 12  1  0  0  0  0
  7  9  1  0  0  0  0
  8 18  1  6  0  0  0
  8 10  1  0  0  0  0
  9  3  2  0  0  0  0
 10  2  1  1  0  0  0
 10  4  1  0  0  0  0
 11 13  1  0  0  0  0
 12 11  1  0  0  0  0
 13  5  2  0  0  0  0
 15 28  1  6  0  0  0
 15 20  1  0  0  0  0
 15 21  1  0  0  0  0
 16 24  1  0  0  0  0
 17 15  1  0  0  0  0
 17 20  1  0  0  0  0
 18 14  1  1  0  0  0
 20 19  1  6  0  0  0
 20 16  1  0  0  0  0
 21 26  1  6  0  0  0
 21 22  1  0  0  0  0
 22 18  1  0  0  0  0
 23 14  1  0  0  0  0
 24 23  1  0  0  0  0
 25 26  1  0  0  0  0
 26 27  2  0  0  0  0
 28 29  1  0  0  0  0
 31 30  1  0  0  0  0
 32 33  1  0  0  0  0
 33 31  1  0  0  0  0
M  END
>  <MODEL>
8

>  <REMARK>
 VINA RESULT:      -5.4      3.576      6.226
  Name = 
  6 active torsions:
  status: ('A' for Active; 'I' for Inactive)
    1  A    between atoms: C_2  and  O_6
    2  A    between atoms: C_3  and  O_12
    3  A    between atoms: O_12  and  C_27
    4  A    between atoms: C_13  and  C_19
    5  A    between atoms: C_18  and  C_28
    6  A    between atoms: C_27  and  C_29
                            x       y       z     vdW  Elec       q    Type
                         _______ _______ _______ _____ _____    ______ ____

>  <TORSDO>
F 6

$$$$
=
 OpenBabel11032420293D

 33 37  0  0  1  0  0  0  0  0999 V2000
  187.2190  178.0710  141.7080 C   0  0  2  0  0  3  0  0  0  0  0  0
  184.8510  178.9360  138.6870 C   0  0  0  0  0  3  0  0  0  0  0  0
  181.9060  178.8880  140.9030 N   0  0  0  0  0  0  0  0  0  0  0  0
  184.2790  178.9770  140.9880 C   0  0  0  0  0  0  0  0  0  0  0  0
  181.8570  178.9200  142.2650 C   0  0  0  0  0  3  0  0  0  0  0  0
  186.3300  177.8510  142.9290 C   0  0  0  0  0  2  0  0  0  0  0  0
  183.3240  178.9000  138.8250 C   0  0  0  0  0  3  0  0  0  0  0  0
  186.4450  177.8580  140.3810 C   0  0  1  0  0  3  0  0  0  0  0  0
  183.1110  178.9160  140.2820 C   0  0  0  0  0  0  0  0  0  0  0  0
  185.4720  179.0250  140.1020 C   0  0  1  0  0  3  0  0  0  0  0  0
  184.2270  179.0150  142.3820 C   0  0  0  0  0  0  0  0  0  0  0  0
  185.4690  179.0710  143.2020 C   0  0  0  0  0  2  0  0  0  0  0  0
  183.0100  178.9820  142.9930 N   0  0  0  0  0  0  0  0  0  0  0  0
  188.4810  178.7170  139.1410 C   0  0  0  0  0  2  0  0  0  0  0  0
  187.7550  176.3480  136.1810 C   0  0  2  0  0  0  0  0  0  0  0  0
  189.8020  176.5510  137.6390 O   0  0  0  0  0  0  0  0  0  0  0  0
  188.7020  175.1740  135.9380 C   0  0  0  0  0  2  0  0  0  0  0  0
  187.3860  177.6510  139.1770 C   0  0  2  0  0  3  0  0  0  0  0  0
  189.9810  177.1290  135.3030 O   0  0  0  0  0  1  0  0  0  0  0  0
  189.2580  176.5290  136.3390 C   0  0  1  0  0  0  0  0  0  0  0  0
  186.9240  176.3020  137.4700 C   0  0  1  0  0  3  0  0  0  0  0  0
  186.6840  177.5900  137.9630 O   0  0  0  0  0  0  0  0  0  0  0  0
  189.0950  178.7540  137.8840 O   0  0  0  0  0  0  0  0  0  0  0  0
  190.1870  177.8740  137.9440 C   0  0  0  0  0  2  0  0  0  0  0  0
  185.6240  173.7820  137.2300 S   0  0  0  0  0  1  0  0  0  0  0  0
  185.6300  175.5700  137.2830 C   0  0  0  0  0  0  0  0  0  0  0  0
  184.5760  176.1810  137.1890 O   0  0  0  0  0  0  0  0  0  0  0  0
  187.2380  176.9980  135.0480 O   0  0  0  0  0  0  0  0  0  0  0  0
  187.0510  178.2550  135.4030 O   0  0  0  0  0  1  0  0  0  0  0  0
  188.3120  177.2040  141.8000 O   0  0  0  0  0  0  0  0  0  0  0  0
  188.2430  176.6710  143.0910 C   0  0  0  0  0  2  0  0  0  0  0  0
  189.5990  177.8690  144.8000 C   0  0  0  0  0  1  0  0  0  0  0  0
  189.5990  176.7620  143.7650 C   0  0  0  0  0  2  0  0  0  0  0  0
  1 30  1  1  0  0  0
  1  6  1  0  0  0  0
  2  7  2  0  0  0  0
  3  5  1  0  0  0  0
  4 11  2  0  0  0  0
  5 13  2  0  0  0  0
  6 12  1  0  0  0  0
  7  9  1  0  0  0  0
  8 18  1  6  0  0  0
  8  1  1  0  0  0  0
  9  3  2  0  0  0  0
  9  4  1  0  0  0  0
 10  2  1  6  0  0  0
 10  8  1  0  0  0  0
 10  4  1  0  0  0  0
 11 13  1  0  0  0  0
 11 12  1  0  0  0  0
 15 28  1  6  0  0  0
 15 20  1  0  0  0  0
 15 21  1  0  0  0  0
 16 24  1  0  0  0  0
 17 15  1  0  0  0  0
 17 20  1  0  0  0  0
 18 14  1  6  0  0  0
 20 19  1  6  0  0  0
 20 16  1  0  0  0  0
 21 26  1  6  0  0  0
 21 22  1  0  0  0  0
 22 18  1  0  0  0  0
 23 24  1  0  0  0  0
 23 14  1  0  0  0  0
 25 26  1  0  0  0  0
 27 26  2  0  0  0  0
 28 29  1  0  0  0  0
 30 31  1  0  0  0  0
 31 33  1  0  0  0  0
 33 32  1  0  0  0  0
M  END
>  <MODEL>
9

>  <REMARK>
 VINA RESULT:      -5.1      2.646      3.795
  Name = 
  6 active torsions:
  status: ('A' for Active; 'I' for Inactive)
    1  A    between atoms: C_2  and  O_6
    2  A    between atoms: C_3  and  O_12
    3  A    between atoms: O_12  and  C_27
    4  A    between atoms: C_13  and  C_19
    5  A    between atoms: C_18  and  C_28
    6  A    between atoms: C_27  and  C_29
                            x       y       z     vdW  Elec       q    Type
                         _______ _______ _______ _____ _____    ______ ____

>  <TORSDO>
F 6

$$$$
