=
 OpenBabel11032420403D

 45 51  0  0  1  0  0  0  0  0999 V2000
  186.9820  178.1570  139.4300 C   0  0  0  0  0  0  0  0  0  0  0  0
  185.6420  178.5740  141.0760 C   0  0  0  0  0  0  0  0  0  0  0  0
  186.7990  178.7730  141.6210 N   0  0  0  0  0  0  0  0  0  0  0  0
  187.8180  178.5210  140.6100 C   0  0  1  0  0  3  0  0  0  0  0  0
  185.7230  178.1830  139.7130 N   0  0  0  0  0  0  0  0  0  0  0  0
  181.9030  179.0000  143.0850 N   0  0  0  0  0  0  0  0  0  0  0  0
  181.9450  178.7720  141.7480 C   0  0  0  0  0  3  0  0  0  0  0  0
  183.0390  179.1190  143.8190 C   0  0  0  0  0  3  0  0  0  0  0  0
  183.1720  178.6460  141.1000 C   0  0  0  0  0  3  0  0  0  0  0  0
  184.3690  178.7620  141.8200 C   0  0  0  0  0  0  0  0  0  0  0  0
  184.3040  179.0260  143.2150 C   0  0  0  0  0  0  0  0  0  0  0  0
  185.1590  178.9080  145.5310 C   0  0  0  0  0  2  0  0  0  0  0  0
  185.5380  179.1330  144.0760 C   0  0  0  0  0  3  0  0  0  0  0  0
  185.8810  177.8230  144.7730 C   0  0  0  0  0  2  0  0  0  0  0  0
  186.4910  177.8200  136.9600 C   0  0  0  0  0  1  0  0  0  0  0  0
  187.5230  177.7840  138.0780 C   0  0  1  0  0  3  0  0  0  0  0  0
  188.7900  178.5150  137.7290 C   0  0  0  0  0  0  0  0  0  0  0  0
  190.0740  177.8760  137.6270 N   0  0  0  0  0  2  0  0  0  0  0  0
  188.7270  179.7620  137.5780 O   0  0  0  0  0  0  0  0  0  0  0  0
  189.3690  175.5130  137.4060 C   0  0  0  0  0  3  0  0  0  0  0  0
  190.3640  176.4970  137.3700 C   0  0  0  0  0  0  0  0  0  0  0  0
  190.9850  173.8280  136.7740 C   0  0  0  0  0  3  0  0  0  0  0  0
  189.6770  174.1820  137.1140 C   0  0  0  0  0  3  0  0  0  0  0  0
  191.6660  176.1380  137.0080 C   0  0  0  0  0  3  0  0  0  0  0  0
  191.9850  174.8030  136.7170 C   0  0  0  0  0  0  0  0  0  0  0  0
  193.3180  174.4160  136.3690 N   0  0  0  0  0  2  0  0  0  0  0  0
  195.2950  173.1550  139.1710 O   0  0  0  0  0  1  0  0  0  0  0  0
  194.4270  174.4100  137.3120 C   0  0  1  0  0  0  0  0  0  0  0  0
  194.5330  175.5100  138.1680 O   0  0  0  0  0  1  0  0  0  0  0  0
  194.7970  173.0450  137.8700 C   0  0  1  0  0  3  0  0  0  0  0  0
  195.6930  173.7360  136.8140 C   0  0  2  0  0  3  0  0  0  0  0  0
  197.6360  175.8310  136.5360 O   0  0  0  0  0  0  0  0  0  0  0  0
  198.5040  173.3150  137.2280 O   0  0  0  0  0  1  0  0  0  0  0  0
  197.2070  174.8330  138.9060 O   0  0  0  0  0  1  0  0  0  0  0  0
  197.2710  174.4520  137.4440 P   0  0  0  0  0  0  0  0  0  0  0  0
  188.6820  177.3380  141.0220 C   0  0  0  0  0  2  0  0  0  0  0  0
  189.8250  177.7900  141.9240 C   0  0  1  0  0  3  0  0  0  0  0  0
  189.3670  177.9110  143.3220 N   0  0  0  0  0  0  0  0  0  0  0  0
  189.4450  176.6440  144.0230 C   0  0  0  0  0  2  0  0  0  0  0  0
  191.0120  178.0740  144.9900 O   0  0  0  0  0  0  0  0  0  0  0  0
  190.2620  178.8030  144.0520 C   0  0  0  0  0  2  0  0  0  0  0  0
  190.2640  176.9230  145.2500 C   0  0  0  0  0  2  0  0  0  0  0  0
  191.7700  177.2630  140.5220 N   0  0  0  0  0  2  0  0  0  0  0  0
  192.2730  177.6520  141.8460 C   0  0  0  0  0  2  0  0  0  0  0  0
  191.0440  176.8750  141.7410 C   0  0  1  0  0  3  0  0  0  0  0  0
  1  5  2  0  0  0  0
  1  4  1  0  0  0  0
  2  3  2  0  0  0  0
  2 10  1  0  0  0  0
  4 36  1  1  0  0  0
  4  3  1  0  0  0  0
  5  2  1  0  0  0  0
  6  8  1  0  0  0  0
  7  6  2  0  0  0  0
  9  7  1  0  0  0  0
  9 10  2  0  0  0  0
 10 11  1  0  0  0  0
 11  8  2  0  0  0  0
 11 13  1  0  0  0  0
 13 14  1  0  0  0  0
 13 12  1  0  0  0  0
 14 12  1  0  0  0  0
 16 15  1  6  0  0  0
 16  1  1  0  0  0  0
 17 16  1  0  0  0  0
 18 17  1  0  0  0  0
 19 17  2  0  0  0  0
 21 20  1  0  0  0  0
 21 18  1  0  0  0  0
 22 23  1  0  0  0  0
 23 20  2  0  0  0  0
 24 21  2  0  0  0  0
 25 22  2  0  0  0  0
 25 24  1  0  0  0  0
 26 25  1  0  0  0  0
 26 28  1  0  0  0  0
 28 30  1  0  0  0  0
 28 29  1  1  0  0  0
 30 27  1  1  0  0  0
 31 28  1  0  0  0  0
 31 35  1  1  0  0  0
 31 30  1  0  0  0  0
 32 35  2  0  0  0  0
 33 35  1  0  0  0  0
 35 34  1  0  0  0  0
 37 36  1  6  0  0  0
 37 38  1  0  0  0  0
 38 39  1  0  0  0  0
 38 41  1  0  0  0  0
 39 42  1  0  0  0  0
 40 42  1  0  0  0  0
 41 40  1  0  0  0  0
 43 45  1  0  0  0  0
 43 44  1  0  0  0  0
 45 44  1  0  0  0  0
 45 37  1  6  0  0  0
M  END
>  <MODEL>
1

>  <REMARK>
 VINA RESULT:      -8.6      0.000      0.000
  Name = 
  12 active torsions:
  status: ('A' for Active; 'I' for Inactive)
    1  A    between atoms: C_6  and  C_44
    2  A    between atoms: N_7  and  C_41
    3  A    between atoms: C_9  and  C_24
    4  A    between atoms: C_14  and  N_16
    5  A    between atoms: N_16  and  C_39
    6  A    between atoms: C_18  and  N_43
    7  A    between atoms: C_19  and  C_24
    8  A    between atoms: C_22  and  C_26
    9  A    between atoms: C_31  and  C_41
   10  A    between atoms: C_32  and  C_35
   11  A    between atoms: C_35  and  C_41
   12  A    between atoms: P_36  and  C_38
                            x       y       z     vdW  Elec       q    Type
                         _______ _______ _______ _____ _____    ______ ____

>  <TORSDO>
F 12

$$$$
=
 OpenBabel11032420403D

 45 51  0  0  1  0  0  0  0  0999 V2000
  184.1500  177.9660  140.8940 C   0  0  0  0  0  0  0  0  0  0  0  0
  184.4780  178.2150  143.0170 C   0  0  0  0  0  0  0  0  0  0  0  0
  183.1880  178.2590  142.9430 N   0  0  0  0  0  0  0  0  0  0  0  0
  182.8150  178.1060  141.5430 C   0  0  1  0  0  3  0  0  0  0  0  0
  185.1080  178.0390  141.7560 N   0  0  0  0  0  0  0  0  0  0  0  0
  186.4050  178.4640  146.8150 N   0  0  0  0  0  0  0  0  0  0  0  0
  185.0760  178.7080  146.7000 C   0  0  0  0  0  3  0  0  0  0  0  0
  187.1650  178.1550  145.7330 C   0  0  0  0  0  3  0  0  0  0  0  0
  184.4590  178.6350  145.4530 C   0  0  0  0  0  3  0  0  0  0  0  0
  185.2060  178.3200  144.3090 C   0  0  0  0  0  0  0  0  0  0  0  0
  186.6020  178.0920  144.4480 C   0  0  0  0  0  0  0  0  0  0  0  0
  188.8580  177.3260  143.7890 C   0  0  0  0  0  2  0  0  0  0  0  0
  187.4790  177.7130  143.2800 C   0  0  0  0  0  3  0  0  0  0  0  0
  187.9090  176.2520  143.3190 C   0  0  0  0  0  2  0  0  0  0  0  0
  183.1150  177.4290  138.6360 C   0  0  0  0  0  1  0  0  0  0  0  0
  184.3720  177.7850  139.4180 C   0  0  1  0  0  3  0  0  0  0  0  0
  185.1480  178.9140  138.7970 C   0  0  0  0  0  0  0  0  0  0  0  0
  186.3730  178.7290  138.0670 N   0  0  0  0  0  2  0  0  0  0  0  0
  184.7300  180.0860  138.9800 O   0  0  0  0  0  0  0  0  0  0  0  0
  186.1780  177.0080  136.2980 C   0  0  0  0  0  3  0  0  0  0  0  0
  186.8440  177.5510  137.4030 C   0  0  0  0  0  0  0  0  0  0  0  0
  187.8690  175.2910  136.0960 C   0  0  0  0  0  3  0  0  0  0  0  0
  186.6840  175.8800  135.6490 C   0  0  0  0  0  3  0  0  0  0  0  0
  188.0410  176.9680  137.8310 C   0  0  0  0  0  3  0  0  0  0  0  0
  188.5550  175.8330  137.1870 C   0  0  0  0  0  0  0  0  0  0  0  0
  189.7660  175.2110  137.6290 N   0  0  0  0  0  2  0  0  0  0  0  0
  192.5680  177.3300  138.6320 O   0  0  0  0  0  1  0  0  0  0  0  0
  191.0810  175.8220  137.4940 C   0  0  1  0  0  0  0  0  0  0  0  0
  191.2760  176.6600  136.3930 O   0  0  0  0  0  1  0  0  0  0  0  0
  191.7540  176.2070  138.8010 C   0  0  1  0  0  3  0  0  0  0  0  0
  192.2380  174.9770  137.9960 C   0  0  2  0  0  3  0  0  0  0  0  0
  193.8760  174.0600  135.8240 O   0  0  0  0  0  0  0  0  0  0  0  0
  195.1040  174.8770  138.1460 O   0  0  0  0  0  1  0  0  0  0  0  0
  193.9970  176.5740  136.5040 O   0  0  0  0  0  1  0  0  0  0  0  0
  193.8260  175.1880  137.0830 P   0  0  0  0  0  0  0  0  0  0  0  0
  182.1210  179.3660  141.0450 C   0  0  0  0  0  2  0  0  0  0  0  0
  180.6450  179.1000  140.7730 C   0  0  1  0  0  3  0  0  0  0  0  0
  180.2530  179.6400  139.4570 N   0  0  0  0  0  0  0  0  0  0  0  0
  179.0360  180.4230  139.5390 C   0  0  0  0  0  2  0  0  0  0  0  0
  180.7720  181.8860  139.0100 O   0  0  0  0  0  0  0  0  0  0  0  0
  181.2730  180.5730  138.9910 C   0  0  0  0  0  2  0  0  0  0  0  0
  179.3830  181.7540  138.9380 C   0  0  0  0  0  2  0  0  0  0  0  0
  179.3420  177.4460  142.0380 N   0  0  0  0  0  2  0  0  0  0  0  0
  178.9310  177.3500  140.6310 C   0  0  0  0  0  2  0  0  0  0  0  0
  180.3280  177.6090  140.9580 C   0  0  1  0  0  3  0  0  0  0  0  0
  1  4  1  0  0  0  0
  1  5  2  0  0  0  0
  2 10  1  0  0  0  0
  3  2  2  0  0  0  0
  4 36  1  6  0  0  0
  4  3  1  0  0  0  0
  5  2  1  0  0  0  0
  7  6  1  0  0  0  0
  8  6  2  0  0  0  0
  9  7  2  0  0  0  0
 10 11  2  0  0  0  0
 10  9  1  0  0  0  0
 11  8  1  0  0  0  0
 13 14  1  0  0  0  0
 13 12  1  0  0  0  0
 13 11  1  0  0  0  0
 14 12  1  0  0  0  0
 16 15  1  6  0  0  0
 16  1  1  0  0  0  0
 17 19  2  0  0  0  0
 17 16  1  0  0  0  0
 18 17  1  0  0  0  0
 20 21  1  0  0  0  0
 21 24  2  0  0  0  0
 21 18  1  0  0  0  0
 22 25  2  0  0  0  0
 23 22  1  0  0  0  0
 23 20  2  0  0  0  0
 25 26  1  0  0  0  0
 25 24  1  0  0  0  0
 28 29  1  6  0  0  0
 28 26  1  0  0  0  0
 28 31  1  0  0  0  0
 28 30  1  0  0  0  0
 30 27  1  6  0  0  0
 31 35  1  6  0  0  0
 31 30  1  0  0  0  0
 32 35  2  0  0  0  0
 34 35  1  0  0  0  0
 35 33  1  0  0  0  0
 37 36  1  6  0  0  0
 38 39  1  0  0  0  0
 38 37  1  0  0  0  0
 41 40  1  0  0  0  0
 41 38  1  0  0  0  0
 42 40  1  0  0  0  0
 42 39  1  0  0  0  0
 44 45  1  0  0  0  0
 44 43  1  0  0  0  0
 45 37  1  6  0  0  0
 45 43  1  0  0  0  0
M  END
>  <MODEL>
2

>  <REMARK>
 VINA RESULT:      -7.8      2.684      6.360
  Name = 
  12 active torsions:
  status: ('A' for Active; 'I' for Inactive)
    1  A    between atoms: C_6  and  C_44
    2  A    between atoms: N_7  and  C_41
    3  A    between atoms: C_9  and  C_24
    4  A    between atoms: C_14  and  N_16
    5  A    between atoms: N_16  and  C_39
    6  A    between atoms: C_18  and  N_43
    7  A    between atoms: C_19  and  C_24
    8  A    between atoms: C_22  and  C_26
    9  A    between atoms: C_31  and  C_41
   10  A    between atoms: C_32  and  C_35
   11  A    between atoms: C_35  and  C_41
   12  A    between atoms: P_36  and  C_38
                            x       y       z     vdW  Elec       q    Type
                         _______ _______ _______ _____ _____    ______ ____

>  <TORSDO>
F 12

$$$$
=
 OpenBabel11032420403D

 45 51  0  0  1  0  0  0  0  0999 V2000
  188.2940  177.7630  139.4740 C   0  0  0  0  0  0  0  0  0  0  0  0
  189.5480  177.6260  141.2310 C   0  0  0  0  0  0  0  0  0  0  0  0
  190.4060  177.4430  140.2800 N   0  0  0  0  0  0  0  0  0  0  0  0
  189.6890  177.5070  139.0130 C   0  0  1  0  0  3  0  0  0  0  0  0
  188.2220  177.8220  140.7610 N   0  0  0  0  0  0  0  0  0  0  0  0
  190.7980  177.8230  145.3050 N   0  0  0  0  0  0  0  0  0  0  0  0
  191.6540  178.1490  144.3050 C   0  0  0  0  0  3  0  0  0  0  0  0
  189.5310  177.4070  145.0450 C   0  0  0  0  0  3  0  0  0  0  0  0
  191.2400  178.0700  142.9780 C   0  0  0  0  0  3  0  0  0  0  0  0
  189.9410  177.6460  142.6640 C   0  0  0  0  0  0  0  0  0  0  0  0
  189.0670  177.2840  143.7250 C   0  0  0  0  0  0  0  0  0  0  0  0
  186.8140  177.1250  144.7310 C   0  0  0  0  0  2  0  0  0  0  0  0
  187.6420  176.8490  143.4860 C   0  0  0  0  0  3  0  0  0  0  0  0
  186.6600  178.0130  143.5220 C   0  0  0  0  0  2  0  0  0  0  0  0
  185.9190  178.6260  139.2030 C   0  0  0  0  0  1  0  0  0  0  0  0
  187.1050  177.9140  138.5670 C   0  0  1  0  0  3  0  0  0  0  0  0
  187.4630  178.4670  137.2150 C   0  0  0  0  0  0  0  0  0  0  0  0
  187.1990  177.7800  135.9790 N   0  0  0  0  0  2  0  0  0  0  0  0
  188.0800  179.5620  137.1720 O   0  0  0  0  0  0  0  0  0  0  0  0
  186.5660  175.4250  135.5470 C   0  0  0  0  0  3  0  0  0  0  0  0
  186.2170  176.7710  135.7150 C   0  0  0  0  0  0  0  0  0  0  0  0
  184.2360  174.8330  135.2850 C   0  0  0  0  0  3  0  0  0  0  0  0
  185.5820  174.4600  135.3280 C   0  0  0  0  0  3  0  0  0  0  0  0
  184.8670  177.1330  135.6920 C   0  0  0  0  0  3  0  0  0  0  0  0
  183.8720  176.1690  135.4690 C   0  0  0  0  0  0  0  0  0  0  0  0
  182.4870  176.5290  135.4190 N   0  0  0  0  0  2  0  0  0  0  0  0
  179.5380  177.4600  137.3650 O   0  0  0  0  0  1  0  0  0  0  0  0
  181.7710  177.1340  136.5320 C   0  0  1  0  0  0  0  0  0  0  0  0
  181.8930  178.5180  136.6830 O   0  0  0  0  0  1  0  0  0  0  0  0
  180.4250  176.5070  136.8550 C   0  0  1  0  0  3  0  0  0  0  0  0
  181.6490  176.2630  137.7700 C   0  0  2  0  0  3  0  0  0  0  0  0
  183.0560  176.7720  140.2200 O   0  0  0  0  0  1  0  0  0  0  0  0
  180.3090  176.6570  140.2790 O   0  0  0  0  0  1  0  0  0  0  0  0
  181.5790  178.6690  139.2120 O   0  0  0  0  0  0  0  0  0  0  0  0
  181.6440  177.1680  139.3760 P   0  0  0  0  0  0  0  0  0  0  0  0
  189.7650  176.1640  138.3010 C   0  0  0  0  0  2  0  0  0  0  0  0
  191.0100  176.0850  137.4240 C   0  0  1  0  0  3  0  0  0  0  0  0
  192.1240  175.4550  138.1580 N   0  0  0  0  0  0  0  0  0  0  0  0
  192.6410  174.2960  137.4570 C   0  0  0  0  0  2  0  0  0  0  0  0
  194.3060  175.9280  137.4300 O   0  0  0  0  0  0  0  0  0  0  0  0
  193.2460  176.3850  138.2320 C   0  0  0  0  0  2  0  0  0  0  0  0
  194.1130  174.5490  137.3110 C   0  0  0  0  0  2  0  0  0  0  0  0
  190.0930  176.3970  135.1670 N   0  0  0  0  0  2  0  0  0  0  0  0
  191.4940  175.9810  135.0210 C   0  0  0  0  0  2  0  0  0  0  0  0
  190.6790  175.4080  136.0860 C   0  0  1  0  0  3  0  0  0  0  0  0
  1  5  2  0  0  0  0
  2 10  1  0  0  0  0
  3  2  2  0  0  0  0
  4 36  1  1  0  0  0
  4  1  1  0  0  0  0
  4  3  1  0  0  0  0
  5  2  1  0  0  0  0
  7  6  2  0  0  0  0
  8  6  1  0  0  0  0
  9  7  1  0  0  0  0
 10  9  2  0  0  0  0
 10 11  1  0  0  0  0
 11  8  2  0  0  0  0
 13 14  1  0  0  0  0
 13 11  1  0  0  0  0
 13 12  1  0  0  0  0
 14 12  1  0  0  0  0
 16 15  1  1  0  0  0
 16  1  1  0  0  0  0
 17 16  1  0  0  0  0
 18 17  1  0  0  0  0
 19 17  2  0  0  0  0
 20 21  1  0  0  0  0
 21 18  1  0  0  0  0
 22 23  1  0  0  0  0
 22 25  2  0  0  0  0
 23 20  2  0  0  0  0
 24 21  2  0  0  0  0
 25 24  1  0  0  0  0
 26 25  1  0  0  0  0
 26 28  1  0  0  0  0
 28 29  1  1  0  0  0
 28 30  1  0  0  0  0
 28 31  1  0  0  0  0
 30 27  1  1  0  0  0
 30 31  1  0  0  0  0
 31 35  1  1  0  0  0
 34 35  2  0  0  0  0
 35 32  1  0  0  0  0
 35 33  1  0  0  0  0
 37 38  1  0  0  0  0
 37 36  1  1  0  0  0
 38 41  1  0  0  0  0
 39 38  1  0  0  0  0
 40 41  1  0  0  0  0
 42 40  1  0  0  0  0
 42 39  1  0  0  0  0
 43 45  1  0  0  0  0
 44 43  1  0  0  0  0
 44 45  1  0  0  0  0
 45 37  1  1  0  0  0
M  END
>  <MODEL>
3

>  <REMARK>
 VINA RESULT:      -7.5      4.274      8.656
  Name = 
  12 active torsions:
  status: ('A' for Active; 'I' for Inactive)
    1  A    between atoms: C_6  and  C_44
    2  A    between atoms: N_7  and  C_41
    3  A    between atoms: C_9  and  C_24
    4  A    between atoms: C_14  and  N_16
    5  A    between atoms: N_16  and  C_39
    6  A    between atoms: C_18  and  N_43
    7  A    between atoms: C_19  and  C_24
    8  A    between atoms: C_22  and  C_26
    9  A    between atoms: C_31  and  C_41
   10  A    between atoms: C_32  and  C_35
   11  A    between atoms: C_35  and  C_41
   12  A    between atoms: P_36  and  C_38
                            x       y       z     vdW  Elec       q    Type
                         _______ _______ _______ _____ _____    ______ ____

>  <TORSDO>
F 12

$$$$
=
 OpenBabel11032420403D

 45 51  0  0  1  0  0  0  0  0999 V2000
  189.7200  176.7870  137.4470 C   0  0  0  0  0  0  0  0  0  0  0  0
  191.5270  175.6040  137.5670 C   0  0  0  0  0  0  0  0  0  0  0  0
  191.1040  175.5650  138.7890 N   0  0  0  0  0  0  0  0  0  0  0  0
  189.8710  176.3380  138.8600 C   0  0  1  0  0  3  0  0  0  0  0  0
  190.6880  176.3630  136.7060 N   0  0  0  0  0  0  0  0  0  0  0  0
  195.1210  173.5760  136.4870 N   0  0  0  0  0  0  0  0  0  0  0  0
  195.0910  174.3970  137.5660 C   0  0  0  0  0  3  0  0  0  0  0  0
  194.0240  173.3890  135.7090 C   0  0  0  0  0  3  0  0  0  0  0  0
  193.9150  175.0640  137.9030 C   0  0  0  0  0  3  0  0  0  0  0  0
  192.7590  174.8990  137.1270 C   0  0  0  0  0  0  0  0  0  0  0  0
  192.8180  174.0540  135.9860 C   0  0  0  0  0  0  0  0  0  0  0  0
  191.6730  172.3620  134.5940 C   0  0  0  0  0  2  0  0  0  0  0  0
  191.6170  173.7900  135.1120 C   0  0  0  0  0  3  0  0  0  0  0  0
  190.6980  172.7210  135.6870 C   0  0  0  0  0  2  0  0  0  0  0  0
  188.7860  179.1350  137.1780 C   0  0  0  0  0  1  0  0  0  0  0  0
  188.5960  177.6440  136.9340 C   0  0  1  0  0  3  0  0  0  0  0  0
  188.2150  177.3270  135.5150 C   0  0  0  0  0  0  0  0  0  0  0  0
  187.4010  176.2010  135.1420 N   0  0  0  0  0  2  0  0  0  0  0  0
  188.6840  178.0550  134.6030 O   0  0  0  0  0  0  0  0  0  0  0  0
  186.8180  174.3200  136.6440 C   0  0  0  0  0  3  0  0  0  0  0  0
  186.4600  175.4800  135.9460 C   0  0  0  0  0  0  0  0  0  0  0  0
  184.5890  174.1650  137.5690 C   0  0  0  0  0  3  0  0  0  0  0  0
  185.8870  173.6610  137.4490 C   0  0  0  0  0  3  0  0  0  0  0  0
  185.1650  175.9890  136.0880 C   0  0  0  0  0  3  0  0  0  0  0  0
  184.2220  175.3310  136.8920 C   0  0  0  0  0  0  0  0  0  0  0  0
  182.8860  175.8270  137.0280 N   0  0  0  0  0  2  0  0  0  0  0  0
  181.3640  177.1020  140.0950 O   0  0  0  0  0  1  0  0  0  0  0  0
  182.5000  176.8480  137.9910 C   0  0  1  0  0  0  0  0  0  0  0  0
  181.6210  177.8380  137.5410 O   0  0  0  0  0  1  0  0  0  0  0  0
  182.3430  176.3640  139.4220 C   0  0  1  0  0  3  0  0  0  0  0  0
  183.5680  177.2130  139.0070 C   0  0  2  0  0  3  0  0  0  0  0  0
  183.7830  178.9970  141.2460 O   0  0  0  0  0  1  0  0  0  0  0  0
  182.0470  179.6400  139.2120 O   0  0  0  0  0  1  0  0  0  0  0  0
  184.6330  179.8070  138.9180 O   0  0  0  0  0  0  0  0  0  0  0  0
  183.5570  178.9690  139.5700 P   0  0  0  0  0  0  0  0  0  0  0  0
  190.0600  177.5410  139.7730 C   0  0  0  0  0  2  0  0  0  0  0  0
  189.2730  177.3680  141.0670 C   0  0  1  0  0  3  0  0  0  0  0  0
  190.1670  176.9650  142.1690 N   0  0  0  0  0  0  0  0  0  0  0  0
  190.5160  178.0900  143.0150 C   0  0  0  0  0  2  0  0  0  0  0  0
  189.2010  176.6430  144.2860 O   0  0  0  0  0  0  0  0  0  0  0  0
  189.4680  176.0330  143.0470 C   0  0  0  0  0  2  0  0  0  0  0  0
  190.1460  177.6650  144.4070 C   0  0  0  0  0  2  0  0  0  0  0  0
  187.2710  178.6610  140.4730 N   0  0  0  0  0  2  0  0  0  0  0  0
  187.1330  178.2540  141.8770 C   0  0  0  0  0  2  0  0  0  0  0  0
  188.4450  178.6270  141.3600 C   0  0  1  0  0  3  0  0  0  0  0  0
  1  4  1  0  0  0  0
  2  3  2  0  0  0  0
  3  4  1  0  0  0  0
  4 36  1  1  0  0  0
  5  1  2  0  0  0  0
  5  2  1  0  0  0  0
  6  7  1  0  0  0  0
  7  9  2  0  0  0  0
  8 11  1  0  0  0  0
  8  6  2  0  0  0  0
 10  2  1  0  0  0  0
 10  9  1  0  0  0  0
 11 10  2  0  0  0  0
 12 13  1  0  0  0  0
 12 14  1  0  0  0  0
 13 14  1  0  0  0  0
 13 11  1  0  0  0  0
 16 15  1  6  0  0  0
 16  1  1  0  0  0  0
 17 16  1  0  0  0  0
 18 17  1  0  0  0  0
 18 21  1  0  0  0  0
 19 17  2  0  0  0  0
 20 23  1  0  0  0  0
 21 24  1  0  0  0  0
 21 20  2  0  0  0  0
 23 22  2  0  0  0  0
 24 25  2  0  0  0  0
 25 26  1  0  0  0  0
 25 22  1  0  0  0  0
 26 28  1  0  0  0  0
 28 29  1  6  0  0  0
 28 31  1  0  0  0  0
 28 30  1  0  0  0  0
 30 27  1  1  0  0  0
 31 30  1  0  0  0  0
 31 35  1  1  0  0  0
 33 35  1  0  0  0  0
 34 35  2  0  0  0  0
 35 32  1  0  0  0  0
 37 36  1  6  0  0  0
 37 38  1  0  0  0  0
 38 39  1  0  0  0  0
 38 41  1  0  0  0  0
 39 42  1  0  0  0  0
 40 42  1  0  0  0  0
 41 40  1  0  0  0  0
 43 45  1  0  0  0  0
 43 44  1  0  0  0  0
 45 37  1  6  0  0  0
 45 44  1  0  0  0  0
M  END
>  <MODEL>
4

>  <REMARK>
 VINA RESULT:      -7.5      4.388      9.354
  Name = 
  12 active torsions:
  status: ('A' for Active; 'I' for Inactive)
    1  A    between atoms: C_6  and  C_44
    2  A    between atoms: N_7  and  C_41
    3  A    between atoms: C_9  and  C_24
    4  A    between atoms: C_14  and  N_16
    5  A    between atoms: N_16  and  C_39
    6  A    between atoms: C_18  and  N_43
    7  A    between atoms: C_19  and  C_24
    8  A    between atoms: C_22  and  C_26
    9  A    between atoms: C_31  and  C_41
   10  A    between atoms: C_32  and  C_35
   11  A    between atoms: C_35  and  C_41
   12  A    between atoms: P_36  and  C_38
                            x       y       z     vdW  Elec       q    Type
                         _______ _______ _______ _____ _____    ______ ____

>  <TORSDO>
F 12

$$$$
=
 OpenBabel11032420403D

 45 51  0  0  1  0  0  0  0  0999 V2000
  184.2100  178.9290  140.6010 C   0  0  0  0  0  0  0  0  0  0  0  0
  184.6910  178.4790  142.6610 C   0  0  0  0  0  0  0  0  0  0  0  0
  183.5530  177.8790  142.5190 N   0  0  0  0  0  0  0  0  0  0  0  0
  183.0970  178.1040  141.1540 C   0  0  1  0  0  3  0  0  0  0  0  0
  185.1240  179.1470  141.4850 N   0  0  0  0  0  0  0  0  0  0  0  0
  186.7280  178.3660  146.4070 N   0  0  0  0  0  0  0  0  0  0  0  0
  185.5210  178.9740  146.2980 C   0  0  0  0  0  3  0  0  0  0  0  0
  187.3340  177.7950  145.3340 C   0  0  0  0  0  3  0  0  0  0  0  0
  184.8690  179.0150  145.0670 C   0  0  0  0  0  3  0  0  0  0  0  0
  185.4580  178.4390  143.9330 C   0  0  0  0  0  0  0  0  0  0  0  0
  186.7350  177.8280  144.0640 C   0  0  0  0  0  0  0  0  0  0  0  0
  188.8180  177.7500  142.7340 C   0  0  0  0  0  2  0  0  0  0  0  0
  187.4300  177.1530  142.9080 C   0  0  0  0  0  3  0  0  0  0  0  0
  188.6680  176.3770  143.3400 C   0  0  0  0  0  2  0  0  0  0  0  0
  185.4750  179.0030  138.3980 C   0  0  0  0  0  1  0  0  0  0  0  0
  184.2650  179.4660  139.1980 C   0  0  1  0  0  3  0  0  0  0  0  0
  182.9700  179.2950  138.4520 C   0  0  0  0  0  0  0  0  0  0  0  0
  182.7170  178.2170  137.5340 N   0  0  0  0  0  2  0  0  0  0  0  0
  182.0860  180.1780  138.5970 O   0  0  0  0  0  0  0  0  0  0  0  0
  182.8060  175.8150  138.1260 C   0  0  0  0  0  3  0  0  0  0  0  0
  183.3460  176.9320  137.4770 C   0  0  0  0  0  0  0  0  0  0  0  0
  184.5820  174.4250  137.2530 C   0  0  0  0  0  3  0  0  0  0  0  0
  183.4230  174.5660  138.0190 C   0  0  0  0  0  3  0  0  0  0  0  0
  184.4950  176.7770  136.6950 C   0  0  0  0  0  3  0  0  0  0  0  0
  185.1220  175.5270  136.5850 C   0  0  0  0  0  0  0  0  0  0  0  0
  186.3130  175.3590  135.8080 N   0  0  0  0  0  2  0  0  0  0  0  0
  189.8930  176.0190  135.4970 O   0  0  0  0  0  1  0  0  0  0  0  0
  187.6430  175.7070  136.2870 C   0  0  1  0  0  0  0  0  0  0  0  0
  188.2240  174.8410  137.2170 O   0  0  0  0  0  1  0  0  0  0  0  0
  188.5560  176.3490  135.2550 C   0  0  1  0  0  3  0  0  0  0  0  0
  187.9240  177.1960  136.3850 C   0  0  2  0  0  3  0  0  0  0  0  0
  189.0570  179.3860  137.8540 O   0  0  0  0  0  1  0  0  0  0  0  0
  190.6250  177.1810  137.3610 O   0  0  0  0  0  0  0  0  0  0  0  0
  188.6720  177.1220  139.0880 O   0  0  0  0  0  1  0  0  0  0  0  0
  189.0610  177.6980  137.7460 P   0  0  0  0  0  0  0  0  0  0  0  0
  181.8050  178.9080  141.1590 C   0  0  0  0  0  2  0  0  0  0  0  0
  180.6000  177.9940  141.3540 C   0  0  1  0  0  3  0  0  0  0  0  0
  179.4550  178.7530  141.8930 N   0  0  0  0  0  0  0  0  0  0  0  0
  179.3870  178.6680  143.3390 C   0  0  0  0  0  2  0  0  0  0  0  0
  179.8890  180.8790  142.7910 O   0  0  0  0  0  0  0  0  0  0  0  0
  179.6310  180.1720  141.6030 C   0  0  0  0  0  2  0  0  0  0  0  0
  179.3540  180.0920  143.8140 C   0  0  0  0  0  2  0  0  0  0  0  0
  180.0600  175.8120  140.3660 N   0  0  0  0  0  2  0  0  0  0  0  0
  178.9310  176.7110  140.0950 C   0  0  0  0  0  2  0  0  0  0  0  0
  180.2920  177.2320  140.0570 C   0  0  1  0  0  3  0  0  0  0  0  0
  1  4  1  0  0  0  0
  1  5  2  0  0  0  0
  2 10  1  0  0  0  0
  3  2  2  0  0  0  0
  4 36  1  1  0  0  0
  4  3  1  0  0  0  0
  5  2  1  0  0  0  0
  7  6  1  0  0  0  0
  8  6  2  0  0  0  0
  9  7  2  0  0  0  0
 10 11  2  0  0  0  0
 10  9  1  0  0  0  0
 11  8  1  0  0  0  0
 12 13  1  0  0  0  0
 12 14  1  0  0  0  0
 13 14  1  0  0  0  0
 13 11  1  0  0  0  0
 16 15  1  6  0  0  0
 16  1  1  0  0  0  0
 17 19  2  0  0  0  0
 17 16  1  0  0  0  0
 18 17  1  0  0  0  0
 21 18  1  0  0  0  0
 21 20  2  0  0  0  0
 22 23  2  0  0  0  0
 23 20  1  0  0  0  0
 24 21  1  0  0  0  0
 25 24  2  0  0  0  0
 25 22  1  0  0  0  0
 26 28  1  0  0  0  0
 26 25  1  0  0  0  0
 28 31  1  0  0  0  0
 28 29  1  1  0  0  0
 30 27  1  1  0  0  0
 30 28  1  0  0  0  0
 30 31  1  0  0  0  0
 31 35  1  1  0  0  0
 33 35  2  0  0  0  0
 35 32  1  0  0  0  0
 35 34  1  0  0  0  0
 37 36  1  6  0  0  0
 37 38  1  0  0  0  0
 38 39  1  0  0  0  0
 39 42  1  0  0  0  0
 40 42  1  0  0  0  0
 41 38  1  0  0  0  0
 41 40  1  0  0  0  0
 44 43  1  0  0  0  0
 45 44  1  0  0  0  0
 45 43  1  0  0  0  0
 45 37  1  1  0  0  0
M  END
>  <MODEL>
5

>  <REMARK>
 VINA RESULT:      -7.2      4.219      7.392
  Name = 
  12 active torsions:
  status: ('A' for Active; 'I' for Inactive)
    1  A    between atoms: C_6  and  C_44
    2  A    between atoms: N_7  and  C_41
    3  A    between atoms: C_9  and  C_24
    4  A    between atoms: C_14  and  N_16
    5  A    between atoms: N_16  and  C_39
    6  A    between atoms: C_18  and  N_43
    7  A    between atoms: C_19  and  C_24
    8  A    between atoms: C_22  and  C_26
    9  A    between atoms: C_31  and  C_41
   10  A    between atoms: C_32  and  C_35
   11  A    between atoms: C_35  and  C_41
   12  A    between atoms: P_36  and  C_38
                            x       y       z     vdW  Elec       q    Type
                         _______ _______ _______ _____ _____    ______ ____

>  <TORSDO>
F 12

$$$$
=
 OpenBabel11032420403D

 45 51  0  0  1  0  0  0  0  0999 V2000
  186.5950  178.6690  141.7070 C   0  0  0  0  0  0  0  0  0  0  0  0
  188.0440  178.0290  143.1800 C   0  0  0  0  0  0  0  0  0  0  0  0
  188.7750  178.1320  142.1180 N   0  0  0  0  0  0  0  0  0  0  0  0
  187.9150  178.5590  141.0230 C   0  0  1  0  0  3  0  0  0  0  0  0
  186.6790  178.3530  142.9550 N   0  0  0  0  0  0  0  0  0  0  0  0
  189.8160  176.9770  146.9150 N   0  0  0  0  0  0  0  0  0  0  0  0
  190.5840  177.1290  145.8070 C   0  0  0  0  0  3  0  0  0  0  0  0
  188.4680  177.1320  146.8690 C   0  0  0  0  0  3  0  0  0  0  0  0
  189.9930  177.4620  144.5900 C   0  0  0  0  0  3  0  0  0  0  0  0
  188.6050  177.6320  144.4980 C   0  0  0  0  0  0  0  0  0  0  0  0
  187.8160  177.4420  145.6650 C   0  0  0  0  0  0  0  0  0  0  0  0
  185.8510  177.9150  147.0890 C   0  0  0  0  0  2  0  0  0  0  0  0
  186.3200  177.6370  145.6700 C   0  0  0  0  0  3  0  0  0  0  0  0
  185.9130  179.0440  146.0890 C   0  0  0  0  0  2  0  0  0  0  0  0
  185.2520  178.7510  139.5510 C   0  0  0  0  0  1  0  0  0  0  0  0
  185.3120  179.0760  141.0370 C   0  0  1  0  0  3  0  0  0  0  0  0
  184.0890  178.6230  141.7860 C   0  0  0  0  0  0  0  0  0  0  0  0
  182.7670  178.6160  141.2180 N   0  0  0  0  0  2  0  0  0  0  0  0
  184.2260  178.2900  142.9900 O   0  0  0  0  0  0  0  0  0  0  0  0
  181.9900  179.7100  139.1380 C   0  0  0  0  0  3  0  0  0  0  0  0
  182.3920  178.5660  139.8370 C   0  0  0  0  0  0  0  0  0  0  0  0
  181.7540  178.4130  137.1100 C   0  0  0  0  0  3  0  0  0  0  0  0
  181.6670  179.6350  137.7810 C   0  0  0  0  0  3  0  0  0  0  0  0
  182.4980  177.3510  139.1530 C   0  0  0  0  0  3  0  0  0  0  0  0
  182.1720  177.2660  137.7910 C   0  0  0  0  0  0  0  0  0  0  0  0
  182.2520  176.0240  137.0830 N   0  0  0  0  0  2  0  0  0  0  0  0
  185.2680  176.4130  135.0580 O   0  0  0  0  0  1  0  0  0  0  0  0
  183.4440  175.5720  136.3810 C   0  0  1  0  0  0  0  0  0  0  0  0
  183.2520  174.6810  135.3220 O   0  0  0  0  0  1  0  0  0  0  0  0
  184.5460  176.6090  136.2380 C   0  0  1  0  0  3  0  0  0  0  0  0
  184.6880  175.4400  137.2420 C   0  0  2  0  0  3  0  0  0  0  0  0
  185.2910  173.4000  135.3150 O   0  0  0  0  0  0  0  0  0  0  0  0
  185.8570  172.9180  137.9640 O   0  0  0  0  0  1  0  0  0  0  0  0
  187.2660  174.5860  136.5370 O   0  0  0  0  0  1  0  0  0  0  0  0
  185.8510  174.0970  136.7510 P   0  0  0  0  0  0  0  0  0  0  0  0
  187.8580  177.4810  139.9500 C   0  0  0  0  0  2  0  0  0  0  0  0
  189.0510  177.5920  139.0070 C   0  0  1  0  0  3  0  0  0  0  0  0
  190.0180  176.5070  139.2640 N   0  0  0  0  0  0  0  0  0  0  0  0
  190.3240  175.7640  138.0570 C   0  0  0  0  0  2  0  0  0  0  0  0
  192.2620  176.8970  138.6890 O   0  0  0  0  0  0  0  0  0  0  0  0
  191.2910  177.0800  139.6890 C   0  0  0  0  0  2  0  0  0  0  0  0
  191.8210  175.8040  137.9400 C   0  0  0  0  0  2  0  0  0  0  0  0
  188.0250  179.0140  137.2880 N   0  0  0  0  0  2  0  0  0  0  0  0
  189.3700  178.6540  136.8190 C   0  0  0  0  0  2  0  0  0  0  0  0
  188.5750  177.6740  137.5500 C   0  0  1  0  0  3  0  0  0  0  0  0
  1  5  2  0  0  0  0
  2 10  1  0  0  0  0
  3  2  2  0  0  0  0
  4 36  1  6  0  0  0
  4  1  1  0  0  0  0
  4  3  1  0  0  0  0
  5  2  1  0  0  0  0
  7  6  2  0  0  0  0
  8  6  1  0  0  0  0
  9  7  1  0  0  0  0
 10  9  2  0  0  0  0
 10 11  1  0  0  0  0
 11 13  1  0  0  0  0
 11  8  2  0  0  0  0
 13 14  1  0  0  0  0
 13 12  1  0  0  0  0
 14 12  1  0  0  0  0
 16 15  1  6  0  0  0
 16  1  1  0  0  0  0
 16 17  1  0  0  0  0
 17 19  2  0  0  0  0
 18 17  1  0  0  0  0
 20 21  1  0  0  0  0
 21 18  1  0  0  0  0
 22 23  1  0  0  0  0
 22 25  2  0  0  0  0
 23 20  2  0  0  0  0
 24 21  2  0  0  0  0
 25 24  1  0  0  0  0
 26 25  1  0  0  0  0
 28 29  1  6  0  0  0
 28 26  1  0  0  0  0
 28 31  1  0  0  0  0
 30 27  1  6  0  0  0
 30 28  1  0  0  0  0
 30 31  1  0  0  0  0
 31 35  1  6  0  0  0
 32 35  2  0  0  0  0
 34 35  1  0  0  0  0
 35 33  1  0  0  0  0
 37 38  1  0  0  0  0
 37 36  1  1  0  0  0
 38 41  1  0  0  0  0
 39 38  1  0  0  0  0
 40 41  1  0  0  0  0
 42 39  1  0  0  0  0
 42 40  1  0  0  0  0
 43 45  1  0  0  0  0
 44 43  1  0  0  0  0
 44 45  1  0  0  0  0
 45 37  1  1  0  0  0
M  END
>  <MODEL>
6

>  <REMARK>
 VINA RESULT:      -7.1      3.677      7.724
  Name = 
  12 active torsions:
  status: ('A' for Active; 'I' for Inactive)
    1  A    between atoms: C_6  and  C_44
    2  A    between atoms: N_7  and  C_41
    3  A    between atoms: C_9  and  C_24
    4  A    between atoms: C_14  and  N_16
    5  A    between atoms: N_16  and  C_39
    6  A    between atoms: C_18  and  N_43
    7  A    between atoms: C_19  and  C_24
    8  A    between atoms: C_22  and  C_26
    9  A    between atoms: C_31  and  C_41
   10  A    between atoms: C_32  and  C_35
   11  A    between atoms: C_35  and  C_41
   12  A    between atoms: P_36  and  C_38
                            x       y       z     vdW  Elec       q    Type
                         _______ _______ _______ _____ _____    ______ ____

>  <TORSDO>
F 12

$$$$
=
 OpenBabel11032420403D

 45 51  0  0  1  0  0  0  0  0999 V2000
  187.4360  178.0740  139.0470 C   0  0  0  0  0  0  0  0  0  0  0  0
  188.0920  177.8440  141.0950 C   0  0  0  0  0  0  0  0  0  0  0  0
  189.1760  177.5800  140.4390 N   0  0  0  0  0  0  0  0  0  0  0  0
  188.8770  177.6940  139.0180 C   0  0  1  0  0  3  0  0  0  0  0  0
  186.9880  178.1500  140.2550 N   0  0  0  0  0  0  0  0  0  0  0  0
  187.7860  177.7280  145.3480 N   0  0  0  0  0  0  0  0  0  0  0  0
  186.6750  177.6390  144.5750 C   0  0  0  0  0  3  0  0  0  0  0  0
  189.0200  177.8760  144.8010 C   0  0  0  0  0  3  0  0  0  0  0  0
  186.7850  177.6890  143.1870 C   0  0  0  0  0  3  0  0  0  0  0  0
  188.0400  177.8410  142.5800 C   0  0  0  0  0  0  0  0  0  0  0  0
  189.1890  177.9580  143.4090 C   0  0  0  0  0  0  0  0  0  0  0  0
  191.5860  178.1410  143.9860 C   0  0  0  0  0  2  0  0  0  0  0  0
  190.5820  178.0910  142.8450 C   0  0  0  0  0  3  0  0  0  0  0  0
  191.4580  176.8850  143.1600 C   0  0  0  0  0  2  0  0  0  0  0  0
  187.3330  178.9660  136.6690 C   0  0  0  0  0  1  0  0  0  0  0  0
  186.5880  178.3190  137.8300 C   0  0  1  0  0  3  0  0  0  0  0  0
  185.7920  177.1130  137.4150 C   0  0  0  0  0  0  0  0  0  0  0  0
  184.5090  176.7760  137.9710 N   0  0  0  0  0  2  0  0  0  0  0  0
  186.3070  176.3270  136.5790 O   0  0  0  0  0  0  0  0  0  0  0  0
  183.7510  178.1200  139.9080 C   0  0  0  0  0  3  0  0  0  0  0  0
  183.5610  177.6420  138.6060 C   0  0  0  0  0  0  0  0  0  0  0  0
  181.7060  179.4020  139.7580 C   0  0  0  0  0  3  0  0  0  0  0  0
  182.8260  178.9930  140.4850 C   0  0  0  0  0  3  0  0  0  0  0  0
  182.4480  178.0730  137.8770 C   0  0  0  0  0  3  0  0  0  0  0  0
  181.5120  178.9470  138.4510 C   0  0  0  0  0  0  0  0  0  0  0  0
  180.3560  179.3770  137.7260 N   0  0  0  0  0  2  0  0  0  0  0  0
  178.9310  181.6690  135.2620 O   0  0  0  0  0  1  0  0  0  0  0  0
  180.3390  180.5430  136.8530 C   0  0  1  0  0  0  0  0  0  0  0  0
  181.3020  180.5860  135.8410 O   0  0  0  0  0  1  0  0  0  0  0  0
  178.9600  181.0980  136.5370 C   0  0  1  0  0  3  0  0  0  0  0  0
  179.9040  181.8380  137.5150 C   0  0  2  0  0  3  0  0  0  0  0  0
  179.5880  184.6380  136.9700 O   0  0  0  0  0  1  0  0  0  0  0  0
  181.0880  183.1200  135.2350 O   0  0  0  0  0  0  0  0  0  0  0  0
  181.9540  183.7500  137.6130 O   0  0  0  0  0  1  0  0  0  0  0  0
  180.6990  183.3670  136.8620 P   0  0  0  0  0  0  0  0  0  0  0  0
  189.0480  176.3430  138.3370 C   0  0  0  0  0  2  0  0  0  0  0  0
  190.3530  176.2940  137.5510 C   0  0  1  0  0  3  0  0  0  0  0  0
  191.4270  175.6950  138.3660 N   0  0  0  0  0  0  0  0  0  0  0  0
  192.0690  174.5900  137.6800 C   0  0  0  0  0  2  0  0  0  0  0  0
  193.6390  176.3040  137.8610 O   0  0  0  0  0  0  0  0  0  0  0  0
  192.4860  176.6770  138.5740 C   0  0  0  0  0  2  0  0  0  0  0  0
  193.5320  174.9230  137.6810 C   0  0  0  0  0  2  0  0  0  0  0  0
  189.4220  176.5170  135.2900 N   0  0  0  0  0  2  0  0  0  0  0  0
  190.8700  176.3090  135.1530 C   0  0  0  0  0  2  0  0  0  0  0  0
  190.1350  175.6040  136.1970 C   0  0  1  0  0  3  0  0  0  0  0  0
  1  5  2  0  0  0  0
  2 10  1  0  0  0  0
  3  2  2  0  0  0  0
  4 36  1  6  0  0  0
  4  1  1  0  0  0  0
  4  3  1  0  0  0  0
  5  2  1  0  0  0  0
  7  6  2  0  0  0  0
  8  6  1  0  0  0  0
  9  7  1  0  0  0  0
 10  9  2  0  0  0  0
 10 11  1  0  0  0  0
 11  8  2  0  0  0  0
 13 14  1  0  0  0  0
 13 11  1  0  0  0  0
 13 12  1  0  0  0  0
 14 12  1  0  0  0  0
 16 15  1  6  0  0  0
 16  1  1  0  0  0  0
 17 16  1  0  0  0  0
 17 18  1  0  0  0  0
 18 21  1  0  0  0  0
 19 17  2  0  0  0  0
 20 23  1  0  0  0  0
 21 20  2  0  0  0  0
 22 23  2  0  0  0  0
 24 25  2  0  0  0  0
 24 21  1  0  0  0  0
 25 22  1  0  0  0  0
 26 25  1  0  0  0  0
 28 29  1  6  0  0  0
 28 31  1  0  0  0  0
 28 26  1  0  0  0  0
 30 27  1  6  0  0  0
 30 28  1  0  0  0  0
 30 31  1  0  0  0  0
 31 35  1  6  0  0  0
 33 35  2  0  0  0  0
 35 32  1  0  0  0  0
 35 34  1  0  0  0  0
 37 36  1  1  0  0  0
 37 38  1  0  0  0  0
 38 41  1  0  0  0  0
 39 42  1  0  0  0  0
 39 38  1  0  0  0  0
 40 41  1  0  0  0  0
 42 40  1  0  0  0  0
 43 45  1  0  0  0  0
 44 43  1  0  0  0  0
 44 45  1  0  0  0  0
 45 37  1  1  0  0  0
M  END
>  <MODEL>
7

>  <REMARK>
 VINA RESULT:      -7.1      4.779      9.874
  Name = 
  12 active torsions:
  status: ('A' for Active; 'I' for Inactive)
    1  A    between atoms: C_6  and  C_44
    2  A    between atoms: N_7  and  C_41
    3  A    between atoms: C_9  and  C_24
    4  A    between atoms: C_14  and  N_16
    5  A    between atoms: N_16  and  C_39
    6  A    between atoms: C_18  and  N_43
    7  A    between atoms: C_19  and  C_24
    8  A    between atoms: C_22  and  C_26
    9  A    between atoms: C_31  and  C_41
   10  A    between atoms: C_32  and  C_35
   11  A    between atoms: C_35  and  C_41
   12  A    between atoms: P_36  and  C_38
                            x       y       z     vdW  Elec       q    Type
                         _______ _______ _______ _____ _____    ______ ____

>  <TORSDO>
F 12

$$$$
=
 OpenBabel11032420403D

 45 51  0  0  1  0  0  0  0  0999 V2000
  183.1480  177.4830  138.8300 C   0  0  0  0  0  0  0  0  0  0  0  0
  182.4250  175.7340  137.7830 C   0  0  0  0  0  0  0  0  0  0  0  0
  183.7060  175.5930  137.6780 N   0  0  0  0  0  0  0  0  0  0  0  0
  184.3370  176.7230  138.3480 C   0  0  1  0  0  3  0  0  0  0  0  0
  182.0440  176.9060  138.4910 N   0  0  0  0  0  0  0  0  0  0  0  0
  179.5850  173.0330  136.0980 N   0  0  0  0  0  0  0  0  0  0  0  0
  179.2380  174.3160  136.3710 C   0  0  0  0  0  3  0  0  0  0  0  0
  180.8300  172.5630  136.3690 C   0  0  0  0  0  3  0  0  0  0  0  0
  180.1700  175.1860  136.9310 C   0  0  0  0  0  3  0  0  0  0  0  0
  181.4670  174.7430  137.2270 C   0  0  0  0  0  0  0  0  0  0  0  0
  181.8020  173.3890  136.9570 C   0  0  0  0  0  0  0  0  0  0  0  0
  183.2250  171.3750  136.7770 C   0  0  0  0  0  2  0  0  0  0  0  0
  183.1810  172.8320  137.2100 C   0  0  0  0  0  3  0  0  0  0  0  0
  183.8940  172.4260  135.9270 C   0  0  0  0  0  2  0  0  0  0  0  0
  183.2890  180.0180  138.7260 C   0  0  0  0  0  1  0  0  0  0  0  0
  183.2080  178.7730  139.5990 C   0  0  1  0  0  3  0  0  0  0  0  0
  182.1510  178.8730  140.6640 C   0  0  0  0  0  0  0  0  0  0  0  0
  182.3850  178.5610  142.0480 N   0  0  0  0  0  2  0  0  0  0  0  0
  180.9870  179.1910  140.3090 O   0  0  0  0  0  0  0  0  0  0  0  0
  183.6790  178.6970  144.1540 C   0  0  0  0  0  3  0  0  0  0  0  0
  183.6260  178.5590  142.7620 C   0  0  0  0  0  0  0  0  0  0  0  0
  186.0850  178.4590  144.1060 C   0  0  0  0  0  3  0  0  0  0  0  0
  184.9040  178.6520  144.8250 C   0  0  0  0  0  3  0  0  0  0  0  0
  184.8120  178.3440  142.0520 C   0  0  0  0  0  3  0  0  0  0  0  0
  186.0460  178.3010  142.7180 C   0  0  0  0  0  0  0  0  0  0  0  0
  187.2700  178.1070  142.0020 N   0  0  0  0  0  2  0  0  0  0  0  0
  190.2670  176.0360  141.7150 O   0  0  0  0  0  1  0  0  0  0  0  0
  188.3730  177.2950  142.4970 C   0  0  1  0  0  0  0  0  0  0  0  0
  188.0350  176.1220  143.1790 O   0  0  0  0  0  1  0  0  0  0  0  0
  189.6050  177.2620  141.6080 C   0  0  1  0  0  3  0  0  0  0  0  0
  189.6040  178.0720  142.9270 C   0  0  2  0  0  3  0  0  0  0  0  0
  191.1140  175.8110  143.8470 O   0  0  0  0  0  0  0  0  0  0  0  0
  189.5200  177.1490  145.6450 O   0  0  0  0  0  1  0  0  0  0  0  0
  191.7400  178.1790  144.7430 O   0  0  0  0  0  1  0  0  0  0  0  0
  190.5570  177.3360  144.3220 P   0  0  0  0  0  0  0  0  0  0  0  0
  185.1170  177.5580  137.3430 C   0  0  0  0  0  2  0  0  0  0  0  0
  186.5890  177.1590  137.3350 C   0  0  1  0  0  3  0  0  0  0  0  0
  187.0160  176.7770  135.9750 N   0  0  0  0  0  0  0  0  0  0  0  0
  187.3320  175.3650  135.8880 C   0  0  0  0  0  2  0  0  0  0  0  0
  185.4280  175.7340  134.5940 O   0  0  0  0  0  0  0  0  0  0  0  0
  185.9100  176.9760  135.0440 C   0  0  0  0  0  2  0  0  0  0  0  0
  186.4900  174.8420  134.7610 C   0  0  0  0  0  2  0  0  0  0  0  0
  188.7890  177.7360  138.2600 N   0  0  0  0  0  2  0  0  0  0  0  0
  188.5590  178.6010  137.0960 C   0  0  0  0  0  2  0  0  0  0  0  0
  187.4450  178.2620  137.9730 C   0  0  1  0  0  3  0  0  0  0  0  0
  1 16  1  0  0  0  0
  2  5  1  0  0  0  0
  3  2  2  0  0  0  0
  3  4  1  0  0  0  0
  4 36  1  6  0  0  0
  4  1  1  0  0  0  0
  5  1  2  0  0  0  0
  6  8  2  0  0  0  0
  6  7  1  0  0  0  0
  7  9  2  0  0  0  0
  8 11  1  0  0  0  0
  9 10  1  0  0  0  0
 10  2  1  0  0  0  0
 11 13  1  0  0  0  0
 11 10  2  0  0  0  0
 12 13  1  0  0  0  0
 14 12  1  0  0  0  0
 14 13  1  0  0  0  0
 16 15  1  6  0  0  0
 16 17  1  0  0  0  0
 17 18  1  0  0  0  0
 18 21  1  0  0  0  0
 19 17  2  0  0  0  0
 20 23  1  0  0  0  0
 21 20  2  0  0  0  0
 22 23  2  0  0  0  0
 24 25  2  0  0  0  0
 24 21  1  0  0  0  0
 25 22  1  0  0  0  0
 26 28  1  0  0  0  0
 26 25  1  0  0  0  0
 28 31  1  0  0  0  0
 28 29  1  1  0  0  0
 30 27  1  1  0  0  0
 30 28  1  0  0  0  0
 30 31  1  0  0  0  0
 31 35  1  1  0  0  0
 32 35  2  0  0  0  0
 35 34  1  0  0  0  0
 35 33  1  0  0  0  0
 37 36  1  6  0  0  0
 38 37  1  0  0  0  0
 39 38  1  0  0  0  0
 40 42  1  0  0  0  0
 40 41  1  0  0  0  0
 41 38  1  0  0  0  0
 42 39  1  0  0  0  0
 44 45  1  0  0  0  0
 44 43  1  0  0  0  0
 45 37  1  6  0  0  0
 45 43  1  0  0  0  0
M  END
>  <MODEL>
8

>  <REMARK>
 VINA RESULT:      -7.0      4.238      8.350
  Name = 
  12 active torsions:
  status: ('A' for Active; 'I' for Inactive)
    1  A    between atoms: C_6  and  C_44
    2  A    between atoms: N_7  and  C_41
    3  A    between atoms: C_9  and  C_24
    4  A    between atoms: C_14  and  N_16
    5  A    between atoms: N_16  and  C_39
    6  A    between atoms: C_18  and  N_43
    7  A    between atoms: C_19  and  C_24
    8  A    between atoms: C_22  and  C_26
    9  A    between atoms: C_31  and  C_41
   10  A    between atoms: C_32  and  C_35
   11  A    between atoms: C_35  and  C_41
   12  A    between atoms: P_36  and  C_38
                            x       y       z     vdW  Elec       q    Type
                         _______ _______ _______ _____ _____    ______ ____

>  <TORSDO>
F 12

$$$$
=
 OpenBabel11032420403D

 45 51  0  0  1  0  0  0  0  0999 V2000
  188.3740  177.0980  137.8360 C   0  0  0  0  0  0  0  0  0  0  0  0
  190.3440  176.2060  137.8040 C   0  0  0  0  0  0  0  0  0  0  0  0
  190.0520  176.1560  139.0630 N   0  0  0  0  0  0  0  0  0  0  0  0
  188.7280  176.7380  139.2380 C   0  0  1  0  0  3  0  0  0  0  0  0
  189.3200  176.7940  137.0130 N   0  0  0  0  0  0  0  0  0  0  0  0
  194.0890  174.7040  136.4180 N   0  0  0  0  0  0  0  0  0  0  0  0
  194.0400  175.6000  137.4350 C   0  0  0  0  0  3  0  0  0  0  0  0
  192.9590  174.2730  135.7990 C   0  0  0  0  0  3  0  0  0  0  0  0
  192.8120  176.0930  137.8720 C   0  0  0  0  0  3  0  0  0  0  0  0
  191.6220  175.6760  137.2610 C   0  0  0  0  0  0  0  0  0  0  0  0
  191.6960  174.7550  136.1800 C   0  0  0  0  0  0  0  0  0  0  0  0
  190.7160  172.7890  135.0470 C   0  0  0  0  0  2  0  0  0  0  0  0
  190.4680  174.2240  135.4850 C   0  0  0  0  0  3  0  0  0  0  0  0
  189.8260  173.0630  136.2330 C   0  0  0  0  0  2  0  0  0  0  0  0
  187.2590  179.1560  136.8430 C   0  0  0  0  0  1  0  0  0  0  0  0
  187.0880  177.7560  137.4170 C   0  0  1  0  0  3  0  0  0  0  0  0
  186.2290  176.8710  136.5550 C   0  0  0  0  0  0  0  0  0  0  0  0
  184.9260  176.4050  136.9450 N   0  0  0  0  0  2  0  0  0  0  0  0
  186.7060  176.4720  135.4620 O   0  0  0  0  0  0  0  0  0  0  0  0
  183.4290  176.2220  138.9090 C   0  0  0  0  0  3  0  0  0  0  0  0
  184.0220  176.9830  137.8940 C   0  0  0  0  0  0  0  0  0  0  0  0
  182.3290  178.1940  139.7730 C   0  0  0  0  0  3  0  0  0  0  0  0
  182.5820  176.8220  139.8430 C   0  0  0  0  0  3  0  0  0  0  0  0
  183.7800  178.3590  137.8450 C   0  0  0  0  0  3  0  0  0  0  0  0
  182.9280  178.9700  138.7770 C   0  0  0  0  0  0  0  0  0  0  0  0
  182.6510  180.3730  138.7230 N   0  0  0  0  0  2  0  0  0  0  0  0
  179.1220  181.2280  138.3180 O   0  0  0  0  0  1  0  0  0  0  0  0
  181.4940  180.9410  138.0460 C   0  0  1  0  0  0  0  0  0  0  0  0
  181.1580  180.3920  136.8050 O   0  0  0  0  0  1  0  0  0  0  0  0
  180.3570  181.3720  138.9570 C   0  0  1  0  0  3  0  0  0  0  0  0
  181.2720  182.4240  138.2840 C   0  0  2  0  0  3  0  0  0  0  0  0
  180.4150  182.3050  135.5460 O   0  0  0  0  0  0  0  0  0  0  0  0
  181.5560  184.6310  136.4690 O   0  0  0  0  0  1  0  0  0  0  0  0
  179.1550  183.8990  137.1800 O   0  0  0  0  0  1  0  0  0  0  0  0
  180.5300  183.3490  136.8720 P   0  0  0  0  0  0  0  0  0  0  0  0
  188.8170  177.9940  140.0930 C   0  0  0  0  0  2  0  0  0  0  0  0
  187.9490  177.8630  141.3400 C   0  0  1  0  0  3  0  0  0  0  0  0
  188.7860  177.6390  142.5340 N   0  0  0  0  0  0  0  0  0  0  0  0
  188.7450  176.2550  142.9670 C   0  0  0  0  0  2  0  0  0  0  0  0
  190.9070  176.6860  142.2080 O   0  0  0  0  0  0  0  0  0  0  0  0
  190.1840  177.8920  142.2040 C   0  0  0  0  0  2  0  0  0  0  0  0
  190.1810  175.8210  143.0300 C   0  0  0  0  0  2  0  0  0  0  0  0
  185.8740  178.8910  140.5240 N   0  0  0  0  0  2  0  0  0  0  0  0
  185.7010  178.6260  141.9580 C   0  0  0  0  0  2  0  0  0  0  0  0
  186.9990  179.0630  141.4570 C   0  0  1  0  0  3  0  0  0  0  0  0
  1  4  1  0  0  0  0
  2  3  2  0  0  0  0
  3  4  1  0  0  0  0
  4 36  1  1  0  0  0
  5  2  1  0  0  0  0
  5  1  2  0  0  0  0
  6  7  1  0  0  0  0
  7  9  2  0  0  0  0
  8 11  1  0  0  0  0
  8  6  2  0  0  0  0
 10  2  1  0  0  0  0
 10  9  1  0  0  0  0
 11 10  2  0  0  0  0
 12 13  1  0  0  0  0
 12 14  1  0  0  0  0
 13 11  1  0  0  0  0
 13 14  1  0  0  0  0
 16 15  1  6  0  0  0
 16  1  1  0  0  0  0
 17 18  1  0  0  0  0
 17 16  1  0  0  0  0
 18 21  1  0  0  0  0
 19 17  2  0  0  0  0
 20 23  1  0  0  0  0
 21 20  2  0  0  0  0
 22 23  2  0  0  0  0
 24 21  1  0  0  0  0
 24 25  2  0  0  0  0
 25 22  1  0  0  0  0
 26 25  1  0  0  0  0
 28 29  1  6  0  0  0
 28 31  1  0  0  0  0
 28 26  1  0  0  0  0
 28 30  1  0  0  0  0
 30 27  1  6  0  0  0
 31 35  1  6  0  0  0
 31 30  1  0  0  0  0
 32 35  2  0  0  0  0
 33 35  1  0  0  0  0
 35 34  1  0  0  0  0
 37 36  1  6  0  0  0
 37 38  1  0  0  0  0
 38 39  1  0  0  0  0
 39 42  1  0  0  0  0
 40 42  1  0  0  0  0
 41 40  1  0  0  0  0
 41 38  1  0  0  0  0
 43 45  1  0  0  0  0
 43 44  1  0  0  0  0
 45 37  1  6  0  0  0
 45 44  1  0  0  0  0
M  END
>  <MODEL>
9

>  <REMARK>
 VINA RESULT:      -7.0      4.659     10.535
  Name = 
  12 active torsions:
  status: ('A' for Active; 'I' for Inactive)
    1  A    between atoms: C_6  and  C_44
    2  A    between atoms: N_7  and  C_41
    3  A    between atoms: C_9  and  C_24
    4  A    between atoms: C_14  and  N_16
    5  A    between atoms: N_16  and  C_39
    6  A    between atoms: C_18  and  N_43
    7  A    between atoms: C_19  and  C_24
    8  A    between atoms: C_22  and  C_26
    9  A    between atoms: C_31  and  C_41
   10  A    between atoms: C_32  and  C_35
   11  A    between atoms: C_35  and  C_41
   12  A    between atoms: P_36  and  C_38
                            x       y       z     vdW  Elec       q    Type
                         _______ _______ _______ _____ _____    ______ ____

>  <TORSDO>
F 12

$$$$
