=
 OpenBabel11042410013D

 38 39  0  0  1  0  0  0  0  0999 V2000
  191.0010  175.3920  138.7740 O   0  0  0  0  0  0  0  0  0  0  0  0
  189.2710  177.2260  139.1360 C   0  0  0  0  0  0  0  0  0  0  0  0
  190.1600  176.2820  138.9510 C   0  0  0  0  0  0  0  0  0  0  0  0
  188.9590  179.2540  137.0670 C   0  0  0  0  0  1  0  0  0  0  0  0
  187.7960  178.3280  137.3930 C   0  0  2  0  0  0  0  0  0  0  0  0
  187.9770  176.8770  136.9460 C   0  0  1  0  0  3  0  0  0  0  0  0
  186.5090  178.8610  137.2850 O   0  0  0  0  0  1  0  0  0  0  0  0
  187.9260  177.2330  138.4430 C   0  0  1  0  0  3  0  0  0  0  0  0
  186.6640  176.2210  136.4860 C   0  0  1  0  0  3  0  0  0  0  0  0
  185.4740  177.1180  134.6340 O   0  0  0  0  0  0  0  0  0  0  0  0
  186.4660  176.5210  135.0250 C   0  0  0  0  0  3  0  0  0  0  0  0
  186.5980  174.6900  136.7630 C   0  0  1  0  0  3  0  0  0  0  0  0
  185.1480  172.9590  137.9220 C   0  0  0  0  0  1  0  0  0  0  0  0
  185.1730  174.1530  136.9900 C   0  0  1  0  0  3  0  0  0  0  0  0
  184.2970  175.1490  137.4210 O   0  0  0  0  0  1  0  0  0  0  0  0
  187.3000  173.8810  135.6430 C   0  0  2  0  0  3  0  0  0  0  0  0
  186.3850  173.2470  134.7950 O   0  0  0  0  0  1  0  0  0  0  0  0
  188.2720  172.8430  136.1970 C   0  0  0  0  0  2  0  0  0  0  0  0
  189.5820  173.4760  136.6460 C   0  0  0  0  0  2  0  0  0  0  0  0
  190.3910  173.8560  135.4580 C   0  0  0  0  0  0  0  0  0  0  0  0
  190.8720  172.9630  134.7120 O   0  0  0  0  0  0  0  0  0  0  0  0
  190.5930  175.2280  135.1420 N   0  0  0  0  0  1  0  0  0  0  0  0
  189.5670  178.2990  140.1310 C   0  0  0  0  0  2  0  0  0  0  0  0
  187.3460  177.8480  142.1500 C   0  0  0  0  0  1  0  0  0  0  0  0
  191.2760  175.4890  143.5840 C   0  0  0  0  0  1  0  0  0  0  0  0
  188.7880  177.5490  142.3870 C   0  0  0  0  0  0  0  0  0  0  0  0
  189.7510  177.7110  141.4980 C   0  0  0  0  0  0  0  0  0  0  0  0
  191.0090  177.3570  142.0420 N   0  0  0  0  0  0  0  0  0  0  0  0
  192.2940  177.5620  141.3920 C   0  0  0  0  0  1  0  0  0  0  0  0
  190.8440  176.9370  143.4230 C   0  0  1  0  0  3  0  0  0  0  0  0
  189.3360  177.0540  143.6890 C   0  0  1  0  0  3  0  0  0  0  0  0
  189.1150  178.0090  144.6840 O   0  0  0  0  0  0  0  0  0  0  0  0
  188.7420  177.2740  145.8120 C   0  0  0  0  0  2  0  0  0  0  0  0
  184.8810  178.8690  147.1700 O   0  0  0  0  0  0  0  0  0  0  0  0
  187.4920  177.8420  146.3860 C   0  0  0  0  0  0  0  0  0  0  0  0
  187.4650  178.1760  147.6010 O   0  0  0  0  0  0  0  0  0  0  0  0
  185.0630  178.4710  145.9890 C   0  0  0  0  0  3  0  0  0  0  0  0
  186.3300  177.9590  145.5600 N   0  0  0  0  0  2  0  0  0  0  0  0
  1  3  2  0  0  0  0
  2 23  1  0  0  0  0
  3  2  2  0  0  0  0
  5  4  1  6  0  0  0
  5  8  1  0  0  0  0
  6  9  1  6  0  0  0
  6  5  1  0  0  0  0
  6  8  1  0  0  0  0
  7  5  1  0  0  0  0
  8  2  1  1  0  0  0
  9 11  1  6  0  0  0
  9 12  1  0  0  0  0
 10 11  2  0  0  0  0
 12 16  1  6  0  0  0
 12 14  1  0  0  0  0
 14 15  1  0  0  0  0
 14 13  1  1  0  0  0
 16 17  1  1  0  0  0
 16 18  1  0  0  0  0
 18 19  1  0  0  0  0
 20 19  1  0  0  0  0
 21 20  2  0  0  0  0
 22 20  1  0  0  0  0
 23 27  1  0  0  0  0
 24 26  1  0  0  0  0
 26 31  1  0  0  0  0
 27 28  1  0  0  0  0
 27 26  2  0  0  0  0
 28 30  1  0  0  0  0
 29 28  1  0  0  0  0
 30 25  1  6  0  0  0
 30 31  1  0  0  0  0
 31 32  1  1  0  0  0
 32 33  1  0  0  0  0
 33 35  1  0  0  0  0
 35 36  2  0  0  0  0
 37 34  2  0  0  0  0
 38 37  1  0  0  0  0
 38 35  1  0  0  0  0
M  END
>  <MODEL>
1

>  <REMARK>
 VINA RESULT:      -6.1      0.000      0.000
  Name = 
  14 active torsions:
  status: ('A' for Active; 'I' for Inactive)
    1  A    between atoms: C_2  and  C_16
    2  A    between atoms: C_2  and  O_33
    3  A    between atoms: C_7  and  C_10
    4  A    between atoms: C_8  and  C_28
    5  A    between atoms: C_8  and  C_35
    6  A    between atoms: C_8  and  C_37
    7  A    between atoms: C_10  and  C_13
    8  A    between atoms: C_12  and  C_31
    9  A    between atoms: C_12  and  C_34
   10  A    between atoms: C_13  and  C_24
   11  A    between atoms: C_14  and  C_31
   12  A    between atoms: C_18  and  C_35
   13  A    between atoms: C_24  and  C_35
   14  A    between atoms: O_33  and  C_36
                            x       y       z     vdW  Elec       q    Type
                         _______ _______ _______ _____ _____    ______ ____

>  <TORSDO>
F 14

$$$$
=
 OpenBabel11042410013D

 38 39  0  0  1  0  0  0  0  0999 V2000
  192.3450  177.9040  141.1360 O   0  0  0  0  0  0  0  0  0  0  0  0
  190.1260  176.7700  141.6640 C   0  0  0  0  0  0  0  0  0  0  0  0
  191.2670  177.3530  141.3920 C   0  0  0  0  0  0  0  0  0  0  0  0
  188.7800  179.3460  141.8760 C   0  0  0  0  0  1  0  0  0  0  0  0
  188.2090  178.2720  140.9600 C   0  0  2  0  0  0  0  0  0  0  0  0
  189.0240  177.9980  139.6970 C   0  0  1  0  0  3  0  0  0  0  0  0
  186.8180  178.2180  140.8340 O   0  0  0  0  0  1  0  0  0  0  0  0
  188.8970  176.9250  140.7940 C   0  0  1  0  0  3  0  0  0  0  0  0
  188.1490  177.6520  138.4800 C   0  0  1  0  0  3  0  0  0  0  0  0
  189.0420  179.6640  137.5820 O   0  0  0  0  0  0  0  0  0  0  0  0
  188.1530  178.8270  137.5390 C   0  0  0  0  0  3  0  0  0  0  0  0
  188.5760  176.3440  137.7520 C   0  0  1  0  0  3  0  0  0  0  0  0
  187.5060  174.2510  136.7920 C   0  0  0  0  0  1  0  0  0  0  0  0
  187.5000  175.7660  136.8140 C   0  0  1  0  0  3  0  0  0  0  0  0
  186.2280  176.2620  137.1030 O   0  0  0  0  0  1  0  0  0  0  0  0
  189.9070  176.5310  136.9830 C   0  0  2  0  0  3  0  0  0  0  0  0
  189.7630  176.2970  135.6100 O   0  0  0  0  0  1  0  0  0  0  0  0
  191.0240  175.6450  137.5280 C   0  0  0  0  0  2  0  0  0  0  0  0
  192.2720  176.4490  137.8620 C   0  0  0  0  0  2  0  0  0  0  0  0
  193.4140  175.9760  137.0350 C   0  0  0  0  0  0  0  0  0  0  0  0
  193.3500  176.0400  135.7790 O   0  0  0  0  0  0  0  0  0  0  0  0
  194.5920  175.4840  137.6610 N   0  0  0  0  0  1  0  0  0  0  0  0
  190.0560  175.8540  142.8400 C   0  0  0  0  0  2  0  0  0  0  0  0
  187.1090  175.9870  143.5560 C   0  0  0  0  0  1  0  0  0  0  0  0
  189.7060  177.5090  147.2980 C   0  0  0  0  0  1  0  0  0  0  0  0
  188.2040  176.6540  144.3190 C   0  0  0  0  0  0  0  0  0  0  0  0
  189.4890  176.5680  144.0300 C   0  0  0  0  0  0  0  0  0  0  0  0
  190.2650  177.3350  144.9320 N   0  0  0  0  0  0  0  0  0  0  0  0
  191.6920  177.5890  144.8110 C   0  0  0  0  0  1  0  0  0  0  0  0
  189.3930  177.9910  145.8930 C   0  0  1  0  0  3  0  0  0  0  0  0
  187.9770  177.5430  145.5010 C   0  0  1  0  0  3  0  0  0  0  0  0
  187.2300  178.6580  145.1130 O   0  0  0  0  0  0  0  0  0  0  0  0
  186.1430  178.6870  145.9900 C   0  0  0  0  0  2  0  0  0  0  0  0
  182.6200  179.0410  143.3900 O   0  0  0  0  0  0  0  0  0  0  0  0
  184.8810  178.8390  145.2160 C   0  0  0  0  0  0  0  0  0  0  0  0
  183.8010  179.0500  145.8280 O   0  0  0  0  0  0  0  0  0  0  0  0
  183.7710  178.8090  142.9310 C   0  0  0  0  0  3  0  0  0  0  0  0
  184.9100  178.7020  143.7920 N   0  0  0  0  0  2  0  0  0  0  0  0
  1  3  2  0  0  0  0
  2 23  1  0  0  0  0
  3  2  2  0  0  0  0
  5  4  1  1  0  0  0
  6  9  1  6  0  0  0
  6  8  1  0  0  0  0
  6  5  1  0  0  0  0
  7  5  1  0  0  0  0
  8  5  1  0  0  0  0
  8  2  1  1  0  0  0
  9 11  1  6  0  0  0
 11 10  2  0  0  0  0
 12 14  1  6  0  0  0
 12  9  1  0  0  0  0
 14 13  1  1  0  0  0
 14 15  1  0  0  0  0
 16 17  1  6  0  0  0
 16 18  1  0  0  0  0
 16 12  1  0  0  0  0
 18 19  1  0  0  0  0
 20 22  1  0  0  0  0
 20 19  1  0  0  0  0
 21 20  2  0  0  0  0
 23 27  1  0  0  0  0
 24 26  1  0  0  0  0
 26 31  1  0  0  0  0
 27 26  2  0  0  0  0
 27 28  1  0  0  0  0
 28 30  1  0  0  0  0
 29 28  1  0  0  0  0
 30 25  1  1  0  0  0
 31 32  1  6  0  0  0
 31 30  1  0  0  0  0
 32 33  1  0  0  0  0
 35 36  2  0  0  0  0
 35 33  1  0  0  0  0
 37 34  2  0  0  0  0
 37 38  1  0  0  0  0
 38 35  1  0  0  0  0
M  END
>  <MODEL>
2

>  <REMARK>
 VINA RESULT:      -6.1      2.307      3.499
  Name = 
  14 active torsions:
  status: ('A' for Active; 'I' for Inactive)
    1  A    between atoms: C_2  and  C_16
    2  A    between atoms: C_2  and  O_33
    3  A    between atoms: C_7  and  C_10
    4  A    between atoms: C_8  and  C_28
    5  A    between atoms: C_8  and  C_35
    6  A    between atoms: C_8  and  C_37
    7  A    between atoms: C_10  and  C_13
    8  A    between atoms: C_12  and  C_31
    9  A    between atoms: C_12  and  C_34
   10  A    between atoms: C_13  and  C_24
   11  A    between atoms: C_14  and  C_31
   12  A    between atoms: C_18  and  C_35
   13  A    between atoms: C_24  and  C_35
   14  A    between atoms: O_33  and  C_36
                            x       y       z     vdW  Elec       q    Type
                         _______ _______ _______ _____ _____    ______ ____

>  <TORSDO>
F 14

$$$$
=
 OpenBabel11042410013D

 38 39  0  0  1  0  0  0  0  0999 V2000
  191.1210  175.2320  138.5600 O   0  0  0  0  0  0  0  0  0  0  0  0
  189.3720  177.0540  138.8930 C   0  0  0  0  0  0  0  0  0  0  0  0
  190.2710  176.1170  138.7230 C   0  0  0  0  0  0  0  0  0  0  0  0
  188.7850  179.3450  137.1910 C   0  0  0  0  0  1  0  0  0  0  0  0
  187.7390  178.2530  137.3690 C   0  0  2  0  0  0  0  0  0  0  0  0
  188.0670  176.9250  136.6870 C   0  0  1  0  0  3  0  0  0  0  0  0
  186.3990  178.6480  137.3610 O   0  0  0  0  0  1  0  0  0  0  0  0
  188.0160  177.0230  138.2220 C   0  0  1  0  0  3  0  0  0  0  0  0
  186.8220  176.2090  136.1350 C   0  0  1  0  0  3  0  0  0  0  0  0
  185.0900  177.0880  134.7650 O   0  0  0  0  0  0  0  0  0  0  0  0
  186.2910  177.0010  134.9710 C   0  0  0  0  0  3  0  0  0  0  0  0
  187.0760  174.7250  135.7400 C   0  0  1  0  0  3  0  0  0  0  0  0
  188.6940  173.1860  136.9480 C   0  0  0  0  0  1  0  0  0  0  0  0
  188.5390  174.2720  135.9030 C   0  0  1  0  0  3  0  0  0  0  0  0
  189.1120  173.8910  134.6890 O   0  0  0  0  0  1  0  0  0  0  0  0
  186.1340  173.7640  136.5070 C   0  0  2  0  0  3  0  0  0  0  0  0
  185.5030  172.8490  135.6550 O   0  0  0  0  0  1  0  0  0  0  0  0
  185.0740  174.5100  137.3140 C   0  0  0  0  0  2  0  0  0  0  0  0
  183.6720  174.2600  136.7760 C   0  0  0  0  0  2  0  0  0  0  0  0
  182.6730  174.9580  137.6280 C   0  0  0  0  0  0  0  0  0  0  0  0
  181.4480  174.8830  137.3510 O   0  0  0  0  0  0  0  0  0  0  0  0
  183.0980  175.6820  138.7760 N   0  0  0  0  0  1  0  0  0  0  0  0
  189.6690  178.1610  139.8510 C   0  0  0  0  0  2  0  0  0  0  0  0
  187.3480  177.8590  141.7830 C   0  0  0  0  0  1  0  0  0  0  0  0
  191.1420  175.4670  143.4990 C   0  0  0  0  0  1  0  0  0  0  0  0
  188.7690  177.5340  142.0990 C   0  0  0  0  0  0  0  0  0  0  0  0
  189.7750  177.6300  141.2490 C   0  0  0  0  0  0  0  0  0  0  0  0
  190.9970  177.2700  141.8660 N   0  0  0  0  0  0  0  0  0  0  0  0
  192.3150  177.4110  141.2670 C   0  0  0  0  0  1  0  0  0  0  0  0
  190.7590  176.9160  143.2550 C   0  0  1  0  0  3  0  0  0  0  0  0
  189.2440  177.0840  143.4450 C   0  0  1  0  0  3  0  0  0  0  0  0
  189.0050  178.0890  144.3860 O   0  0  0  0  0  0  0  0  0  0  0  0
  188.7710  177.4110  145.5850 C   0  0  0  0  0  2  0  0  0  0  0  0
  184.7810  178.6990  146.8930 O   0  0  0  0  0  0  0  0  0  0  0  0
  187.4620  177.8360  146.1510 C   0  0  0  0  0  0  0  0  0  0  0  0
  187.2810  177.7870  147.3970 O   0  0  0  0  0  0  0  0  0  0  0  0
  185.1100  178.6700  145.6770 C   0  0  0  0  0  3  0  0  0  0  0  0
  186.4170  178.2530  145.2680 N   0  0  0  0  0  2  0  0  0  0  0  0
  1  3  2  0  0  0  0
  2 23  1  0  0  0  0
  3  2  2  0  0  0  0
  5  4  1  6  0  0  0
  5  8  1  0  0  0  0
  6  9  1  6  0  0  0
  6  5  1  0  0  0  0
  6  8  1  0  0  0  0
  7  5  1  0  0  0  0
  8  2  1  1  0  0  0
  9 11  1  6  0  0  0
 10 11  2  0  0  0  0
 12 14  1  1  0  0  0
 12  9  1  0  0  0  0
 12 16  1  0  0  0  0
 14 13  1  1  0  0  0
 15 14  1  0  0  0  0
 16 17  1  6  0  0  0
 16 18  1  0  0  0  0
 19 18  1  0  0  0  0
 19 20  1  0  0  0  0
 20 22  1  0  0  0  0
 21 20  2  0  0  0  0
 23 27  1  0  0  0  0
 24 26  1  0  0  0  0
 26 31  1  0  0  0  0
 27 28  1  0  0  0  0
 27 26  2  0  0  0  0
 28 30  1  0  0  0  0
 29 28  1  0  0  0  0
 30 31  1  0  0  0  0
 30 25  1  6  0  0  0
 31 32  1  1  0  0  0
 32 33  1  0  0  0  0
 33 35  1  0  0  0  0
 35 36  2  0  0  0  0
 37 34  2  0  0  0  0
 38 37  1  0  0  0  0
 38 35  1  0  0  0  0
M  END
>  <MODEL>
3

>  <REMARK>
 VINA RESULT:      -5.9      1.560      3.037
  Name = 
  14 active torsions:
  status: ('A' for Active; 'I' for Inactive)
    1  A    between atoms: C_2  and  C_16
    2  A    between atoms: C_2  and  O_33
    3  A    between atoms: C_7  and  C_10
    4  A    between atoms: C_8  and  C_28
    5  A    between atoms: C_8  and  C_35
    6  A    between atoms: C_8  and  C_37
    7  A    between atoms: C_10  and  C_13
    8  A    between atoms: C_12  and  C_31
    9  A    between atoms: C_12  and  C_34
   10  A    between atoms: C_13  and  C_24
   11  A    between atoms: C_14  and  C_31
   12  A    between atoms: C_18  and  C_35
   13  A    between atoms: C_24  and  C_35
   14  A    between atoms: O_33  and  C_36
                            x       y       z     vdW  Elec       q    Type
                         _______ _______ _______ _____ _____    ______ ____

>  <TORSDO>
F 14

$$$$
=
 OpenBabel11042410013D

 38 39  0  0  1  0  0  0  0  0999 V2000
  187.6240  179.2970  136.9350 O   0  0  0  0  0  0  0  0  0  0  0  0
  188.1640  176.8090  137.0060 C   0  0  0  0  0  0  0  0  0  0  0  0
  187.8860  178.0880  136.9700 C   0  0  0  0  0  0  0  0  0  0  0  0
  190.9590  176.2980  136.3580 C   0  0  0  0  0  1  0  0  0  0  0  0
  190.4190  175.8990  137.7240 C   0  0  2  0  0  0  0  0  0  0  0  0
  190.1080  177.0640  138.6640 C   0  0  1  0  0  3  0  0  0  0  0  0
  190.9540  174.7480  138.3080 O   0  0  0  0  0  1  0  0  0  0  0  0
  188.9750  176.1770  138.1170 C   0  0  1  0  0  3  0  0  0  0  0  0
  190.4030  176.7420  140.1390 C   0  0  1  0  0  3  0  0  0  0  0  0
  192.5710  177.0760  141.0530 O   0  0  0  0  0  0  0  0  0  0  0  0
  191.5630  177.5870  140.5910 C   0  0  0  0  0  3  0  0  0  0  0  0
  189.1730  176.9220  141.0770 C   0  0  1  0  0  3  0  0  0  0  0  0
  188.1340  176.1920  143.2760 C   0  0  0  0  0  1  0  0  0  0  0  0
  189.4220  176.4830  142.5310 C   0  0  1  0  0  3  0  0  0  0  0  0
  190.3060  175.4060  142.6130 O   0  0  0  0  0  1  0  0  0  0  0  0
  188.6430  178.3770  141.0440 C   0  0  2  0  0  3  0  0  0  0  0  0
  188.6520  178.9730  142.3110 O   0  0  0  0  0  1  0  0  0  0  0  0
  187.2380  178.4720  140.4550 C   0  0  0  0  0  2  0  0  0  0  0  0
  186.2070  178.8510  141.5090 C   0  0  0  0  0  2  0  0  0  0  0  0
  184.8460  178.8400  140.9090 C   0  0  0  0  0  0  0  0  0  0  0  0
  183.9430  178.1210  141.4110 O   0  0  0  0  0  0  0  0  0  0  0  0
  184.5530  179.6680  139.7910 N   0  0  0  0  0  1  0  0  0  0  0  0
  187.5930  175.9240  135.9480 C   0  0  0  0  0  2  0  0  0  0  0  0
  184.7830  177.0640  136.0800 C   0  0  0  0  0  1  0  0  0  0  0  0
  184.5910  172.3210  136.8080 C   0  0  0  0  0  1  0  0  0  0  0  0
  185.1760  175.7060  136.5550 C   0  0  0  0  0  0  0  0  0  0  0  0
  186.3900  175.1950  136.4660 C   0  0  0  0  0  0  0  0  0  0  0  0
  186.4370  173.8970  137.0290 N   0  0  0  0  0  0  0  0  0  0  0  0
  187.6440  173.1130  137.2370 C   0  0  0  0  0  1  0  0  0  0  0  0
  185.1250  173.5380  137.5430 C   0  0  1  0  0  3  0  0  0  0  0  0
  184.2400  174.7540  137.2320 C   0  0  1  0  0  3  0  0  0  0  0  0
  183.7860  175.3140  138.4290 O   0  0  0  0  0  0  0  0  0  0  0  0
  182.3960  175.3500  138.3050 C   0  0  0  0  0  2  0  0  0  0  0  0
  180.7120  178.8830  140.2980 O   0  0  0  0  0  0  0  0  0  0  0  0
  181.8760  176.6180  138.8820 C   0  0  0  0  0  0  0  0  0  0  0  0
  182.1950  177.7170  138.3540 O   0  0  0  0  0  0  0  0  0  0  0  0
  180.5040  177.7140  140.7190 C   0  0  0  0  0  3  0  0  0  0  0  0
  181.0550  176.5720  140.0540 N   0  0  0  0  0  2  0  0  0  0  0  0
  1  3  2  0  0  0  0
  3  2  2  0  0  0  0
  5  4  1  6  0  0  0
  5  8  1  0  0  0  0
  5  7  1  0  0  0  0
  5  6  1  0  0  0  0
  6  9  1  1  0  0  0
  8  2  1  6  0  0  0
  8  6  1  0  0  0  0
  9 11  1  1  0  0  0
 11 10  2  0  0  0  0
 12  9  1  6  0  0  0
 12 14  1  0  0  0  0
 14 15  1  0  0  0  0
 14 13  1  6  0  0  0
 16 12  1  0  0  0  0
 16 17  1  1  0  0  0
 18 16  1  0  0  0  0
 18 19  1  0  0  0  0
 20 21  2  0  0  0  0
 20 19  1  0  0  0  0
 22 20  1  0  0  0  0
 23 27  1  0  0  0  0
 23  2  1  0  0  0  0
 24 26  1  0  0  0  0
 26 31  1  0  0  0  0
 27 26  2  0  0  0  0
 27 28  1  0  0  0  0
 28 29  1  0  0  0  0
 28 30  1  0  0  0  0
 30 25  1  6  0  0  0
 31 30  1  0  0  0  0
 31 32  1  1  0  0  0
 33 32  1  0  0  0  0
 33 35  1  0  0  0  0
 34 37  2  0  0  0  0
 35 38  1  0  0  0  0
 36 35  2  0  0  0  0
 38 37  1  0  0  0  0
M  END
>  <MODEL>
4

>  <REMARK>
 VINA RESULT:      -5.8      3.061      7.475
  Name = 
  14 active torsions:
  status: ('A' for Active; 'I' for Inactive)
    1  A    between atoms: C_2  and  C_16
    2  A    between atoms: C_2  and  O_33
    3  A    between atoms: C_7  and  C_10
    4  A    between atoms: C_8  and  C_28
    5  A    between atoms: C_8  and  C_35
    6  A    between atoms: C_8  and  C_37
    7  A    between atoms: C_10  and  C_13
    8  A    between atoms: C_12  and  C_31
    9  A    between atoms: C_12  and  C_34
   10  A    between atoms: C_13  and  C_24
   11  A    between atoms: C_14  and  C_31
   12  A    between atoms: C_18  and  C_35
   13  A    between atoms: C_24  and  C_35
   14  A    between atoms: O_33  and  C_36
                            x       y       z     vdW  Elec       q    Type
                         _______ _______ _______ _____ _____    ______ ____

>  <TORSDO>
F 14

$$$$
=
 OpenBabel11042410013D

 38 39  0  0  1  0  0  0  0  0999 V2000
  189.6820  175.2740  138.2700 O   0  0  0  0  0  0  0  0  0  0  0  0
  188.5680  177.5530  138.5030 C   0  0  0  0  0  0  0  0  0  0  0  0
  189.1400  176.3810  138.3840 C   0  0  0  0  0  0  0  0  0  0  0  0
  188.8440  177.5500  135.6020 C   0  0  0  0  0  1  0  0  0  0  0  0
  187.5180  177.9540  136.2310 C   0  0  2  0  0  0  0  0  0  0  0  0
  186.7290  176.8120  136.8710 C   0  0  1  0  0  3  0  0  0  0  0  0
  186.7750  178.9360  135.5710 O   0  0  0  0  0  1  0  0  0  0  0  0
  187.3190  177.9380  137.7400 C   0  0  1  0  0  3  0  0  0  0  0  0
  185.2070  176.9700  136.7160 C   0  0  1  0  0  3  0  0  0  0  0  0
  184.0970  177.1620  134.6220 O   0  0  0  0  0  0  0  0  0  0  0  0
  184.8140  176.4870  135.3460 C   0  0  0  0  0  3  0  0  0  0  0  0
  184.3860  176.2520  137.8260 C   0  0  1  0  0  3  0  0  0  0  0  0
  183.3690  177.3420  139.8810 C   0  0  0  0  0  1  0  0  0  0  0  0
  183.2270  177.0920  138.3930 C   0  0  1  0  0  3  0  0  0  0  0  0
  183.0500  178.2870  137.6950 O   0  0  0  0  0  1  0  0  0  0  0  0
  183.8590  174.8780  137.3420 C   0  0  2  0  0  3  0  0  0  0  0  0
  182.6100  174.5660  137.8900 O   0  0  0  0  0  1  0  0  0  0  0  0
  184.8350  173.7420  137.6420 C   0  0  0  0  0  2  0  0  0  0  0  0
  184.2560  172.3850  137.2690 C   0  0  0  0  0  2  0  0  0  0  0  0
  184.7240  171.9930  135.9130 C   0  0  0  0  0  0  0  0  0  0  0  0
  185.8790  172.3110  135.5290 O   0  0  0  0  0  0  0  0  0  0  0  0
  183.8800  171.2270  135.0620 N   0  0  0  0  0  1  0  0  0  0  0  0
  189.1270  178.5220  139.4920 C   0  0  0  0  0  2  0  0  0  0  0  0
  186.8510  178.2790  141.4850 C   0  0  0  0  0  1  0  0  0  0  0  0
  190.4800  175.4670  142.8940 C   0  0  0  0  0  1  0  0  0  0  0  0
  188.2480  177.8160  141.7250 C   0  0  0  0  0  0  0  0  0  0  0  0
  189.2310  177.8880  140.8470 C   0  0  0  0  0  0  0  0  0  0  0  0
  190.4370  177.3850  141.3910 N   0  0  0  0  0  0  0  0  0  0  0  0
  191.7430  177.4580  140.7550 C   0  0  0  0  0  1  0  0  0  0  0  0
  190.2140  176.9560  142.7620 C   0  0  1  0  0  3  0  0  0  0  0  0
  188.7260  177.2360  143.0200 C   0  0  1  0  0  3  0  0  0  0  0  0
  188.6030  178.1880  144.0340 O   0  0  0  0  0  0  0  0  0  0  0  0
  188.4670  177.4470  145.2100 C   0  0  0  0  0  2  0  0  0  0  0  0
  184.7880  178.8600  147.1500 O   0  0  0  0  0  0  0  0  0  0  0  0
  187.2910  177.9390  145.9770 C   0  0  0  0  0  0  0  0  0  0  0  0
  187.3950  178.1260  147.2190 O   0  0  0  0  0  0  0  0  0  0  0  0
  184.8400  178.6060  145.9170 C   0  0  0  0  0  3  0  0  0  0  0  0
  186.0490  178.1520  145.2980 N   0  0  0  0  0  2  0  0  0  0  0  0
  1  3  2  0  0  0  0
  2 23  1  0  0  0  0
  3  2  2  0  0  0  0
  5  4  1  6  0  0  0
  5  6  1  0  0  0  0
  5  8  1  0  0  0  0
  6  9  1  6  0  0  0
  6  8  1  0  0  0  0
  7  5  1  0  0  0  0
  8  2  1  1  0  0  0
  9 11  1  6  0  0  0
 10 11  2  0  0  0  0
 12  9  1  6  0  0  0
 12 14  1  0  0  0  0
 14 13  1  1  0  0  0
 15 14  1  0  0  0  0
 16 18  1  0  0  0  0
 16 12  1  0  0  0  0
 16 17  1  1  0  0  0
 19 18  1  0  0  0  0
 20 19  1  0  0  0  0
 21 20  2  0  0  0  0
 22 20  1  0  0  0  0
 23 27  1  0  0  0  0
 24 26  1  0  0  0  0
 26 31  1  0  0  0  0
 27 28  1  0  0  0  0
 27 26  2  0  0  0  0
 28 30  1  0  0  0  0
 29 28  1  0  0  0  0
 30 25  1  6  0  0  0
 30 31  1  0  0  0  0
 31 32  1  1  0  0  0
 32 33  1  0  0  0  0
 33 35  1  0  0  0  0
 35 36  2  0  0  0  0
 37 34  2  0  0  0  0
 38 37  1  0  0  0  0
 38 35  1  0  0  0  0
M  END
>  <MODEL>
5

>  <REMARK>
 VINA RESULT:      -5.5      2.036      2.824
  Name = 
  14 active torsions:
  status: ('A' for Active; 'I' for Inactive)
    1  A    between atoms: C_2  and  C_16
    2  A    between atoms: C_2  and  O_33
    3  A    between atoms: C_7  and  C_10
    4  A    between atoms: C_8  and  C_28
    5  A    between atoms: C_8  and  C_35
    6  A    between atoms: C_8  and  C_37
    7  A    between atoms: C_10  and  C_13
    8  A    between atoms: C_12  and  C_31
    9  A    between atoms: C_12  and  C_34
   10  A    between atoms: C_13  and  C_24
   11  A    between atoms: C_14  and  C_31
   12  A    between atoms: C_18  and  C_35
   13  A    between atoms: C_24  and  C_35
   14  A    between atoms: O_33  and  C_36
                            x       y       z     vdW  Elec       q    Type
                         _______ _______ _______ _____ _____    ______ ____

>  <TORSDO>
F 14

$$$$
=
 OpenBabel11042410013D

 38 39  0  0  1  0  0  0  0  0999 V2000
  187.7000  179.0160  148.8030 O   0  0  0  0  0  0  0  0  0  0  0  0
  188.4190  177.6200  146.7960 C   0  0  0  0  0  0  0  0  0  0  0  0
  188.0490  178.3370  147.8280 C   0  0  0  0  0  0  0  0  0  0  0  0
  190.1500  175.6240  148.0240 C   0  0  0  0  0  1  0  0  0  0  0  0
  190.7170  176.5640  146.9700 C   0  0  2  0  0  0  0  0  0  0  0  0
  190.2330  176.3050  145.5430 C   0  0  1  0  0  3  0  0  0  0  0  0
  192.0500  176.9560  147.1190 O   0  0  0  0  0  1  0  0  0  0  0  0
  189.8410  177.5990  146.2790 C   0  0  1  0  0  3  0  0  0  0  0  0
  191.3140  176.5750  144.4830 C   0  0  1  0  0  3  0  0  0  0  0  0
  192.4320  174.4780  144.4100 O   0  0  0  0  0  0  0  0  0  0  0  0
  191.6920  175.2670  143.8410 C   0  0  0  0  0  3  0  0  0  0  0  0
  190.8960  177.6280  143.4150 C   0  0  1  0  0  3  0  0  0  0  0  0
  190.5600  180.1300  143.6840 C   0  0  0  0  0  1  0  0  0  0  0  0
  191.5680  179.0020  143.5900 C   0  0  1  0  0  3  0  0  0  0  0  0
  192.4520  179.0230  144.6700 O   0  0  0  0  0  1  0  0  0  0  0  0
  191.1290  177.1010  141.9770 C   0  0  2  0  0  3  0  0  0  0  0  0
  192.3660  177.5030  141.4600 O   0  0  0  0  0  1  0  0  0  0  0  0
  190.0220  177.5250  141.0150 C   0  0  0  0  0  2  0  0  0  0  0  0
  190.4710  177.4400  139.5630 C   0  0  0  0  0  2  0  0  0  0  0  0
  189.3070  177.6560  138.6620 C   0  0  0  0  0  0  0  0  0  0  0  0
  188.7380  176.6710  138.1230 O   0  0  0  0  0  0  0  0  0  0  0  0
  188.8140  178.9710  138.4380 N   0  0  0  0  0  1  0  0  0  0  0  0
  187.4110  176.7270  146.1510 C   0  0  0  0  0  2  0  0  0  0  0  0
  185.0690  178.6310  146.4720 C   0  0  0  0  0  1  0  0  0  0  0  0
  186.8370  179.0510  142.0270 C   0  0  0  0  0  1  0  0  0  0  0  0
  185.6790  178.2410  145.1680 C   0  0  0  0  0  0  0  0  0  0  0  0
  186.7200  177.4410  145.0290 C   0  0  0  0  0  0  0  0  0  0  0  0
  187.0370  177.2540  143.6610 N   0  0  0  0  0  0  0  0  0  0  0  0
  188.0220  176.3160  143.1470 C   0  0  0  0  0  1  0  0  0  0  0  0
  186.1000  177.9980  142.8360 C   0  0  1  0  0  3  0  0  0  0  0  0
  185.1600  178.6850  143.8370 C   0  0  1  0  0  3  0  0  0  0  0  0
  183.8600  178.2050  143.6560 O   0  0  0  0  0  0  0  0  0  0  0  0
  183.2720  179.0890  142.7490 C   0  0  0  0  0  2  0  0  0  0  0  0
  178.9310  178.5120  143.0820 O   0  0  0  0  0  0  0  0  0  0  0  0
  181.8000  178.8800  142.7310 C   0  0  0  0  0  0  0  0  0  0  0  0
  181.1970  178.8060  141.6270 O   0  0  0  0  0  0  0  0  0  0  0  0
  179.6710  178.6260  144.0950 C   0  0  0  0  0  3  0  0  0  0  0  0
  181.0850  178.8090  143.9690 N   0  0  0  0  0  2  0  0  0  0  0  0
  2  3  2  0  0  0  0
  3  1  2  0  0  0  0
  5  7  1  0  0  0  0
  5  4  1  1  0  0  0
  6  9  1  6  0  0  0
  6  8  1  0  0  0  0
  6  5  1  0  0  0  0
  8  2  1  1  0  0  0
  8  5  1  0  0  0  0
  9 11  1  6  0  0  0
 11 10  2  0  0  0  0
 12 16  1  6  0  0  0
 12 14  1  0  0  0  0
 12  9  1  0  0  0  0
 14 13  1  1  0  0  0
 14 15  1  0  0  0  0
 16 17  1  6  0  0  0
 18 16  1  0  0  0  0
 19 18  1  0  0  0  0
 20 19  1  0  0  0  0
 21 20  2  0  0  0  0
 22 20  1  0  0  0  0
 23  2  1  0  0  0  0
 26 24  1  0  0  0  0
 27 26  2  0  0  0  0
 27 23  1  0  0  0  0
 28 27  1  0  0  0  0
 29 28  1  0  0  0  0
 30 25  1  1  0  0  0
 30 28  1  0  0  0  0
 30 31  1  0  0  0  0
 31 32  1  6  0  0  0
 31 26  1  0  0  0  0
 33 32  1  0  0  0  0
 34 37  2  0  0  0  0
 35 33  1  0  0  0  0
 35 38  1  0  0  0  0
 36 35  2  0  0  0  0
 38 37  1  0  0  0  0
M  END
>  <MODEL>
6

>  <REMARK>
 VINA RESULT:      -5.2      3.495      7.969
  Name = 
  14 active torsions:
  status: ('A' for Active; 'I' for Inactive)
    1  A    between atoms: C_2  and  C_16
    2  A    between atoms: C_2  and  O_33
    3  A    between atoms: C_7  and  C_10
    4  A    between atoms: C_8  and  C_28
    5  A    between atoms: C_8  and  C_35
    6  A    between atoms: C_8  and  C_37
    7  A    between atoms: C_10  and  C_13
    8  A    between atoms: C_12  and  C_31
    9  A    between atoms: C_12  and  C_34
   10  A    between atoms: C_13  and  C_24
   11  A    between atoms: C_14  and  C_31
   12  A    between atoms: C_18  and  C_35
   13  A    between atoms: C_24  and  C_35
   14  A    between atoms: O_33  and  C_36
                            x       y       z     vdW  Elec       q    Type
                         _______ _______ _______ _____ _____    ______ ____

>  <TORSDO>
F 14

$$$$
=
 OpenBabel11042410013D

 38 39  0  0  1  0  0  0  0  0999 V2000
  185.7670  178.5460  139.4640 O   0  0  0  0  0  0  0  0  0  0  0  0
  184.9980  178.7520  141.8830 C   0  0  0  0  0  0  0  0  0  0  0  0
  185.3940  178.6450  140.6390 C   0  0  0  0  0  0  0  0  0  0  0  0
  183.8440  180.2000  144.1330 C   0  0  0  0  0  1  0  0  0  0  0  0
  183.1140  178.9920  143.5630 C   0  0  2  0  0  0  0  0  0  0  0  0
  182.4890  179.2040  142.1850 C   0  0  1  0  0  3  0  0  0  0  0  0
  182.3970  178.2000  144.4630 O   0  0  0  0  0  1  0  0  0  0  0  0
  183.6640  178.2270  142.3680 C   0  0  1  0  0  3  0  0  0  0  0  0
  181.1610  178.4470  142.0040 C   0  0  1  0  0  3  0  0  0  0  0  0
  180.2340  180.4950  142.7770 O   0  0  0  0  0  0  0  0  0  0  0  0
  180.0420  179.3200  142.5050 C   0  0  0  0  0  3  0  0  0  0  0  0
  180.9020  177.9780  140.5430 C   0  0  1  0  0  3  0  0  0  0  0  0
  180.5990  175.6120  139.6720 C   0  0  0  0  0  1  0  0  0  0  0  0
  179.9650  176.7610  140.4300 C   0  0  1  0  0  3  0  0  0  0  0  0
  179.4900  176.3450  141.6740 O   0  0  0  0  0  1  0  0  0  0  0  0
  180.3760  179.1370  139.6600 C   0  0  2  0  0  3  0  0  0  0  0  0
  178.9990  179.0410  139.4240 O   0  0  0  0  0  1  0  0  0  0  0  0
  181.1080  179.2300  138.3230 C   0  0  0  0  0  2  0  0  0  0  0  0
  182.5470  178.7450  138.4320 C   0  0  0  0  0  2  0  0  0  0  0  0
  182.8130  177.7170  137.3900 C   0  0  0  0  0  0  0  0  0  0  0  0
  183.4360  176.6650  137.6890 O   0  0  0  0  0  0  0  0  0  0  0  0
  182.3330  177.9050  136.0650 N   0  0  0  0  0  1  0  0  0  0  0  0
  185.9350  179.3490  142.8810 C   0  0  0  0  0  2  0  0  0  0  0  0
  185.9220  177.6170  145.3740 C   0  0  0  0  0  1  0  0  0  0  0  0
  189.2950  176.0060  142.3600 C   0  0  0  0  0  1  0  0  0  0  0  0
  187.0120  177.6390  144.3560 C   0  0  0  0  0  0  0  0  0  0  0  0
  187.0030  178.3640  143.2520 C   0  0  0  0  0  0  0  0  0  0  0  0
  188.1930  178.1750  142.5100 N   0  0  0  0  0  0  0  0  0  0  0  0
  188.5800  178.9330  141.3310 C   0  0  0  0  0  1  0  0  0  0  0  0
  189.0630  177.2430  143.2100 C   0  0  1  0  0  3  0  0  0  0  0  0
  188.2820  176.8560  144.4740 C   0  0  1  0  0  3  0  0  0  0  0  0
  188.9890  177.2790  145.6020 O   0  0  0  0  0  0  0  0  0  0  0  0
  190.2500  177.6390  145.1230 C   0  0  0  0  0  2  0  0  0  0  0  0
  193.1650  175.2200  147.3480 O   0  0  0  0  0  0  0  0  0  0  0  0
  191.2890  176.7860  145.7610 C   0  0  0  0  0  0  0  0  0  0  0  0
  192.0420  176.0810  145.0370 O   0  0  0  0  0  0  0  0  0  0  0  0
  192.3270  175.9620  147.9280 C   0  0  0  0  0  3  0  0  0  0  0  0
  191.3870  176.7480  147.1880 N   0  0  0  0  0  2  0  0  0  0  0  0
  1  3  2  0  0  0  0
  2 23  1  0  0  0  0
  3  2  2  0  0  0  0
  5  4  1  1  0  0  0
  5  7  1  0  0  0  0
  6  9  1  1  0  0  0
  6  8  1  0  0  0  0
  6  5  1  0  0  0  0
  8  2  1  6  0  0  0
  8  5  1  0  0  0  0
  9 11  1  6  0  0  0
 11 10  2  0  0  0  0
 12 16  1  6  0  0  0
 12  9  1  0  0  0  0
 14 13  1  1  0  0  0
 14 12  1  0  0  0  0
 14 15  1  0  0  0  0
 16 17  1  6  0  0  0
 18 19  1  0  0  0  0
 18 16  1  0  0  0  0
 20 21  2  0  0  0  0
 20 19  1  0  0  0  0
 22 20  1  0  0  0  0
 23 27  1  0  0  0  0
 26 31  1  0  0  0  0
 26 24  1  0  0  0  0
 27 26  2  0  0  0  0
 28 30  1  0  0  0  0
 28 27  1  0  0  0  0
 29 28  1  0  0  0  0
 30 25  1  6  0  0  0
 30 31  1  0  0  0  0
 31 32  1  1  0  0  0
 33 32  1  0  0  0  0
 33 35  1  0  0  0  0
 34 37  2  0  0  0  0
 35 38  1  0  0  0  0
 36 35  2  0  0  0  0
 38 37  1  0  0  0  0
M  END
>  <MODEL>
7

>  <REMARK>
 VINA RESULT:      -5.2      4.472      6.837
  Name = 
  14 active torsions:
  status: ('A' for Active; 'I' for Inactive)
    1  A    between atoms: C_2  and  C_16
    2  A    between atoms: C_2  and  O_33
    3  A    between atoms: C_7  and  C_10
    4  A    between atoms: C_8  and  C_28
    5  A    between atoms: C_8  and  C_35
    6  A    between atoms: C_8  and  C_37
    7  A    between atoms: C_10  and  C_13
    8  A    between atoms: C_12  and  C_31
    9  A    between atoms: C_12  and  C_34
   10  A    between atoms: C_13  and  C_24
   11  A    between atoms: C_14  and  C_31
   12  A    between atoms: C_18  and  C_35
   13  A    between atoms: C_24  and  C_35
   14  A    between atoms: O_33  and  C_36
                            x       y       z     vdW  Elec       q    Type
                         _______ _______ _______ _____ _____    ______ ____

>  <TORSDO>
F 14

$$$$
=
 OpenBabel11042410013D

 38 39  0  0  1  0  0  0  0  0999 V2000
  181.9040  175.8930  140.1860 O   0  0  0  0  0  0  0  0  0  0  0  0
  183.7160  177.2800  139.0550 C   0  0  0  0  0  0  0  0  0  0  0  0
  182.7840  176.5670  139.6360 C   0  0  0  0  0  0  0  0  0  0  0  0
  182.6480  177.8720  136.4090 C   0  0  0  0  0  1  0  0  0  0  0  0
  183.9330  177.0660  136.5380 C   0  0  2  0  0  0  0  0  0  0  0  0
  185.1520  177.8600  137.0070 C   0  0  1  0  0  3  0  0  0  0  0  0
  184.1610  176.0750  135.5800 O   0  0  0  0  0  1  0  0  0  0  0  0
  184.5440  176.7620  137.8990 C   0  0  1  0  0  3  0  0  0  0  0  0
  186.4650  177.3860  136.3600 C   0  0  1  0  0  3  0  0  0  0  0  0
  187.4030  179.5140  136.8480 O   0  0  0  0  0  0  0  0  0  0  0  0
  187.3090  178.5920  136.0520 C   0  0  0  0  0  3  0  0  0  0  0  0
  187.2490  176.3510  137.2190 C   0  0  1  0  0  3  0  0  0  0  0  0
  186.4000  173.9580  137.2170 C   0  0  0  0  0  1  0  0  0  0  0  0
  187.3510  174.9530  136.5830 C   0  0  1  0  0  3  0  0  0  0  0  0
  187.1900  174.9920  135.1970 O   0  0  0  0  0  1  0  0  0  0  0  0
  188.6610  176.8730  137.5860 C   0  0  2  0  0  3  0  0  0  0  0  0
  189.6710  176.1980  136.8910 O   0  0  0  0  0  1  0  0  0  0  0  0
  188.9410  176.7900  139.0840 C   0  0  0  0  0  2  0  0  0  0  0  0
  190.2190  177.5260  139.4620 C   0  0  0  0  0  2  0  0  0  0  0  0
  190.7610  176.9750  140.7330 C   0  0  0  0  0  0  0  0  0  0  0  0
  190.1750  176.0190  141.3050 O   0  0  0  0  0  0  0  0  0  0  0  0
  191.9600  177.5040  141.2850 N   0  0  0  0  0  1  0  0  0  0  0  0
  183.9180  178.6900  139.5020 C   0  0  0  0  0  2  0  0  0  0  0  0
  186.8030  178.6260  140.4440 C   0  0  0  0  0  1  0  0  0  0  0  0
  183.9790  179.8830  144.1180 C   0  0  0  0  0  1  0  0  0  0  0  0
  185.6130  178.6640  141.3420 C   0  0  0  0  0  0  0  0  0  0  0  0
  184.3580  178.7290  140.9350 C   0  0  0  0  0  0  0  0  0  0  0  0
  183.4670  178.7280  142.0340 N   0  0  0  0  0  0  0  0  0  0  0  0
  182.0180  178.6330  141.9430 C   0  0  0  0  0  1  0  0  0  0  0  0
  184.2200  178.6430  143.2750 C   0  0  1  0  0  3  0  0  0  0  0  0
  185.6910  178.6010  142.8350 C   0  0  1  0  0  3  0  0  0  0  0  0
  186.2550  177.3830  143.2240 O   0  0  0  0  0  0  0  0  0  0  0  0
  186.4120  177.4840  144.6080 C   0  0  0  0  0  2  0  0  0  0  0  0
  190.5330  176.9350  146.0270 O   0  0  0  0  0  0  0  0  0  0  0  0
  187.8410  177.2720  144.9640 C   0  0  0  0  0  0  0  0  0  0  0  0
  188.6440  176.8590  144.0860 O   0  0  0  0  0  0  0  0  0  0  0  0
  189.6070  177.3220  146.7890 C   0  0  0  0  0  3  0  0  0  0  0  0
  188.2700  177.5020  146.3100 N   0  0  0  0  0  2  0  0  0  0  0  0
  2 23  1  0  0  0  0
  2  3  2  0  0  0  0
  3  1  2  0  0  0  0
  5  4  1  6  0  0  0
  5  6  1  0  0  0  0
  5  8  1  0  0  0  0
  6  9  1  6  0  0  0
  6  8  1  0  0  0  0
  7  5  1  0  0  0  0
  8  2  1  1  0  0  0
  9 11  1  1  0  0  0
 11 10  2  0  0  0  0
 12  9  1  6  0  0  0
 12 16  1  0  0  0  0
 14 13  1  1  0  0  0
 14 12  1  0  0  0  0
 15 14  1  0  0  0  0
 16 17  1  6  0  0  0
 16 18  1  0  0  0  0
 18 19  1  0  0  0  0
 19 20  1  0  0  0  0
 20 22  1  0  0  0  0
 20 21  2  0  0  0  0
 23 27  1  0  0  0  0
 24 26  1  0  0  0  0
 26 31  1  0  0  0  0
 27 26  2  0  0  0  0
 27 28  1  0  0  0  0
 28 30  1  0  0  0  0
 29 28  1  0  0  0  0
 30 25  1  1  0  0  0
 31 32  1  6  0  0  0
 31 30  1  0  0  0  0
 32 33  1  0  0  0  0
 33 35  1  0  0  0  0
 34 37  2  0  0  0  0
 35 38  1  0  0  0  0
 36 35  2  0  0  0  0
 38 37  1  0  0  0  0
M  END
>  <MODEL>
8

>  <REMARK>
 VINA RESULT:      -5.2      2.592      5.177
  Name = 
  14 active torsions:
  status: ('A' for Active; 'I' for Inactive)
    1  A    between atoms: C_2  and  C_16
    2  A    between atoms: C_2  and  O_33
    3  A    between atoms: C_7  and  C_10
    4  A    between atoms: C_8  and  C_28
    5  A    between atoms: C_8  and  C_35
    6  A    between atoms: C_8  and  C_37
    7  A    between atoms: C_10  and  C_13
    8  A    between atoms: C_12  and  C_31
    9  A    between atoms: C_12  and  C_34
   10  A    between atoms: C_13  and  C_24
   11  A    between atoms: C_14  and  C_31
   12  A    between atoms: C_18  and  C_35
   13  A    between atoms: C_24  and  C_35
   14  A    between atoms: O_33  and  C_36
                            x       y       z     vdW  Elec       q    Type
                         _______ _______ _______ _____ _____    ______ ____

>  <TORSDO>
F 14

$$$$
=
 OpenBabel11042410013D

 38 39  0  0  1  0  0  0  0  0999 V2000
  185.8790  177.1530  137.6340 O   0  0  0  0  0  0  0  0  0  0  0  0
  184.4080  178.3310  139.3480 C   0  0  0  0  0  0  0  0  0  0  0  0
  185.1640  177.7250  138.4670 C   0  0  0  0  0  0  0  0  0  0  0  0
  182.5470  180.4860  138.7290 C   0  0  0  0  0  1  0  0  0  0  0  0
  182.0130  179.1560  139.2420 C   0  0  2  0  0  0  0  0  0  0  0  0
  182.1100  177.9940  138.2530 C   0  0  1  0  0  3  0  0  0  0  0  0
  180.8750  179.1970  140.0510 O   0  0  0  0  0  1  0  0  0  0  0  0
  182.9460  177.9920  139.5450 C   0  0  1  0  0  3  0  0  0  0  0  0
  180.9270  177.0160  138.3550 C   0  0  1  0  0  3  0  0  0  0  0  0
  178.9570  177.9610  137.4180 O   0  0  0  0  0  0  0  0  0  0  0  0
  179.9700  177.3040  137.2300 C   0  0  0  0  0  3  0  0  0  0  0  0
  181.3520  175.5190  138.3670 C   0  0  1  0  0  3  0  0  0  0  0  0
  180.0540  174.8640  140.4490 C   0  0  0  0  0  1  0  0  0  0  0  0
  180.3050  174.5730  138.9830 C   0  0  1  0  0  3  0  0  0  0  0  0
  179.1120  174.5630  138.2590 O   0  0  0  0  0  1  0  0  0  0  0  0
  181.7420  175.0290  136.9500 C   0  0  2  0  0  3  0  0  0  0  0  0
  181.1440  173.8050  136.6290 O   0  0  0  0  0  1  0  0  0  0  0  0
  183.2530  174.9110  136.7700 C   0  0  0  0  0  2  0  0  0  0  0  0
  183.9180  174.2670  137.9790 C   0  0  0  0  0  2  0  0  0  0  0  0
  184.7270  173.0960  137.5460 C   0  0  0  0  0  0  0  0  0  0  0  0
  185.9830  173.1640  137.5490 O   0  0  0  0  0  0  0  0  0  0  0  0
  184.0820  171.8880  137.1610 N   0  0  0  0  0  1  0  0  0  0  0  0
  185.0330  179.3450  140.2470 C   0  0  0  0  0  2  0  0  0  0  0  0
  183.5540  178.6700  142.8100 C   0  0  0  0  0  1  0  0  0  0  0  0
  187.7850  176.3990  142.7940 C   0  0  0  0  0  1  0  0  0  0  0  0
  185.0050  178.4200  142.5720 C   0  0  0  0  0  0  0  0  0  0  0  0
  185.6420  178.6800  141.4450 C   0  0  0  0  0  0  0  0  0  0  0  0
  187.0140  178.3480  141.5500 N   0  0  0  0  0  0  0  0  0  0  0  0
  188.0320  178.6490  140.5550 C   0  0  0  0  0  1  0  0  0  0  0  0
  187.2930  177.8330  142.8810 C   0  0  1  0  0  3  0  0  0  0  0  0
  185.9380  177.8680  143.6030 C   0  0  1  0  0  3  0  0  0  0  0  0
  186.0130  178.7470  144.6860 O   0  0  0  0  0  0  0  0  0  0  0  0
  185.9250  177.9330  145.8170 C   0  0  0  0  0  2  0  0  0  0  0  0
  189.4920  178.0530  148.3780 O   0  0  0  0  0  0  0  0  0  0  0  0
  187.2030  177.9920  146.5750 C   0  0  0  0  0  0  0  0  0  0  0  0
  188.2940  178.0450  145.9470 O   0  0  0  0  0  0  0  0  0  0  0  0
  188.3270  177.9770  148.8540 C   0  0  0  0  0  3  0  0  0  0  0  0
  187.1750  177.9440  148.0050 N   0  0  0  0  0  2  0  0  0  0  0  0
  1  3  2  0  0  0  0
  2 23  1  0  0  0  0
  3  2  2  0  0  0  0
  5  4  1  6  0  0  0
  5  8  1  0  0  0  0
  5  7  1  0  0  0  0
  6  9  1  1  0  0  0
  6  5  1  0  0  0  0
  6  8  1  0  0  0  0
  8  2  1  6  0  0  0
  9 11  1  6  0  0  0
  9 12  1  0  0  0  0
 11 10  2  0  0  0  0
 12 16  1  6  0  0  0
 12 14  1  0  0  0  0
 14 13  1  1  0  0  0
 15 14  1  0  0  0  0
 16 17  1  1  0  0  0
 18 16  1  0  0  0  0
 18 19  1  0  0  0  0
 20 21  2  0  0  0  0
 20 19  1  0  0  0  0
 22 20  1  0  0  0  0
 23 27  1  0  0  0  0
 26 24  1  0  0  0  0
 26 31  1  0  0  0  0
 27 28  1  0  0  0  0
 27 26  2  0  0  0  0
 28 30  1  0  0  0  0
 29 28  1  0  0  0  0
 30 25  1  6  0  0  0
 30 31  1  0  0  0  0
 31 32  1  1  0  0  0
 32 33  1  0  0  0  0
 33 35  1  0  0  0  0
 34 37  2  0  0  0  0
 35 38  1  0  0  0  0
 36 35  2  0  0  0  0
 38 37  1  0  0  0  0
M  END
>  <MODEL>
9

>  <REMARK>
 VINA RESULT:      -5.1      3.911      5.134
  Name = 
  14 active torsions:
  status: ('A' for Active; 'I' for Inactive)
    1  A    between atoms: C_2  and  C_16
    2  A    between atoms: C_2  and  O_33
    3  A    between atoms: C_7  and  C_10
    4  A    between atoms: C_8  and  C_28
    5  A    between atoms: C_8  and  C_35
    6  A    between atoms: C_8  and  C_37
    7  A    between atoms: C_10  and  C_13
    8  A    between atoms: C_12  and  C_31
    9  A    between atoms: C_12  and  C_34
   10  A    between atoms: C_13  and  C_24
   11  A    between atoms: C_14  and  C_31
   12  A    between atoms: C_18  and  C_35
   13  A    between atoms: C_24  and  C_35
   14  A    between atoms: O_33  and  C_36
                            x       y       z     vdW  Elec       q    Type
                         _______ _______ _______ _____ _____    ______ ____

>  <TORSDO>
F 14

$$$$
