=
 OpenBabel11042411203D

 25 28  0  0  1  0  0  0  0  0999 V2000
  183.6330  178.1010  142.5000 C   0  0  2  0  0  3  0  0  0  0  0  0
  186.5940  178.6550  142.3830 C   0  0  0  0  0  2  0  0  0  0  0  0
  185.6190  179.1770  141.3210 C   0  0  0  0  0  2  0  0  0  0  0  0
  184.4390  178.4710  143.7630 C   0  0  1  0  0  3  0  0  0  0  0  0
  185.8990  178.0220  143.6000 C   0  0  2  0  0  3  0  0  0  0  0  0
  184.3520  179.9590  144.1070 C   0  0  0  0  0  1  0  0  0  0  0  0
  184.4070  178.2590  141.1790 C   0  0  0  0  0  2  0  0  0  0  0  0
  186.6540  178.2740  144.7800 O   0  0  0  0  0  0  0  0  0  0  0  0
  191.7210  176.3050  145.7150 N   0  0  0  0  0  0  0  0  0  0  0  0
  187.7040  177.8690  147.5950 C   0  0  0  0  0  1  0  0  0  0  0  0
  190.5170  176.7710  145.3500 C   0  0  0  0  0  0  0  0  0  0  0  0
  190.0240  176.9100  144.0590 C   0  0  0  0  0  3  0  0  0  0  0  0
  192.7280  175.9710  147.9070 N   0  0  0  0  0  1  0  0  0  0  0  0
  189.7800  177.0970  146.4470 C   0  0  0  0  0  0  0  0  0  0  0  0
  188.7220  177.4150  143.9150 C   0  0  0  0  0  3  0  0  0  0  0  0
  190.4830  176.8490  147.5640 N   0  0  0  0  0  2  0  0  0  0  0  0
  187.9400  177.7730  145.0370 C   0  0  0  0  0  0  0  0  0  0  0  0
  191.6530  176.3730  147.0680 C   0  0  0  0  0  0  0  0  0  0  0  0
  188.4790  177.5980  146.3470 C   0  0  0  0  0  0  0  0  0  0  0  0
  182.3590  178.8050  142.4440 N   0  0  0  0  0  2  0  0  0  0  0  0
  180.5590  177.9060  141.0840 C   0  0  0  0  0  2  0  0  0  0  0  0
  180.5200  179.4040  140.8730 C   0  0  2  0  0  3  0  0  0  0  0  0
  181.8590  178.6870  141.0810 C   0  0  1  0  0  3  0  0  0  0  0  0
  179.9610  180.0780  142.1200 C   0  0  0  0  0  2  0  0  0  0  0  0
  179.4700  181.3400  141.7880 O   0  0  0  0  0  1  0  0  0  0  0  0
  1 20  1  6  0  0  0
  1  4  1  0  0  0  0
  2  5  1  0  0  0  0
  3  2  1  0  0  0  0
  4  6  1  6  0  0  0
  5  4  1  0  0  0  0
  5  8  1  1  0  0  0
  7  3  1  0  0  0  0
  7  1  1  0  0  0  0
  8 17  1  0  0  0  0
  9 18  2  0  0  0  0
 11  9  1  0  0  0  0
 11 14  1  0  0  0  0
 12 11  2  0  0  0  0
 14 16  1  0  0  0  0
 15 12  1  0  0  0  0
 15 17  2  0  0  0  0
 17 19  1  0  0  0  0
 18 16  1  0  0  0  0
 18 13  1  0  0  0  0
 19 14  2  0  0  0  0
 19 10  1  0  0  0  0
 22 23  1  0  0  0  0
 22 21  1  0  0  0  0
 22 24  1  1  0  0  0
 23 21  1  0  0  0  0
 23 20  1  1  0  0  0
 25 24  1  0  0  0  0
M  END
>  <MODEL>
1

>  <REMARK>
 VINA RESULT:      -8.2      0.000      0.000
  Name = 
  5 active torsions:
  status: ('A' for Active; 'I' for Inactive)
    1  A    between atoms: C_1  and  N_19
    2  A    between atoms: C_6  and  C_8
    3  A    between atoms: C_9  and  O_17
    4  A    between atoms: O_17  and  C_20
    5  A    between atoms: N_19  and  C_23
                            x       y       z     vdW  Elec       q    Type
                         _______ _______ _______ _____ _____    ______ ____

>  <TORSDO>
F 5

$$$$
=
 OpenBabel11042411203D

 25 28  0  0  1  0  0  0  0  0999 V2000
  190.7170  176.4050  143.2800 C   0  0  2  0  0  3  0  0  0  0  0  0
  190.2490  176.9970  146.1990 C   0  0  0  0  0  2  0  0  0  0  0  0
  191.6540  176.8200  145.6130 C   0  0  0  0  0  2  0  0  0  0  0  0
  189.6630  177.4340  143.7390 C   0  0  1  0  0  3  0  0  0  0  0  0
  189.1400  177.0580  145.1340 C   0  0  2  0  0  3  0  0  0  0  0  0
  190.1840  178.8710  143.7120 C   0  0  0  0  0  1  0  0  0  0  0  0
  191.6400  175.8920  144.4010 C   0  0  0  0  0  2  0  0  0  0  0  0
  188.1050  177.9390  145.5560 O   0  0  0  0  0  0  0  0  0  0  0  0
  183.2860  178.5520  142.9430 N   0  0  0  0  0  0  0  0  0  0  0  0
  185.6300  178.9260  147.0020 C   0  0  0  0  0  1  0  0  0  0  0  0
  184.5110  178.3610  143.4550 C   0  0  0  0  0  0  0  0  0  0  0  0
  185.6530  177.9530  142.7760 C   0  0  0  0  0  3  0  0  0  0  0  0
  181.2020  179.2820  143.9690 N   0  0  0  0  0  1  0  0  0  0  0  0
  184.5210  178.6420  144.7870 C   0  0  0  0  0  0  0  0  0  0  0  0
  186.8370  177.8280  143.5210 C   0  0  0  0  0  3  0  0  0  0  0  0
  183.2970  179.0290  145.1840 N   0  0  0  0  0  2  0  0  0  0  0  0
  186.8710  178.1020  144.9070 C   0  0  0  0  0  0  0  0  0  0  0  0
  182.5850  178.9550  144.0310 C   0  0  0  0  0  0  0  0  0  0  0  0
  185.6790  178.5350  145.5620 C   0  0  0  0  0  0  0  0  0  0  0  0
  191.4950  176.8940  142.1490 N   0  0  0  0  0  2  0  0  0  0  0  0
  190.4740  177.7970  140.1390 C   0  0  0  0  0  2  0  0  0  0  0  0
  191.5510  176.8490  139.6590 C   0  0  2  0  0  3  0  0  0  0  0  0
  190.7650  176.5410  140.9380 C   0  0  1  0  0  3  0  0  0  0  0  0
  192.9200  177.4770  139.8900 C   0  0  0  0  0  2  0  0  0  0  0  0
  193.8940  176.7290  139.2300 O   0  0  0  0  0  1  0  0  0  0  0  0
  1 20  1  6  0  0  0
  1  4  1  0  0  0  0
  1  7  1  0  0  0  0
  3  2  1  0  0  0  0
  4  6  1  1  0  0  0
  4  5  1  0  0  0  0
  5  8  1  1  0  0  0
  5  2  1  0  0  0  0
  7  3  1  0  0  0  0
  9 11  1  0  0  0  0
  9 18  2  0  0  0  0
 11 14  1  0  0  0  0
 12 11  2  0  0  0  0
 12 15  1  0  0  0  0
 13 18  1  0  0  0  0
 14 16  1  0  0  0  0
 14 19  2  0  0  0  0
 15 17  2  0  0  0  0
 17  8  1  0  0  0  0
 17 19  1  0  0  0  0
 18 16  1  0  0  0  0
 19 10  1  0  0  0  0
 21 23  1  0  0  0  0
 22 24  1  1  0  0  0
 22 21  1  0  0  0  0
 22 23  1  0  0  0  0
 23 20  1  1  0  0  0
 25 24  1  0  0  0  0
M  END
>  <MODEL>
2

>  <REMARK>
 VINA RESULT:      -8.1      3.231      8.073
  Name = 
  5 active torsions:
  status: ('A' for Active; 'I' for Inactive)
    1  A    between atoms: C_1  and  N_19
    2  A    between atoms: C_6  and  C_8
    3  A    between atoms: C_9  and  O_17
    4  A    between atoms: O_17  and  C_20
    5  A    between atoms: N_19  and  C_23
                            x       y       z     vdW  Elec       q    Type
                         _______ _______ _______ _____ _____    ______ ____

>  <TORSDO>
F 5

$$$$
=
 OpenBabel11042411203D

 25 28  0  0  1  0  0  0  0  0999 V2000
  189.1430  178.1480  144.3030 C   0  0  2  0  0  3  0  0  0  0  0  0
  188.6090  178.2570  141.3380 C   0  0  0  0  0  2  0  0  0  0  0  0
  189.9830  177.8910  141.9110 C   0  0  0  0  0  2  0  0  0  0  0  0
  187.8410  177.5880  143.6930 C   0  0  1  0  0  3  0  0  0  0  0  0
  187.5010  178.3480  142.4010 C   0  0  2  0  0  3  0  0  0  0  0  0
  187.9010  176.0800  143.4490 C   0  0  0  0  0  1  0  0  0  0  0  0
  190.2120  178.5480  143.2700 C   0  0  0  0  0  2  0  0  0  0  0  0
  186.2620  177.9130  141.8540 O   0  0  0  0  0  0  0  0  0  0  0  0
  181.3170  179.2950  143.8700 N   0  0  0  0  0  0  0  0  0  0  0  0
  183.7750  177.8810  140.1200 C   0  0  0  0  0  1  0  0  0  0  0  0
  182.5710  178.9830  143.5100 C   0  0  0  0  0  0  0  0  0  0  0  0
  183.6980  178.9540  144.3210 C   0  0  0  0  0  3  0  0  0  0  0  0
  179.2400  179.3690  142.6020 N   0  0  0  0  0  1  0  0  0  0  0  0
  182.6200  178.6610  142.1870 C   0  0  0  0  0  0  0  0  0  0  0  0
  184.9150  178.5860  143.7240 C   0  0  0  0  0  3  0  0  0  0  0  0
  181.3940  178.7520  141.6460 N   0  0  0  0  0  2  0  0  0  0  0  0
  184.9950  178.2600  142.3510 C   0  0  0  0  0  0  0  0  0  0  0  0
  180.6400  179.1420  142.7050 C   0  0  0  0  0  0  0  0  0  0  0  0
  183.8090  178.2860  141.5570 C   0  0  0  0  0  0  0  0  0  0  0  0
  189.7000  177.2520  145.3080 N   0  0  0  0  0  2  0  0  0  0  0  0
  188.8820  176.6860  147.5240 C   0  0  0  0  0  2  0  0  0  0  0  0
  190.2600  177.2750  147.7360 C   0  0  2  0  0  3  0  0  0  0  0  0
  189.3580  177.8020  146.6140 C   0  0  1  0  0  3  0  0  0  0  0  0
  191.3150  176.2720  147.2850 C   0  0  0  0  0  2  0  0  0  0  0  0
  192.4470  176.3930  148.0900 O   0  0  0  0  0  1  0  0  0  0  0  0
  1 20  1  1  0  0  0
  2  3  1  0  0  0  0
  2  5  1  0  0  0  0
  3  7  1  0  0  0  0
  4  6  1  6  0  0  0
  4  1  1  0  0  0  0
  5  8  1  6  0  0  0
  5  4  1  0  0  0  0
  7  1  1  0  0  0  0
  8 17  1  0  0  0  0
 10 19  1  0  0  0  0
 11  9  1  0  0  0  0
 11 12  1  0  0  0  0
 13 18  1  0  0  0  0
 14 11  2  0  0  0  0
 15 12  2  0  0  0  0
 16 14  1  0  0  0  0
 16 18  1  0  0  0  0
 17 15  1  0  0  0  0
 18  9  2  0  0  0  0
 19 14  1  0  0  0  0
 19 17  2  0  0  0  0
 21 22  1  0  0  0  0
 22 24  1  6  0  0  0
 23 20  1  6  0  0  0
 23 21  1  0  0  0  0
 23 22  1  0  0  0  0
 24 25  1  0  0  0  0
M  END
>  <MODEL>
3

>  <REMARK>
 VINA RESULT:      -7.7      2.274      8.747
  Name = 
  5 active torsions:
  status: ('A' for Active; 'I' for Inactive)
    1  A    between atoms: C_1  and  N_19
    2  A    between atoms: C_6  and  C_8
    3  A    between atoms: C_9  and  O_17
    4  A    between atoms: O_17  and  C_20
    5  A    between atoms: N_19  and  C_23
                            x       y       z     vdW  Elec       q    Type
                         _______ _______ _______ _____ _____    ______ ____

>  <TORSDO>
F 5

$$$$
=
 OpenBabel11042411203D

 25 28  0  0  1  0  0  0  0  0999 V2000
  189.1050  176.1290  138.3040 C   0  0  2  0  0  3  0  0  0  0  0  0
  191.1830  177.1310  140.2450 C   0  0  0  0  0  2  0  0  0  0  0  0
  191.5290  176.7340  138.8050 C   0  0  0  0  0  2  0  0  0  0  0  0
  188.8240  177.3140  139.2530 C   0  0  1  0  0  3  0  0  0  0  0  0
  189.6720  177.1740  140.5270 C   0  0  2  0  0  3  0  0  0  0  0  0
  189.0440  178.6720  138.5860 C   0  0  0  0  0  1  0  0  0  0  0  0
  190.5730  175.6670  138.2770 C   0  0  0  0  0  2  0  0  0  0  0  0
  189.3780  178.2060  141.4610 O   0  0  0  0  0  0  0  0  0  0  0  0
  187.0020  177.4180  146.3760 N   0  0  0  0  0  0  0  0  0  0  0  0
  190.9650  178.3880  144.0380 C   0  0  0  0  0  1  0  0  0  0  0  0
  187.4520  177.5880  145.1240 C   0  0  0  0  0  0  0  0  0  0  0  0
  186.7100  177.5500  143.9500 C   0  0  0  0  0  3  0  0  0  0  0  0
  188.1420  177.4790  148.5270 N   0  0  0  0  0  1  0  0  0  0  0  0
  188.7920  177.8330  145.1290 C   0  0  0  0  0  0  0  0  0  0  0  0
  187.3970  177.7670  142.7440 C   0  0  0  0  0  3  0  0  0  0  0  0
  189.2550  177.8330  146.3890 N   0  0  0  0  0  2  0  0  0  0  0  0
  188.7890  178.0100  142.7210 C   0  0  0  0  0  0  0  0  0  0  0  0
  188.1330  177.5740  147.1080 C   0  0  0  0  0  0  0  0  0  0  0  0
  189.5110  178.0580  143.9520 C   0  0  0  0  0  0  0  0  0  0  0  0
  188.6150  176.3860  136.9570 N   0  0  0  0  0  2  0  0  0  0  0  0
  186.2320  176.8200  136.7830 C   0  0  0  0  0  2  0  0  0  0  0  0
  186.6040  176.0730  135.5200 C   0  0  2  0  0  3  0  0  0  0  0  0
  187.3080  175.7530  136.8440 C   0  0  1  0  0  3  0  0  0  0  0  0
  187.3830  176.9990  134.5940 C   0  0  0  0  0  2  0  0  0  0  0  0
  186.8080  178.2690  134.6130 O   0  0  0  0  0  1  0  0  0  0  0  0
  1 20  1  6  0  0  0
  1  4  1  0  0  0  0
  2  5  1  0  0  0  0
  3  2  1  0  0  0  0
  4  6  1  6  0  0  0
  4  5  1  0  0  0  0
  5  8  1  1  0  0  0
  7  1  1  0  0  0  0
  7  3  1  0  0  0  0
  8 17  1  0  0  0  0
  9 18  2  0  0  0  0
 11 14  1  0  0  0  0
 11  9  1  0  0  0  0
 12 11  2  0  0  0  0
 14 16  1  0  0  0  0
 15 12  1  0  0  0  0
 16 18  1  0  0  0  0
 17 15  2  0  0  0  0
 17 19  1  0  0  0  0
 18 13  1  0  0  0  0
 19 10  1  0  0  0  0
 19 14  2  0  0  0  0
 21 23  1  0  0  0  0
 22 24  1  6  0  0  0
 22 21  1  0  0  0  0
 22 23  1  0  0  0  0
 23 20  1  6  0  0  0
 24 25  1  0  0  0  0
M  END
>  <MODEL>
4

>  <REMARK>
 VINA RESULT:      -7.5      4.662      6.144
  Name = 
  5 active torsions:
  status: ('A' for Active; 'I' for Inactive)
    1  A    between atoms: C_1  and  N_19
    2  A    between atoms: C_6  and  C_8
    3  A    between atoms: C_9  and  O_17
    4  A    between atoms: O_17  and  C_20
    5  A    between atoms: N_19  and  C_23
                            x       y       z     vdW  Elec       q    Type
                         _______ _______ _______ _____ _____    ______ ____

>  <TORSDO>
F 5

$$$$
=
 OpenBabel11042411203D

 25 28  0  0  1  0  0  0  0  0999 V2000
  181.6470  179.4890  139.3080 C   0  0  2  0  0  3  0  0  0  0  0  0
  182.8480  176.8670  140.1870 C   0  0  0  0  0  2  0  0  0  0  0  0
  182.0450  177.0080  138.8880 C   0  0  0  0  0  2  0  0  0  0  0  0
  183.0650  179.4090  139.9130 C   0  0  1  0  0  3  0  0  0  0  0  0
  183.1570  178.2100  140.8700 C   0  0  2  0  0  3  0  0  0  0  0  0
  184.1610  179.3540  138.8480 C   0  0  0  0  0  1  0  0  0  0  0  0
  181.0100  178.1240  138.9920 C   0  0  0  0  0  2  0  0  0  0  0  0
  184.4270  178.1530  141.5090 O   0  0  0  0  0  0  0  0  0  0  0  0
  185.2080  178.8060  146.9300 N   0  0  0  0  0  0  0  0  0  0  0  0
  187.1210  177.6310  142.7980 C   0  0  0  0  0  1  0  0  0  0  0  0
  184.8840  178.6880  145.6340 C   0  0  0  0  0  0  0  0  0  0  0  0
  183.6610  178.9740  145.0420 C   0  0  0  0  0  3  0  0  0  0  0  0
  187.2880  178.3810  148.1230 N   0  0  0  0  0  1  0  0  0  0  0  0
  185.9540  178.2480  144.9140 C   0  0  0  0  0  0  0  0  0  0  0  0
  183.5540  178.7830  143.6540 C   0  0  0  0  0  3  0  0  0  0  0  0
  187.0100  178.0680  145.7240 N   0  0  0  0  0  2  0  0  0  0  0  0
  184.6440  178.3150  142.8870 C   0  0  0  0  0  0  0  0  0  0  0  0
  186.5070  178.4170  146.9350 C   0  0  0  0  0  0  0  0  0  0  0  0
  185.8900  178.0500  143.5320 C   0  0  0  0  0  0  0  0  0  0  0  0
  181.6030  180.3670  138.1460 N   0  0  0  0  0  2  0  0  0  0  0  0
  179.8870  181.7700  139.1390 C   0  0  0  0  0  2  0  0  0  0  0  0
  180.1240  182.3340  137.7540 C   0  0  2  0  0  3  0  0  0  0  0  0
  180.2270  180.8240  138.0030 C   0  0  1  0  0  3  0  0  0  0  0  0
  181.4610  183.0650  137.7270 C   0  0  0  0  0  2  0  0  0  0  0  0
  181.3130  184.2820  137.0640 O   0  0  0  0  0  1  0  0  0  0  0  0
  1 20  1  6  0  0  0
  1  4  1  0  0  0  0
  2  5  1  0  0  0  0
  3  7  1  0  0  0  0
  3  2  1  0  0  0  0
  4  6  1  6  0  0  0
  4  5  1  0  0  0  0
  5  8  1  6  0  0  0
  7  1  1  0  0  0  0
  8 17  1  0  0  0  0
  9 18  2  0  0  0  0
 10 19  1  0  0  0  0
 11  9  1  0  0  0  0
 12 11  1  0  0  0  0
 14 11  2  0  0  0  0
 14 16  1  0  0  0  0
 15 12  2  0  0  0  0
 16 18  1  0  0  0  0
 17 19  2  0  0  0  0
 17 15  1  0  0  0  0
 18 13  1  0  0  0  0
 19 14  1  0  0  0  0
 22 24  1  1  0  0  0
 22 23  1  0  0  0  0
 22 21  1  0  0  0  0
 23 20  1  1  0  0  0
 23 21  1  0  0  0  0
 25 24  1  0  0  0  0
M  END
>  <MODEL>
5

>  <REMARK>
 VINA RESULT:      -7.4      3.262      4.941
  Name = 
  5 active torsions:
  status: ('A' for Active; 'I' for Inactive)
    1  A    between atoms: C_1  and  N_19
    2  A    between atoms: C_6  and  C_8
    3  A    between atoms: C_9  and  O_17
    4  A    between atoms: O_17  and  C_20
    5  A    between atoms: N_19  and  C_23
                            x       y       z     vdW  Elec       q    Type
                         _______ _______ _______ _____ _____    ______ ____

>  <TORSDO>
F 5

$$$$
=
 OpenBabel11042411203D

 25 28  0  0  1  0  0  0  0  0999 V2000
  189.5450  177.6620  144.9350 C   0  0  2  0  0  3  0  0  0  0  0  0
  191.5800  176.7270  142.9160 C   0  0  0  0  0  2  0  0  0  0  0  0
  191.4590  176.1010  144.3100 C   0  0  0  0  0  2  0  0  0  0  0  0
  189.1890  177.4960  143.4420 C   0  0  1  0  0  3  0  0  0  0  0  0
  190.4430  177.7070  142.5800 C   0  0  2  0  0  3  0  0  0  0  0  0
  188.5270  176.1520  143.1370 C   0  0  0  0  0  1  0  0  0  0  0  0
  190.9260  177.1060  145.3280 C   0  0  0  0  0  2  0  0  0  0  0  0
  190.1350  177.6420  141.1920 O   0  0  0  0  0  0  0  0  0  0  0  0
  193.7660  176.3040  137.2620 N   0  0  0  0  0  0  0  0  0  0  0  0
  189.2390  176.5670  138.5030 C   0  0  0  0  0  1  0  0  0  0  0  0
  192.9940  176.6660  138.2970 C   0  0  0  0  0  0  0  0  0  0  0  0
  193.4090  177.2030  139.5090 C   0  0  0  0  0  3  0  0  0  0  0  0
  193.2130  175.3830  135.0770 N   0  0  0  0  0  1  0  0  0  0  0  0
  191.6800  176.4560  138.0080 C   0  0  0  0  0  0  0  0  0  0  0  0
  192.4150  177.5190  140.4500 C   0  0  0  0  0  3  0  0  0  0  0  0
  191.5570  175.9500  136.7700 N   0  0  0  0  0  2  0  0  0  0  0  0
  191.0450  177.2980  140.1800 C   0  0  0  0  0  0  0  0  0  0  0  0
  192.8490  175.8740  136.3610 C   0  0  0  0  0  0  0  0  0  0  0  0
  190.6610  176.7600  138.9140 C   0  0  0  0  0  0  0  0  0  0  0  0
  188.5040  177.1300  145.8030 N   0  0  0  0  0  2  0  0  0  0  0  0
  186.2060  177.5310  146.4830 C   0  0  0  0  0  2  0  0  0  0  0  0
  187.0530  178.4290  147.3580 C   0  0  2  0  0  3  0  0  0  0  0  0
  187.4670  178.1490  145.9080 C   0  0  1  0  0  3  0  0  0  0  0  0
  187.7780  177.5860  148.4000 C   0  0  0  0  0  2  0  0  0  0  0  0
  188.8490  178.3090  148.9220 O   0  0  0  0  0  1  0  0  0  0  0  0
  1  7  1  0  0  0  0
  1 20  1  1  0  0  0
  2  3  1  0  0  0  0
  3  7  1  0  0  0  0
  4  6  1  1  0  0  0
  4  1  1  0  0  0  0
  5  8  1  6  0  0  0
  5  2  1  0  0  0  0
  5  4  1  0  0  0  0
  9 11  1  0  0  0  0
 10 19  1  0  0  0  0
 11 12  1  0  0  0  0
 12 15  2  0  0  0  0
 13 18  1  0  0  0  0
 14 11  2  0  0  0  0
 14 19  1  0  0  0  0
 16 14  1  0  0  0  0
 17 15  1  0  0  0  0
 17  8  1  0  0  0  0
 18 16  1  0  0  0  0
 18  9  2  0  0  0  0
 19 17  2  0  0  0  0
 21 22  1  0  0  0  0
 22 24  1  1  0  0  0
 23 20  1  1  0  0  0
 23 21  1  0  0  0  0
 23 22  1  0  0  0  0
 24 25  1  0  0  0  0
M  END
>  <MODEL>
6

>  <REMARK>
 VINA RESULT:      -7.3      4.969      8.102
  Name = 
  5 active torsions:
  status: ('A' for Active; 'I' for Inactive)
    1  A    between atoms: C_1  and  N_19
    2  A    between atoms: C_6  and  C_8
    3  A    between atoms: C_9  and  O_17
    4  A    between atoms: O_17  and  C_20
    5  A    between atoms: N_19  and  C_23
                            x       y       z     vdW  Elec       q    Type
                         _______ _______ _______ _____ _____    ______ ____

>  <TORSDO>
F 5

$$$$
=
 OpenBabel11042411203D

 25 28  0  0  1  0  0  0  0  0999 V2000
  189.2450  177.5000  143.9260 C   0  0  2  0  0  3  0  0  0  0  0  0
  191.5860  177.8950  142.0670 C   0  0  0  0  0  2  0  0  0  0  0  0
  191.6810  178.1620  143.5740 C   0  0  0  0  0  2  0  0  0  0  0  0
  189.5650  176.4940  142.8010 C   0  0  1  0  0  3  0  0  0  0  0  0
  190.2740  177.2140  141.6430 C   0  0  2  0  0  3  0  0  0  0  0  0
  190.3810  175.2960  143.2900 C   0  0  0  0  0  1  0  0  0  0  0  0
  190.3290  178.5700  144.1530 C   0  0  0  0  0  2  0  0  0  0  0  0
  190.5110  176.3320  140.5510 O   0  0  0  0  0  0  0  0  0  0  0  0
  188.9260  177.1620  135.3330 N   0  0  0  0  0  0  0  0  0  0  0  0
  188.0250  177.9350  139.8830 C   0  0  0  0  0  1  0  0  0  0  0  0
  189.4210  176.8880  136.5490 C   0  0  0  0  0  0  0  0  0  0  0  0
  190.5870  176.1930  136.8480 C   0  0  0  0  0  3  0  0  0  0  0  0
  186.9360  178.3770  134.6340 N   0  0  0  0  0  1  0  0  0  0  0  0
  188.6190  177.4100  137.5190 C   0  0  0  0  0  0  0  0  0  0  0  0
  190.9150  176.0340  138.2040 C   0  0  0  0  0  3  0  0  0  0  0  0
  187.5760  178.0450  136.9600 N   0  0  0  0  0  2  0  0  0  0  0  0
  190.0930  176.5550  139.2290 C   0  0  0  0  0  0  0  0  0  0  0  0
  187.8060  177.8640  135.6340 C   0  0  0  0  0  0  0  0  0  0  0  0
  188.9130  177.2770  138.8790 C   0  0  0  0  0  0  0  0  0  0  0  0
  188.9080  176.8290  145.1740 N   0  0  0  0  0  2  0  0  0  0  0  0
  188.2000  177.2310  147.4620 C   0  0  0  0  0  2  0  0  0  0  0  0
  189.6390  177.6950  147.3920 C   0  0  2  0  0  3  0  0  0  0  0  0
  188.7130  177.8620  146.1820 C   0  0  1  0  0  3  0  0  0  0  0  0
  190.5600  176.4820  147.3250 C   0  0  0  0  0  2  0  0  0  0  0  0
  191.8590  176.8990  147.0390 O   0  0  0  0  0  1  0  0  0  0  0  0
  1  7  1  0  0  0  0
  1 20  1  1  0  0  0
  2  3  1  0  0  0  0
  3  7  1  0  0  0  0
  4  6  1  1  0  0  0
  4  1  1  0  0  0  0
  5  8  1  6  0  0  0
  5  2  1  0  0  0  0
  5  4  1  0  0  0  0
  9 18  2  0  0  0  0
  9 11  1  0  0  0  0
 11 12  2  0  0  0  0
 11 14  1  0  0  0  0
 12 15  1  0  0  0  0
 13 18  1  0  0  0  0
 14 19  2  0  0  0  0
 15 17  2  0  0  0  0
 16 14  1  0  0  0  0
 17  8  1  0  0  0  0
 18 16  1  0  0  0  0
 19 17  1  0  0  0  0
 19 10  1  0  0  0  0
 22 24  1  6  0  0  0
 22 21  1  0  0  0  0
 23 20  1  6  0  0  0
 23 22  1  0  0  0  0
 23 21  1  0  0  0  0
 25 24  1  0  0  0  0
M  END
>  <MODEL>
7

>  <REMARK>
 VINA RESULT:      -7.2      5.063      8.978
  Name = 
  5 active torsions:
  status: ('A' for Active; 'I' for Inactive)
    1  A    between atoms: C_1  and  N_19
    2  A    between atoms: C_6  and  C_8
    3  A    between atoms: C_9  and  O_17
    4  A    between atoms: O_17  and  C_20
    5  A    between atoms: N_19  and  C_23
                            x       y       z     vdW  Elec       q    Type
                         _______ _______ _______ _____ _____    ______ ____

>  <TORSDO>
F 5

$$$$
=
 OpenBabel11042411203D

 25 28  0  0  1  0  0  0  0  0999 V2000
  189.2330  176.0980  138.1680 C   0  0  2  0  0  3  0  0  0  0  0  0
  191.2500  177.1370  140.1530 C   0  0  0  0  0  2  0  0  0  0  0  0
  191.6250  176.7910  138.7080 C   0  0  0  0  0  2  0  0  0  0  0  0
  188.8940  177.2460  139.1430 C   0  0  1  0  0  3  0  0  0  0  0  0
  189.7360  177.1100  140.4220 C   0  0  2  0  0  3  0  0  0  0  0  0
  189.0630  178.6290  138.5130 C   0  0  0  0  0  1  0  0  0  0  0  0
  190.7190  175.6990  138.1440 C   0  0  0  0  0  2  0  0  0  0  0  0
  189.3910  178.1050  141.3790 O   0  0  0  0  0  0  0  0  0  0  0  0
  189.8010  177.5040  146.8460 N   0  0  0  0  0  0  0  0  0  0  0  0
  186.9450  177.6610  143.1140 C   0  0  0  0  0  1  0  0  0  0  0  0
  189.8420  177.6620  145.5150 C   0  0  0  0  0  0  0  0  0  0  0  0
  190.9710  177.8180  144.7200 C   0  0  0  0  0  3  0  0  0  0  0  0
  187.9370  177.1920  148.3810 N   0  0  0  0  0  1  0  0  0  0  0  0
  188.5850  177.6350  144.9930 C   0  0  0  0  0  0  0  0  0  0  0  0
  190.7720  177.9600  143.3370 C   0  0  0  0  0  3  0  0  0  0  0  0
  187.6840  177.4550  145.9730 N   0  0  0  0  0  2  0  0  0  0  0  0
  189.4760  177.9480  142.7710 C   0  0  0  0  0  0  0  0  0  0  0  0
  188.4700  177.3840  147.0770 C   0  0  0  0  0  0  0  0  0  0  0  0
  188.3450  177.7680  143.6230 C   0  0  0  0  0  0  0  0  0  0  0  0
  188.7450  176.3690  136.8230 N   0  0  0  0  0  2  0  0  0  0  0  0
  186.7690  175.0040  137.1890 C   0  0  0  0  0  2  0  0  0  0  0  0
  186.6660  175.4960  135.7620 C   0  0  2  0  0  3  0  0  0  0  0  0
  188.0360  175.1780  136.3730 C   0  0  1  0  0  3  0  0  0  0  0  0
  186.2990  176.9750  135.7610 C   0  0  0  0  0  2  0  0  0  0  0  0
  185.1730  177.1770  136.5570 O   0  0  0  0  0  1  0  0  0  0  0  0
  1 20  1  6  0  0  0
  1  4  1  0  0  0  0
  2  5  1  0  0  0  0
  3  2  1  0  0  0  0
  4  6  1  6  0  0  0
  4  5  1  0  0  0  0
  5  8  1  1  0  0  0
  7  1  1  0  0  0  0
  7  3  1  0  0  0  0
  8 17  1  0  0  0  0
  9 18  2  0  0  0  0
 10 19  1  0  0  0  0
 11  9  1  0  0  0  0
 12 11  2  0  0  0  0
 14 11  1  0  0  0  0
 14 16  1  0  0  0  0
 15 12  1  0  0  0  0
 16 18  1  0  0  0  0
 17 15  2  0  0  0  0
 17 19  1  0  0  0  0
 18 13  1  0  0  0  0
 19 14  2  0  0  0  0
 22 24  1  1  0  0  0
 22 23  1  0  0  0  0
 22 21  1  0  0  0  0
 23 20  1  1  0  0  0
 23 21  1  0  0  0  0
 24 25  1  0  0  0  0
M  END
>  <MODEL>
8

>  <REMARK>
 VINA RESULT:      -7.2      4.560      5.968
  Name = 
  5 active torsions:
  status: ('A' for Active; 'I' for Inactive)
    1  A    between atoms: C_1  and  N_19
    2  A    between atoms: C_6  and  C_8
    3  A    between atoms: C_9  and  O_17
    4  A    between atoms: O_17  and  C_20
    5  A    between atoms: N_19  and  C_23
                            x       y       z     vdW  Elec       q    Type
                         _______ _______ _______ _____ _____    ______ ____

>  <TORSDO>
F 5

$$$$
=
 OpenBabel11042411203D

 25 28  0  0  1  0  0  0  0  0999 V2000
  186.0390  179.2300  145.9240 C   0  0  2  0  0  3  0  0  0  0  0  0
  188.1670  177.9970  147.6670 C   0  0  0  0  0  2  0  0  0  0  0  0
  186.7650  178.3270  148.1930 C   0  0  0  0  0  2  0  0  0  0  0  0
  186.9590  178.1040  145.4060 C   0  0  1  0  0  3  0  0  0  0  0  0
  188.3060  178.1510  146.1430 C   0  0  2  0  0  3  0  0  0  0  0  0
  186.3180  176.7190  145.5100 C   0  0  0  0  0  1  0  0  0  0  0  0
  186.1490  179.5000  147.4350 C   0  0  0  0  0  2  0  0  0  0  0  0
  189.2110  177.1780  145.6330 O   0  0  0  0  0  0  0  0  0  0  0  0
  192.1180  177.6940  140.9740 N   0  0  0  0  0  0  0  0  0  0  0  0
  188.3150  175.8670  143.0500 C   0  0  0  0  0  1  0  0  0  0  0  0
  191.5090  177.6500  142.1680 C   0  0  0  0  0  0  0  0  0  0  0  0
  191.8990  178.2930  143.3370 C   0  0  0  0  0  3  0  0  0  0  0  0
  191.5640  176.6660  138.8380 N   0  0  0  0  0  1  0  0  0  0  0  0
  190.3900  176.8760  142.1040 C   0  0  0  0  0  0  0  0  0  0  0  0
  191.0960  178.1080  144.4740 C   0  0  0  0  0  3  0  0  0  0  0  0
  190.2360  176.3930  140.8610 N   0  0  0  0  0  2  0  0  0  0  0  0
  189.9370  177.3000  144.4380 C   0  0  0  0  0  0  0  0  0  0  0  0
  191.3090  176.9150  140.2140 C   0  0  0  0  0  0  0  0  0  0  0  0
  189.5620  176.6720  143.2120 C   0  0  0  0  0  0  0  0  0  0  0  0
  184.6520  179.0190  145.5320 N   0  0  0  0  0  2  0  0  0  0  0  0
  184.2440  178.5780  143.1790 C   0  0  0  0  0  2  0  0  0  0  0  0
  183.0720  179.4130  143.6460 C   0  0  2  0  0  3  0  0  0  0  0  0
  184.4700  179.6470  144.2300 C   0  0  1  0  0  3  0  0  0  0  0  0
  182.1550  178.5590  144.5150 C   0  0  0  0  0  2  0  0  0  0  0  0
  180.8450  178.6600  144.0500 O   0  0  0  0  0  1  0  0  0  0  0  0
  1 20  1  1  0  0  0
  1  7  1  0  0  0  0
  2  3  1  0  0  0  0
  4  6  1  1  0  0  0
  4  1  1  0  0  0  0
  4  5  1  0  0  0  0
  5  8  1  6  0  0  0
  5  2  1  0  0  0  0
  7  3  1  0  0  0  0
  9 11  1  0  0  0  0
 10 19  1  0  0  0  0
 11 12  1  0  0  0  0
 12 15  2  0  0  0  0
 13 18  1  0  0  0  0
 14 11  2  0  0  0  0
 14 19  1  0  0  0  0
 16 14  1  0  0  0  0
 17 15  1  0  0  0  0
 17  8  1  0  0  0  0
 18 16  1  0  0  0  0
 18  9  2  0  0  0  0
 19 17  2  0  0  0  0
 21 22  1  0  0  0  0
 21 23  1  0  0  0  0
 22 23  1  0  0  0  0
 22 24  1  1  0  0  0
 23 20  1  1  0  0  0
 25 24  1  0  0  0  0
M  END
>  <MODEL>
9

>  <REMARK>
 VINA RESULT:      -7.2      3.136      4.763
  Name = 
  5 active torsions:
  status: ('A' for Active; 'I' for Inactive)
    1  A    between atoms: C_1  and  N_19
    2  A    between atoms: C_6  and  C_8
    3  A    between atoms: C_9  and  O_17
    4  A    between atoms: O_17  and  C_20
    5  A    between atoms: N_19  and  C_23
                            x       y       z     vdW  Elec       q    Type
                         _______ _______ _______ _____ _____    ______ ____

>  <TORSDO>
F 5

$$$$
