=
 OpenBabel11032419523D

 27 28  0  0  1  0  0  0  0  0999 V2000
  187.6190  178.3050  141.0260 C   0  0  0  0  0  0  0  0  0  0  0  0
  189.7900  177.6660  140.7070 C   0  0  0  0  0  0  0  0  0  0  0  0
  188.7780  178.5910  140.1130 C   0  0  1  0  0  3  0  0  0  0  0  0
  189.2340  177.0090  141.7150 C   0  0  0  0  0  0  0  0  0  0  0  0
  187.8890  177.4120  141.9220 N   0  0  0  0  0  0  0  0  0  0  0  0
  185.5820  178.9980  139.7350 N   0  0  0  0  0  2  0  0  0  0  0  0
  186.3160  178.9830  140.9590 C   0  0  0  0  0  0  0  0  0  0  0  0
  185.8500  179.5530  141.9820 O   0  0  0  0  0  0  0  0  0  0  0  0
  184.3390  179.6340  139.6480 N   0  0  0  0  0  2  0  0  0  0  0  0
  184.2030  180.6410  138.9250 O   0  0  0  0  0  1  0  0  0  0  0  0
  187.9630  177.0880  138.4210 O   0  0  0  0  0  1  0  0  0  0  0  0
  188.7460  179.1060  137.6720 O   0  0  0  0  0  0  0  0  0  0  0  0
  188.4650  178.2110  138.6960 C   0  0  0  0  0  0  0  0  0  0  0  0
  191.2170  177.5500  140.2690 C   0  0  0  0  0  2  0  0  0  0  0  0
  191.3560  176.5480  139.1740 C   0  0  0  0  0  0  0  0  0  0  0  0
  190.5950  175.5480  139.1370 O   0  0  0  0  0  0  0  0  0  0  0  0
  192.3670  176.7090  138.1860 N   0  0  0  0  0  1  0  0  0  0  0  0
  189.9400  176.0510  142.6180 C   0  0  0  0  0  2  0  0  0  0  0  0
  190.6240  177.2070  145.9820 C   0  0  0  0  0  3  0  0  0  0  0  0
  189.9380  176.5600  143.9800 N   0  0  0  0  0  0  0  0  0  0  0  0
  188.3350  177.5700  146.9420 N   0  0  0  0  0  0  0  0  0  0  0  0
  191.0340  176.7780  144.7300 C   0  0  0  0  0  3  0  0  0  0  0  0
  188.8410  176.8090  144.6680 N   0  0  0  0  0  0  0  0  0  0  0  0
  188.8370  178.0850  148.2050 C   0  0  0  0  0  1  0  0  0  0  0  0
  189.2400  177.2080  145.8880 C   0  0  0  0  0  0  0  0  0  0  0  0
  186.2860  178.8930  147.0230 C   0  0  0  0  0  1  0  0  0  0  0  0
  186.8940  177.5320  146.7370 C   0  0  0  0  0  2  0  0  0  0  0  0
  1  5  2  0  0  0  0
  2  4  2  0  0  0  0
  3 13  1  6  0  0  0
  3  2  1  0  0  0  0
  3  1  1  0  0  0  0
  4  5  1  0  0  0  0
  4 18  1  0  0  0  0
  6  7  1  0  0  0  0
  7  1  1  0  0  0  0
  7  8  2  0  0  0  0
  9  6  1  0  0  0  0
 10  9  1  0  0  0  0
 11 13  1  0  0  0  0
 12 13  2  0  0  0  0
 14  2  1  0  0  0  0
 15 14  1  0  0  0  0
 16 15  2  0  0  0  0
 17 15  1  0  0  0  0
 18 20  1  0  0  0  0
 20 23  1  0  0  0  0
 20 22  1  0  0  0  0
 21 24  1  0  0  0  0
 22 19  2  0  0  0  0
 23 25  2  0  0  0  0
 25 19  1  0  0  0  0
 25 21  1  0  0  0  0
 27 21  1  0  0  0  0
 27 26  1  0  0  0  0
M  END
>  <MODEL>
1

>  <REMARK>
 VINA RESULT:      -7.8      0.000      0.000
  Name = 
  8 active torsions:
  status: ('A' for Active; 'I' for Inactive)
    1  A    between atoms: N_1  and  N_13
    2  A    between atoms: C_2  and  C_3
    3  A    between atoms: C_4  and  C_8
    4  A    between atoms: C_8  and  C_9
    5  A    between atoms: N_11  and  C_19
    6  A    between atoms: N_14  and  C_22
    7  A    between atoms: C_17  and  C_26
    8  A    between atoms: C_19  and  C_21
                            x       y       z     vdW  Elec       q    Type
                         _______ _______ _______ _____ _____    ______ ____

>  <TORSDO>
F 8

$$$$
=
 OpenBabel11032419523D

 27 28  0  0  1  0  0  0  0  0999 V2000
  188.7230  177.6670  142.1500 C   0  0  0  0  0  0  0  0  0  0  0  0
  189.2130  177.9610  144.3630 C   0  0  0  0  0  0  0  0  0  0  0  0
  189.8800  178.0490  143.0290 C   0  0  1  0  0  3  0  0  0  0  0  0
  187.9570  177.5730  144.1920 C   0  0  0  0  0  0  0  0  0  0  0  0
  187.6470  177.4010  142.8170 N   0  0  0  0  0  0  0  0  0  0  0  0
  188.0920  178.6350  139.9220 N   0  0  0  0  0  2  0  0  0  0  0  0
  188.7660  177.6310  140.6810 C   0  0  0  0  0  0  0  0  0  0  0  0
  189.3960  176.7120  140.0920 O   0  0  0  0  0  0  0  0  0  0  0  0
  188.1210  178.6230  138.5240 N   0  0  0  0  0  2  0  0  0  0  0  0
  188.8900  179.3900  137.9100 O   0  0  0  0  0  1  0  0  0  0  0  0
  192.1740  177.4340  142.6500 O   0  0  0  0  0  0  0  0  0  0  0  0
  190.7400  175.7090  143.1060 O   0  0  0  0  0  1  0  0  0  0  0  0
  191.0020  177.0590  142.9200 C   0  0  0  0  0  0  0  0  0  0  0  0
  189.8470  178.3140  145.6720 C   0  0  0  0  0  2  0  0  0  0  0  0
  190.3930  177.1000  146.3410 C   0  0  0  0  0  0  0  0  0  0  0  0
  189.6410  176.3760  147.0420 O   0  0  0  0  0  0  0  0  0  0  0  0
  191.7720  176.7740  146.2100 N   0  0  0  0  0  1  0  0  0  0  0  0
  186.9350  177.4440  145.2730 C   0  0  0  0  0  2  0  0  0  0  0  0
  183.7050  179.0330  144.8640 C   0  0  0  0  0  3  0  0  0  0  0  0
  185.6750  178.0240  144.8380 N   0  0  0  0  0  0  0  0  0  0  0  0
  183.1590  178.6110  142.4520 N   0  0  0  0  0  0  0  0  0  0  0  0
  184.8080  178.6850  145.6270 C   0  0  0  0  0  3  0  0  0  0  0  0
  185.2000  177.9090  143.6120 N   0  0  0  0  0  0  0  0  0  0  0  0
  181.9220  179.3720  142.4950 C   0  0  0  0  0  1  0  0  0  0  0  0
  184.0040  178.5210  143.6090 C   0  0  0  0  0  0  0  0  0  0  0  0
  184.3840  179.0390  140.3840 C   0  0  0  0  0  1  0  0  0  0  0  0
  183.5690  178.0340  141.1790 C   0  0  0  0  0  2  0  0  0  0  0  0
  1  5  2  0  0  0  0
  1  3  1  0  0  0  0
  2 14  1  0  0  0  0
  3 13  1  1  0  0  0
  3  2  1  0  0  0  0
  4  2  2  0  0  0  0
  4 18  1  0  0  0  0
  5  4  1  0  0  0  0
  6  7  1  0  0  0  0
  7  1  1  0  0  0  0
  8  7  2  0  0  0  0
  9  6  1  0  0  0  0
 10  9  1  0  0  0  0
 11 13  2  0  0  0  0
 13 12  1  0  0  0  0
 14 15  1  0  0  0  0
 15 16  2  0  0  0  0
 17 15  1  0  0  0  0
 19 22  2  0  0  0  0
 20 18  1  0  0  0  0
 20 22  1  0  0  0  0
 21 24  1  0  0  0  0
 21 25  1  0  0  0  0
 23 20  1  0  0  0  0
 25 23  2  0  0  0  0
 25 19  1  0  0  0  0
 26 27  1  0  0  0  0
 27 21  1  0  0  0  0
M  END
>  <MODEL>
2

>  <REMARK>
 VINA RESULT:      -7.5      2.884      5.576
  Name = 
  8 active torsions:
  status: ('A' for Active; 'I' for Inactive)
    1  A    between atoms: N_1  and  N_13
    2  A    between atoms: C_2  and  C_3
    3  A    between atoms: C_4  and  C_8
    4  A    between atoms: C_8  and  C_9
    5  A    between atoms: N_11  and  C_19
    6  A    between atoms: N_14  and  C_22
    7  A    between atoms: C_17  and  C_26
    8  A    between atoms: C_19  and  C_21
                            x       y       z     vdW  Elec       q    Type
                         _______ _______ _______ _____ _____    ______ ____

>  <TORSDO>
F 8

$$$$
=
 OpenBabel11032419523D

 27 28  0  0  1  0  0  0  0  0999 V2000
  185.7020  178.2380  142.7280 C   0  0  0  0  0  0  0  0  0  0  0  0
  186.2370  177.7710  144.8990 C   0  0  0  0  0  0  0  0  0  0  0  0
  185.0290  177.9840  144.0470 C   0  0  1  0  0  3  0  0  0  0  0  0
  187.3230  177.9240  144.1540 C   0  0  0  0  0  0  0  0  0  0  0  0
  186.9930  178.2030  142.8020 N   0  0  0  0  0  0  0  0  0  0  0  0
  185.5760  179.3000  140.4570 N   0  0  0  0  0  2  0  0  0  0  0  0
  184.9940  178.4670  141.4600 C   0  0  0  0  0  0  0  0  0  0  0  0
  183.8710  177.9300  141.2600 O   0  0  0  0  0  0  0  0  0  0  0  0
  184.9230  179.5290  139.2410 N   0  0  0  0  0  2  0  0  0  0  0  0
  184.1710  180.5160  139.1140 O   0  0  0  0  0  1  0  0  0  0  0  0
  184.5590  180.3410  144.1230 O   0  0  0  0  0  0  0  0  0  0  0  0
  183.1790  179.0070  145.3720 O   0  0  0  0  0  1  0  0  0  0  0  0
  184.2490  179.1810  144.5050 C   0  0  0  0  0  0  0  0  0  0  0  0
  186.2180  177.3870  146.3460 C   0  0  0  0  0  2  0  0  0  0  0  0
  186.5750  178.5500  147.2080 C   0  0  0  0  0  0  0  0  0  0  0  0
  185.8530  179.5790  147.2050 O   0  0  0  0  0  0  0  0  0  0  0  0
  187.7470  178.5070  148.0120 N   0  0  0  0  0  1  0  0  0  0  0  0
  188.7280  177.7120  144.6160 C   0  0  0  0  0  2  0  0  0  0  0  0
  191.3960  177.1060  142.2430 C   0  0  0  0  0  3  0  0  0  0  0  0
  189.5910  177.4490  143.4770 N   0  0  0  0  0  0  0  0  0  0  0  0
  190.2080  177.0970  140.0330 N   0  0  0  0  0  0  0  0  0  0  0  0
  190.9250  177.2790  143.5340 C   0  0  0  0  0  3  0  0  0  0  0  0
  189.1660  177.4100  142.2290 N   0  0  0  0  0  0  0  0  0  0  0  0
  191.4060  176.7700  139.2770 C   0  0  0  0  0  1  0  0  0  0  0  0
  190.2510  177.1980  141.4640 C   0  0  0  0  0  0  0  0  0  0  0  0
  188.7980  178.6060  138.7330 C   0  0  0  0  0  1  0  0  0  0  0  0
  188.9480  177.2110  139.3120 C   0  0  0  0  0  2  0  0  0  0  0  0
  1  5  2  0  0  0  0
  1  3  1  0  0  0  0
  2 14  1  0  0  0  0
  3 13  1  1  0  0  0
  3  2  1  0  0  0  0
  4 18  1  0  0  0  0
  4  2  2  0  0  0  0
  5  4  1  0  0  0  0
  6  7  1  0  0  0  0
  7  1  1  0  0  0  0
  8  7  2  0  0  0  0
  9  6  1  0  0  0  0
 10  9  1  0  0  0  0
 11 13  2  0  0  0  0
 13 12  1  0  0  0  0
 14 15  1  0  0  0  0
 15 17  1  0  0  0  0
 16 15  2  0  0  0  0
 19 22  2  0  0  0  0
 20 22  1  0  0  0  0
 20 18  1  0  0  0  0
 21 25  1  0  0  0  0
 23 20  1  0  0  0  0
 24 21  1  0  0  0  0
 25 23  2  0  0  0  0
 25 19  1  0  0  0  0
 26 27  1  0  0  0  0
 27 21  1  0  0  0  0
M  END
>  <MODEL>
3

>  <REMARK>
 VINA RESULT:      -7.5      2.461      6.062
  Name = 
  8 active torsions:
  status: ('A' for Active; 'I' for Inactive)
    1  A    between atoms: N_1  and  N_13
    2  A    between atoms: C_2  and  C_3
    3  A    between atoms: C_4  and  C_8
    4  A    between atoms: C_8  and  C_9
    5  A    between atoms: N_11  and  C_19
    6  A    between atoms: N_14  and  C_22
    7  A    between atoms: C_17  and  C_26
    8  A    between atoms: C_19  and  C_21
                            x       y       z     vdW  Elec       q    Type
                         _______ _______ _______ _____ _____    ______ ____

>  <TORSDO>
F 8

$$$$
=
 OpenBabel11032419523D

 27 28  0  0  1  0  0  0  0  0999 V2000
  189.0480  177.8610  140.4000 C   0  0  0  0  0  0  0  0  0  0  0  0
  190.4170  177.1260  142.0760 C   0  0  0  0  0  0  0  0  0  0  0  0
  190.5110  177.7460  140.7210 C   0  0  1  0  0  3  0  0  0  0  0  0
  189.1390  176.9310  142.3730 C   0  0  0  0  0  0  0  0  0  0  0  0
  188.2870  177.3970  141.3380 N   0  0  0  0  0  0  0  0  0  0  0  0
  187.1820  178.1510  138.7480 N   0  0  0  0  0  2  0  0  0  0  0  0
  188.5060  178.4680  139.1760 C   0  0  0  0  0  0  0  0  0  0  0  0
  189.2130  179.2670  138.5040 O   0  0  0  0  0  0  0  0  0  0  0  0
  186.6430  178.7180  137.5880 N   0  0  0  0  0  2  0  0  0  0  0  0
  186.7900  178.1480  136.4880 O   0  0  0  0  0  1  0  0  0  0  0  0
  190.6120  175.8640  139.2280 O   0  0  0  0  0  0  0  0  0  0  0  0
  192.5500  177.0600  139.4570 O   0  0  0  0  0  1  0  0  0  0  0  0
  191.2140  176.8350  139.7580 C   0  0  0  0  0  0  0  0  0  0  0  0
  191.5770  176.8300  142.9760 C   0  0  0  0  0  2  0  0  0  0  0  0
  191.6470  177.8160  144.0910 C   0  0  0  0  0  0  0  0  0  0  0  0
  191.6770  179.0480  143.8400 O   0  0  0  0  0  0  0  0  0  0  0  0
  191.7090  177.3640  145.4380 N   0  0  0  0  0  1  0  0  0  0  0  0
  188.6210  176.4070  143.6720 C   0  0  0  0  0  2  0  0  0  0  0  0
  186.0020  178.2660  145.3460 C   0  0  0  0  0  3  0  0  0  0  0  0
  187.4580  177.1710  144.0880 N   0  0  0  0  0  0  0  0  0  0  0  0
  184.2830  178.5830  143.5460 N   0  0  0  0  0  0  0  0  0  0  0  0
  187.2380  177.6400  145.3300 C   0  0  0  0  0  3  0  0  0  0  0  0
  186.4370  177.4420  143.2980 N   0  0  0  0  0  0  0  0  0  0  0  0
  183.4070  179.3850  144.3850 C   0  0  0  0  0  1  0  0  0  0  0  0
  185.5440  178.1110  144.0450 C   0  0  0  0  0  0  0  0  0  0  0  0
  182.4420  178.7420  141.9520 C   0  0  0  0  0  1  0  0  0  0  0  0
  183.8970  178.3630  142.1600 C   0  0  0  0  0  2  0  0  0  0  0  0
  1  3  1  0  0  0  0
  1  5  2  0  0  0  0
  2  4  2  0  0  0  0
  2 14  1  0  0  0  0
  3 13  1  6  0  0  0
  3  2  1  0  0  0  0
  4 18  1  0  0  0  0
  5  4  1  0  0  0  0
  6  7  1  0  0  0  0
  7  1  1  0  0  0  0
  8  7  2  0  0  0  0
  9  6  1  0  0  0  0
 10  9  1  0  0  0  0
 11 13  2  0  0  0  0
 12 13  1  0  0  0  0
 14 15  1  0  0  0  0
 15 17  1  0  0  0  0
 16 15  2  0  0  0  0
 18 20  1  0  0  0  0
 20 22  1  0  0  0  0
 21 25  1  0  0  0  0
 21 24  1  0  0  0  0
 22 19  2  0  0  0  0
 23 25  2  0  0  0  0
 23 20  1  0  0  0  0
 25 19  1  0  0  0  0
 26 27  1  0  0  0  0
 27 21  1  0  0  0  0
M  END
>  <MODEL>
4

>  <REMARK>
 VINA RESULT:      -7.4      2.390      4.126
  Name = 
  8 active torsions:
  status: ('A' for Active; 'I' for Inactive)
    1  A    between atoms: N_1  and  N_13
    2  A    between atoms: C_2  and  C_3
    3  A    between atoms: C_4  and  C_8
    4  A    between atoms: C_8  and  C_9
    5  A    between atoms: N_11  and  C_19
    6  A    between atoms: N_14  and  C_22
    7  A    between atoms: C_17  and  C_26
    8  A    between atoms: C_19  and  C_21
                            x       y       z     vdW  Elec       q    Type
                         _______ _______ _______ _____ _____    ______ ____

>  <TORSDO>
F 8

$$$$
=
 OpenBabel11032419523D

 27 28  0  0  1  0  0  0  0  0999 V2000
  187.2050  177.9640  142.6180 C   0  0  0  0  0  0  0  0  0  0  0  0
  189.0960  176.6820  142.5730 C   0  0  0  0  0  0  0  0  0  0  0  0
  187.9440  176.9770  143.4770 C   0  0  1  0  0  3  0  0  0  0  0  0
  188.9790  177.4130  141.4730 C   0  0  0  0  0  0  0  0  0  0  0  0
  187.7990  178.2010  141.4940 N   0  0  0  0  0  0  0  0  0  0  0  0
  185.2760  178.2360  144.2010 N   0  0  0  0  0  2  0  0  0  0  0  0
  185.9190  178.5820  142.9740 C   0  0  0  0  0  0  0  0  0  0  0  0
  185.3830  179.4140  142.1930 O   0  0  0  0  0  0  0  0  0  0  0  0
  184.0530  178.8120  144.5620 N   0  0  0  0  0  2  0  0  0  0  0  0
  183.7850  179.0030  145.7650 O   0  0  0  0  0  1  0  0  0  0  0  0
  189.2480  178.5440  144.7520 O   0  0  0  0  0  0  0  0  0  0  0  0
  187.9160  177.1320  145.9660 O   0  0  0  0  0  1  0  0  0  0  0  0
  188.4090  177.6040  144.7580 C   0  0  0  0  0  0  0  0  0  0  0  0
  190.1730  175.6780  142.8430 C   0  0  0  0  0  2  0  0  0  0  0  0
  191.3470  176.3230  143.4980 C   0  0  0  0  0  0  0  0  0  0  0  0
  192.0540  177.1400  142.8560 O   0  0  0  0  0  0  0  0  0  0  0  0
  191.6830  175.9940  144.8400 N   0  0  0  0  0  1  0  0  0  0  0  0
  189.8860  177.3460  140.2880 C   0  0  0  0  0  2  0  0  0  0  0  0
  188.2290  178.6320  137.3340 C   0  0  0  0  0  3  0  0  0  0  0  0
  189.1330  177.5990  139.0710 N   0  0  0  0  0  0  0  0  0  0  0  0
  186.8390  176.6910  136.5650 N   0  0  0  0  0  0  0  0  0  0  0  0
  189.0960  178.7680  138.4070 C   0  0  0  0  0  3  0  0  0  0  0  0
  188.3340  176.7130  138.5060 N   0  0  0  0  0  0  0  0  0  0  0  0
  186.3530  177.3800  135.3800 C   0  0  0  0  0  1  0  0  0  0  0  0
  187.7800  177.3240  137.4450 C   0  0  0  0  0  0  0  0  0  0  0  0
  184.9190  175.2130  136.8540 C   0  0  0  0  0  1  0  0  0  0  0  0
  186.4310  175.3090  136.7740 C   0  0  0  0  0  2  0  0  0  0  0  0
  1  7  1  0  0  0  0
  1  3  1  0  0  0  0
  2 14  1  0  0  0  0
  2  3  1  0  0  0  0
  3 13  1  1  0  0  0
  4  5  1  0  0  0  0
  4  2  2  0  0  0  0
  5  1  2  0  0  0  0
  6  9  1  0  0  0  0
  7  6  1  0  0  0  0
  8  7  2  0  0  0  0
  9 10  1  0  0  0  0
 11 13  2  0  0  0  0
 13 12  1  0  0  0  0
 14 15  1  0  0  0  0
 15 17  1  0  0  0  0
 16 15  2  0  0  0  0
 18  4  1  0  0  0  0
 19 25  1  0  0  0  0
 19 22  2  0  0  0  0
 20 18  1  0  0  0  0
 21 27  1  0  0  0  0
 21 25  1  0  0  0  0
 22 20  1  0  0  0  0
 23 20  1  0  0  0  0
 24 21  1  0  0  0  0
 25 23  2  0  0  0  0
 27 26  1  0  0  0  0
M  END
>  <MODEL>
5

>  <REMARK>
 VINA RESULT:      -7.0      3.011      6.530
  Name = 
  8 active torsions:
  status: ('A' for Active; 'I' for Inactive)
    1  A    between atoms: N_1  and  N_13
    2  A    between atoms: C_2  and  C_3
    3  A    between atoms: C_4  and  C_8
    4  A    between atoms: C_8  and  C_9
    5  A    between atoms: N_11  and  C_19
    6  A    between atoms: N_14  and  C_22
    7  A    between atoms: C_17  and  C_26
    8  A    between atoms: C_19  and  C_21
                            x       y       z     vdW  Elec       q    Type
                         _______ _______ _______ _____ _____    ______ ____

>  <TORSDO>
F 8

$$$$
=
 OpenBabel11032419523D

 27 28  0  0  1  0  0  0  0  0999 V2000
  185.4250  178.6230  141.5960 C   0  0  0  0  0  0  0  0  0  0  0  0
  186.6940  177.7070  143.2620 C   0  0  0  0  0  0  0  0  0  0  0  0
  185.2570  177.9110  142.9080 C   0  0  1  0  0  3  0  0  0  0  0  0
  187.4510  178.2490  142.3170 C   0  0  0  0  0  0  0  0  0  0  0  0
  186.6650  178.8070  141.2760 N   0  0  0  0  0  0  0  0  0  0  0  0
  184.5760  179.8710  139.5910 N   0  0  0  0  0  2  0  0  0  0  0  0
  184.3180  179.0420  140.7240 C   0  0  0  0  0  0  0  0  0  0  0  0
  183.1400  178.6710  140.9810 O   0  0  0  0  0  0  0  0  0  0  0  0
  183.5390  180.2800  138.7460 N   0  0  0  0  0  2  0  0  0  0  0  0
  183.0890  181.4400  138.8270 O   0  0  0  0  0  1  0  0  0  0  0  0
  184.9340  179.9710  144.1040 O   0  0  0  0  0  0  0  0  0  0  0  0
  183.5240  178.2570  144.6690 O   0  0  0  0  0  1  0  0  0  0  0  0
  184.5690  178.7800  143.9190 C   0  0  0  0  0  0  0  0  0  0  0  0
  187.1920  176.9600  144.4590 C   0  0  0  0  0  2  0  0  0  0  0  0
  187.6220  177.9020  145.5310 C   0  0  0  0  0  0  0  0  0  0  0  0
  188.8060  178.3250  145.5580 O   0  0  0  0  0  0  0  0  0  0  0  0
  186.7020  178.3010  146.5390 N   0  0  0  0  0  1  0  0  0  0  0  0
  188.9420  178.1860  142.2610 C   0  0  0  0  0  2  0  0  0  0  0  0
  190.4310  176.4930  139.4260 C   0  0  0  0  0  3  0  0  0  0  0  0
  189.3690  177.6680  140.9710 N   0  0  0  0  0  0  0  0  0  0  0  0
  189.4980  177.7390  137.4580 N   0  0  0  0  0  0  0  0  0  0  0  0
  190.2340  176.6540  140.7880 C   0  0  0  0  0  3  0  0  0  0  0  0
  189.0000  178.1860  139.8150 N   0  0  0  0  0  0  0  0  0  0  0  0
  190.1370  176.8740  136.4800 C   0  0  0  0  0  1  0  0  0  0  0  0
  189.6340  177.4800  138.8640 C   0  0  0  0  0  0  0  0  0  0  0  0
  187.5920  178.2480  136.0220 C   0  0  0  0  0  1  0  0  0  0  0  0
  188.6340  178.8060  136.9740 C   0  0  0  0  0  2  0  0  0  0  0  0
  1  3  1  0  0  0  0
  2 14  1  0  0  0  0
  3  2  1  0  0  0  0
  3 13  1  1  0  0  0
  4  2  2  0  0  0  0
  5  1  2  0  0  0  0
  5  4  1  0  0  0  0
  6  7  1  0  0  0  0
  7  8  2  0  0  0  0
  7  1  1  0  0  0  0
  9 10  1  0  0  0  0
  9  6  1  0  0  0  0
 13 11  2  0  0  0  0
 13 12  1  0  0  0  0
 14 15  1  0  0  0  0
 15 16  2  0  0  0  0
 15 17  1  0  0  0  0
 18  4  1  0  0  0  0
 19 22  2  0  0  0  0
 20 18  1  0  0  0  0
 21 25  1  0  0  0  0
 22 20  1  0  0  0  0
 23 20  1  0  0  0  0
 24 21  1  0  0  0  0
 25 19  1  0  0  0  0
 25 23  2  0  0  0  0
 26 27  1  0  0  0  0
 27 21  1  0  0  0  0
M  END
>  <MODEL>
6

>  <REMARK>
 VINA RESULT:      -7.0      2.914      6.360
  Name = 
  8 active torsions:
  status: ('A' for Active; 'I' for Inactive)
    1  A    between atoms: N_1  and  N_13
    2  A    between atoms: C_2  and  C_3
    3  A    between atoms: C_4  and  C_8
    4  A    between atoms: C_8  and  C_9
    5  A    between atoms: N_11  and  C_19
    6  A    between atoms: N_14  and  C_22
    7  A    between atoms: C_17  and  C_26
    8  A    between atoms: C_19  and  C_21
                            x       y       z     vdW  Elec       q    Type
                         _______ _______ _______ _____ _____    ______ ____

>  <TORSDO>
F 8

$$$$
=
 OpenBabel11032419523D

 27 28  0  0  1  0  0  0  0  0999 V2000
  186.2980  178.1790  142.9930 C   0  0  0  0  0  0  0  0  0  0  0  0
  187.7170  178.3220  141.2070 C   0  0  0  0  0  0  0  0  0  0  0  0
  186.4680  178.9600  141.7210 C   0  0  1  0  0  3  0  0  0  0  0  0
  188.0910  177.3690  142.0490 C   0  0  0  0  0  0  0  0  0  0  0  0
  187.2180  177.2860  143.1650 N   0  0  0  0  0  0  0  0  0  0  0  0
  185.5670  178.7750  145.3190 N   0  0  0  0  0  2  0  0  0  0  0  0
  185.2330  178.4100  143.9790 C   0  0  0  0  0  0  0  0  0  0  0  0
  184.0250  178.2830  143.6430 O   0  0  0  0  0  0  0  0  0  0  0  0
  184.5710  179.0030  146.2740 N   0  0  0  0  0  2  0  0  0  0  0  0
  184.5420  178.3230  147.3190 O   0  0  0  0  0  1  0  0  0  0  0  0
  184.7130  177.6300  140.7540 O   0  0  0  0  0  1  0  0  0  0  0  0
  184.9310  179.7530  139.9230 O   0  0  0  0  0  0  0  0  0  0  0  0
  185.3200  178.7340  140.7820 C   0  0  0  0  0  0  0  0  0  0  0  0
  188.4550  178.7360  139.9720 C   0  0  0  0  0  2  0  0  0  0  0  0
  188.2670  177.7370  138.8820 C   0  0  0  0  0  0  0  0  0  0  0  0
  187.1420  177.6070  138.3360 O   0  0  0  0  0  0  0  0  0  0  0  0
  189.3520  176.9110  138.4780 N   0  0  0  0  0  1  0  0  0  0  0  0
  189.3370  176.5520  141.9340 C   0  0  0  0  0  2  0  0  0  0  0  0
  191.6810  176.3780  144.6900 C   0  0  0  0  0  3  0  0  0  0  0  0
  190.0610  176.5720  143.1940 N   0  0  0  0  0  0  0  0  0  0  0  0
  190.2430  176.8250  146.6970 N   0  0  0  0  0  0  0  0  0  0  0  0
  191.3750  176.3180  143.3400 C   0  0  0  0  0  3  0  0  0  0  0  0
  189.4910  176.7800  144.3650 N   0  0  0  0  0  0  0  0  0  0  0  0
  191.3580  176.7900  147.6290 C   0  0  0  0  0  1  0  0  0  0  0  0
  190.4620  176.6700  145.2860 C   0  0  0  0  0  0  0  0  0  0  0  0
  189.0070  178.2000  148.2900 C   0  0  0  0  0  1  0  0  0  0  0  0
  188.9180  177.1290  147.2190 C   0  0  0  0  0  2  0  0  0  0  0  0
  1  5  2  0  0  0  0
  1  7  1  0  0  0  0
  2  3  1  0  0  0  0
  2  4  2  0  0  0  0
  3 13  1  6  0  0  0
  3  1  1  0  0  0  0
  4  5  1  0  0  0  0
  6  9  1  0  0  0  0
  7  6  1  0  0  0  0
  8  7  2  0  0  0  0
  9 10  1  0  0  0  0
 11 13  1  0  0  0  0
 12 13  2  0  0  0  0
 14  2  1  0  0  0  0
 15 14  1  0  0  0  0
 16 15  2  0  0  0  0
 17 15  1  0  0  0  0
 18  4  1  0  0  0  0
 18 20  1  0  0  0  0
 19 25  1  0  0  0  0
 20 22  1  0  0  0  0
 20 23  1  0  0  0  0
 21 27  1  0  0  0  0
 21 24  1  0  0  0  0
 22 19  2  0  0  0  0
 23 25  2  0  0  0  0
 25 21  1  0  0  0  0
 27 26  1  0  0  0  0
M  END
>  <MODEL>
7

>  <REMARK>
 VINA RESULT:      -6.9      2.206      3.474
  Name = 
  8 active torsions:
  status: ('A' for Active; 'I' for Inactive)
    1  A    between atoms: N_1  and  N_13
    2  A    between atoms: C_2  and  C_3
    3  A    between atoms: C_4  and  C_8
    4  A    between atoms: C_8  and  C_9
    5  A    between atoms: N_11  and  C_19
    6  A    between atoms: N_14  and  C_22
    7  A    between atoms: C_17  and  C_26
    8  A    between atoms: C_19  and  C_21
                            x       y       z     vdW  Elec       q    Type
                         _______ _______ _______ _____ _____    ______ ____

>  <TORSDO>
F 8

$$$$
=
 OpenBabel11032419523D

 27 28  0  0  1  0  0  0  0  0999 V2000
  186.9120  178.0080  142.9350 C   0  0  0  0  0  0  0  0  0  0  0  0
  188.8810  177.1760  142.1250 C   0  0  0  0  0  0  0  0  0  0  0  0
  187.9890  177.0300  143.3140 C   0  0  1  0  0  3  0  0  0  0  0  0
  188.3670  178.0870  141.3100 C   0  0  0  0  0  0  0  0  0  0  0  0
  187.1380  178.5960  141.8050 N   0  0  0  0  0  0  0  0  0  0  0  0
  185.8050  178.7520  145.0610 N   0  0  0  0  0  2  0  0  0  0  0  0
  185.6980  178.2610  143.7240 C   0  0  0  0  0  0  0  0  0  0  0  0
  184.5630  178.0400  143.2220 O   0  0  0  0  0  0  0  0  0  0  0  0
  184.6640  179.0030  145.8300 N   0  0  0  0  0  2  0  0  0  0  0  0
  184.5530  178.4960  146.9640 O   0  0  0  0  0  1  0  0  0  0  0  0
  188.6190  176.7500  145.6180 O   0  0  0  0  0  1  0  0  0  0  0  0
  189.4220  178.6290  144.5840 O   0  0  0  0  0  0  0  0  0  0  0  0
  188.6920  177.4490  144.5710 C   0  0  0  0  0  0  0  0  0  0  0  0
  190.1210  176.3770  141.8710 C   0  0  0  0  0  2  0  0  0  0  0  0
  191.3270  177.2530  141.8830 C   0  0  0  0  0  0  0  0  0  0  0  0
  191.9140  177.5290  140.8060 O   0  0  0  0  0  0  0  0  0  0  0  0
  191.8310  177.7540  143.1150 N   0  0  0  0  0  1  0  0  0  0  0  0
  188.9170  178.4620  139.9720 C   0  0  0  0  0  2  0  0  0  0  0  0
  188.3350  175.9640  137.4140 C   0  0  0  0  0  3  0  0  0  0  0  0
  188.4180  177.5500  138.9570 N   0  0  0  0  0  0  0  0  0  0  0  0
  185.9640  176.3970  136.7180 N   0  0  0  0  0  0  0  0  0  0  0  0
  189.1370  176.5800  138.3620 C   0  0  0  0  0  3  0  0  0  0  0  0
  187.2030  177.6120  138.4480 N   0  0  0  0  0  0  0  0  0  0  0  0
  185.9260  175.2790  135.7900 C   0  0  0  0  0  1  0  0  0  0  0  0
  187.1330  176.6520  137.5110 C   0  0  0  0  0  0  0  0  0  0  0  0
  183.7230  176.3910  137.6850 C   0  0  0  0  0  1  0  0  0  0  0  0
  184.7520  177.1830  136.8990 C   0  0  0  0  0  2  0  0  0  0  0  0
  1  3  1  0  0  0  0
  1  7  1  0  0  0  0
  2  3  1  0  0  0  0
  3 13  1  1  0  0  0
  4  5  1  0  0  0  0
  4  2  2  0  0  0  0
  5  1  2  0  0  0  0
  6  9  1  0  0  0  0
  7  6  1  0  0  0  0
  8  7  2  0  0  0  0
  9 10  1  0  0  0  0
 13 12  2  0  0  0  0
 13 11  1  0  0  0  0
 14 15  1  0  0  0  0
 14  2  1  0  0  0  0
 15 17  1  0  0  0  0
 16 15  2  0  0  0  0
 18  4  1  0  0  0  0
 19 25  1  0  0  0  0
 19 22  2  0  0  0  0
 20 18  1  0  0  0  0
 21 27  1  0  0  0  0
 21 25  1  0  0  0  0
 22 20  1  0  0  0  0
 23 20  1  0  0  0  0
 24 21  1  0  0  0  0
 25 23  2  0  0  0  0
 27 26  1  0  0  0  0
M  END
>  <MODEL>
8

>  <REMARK>
 VINA RESULT:      -6.7      3.118      6.457
  Name = 
  8 active torsions:
  status: ('A' for Active; 'I' for Inactive)
    1  A    between atoms: N_1  and  N_13
    2  A    between atoms: C_2  and  C_3
    3  A    between atoms: C_4  and  C_8
    4  A    between atoms: C_8  and  C_9
    5  A    between atoms: N_11  and  C_19
    6  A    between atoms: N_14  and  C_22
    7  A    between atoms: C_17  and  C_26
    8  A    between atoms: C_19  and  C_21
                            x       y       z     vdW  Elec       q    Type
                         _______ _______ _______ _____ _____    ______ ____

>  <TORSDO>
F 8

$$$$
=
 OpenBabel11032419523D

 27 28  0  0  1  0  0  0  0  0999 V2000
  189.1750  177.2780  144.5780 C   0  0  0  0  0  0  0  0  0  0  0  0
  189.4630  176.9320  142.3370 C   0  0  0  0  0  0  0  0  0  0  0  0
  189.8720  176.3310  143.6420 C   0  0  1  0  0  3  0  0  0  0  0  0
  188.7220  178.0070  142.5710 C   0  0  0  0  0  0  0  0  0  0  0  0
  188.5330  178.2170  143.9620 N   0  0  0  0  0  0  0  0  0  0  0  0
  187.9760  177.4210  146.7780 N   0  0  0  0  0  2  0  0  0  0  0  0
  189.1710  177.1530  146.0420 C   0  0  0  0  0  0  0  0  0  0  0  0
  190.2220  176.8130  146.6480 O   0  0  0  0  0  0  0  0  0  0  0  0
  187.9470  177.3060  148.1720 N   0  0  0  0  0  2  0  0  0  0  0  0
  188.3370  178.2530  148.8840 O   0  0  0  0  0  1  0  0  0  0  0  0
  192.0330  175.3280  143.9680 O   0  0  0  0  0  1  0  0  0  0  0  0
  192.0040  177.6140  143.8280 O   0  0  0  0  0  0  0  0  0  0  0  0
  191.3610  176.3840  143.8180 C   0  0  0  0  0  0  0  0  0  0  0  0
  189.7890  176.3730  140.9870 C   0  0  0  0  0  2  0  0  0  0  0  0
  190.7000  177.2860  140.2410 C   0  0  0  0  0  0  0  0  0  0  0  0
  191.8390  177.5530  140.7020 O   0  0  0  0  0  0  0  0  0  0  0  0
  190.2720  177.8780  139.0200 N   0  0  0  0  0  1  0  0  0  0  0  0
  188.0520  178.8410  141.5280 C   0  0  0  0  0  2  0  0  0  0  0  0
  184.5990  178.2530  142.4500 C   0  0  0  0  0  3  0  0  0  0  0  0
  186.6090  178.7250  141.6520 N   0  0  0  0  0  0  0  0  0  0  0  0
  183.3350  178.8930  140.3790 N   0  0  0  0  0  0  0  0  0  0  0  0
  185.9550  178.2640  142.7340 C   0  0  0  0  0  3  0  0  0  0  0  0
  185.7650  179.0040  140.6770 N   0  0  0  0  0  0  0  0  0  0  0  0
  182.0330  178.6650  140.9830 C   0  0  0  0  0  1  0  0  0  0  0  0
  184.5370  178.7260  141.1470 C   0  0  0  0  0  0  0  0  0  0  0  0
  183.2290  178.2530  138.0260 C   0  0  0  0  0  1  0  0  0  0  0  0
  183.3830  179.3960  139.0140 C   0  0  0  0  0  2  0  0  0  0  0  0
  1  7  1  0  0  0  0
  2  4  2  0  0  0  0
  2  3  1  0  0  0  0
  3 13  1  1  0  0  0
  3  1  1  0  0  0  0
  4  5  1  0  0  0  0
  5  1  2  0  0  0  0
  6  9  1  0  0  0  0
  7  8  2  0  0  0  0
  7  6  1  0  0  0  0
  9 10  1  0  0  0  0
 13 12  2  0  0  0  0
 13 11  1  0  0  0  0
 14  2  1  0  0  0  0
 15 16  2  0  0  0  0
 15 14  1  0  0  0  0
 17 15  1  0  0  0  0
 18 20  1  0  0  0  0
 18  4  1  0  0  0  0
 19 22  2  0  0  0  0
 20 22  1  0  0  0  0
 21 24  1  0  0  0  0
 21 25  1  0  0  0  0
 23 25  2  0  0  0  0
 23 20  1  0  0  0  0
 25 19  1  0  0  0  0
 26 27  1  0  0  0  0
 27 21  1  0  0  0  0
M  END
>  <MODEL>
9

>  <REMARK>
 VINA RESULT:      -6.6      3.068      6.351
  Name = 
  8 active torsions:
  status: ('A' for Active; 'I' for Inactive)
    1  A    between atoms: N_1  and  N_13
    2  A    between atoms: C_2  and  C_3
    3  A    between atoms: C_4  and  C_8
    4  A    between atoms: C_8  and  C_9
    5  A    between atoms: N_11  and  C_19
    6  A    between atoms: N_14  and  C_22
    7  A    between atoms: C_17  and  C_26
    8  A    between atoms: C_19  and  C_21
                            x       y       z     vdW  Elec       q    Type
                         _______ _______ _______ _____ _____    ______ ____

>  <TORSDO>
F 8

$$$$
