=
 OpenBabel11032419483D

 27 31  0  0  1  0  0  0  0  0999 V2000
  187.1020  178.0280  142.9700 C   0  0  0  0  0  0  0  0  0  0  0  0
  186.3360  178.6340  146.2350 C   0  0  0  0  0  3  0  0  0  0  0  0
  188.2330  177.5170  143.5550 C   0  0  0  0  0  0  0  0  0  0  0  0
  188.3250  178.3830  140.9260 C   0  0  0  0  0  3  0  0  0  0  0  0
  189.4440  177.4230  142.8690 C   0  0  0  0  0  3  0  0  0  0  0  0
  189.4820  177.8620  141.5360 C   0  0  0  0  0  3  0  0  0  0  0  0
  187.9090  177.1450  144.9200 C   0  0  0  0  0  0  0  0  0  0  0  0
  187.0290  178.5520  147.3430 C   0  0  0  0  0  0  0  0  0  0  0  0
  187.1210  178.4720  141.6430 C   0  0  0  0  0  3  0  0  0  0  0  0
  187.8510  178.3670  148.3420 C   0  0  0  0  0  3  0  0  0  0  0  0
  185.9970  178.0530  143.8810 N   0  0  0  0  0  0  0  0  0  0  0  0
  189.5140  176.9600  146.9640 C   0  0  0  0  0  3  0  0  0  0  0  0
  189.0700  177.6100  148.1740 N   0  0  0  0  0  2  0  0  0  0  0  0
  188.7840  176.9950  145.8820 C   0  0  0  0  0  0  0  0  0  0  0  0
  186.4650  177.5510  145.1830 C   0  0  2  0  0  3  0  0  0  0  0  0
  181.9690  178.9060  142.9590 C   0  0  0  0  0  0  0  0  0  0  0  0
  182.3620  178.9940  144.2910 C   0  0  0  0  0  3  0  0  0  0  0  0
  180.7270  179.1380  142.4220 O   0  0  0  0  0  0  0  0  0  0  0  0
  184.1650  178.2750  142.2370 C   0  0  0  0  0  3  0  0  0  0  0  0
  182.0850  178.5740  140.6880 C   0  0  0  0  0  2  0  0  0  0  0  0
  183.7040  178.7080  144.5920 C   0  0  0  0  0  3  0  0  0  0  0  0
  180.6980  178.9440  141.0480 N   0  0  0  0  0  0  0  0  0  0  0  0
  182.8280  178.5620  141.9740 C   0  0  0  0  0  0  0  0  0  0  0  0
  184.6190  178.3480  143.5720 C   0  0  0  0  0  0  0  0  0  0  0  0
  180.4300  180.2360  140.4350 C   0  0  0  0  0  2  0  0  0  0  0  0
  178.9310  181.8530  140.4680 C   0  0  0  0  0  1  0  0  0  0  0  0
  179.6720  181.0210  141.3040 O   0  0  0  0  0  0  0  0  0  0  0  0
  1  3  1  0  0  0  0
  1 11  1  0  0  0  0
  2  8  2  0  0  0  0
  3  7  1  0  0  0  0
  4  6  2  0  0  0  0
  4  9  1  0  0  0  0
  5  3  2  0  0  0  0
  6  5  1  0  0  0  0
  7 15  1  0  0  0  0
  7 14  2  0  0  0  0
  8 10  2  0  0  0  0
  9  1  2  0  0  0  0
 11 15  1  0  0  0  0
 12 13  1  0  0  0  0
 13 10  1  0  0  0  0
 14 12  2  0  0  0  0
 15  2  1  1  0  0  0
 16 17  1  0  0  0  0
 17 21  2  0  0  0  0
 18 16  1  0  0  0  0
 19 24  2  0  0  0  0
 20 22  1  0  0  0  0
 20 23  1  0  0  0  0
 22 18  1  0  0  0  0
 23 19  1  0  0  0  0
 23 16  2  0  0  0  0
 24 11  1  0  0  0  0
 24 21  1  0  0  0  0
 25 22  1  0  0  0  0
 25 27  1  0  0  0  0
 26 27  1  0  0  0  0
M  END
>  <MODEL>
1

>  <REMARK>
 VINA RESULT:      -9.7      0.000      0.000
  Name = 
  3 active torsions:
  status: ('A' for Active; 'I' for Inactive)
    1  A    between atoms: O_14  and  C_17
    2  A    between atoms: C_17  and  N_24
    3  A    between atoms: N_20  and  C_27
                            x       y       z     vdW  Elec       q    Type
                         _______ _______ _______ _____ _____    ______ ____

>  <TORSDO>
F 3

$$$$
=
 OpenBabel11032419483D

 27 31  0  0  1  0  0  0  0  0999 V2000
  189.1280  177.4360  144.0990 C   0  0  0  0  0  0  0  0  0  0  0  0
  186.3260  178.8940  142.8160 C   0  0  0  0  0  3  0  0  0  0  0  0
  188.3170  177.3520  145.2020 C   0  0  0  0  0  0  0  0  0  0  0  0
  191.0680  177.3440  145.5230 C   0  0  0  0  0  3  0  0  0  0  0  0
  188.8320  177.2690  146.4960 C   0  0  0  0  0  3  0  0  0  0  0  0
  190.2280  177.2640  146.6500 C   0  0  0  0  0  3  0  0  0  0  0  0
  186.9360  177.3790  144.7530 C   0  0  0  0  0  0  0  0  0  0  0  0
  185.2030  179.2940  143.3550 C   0  0  0  0  0  0  0  0  0  0  0  0
  190.5200  177.4330  144.2320 C   0  0  0  0  0  3  0  0  0  0  0  0
  184.1370  179.5880  144.0520 C   0  0  0  0  0  3  0  0  0  0  0  0
  188.3690  177.5460  142.8890 N   0  0  0  0  0  0  0  0  0  0  0  0
  184.8260  178.1460  146.0750 C   0  0  0  0  0  3  0  0  0  0  0  0
  183.9440  179.0530  145.3800 N   0  0  0  0  0  2  0  0  0  0  0  0
  185.9130  177.7030  145.5020 C   0  0  0  0  0  0  0  0  0  0  0  0
  186.9410  177.5760  143.2440 C   0  0  2  0  0  3  0  0  0  0  0  0
  189.8200  177.3430  138.9320 C   0  0  0  0  0  0  0  0  0  0  0  0
  190.4970  176.6190  139.9080 C   0  0  0  0  0  3  0  0  0  0  0  0
  190.1000  177.4300  137.5900 O   0  0  0  0  0  0  0  0  0  0  0  0
  188.2210  178.1850  140.5060 C   0  0  0  0  0  3  0  0  0  0  0  0
  188.2620  178.7180  137.9510 C   0  0  0  0  0  2  0  0  0  0  0  0
  190.0090  176.6900  141.2230 C   0  0  0  0  0  3  0  0  0  0  0  0
  189.2140  178.2580  136.9150 N   0  0  0  0  0  0  0  0  0  0  0  0
  188.7320  178.0940  139.2140 C   0  0  0  0  0  0  0  0  0  0  0  0
  188.8690  177.4710  141.5370 C   0  0  0  0  0  0  0  0  0  0  0  0
  188.4640  177.4240  135.9880 C   0  0  0  0  0  2  0  0  0  0  0  0
  186.8610  178.0210  134.5960 C   0  0  0  0  0  1  0  0  0  0  0  0
  187.1340  177.8420  135.9510 O   0  0  0  0  0  0  0  0  0  0  0  0
  1  9  2  0  0  0  0
  1  3  1  0  0  0  0
  2  8  2  0  0  0  0
  3  5  2  0  0  0  0
  4  6  2  0  0  0  0
  5  6  1  0  0  0  0
  7  3  1  0  0  0  0
  7 14  2  0  0  0  0
  8 10  2  0  0  0  0
  9  4  1  0  0  0  0
 10 13  1  0  0  0  0
 11 15  1  0  0  0  0
 11  1  1  0  0  0  0
 13 12  1  0  0  0  0
 14 12  2  0  0  0  0
 15  2  1  1  0  0  0
 15  7  1  0  0  0  0
 16 23  2  0  0  0  0
 16 17  1  0  0  0  0
 17 21  2  0  0  0  0
 18 16  1  0  0  0  0
 19 24  2  0  0  0  0
 20 23  1  0  0  0  0
 21 24  1  0  0  0  0
 22 18  1  0  0  0  0
 22 20  1  0  0  0  0
 23 19  1  0  0  0  0
 24 11  1  0  0  0  0
 25 22  1  0  0  0  0
 26 27  1  0  0  0  0
 27 25  1  0  0  0  0
M  END
>  <MODEL>
2

>  <REMARK>
 VINA RESULT:      -9.4      3.774      6.396
  Name = 
  3 active torsions:
  status: ('A' for Active; 'I' for Inactive)
    1  A    between atoms: O_14  and  C_17
    2  A    between atoms: C_17  and  N_24
    3  A    between atoms: N_20  and  C_27
                            x       y       z     vdW  Elec       q    Type
                         _______ _______ _______ _____ _____    ______ ____

>  <TORSDO>
F 3

$$$$
=
 OpenBabel11032419483D

 27 31  0  0  1  0  0  0  0  0999 V2000
  187.3150  178.0050  146.2610 C   0  0  0  0  0  0  0  0  0  0  0  0
  188.2290  176.5710  143.3070 C   0  0  0  0  0  3  0  0  0  0  0  0
  188.6680  177.9200  146.4720 C   0  0  0  0  0  0  0  0  0  0  0  0
  186.9480  178.0270  148.6410 C   0  0  0  0  0  3  0  0  0  0  0  0
  189.2160  177.8780  147.7540 C   0  0  0  0  0  3  0  0  0  0  0  0
  188.3380  177.9340  148.8480 C   0  0  0  0  0  3  0  0  0  0  0  0
  189.3270  177.8780  145.1790 C   0  0  0  0  0  0  0  0  0  0  0  0
  189.3520  176.0560  142.8770 C   0  0  0  0  0  0  0  0  0  0  0  0
  186.4240  178.0610  147.3380 C   0  0  0  0  0  3  0  0  0  0  0  0
  190.5580  175.6300  142.6030 C   0  0  0  0  0  3  0  0  0  0  0  0
  186.9930  178.0000  144.8650 N   0  0  0  0  0  0  0  0  0  0  0  0
  191.6510  176.8600  144.5870 C   0  0  0  0  0  3  0  0  0  0  0  0
  191.6830  175.9970  143.4300 N   0  0  0  0  0  2  0  0  0  0  0  0
  190.5350  177.4190  144.9710 C   0  0  0  0  0  0  0  0  0  0  0  0
  188.2470  177.8580  144.1070 C   0  0  2  0  0  3  0  0  0  0  0  0
  183.2330  178.7370  143.0980 C   0  0  0  0  0  0  0  0  0  0  0  0
  183.3790  179.0200  144.4520 C   0  0  0  0  0  3  0  0  0  0  0  0
  182.1190  178.8940  142.3120 O   0  0  0  0  0  0  0  0  0  0  0  0
  185.5000  177.9880  142.8960 C   0  0  0  0  0  3  0  0  0  0  0  0
  183.7490  178.0670  140.9610 C   0  0  0  0  0  2  0  0  0  0  0  0
  184.6340  178.7730  145.0350 C   0  0  0  0  0  3  0  0  0  0  0  0
  182.3330  178.4970  141.0000 N   0  0  0  0  0  0  0  0  0  0  0  0
  184.2450  178.2420  142.3510 C   0  0  0  0  0  0  0  0  0  0  0  0
  185.7060  178.2560  144.2660 C   0  0  0  0  0  0  0  0  0  0  0  0
  182.2270  179.6840  140.1660 C   0  0  0  0  0  2  0  0  0  0  0  0
  181.9460  179.4590  137.9900 C   0  0  0  0  0  1  0  0  0  0  0  0
  182.9290  179.4880  138.9770 O   0  0  0  0  0  0  0  0  0  0  0  0
  1  3  2  0  0  0  0
  1  9  1  0  0  0  0
  3  5  1  0  0  0  0
  4  6  1  0  0  0  0
  5  6  2  0  0  0  0
  7  3  1  0  0  0  0
  8  2  2  0  0  0  0
  9  4  2  0  0  0  0
 10  8  2  0  0  0  0
 10 13  1  0  0  0  0
 11  1  1  0  0  0  0
 12 14  2  0  0  0  0
 13 12  1  0  0  0  0
 14  7  2  0  0  0  0
 15  2  1  1  0  0  0
 15 11  1  0  0  0  0
 15  7  1  0  0  0  0
 16 17  1  0  0  0  0
 17 21  2  0  0  0  0
 18 16  1  0  0  0  0
 19 24  2  0  0  0  0
 20 22  1  0  0  0  0
 20 23  1  0  0  0  0
 22 18  1  0  0  0  0
 23 19  1  0  0  0  0
 23 16  2  0  0  0  0
 24 11  1  0  0  0  0
 24 21  1  0  0  0  0
 25 22  1  0  0  0  0
 26 27  1  0  0  0  0
 27 25  1  0  0  0  0
M  END
>  <MODEL>
3

>  <REMARK>
 VINA RESULT:      -9.3      1.933      3.874
  Name = 
  3 active torsions:
  status: ('A' for Active; 'I' for Inactive)
    1  A    between atoms: O_14  and  C_17
    2  A    between atoms: C_17  and  N_24
    3  A    between atoms: N_20  and  C_27
                            x       y       z     vdW  Elec       q    Type
                         _______ _______ _______ _____ _____    ______ ____

>  <TORSDO>
F 3

$$$$
=
 OpenBabel11032419483D

 27 31  0  0  1  0  0  0  0  0999 V2000
  187.6940  177.8170  145.4610 C   0  0  0  0  0  0  0  0  0  0  0  0
  188.1120  177.2870  142.1200 C   0  0  0  0  0  3  0  0  0  0  0  0
  189.0640  177.8650  145.4050 C   0  0  0  0  0  0  0  0  0  0  0  0
  187.8150  177.2040  147.7870 C   0  0  0  0  0  3  0  0  0  0  0  0
  189.8610  177.5830  146.5140 C   0  0  0  0  0  3  0  0  0  0  0  0
  189.2200  177.2510  147.7190 C   0  0  0  0  0  3  0  0  0  0  0  0
  189.4500  178.2300  144.0540 C   0  0  0  0  0  0  0  0  0  0  0  0
  189.1650  177.0490  141.3800 C   0  0  0  0  0  0  0  0  0  0  0  0
  187.0380  177.4870  146.6520 C   0  0  0  0  0  3  0  0  0  0  0  0
  190.3210  176.8690  140.7990 C   0  0  0  0  0  3  0  0  0  0  0  0
  187.0990  178.1120  144.1920 N   0  0  0  0  0  0  0  0  0  0  0  0
  191.6850  177.7090  142.8190 C   0  0  0  0  0  3  0  0  0  0  0  0
  191.5560  177.1690  141.4870 N   0  0  0  0  0  2  0  0  0  0  0  0
  190.6250  178.0020  143.5250 C   0  0  0  0  0  0  0  0  0  0  0  0
  188.1820  178.3300  143.2180 C   0  0  2  0  0  3  0  0  0  0  0  0
  183.0110  178.7450  143.3650 C   0  0  0  0  0  0  0  0  0  0  0  0
  183.4610  179.0160  144.6530 C   0  0  0  0  0  3  0  0  0  0  0  0
  181.7390  178.8750  142.8640 O   0  0  0  0  0  0  0  0  0  0  0  0
  185.1890  178.0740  142.6250 C   0  0  0  0  0  3  0  0  0  0  0  0
  183.0320  178.1180  141.1540 C   0  0  0  0  0  2  0  0  0  0  0  0
  184.8230  178.8040  144.9220 C   0  0  0  0  0  3  0  0  0  0  0  0
  181.6530  178.5010  141.5300 N   0  0  0  0  0  0  0  0  0  0  0  0
  183.8330  178.2930  142.3930 C   0  0  0  0  0  0  0  0  0  0  0  0
  185.7010  178.3320  143.9150 C   0  0  0  0  0  0  0  0  0  0  0  0
  181.3190  179.6930  140.7670 C   0  0  0  0  0  2  0  0  0  0  0  0
  179.6370  181.0870  140.4630 C   0  0  0  0  0  1  0  0  0  0  0  0
  180.3700  180.4450  141.4590 O   0  0  0  0  0  0  0  0  0  0  0  0
  1  9  1  0  0  0  0
  3  1  2  0  0  0  0
  3  5  1  0  0  0  0
  5  6  2  0  0  0  0
  6  4  1  0  0  0  0
  7  3  1  0  0  0  0
  8  2  2  0  0  0  0
  9  4  2  0  0  0  0
 10  8  2  0  0  0  0
 10 13  1  0  0  0  0
 11  1  1  0  0  0  0
 12 14  2  0  0  0  0
 13 12  1  0  0  0  0
 14  7  2  0  0  0  0
 15  2  1  6  0  0  0
 15  7  1  0  0  0  0
 15 11  1  0  0  0  0
 16 17  1  0  0  0  0
 17 21  2  0  0  0  0
 18 16  1  0  0  0  0
 19 24  2  0  0  0  0
 20 22  1  0  0  0  0
 20 23  1  0  0  0  0
 22 18  1  0  0  0  0
 23 19  1  0  0  0  0
 23 16  2  0  0  0  0
 24 11  1  0  0  0  0
 24 21  1  0  0  0  0
 25 27  1  0  0  0  0
 25 22  1  0  0  0  0
 26 27  1  0  0  0  0
M  END
>  <MODEL>
4

>  <REMARK>
 VINA RESULT:      -9.3      1.641      3.745
  Name = 
  3 active torsions:
  status: ('A' for Active; 'I' for Inactive)
    1  A    between atoms: O_14  and  C_17
    2  A    between atoms: C_17  and  N_24
    3  A    between atoms: N_20  and  C_27
                            x       y       z     vdW  Elec       q    Type
                         _______ _______ _______ _____ _____    ______ ____

>  <TORSDO>
F 3

$$$$
=
 OpenBabel11032419483D

 27 31  0  0  1  0  0  0  0  0999 V2000
  187.2710  178.0750  146.0340 C   0  0  0  0  0  0  0  0  0  0  0  0
  188.3590  176.3790  143.2850 C   0  0  0  0  0  3  0  0  0  0  0  0
  188.5960  177.9530  146.3670 C   0  0  0  0  0  0  0  0  0  0  0  0
  186.7090  178.2960  148.3660 C   0  0  0  0  0  3  0  0  0  0  0  0
  189.0330  177.9880  147.6910 C   0  0  0  0  0  3  0  0  0  0  0  0
  188.0710  178.1650  148.6980 C   0  0  0  0  0  3  0  0  0  0  0  0
  189.3580  177.7830  145.1430 C   0  0  0  0  0  0  0  0  0  0  0  0
  189.4890  175.7870  142.9930 C   0  0  0  0  0  0  0  0  0  0  0  0
  186.2970  178.2500  147.0240 C   0  0  0  0  0  3  0  0  0  0  0  0
  190.6920  175.2940  142.8560 C   0  0  0  0  0  3  0  0  0  0  0  0
  187.0660  177.9740  144.6200 N   0  0  0  0  0  0  0  0  0  0  0  0
  191.6730  176.6300  144.8310 C   0  0  0  0  0  3  0  0  0  0  0  0
  191.7610  175.6790  143.7480 N   0  0  0  0  0  2  0  0  0  0  0  0
  190.5560  177.2620  145.0740 C   0  0  0  0  0  0  0  0  0  0  0  0
  188.3700  177.7230  143.9850 C   0  0  2  0  0  3  0  0  0  0  0  0
  183.4900  178.7410  142.5170 C   0  0  0  0  0  0  0  0  0  0  0  0
  184.6420  178.5080  141.7730 C   0  0  0  0  0  3  0  0  0  0  0  0
  182.2220  179.0070  142.0610 O   0  0  0  0  0  0  0  0  0  0  0  0
  184.6460  178.4760  144.5990 C   0  0  0  0  0  3  0  0  0  0  0  0
  182.1040  179.0040  144.3310 C   0  0  0  0  0  2  0  0  0  0  0  0
  185.8300  178.2530  142.4790 C   0  0  0  0  0  3  0  0  0  0  0  0
  181.3150  179.1980  143.0940 N   0  0  0  0  0  0  0  0  0  0  0  0
  183.4880  178.7270  143.8680 C   0  0  0  0  0  0  0  0  0  0  0  0
  185.8460  178.2330  143.8950 C   0  0  0  0  0  0  0  0  0  0  0  0
  180.3510  178.1100  143.0290 C   0  0  0  0  0  2  0  0  0  0  0  0
  178.9310  178.5480  141.4000 C   0  0  0  0  0  1  0  0  0  0  0  0
  179.0780  178.6240  142.7840 O   0  0  0  0  0  0  0  0  0  0  0  0
  1  3  2  0  0  0  0
  1  9  1  0  0  0  0
  3  5  1  0  0  0  0
  4  6  1  0  0  0  0
  5  6  2  0  0  0  0
  7  3  1  0  0  0  0
  8  2  2  0  0  0  0
  9  4  2  0  0  0  0
 10  8  2  0  0  0  0
 10 13  1  0  0  0  0
 11  1  1  0  0  0  0
 12 14  2  0  0  0  0
 13 12  1  0  0  0  0
 14  7  2  0  0  0  0
 15  2  1  1  0  0  0
 15 11  1  0  0  0  0
 15  7  1  0  0  0  0
 16 23  1  0  0  0  0
 17 21  1  0  0  0  0
 17 16  2  0  0  0  0
 18 16  1  0  0  0  0
 18 22  1  0  0  0  0
 21 24  2  0  0  0  0
 22 20  1  0  0  0  0
 23 20  1  0  0  0  0
 23 19  2  0  0  0  0
 24 19  1  0  0  0  0
 24 11  1  0  0  0  0
 25 22  1  0  0  0  0
 26 27  1  0  0  0  0
 27 25  1  0  0  0  0
M  END
>  <MODEL>
5

>  <REMARK>
 VINA RESULT:      -9.3      1.843      3.946
  Name = 
  3 active torsions:
  status: ('A' for Active; 'I' for Inactive)
    1  A    between atoms: O_14  and  C_17
    2  A    between atoms: C_17  and  N_24
    3  A    between atoms: N_20  and  C_27
                            x       y       z     vdW  Elec       q    Type
                         _______ _______ _______ _____ _____    ______ ____

>  <TORSDO>
F 3

$$$$
=
 OpenBabel11032419483D

 27 31  0  0  1  0  0  0  0  0999 V2000
  188.0060  177.7390  143.7060 C   0  0  0  0  0  0  0  0  0  0  0  0
  191.0200  176.2220  144.1840 C   0  0  0  0  0  3  0  0  0  0  0  0
  188.1150  177.9010  145.0640 C   0  0  0  0  0  0  0  0  0  0  0  0
  185.6100  177.9090  143.8820 C   0  0  0  0  0  3  0  0  0  0  0  0
  186.9980  178.0640  145.8820 C   0  0  0  0  0  3  0  0  0  0  0  0
  185.7320  178.0700  145.2750 C   0  0  0  0  0  3  0  0  0  0  0  0
  189.5240  177.8550  145.4140 C   0  0  0  0  0  0  0  0  0  0  0  0
  191.6780  175.8660  145.2580 C   0  0  0  0  0  0  0  0  0  0  0  0
  186.7530  177.7400  143.0830 C   0  0  0  0  0  3  0  0  0  0  0  0
  192.2080  175.6260  146.4290 C   0  0  0  0  0  3  0  0  0  0  0  0
  189.2850  177.5570  143.0870 N   0  0  0  0  0  0  0  0  0  0  0  0
  190.5970  177.1910  147.6940 C   0  0  0  0  0  3  0  0  0  0  0  0
  191.6870  176.2480  147.6240 N   0  0  0  0  0  2  0  0  0  0  0  0
  189.9880  177.5880  146.6080 C   0  0  0  0  0  0  0  0  0  0  0  0
  190.3100  177.5600  144.1440 C   0  0  2  0  0  3  0  0  0  0  0  0
  190.1180  177.5190  138.9510 C   0  0  0  0  0  0  0  0  0  0  0  0
  191.1400  177.1540  139.8210 C   0  0  0  0  0  3  0  0  0  0  0  0
  190.1500  177.5790  137.5800 O   0  0  0  0  0  0  0  0  0  0  0  0
  188.5760  177.9000  140.7450 C   0  0  0  0  0  3  0  0  0  0  0  0
  188.0520  178.1930  138.2050 C   0  0  0  0  0  2  0  0  0  0  0  0
  190.8570  177.1690  141.1980 C   0  0  0  0  0  3  0  0  0  0  0  0
  188.9420  177.9960  137.0380 N   0  0  0  0  0  0  0  0  0  0  0  0
  188.8910  177.8770  139.3890 C   0  0  0  0  0  0  0  0  0  0  0  0
  189.5760  177.5400  141.6750 C   0  0  0  0  0  0  0  0  0  0  0  0
  188.4030  176.8810  136.2750 C   0  0  0  0  0  2  0  0  0  0  0  0
  187.2560  175.0580  136.7480 C   0  0  0  0  0  1  0  0  0  0  0  0
  187.2120  176.4460  136.8560 O   0  0  0  0  0  0  0  0  0  0  0  0
  1  3  1  0  0  0  0
  2  8  2  0  0  0  0
  3  7  1  0  0  0  0
  3  5  2  0  0  0  0
  4  6  2  0  0  0  0
  6  5  1  0  0  0  0
  7 14  2  0  0  0  0
  8 10  2  0  0  0  0
  9  1  2  0  0  0  0
  9  4  1  0  0  0  0
 10 13  1  0  0  0  0
 11  1  1  0  0  0  0
 11 15  1  0  0  0  0
 13 12  1  0  0  0  0
 14 12  2  0  0  0  0
 15  2  1  1  0  0  0
 15  7  1  0  0  0  0
 16 23  2  0  0  0  0
 16 17  1  0  0  0  0
 17 21  2  0  0  0  0
 18 16  1  0  0  0  0
 19 24  2  0  0  0  0
 20 23  1  0  0  0  0
 21 24  1  0  0  0  0
 22 18  1  0  0  0  0
 22 20  1  0  0  0  0
 23 19  1  0  0  0  0
 24 11  1  0  0  0  0
 25 27  1  0  0  0  0
 25 22  1  0  0  0  0
 26 27  1  0  0  0  0
M  END
>  <MODEL>
6

>  <REMARK>
 VINA RESULT:      -9.2      4.243      6.414
  Name = 
  3 active torsions:
  status: ('A' for Active; 'I' for Inactive)
    1  A    between atoms: O_14  and  C_17
    2  A    between atoms: C_17  and  N_24
    3  A    between atoms: N_20  and  C_27
                            x       y       z     vdW  Elec       q    Type
                         _______ _______ _______ _____ _____    ______ ____

>  <TORSDO>
F 3

$$$$
=
 OpenBabel11032419483D

 27 31  0  0  1  0  0  0  0  0999 V2000
  186.7530  178.1870  145.2340 C   0  0  0  0  0  0  0  0  0  0  0  0
  188.5140  176.5160  142.8430 C   0  0  0  0  0  3  0  0  0  0  0  0
  187.9470  178.0580  145.8980 C   0  0  0  0  0  0  0  0  0  0  0  0
  185.6080  178.3870  147.3440 C   0  0  0  0  0  3  0  0  0  0  0  0
  188.0270  178.0790  147.2900 C   0  0  0  0  0  3  0  0  0  0  0  0
  186.8370  178.2480  148.0160 C   0  0  0  0  0  3  0  0  0  0  0  0
  188.9990  177.8990  144.9100 C   0  0  0  0  0  0  0  0  0  0  0  0
  189.6810  175.9240  142.8460 C   0  0  0  0  0  0  0  0  0  0  0  0
  185.5570  178.3560  145.9410 C   0  0  0  0  0  3  0  0  0  0  0  0
  190.8780  175.4280  143.0200 C   0  0  0  0  0  3  0  0  0  0  0  0
  186.9210  178.1010  143.8150 N   0  0  0  0  0  0  0  0  0  0  0  0
  191.3160  176.7410  145.1950 C   0  0  0  0  0  3  0  0  0  0  0  0
  191.6800  175.8010  144.1620 N   0  0  0  0  0  2  0  0  0  0  0  0
  190.1740  177.3740  145.1480 C   0  0  0  0  0  0  0  0  0  0  0  0
  188.3450  177.8530  143.5360 C   0  0  2  0  0  3  0  0  0  0  0  0
  184.0090  178.8960  140.8670 C   0  0  0  0  0  0  0  0  0  0  0  0
  185.3460  178.9480  140.4870 C   0  0  0  0  0  3  0  0  0  0  0  0
  182.8960  179.1130  140.0920 O   0  0  0  0  0  0  0  0  0  0  0  0
  184.5570  178.3330  143.1300 C   0  0  0  0  0  3  0  0  0  0  0  0
  182.1430  178.6280  142.1820 C   0  0  0  0  0  2  0  0  0  0  0  0
  186.3110  178.6820  141.4730 C   0  0  0  0  0  3  0  0  0  0  0  0
  181.7150  178.9870  140.8110 N   0  0  0  0  0  0  0  0  0  0  0  0
  183.6280  178.6040  142.1300 C   0  0  0  0  0  0  0  0  0  0  0  0
  185.9300  178.3720  142.8020 C   0  0  0  0  0  0  0  0  0  0  0  0
  181.0020  177.8390  140.2730 C   0  0  0  0  0  2  0  0  0  0  0  0
  178.9770  176.9720  140.3710 C   0  0  0  0  0  1  0  0  0  0  0  0
  180.0180  177.4320  141.1740 O   0  0  0  0  0  0  0  0  0  0  0  0
  1  3  2  0  0  0  0
  1  9  1  0  0  0  0
  2  8  2  0  0  0  0
  3  5  1  0  0  0  0
  4  6  1  0  0  0  0
  5  6  2  0  0  0  0
  7 14  2  0  0  0  0
  7  3  1  0  0  0  0
  8 10  2  0  0  0  0
  9  4  2  0  0  0  0
 10 13  1  0  0  0  0
 11  1  1  0  0  0  0
 13 12  1  0  0  0  0
 14 12  2  0  0  0  0
 15  2  1  1  0  0  0
 15 11  1  0  0  0  0
 15  7  1  0  0  0  0
 16 23  1  0  0  0  0
 17 16  2  0  0  0  0
 17 21  1  0  0  0  0
 18 22  1  0  0  0  0
 18 16  1  0  0  0  0
 21 24  2  0  0  0  0
 22 20  1  0  0  0  0
 23 20  1  0  0  0  0
 23 19  2  0  0  0  0
 24 19  1  0  0  0  0
 24 11  1  0  0  0  0
 25 22  1  0  0  0  0
 25 27  1  0  0  0  0
 26 27  1  0  0  0  0
M  END
>  <MODEL>
7

>  <REMARK>
 VINA RESULT:      -9.2      1.970      3.876
  Name = 
  3 active torsions:
  status: ('A' for Active; 'I' for Inactive)
    1  A    between atoms: O_14  and  C_17
    2  A    between atoms: C_17  and  N_24
    3  A    between atoms: N_20  and  C_27
                            x       y       z     vdW  Elec       q    Type
                         _______ _______ _______ _____ _____    ______ ____

>  <TORSDO>
F 3

$$$$
=
 OpenBabel11032419483D

 27 31  0  0  1  0  0  0  0  0999 V2000
  188.1440  177.8270  141.6670 C   0  0  0  0  0  0  0  0  0  0  0  0
  188.5410  177.8200  145.0520 C   0  0  0  0  0  3  0  0  0  0  0  0
  189.3590  177.1920  141.7400 C   0  0  0  0  0  0  0  0  0  0  0  0
  188.6560  178.5390  139.4240 C   0  0  0  0  0  3  0  0  0  0  0  0
  190.2660  177.2060  140.6810 C   0  0  0  0  0  3  0  0  0  0  0  0
  189.9020  177.8890  139.5100 C   0  0  0  0  0  3  0  0  0  0  0  0
  189.4700  176.5750  143.0500 C   0  0  0  0  0  0  0  0  0  0  0  0
  189.5480  177.5150  145.8300 C   0  0  0  0  0  0  0  0  0  0  0  0
  187.7640  178.5130  140.5080 C   0  0  0  0  0  3  0  0  0  0  0  0
  190.6330  177.1290  146.4470 C   0  0  0  0  0  3  0  0  0  0  0  0
  187.4040  177.7000  142.8860 N   0  0  0  0  0  0  0  0  0  0  0  0
  191.6340  175.9750  144.3700 C   0  0  0  0  0  3  0  0  0  0  0  0
  191.6640  176.3930  145.7510 N   0  0  0  0  0  2  0  0  0  0  0  0
  190.5950  176.2290  143.6190 C   0  0  0  0  0  0  0  0  0  0  0  0
  188.2290  176.9520  143.8480 C   0  0  2  0  0  3  0  0  0  0  0  0
  183.3790  178.7860  143.5370 C   0  0  0  0  0  0  0  0  0  0  0  0
  184.2820  178.9940  144.5750 C   0  0  0  0  0  3  0  0  0  0  0  0
  182.0340  179.0610  143.5130 O   0  0  0  0  0  0  0  0  0  0  0  0
  185.0690  177.8880  142.0960 C   0  0  0  0  0  3  0  0  0  0  0  0
  182.5500  178.1840  141.4810 C   0  0  0  0  0  2  0  0  0  0  0  0
  185.6210  178.6300  144.3520 C   0  0  0  0  0  3  0  0  0  0  0  0
  181.4420  178.7120  142.3070 N   0  0  0  0  0  0  0  0  0  0  0  0
  183.7520  178.2570  142.3510 C   0  0  0  0  0  0  0  0  0  0  0  0
  186.0300  178.0760  143.1140 C   0  0  0  0  0  0  0  0  0  0  0  0
  180.9880  179.9420  141.6770 C   0  0  0  0  0  2  0  0  0  0  0  0
  179.1520  181.1460  141.4770 C   0  0  0  0  0  1  0  0  0  0  0  0
  179.9450  180.4940  142.4190 O   0  0  0  0  0  0  0  0  0  0  0  0
  1  3  1  0  0  0  0
  1 11  1  0  0  0  0
  2  8  2  0  0  0  0
  3  7  1  0  0  0  0
  4  6  2  0  0  0  0
  4  9  1  0  0  0  0
  5  3  2  0  0  0  0
  6  5  1  0  0  0  0
  7 14  2  0  0  0  0
  7 15  1  0  0  0  0
  8 10  2  0  0  0  0
  9  1  2  0  0  0  0
 11 24  1  0  0  0  0
 11 15  1  0  0  0  0
 12 13  1  0  0  0  0
 13 10  1  0  0  0  0
 14 12  2  0  0  0  0
 15  2  1  1  0  0  0
 16 17  1  0  0  0  0
 18 16  1  0  0  0  0
 19 23  1  0  0  0  0
 19 24  2  0  0  0  0
 20 22  1  0  0  0  0
 20 23  1  0  0  0  0
 21 17  2  0  0  0  0
 22 18  1  0  0  0  0
 23 16  2  0  0  0  0
 24 21  1  0  0  0  0
 25 22  1  0  0  0  0
 25 27  1  0  0  0  0
 26 27  1  0  0  0  0
M  END
>  <MODEL>
8

>  <REMARK>
 VINA RESULT:      -9.1      1.578      2.161
  Name = 
  3 active torsions:
  status: ('A' for Active; 'I' for Inactive)
    1  A    between atoms: O_14  and  C_17
    2  A    between atoms: C_17  and  N_24
    3  A    between atoms: N_20  and  C_27
                            x       y       z     vdW  Elec       q    Type
                         _______ _______ _______ _____ _____    ______ ____

>  <TORSDO>
F 3

$$$$
=
 OpenBabel11032419483D

 27 31  0  0  1  0  0  0  0  0999 V2000
  188.7610  177.5040  144.9230 C   0  0  0  0  0  0  0  0  0  0  0  0
  186.1170  178.8240  143.2240 C   0  0  0  0  0  3  0  0  0  0  0  0
  187.8240  177.4750  145.9250 C   0  0  0  0  0  0  0  0  0  0  0  0
  190.5170  177.5400  146.5710 C   0  0  0  0  0  3  0  0  0  0  0  0
  188.1820  177.4830  147.2740 C   0  0  0  0  0  3  0  0  0  0  0  0
  189.5490  177.5140  147.5920 C   0  0  0  0  0  3  0  0  0  0  0  0
  186.5070  177.4470  145.3150 C   0  0  0  0  0  0  0  0  0  0  0  0
  184.9330  179.2360  143.5990 C   0  0  0  0  0  0  0  0  0  0  0  0
  190.1270  177.5370  145.2210 C   0  0  0  0  0  3  0  0  0  0  0  0
  183.7880  179.5530  144.1440 C   0  0  0  0  0  3  0  0  0  0  0  0
  188.1520  177.5230  143.6270 N   0  0  0  0  0  0  0  0  0  0  0  0
  184.2450  178.2550  146.3240 C   0  0  0  0  0  3  0  0  0  0  0  0
  183.4430  179.0990  145.4710 N   0  0  0  0  0  2  0  0  0  0  0  0
  185.3980  177.7980  145.9140 C   0  0  0  0  0  0  0  0  0  0  0  0
  186.6910  177.5480  143.8070 C   0  0  2  0  0  3  0  0  0  0  0  0
  190.0700  177.1000  139.8930 C   0  0  0  0  0  0  0  0  0  0  0  0
  190.5780  176.3780  140.9670 C   0  0  0  0  0  3  0  0  0  0  0  0
  190.5190  177.1230  138.5950 O   0  0  0  0  0  0  0  0  0  0  0  0
  188.3380  178.0810  141.2260 C   0  0  0  0  0  3  0  0  0  0  0  0
  188.7270  178.5180  138.6820 C   0  0  0  0  0  2  0  0  0  0  0  0
  189.9350  176.5220  142.2080 C   0  0  0  0  0  3  0  0  0  0  0  0
  189.7730  177.9710  137.7890 N   0  0  0  0  0  0  0  0  0  0  0  0
  189.0000  177.9160  140.0130 C   0  0  0  0  0  0  0  0  0  0  0  0
  188.8110  177.3720  142.3520 C   0  0  0  0  0  0  0  0  0  0  0  0
  189.0980  177.1450  136.8000 C   0  0  0  0  0  2  0  0  0  0  0  0
  187.1650  176.3720  136.0750 C   0  0  0  0  0  1  0  0  0  0  0  0
  187.7830  176.9110  137.2010 O   0  0  0  0  0  0  0  0  0  0  0  0
  1  9  2  0  0  0  0
  1  3  1  0  0  0  0
  2  8  2  0  0  0  0
  3  5  2  0  0  0  0
  4  6  2  0  0  0  0
  5  6  1  0  0  0  0
  7 14  2  0  0  0  0
  7  3  1  0  0  0  0
  8 10  2  0  0  0  0
  9  4  1  0  0  0  0
 10 13  1  0  0  0  0
 11 15  1  0  0  0  0
 11  1  1  0  0  0  0
 13 12  1  0  0  0  0
 14 12  2  0  0  0  0
 15  2  1  1  0  0  0
 15  7  1  0  0  0  0
 16 23  2  0  0  0  0
 16 17  1  0  0  0  0
 17 21  2  0  0  0  0
 18 16  1  0  0  0  0
 19 24  2  0  0  0  0
 20 23  1  0  0  0  0
 21 24  1  0  0  0  0
 22 18  1  0  0  0  0
 22 20  1  0  0  0  0
 23 19  1  0  0  0  0
 24 11  1  0  0  0  0
 25 27  1  0  0  0  0
 25 22  1  0  0  0  0
 26 27  1  0  0  0  0
M  END
>  <MODEL>
9

>  <REMARK>
 VINA RESULT:      -9.1      3.621      6.530
  Name = 
  3 active torsions:
  status: ('A' for Active; 'I' for Inactive)
    1  A    between atoms: O_14  and  C_17
    2  A    between atoms: C_17  and  N_24
    3  A    between atoms: N_20  and  C_27
                            x       y       z     vdW  Elec       q    Type
                         _______ _______ _______ _____ _____    ______ ____

>  <TORSDO>
F 3

$$$$
