=
 OpenBabel11042412283D

 27 31  0  0  1  0  0  0  0  0999 V2000
  186.6430  177.6320  144.6370 C   0  0  0  0  0  3  0  0  0  0  0  0
  187.9900  177.2760  144.6760 C   0  0  0  0  0  0  0  0  0  0  0  0
  188.1260  177.6240  142.2790 C   0  0  0  0  0  0  0  0  0  0  0  0
  188.7360  177.2730  143.4910 C   0  0  0  0  0  3  0  0  0  0  0  0
  186.0520  177.9820  143.4170 C   0  0  0  0  0  0  0  0  0  0  0  0
  186.8070  177.9690  142.2830 N   0  0  0  0  0  0  0  0  0  0  0  0
  190.0010  176.8320  140.8360 C   0  0  0  0  0  0  0  0  0  0  0  0
  190.7570  176.8510  139.5740 C   0  0  0  0  0  3  0  0  0  0  0  0
  190.4420  175.9680  141.8330 O   0  0  0  0  0  1  0  0  0  0  0  0
  188.9970  179.2200  137.6840 O   0  0  0  0  0  0  0  0  0  0  0  0
  190.4220  177.6210  138.5880 N   0  0  0  0  0  0  0  0  0  0  0  0
  188.9220  177.6290  141.0170 C   0  0  0  0  0  0  0  0  0  0  0  0
  188.4830  178.5860  139.9250 C   0  0  0  0  0  2  0  0  0  0  0  0
  189.2990  178.5000  138.6710 C   0  0  0  0  0  0  0  0  0  0  0  0
  182.5680  179.0780  144.4350 C   0  0  0  0  0  3  0  0  0  0  0  0
  184.6250  178.3650  143.3490 C   0  0  0  0  0  0  0  0  0  0  0  0
  180.4800  179.4710  143.1200 C   0  0  0  0  0  1  0  0  0  0  0  0
  183.9160  178.7190  144.5090 C   0  0  0  0  0  3  0  0  0  0  0  0
  183.9580  178.3770  142.1140 C   0  0  0  0  0  3  0  0  0  0  0  0
  182.6100  178.7370  142.0390 C   0  0  0  0  0  3  0  0  0  0  0  0
  181.9150  179.0880  143.1990 C   0  0  0  0  0  0  0  0  0  0  0  0
  188.4040  178.7890  148.4100 C   0  0  0  0  0  2  0  0  0  0  0  0
  189.6380  177.9260  146.4290 C   0  0  0  0  0  2  0  0  0  0  0  0
  188.6110  176.9050  145.9870 C   0  0  1  0  0  3  0  0  0  0  0  0
  188.2920  177.2780  148.3670 C   0  0  2  0  0  3  0  0  0  0  0  0
  189.5860  177.9600  147.9460 C   0  0  2  0  0  3  0  0  0  0  0  0
  187.5840  176.8420  147.0950 C   0  0  0  0  0  2  0  0  0  0  0  0
  1  2  1  0  0  0  0
  3  6  2  0  0  0  0
  3  4  1  0  0  0  0
  4  2  2  0  0  0  0
  5  1  2  0  0  0  0
  6  5  1  0  0  0  0
  7 12  2  0  0  0  0
  7  9  1  0  0  0  0
  8  7  1  0  0  0  0
 10 14  2  0  0  0  0
 11 14  1  0  0  0  0
 11  8  2  0  0  0  0
 12  3  1  0  0  0  0
 13 12  1  0  0  0  0
 14 13  1  0  0  0  0
 15 18  1  0  0  0  0
 16  5  1  0  0  0  0
 16 18  2  0  0  0  0
 17 21  1  0  0  0  0
 19 16  1  0  0  0  0
 20 19  2  0  0  0  0
 20 21  1  0  0  0  0
 21 15  2  0  0  0  0
 24  2  1  6  0  0  0
 24 23  1  0  0  0  0
 24 27  1  0  0  0  0
 25 27  1  6  0  0  0
 25 22  1  0  0  0  0
 26 23  1  6  0  0  0
 26 25  1  0  0  0  0
 26 22  1  0  0  0  0
M  END
>  <MODEL>
1

>  <REMARK>
 VINA RESULT:     -10.2      0.000      0.000
  Name = 
  3 active torsions:
  status: ('A' for Active; 'I' for Inactive)
    1  A    between atoms: C_5  and  C_11
    2  A    between atoms: C_6  and  C_17
    3  A    between atoms: C_7  and  C_18
                            x       y       z     vdW  Elec       q    Type
                         _______ _______ _______ _____ _____    ______ ____

>  <TORSDO>
F 3

$$$$
=
 OpenBabel11042412283D

 27 31  0  0  1  0  0  0  0  0999 V2000
  189.1860  177.8390  142.1800 C   0  0  0  0  0  3  0  0  0  0  0  0
  188.3210  178.2450  141.1650 C   0  0  0  0  0  0  0  0  0  0  0  0
  186.4930  178.2470  142.7600 C   0  0  0  0  0  0  0  0  0  0  0  0
  186.9680  178.4520  141.4570 C   0  0  0  0  0  3  0  0  0  0  0  0
  188.6940  177.6420  143.4760 C   0  0  0  0  0  0  0  0  0  0  0  0
  187.3710  177.8530  143.7250 N   0  0  0  0  0  0  0  0  0  0  0  0
  184.6170  178.7450  144.3270 C   0  0  0  0  0  0  0  0  0  0  0  0
  183.1900  178.9800  144.6020 C   0  0  0  0  0  3  0  0  0  0  0  0
  185.4940  178.8080  145.4040 O   0  0  0  0  0  1  0  0  0  0  0  0
  181.7540  178.6600  141.4210 O   0  0  0  0  0  0  0  0  0  0  0  0
  182.2990  178.9440  143.6630 N   0  0  0  0  0  0  0  0  0  0  0  0
  185.0520  178.4760  143.0740 C   0  0  0  0  0  0  0  0  0  0  0  0
  184.0680  178.3810  141.9230 C   0  0  0  0  0  2  0  0  0  0  0  0
  182.6480  178.6700  142.3050 C   0  0  0  0  0  0  0  0  0  0  0  0
  190.0360  176.8710  146.9370 C   0  0  0  0  0  3  0  0  0  0  0  0
  189.5920  177.2110  144.5700 C   0  0  0  0  0  0  0  0  0  0  0  0
  192.2220  175.9550  147.7250 C   0  0  0  0  0  1  0  0  0  0  0  0
  189.1800  177.2790  145.9110 C   0  0  0  0  0  3  0  0  0  0  0  0
  190.8760  176.7270  144.2760 C   0  0  0  0  0  3  0  0  0  0  0  0
  191.7320  176.3190  145.3030 C   0  0  0  0  0  3  0  0  0  0  0  0
  191.3120  176.3910  146.6330 C   0  0  0  0  0  0  0  0  0  0  0  0
  189.1170  176.0940  137.8270 C   0  0  0  0  0  2  0  0  0  0  0  0
  190.0970  177.6180  139.5330 C   0  0  0  0  0  2  0  0  0  0  0  0
  188.8600  178.4540  139.7840 C   0  0  1  0  0  3  0  0  0  0  0  0
  188.6660  177.5150  137.5510 C   0  0  2  0  0  3  0  0  0  0  0  0
  190.0750  177.2470  138.0610 C   0  0  2  0  0  3  0  0  0  0  0  0
  187.8610  178.0460  138.7250 C   0  0  0  0  0  2  0  0  0  0  0  0
  1  5  1  0  0  0  0
  2  4  1  0  0  0  0
  2  1  2  0  0  0  0
  3 12  1  0  0  0  0
  3  6  1  0  0  0  0
  4  3  2  0  0  0  0
  5  6  2  0  0  0  0
  5 16  1  0  0  0  0
  7  8  1  0  0  0  0
  7  9  1  0  0  0  0
 10 14  2  0  0  0  0
 11  8  2  0  0  0  0
 12  7  2  0  0  0  0
 13 14  1  0  0  0  0
 13 12  1  0  0  0  0
 14 11  1  0  0  0  0
 16 18  1  0  0  0  0
 18 15  2  0  0  0  0
 19 16  2  0  0  0  0
 19 20  1  0  0  0  0
 20 21  2  0  0  0  0
 21 15  1  0  0  0  0
 21 17  1  0  0  0  0
 23 24  1  0  0  0  0
 24  2  1  1  0  0  0
 25 22  1  1  0  0  0
 25 26  1  0  0  0  0
 25 27  1  0  0  0  0
 26 22  1  1  0  0  0
 26 23  1  0  0  0  0
 27 24  1  0  0  0  0
M  END
>  <MODEL>
2

>  <REMARK>
 VINA RESULT:     -10.2      2.684      7.556
  Name = 
  3 active torsions:
  status: ('A' for Active; 'I' for Inactive)
    1  A    between atoms: C_5  and  C_11
    2  A    between atoms: C_6  and  C_17
    3  A    between atoms: C_7  and  C_18
                            x       y       z     vdW  Elec       q    Type
                         _______ _______ _______ _____ _____    ______ ____

>  <TORSDO>
F 3

$$$$
=
 OpenBabel11042412283D

 27 31  0  0  1  0  0  0  0  0999 V2000
  186.7270  177.6810  144.5070 C   0  0  0  0  0  3  0  0  0  0  0  0
  188.0800  177.3460  144.5160 C   0  0  0  0  0  0  0  0  0  0  0  0
  188.1510  177.6770  142.1140 C   0  0  0  0  0  0  0  0  0  0  0  0
  188.7960  177.3460  143.3130 C   0  0  0  0  0  3  0  0  0  0  0  0
  186.1000  178.0120  143.2990 C   0  0  0  0  0  0  0  0  0  0  0  0
  186.8270  178.0020  142.1470 N   0  0  0  0  0  0  0  0  0  0  0  0
  188.3750  178.1140  139.6670 C   0  0  0  0  0  0  0  0  0  0  0  0
  189.1600  178.1230  138.4230 C   0  0  0  0  0  3  0  0  0  0  0  0
  187.0590  178.5590  139.5970 O   0  0  0  0  0  1  0  0  0  0  0  0
  192.2660  176.9000  139.4890 O   0  0  0  0  0  0  0  0  0  0  0  0
  190.3930  177.7280  138.3900 N   0  0  0  0  0  0  0  0  0  0  0  0
  188.9160  177.6850  140.8320 C   0  0  0  0  0  0  0  0  0  0  0  0
  190.3430  177.1740  140.8730 C   0  0  0  0  0  2  0  0  0  0  0  0
  191.0620  177.2580  139.5610 C   0  0  0  0  0  0  0  0  0  0  0  0
  182.6050  178.7480  142.0270 C   0  0  0  0  0  3  0  0  0  0  0  0
  184.6660  178.3720  143.2640 C   0  0  0  0  0  0  0  0  0  0  0  0
  180.5020  179.4220  143.1940 C   0  0  0  0  0  1  0  0  0  0  0  0
  183.9600  178.4060  142.0500 C   0  0  0  0  0  3  0  0  0  0  0  0
  183.9910  178.6880  144.4540 C   0  0  0  0  0  3  0  0  0  0  0  0
  182.6360  179.0290  144.4310 C   0  0  0  0  0  3  0  0  0  0  0  0
  181.9430  179.0590  143.2180 C   0  0  0  0  0  0  0  0  0  0  0  0
  188.1300  178.6020  148.3660 C   0  0  0  0  0  2  0  0  0  0  0  0
  189.5410  178.1550  146.3660 C   0  0  0  0  0  2  0  0  0  0  0  0
  188.7380  176.9960  145.8140 C   0  0  1  0  0  3  0  0  0  0  0  0
  188.3130  177.1060  148.2040 C   0  0  2  0  0  3  0  0  0  0  0  0
  189.4580  178.0540  147.8790 C   0  0  2  0  0  3  0  0  0  0  0  0
  187.7240  176.6470  146.8800 C   0  0  0  0  0  2  0  0  0  0  0  0
  1  2  1  0  0  0  0
  3  6  2  0  0  0  0
  3  4  1  0  0  0  0
  4  2  2  0  0  0  0
  5  1  2  0  0  0  0
  6  5  1  0  0  0  0
  7 12  2  0  0  0  0
  8  7  1  0  0  0  0
  9  7  1  0  0  0  0
 10 14  2  0  0  0  0
 11  8  2  0  0  0  0
 11 14  1  0  0  0  0
 12 13  1  0  0  0  0
 12  3  1  0  0  0  0
 14 13  1  0  0  0  0
 15 18  2  0  0  0  0
 15 21  1  0  0  0  0
 16  5  1  0  0  0  0
 16 19  2  0  0  0  0
 17 21  1  0  0  0  0
 18 16  1  0  0  0  0
 20 19  1  0  0  0  0
 21 20  2  0  0  0  0
 24  2  1  6  0  0  0
 24 23  1  0  0  0  0
 24 27  1  0  0  0  0
 25 27  1  6  0  0  0
 25 22  1  0  0  0  0
 26 23  1  6  0  0  0
 26 25  1  0  0  0  0
 26 22  1  0  0  0  0
M  END
>  <MODEL>
3

>  <REMARK>
 VINA RESULT:     -10.0      0.845      1.821
  Name = 
  3 active torsions:
  status: ('A' for Active; 'I' for Inactive)
    1  A    between atoms: C_5  and  C_11
    2  A    between atoms: C_6  and  C_17
    3  A    between atoms: C_7  and  C_18
                            x       y       z     vdW  Elec       q    Type
                         _______ _______ _______ _____ _____    ______ ____

>  <TORSDO>
F 3

$$$$
=
 OpenBabel11042412283D

 27 31  0  0  1  0  0  0  0  0999 V2000
  188.0740  178.1050  144.2530 C   0  0  0  0  0  3  0  0  0  0  0  0
  189.4360  177.9120  144.0280 C   0  0  0  0  0  0  0  0  0  0  0  0
  188.9860  177.6900  141.6540 C   0  0  0  0  0  0  0  0  0  0  0  0
  189.8950  177.7050  142.7210 C   0  0  0  0  0  3  0  0  0  0  0  0
  187.1820  178.0900  143.1730 C   0  0  0  0  0  0  0  0  0  0  0  0
  187.6620  177.8860  141.9150 N   0  0  0  0  0  0  0  0  0  0  0  0
  188.7830  177.9010  139.1760 C   0  0  0  0  0  0  0  0  0  0  0  0
  189.2990  177.6890  137.8150 C   0  0  0  0  0  3  0  0  0  0  0  0
  187.5580  178.5460  139.3020 O   0  0  0  0  0  1  0  0  0  0  0  0
  192.3450  176.0620  138.4150 O   0  0  0  0  0  0  0  0  0  0  0  0
  190.4320  177.0980  137.5980 N   0  0  0  0  0  0  0  0  0  0  0  0
  189.4760  177.4780  140.2600 C   0  0  0  0  0  0  0  0  0  0  0  0
  190.7940  176.7470  140.0920 C   0  0  0  0  0  2  0  0  0  0  0  0
  191.2440  176.6150  138.6690 C   0  0  0  0  0  0  0  0  0  0  0  0
  183.8430  178.7020  144.8630 C   0  0  0  0  0  3  0  0  0  0  0  0
  185.7320  178.2930  143.3850 C   0  0  0  0  0  0  0  0  0  0  0  0
  181.5170  178.8800  143.9690 C   0  0  0  0  0  1  0  0  0  0  0  0
  185.2140  178.5110  144.6730 C   0  0  0  0  0  3  0  0  0  0  0  0
  184.8520  178.2700  142.2920 C   0  0  0  0  0  3  0  0  0  0  0  0
  183.4800  178.4600  142.4820 C   0  0  0  0  0  3  0  0  0  0  0  0
  182.9760  178.6760  143.7670 C   0  0  0  0  0  0  0  0  0  0  0  0
  190.7310  175.4470  146.9680 C   0  0  0  0  0  2  0  0  0  0  0  0
  189.6670  177.6460  146.4950 C   0  0  0  0  0  2  0  0  0  0  0  0
  190.3790  177.9320  145.1900 C   0  0  1  0  0  3  0  0  0  0  0  0
  191.7830  176.4180  146.4710 C   0  0  2  0  0  3  0  0  0  0  0  0
  190.6600  176.9060  147.3740 C   0  0  2  0  0  3  0  0  0  0  0  0
  191.4510  176.8730  145.0600 C   0  0  0  0  0  2  0  0  0  0  0  0
  2  1  1  0  0  0  0
  3  6  2  0  0  0  0
  3  4  1  0  0  0  0
  4  2  2  0  0  0  0
  5 16  1  0  0  0  0
  5  1  2  0  0  0  0
  6  5  1  0  0  0  0
  7  9  1  0  0  0  0
  7 12  2  0  0  0  0
  8  7  1  0  0  0  0
 10 14  2  0  0  0  0
 11  8  2  0  0  0  0
 11 14  1  0  0  0  0
 12  3  1  0  0  0  0
 13 12  1  0  0  0  0
 14 13  1  0  0  0  0
 16 18  2  0  0  0  0
 18 15  1  0  0  0  0
 19 20  2  0  0  0  0
 19 16  1  0  0  0  0
 20 21  1  0  0  0  0
 21 17  1  0  0  0  0
 21 15  2  0  0  0  0
 22 26  1  0  0  0  0
 24  2  1  6  0  0  0
 24 23  1  0  0  0  0
 25 27  1  6  0  0  0
 25 22  1  0  0  0  0
 25 26  1  0  0  0  0
 26 23  1  6  0  0  0
 27 24  1  0  0  0  0
M  END
>  <MODEL>
4

>  <REMARK>
 VINA RESULT:      -9.8      1.533      2.402
  Name = 
  3 active torsions:
  status: ('A' for Active; 'I' for Inactive)
    1  A    between atoms: C_5  and  C_11
    2  A    between atoms: C_6  and  C_17
    3  A    between atoms: C_7  and  C_18
                            x       y       z     vdW  Elec       q    Type
                         _______ _______ _______ _____ _____    ______ ____

>  <TORSDO>
F 3

$$$$
=
 OpenBabel11042412283D

 27 31  0  0  1  0  0  0  0  0999 V2000
  186.6480  178.5140  141.3800 C   0  0  0  0  0  3  0  0  0  0  0  0
  188.0290  178.3350  141.3440 C   0  0  0  0  0  0  0  0  0  0  0  0
  188.0060  177.8630  143.7230 C   0  0  0  0  0  0  0  0  0  0  0  0
  188.7120  178.0060  142.5210 C   0  0  0  0  0  3  0  0  0  0  0  0
  185.9590  178.3650  142.5910 C   0  0  0  0  0  0  0  0  0  0  0  0
  186.6550  178.0440  143.7170 N   0  0  0  0  0  0  0  0  0  0  0  0
  188.1280  177.5020  146.1890 C   0  0  0  0  0  0  0  0  0  0  0  0
  188.8680  177.1300  147.4050 C   0  0  0  0  0  3  0  0  0  0  0  0
  186.7910  177.8540  146.3360 O   0  0  0  0  0  1  0  0  0  0  0  0
  192.0560  176.3970  146.1470 O   0  0  0  0  0  0  0  0  0  0  0  0
  190.1160  176.7870  147.3670 N   0  0  0  0  0  0  0  0  0  0  0  0
  188.7320  177.5050  144.9760 C   0  0  0  0  0  0  0  0  0  0  0  0
  190.2010  177.1490  144.8500 C   0  0  0  0  0  2  0  0  0  0  0  0
  190.8490  176.7530  146.1420 C   0  0  0  0  0  0  0  0  0  0  0  0
  182.3160  178.6280  141.5720 C   0  0  0  0  0  3  0  0  0  0  0  0
  184.4930  178.5490  142.6560 C   0  0  0  0  0  0  0  0  0  0  0  0
  180.2370  179.0900  142.8780 C   0  0  0  0  0  1  0  0  0  0  0  0
  183.7010  178.4510  141.5000 C   0  0  0  0  0  3  0  0  0  0  0  0
  183.8740  178.8270  143.8850 C   0  0  0  0  0  3  0  0  0  0  0  0
  182.4890  179.0030  143.9570 C   0  0  0  0  0  3  0  0  0  0  0  0
  181.7110  178.9030  142.8010 C   0  0  0  0  0  0  0  0  0  0  0  0
  188.9220  176.1660  138.0410 C   0  0  0  0  0  2  0  0  0  0  0  0
  189.8870  177.5020  139.9060 C   0  0  0  0  0  2  0  0  0  0  0  0
  188.7530  178.4960  140.0430 C   0  0  1  0  0  3  0  0  0  0  0  0
  188.7030  177.6410  137.7690 C   0  0  2  0  0  3  0  0  0  0  0  0
  189.9920  177.1690  138.4280 C   0  0  2  0  0  3  0  0  0  0  0  0
  187.8420  178.2530  138.8610 C   0  0  0  0  0  2  0  0  0  0  0  0
  1  5  1  0  0  0  0
  2  1  2  0  0  0  0
  2  4  1  0  0  0  0
  3 12  1  0  0  0  0
  4  3  2  0  0  0  0
  5 16  1  0  0  0  0
  5  6  2  0  0  0  0
  6  3  1  0  0  0  0
  7  9  1  0  0  0  0
  7  8  1  0  0  0  0
 11  8  2  0  0  0  0
 12  7  2  0  0  0  0
 13 12  1  0  0  0  0
 13 14  1  0  0  0  0
 14 10  2  0  0  0  0
 14 11  1  0  0  0  0
 15 21  1  0  0  0  0
 16 19  2  0  0  0  0
 18 15  2  0  0  0  0
 18 16  1  0  0  0  0
 19 20  1  0  0  0  0
 21 17  1  0  0  0  0
 21 20  2  0  0  0  0
 23 24  1  0  0  0  0
 24  2  1  1  0  0  0
 25 22  1  1  0  0  0
 25 26  1  0  0  0  0
 25 27  1  0  0  0  0
 26 22  1  1  0  0  0
 26 23  1  0  0  0  0
 27 24  1  0  0  0  0
M  END
>  <MODEL>
5

>  <REMARK>
 VINA RESULT:      -9.7      2.517      5.878
  Name = 
  3 active torsions:
  status: ('A' for Active; 'I' for Inactive)
    1  A    between atoms: C_5  and  C_11
    2  A    between atoms: C_6  and  C_17
    3  A    between atoms: C_7  and  C_18
                            x       y       z     vdW  Elec       q    Type
                         _______ _______ _______ _____ _____    ______ ____

>  <TORSDO>
F 3

$$$$
=
 OpenBabel11042412283D

 27 31  0  0  1  0  0  0  0  0999 V2000
  187.5990  178.2310  144.4510 C   0  0  0  0  0  3  0  0  0  0  0  0
  188.9720  178.0460  144.2970 C   0  0  0  0  0  0  0  0  0  0  0  0
  188.6560  177.8950  141.8960 C   0  0  0  0  0  0  0  0  0  0  0  0
  189.5030  177.8790  143.0130 C   0  0  0  0  0  3  0  0  0  0  0  0
  186.7680  178.2470  143.3240 C   0  0  0  0  0  0  0  0  0  0  0  0
  187.3190  178.0810  142.0890 N   0  0  0  0  0  0  0  0  0  0  0  0
  190.1900  176.8200  140.2490 C   0  0  0  0  0  0  0  0  0  0  0  0
  190.7190  176.6680  138.8840 C   0  0  0  0  0  3  0  0  0  0  0  0
  190.7270  176.0030  141.2380 O   0  0  0  0  0  1  0  0  0  0  0  0
  188.8500  179.0280  137.0900 O   0  0  0  0  0  0  0  0  0  0  0  0
  190.2800  177.3830  137.8970 N   0  0  0  0  0  0  0  0  0  0  0  0
  189.2220  177.7260  140.5270 C   0  0  0  0  0  0  0  0  0  0  0  0
  188.6790  178.6280  139.4350 C   0  0  0  0  0  2  0  0  0  0  0  0
  189.2600  178.3660  138.0780 C   0  0  0  0  0  0  0  0  0  0  0  0
  183.3400  178.8110  144.8420 C   0  0  0  0  0  3  0  0  0  0  0  0
  185.3080  178.4420  143.4610 C   0  0  0  0  0  0  0  0  0  0  0  0
  181.0660  179.0060  143.8270 C   0  0  0  0  0  1  0  0  0  0  0  0
  184.7200  178.6270  144.7230 C   0  0  0  0  0  3  0  0  0  0  0  0
  184.4890  178.4430  142.3210 C   0  0  0  0  0  3  0  0  0  0  0  0
  183.1090  178.6260  142.4400 C   0  0  0  0  0  3  0  0  0  0  0  0
  182.5340  178.8100  143.7010 C   0  0  0  0  0  0  0  0  0  0  0  0
  191.0330  175.3940  146.5600 C   0  0  0  0  0  2  0  0  0  0  0  0
  189.2770  177.1570  146.6050 C   0  0  0  0  0  2  0  0  0  0  0  0
  189.8490  178.0320  145.5100 C   0  0  1  0  0  3  0  0  0  0  0  0
  191.6870  176.7580  146.4610 C   0  0  2  0  0  3  0  0  0  0  0  0
  190.4630  176.5610  147.3440 C   0  0  2  0  0  3  0  0  0  0  0  0
  191.2200  177.4720  145.2030 C   0  0  0  0  0  2  0  0  0  0  0  0
  2  1  1  0  0  0  0
  3  6  2  0  0  0  0
  3  4  1  0  0  0  0
  4  2  2  0  0  0  0
  5 16  1  0  0  0  0
  5  1  2  0  0  0  0
  6  5  1  0  0  0  0
  7 12  2  0  0  0  0
  7  9  1  0  0  0  0
  8  7  1  0  0  0  0
 10 14  2  0  0  0  0
 11 14  1  0  0  0  0
 11  8  2  0  0  0  0
 12  3  1  0  0  0  0
 13 12  1  0  0  0  0
 14 13  1  0  0  0  0
 16 18  2  0  0  0  0
 18 15  1  0  0  0  0
 19 20  2  0  0  0  0
 19 16  1  0  0  0  0
 20 21  1  0  0  0  0
 21 17  1  0  0  0  0
 21 15  2  0  0  0  0
 23 26  1  0  0  0  0
 24  2  1  6  0  0  0
 24 23  1  0  0  0  0
 25 27  1  6  0  0  0
 25 22  1  0  0  0  0
 25 26  1  0  0  0  0
 26 22  1  6  0  0  0
 27 24  1  0  0  0  0
M  END
>  <MODEL>
6

>  <REMARK>
 VINA RESULT:      -9.6      1.142      1.664
  Name = 
  3 active torsions:
  status: ('A' for Active; 'I' for Inactive)
    1  A    between atoms: C_5  and  C_11
    2  A    between atoms: C_6  and  C_17
    3  A    between atoms: C_7  and  C_18
                            x       y       z     vdW  Elec       q    Type
                         _______ _______ _______ _____ _____    ______ ____

>  <TORSDO>
F 3

$$$$
=
 OpenBabel11042412283D

 27 31  0  0  1  0  0  0  0  0999 V2000
  188.0320  177.5850  144.1220 C   0  0  0  0  0  3  0  0  0  0  0  0
  186.8240  177.7090  144.8060 C   0  0  0  0  0  0  0  0  0  0  0  0
  185.7280  178.2730  142.7170 C   0  0  0  0  0  0  0  0  0  0  0  0
  185.6660  178.0540  144.1000 C   0  0  0  0  0  3  0  0  0  0  0  0
  188.0750  177.8050  142.7400 C   0  0  0  0  0  0  0  0  0  0  0  0
  186.9280  178.1380  142.0830 N   0  0  0  0  0  0  0  0  0  0  0  0
  184.5150  178.9620  140.6490 C   0  0  0  0  0  0  0  0  0  0  0  0
  183.2760  179.2980  139.9280 C   0  0  0  0  0  3  0  0  0  0  0  0
  185.7040  179.0030  139.9290 O   0  0  0  0  0  1  0  0  0  0  0  0
  180.8400  178.9340  142.4210 O   0  0  0  0  0  0  0  0  0  0  0  0
  182.1210  179.2860  140.5140 N   0  0  0  0  0  0  0  0  0  0  0  0
  184.4920  178.6320  141.9620 C   0  0  0  0  0  0  0  0  0  0  0  0
  183.1850  178.6280  142.7300 C   0  0  0  0  0  2  0  0  0  0  0  0
  181.9820  178.9500  141.8950 C   0  0  0  0  0  0  0  0  0  0  0  0
  190.5550  177.4910  139.8890 C   0  0  0  0  0  3  0  0  0  0  0  0
  189.3440  177.6790  141.9910 C   0  0  0  0  0  0  0  0  0  0  0  0
  193.0460  177.3100  139.8440 C   0  0  0  0  0  1  0  0  0  0  0  0
  189.3500  177.6120  140.5880 C   0  0  0  0  0  3  0  0  0  0  0  0
  190.5650  177.6230  142.6810 C   0  0  0  0  0  3  0  0  0  0  0  0
  191.7690  177.5030  141.9820 C   0  0  0  0  0  3  0  0  0  0  0  0
  191.7640  177.4370  140.5870 C   0  0  0  0  0  0  0  0  0  0  0  0
  188.9880  178.6180  148.1070 C   0  0  0  0  0  2  0  0  0  0  0  0
  188.0380  176.7530  146.7620 C   0  0  0  0  0  2  0  0  0  0  0  0
  186.7930  177.4690  146.2830 C   0  0  1  0  0  3  0  0  0  0  0  0
  187.4950  178.5290  148.3540 C   0  0  2  0  0  3  0  0  0  0  0  0
  188.3140  177.2610  148.1660 C   0  0  2  0  0  3  0  0  0  0  0  0
  186.7350  178.7660  147.0600 C   0  0  0  0  0  2  0  0  0  0  0  0
  1  2  1  0  0  0  0
  3  4  1  0  0  0  0
  4  2  2  0  0  0  0
  5  1  2  0  0  0  0
  6  3  2  0  0  0  0
  6  5  1  0  0  0  0
  7 12  2  0  0  0  0
  8 11  2  0  0  0  0
  8  7  1  0  0  0  0
  9  7  1  0  0  0  0
 11 14  1  0  0  0  0
 12  3  1  0  0  0  0
 12 13  1  0  0  0  0
 14 10  2  0  0  0  0
 14 13  1  0  0  0  0
 15 21  2  0  0  0  0
 15 18  1  0  0  0  0
 16 19  1  0  0  0  0
 16  5  1  0  0  0  0
 17 21  1  0  0  0  0
 18 16  2  0  0  0  0
 20 19  2  0  0  0  0
 21 20  1  0  0  0  0
 22 26  1  0  0  0  0
 22 25  1  0  0  0  0
 24  2  1  6  0  0  0
 24 23  1  0  0  0  0
 24 27  1  0  0  0  0
 25 27  1  6  0  0  0
 26 23  1  6  0  0  0
 26 25  1  0  0  0  0
M  END
>  <MODEL>
7

>  <REMARK>
 VINA RESULT:      -9.5      2.512      6.170
  Name = 
  3 active torsions:
  status: ('A' for Active; 'I' for Inactive)
    1  A    between atoms: C_5  and  C_11
    2  A    between atoms: C_6  and  C_17
    3  A    between atoms: C_7  and  C_18
                            x       y       z     vdW  Elec       q    Type
                         _______ _______ _______ _____ _____    ______ ____

>  <TORSDO>
F 3

$$$$
=
 OpenBabel11042412283D

 27 31  0  0  1  0  0  0  0  0999 V2000
  190.2190  177.3670  143.1910 C   0  0  0  0  0  3  0  0  0  0  0  0
  190.0620  177.4530  144.5730 C   0  0  0  0  0  0  0  0  0  0  0  0
  187.7040  177.9250  144.2520 C   0  0  0  0  0  0  0  0  0  0  0  0
  188.7980  177.7320  145.1060 C   0  0  0  0  0  3  0  0  0  0  0  0
  189.1140  177.5590  142.3520 C   0  0  0  0  0  0  0  0  0  0  0  0
  187.8970  177.8290  142.9050 N   0  0  0  0  0  0  0  0  0  0  0  0
  186.0860  178.1020  146.1420 C   0  0  0  0  0  0  0  0  0  0  0  0
  184.7480  178.4070  146.6730 C   0  0  0  0  0  3  0  0  0  0  0  0
  187.0560  177.6920  147.0490 O   0  0  0  0  0  1  0  0  0  0  0  0
  182.9950  179.3480  143.7880 O   0  0  0  0  0  0  0  0  0  0  0  0
  183.7810  178.7980  145.9050 N   0  0  0  0  0  0  0  0  0  0  0  0
  186.3550  178.2130  144.8190 C   0  0  0  0  0  0  0  0  0  0  0  0
  185.2690  178.6310  143.8470 C   0  0  0  0  0  2  0  0  0  0  0  0
  183.9560  178.9510  144.4950 C   0  0  0  0  0  0  0  0  0  0  0  0
  190.4450  176.6960  138.9090 C   0  0  0  0  0  3  0  0  0  0  0  0
  189.2530  177.4720  140.8830 C   0  0  0  0  0  0  0  0  0  0  0  0
  189.6310  177.2370  136.6100 C   0  0  0  0  0  1  0  0  0  0  0  0
  190.3220  176.7720  140.2990 C   0  0  0  0  0  3  0  0  0  0  0  0
  188.3100  178.0940  140.0490 C   0  0  0  0  0  3  0  0  0  0  0  0
  188.4330  178.0170  138.6590 C   0  0  0  0  0  3  0  0  0  0  0  0
  189.5010  177.3180  138.0890 C   0  0  0  0  0  0  0  0  0  0  0  0
  191.2510  175.0240  147.5880 C   0  0  0  0  0  2  0  0  0  0  0  0
  190.8940  177.3950  146.9220 C   0  0  0  0  0  2  0  0  0  0  0  0
  191.2510  177.2440  145.4580 C   0  0  1  0  0  3  0  0  0  0  0  0
  192.3750  175.4630  146.6720 C   0  0  2  0  0  3  0  0  0  0  0  0
  191.7920  176.4380  147.6850 C   0  0  2  0  0  3  0  0  0  0  0  0
  191.8210  175.8500  145.3110 C   0  0  0  0  0  2  0  0  0  0  0  0
  1  2  1  0  0  0  0
  2  4  2  0  0  0  0
  3 12  1  0  0  0  0
  3  4  1  0  0  0  0
  5  6  1  0  0  0  0
  5  1  2  0  0  0  0
  6  3  2  0  0  0  0
  7  8  1  0  0  0  0
  7  9  1  0  0  0  0
 10 14  2  0  0  0  0
 11  8  2  0  0  0  0
 12  7  2  0  0  0  0
 13 14  1  0  0  0  0
 13 12  1  0  0  0  0
 14 11  1  0  0  0  0
 15 18  1  0  0  0  0
 16  5  1  0  0  0  0
 17 21  1  0  0  0  0
 18 16  2  0  0  0  0
 19 16  1  0  0  0  0
 20 19  2  0  0  0  0
 21 20  1  0  0  0  0
 21 15  2  0  0  0  0
 22 26  1  0  0  0  0
 24  2  1  6  0  0  0
 24 23  1  0  0  0  0
 25 27  1  6  0  0  0
 25 22  1  0  0  0  0
 25 26  1  0  0  0  0
 26 23  1  6  0  0  0
 27 24  1  0  0  0  0
M  END
>  <MODEL>
8

>  <REMARK>
 VINA RESULT:      -9.4      2.822      6.257
  Name = 
  3 active torsions:
  status: ('A' for Active; 'I' for Inactive)
    1  A    between atoms: C_5  and  C_11
    2  A    between atoms: C_6  and  C_17
    3  A    between atoms: C_7  and  C_18
                            x       y       z     vdW  Elec       q    Type
                         _______ _______ _______ _____ _____    ______ ____

>  <TORSDO>
F 3

$$$$
=
 OpenBabel11042412283D

 27 31  0  0  1  0  0  0  0  0999 V2000
  187.6570  177.2720  144.3840 C   0  0  0  0  0  3  0  0  0  0  0  0
  186.7720  177.5500  143.3430 C   0  0  0  0  0  0  0  0  0  0  0  0
  188.6310  177.5080  141.7850 C   0  0  0  0  0  0  0  0  0  0  0  0
  187.2620  177.6680  142.0370 C   0  0  0  0  0  3  0  0  0  0  0  0
  189.0210  177.1130  144.1130 C   0  0  0  0  0  0  0  0  0  0  0  0
  189.4640  177.2330  142.8290 N   0  0  0  0  0  0  0  0  0  0  0  0
  190.1880  176.8770  139.9400 C   0  0  0  0  0  0  0  0  0  0  0  0
  190.6700  177.0050  138.5560 C   0  0  0  0  0  3  0  0  0  0  0  0
  190.8380  175.9630  140.7620 O   0  0  0  0  0  1  0  0  0  0  0  0
  188.5180  179.4350  137.2360 O   0  0  0  0  0  0  0  0  0  0  0  0
  190.1260  177.8270  137.7160 N   0  0  0  0  0  0  0  0  0  0  0  0
  189.1530  177.6240  140.3920 C   0  0  0  0  0  0  0  0  0  0  0  0
  188.4830  178.6370  139.4830 C   0  0  0  0  0  2  0  0  0  0  0  0
  189.0280  178.6620  138.0870 C   0  0  0  0  0  0  0  0  0  0  0  0
  190.5910  176.8440  147.5540 C   0  0  0  0  0  3  0  0  0  0  0  0
  189.9800  176.8160  145.1990 C   0  0  0  0  0  0  0  0  0  0  0  0
  192.7860  175.9410  148.3320 C   0  0  0  0  0  1  0  0  0  0  0  0
  189.6780  177.1290  146.5340 C   0  0  0  0  0  3  0  0  0  0  0  0
  191.2130  176.2130  144.9030 C   0  0  0  0  0  3  0  0  0  0  0  0
  192.1260  175.9290  145.9230 C   0  0  0  0  0  3  0  0  0  0  0  0
  191.8140  176.2440  147.2470 C   0  0  0  0  0  0  0  0  0  0  0  0
  184.1630  180.4830  144.3410 C   0  0  0  0  0  2  0  0  0  0  0  0
  185.0930  178.2810  145.0330 C   0  0  0  0  0  2  0  0  0  0  0  0
  185.3160  177.7170  143.6460 C   0  0  1  0  0  3  0  0  0  0  0  0
  183.5620  179.3900  143.4800 C   0  0  2  0  0  3  0  0  0  0  0  0
  183.8390  179.1350  144.9550 C   0  0  2  0  0  3  0  0  0  0  0  0
  184.6520  178.6850  142.6920 C   0  0  0  0  0  2  0  0  0  0  0  0
  2  1  2  0  0  0  0
  3  4  2  0  0  0  0
  3  6  1  0  0  0  0
  4  2  1  0  0  0  0
  5  1  1  0  0  0  0
  5 16  1  0  0  0  0
  6  5  2  0  0  0  0
  7 12  2  0  0  0  0
  7  9  1  0  0  0  0
  8  7  1  0  0  0  0
 10 14  2  0  0  0  0
 11 14  1  0  0  0  0
 11  8  2  0  0  0  0
 12  3  1  0  0  0  0
 13 12  1  0  0  0  0
 14 13  1  0  0  0  0
 16 18  1  0  0  0  0
 18 15  2  0  0  0  0
 19 16  2  0  0  0  0
 19 20  1  0  0  0  0
 20 21  2  0  0  0  0
 21 15  1  0  0  0  0
 21 17  1  0  0  0  0
 24  2  1  6  0  0  0
 24 23  1  0  0  0  0
 25 27  1  6  0  0  0
 25 22  1  0  0  0  0
 25 26  1  0  0  0  0
 26 22  1  1  0  0  0
 26 23  1  0  0  0  0
 27 24  1  0  0  0  0
M  END
>  <MODEL>
9

>  <REMARK>
 VINA RESULT:      -9.4      1.617      5.713
  Name = 
  3 active torsions:
  status: ('A' for Active; 'I' for Inactive)
    1  A    between atoms: C_5  and  C_11
    2  A    between atoms: C_6  and  C_17
    3  A    between atoms: C_7  and  C_18
                            x       y       z     vdW  Elec       q    Type
                         _______ _______ _______ _____ _____    ______ ____

>  <TORSDO>
F 3

$$$$
