=
 OpenBabel11032420073D

 59 68  0  0  1  0  0  0  0  0999 V2000
  191.2070  176.2160  138.2720 C   0  0  0  0  0  0  0  0  0  0  0  0
  192.4650  176.8470  138.2780 C   0  0  0  0  0  3  0  0  0  0  0  0
  190.9060  175.2980  137.2410 C   0  0  0  0  0  0  0  0  0  0  0  0
  191.8660  175.0210  136.2620 C   0  0  0  0  0  3  0  0  0  0  0  0
  193.1250  175.6300  136.2870 C   0  0  0  0  0  0  0  0  0  0  0  0
  193.4180  176.5520  137.2970 C   0  0  0  0  0  3  0  0  0  0  0  0
  197.5390  172.3860  137.1120 N   0  0  0  0  0  2  0  0  0  0  0  0
  195.1960  171.4270  135.4840 C   0  0  0  0  0  2  0  0  0  0  0  0
  199.1800  173.2350  135.5170 C   0  0  0  0  0  1  0  0  0  0  0  0
  195.5350  175.7330  135.9050 C   0  0  1  0  0  3  0  0  0  0  0  0
  197.6860  175.7310  135.0550 O   0  0  0  0  0  0  0  0  0  0  0  0
  194.2630  173.6280  135.5400 N   0  0  0  0  0  0  0  0  0  0  0  0
  194.2320  175.0740  135.4480 C   0  0  1  0  0  3  0  0  0  0  0  0
  196.9820  171.0420  137.2120 C   0  0  0  0  0  2  0  0  0  0  0  0
  197.7880  172.6580  135.6970 C   0  0  2  0  0  3  0  0  0  0  0  0
  196.7730  174.9760  135.7190 C   0  0  1  0  0  0  0  0  0  0  0  0
  194.9270  169.6570  137.2010 C   0  0  0  0  0  1  0  0  0  0  0  0
  196.6780  173.5600  135.1090 C   0  0  2  0  0  3  0  0  0  0  0  0
  195.3100  172.9170  135.3040 C   0  0  0  0  0  0  0  0  0  0  0  0
  195.4800  171.0430  136.9300 C   0  0  2  0  0  3  0  0  0  0  0  0
  196.3630  175.9620  134.7140 N   0  0  1  0  0  0  0  0  0  0  0  0
  188.9650  177.0970  139.0870 C   0  0  0  0  0  2  0  0  0  0  0  0
  188.8320  177.7510  141.5450 O   0  0  0  0  0  0  0  0  0  0  0  0
  192.0670  177.5000  140.5590 O   0  0  0  0  0  0  0  0  0  0  0  0
  190.2720  176.3800  139.4500 C   0  0  2  0  0  3  0  0  0  0  0  0
  187.0460  178.1750  140.0870 N   0  0  0  0  0  0  0  0  0  0  0  0
  190.9310  177.0620  140.6170 C   0  0  0  0  0  0  0  0  0  0  0  0
  190.1190  177.2190  141.8550 C   0  0  0  0  0  2  0  0  0  0  0  0
  188.2240  177.6620  140.2790 C   0  0  0  0  0  0  0  0  0  0  0  0
  186.2290  178.7700  141.1120 C   0  0  0  0  0  0  0  0  0  0  0  0
  186.2290  180.0180  141.2830 O   0  0  0  0  0  0  0  0  0  0  0  0
  183.6750  179.1990  143.3350 C   0  0  0  0  0  2  0  0  0  0  0  0
  187.0740  177.8300  145.4070 C   0  0  0  0  0  0  0  0  0  0  0  0
  186.2340  178.6320  146.1000 C   0  0  0  0  0  0  0  0  0  0  0  0
  185.8760  179.8650  148.0930 O   0  0  0  0  0  0  0  0  0  0  0  0
  185.3260  177.9190  141.9690 C   0  0  2  0  0  3  0  0  0  0  0  0
  188.3000  177.2230  146.0420 C   0  0  0  0  0  2  0  0  0  0  0  0
  186.5540  178.9880  147.4860 C   0  0  0  0  0  0  0  0  0  0  0  0
  187.6840  178.3940  148.1260 N   0  0  0  0  0  0  0  0  0  0  0  0
  183.8840  178.4810  141.9890 C   0  0  0  0  0  2  0  0  0  0  0  0
  184.8220  178.8230  144.1270 N   0  0  0  0  0  0  0  0  0  0  0  0
  185.0520  179.1540  145.4680 N   0  0  0  0  0  2  0  0  0  0  0  0
  186.8190  177.5420  143.9720 C   0  0  0  0  0  3  0  0  0  0  0  0
  188.4830  177.5860  147.4980 C   0  0  0  0  0  3  0  0  0  0  0  0
  185.7260  178.0430  143.3920 C   0  0  0  0  0  0  0  0  0  0  0  0
  189.6230  174.5130  137.2310 C   0  0  0  0  0  2  0  0  0  0  0  0
  188.8010  174.8510  135.9900 C   0  0  0  0  0  2  0  0  0  0  0  0
  185.7340  176.8830  136.6590 N   0  0  0  0  0  0  0  0  0  0  0  0
  186.5210  174.2490  136.8350 C   0  0  0  0  0  3  0  0  0  0  0  0
  185.2310  174.6080  137.2350 C   0  0  0  0  0  0  0  0  0  0  0  0
  184.8430  175.9650  137.1270 C   0  0  0  0  0  0  0  0  0  0  0  0
  186.9910  176.5400  136.2710 C   0  0  0  0  0  3  0  0  0  0  0  0
  187.4070  175.2130  136.3520 C   0  0  0  0  0  0  0  0  0  0  0  0
  184.0560  172.4240  137.0250 C   0  0  0  0  0  1  0  0  0  0  0  0
  184.3940  173.6010  137.7400 O   0  0  0  0  0  0  0  0  0  0  0  0
  183.5470  176.3660  137.4750 O   0  0  0  0  0  0  0  0  0  0  0  0
  183.2700  177.2270  138.5790 C   0  0  0  0  0  2  0  0  0  0  0  0
  181.8020  175.8650  139.5210 C   0  0  0  0  0  1  0  0  0  0  0  0
  181.9270  177.1360  138.9520 O   0  0  0  0  0  0  0  0  0  0  0  0
  1  2  1  0  0  0  0
  1 25  1  0  0  0  0
  3  1  2  0  0  0  0
  4  5  2  0  0  0  0
  4  3  1  0  0  0  0
  5  6  1  0  0  0  0
  6  2  2  0  0  0  0
  7 14  1  0  0  0  0
  8 20  1  0  0  0  0
  9 15  1  0  0  0  0
 11 16  1  0  0  0  0
 13 12  1  0  0  0  0
 13 10  1  0  0  0  0
 13  5  1  0  0  0  0
 15  7  1  0  0  0  0
 16 10  1  0  0  0  0
 18 19  1  0  0  0  0
 18 15  1  0  0  0  0
 18 16  1  0  0  0  0
 19  8  1  0  0  0  0
 19 12  2  0  0  0  0
 20 17  1  0  0  0  0
 20 14  1  0  0  0  0
 21 11  1  0  0  0  0
 21 16  1  0  0  0  0
 21 10  1  0  0  0  0
 22 25  1  0  0  0  0
 22 29  1  0  0  0  0
 23 28  1  0  0  0  0
 24 27  2  0  0  0  0
 25 27  1  0  0  0  0
 26 29  2  0  0  0  0
 26 30  1  0  0  0  0
 27 28  1  0  0  0  0
 29 23  1  0  0  0  0
 30 31  2  0  0  0  0
 30 36  1  0  0  0  0
 32 41  1  0  0  0  0
 33 37  1  0  0  0  0
 33 34  2  0  0  0  0
 34 38  1  0  0  0  0
 36 40  1  0  0  0  0
 36 45  1  0  0  0  0
 37 44  1  0  0  0  0
 38 35  2  0  0  0  0
 38 39  1  0  0  0  0
 40 32  1  0  0  0  0
 41 42  1  0  0  0  0
 42 34  1  0  0  0  0
 43 33  1  0  0  0  0
 44 39  2  0  0  0  0
 45 43  2  0  0  0  0
 45 41  1  0  0  0  0
 46  3  1  0  0  0  0
 47 53  1  0  0  0  0
 47 46  1  0  0  0  0
 48 51  2  0  0  0  0
 49 50  2  0  0  0  0
 50 55  1  0  0  0  0
 51 50  1  0  0  0  0
 51 56  1  0  0  0  0
 52 53  2  0  0  0  0
 52 48  1  0  0  0  0
 53 49  1  0  0  0  0
 54 55  1  0  0  0  0
 56 57  1  0  0  0  0
 57 59  1  0  0  0  0
 59 58  1  0  0  0  0
M  END
>  <MODEL>
1

>  <REMARK>
 VINA RESULT:      -9.0      0.000      0.000
  Name = 
  11 active torsions:
  status: ('A' for Active; 'I' for Inactive)
    1  A    between atoms: C_10  and  C_24
    2  A    between atoms: C_10  and  N_44
    3  A    between atoms: C_13  and  C_43
    4  A    between atoms: C_13  and  C_53
    5  A    between atoms: C_14  and  C_32
    6  A    between atoms: C_20  and  C_51
    7  A    between atoms: C_25  and  O_45
    8  A    between atoms: C_29  and  O_52
    9  A    between atoms: C_29  and  O_57
   10  A    between atoms: C_33  and  C_53
   11  A    between atoms: C_36  and  O_57
                            x       y       z     vdW  Elec       q    Type
                         _______ _______ _______ _____ _____    ______ ____

>  <TORSDO>
F 11

$$$$
=
 OpenBabel11032420073D

 59 68  0  0  1  0  0  0  0  0999 V2000
  188.9120  175.3780  136.9490 C   0  0  0  0  0  0  0  0  0  0  0  0
  189.1680  174.4550  135.9180 C   0  0  0  0  0  3  0  0  0  0  0  0
  190.0030  176.0070  137.5910 C   0  0  0  0  0  0  0  0  0  0  0  0
  191.3070  175.7150  137.1800 C   0  0  0  0  0  3  0  0  0  0  0  0
  191.5560  174.8170  136.1370 C   0  0  0  0  0  0  0  0  0  0  0  0
  190.4790  174.1820  135.5120 C   0  0  0  0  0  3  0  0  0  0  0  0
  196.6670  173.3120  137.6580 N   0  0  0  0  0  2  0  0  0  0  0  0
  195.1390  171.7380  135.5970 C   0  0  0  0  0  2  0  0  0  0  0  0
  198.1070  174.8450  136.4210 C   0  0  0  0  0  1  0  0  0  0  0  0
  193.7840  175.8150  136.2100 C   0  0  1  0  0  3  0  0  0  0  0  0
  195.8880  176.6690  135.7710 O   0  0  0  0  0  0  0  0  0  0  0  0
  193.4600  173.4400  135.5500 N   0  0  0  0  0  0  0  0  0  0  0  0
  192.9090  174.7810  135.4990 C   0  0  1  0  0  3  0  0  0  0  0  0
  196.6390  171.8550  137.6110 C   0  0  0  0  0  2  0  0  0  0  0  0
  197.0190  173.7910  136.3230 C   0  0  2  0  0  3  0  0  0  0  0  0
  195.2270  175.5770  136.2310 C   0  0  1  0  0  0  0  0  0  0  0  0
  195.2750  169.8320  137.1780 C   0  0  0  0  0  1  0  0  0  0  0  0
  195.7630  174.2870  135.5700 C   0  0  2  0  0  3  0  0  0  0  0  0
  194.7190  173.1800  135.4880 C   0  0  0  0  0  0  0  0  0  0  0  0
  195.3110  171.3430  137.0570 C   0  0  2  0  0  3  0  0  0  0  0  0
  194.6470  176.4410  135.2000 N   0  0  1  0  0  0  0  0  0  0  0  0
  186.4560  174.7240  136.9820 C   0  0  0  0  0  2  0  0  0  0  0  0
  184.7780  176.6110  136.6480 O   0  0  0  0  0  0  0  0  0  0  0  0
  187.8720  177.5900  135.6670 O   0  0  0  0  0  0  0  0  0  0  0  0
  187.4950  175.8250  137.2310 C   0  0  2  0  0  3  0  0  0  0  0  0
  184.0760  174.3760  136.7360 N   0  0  0  0  0  0  0  0  0  0  0  0
  187.1220  177.0700  136.4750 C   0  0  0  0  0  0  0  0  0  0  0  0
  185.7680  177.6350  136.7260 C   0  0  0  0  0  2  0  0  0  0  0  0
  185.0410  175.2400  136.8240 C   0  0  0  0  0  0  0  0  0  0  0  0
  182.6860  174.7090  136.5610 C   0  0  0  0  0  0  0  0  0  0  0  0
  182.3020  175.3210  135.5290 O   0  0  0  0  0  0  0  0  0  0  0  0
  179.3600  175.1760  137.1710 C   0  0  0  0  0  2  0  0  0  0  0  0
  181.5870  177.2070  140.1100 C   0  0  0  0  0  0  0  0  0  0  0  0
  180.3910  177.7490  139.7840 C   0  0  0  0  0  0  0  0  0  0  0  0
  178.9310  179.6000  140.0290 O   0  0  0  0  0  0  0  0  0  0  0  0
  181.6580  174.2930  137.5830 C   0  0  2  0  0  3  0  0  0  0  0  0
  182.4630  177.8000  141.1860 C   0  0  0  0  0  2  0  0  0  0  0  0
  179.9590  178.9900  140.4370 C   0  0  0  0  0  0  0  0  0  0  0  0
  180.7470  179.5470  141.4890 N   0  0  0  0  0  0  0  0  0  0  0  0
  180.2990  173.9830  136.9130 C   0  0  0  0  0  2  0  0  0  0  0  0
  180.0530  175.9730  138.1550 N   0  0  0  0  0  0  0  0  0  0  0  0
  179.5680  177.1270  138.7820 N   0  0  0  0  0  2  0  0  0  0  0  0
  182.0870  176.0100  139.3860 C   0  0  0  0  0  3  0  0  0  0  0  0
  181.8770  179.0230  141.8520 C   0  0  0  0  0  3  0  0  0  0  0  0
  181.3200  175.4480  138.4490 C   0  0  0  0  0  0  0  0  0  0  0  0
  189.8000  177.0780  138.6280 C   0  0  0  0  0  2  0  0  0  0  0  0
  190.6280  176.7770  139.8740 C   0  0  0  0  0  2  0  0  0  0  0  0
  189.3680  176.2690  143.3590 N   0  0  0  0  0  0  0  0  0  0  0  0
  188.6710  177.7200  141.1230 C   0  0  0  0  0  3  0  0  0  0  0  0
  187.8720  177.7960  142.2670 C   0  0  0  0  0  0  0  0  0  0  0  0
  188.2530  177.0510  143.4080 C   0  0  0  0  0  0  0  0  0  0  0  0
  190.1480  176.1900  142.2480 C   0  0  0  0  0  3  0  0  0  0  0  0
  189.8120  176.9170  141.1080 C   0  0  0  0  0  0  0  0  0  0  0  0
  185.9490  178.7940  141.0420 C   0  0  0  0  0  1  0  0  0  0  0  0
  186.7210  178.5980  142.2140 O   0  0  0  0  0  0  0  0  0  0  0  0
  187.5080  177.1270  144.5910 O   0  0  0  0  0  0  0  0  0  0  0  0
  187.9740  177.7980  145.7610 C   0  0  0  0  0  2  0  0  0  0  0  0
  185.8110  178.1390  146.0830 C   0  0  0  0  0  1  0  0  0  0  0  0
  186.9910  177.8020  146.7540 O   0  0  0  0  0  0  0  0  0  0  0  0
  1 25  1  0  0  0  0
  1  3  1  0  0  0  0
  2  1  2  0  0  0  0
  3 46  1  0  0  0  0
  4  3  2  0  0  0  0
  5  4  1  0  0  0  0
  6  2  1  0  0  0  0
  6  5  2  0  0  0  0
  8 20  1  0  0  0  0
 10 16  1  0  0  0  0
 11 16  1  0  0  0  0
 13 12  1  0  0  0  0
 13  5  1  0  0  0  0
 13 10  1  0  0  0  0
 14  7  1  0  0  0  0
 15  9  1  0  0  0  0
 15  7  1  0  0  0  0
 18 16  1  0  0  0  0
 18 15  1  0  0  0  0
 19 12  2  0  0  0  0
 19 18  1  0  0  0  0
 19  8  1  0  0  0  0
 20 17  1  0  0  0  0
 20 14  1  0  0  0  0
 21 11  1  0  0  0  0
 21 10  1  0  0  0  0
 21 16  1  0  0  0  0
 22 25  1  0  0  0  0
 23 28  1  0  0  0  0
 23 29  1  0  0  0  0
 24 27  2  0  0  0  0
 26 29  2  0  0  0  0
 27 28  1  0  0  0  0
 27 25  1  0  0  0  0
 29 22  1  0  0  0  0
 30 26  1  0  0  0  0
 30 36  1  0  0  0  0
 31 30  2  0  0  0  0
 32 41  1  0  0  0  0
 33 37  1  0  0  0  0
 34 33  2  0  0  0  0
 34 38  1  0  0  0  0
 35 38  2  0  0  0  0
 36 45  1  0  0  0  0
 37 44  1  0  0  0  0
 38 39  1  0  0  0  0
 39 44  2  0  0  0  0
 40 32  1  0  0  0  0
 40 36  1  0  0  0  0
 41 45  1  0  0  0  0
 41 42  1  0  0  0  0
 42 34  1  0  0  0  0
 43 33  1  0  0  0  0
 45 43  2  0  0  0  0
 46 47  1  0  0  0  0
 47 53  1  0  0  0  0
 48 51  2  0  0  0  0
 49 50  2  0  0  0  0
 50 51  1  0  0  0  0
 51 56  1  0  0  0  0
 52 48  1  0  0  0  0
 53 49  1  0  0  0  0
 53 52  2  0  0  0  0
 54 55  1  0  0  0  0
 55 50  1  0  0  0  0
 56 57  1  0  0  0  0
 57 59  1  0  0  0  0
 58 59  1  0  0  0  0
M  END
>  <MODEL>
2

>  <REMARK>
 VINA RESULT:      -8.6      2.304      6.025
  Name = 
  11 active torsions:
  status: ('A' for Active; 'I' for Inactive)
    1  A    between atoms: C_10  and  C_24
    2  A    between atoms: C_10  and  N_44
    3  A    between atoms: C_13  and  C_43
    4  A    between atoms: C_13  and  C_53
    5  A    between atoms: C_14  and  C_32
    6  A    between atoms: C_20  and  C_51
    7  A    between atoms: C_25  and  O_45
    8  A    between atoms: C_29  and  O_52
    9  A    between atoms: C_29  and  O_57
   10  A    between atoms: C_33  and  C_53
   11  A    between atoms: C_36  and  O_57
                            x       y       z     vdW  Elec       q    Type
                         _______ _______ _______ _____ _____    ______ ____

>  <TORSDO>
F 11

$$$$
=
 OpenBabel11032420073D

 59 68  0  0  1  0  0  0  0  0999 V2000
  186.7610  176.6830  136.2130 C   0  0  0  0  0  0  0  0  0  0  0  0
  185.5760  176.6070  135.4580 C   0  0  0  0  0  3  0  0  0  0  0  0
  186.7050  177.2050  137.5250 C   0  0  0  0  0  0  0  0  0  0  0  0
  185.4770  177.6170  138.0520 C   0  0  0  0  0  3  0  0  0  0  0  0
  184.2970  177.5160  137.3080 C   0  0  0  0  0  0  0  0  0  0  0  0
  184.3540  177.0150  136.0040 C   0  0  0  0  0  3  0  0  0  0  0  0
  180.9320  181.6500  138.8180 N   0  0  0  0  0  2  0  0  0  0  0  0
  180.1430  179.7290  136.6390 C   0  0  0  0  0  2  0  0  0  0  0  0
  179.8950  180.8250  140.8670 C   0  0  0  0  0  1  0  0  0  0  0  0
  183.2190  178.3100  139.3510 C   0  0  1  0  0  3  0  0  0  0  0  0
  181.8740  178.6690  141.1980 O   0  0  0  0  0  0  0  0  0  0  0  0
  182.0330  178.3630  137.1660 N   0  0  0  0  0  0  0  0  0  0  0  0
  182.9750  177.6390  137.9970 C   0  0  1  0  0  3  0  0  0  0  0  0
  180.2870  182.0580  137.5750 C   0  0  0  0  0  2  0  0  0  0  0  0
  180.1390  180.5650  139.3920 C   0  0  2  0  0  3  0  0  0  0  0  0
  182.1190  179.0820  139.9280 C   0  0  1  0  0  0  0  0  0  0  0  0
  180.1100  181.6970  135.1290 C   0  0  0  0  0  1  0  0  0  0  0  0
  180.8060  179.1960  139.1210 C   0  0  2  0  0  3  0  0  0  0  0  0
  181.0050  178.9870  137.6250 C   0  0  0  0  0  0  0  0  0  0  0  0
  180.6770  181.1380  136.4200 C   0  0  2  0  0  3  0  0  0  0  0  0
  182.3180  177.6860  140.3280 N   0  0  1  0  0  0  0  0  0  0  0  0
  188.7030  175.1220  136.7220 C   0  0  0  0  0  2  0  0  0  0  0  0
  190.8680  175.5600  135.4540 O   0  0  0  0  0  0  0  0  0  0  0  0
  188.8220  178.2570  135.2710 O   0  0  0  0  0  0  0  0  0  0  0  0
  188.0310  176.0440  135.6960 C   0  0  2  0  0  3  0  0  0  0  0  0
  190.7750  173.9560  137.1620 N   0  0  0  0  0  0  0  0  0  0  0  0
  189.0180  177.0570  135.1860 C   0  0  0  0  0  0  0  0  0  0  0  0
  190.2800  176.5340  134.5950 C   0  0  0  0  0  2  0  0  0  0  0  0
  190.1570  174.8270  136.4230 C   0  0  0  0  0  0  0  0  0  0  0  0
  192.1580  173.5860  137.0170 C   0  0  0  0  0  0  0  0  0  0  0  0
  192.4930  172.6690  136.2210 O   0  0  0  0  0  0  0  0  0  0  0  0
  194.5570  175.9390  136.4150 C   0  0  0  0  0  2  0  0  0  0  0  0
  196.4260  172.2400  137.1510 C   0  0  0  0  0  0  0  0  0  0  0  0
  197.0710  173.0790  136.3100 C   0  0  0  0  0  0  0  0  0  0  0  0
  198.8700  173.3540  134.7900 O   0  0  0  0  0  0  0  0  0  0  0  0
  193.2360  174.3170  137.7770 C   0  0  2  0  0  3  0  0  0  0  0  0
  197.0080  170.9050  137.5460 C   0  0  0  0  0  2  0  0  0  0  0  0
  198.3380  172.6590  135.7020 C   0  0  0  0  0  0  0  0  0  0  0  0
  198.9340  171.4220  136.0910 N   0  0  0  0  0  0  0  0  0  0  0  0
  193.3280  175.7960  137.3320 C   0  0  0  0  0  2  0  0  0  0  0  0
  195.2640  174.6890  136.5630 N   0  0  0  0  0  0  0  0  0  0  0  0
  196.5010  174.3610  135.9940 N   0  0  0  0  0  2  0  0  0  0  0  0
  195.0930  172.6050  137.6950 C   0  0  0  0  0  3  0  0  0  0  0  0
  198.3570  170.6150  136.9300 C   0  0  0  0  0  3  0  0  0  0  0  0
  194.5670  173.7920  137.3850 C   0  0  0  0  0  0  0  0  0  0  0  0
  187.9120  177.2190  138.4230 C   0  0  0  0  0  2  0  0  0  0  0  0
  187.7720  178.3050  139.4870 C   0  0  0  0  0  2  0  0  0  0  0  0
  190.1420  176.8120  141.9650 N   0  0  0  0  0  0  0  0  0  0  0  0
  187.6600  178.0090  141.9720 C   0  0  0  0  0  3  0  0  0  0  0  0
  188.1990  177.5400  143.1740 C   0  0  0  0  0  0  0  0  0  0  0  0
  189.4800  176.9380  143.1500 C   0  0  0  0  0  0  0  0  0  0  0  0
  189.6210  177.2630  140.7940 C   0  0  0  0  0  3  0  0  0  0  0  0
  188.3680  177.8720  140.7770 C   0  0  0  0  0  0  0  0  0  0  0  0
  186.0400  177.9540  144.3390 C   0  0  0  0  0  1  0  0  0  0  0  0
  187.4300  177.6790  144.3390 O   0  0  0  0  0  0  0  0  0  0  0  0
  190.0800  176.4920  144.3340 O   0  0  0  0  0  0  0  0  0  0  0  0
  190.9550  177.3040  145.1160 C   0  0  0  0  0  2  0  0  0  0  0  0
  191.4630  176.6000  147.1530 C   0  0  0  0  0  1  0  0  0  0  0  0
  191.8690  176.5130  145.8170 O   0  0  0  0  0  0  0  0  0  0  0  0
  1  3  1  0  0  0  0
  2  6  1  0  0  0  0
  2  1  2  0  0  0  0
  3  4  2  0  0  0  0
  3 46  1  0  0  0  0
  5 13  1  0  0  0  0
  5  4  1  0  0  0  0
  6  5  2  0  0  0  0
  7 15  1  0  0  0  0
  8 19  1  0  0  0  0
 10 16  1  0  0  0  0
 10 21  1  0  0  0  0
 12 19  2  0  0  0  0
 12 13  1  0  0  0  0
 13 10  1  0  0  0  0
 14  7  1  0  0  0  0
 15  9  1  0  0  0  0
 16 21  1  0  0  0  0
 16 11  1  0  0  0  0
 17 20  1  0  0  0  0
 18 15  1  0  0  0  0
 18 16  1  0  0  0  0
 19 18  1  0  0  0  0
 20  8  1  0  0  0  0
 20 14  1  0  0  0  0
 21 11  1  0  0  0  0
 23 29  1  0  0  0  0
 25  1  1  0  0  0  0
 25 22  1  0  0  0  0
 27 24  2  0  0  0  0
 27 25  1  0  0  0  0
 28 27  1  0  0  0  0
 28 23  1  0  0  0  0
 29 22  1  0  0  0  0
 29 26  2  0  0  0  0
 30 26  1  0  0  0  0
 30 36  1  0  0  0  0
 31 30  2  0  0  0  0
 32 41  1  0  0  0  0
 32 40  1  0  0  0  0
 33 37  1  0  0  0  0
 33 43  1  0  0  0  0
 34 33  2  0  0  0  0
 35 38  2  0  0  0  0
 38 39  1  0  0  0  0
 38 34  1  0  0  0  0
 39 44  2  0  0  0  0
 40 36  1  0  0  0  0
 41 45  1  0  0  0  0
 42 34  1  0  0  0  0
 42 41  1  0  0  0  0
 44 37  1  0  0  0  0
 45 43  2  0  0  0  0
 45 36  1  0  0  0  0
 46 47  1  0  0  0  0
 47 53  1  0  0  0  0
 48 51  2  0  0  0  0
 49 50  2  0  0  0  0
 50 55  1  0  0  0  0
 51 50  1  0  0  0  0
 51 56  1  0  0  0  0
 52 48  1  0  0  0  0
 53 52  2  0  0  0  0
 53 49  1  0  0  0  0
 54 55  1  0  0  0  0
 56 57  1  0  0  0  0
 57 59  1  0  0  0  0
 59 58  1  0  0  0  0
M  END
>  <MODEL>
3

>  <REMARK>
 VINA RESULT:      -7.9      3.127     12.428
  Name = 
  11 active torsions:
  status: ('A' for Active; 'I' for Inactive)
    1  A    between atoms: C_10  and  C_24
    2  A    between atoms: C_10  and  N_44
    3  A    between atoms: C_13  and  C_43
    4  A    between atoms: C_13  and  C_53
    5  A    between atoms: C_14  and  C_32
    6  A    between atoms: C_20  and  C_51
    7  A    between atoms: C_25  and  O_45
    8  A    between atoms: C_29  and  O_52
    9  A    between atoms: C_29  and  O_57
   10  A    between atoms: C_33  and  C_53
   11  A    between atoms: C_36  and  O_57
                            x       y       z     vdW  Elec       q    Type
                         _______ _______ _______ _____ _____    ______ ____

>  <TORSDO>
F 11

$$$$
=
 OpenBabel11032420073D

 59 68  0  0  1  0  0  0  0  0999 V2000
  186.4200  176.7730  136.8190 C   0  0  0  0  0  0  0  0  0  0  0  0
  186.2760  176.0960  135.5940 C   0  0  0  0  0  3  0  0  0  0  0  0
  185.2620  177.1140  137.5530 C   0  0  0  0  0  0  0  0  0  0  0  0
  184.0020  176.7590  137.0600 C   0  0  0  0  0  3  0  0  0  0  0  0
  183.8650  176.0620  135.8550 C   0  0  0  0  0  0  0  0  0  0  0  0
  185.0090  175.7380  135.1200 C   0  0  0  0  0  3  0  0  0  0  0  0
  180.0280  173.1620  138.6050 N   0  0  0  0  0  2  0  0  0  0  0  0
  179.4310  175.9240  137.5670 C   0  0  0  0  0  2  0  0  0  0  0  0
  179.1800  171.6030  136.9300 C   0  0  0  0  0  1  0  0  0  0  0  0
  182.7590  173.8930  135.6590 C   0  0  1  0  0  3  0  0  0  0  0  0
  181.4400  172.0770  135.1020 O   0  0  0  0  0  0  0  0  0  0  0  0
  181.5040  175.9170  136.3740 N   0  0  0  0  0  0  0  0  0  0  0  0
  182.5620  175.4050  135.5250 C   0  0  1  0  0  3  0  0  0  0  0  0
  179.2930  174.1690  139.3610 C   0  0  0  0  0  2  0  0  0  0  0  0
  179.4070  173.0610  137.2850 C   0  0  2  0  0  3  0  0  0  0  0  0
  181.5840  173.0880  135.9960 C   0  0  1  0  0  0  0  0  0  0  0  0
  179.0850  176.5710  139.9350 C   0  0  0  0  0  1  0  0  0  0  0  0
  180.2420  173.8180  136.2270 C   0  0  2  0  0  3  0  0  0  0  0  0
  180.4180  175.2770  136.6310 C   0  0  0  0  0  0  0  0  0  0  0  0
  179.7650  175.5790  139.0120 C   0  0  2  0  0  3  0  0  0  0  0  0
  181.9820  173.2450  134.5930 N   0  0  1  0  0  0  0  0  0  0  0  0
  187.9030  176.4200  138.8540 C   0  0  0  0  0  2  0  0  0  0  0  0
  189.8150  178.0750  139.1610 O   0  0  0  0  0  0  0  0  0  0  0  0
  187.5350  179.2940  136.9680 O   0  0  0  0  0  0  0  0  0  0  0  0
  187.7930  176.9630  137.4230 C   0  0  2  0  0  3  0  0  0  0  0  0
  189.3290  176.4760  140.8060 N   0  0  0  0  0  0  0  0  0  0  0  0
  188.2500  178.3950  137.3760 C   0  0  0  0  0  0  0  0  0  0  0  0
  189.6170  178.6870  137.8880 C   0  0  0  0  0  2  0  0  0  0  0  0
  189.0790  176.9710  139.6310 C   0  0  0  0  0  0  0  0  0  0  0  0
  190.3940  176.9090  141.6720 C   0  0  0  0  0  0  0  0  0  0  0  0
  191.4030  176.1770  141.8570 O   0  0  0  0  0  0  0  0  0  0  0  0
  191.3360  178.3320  144.6290 C   0  0  0  0  0  2  0  0  0  0  0  0
  187.1330  178.1630  144.4720 C   0  0  0  0  0  0  0  0  0  0  0  0
  187.6900  178.0730  145.7010 C   0  0  0  0  0  0  0  0  0  0  0  0
  187.3290  177.6530  148.0060 O   0  0  0  0  0  0  0  0  0  0  0  0
  190.3460  178.2600  142.3380 C   0  0  2  0  0  3  0  0  0  0  0  0
  185.6370  178.1720  144.2740 C   0  0  0  0  0  2  0  0  0  0  0  0
  186.8260  177.9060  146.8740 C   0  0  0  0  0  0  0  0  0  0  0  0
  185.4080  177.9550  146.7220 N   0  0  0  0  0  0  0  0  0  0  0  0
  191.6440  178.5380  143.1340 C   0  0  0  0  0  2  0  0  0  0  0  0
  189.8980  178.2230  144.6890 N   0  0  0  0  0  0  0  0  0  0  0  0
  189.1200  178.1120  145.8480 N   0  0  0  0  0  2  0  0  0  0  0  0
  187.9950  178.2300  143.2640 C   0  0  0  0  0  3  0  0  0  0  0  0
  184.8460  178.0840  145.5580 C   0  0  0  0  0  3  0  0  0  0  0  0
  189.3210  178.2530  143.4110 C   0  0  0  0  0  0  0  0  0  0  0  0
  185.3460  177.7460  138.9160 C   0  0  0  0  0  2  0  0  0  0  0  0
  184.7720  179.1600  138.8850 C   0  0  0  0  0  2  0  0  0  0  0  0
  182.2040  178.6490  141.5560 N   0  0  0  0  0  0  0  0  0  0  0  0
  182.3740  179.8560  139.0850 C   0  0  0  0  0  3  0  0  0  0  0  0
  181.1560  179.8680  139.7720 C   0  0  0  0  0  0  0  0  0  0  0  0
  181.0940  179.2510  141.0450 C   0  0  0  0  0  0  0  0  0  0  0  0
  183.3890  178.6310  140.8900 C   0  0  0  0  0  3  0  0  0  0  0  0
  183.4950  179.2370  139.6400 C   0  0  0  0  0  0  0  0  0  0  0  0
  179.9700  180.7220  137.7590 C   0  0  0  0  0  1  0  0  0  0  0  0
  180.0560  180.4790  139.1530 O   0  0  0  0  0  0  0  0  0  0  0  0
  179.9090  179.2750  141.7910 O   0  0  0  0  0  0  0  0  0  0  0  0
  179.5100  180.3940  142.5820 C   0  0  0  0  0  2  0  0  0  0  0  0
  179.5020  178.6260  143.9150 C   0  0  0  0  0  1  0  0  0  0  0  0
  179.2370  179.9990  143.8940 O   0  0  0  0  0  0  0  0  0  0  0  0
  1 25  1  0  0  0  0
  1  3  1  0  0  0  0
  2  1  2  0  0  0  0
  3 46  1  0  0  0  0
  4  3  2  0  0  0  0
  5  4  1  0  0  0  0
  6  2  1  0  0  0  0
  6  5  2  0  0  0  0
  7 14  1  0  0  0  0
  8 20  1  0  0  0  0
  9 15  1  0  0  0  0
 10 16  1  0  0  0  0
 11 16  1  0  0  0  0
 12 19  2  0  0  0  0
 13 10  1  0  0  0  0
 13  5  1  0  0  0  0
 13 12  1  0  0  0  0
 15  7  1  0  0  0  0
 16 18  1  0  0  0  0
 18 19  1  0  0  0  0
 18 15  1  0  0  0  0
 19  8  1  0  0  0  0
 20 14  1  0  0  0  0
 20 17  1  0  0  0  0
 21 11  1  0  0  0  0
 21 10  1  0  0  0  0
 21 16  1  0  0  0  0
 22 29  1  0  0  0  0
 23 29  1  0  0  0  0
 24 27  2  0  0  0  0
 25 22  1  0  0  0  0
 26 30  1  0  0  0  0
 27 25  1  0  0  0  0
 27 28  1  0  0  0  0
 28 23  1  0  0  0  0
 29 26  2  0  0  0  0
 30 31  2  0  0  0  0
 30 36  1  0  0  0  0
 32 41  1  0  0  0  0
 33 34  2  0  0  0  0
 34 42  1  0  0  0  0
 34 38  1  0  0  0  0
 36 40  1  0  0  0  0
 36 45  1  0  0  0  0
 37 33  1  0  0  0  0
 37 44  1  0  0  0  0
 38 35  2  0  0  0  0
 39 38  1  0  0  0  0
 40 32  1  0  0  0  0
 41 42  1  0  0  0  0
 43 45  2  0  0  0  0
 43 33  1  0  0  0  0
 44 39  2  0  0  0  0
 45 41  1  0  0  0  0
 47 46  1  0  0  0  0
 47 53  1  0  0  0  0
 49 53  1  0  0  0  0
 49 50  2  0  0  0  0
 50 51  1  0  0  0  0
 51 48  2  0  0  0  0
 51 56  1  0  0  0  0
 52 48  1  0  0  0  0
 53 52  2  0  0  0  0
 54 55  1  0  0  0  0
 55 50  1  0  0  0  0
 56 57  1  0  0  0  0
 57 59  1  0  0  0  0
 59 58  1  0  0  0  0
M  END
>  <MODEL>
4

>  <REMARK>
 VINA RESULT:      -7.2      5.131      9.509
  Name = 
  11 active torsions:
  status: ('A' for Active; 'I' for Inactive)
    1  A    between atoms: C_10  and  C_24
    2  A    between atoms: C_10  and  N_44
    3  A    between atoms: C_13  and  C_43
    4  A    between atoms: C_13  and  C_53
    5  A    between atoms: C_14  and  C_32
    6  A    between atoms: C_20  and  C_51
    7  A    between atoms: C_25  and  O_45
    8  A    between atoms: C_29  and  O_52
    9  A    between atoms: C_29  and  O_57
   10  A    between atoms: C_33  and  C_53
   11  A    between atoms: C_36  and  O_57
                            x       y       z     vdW  Elec       q    Type
                         _______ _______ _______ _____ _____    ______ ____

>  <TORSDO>
F 11

$$$$
=
 OpenBabel11032420073D

 59 68  0  0  1  0  0  0  0  0999 V2000
  184.5600  178.4850  143.4020 C   0  0  0  0  0  0  0  0  0  0  0  0
  184.5140  178.4570  144.8080 C   0  0  0  0  0  3  0  0  0  0  0  0
  185.8060  178.6660  142.7610 C   0  0  0  0  0  0  0  0  0  0  0  0
  186.9660  178.7950  143.5320 C   0  0  0  0  0  3  0  0  0  0  0  0
  186.9190  178.7410  144.9280 C   0  0  0  0  0  0  0  0  0  0  0  0
  185.6850  178.5780  145.5640 C   0  0  0  0  0  3  0  0  0  0  0  0
  191.2610  175.3070  144.7000 N   0  0  0  0  0  2  0  0  0  0  0  0
  191.5670  178.2330  144.0610 C   0  0  0  0  0  2  0  0  0  0  0  0
  191.9080  175.0450  147.0380 C   0  0  0  0  0  1  0  0  0  0  0  0
  188.0770  177.1940  146.4230 C   0  0  1  0  0  3  0  0  0  0  0  0
  189.3730  176.1630  148.0380 O   0  0  0  0  0  0  0  0  0  0  0  0
  189.3360  178.6270  144.8280 N   0  0  0  0  0  0  0  0  0  0  0  0
  188.1830  178.5400  145.7040 C   0  0  1  0  0  3  0  0  0  0  0  0
  192.0590  175.8130  143.5890 C   0  0  0  0  0  2  0  0  0  0  0  0
  191.6740  176.0260  145.9040 C   0  0  2  0  0  3  0  0  0  0  0  0
  189.3240  176.4890  146.7210 C   0  0  1  0  0  0  0  0  0  0  0  0
  192.2470  177.5070  141.7890 C   0  0  0  0  0  1  0  0  0  0  0  0
  190.6520  177.1310  146.2600 C   0  0  2  0  0  3  0  0  0  0  0  0
  190.4770  178.0920  145.0900 C   0  0  0  0  0  0  0  0  0  0  0  0
  191.4770  177.1120  143.0340 C   0  0  2  0  0  3  0  0  0  0  0  0
  188.7070  177.3410  147.7420 N   0  0  1  0  0  0  0  0  0  0  0  0
  183.5130  178.3570  141.0880 C   0  0  0  0  0  2  0  0  0  0  0  0
  180.9800  178.6050  140.9780 O   0  0  0  0  0  0  0  0  0  0  0  0
  182.1490  179.7040  143.9650 O   0  0  0  0  0  0  0  0  0  0  0  0
  183.3270  178.1410  142.5960 C   0  0  2  0  0  3  0  0  0  0  0  0
  182.2680  178.5080  139.0210 N   0  0  0  0  0  0  0  0  0  0  0  0
  182.1030  178.8700  143.0770 C   0  0  0  0  0  0  0  0  0  0  0  0
  180.8180  178.5580  142.3940 C   0  0  0  0  0  2  0  0  0  0  0  0
  182.2130  178.4520  140.3180 C   0  0  0  0  0  0  0  0  0  0  0  0
  181.1250  178.6230  138.1530 C   0  0  0  0  0  0  0  0  0  0  0  0
  180.5820  179.7430  137.9590 O   0  0  0  0  0  0  0  0  0  0  0  0
  180.4340  175.3440  138.8070 C   0  0  0  0  0  2  0  0  0  0  0  0
  183.7270  175.5520  136.1930 C   0  0  0  0  0  0  0  0  0  0  0  0
  183.7000  174.4970  137.0380 C   0  0  0  0  0  0  0  0  0  0  0  0
  184.8770  172.6300  137.9030 O   0  0  0  0  0  0  0  0  0  0  0  0
  180.5840  177.4180  137.4260 C   0  0  2  0  0  3  0  0  0  0  0  0
  184.8190  175.7220  135.1650 C   0  0  0  0  0  2  0  0  0  0  0  0
  184.7980  173.5240  137.0140 C   0  0  0  0  0  0  0  0  0  0  0  0
  185.8190  173.6350  136.0240 N   0  0  0  0  0  0  0  0  0  0  0  0
  179.6520  176.5860  138.3390 C   0  0  0  0  0  2  0  0  0  0  0  0
  181.6230  175.3370  137.9880 N   0  0  0  0  0  0  0  0  0  0  0  0
  182.6170  174.3510  137.9730 N   0  0  0  0  0  2  0  0  0  0  0  0
  182.6790  176.6010  136.2730 C   0  0  0  0  0  3  0  0  0  0  0  0
  185.8470  174.6140  135.1710 C   0  0  0  0  0  3  0  0  0  0  0  0
  181.6850  176.4630  137.1530 C   0  0  0  0  0  0  0  0  0  0  0  0
  185.9430  178.6030  141.2640 C   0  0  0  0  0  2  0  0  0  0  0  0
  187.3540  179.0010  140.8400 C   0  0  0  0  0  2  0  0  0  0  0  0
  187.4020  177.3390  137.4900 N   0  0  0  0  0  0  0  0  0  0  0  0
  189.0010  177.4740  139.7300 C   0  0  0  0  0  3  0  0  0  0  0  0
  189.3920  176.6700  138.6550 C   0  0  0  0  0  0  0  0  0  0  0  0
  188.5610  176.6240  137.5090 C   0  0  0  0  0  0  0  0  0  0  0  0
  187.0150  178.1190  138.5340 C   0  0  0  0  0  3  0  0  0  0  0  0
  187.8110  178.2010  139.6750 C   0  0  0  0  0  0  0  0  0  0  0  0
  191.8420  176.4010  138.3190 C   0  0  0  0  0  1  0  0  0  0  0  0
  190.5830  175.9400  138.7780 O   0  0  0  0  0  0  0  0  0  0  0  0
  188.9310  175.8680  136.3910 O   0  0  0  0  0  0  0  0  0  0  0  0
  188.9490  176.3970  135.0660 C   0  0  0  0  0  2  0  0  0  0  0  0
  191.0980  175.9650  134.7540 C   0  0  0  0  0  1  0  0  0  0  0  0
  190.1730  177.0140  134.7950 O   0  0  0  0  0  0  0  0  0  0  0  0
  1  2  1  0  0  0  0
  2  6  2  0  0  0  0
  3  1  2  0  0  0  0
  3  4  1  0  0  0  0
  4  5  2  0  0  0  0
  5  6  1  0  0  0  0
  5 13  1  0  0  0  0
  7 15  1  0  0  0  0
  8 19  1  0  0  0  0
 10 16  1  0  0  0  0
 10 21  1  0  0  0  0
 12 19  2  0  0  0  0
 12 13  1  0  0  0  0
 13 10  1  0  0  0  0
 14  7  1  0  0  0  0
 15 18  1  0  0  0  0
 15  9  1  0  0  0  0
 16 21  1  0  0  0  0
 16 11  1  0  0  0  0
 17 20  1  0  0  0  0
 18 16  1  0  0  0  0
 19 18  1  0  0  0  0
 20 14  1  0  0  0  0
 20  8  1  0  0  0  0
 21 11  1  0  0  0  0
 22 25  1  0  0  0  0
 23 28  1  0  0  0  0
 25 27  1  0  0  0  0
 25  1  1  0  0  0  0
 26 29  2  0  0  0  0
 27 24  2  0  0  0  0
 28 27  1  0  0  0  0
 29 23  1  0  0  0  0
 29 22  1  0  0  0  0
 30 26  1  0  0  0  0
 31 30  2  0  0  0  0
 33 43  1  0  0  0  0
 33 34  2  0  0  0  0
 34 42  1  0  0  0  0
 36 30  1  0  0  0  0
 36 40  1  0  0  0  0
 37 44  1  0  0  0  0
 37 33  1  0  0  0  0
 38 34  1  0  0  0  0
 38 35  2  0  0  0  0
 39 38  1  0  0  0  0
 40 32  1  0  0  0  0
 41 32  1  0  0  0  0
 42 41  1  0  0  0  0
 43 45  2  0  0  0  0
 44 39  2  0  0  0  0
 45 36  1  0  0  0  0
 45 41  1  0  0  0  0
 46  3  1  0  0  0  0
 47 46  1  0  0  0  0
 48 51  2  0  0  0  0
 48 52  1  0  0  0  0
 50 55  1  0  0  0  0
 50 49  2  0  0  0  0
 51 50  1  0  0  0  0
 52 53  2  0  0  0  0
 53 49  1  0  0  0  0
 53 47  1  0  0  0  0
 54 55  1  0  0  0  0
 56 51  1  0  0  0  0
 57 56  1  0  0  0  0
 58 59  1  0  0  0  0
 59 57  1  0  0  0  0
M  END
>  <MODEL>
5

>  <REMARK>
 VINA RESULT:      -7.2      4.104      9.584
  Name = 
  11 active torsions:
  status: ('A' for Active; 'I' for Inactive)
    1  A    between atoms: C_10  and  C_24
    2  A    between atoms: C_10  and  N_44
    3  A    between atoms: C_13  and  C_43
    4  A    between atoms: C_13  and  C_53
    5  A    between atoms: C_14  and  C_32
    6  A    between atoms: C_20  and  C_51
    7  A    between atoms: C_25  and  O_45
    8  A    between atoms: C_29  and  O_52
    9  A    between atoms: C_29  and  O_57
   10  A    between atoms: C_33  and  C_53
   11  A    between atoms: C_36  and  O_57
                            x       y       z     vdW  Elec       q    Type
                         _______ _______ _______ _____ _____    ______ ____

>  <TORSDO>
F 11

$$$$
=
 OpenBabel11032420073D

 59 68  0  0  1  0  0  0  0  0999 V2000
  185.6990  178.7280  139.8790 C   0  0  0  0  0  0  0  0  0  0  0  0
  185.2500  178.7080  141.2130 C   0  0  0  0  0  3  0  0  0  0  0  0
  186.9940  178.2460  139.5850 C   0  0  0  0  0  0  0  0  0  0  0  0
  187.7940  177.7430  140.6160 C   0  0  0  0  0  3  0  0  0  0  0  0
  187.3340  177.7000  141.9360 C   0  0  0  0  0  0  0  0  0  0  0  0
  186.0590  178.1920  142.2310 C   0  0  0  0  0  3  0  0  0  0  0  0
  189.8270  178.5480  146.8100 N   0  0  0  0  0  2  0  0  0  0  0  0
  187.2730  176.9660  146.6340 C   0  0  0  0  0  2  0  0  0  0  0  0
  191.6440  176.9180  146.8150 C   0  0  0  0  0  1  0  0  0  0  0  0
  189.5240  177.2910  142.9380 C   0  0  1  0  0  3  0  0  0  0  0  0
  191.4260  176.4180  143.9210 O   0  0  0  0  0  0  0  0  0  0  0  0
  187.4330  176.9840  144.2480 N   0  0  0  0  0  0  0  0  0  0  0  0
  188.0550  176.8610  142.9440 C   0  0  1  0  0  3  0  0  0  0  0  0
  188.7260  178.6820  147.7570 C   0  0  0  0  0  2  0  0  0  0  0  0
  190.1440  177.1260  146.7000 C   0  0  2  0  0  3  0  0  0  0  0  0
  190.2850  177.1080  144.1740 C   0  0  1  0  0  0  0  0  0  0  0  0
  186.2670  178.7230  148.0660 C   0  0  0  0  0  1  0  0  0  0  0  0
  189.5490  176.5300  145.4030 C   0  0  2  0  0  3  0  0  0  0  0  0
  188.0430  176.7530  145.3570 C   0  0  0  0  0  0  0  0  0  0  0  0
  187.3810  178.4160  147.0830 C   0  0  2  0  0  3  0  0  0  0  0  0
  190.3440  176.0870  143.1240 N   0  0  1  0  0  0  0  0  0  0  0  0
  183.7370  180.1750  139.1580 C   0  0  0  0  0  2  0  0  0  0  0  0
  182.2330  179.2170  137.3380 O   0  0  0  0  0  0  0  0  0  0  0  0
  184.1470  176.7730  138.7020 O   0  0  0  0  0  0  0  0  0  0  0  0
  184.7420  179.0850  138.7640 C   0  0  2  0  0  3  0  0  0  0  0  0
  181.6750  181.2130  138.4360 N   0  0  0  0  0  0  0  0  0  0  0  0
  184.0180  177.8850  138.2200 C   0  0  0  0  0  0  0  0  0  0  0  0
  183.0960  178.1120  137.0740 C   0  0  0  0  0  2  0  0  0  0  0  0
  182.5200  180.2420  138.2590 C   0  0  0  0  0  0  0  0  0  0  0  0
  180.4640  181.3980  137.6800 C   0  0  0  0  0  0  0  0  0  0  0  0
  180.5140  181.7690  136.4770 O   0  0  0  0  0  0  0  0  0  0  0  0
  179.1310  180.9010  140.7830 C   0  0  0  0  0  2  0  0  0  0  0  0
  179.0350  177.2690  138.6560 C   0  0  0  0  0  0  0  0  0  0  0  0
  179.1710  177.1730  139.9980 C   0  0  0  0  0  0  0  0  0  0  0  0
  179.5910  175.7450  141.8420 O   0  0  0  0  0  0  0  0  0  0  0  0
  179.1190  181.1090  138.2950 C   0  0  2  0  0  3  0  0  0  0  0  0
  178.9310  176.0480  137.7770 C   0  0  0  0  0  2  0  0  0  0  0  0
  179.2960  175.8500  140.6180 C   0  0  0  0  0  0  0  0  0  0  0  0
  179.1560  174.6770  139.8170 N   0  0  0  0  0  0  0  0  0  0  0  0
  178.9310  181.8890  139.6180 C   0  0  0  0  0  2  0  0  0  0  0  0
  179.1510  179.6020  140.1530 N   0  0  0  0  0  0  0  0  0  0  0  0
  179.2230  178.3640  140.8030 N   0  0  0  0  0  2  0  0  0  0  0  0
  179.0110  178.6020  138.0010 C   0  0  0  0  0  3  0  0  0  0  0  0
  178.9820  174.7400  138.5320 C   0  0  0  0  0  3  0  0  0  0  0  0
  179.0730  179.7010  138.7560 C   0  0  0  0  0  0  0  0  0  0  0  0
  187.4980  178.1430  138.1710 C   0  0  0  0  0  2  0  0  0  0  0  0
  188.9920  178.4500  138.1140 C   0  0  0  0  0  2  0  0  0  0  0  0
  191.3330  175.5680  138.5620 N   0  0  0  0  0  0  0  0  0  0  0  0
  189.8020  176.6660  136.5520 C   0  0  0  0  0  3  0  0  0  0  0  0
  190.5980  175.5510  136.2760 C   0  0  0  0  0  0  0  0  0  0  0  0
  191.3690  174.9960  137.3260 C   0  0  0  0  0  0  0  0  0  0  0  0
  190.5630  176.6550  138.8340 C   0  0  0  0  0  3  0  0  0  0  0  0
  189.7810  177.2240  137.8310 C   0  0  0  0  0  0  0  0  0  0  0  0
  190.0350  173.8050  134.5950 C   0  0  0  0  0  1  0  0  0  0  0  0
  190.6010  175.0510  134.9660 O   0  0  0  0  0  0  0  0  0  0  0  0
  192.1490  173.8530  137.1100 O   0  0  0  0  0  0  0  0  0  0  0  0
  193.4010  173.8840  136.4260 C   0  0  0  0  0  2  0  0  0  0  0  0
  195.5890  174.1250  136.6630 C   0  0  0  0  0  1  0  0  0  0  0  0
  194.4530  173.6240  137.3070 O   0  0  0  0  0  0  0  0  0  0  0  0
  1  2  1  0  0  0  0
  2  6  2  0  0  0  0
  3  1  2  0  0  0  0
  3  4  1  0  0  0  0
  4  5  2  0  0  0  0
  5  6  1  0  0  0  0
  5 13  1  0  0  0  0
  7 14  1  0  0  0  0
  8 20  1  0  0  0  0
 10 13  1  0  0  0  0
 10 21  1  0  0  0  0
 10 16  1  0  0  0  0
 11 16  1  0  0  0  0
 12 19  2  0  0  0  0
 13 12  1  0  0  0  0
 15  7  1  0  0  0  0
 15  9  1  0  0  0  0
 16 18  1  0  0  0  0
 18 15  1  0  0  0  0
 19 18  1  0  0  0  0
 19  8  1  0  0  0  0
 20 14  1  0  0  0  0
 20 17  1  0  0  0  0
 21 11  1  0  0  0  0
 21 16  1  0  0  0  0
 23 29  1  0  0  0  0
 25 22  1  0  0  0  0
 25  1  1  0  0  0  0
 27 24  2  0  0  0  0
 27 25  1  0  0  0  0
 28 23  1  0  0  0  0
 28 27  1  0  0  0  0
 29 26  2  0  0  0  0
 29 22  1  0  0  0  0
 30 36  1  0  0  0  0
 30 26  1  0  0  0  0
 31 30  2  0  0  0  0
 33 34  2  0  0  0  0
 34 38  1  0  0  0  0
 34 42  1  0  0  0  0
 36 45  1  0  0  0  0
 36 40  1  0  0  0  0
 37 44  1  0  0  0  0
 37 33  1  0  0  0  0
 38 35  2  0  0  0  0
 39 38  1  0  0  0  0
 40 32  1  0  0  0  0
 41 32  1  0  0  0  0
 41 42  1  0  0  0  0
 43 33  1  0  0  0  0
 43 45  2  0  0  0  0
 44 39  2  0  0  0  0
 45 41  1  0  0  0  0
 46  3  1  0  0  0  0
 47 46  1  0  0  0  0
 48 52  1  0  0  0  0
 49 53  1  0  0  0  0
 50 49  2  0  0  0  0
 50 51  1  0  0  0  0
 51 48  2  0  0  0  0
 53 47  1  0  0  0  0
 53 52  2  0  0  0  0
 54 55  1  0  0  0  0
 55 50  1  0  0  0  0
 56 51  1  0  0  0  0
 57 56  1  0  0  0  0
 57 59  1  0  0  0  0
 58 59  1  0  0  0  0
M  END
>  <MODEL>
6

>  <REMARK>
 VINA RESULT:      -7.0      3.484      9.703
  Name = 
  11 active torsions:
  status: ('A' for Active; 'I' for Inactive)
    1  A    between atoms: C_10  and  C_24
    2  A    between atoms: C_10  and  N_44
    3  A    between atoms: C_13  and  C_43
    4  A    between atoms: C_13  and  C_53
    5  A    between atoms: C_14  and  C_32
    6  A    between atoms: C_20  and  C_51
    7  A    between atoms: C_25  and  O_45
    8  A    between atoms: C_29  and  O_52
    9  A    between atoms: C_29  and  O_57
   10  A    between atoms: C_33  and  C_53
   11  A    between atoms: C_36  and  O_57
                            x       y       z     vdW  Elec       q    Type
                         _______ _______ _______ _____ _____    ______ ____

>  <TORSDO>
F 11

$$$$
=
 OpenBabel11032420073D

 59 68  0  0  1  0  0  0  0  0999 V2000
  186.1930  176.9380  136.1410 C   0  0  0  0  0  0  0  0  0  0  0  0
  185.0040  176.7480  135.4110 C   0  0  0  0  0  3  0  0  0  0  0  0
  186.1190  177.5040  137.4340 C   0  0  0  0  0  0  0  0  0  0  0  0
  184.8730  177.8460  137.9670 C   0  0  0  0  0  3  0  0  0  0  0  0
  183.6920  177.6310  137.2490 C   0  0  0  0  0  0  0  0  0  0  0  0
  183.7640  177.0860  135.9640 C   0  0  0  0  0  3  0  0  0  0  0  0
  180.4680  181.5730  139.4310 N   0  0  0  0  0  2  0  0  0  0  0  0
  179.6120  180.0580  136.9750 C   0  0  0  0  0  2  0  0  0  0  0  0
  179.4070  180.4610  141.3260 C   0  0  0  0  0  1  0  0  0  0  0  0
  182.6430  178.1180  139.4010 C   0  0  1  0  0  3  0  0  0  0  0  0
  181.3130  178.2170  141.2900 O   0  0  0  0  0  0  0  0  0  0  0  0
  181.4570  178.5630  137.2610 N   0  0  0  0  0  0  0  0  0  0  0  0
  182.3750  177.6840  137.9580 C   0  0  1  0  0  3  0  0  0  0  0  0
  179.8350  182.1980  138.2750 C   0  0  0  0  0  2  0  0  0  0  0  0
  179.6400  180.4360  139.8260 C   0  0  2  0  0  3  0  0  0  0  0  0
  181.5700  178.8220  140.1030 C   0  0  1  0  0  0  0  0  0  0  0  0
  179.6430  182.2440  135.8040 C   0  0  0  0  0  1  0  0  0  0  0  0
  180.2610  179.1080  139.3330 C   0  0  2  0  0  3  0  0  0  0  0  0
  180.4510  179.1380  137.8220 C   0  0  0  0  0  0  0  0  0  0  0  0
  180.1930  181.4650  136.9830 C   0  0  2  0  0  3  0  0  0  0  0  0
  181.7230  177.3740  140.2710 N   0  0  1  0  0  0  0  0  0  0  0  0
  188.1860  175.4360  136.6240 C   0  0  0  0  0  2  0  0  0  0  0  0
  190.3570  176.0150  135.4220 O   0  0  0  0  0  0  0  0  0  0  0  0
  188.2060  178.6340  135.3120 O   0  0  0  0  0  0  0  0  0  0  0  0
  187.4970  176.3740  135.6240 C   0  0  2  0  0  3  0  0  0  0  0  0
  190.2950  174.3350  137.0570 N   0  0  0  0  0  0  0  0  0  0  0  0
  188.4520  177.4480  135.1800 C   0  0  0  0  0  0  0  0  0  0  0  0
  189.7460  177.0020  134.5940 C   0  0  0  0  0  2  0  0  0  0  0  0
  189.6570  175.2120  136.3430 C   0  0  0  0  0  0  0  0  0  0  0  0
  191.6950  174.0270  136.9260 C   0  0  0  0  0  0  0  0  0  0  0  0
  192.4760  174.1800  137.9030 O   0  0  0  0  0  0  0  0  0  0  0  0
  193.2230  171.1840  135.8130 C   0  0  0  0  0  2  0  0  0  0  0  0
  196.0020  174.3450  135.7480 C   0  0  0  0  0  0  0  0  0  0  0  0
  196.5060  173.1100  135.9720 C   0  0  0  0  0  0  0  0  0  0  0  0
  198.4120  171.8340  136.5700 O   0  0  0  0  0  0  0  0  0  0  0  0
  192.2460  173.4750  135.6360 C   0  0  2  0  0  3  0  0  0  0  0  0
  196.8910  175.5600  135.6430 C   0  0  0  0  0  2  0  0  0  0  0  0
  197.9460  172.9470  136.1950 C   0  0  0  0  0  0  0  0  0  0  0  0
  198.8150  174.0710  136.0580 N   0  0  0  0  0  0  0  0  0  0  0  0
  191.9340  171.9660  135.4960 C   0  0  0  0  0  2  0  0  0  0  0  0
  194.2550  172.1930  135.8520 N   0  0  0  0  0  0  0  0  0  0  0  0
  195.6270  171.9730  136.0210 N   0  0  0  0  0  2  0  0  0  0  0  0
  194.5360  174.5430  135.6220 C   0  0  0  0  0  3  0  0  0  0  0  0
  198.3640  175.2610  135.8000 C   0  0  0  0  0  3  0  0  0  0  0  0
  193.7280  173.4820  135.6820 C   0  0  0  0  0  0  0  0  0  0  0  0
  187.3360  177.6400  138.3080 C   0  0  0  0  0  2  0  0  0  0  0  0
  187.0360  178.5410  139.5030 C   0  0  0  0  0  2  0  0  0  0  0  0
  190.1190  177.6830  141.4390 N   0  0  0  0  0  0  0  0  0  0  0  0
  187.4450  178.1230  141.9390 C   0  0  0  0  0  3  0  0  0  0  0  0
  188.2930  177.7780  142.9960 C   0  0  0  0  0  0  0  0  0  0  0  0
  189.6650  177.5670  142.7190 C   0  0  0  0  0  0  0  0  0  0  0  0
  189.2970  178.0150  140.4080 C   0  0  0  0  0  3  0  0  0  0  0  0
  187.9430  178.2430  140.6410 C   0  0  0  0  0  0  0  0  0  0  0  0
  186.3600  177.8590  144.5600 C   0  0  0  0  0  1  0  0  0  0  0  0
  187.7320  177.6440  144.2740 O   0  0  0  0  0  0  0  0  0  0  0  0
  190.5620  177.2620  143.7500 O   0  0  0  0  0  0  0  0  0  0  0  0
  190.9530  175.9270  144.0700 C   0  0  0  0  0  2  0  0  0  0  0  0
  191.5060  176.7810  146.0370 C   0  0  0  0  0  1  0  0  0  0  0  0
  191.9680  175.9270  145.0310 O   0  0  0  0  0  0  0  0  0  0  0  0
  1  3  1  0  0  0  0
  2  6  1  0  0  0  0
  2  1  2  0  0  0  0
  3  4  2  0  0  0  0
  3 46  1  0  0  0  0
  5 13  1  0  0  0  0
  5  4  1  0  0  0  0
  6  5  2  0  0  0  0
  7 15  1  0  0  0  0
  8 20  1  0  0  0  0
  8 19  1  0  0  0  0
 10 16  1  0  0  0  0
 10 21  1  0  0  0  0
 12 19  2  0  0  0  0
 12 13  1  0  0  0  0
 13 10  1  0  0  0  0
 14  7  1  0  0  0  0
 15  9  1  0  0  0  0
 16 21  1  0  0  0  0
 16 11  1  0  0  0  0
 17 20  1  0  0  0  0
 18 15  1  0  0  0  0
 18 16  1  0  0  0  0
 19 18  1  0  0  0  0
 20 14  1  0  0  0  0
 21 11  1  0  0  0  0
 23 29  1  0  0  0  0
 25  1  1  0  0  0  0
 25 22  1  0  0  0  0
 27 24  2  0  0  0  0
 27 25  1  0  0  0  0
 28 27  1  0  0  0  0
 28 23  1  0  0  0  0
 29 22  1  0  0  0  0
 29 26  2  0  0  0  0
 30 26  1  0  0  0  0
 30 31  2  0  0  0  0
 32 41  1  0  0  0  0
 33 34  2  0  0  0  0
 34 42  1  0  0  0  0
 34 38  1  0  0  0  0
 36 45  1  0  0  0  0
 36 30  1  0  0  0  0
 37 33  1  0  0  0  0
 37 44  1  0  0  0  0
 38 35  2  0  0  0  0
 39 38  1  0  0  0  0
 40 36  1  0  0  0  0
 40 32  1  0  0  0  0
 41 42  1  0  0  0  0
 43 45  2  0  0  0  0
 43 33  1  0  0  0  0
 44 39  2  0  0  0  0
 45 41  1  0  0  0  0
 46 47  1  0  0  0  0
 47 53  1  0  0  0  0
 48 51  2  0  0  0  0
 49 50  2  0  0  0  0
 50 55  1  0  0  0  0
 51 50  1  0  0  0  0
 51 56  1  0  0  0  0
 52 53  2  0  0  0  0
 52 48  1  0  0  0  0
 53 49  1  0  0  0  0
 55 54  1  0  0  0  0
 56 57  1  0  0  0  0
 57 59  1  0  0  0  0
 59 58  1  0  0  0  0
M  END
>  <MODEL>
7

>  <REMARK>
 VINA RESULT:      -6.9      3.182     12.603
  Name = 
  11 active torsions:
  status: ('A' for Active; 'I' for Inactive)
    1  A    between atoms: C_10  and  C_24
    2  A    between atoms: C_10  and  N_44
    3  A    between atoms: C_13  and  C_43
    4  A    between atoms: C_13  and  C_53
    5  A    between atoms: C_14  and  C_32
    6  A    between atoms: C_20  and  C_51
    7  A    between atoms: C_25  and  O_45
    8  A    between atoms: C_29  and  O_52
    9  A    between atoms: C_29  and  O_57
   10  A    between atoms: C_33  and  C_53
   11  A    between atoms: C_36  and  O_57
                            x       y       z     vdW  Elec       q    Type
                         _______ _______ _______ _____ _____    ______ ____

>  <TORSDO>
F 11

$$$$
=
 OpenBabel11032420073D

 59 68  0  0  1  0  0  0  0  0999 V2000
  182.7740  179.0060  142.5820 C   0  0  0  0  0  0  0  0  0  0  0  0
  181.4470  179.3500  142.9010 C   0  0  0  0  0  3  0  0  0  0  0  0
  183.0880  178.6450  141.2520 C   0  0  0  0  0  0  0  0  0  0  0  0
  182.0830  178.6540  140.2800 C   0  0  0  0  0  3  0  0  0  0  0  0
  180.7710  179.0220  140.5950 C   0  0  0  0  0  0  0  0  0  0  0  0
  180.4560  179.3640  141.9140 C   0  0  0  0  0  3  0  0  0  0  0  0
  181.0150  179.5700  135.0880 N   0  0  0  0  0  2  0  0  0  0  0  0
  179.5150  177.2870  136.3510 C   0  0  0  0  0  2  0  0  0  0  0  0
  179.3600  181.2970  134.6100 C   0  0  0  0  0  1  0  0  0  0  0  0
  180.2080  180.7120  138.9230 C   0  0  1  0  0  3  0  0  0  0  0  0
  179.1920  182.1500  137.4240 O   0  0  0  0  0  0  0  0  0  0  0  0
  179.7980  178.2970  138.5000 N   0  0  0  0  0  0  0  0  0  0  0  0
  179.8100  179.3500  139.4960 C   0  0  1  0  0  3  0  0  0  0  0  0
  181.0650  178.1980  134.5940 C   0  0  0  0  0  2  0  0  0  0  0  0
  179.6080  179.9360  135.2340 C   0  0  2  0  0  3  0  0  0  0  0  0
  179.8720  180.9790  137.5250 C   0  0  1  0  0  0  0  0  0  0  0  0
  181.1200  175.7930  135.1900 C   0  0  0  0  0  1  0  0  0  0  0  0
  179.1740  179.8620  136.7170 C   0  0  2  0  0  3  0  0  0  0  0  0
  179.4310  178.4690  137.2780 C   0  0  0  0  0  0  0  0  0  0  0  0
  180.9030  177.1930  135.7330 C   0  0  2  0  0  3  0  0  0  0  0  0
  178.9740  181.4350  138.5900 N   0  0  1  0  0  0  0  0  0  0  0  0
  185.1820  178.4960  143.2210 C   0  0  0  0  0  2  0  0  0  0  0  0
  185.7150  178.4900  145.7120 O   0  0  0  0  0  0  0  0  0  0  0  0
  182.3670  178.2880  145.2160 O   0  0  0  0  0  0  0  0  0  0  0  0
  183.8740  179.2010  143.6020 C   0  0  2  0  0  3  0  0  0  0  0  0
  187.3170  177.8230  144.1350 N   0  0  0  0  0  0  0  0  0  0  0  0
  183.4520  178.7940  144.9880 C   0  0  0  0  0  0  0  0  0  0  0  0
  184.4370  179.0030  146.0840 C   0  0  0  0  0  2  0  0  0  0  0  0
  186.1320  178.2950  144.3820 C   0  0  0  0  0  0  0  0  0  0  0  0
  188.3210  177.5560  145.1310 C   0  0  0  0  0  0  0  0  0  0  0  0
  188.3590  178.2290  146.1950 O   0  0  0  0  0  0  0  0  0  0  0  0
  191.7070  177.1240  145.1530 C   0  0  0  0  0  2  0  0  0  0  0  0
  190.2930  176.6420  141.2170 C   0  0  0  0  0  0  0  0  0  0  0  0
  191.5460  177.1360  141.3470 C   0  0  0  0  0  0  0  0  0  0  0  0
  193.4110  178.1010  140.2470 O   0  0  0  0  0  0  0  0  0  0  0  0
  189.3160  176.4390  144.9430 C   0  0  2  0  0  3  0  0  0  0  0  0
  189.6820  176.3670  139.8660 C   0  0  0  0  0  2  0  0  0  0  0  0
  192.3110  177.4860  140.1460 C   0  0  0  0  0  0  0  0  0  0  0  0
  191.7750  177.1950  138.8550 N   0  0  0  0  0  0  0  0  0  0  0  0
  190.4990  176.5720  145.9320 C   0  0  0  0  0  2  0  0  0  0  0  0
  191.3110  177.0390  143.7670 N   0  0  0  0  0  0  0  0  0  0  0  0
  192.1060  177.3420  142.6550 N   0  0  0  0  0  2  0  0  0  0  0  0
  189.4650  176.3780  142.4220 C   0  0  0  0  0  3  0  0  0  0  0  0
  190.5930  176.6810  138.7020 C   0  0  0  0  0  3  0  0  0  0  0  0
  189.9910  176.5860  143.6310 C   0  0  0  0  0  0  0  0  0  0  0  0
  184.5010  178.3660  140.8200 C   0  0  0  0  0  2  0  0  0  0  0  0
  184.8010  179.0580  139.4940 C   0  0  0  0  0  2  0  0  0  0  0  0
  187.3850  177.4270  137.3390 N   0  0  0  0  0  0  0  0  0  0  0  0
  184.6900  177.1720  137.8490 C   0  0  0  0  0  3  0  0  0  0  0  0
  185.2900  176.3410  136.8990 C   0  0  0  0  0  0  0  0  0  0  0  0
  186.6780  176.4810  136.6590 C   0  0  0  0  0  0  0  0  0  0  0  0
  186.8060  178.2400  138.2610 C   0  0  0  0  0  3  0  0  0  0  0  0
  185.4440  178.1250  138.5340 C   0  0  0  0  0  0  0  0  0  0  0  0
  184.1190  174.1510  136.7400 C   0  0  0  0  0  1  0  0  0  0  0  0
  184.4760  175.4210  136.2210 O   0  0  0  0  0  0  0  0  0  0  0  0
  187.3320  175.6420  135.7490 O   0  0  0  0  0  0  0  0  0  0  0  0
  188.1830  174.5700  136.1520 C   0  0  0  0  0  2  0  0  0  0  0  0
  188.4270  172.7720  134.8840 C   0  0  0  0  0  1  0  0  0  0  0  0
  187.5970  173.3360  135.8570 O   0  0  0  0  0  0  0  0  0  0  0  0
  1  2  1  0  0  0  0
  1 25  1  0  0  0  0
  3  1  2  0  0  0  0
  4  5  2  0  0  0  0
  4  3  1  0  0  0  0
  5  6  1  0  0  0  0
  6  2  2  0  0  0  0
  7 15  1  0  0  0  0
  8 19  1  0  0  0  0
  9 15  1  0  0  0  0
 10 13  1  0  0  0  0
 11 16  1  0  0  0  0
 11 21  1  0  0  0  0
 12 13  1  0  0  0  0
 13  5  1  0  0  0  0
 14  7  1  0  0  0  0
 14 20  1  0  0  0  0
 15 18  1  0  0  0  0
 16 21  1  0  0  0  0
 16 10  1  0  0  0  0
 17 20  1  0  0  0  0
 18 19  1  0  0  0  0
 18 16  1  0  0  0  0
 19 12  2  0  0  0  0
 20  8  1  0  0  0  0
 21 10  1  0  0  0  0
 22 25  1  0  0  0  0
 22 29  1  0  0  0  0
 23 28  1  0  0  0  0
 25 27  1  0  0  0  0
 26 29  2  0  0  0  0
 26 30  1  0  0  0  0
 27 24  2  0  0  0  0
 27 28  1  0  0  0  0
 29 23  1  0  0  0  0
 30 31  2  0  0  0  0
 32 40  1  0  0  0  0
 33 34  2  0  0  0  0
 33 43  1  0  0  0  0
 34 42  1  0  0  0  0
 36 30  1  0  0  0  0
 36 40  1  0  0  0  0
 37 33  1  0  0  0  0
 38 35  2  0  0  0  0
 38 34  1  0  0  0  0
 39 38  1  0  0  0  0
 41 32  1  0  0  0  0
 42 41  1  0  0  0  0
 43 45  2  0  0  0  0
 44 39  2  0  0  0  0
 44 37  1  0  0  0  0
 45 41  1  0  0  0  0
 45 36  1  0  0  0  0
 46  3  1  0  0  0  0
 47 46  1  0  0  0  0
 48 52  1  0  0  0  0
 49 53  1  0  0  0  0
 50 49  2  0  0  0  0
 51 50  1  0  0  0  0
 51 48  2  0  0  0  0
 52 53  2  0  0  0  0
 53 47  1  0  0  0  0
 55 54  1  0  0  0  0
 55 50  1  0  0  0  0
 56 57  1  0  0  0  0
 56 51  1  0  0  0  0
 58 59  1  0  0  0  0
 59 57  1  0  0  0  0
M  END
>  <MODEL>
8

>  <REMARK>
 VINA RESULT:      -6.8      4.136     11.020
  Name = 
  11 active torsions:
  status: ('A' for Active; 'I' for Inactive)
    1  A    between atoms: C_10  and  C_24
    2  A    between atoms: C_10  and  N_44
    3  A    between atoms: C_13  and  C_43
    4  A    between atoms: C_13  and  C_53
    5  A    between atoms: C_14  and  C_32
    6  A    between atoms: C_20  and  C_51
    7  A    between atoms: C_25  and  O_45
    8  A    between atoms: C_29  and  O_52
    9  A    between atoms: C_29  and  O_57
   10  A    between atoms: C_33  and  C_53
   11  A    between atoms: C_36  and  O_57
                            x       y       z     vdW  Elec       q    Type
                         _______ _______ _______ _____ _____    ______ ____

>  <TORSDO>
F 11

$$$$
=
 OpenBabel11032420073D

 59 68  0  0  1  0  0  0  0  0999 V2000
  187.6920  176.7480  137.0950 C   0  0  0  0  0  0  0  0  0  0  0  0
  186.8890  176.4320  135.9830 C   0  0  0  0  0  3  0  0  0  0  0  0
  187.1780  177.6120  138.0880 C   0  0  0  0  0  0  0  0  0  0  0  0
  185.8820  178.1200  137.9560 C   0  0  0  0  0  3  0  0  0  0  0  0
  185.0780  177.7840  136.8630 C   0  0  0  0  0  0  0  0  0  0  0  0
  185.5910  176.9410  135.8710 C   0  0  0  0  0  3  0  0  0  0  0  0
  180.8570  176.4020  140.1750 N   0  0  0  0  0  2  0  0  0  0  0  0
  181.8510  179.2390  140.0380 C   0  0  0  0  0  2  0  0  0  0  0  0
  178.9550  176.2680  138.6520 C   0  0  0  0  0  1  0  0  0  0  0  0
  182.8810  176.7370  136.6450 C   0  0  1  0  0  3  0  0  0  0  0  0
  180.6640  176.2080  136.2550 O   0  0  0  0  0  0  0  0  0  0  0  0
  183.2450  178.6550  138.1840 N   0  0  0  0  0  0  0  0  0  0  0  0
  183.6070  178.0570  136.9140 C   0  0  1  0  0  3  0  0  0  0  0  0
  181.0250  177.2570  141.3440 C   0  0  0  0  0  2  0  0  0  0  0  0
  180.0690  177.1450  139.1940 C   0  0  2  0  0  3  0  0  0  0  0  0
  181.5460  176.5730  137.2200 C   0  0  1  0  0  0  0  0  0  0  0  0
  182.4050  178.9980  142.4430 C   0  0  0  0  0  1  0  0  0  0  0  0
  180.9780  177.7210  138.0840 C   0  0  2  0  0  3  0  0  0  0  0  0
  182.0620  178.6060  138.6880 C   0  0  0  0  0  0  0  0  0  0  0  0
  182.1720  178.2470  141.1470 C   0  0  2  0  0  3  0  0  0  0  0  0
  181.6920  177.0370  135.8370 N   0  0  1  0  0  0  0  0  0  0  0  0
  190.1510  176.5950  136.4680 C   0  0  0  0  0  2  0  0  0  0  0  0
  191.2360  174.3010  136.6900 O   0  0  0  0  0  0  0  0  0  0  0  0
  187.8560  174.0210  136.7030 O   0  0  0  0  0  0  0  0  0  0  0  0
  189.0030  176.0260  137.3120 C   0  0  2  0  0  3  0  0  0  0  0  0
  192.3990  176.0960  135.7290 N   0  0  0  0  0  0  0  0  0  0  0  0
  188.8870  174.5430  137.0930 C   0  0  0  0  0  0  0  0  0  0  0  0
  190.1050  173.7240  137.3410 C   0  0  0  0  0  2  0  0  0  0  0  0
  191.3280  175.6550  136.3180 C   0  0  0  0  0  0  0  0  0  0  0  0
  193.5870  175.3200  135.4930 C   0  0  0  0  0  0  0  0  0  0  0  0
  193.6040  174.4370  134.5940 O   0  0  0  0  0  0  0  0  0  0  0  0
  196.9310  175.6930  134.9120 C   0  0  0  0  0  2  0  0  0  0  0  0
  196.2940  172.0630  136.9450 C   0  0  0  0  0  0  0  0  0  0  0  0
  197.3490  172.0980  136.1000 C   0  0  0  0  0  0  0  0  0  0  0  0
  199.0570  170.8570  135.0230 O   0  0  0  0  0  0  0  0  0  0  0  0
  194.8470  175.5760  136.2810 C   0  0  2  0  0  3  0  0  0  0  0  0
  195.9820  170.8450  137.7800 C   0  0  0  0  0  2  0  0  0  0  0  0
  198.1750  170.8990  135.9270 C   0  0  0  0  0  0  0  0  0  0  0  0
  197.9300  169.7480  136.7350 N   0  0  0  0  0  0  0  0  0  0  0  0
  195.7950  176.5350  135.5230 C   0  0  0  0  0  2  0  0  0  0  0  0
  196.7830  174.3930  135.5230 N   0  0  0  0  0  0  0  0  0  0  0  0
  197.6350  173.2950  135.3560 N   0  0  0  0  0  2  0  0  0  0  0  0
  195.3860  173.2330  137.0570 C   0  0  0  0  0  3  0  0  0  0  0  0
  196.9510  169.7020  137.5860 C   0  0  0  0  0  3  0  0  0  0  0  0
  195.6540  174.3340  136.3520 C   0  0  0  0  0  0  0  0  0  0  0  0
  187.9400  177.9090  139.3500 C   0  0  0  0  0  2  0  0  0  0  0  0
  187.0180  178.5280  140.3970 C   0  0  0  0  0  2  0  0  0  0  0  0
  189.3350  177.8780  143.2600 N   0  0  0  0  0  0  0  0  0  0  0  0
  186.6200  178.0300  142.8200 C   0  0  0  0  0  3  0  0  0  0  0  0
  187.0910  177.7160  144.0980 C   0  0  0  0  0  0  0  0  0  0  0  0
  188.4900  177.6530  144.3050 C   0  0  0  0  0  0  0  0  0  0  0  0
  188.8820  178.1800  142.0140 C   0  0  0  0  0  3  0  0  0  0  0  0
  187.5120  178.2630  141.7730 C   0  0  0  0  0  0  0  0  0  0  0  0
  186.3860  177.6870  146.4840 C   0  0  0  0  0  1  0  0  0  0  0  0
  186.1470  177.4640  145.1050 O   0  0  0  0  0  0  0  0  0  0  0  0
  189.0110  177.3850  145.5760 O   0  0  0  0  0  0  0  0  0  0  0  0
  190.3960  177.1310  145.8120 C   0  0  0  0  0  2  0  0  0  0  0  0
  191.7870  176.1580  147.2320 C   0  0  0  0  0  1  0  0  0  0  0  0
  190.6420  176.9590  147.1760 O   0  0  0  0  0  0  0  0  0  0  0  0
  1 25  1  0  0  0  0
  1  3  1  0  0  0  0
  2  1  2  0  0  0  0
  3 46  1  0  0  0  0
  4  3  2  0  0  0  0
  5 13  1  0  0  0  0
  5  4  1  0  0  0  0
  6  2  1  0  0  0  0
  6  5  2  0  0  0  0
  7 14  1  0  0  0  0
  8 20  1  0  0  0  0
  9 15  1  0  0  0  0
 10 13  1  0  0  0  0
 10 16  1  0  0  0  0
 11 16  1  0  0  0  0
 12 19  2  0  0  0  0
 13 12  1  0  0  0  0
 15  7  1  0  0  0  0
 16 18  1  0  0  0  0
 18 19  1  0  0  0  0
 18 15  1  0  0  0  0
 19  8  1  0  0  0  0
 20 14  1  0  0  0  0
 20 17  1  0  0  0  0
 21 11  1  0  0  0  0
 21 10  1  0  0  0  0
 21 16  1  0  0  0  0
 22 25  1  0  0  0  0
 23 28  1  0  0  0  0
 24 27  2  0  0  0  0
 26 29  2  0  0  0  0
 27 25  1  0  0  0  0
 27 28  1  0  0  0  0
 29 22  1  0  0  0  0
 29 23  1  0  0  0  0
 30 26  1  0  0  0  0
 30 36  1  0  0  0  0
 31 30  2  0  0  0  0
 32 41  1  0  0  0  0
 32 40  1  0  0  0  0
 33 43  1  0  0  0  0
 33 37  1  0  0  0  0
 34 33  2  0  0  0  0
 35 38  2  0  0  0  0
 36 45  1  0  0  0  0
 38 34  1  0  0  0  0
 38 39  1  0  0  0  0
 39 44  2  0  0  0  0
 40 36  1  0  0  0  0
 41 45  1  0  0  0  0
 42 41  1  0  0  0  0
 42 34  1  0  0  0  0
 44 37  1  0  0  0  0
 45 43  2  0  0  0  0
 46 47  1  0  0  0  0
 47 53  1  0  0  0  0
 48 51  2  0  0  0  0
 49 50  2  0  0  0  0
 50 51  1  0  0  0  0
 50 55  1  0  0  0  0
 51 56  1  0  0  0  0
 52 48  1  0  0  0  0
 53 52  2  0  0  0  0
 53 49  1  0  0  0  0
 55 54  1  0  0  0  0
 56 57  1  0  0  0  0
 57 59  1  0  0  0  0
 59 58  1  0  0  0  0
M  END
>  <MODEL>
9

>  <REMARK>
 VINA RESULT:      -6.7      2.567     12.324
  Name = 
  11 active torsions:
  status: ('A' for Active; 'I' for Inactive)
    1  A    between atoms: C_10  and  C_24
    2  A    between atoms: C_10  and  N_44
    3  A    between atoms: C_13  and  C_43
    4  A    between atoms: C_13  and  C_53
    5  A    between atoms: C_14  and  C_32
    6  A    between atoms: C_20  and  C_51
    7  A    between atoms: C_25  and  O_45
    8  A    between atoms: C_29  and  O_52
    9  A    between atoms: C_29  and  O_57
   10  A    between atoms: C_33  and  C_53
   11  A    between atoms: C_36  and  O_57
                            x       y       z     vdW  Elec       q    Type
                         _______ _______ _______ _____ _____    ______ ____

>  <TORSDO>
F 11

$$$$
