=
 OpenBabel11042409583D

 38 43  0  0  1  0  0  0  0  0999 V2000
  189.0360  179.1360  138.2570 C   0  0  0  0  0  1  0  0  0  0  0  0
  184.3770  178.9870  141.5350 C   0  0  1  0  0  3  0  0  0  0  0  0
  181.7640  176.1300  137.0730 C   0  0  0  0  0  2  0  0  0  0  0  0
  184.9530  179.3900  140.1550 C   0  0  1  0  0  3  0  0  0  0  0  0
  187.7420  177.6260  142.9240 C   0  0  0  0  0  0  0  0  0  0  0  0
  186.7500  178.0280  142.0000 C   0  0  0  0  0  0  0  0  0  0  0  0
  182.5790  176.0740  138.3690 C   0  0  0  0  0  2  0  0  0  0  0  0
  182.9990  178.3190  141.4720 C   0  0  0  0  0  2  0  0  0  0  0  0
  185.9940  178.4010  139.6100 C   0  0  0  0  0  2  0  0  0  0  0  0
  188.3580  177.7850  140.2120 C   0  0  0  0  0  0  0  0  0  0  0  0
  185.3160  178.1970  142.4650 C   0  0  1  0  0  3  0  0  0  0  0  0
  187.4920  177.6590  144.4080 C   0  0  0  0  0  2  0  0  0  0  0  0
  190.3080  177.2500  139.1140 N   0  0  0  0  0  0  0  0  0  0  0  0
  187.0540  178.1050  140.6200 C   0  0  0  0  0  0  0  0  0  0  0  0
  183.0290  177.1110  140.5430 C   0  0  0  0  0  2  0  0  0  0  0  0
  188.9550  177.7350  138.8420 C   0  0  2  0  0  3  0  0  0  0  0  0
  182.5270  177.4080  139.1190 C   0  0  0  0  0  0  0  0  0  0  0  0
  189.3060  177.4110  141.1140 C   0  0  0  0  0  0  0  0  0  0  0  0
  180.4270  176.4520  137.3640 O   0  0  0  0  0  0  0  0  0  0  0  0
  181.0710  177.9220  139.1610 C   0  0  0  0  0  2  0  0  0  0  0  0
  183.8530  179.6730  139.1090 C   0  0  0  0  0  2  0  0  0  0  0  0
  180.4300  177.8060  137.7720 C   0  0  0  0  0  2  0  0  0  0  0  0
  183.4190  178.4080  138.3510 C   0  0  0  0  0  2  0  0  0  0  0  0
  189.0360  177.3260  142.4730 C   0  0  0  0  0  3  0  0  0  0  0  0
  190.5020  177.0790  140.3850 C   0  0  0  0  0  3  0  0  0  0  0  0
  186.0170  177.7810  144.8040 C   0  0  2  0  0  3  0  0  0  0  0  0
  185.2560  178.7370  143.8860 C   0  0  0  0  0  2  0  0  0  0  0  0
  185.8940  178.1760  146.2750 C   0  0  2  0  0  3  0  0  0  0  0  0
  185.0100  179.2500  146.4090 O   0  0  0  0  0  1  0  0  0  0  0  0
  187.2420  178.5090  146.8900 C   0  0  0  0  0  2  0  0  0  0  0  0
  187.6060  177.5230  147.9860 C   0  0  0  0  0  2  0  0  0  0  0  0
  190.1360  177.3940  147.6770 C   0  0  0  0  0  0  0  0  0  0  0  0
  188.9700  177.7170  148.4510 N   0  0  0  0  0  2  0  0  0  0  0  0
  191.2760  177.7140  148.1160 O   0  0  0  0  0  0  0  0  0  0  0  0
  190.0260  176.6670  146.3700 C   0  0  0  0  0  2  0  0  0  0  0  0
  191.3150  176.7290  145.6220 C   0  0  0  0  0  0  0  0  0  0  0  0
  192.1000  175.7510  145.6620 O   0  0  0  0  0  1  0  0  0  0  0  0
  191.6450  177.8410  144.8570 O   0  0  0  0  0  0  0  0  0  0  0  0
  2  8  1  6  0  0  0
  2 11  1  0  0  0  0
  3 19  1  0  0  0  0
  3  7  1  0  0  0  0
  4 21  1  6  0  0  0
  4  2  1  0  0  0  0
  5 12  1  0  0  0  0
  6 11  1  0  0  0  0
  6  5  2  0  0  0  0
  7 17  1  0  0  0  0
  9  4  1  0  0  0  0
  9 14  1  0  0  0  0
 10 14  2  0  0  0  0
 10 18  1  0  0  0  0
 11 27  1  1  0  0  0
 12 26  1  0  0  0  0
 13 25  2  0  0  0  0
 14  6  1  0  0  0  0
 15  8  1  0  0  0  0
 16  1  1  1  0  0  0
 16 13  1  0  0  0  0
 16 10  1  0  0  0  0
 17 20  1  0  0  0  0
 17 15  1  0  0  0  0
 18 24  2  0  0  0  0
 19 22  1  0  0  0  0
 22 20  1  0  0  0  0
 23 21  1  0  0  0  0
 23 17  1  0  0  0  0
 24  5  1  0  0  0  0
 25 18  1  0  0  0  0
 26 28  1  1  0  0  0
 27 26  1  0  0  0  0
 28 29  1  6  0  0  0
 28 30  1  0  0  0  0
 30 31  1  0  0  0  0
 31 33  1  0  0  0  0
 32 34  2  0  0  0  0
 32 33  1  0  0  0  0
 35 32  1  0  0  0  0
 36 37  1  0  0  0  0
 36 35  1  0  0  0  0
 38 36  2  0  0  0  0
M  END
>  <MODEL>
1

>  <REMARK>
 VINA RESULT:      -9.2      0.000      0.000
  Name = 
  6 active torsions:
  status: ('A' for Active; 'I' for Inactive)
    1  A    between atoms: C_3  and  C_8
    2  A    between atoms: C_3  and  C_22
    3  A    between atoms: C_19  and  C_23
    4  A    between atoms: C_19  and  C_30
    5  A    between atoms: C_23  and  N_32
    6  A    between atoms: C_30  and  C_36
                            x       y       z     vdW  Elec       q    Type
                         _______ _______ _______ _____ _____    ______ ____

>  <TORSDO>
F 6

$$$$
=
 OpenBabel11042409583D

 38 43  0  0  1  0  0  0  0  0999 V2000
  187.4920  179.3700  136.7150 C   0  0  0  0  0  1  0  0  0  0  0  0
  182.9850  178.4130  140.0670 C   0  0  1  0  0  3  0  0  0  0  0  0
  181.4140  174.2650  136.1650 C   0  0  0  0  0  2  0  0  0  0  0  0
  183.4580  178.7420  138.6290 C   0  0  1  0  0  3  0  0  0  0  0  0
  186.5600  178.3060  141.5870 C   0  0  0  0  0  0  0  0  0  0  0  0
  185.5190  178.2580  140.6300 C   0  0  0  0  0  0  0  0  0  0  0  0
  182.1760  174.6480  137.4380 C   0  0  0  0  0  2  0  0  0  0  0  0
  181.8570  177.3780  140.1370 C   0  0  0  0  0  2  0  0  0  0  0  0
  184.7520  178.0190  138.2280 C   0  0  0  0  0  2  0  0  0  0  0  0
  187.1770  178.2070  138.8720 C   0  0  0  0  0  0  0  0  0  0  0  0
  184.0850  178.0810  141.0920 C   0  0  1  0  0  3  0  0  0  0  0  0
  186.2710  178.5000  143.0520 C   0  0  0  0  0  2  0  0  0  0  0  0
  189.2270  178.0850  137.8350 N   0  0  0  0  0  0  0  0  0  0  0  0
  185.8260  178.2010  139.2500 C   0  0  0  0  0  0  0  0  0  0  0  0
  182.2550  176.0990  139.4110 C   0  0  0  0  0  2  0  0  0  0  0  0
  187.7990  178.1150  137.5160 C   0  0  2  0  0  3  0  0  0  0  0  0
  181.7260  176.0130  137.9680 C   0  0  0  0  0  0  0  0  0  0  0  0
  188.1680  178.2660  139.8040 C   0  0  0  0  0  0  0  0  0  0  0  0
  180.0340  174.2320  136.4290 O   0  0  0  0  0  0  0  0  0  0  0  0
  180.1830  176.0880  137.9570 C   0  0  0  0  0  2  0  0  0  0  0  0
  182.3510  178.5310  137.5740 C   0  0  0  0  0  2  0  0  0  0  0  0
  179.6390  175.5770  136.6170 C   0  0  0  0  0  2  0  0  0  0  0  0
  182.3160  177.0920  137.0340 C   0  0  0  0  0  2  0  0  0  0  0  0
  187.8970  178.3220  141.1640 C   0  0  0  0  0  3  0  0  0  0  0  0
  189.4280  178.1800  139.1120 C   0  0  0  0  0  3  0  0  0  0  0  0
  184.8130  178.2560  143.4530 C   0  0  2  0  0  3  0  0  0  0  0  0
  183.8350  178.7980  142.4100 C   0  0  0  0  0  2  0  0  0  0  0  0
  184.5430  178.8260  144.8440 C   0  0  2  0  0  3  0  0  0  0  0  0
  183.8530  180.0350  144.7400 O   0  0  0  0  0  1  0  0  0  0  0  0
  185.8210  179.0030  145.6450 C   0  0  0  0  0  2  0  0  0  0  0  0
  185.7970  178.1700  146.9150 C   0  0  0  0  0  2  0  0  0  0  0  0
  188.2390  178.0090  147.6360 C   0  0  0  0  0  0  0  0  0  0  0  0
  186.9020  178.5060  147.7990 N   0  0  0  0  0  2  0  0  0  0  0  0
  189.1580  178.4550  148.3800 O   0  0  0  0  0  0  0  0  0  0  0  0
  188.5600  176.9570  146.6170 C   0  0  0  0  0  2  0  0  0  0  0  0
  189.6800  177.4010  145.7360 C   0  0  0  0  0  0  0  0  0  0  0  0
  189.4980  178.3520  144.9380 O   0  0  0  0  0  0  0  0  0  0  0  0
  190.9290  176.7970  145.8090 O   0  0  0  0  0  1  0  0  0  0  0  0
  2  8  1  6  0  0  0
  2 11  1  0  0  0  0
  3 19  1  0  0  0  0
  3  7  1  0  0  0  0
  4 21  1  6  0  0  0
  4  2  1  0  0  0  0
  5 12  1  0  0  0  0
  6 11  1  0  0  0  0
  6  5  2  0  0  0  0
  7 17  1  0  0  0  0
  9  4  1  0  0  0  0
  9 14  1  0  0  0  0
 10 14  2  0  0  0  0
 10 18  1  0  0  0  0
 11 27  1  1  0  0  0
 12 26  1  0  0  0  0
 13 25  2  0  0  0  0
 14  6  1  0  0  0  0
 15  8  1  0  0  0  0
 16  1  1  6  0  0  0
 16 13  1  0  0  0  0
 16 10  1  0  0  0  0
 17 15  1  0  0  0  0
 18 24  2  0  0  0  0
 19 22  1  0  0  0  0
 20 17  1  0  0  0  0
 22 20  1  0  0  0  0
 23 21  1  0  0  0  0
 23 17  1  0  0  0  0
 24  5  1  0  0  0  0
 25 18  1  0  0  0  0
 26 28  1  1  0  0  0
 27 26  1  0  0  0  0
 28 29  1  6  0  0  0
 28 30  1  0  0  0  0
 30 31  1  0  0  0  0
 31 33  1  0  0  0  0
 32 33  1  0  0  0  0
 32 34  2  0  0  0  0
 35 32  1  0  0  0  0
 36 38  1  0  0  0  0
 36 35  1  0  0  0  0
 37 36  2  0  0  0  0
M  END
>  <MODEL>
2

>  <REMARK>
 VINA RESULT:      -8.3      1.473      2.095
  Name = 
  6 active torsions:
  status: ('A' for Active; 'I' for Inactive)
    1  A    between atoms: C_3  and  C_8
    2  A    between atoms: C_3  and  C_22
    3  A    between atoms: C_19  and  C_23
    4  A    between atoms: C_19  and  C_30
    5  A    between atoms: C_23  and  N_32
    6  A    between atoms: C_30  and  C_36
                            x       y       z     vdW  Elec       q    Type
                         _______ _______ _______ _____ _____    ______ ____

>  <TORSDO>
F 6

$$$$
=
 OpenBabel11042409583D

 38 43  0  0  1  0  0  0  0  0999 V2000
  186.7850  178.3350  134.8810 C   0  0  0  0  0  1  0  0  0  0  0  0
  185.6720  179.0340  140.4250 C   0  0  1  0  0  3  0  0  0  0  0  0
  180.4690  176.4560  139.3400 C   0  0  0  0  0  2  0  0  0  0  0  0
  185.1730  179.2910  138.9820 C   0  0  1  0  0  3  0  0  0  0  0  0
  188.9320  177.2180  139.3390 C   0  0  0  0  0  0  0  0  0  0  0  0
  187.6170  177.7360  139.2860 C   0  0  0  0  0  0  0  0  0  0  0  0
  181.9430  176.3210  139.7370 C   0  0  0  0  0  2  0  0  0  0  0  0
  184.5780  178.5870  141.4000 C   0  0  0  0  0  2  0  0  0  0  0  0
  185.4610  178.1330  138.0160 C   0  0  0  0  0  2  0  0  0  0  0  0
  187.5240  177.1790  136.9360 C   0  0  0  0  0  0  0  0  0  0  0  0
  186.9190  178.1420  140.5700 C   0  0  1  0  0  3  0  0  0  0  0  0
  189.7760  177.3450  140.5790 C   0  0  0  0  0  2  0  0  0  0  0  0
  188.1260  176.3060  134.8940 N   0  0  0  0  0  0  0  0  0  0  0  0
  186.8940  177.7130  138.0700 C   0  0  0  0  0  0  0  0  0  0  0  0
  183.8540  177.3560  140.8690 C   0  0  0  0  0  2  0  0  0  0  0  0
  187.0070  176.9860  135.5460 C   0  0  2  0  0  3  0  0  0  0  0  0
  182.5390  177.6750  140.1370 C   0  0  0  0  0  0  0  0  0  0  0  0
  188.7950  176.6960  136.9990 C   0  0  0  0  0  0  0  0  0  0  0  0
  179.7350  176.9920  140.4130 O   0  0  0  0  0  0  0  0  0  0  0  0
  181.5640  178.4100  141.0830 C   0  0  0  0  0  2  0  0  0  0  0  0
  183.6860  179.7030  138.9300 C   0  0  0  0  0  2  0  0  0  0  0  0
  180.1360  178.3440  140.5250 C   0  0  0  0  0  2  0  0  0  0  0  0
  182.7410  178.4940  138.8430 C   0  0  0  0  0  2  0  0  0  0  0  0
  189.5280  176.7030  138.1780 C   0  0  0  0  0  3  0  0  0  0  0  0
  189.1250  176.1550  135.7060 C   0  0  0  0  0  3  0  0  0  0  0  0
  188.9970  177.7100  141.8470 C   0  0  2  0  0  3  0  0  0  0  0  0
  187.9010  178.7380  141.5680 C   0  0  0  0  0  2  0  0  0  0  0  0
  189.9550  178.1740  142.9430 C   0  0  2  0  0  3  0  0  0  0  0  0
  191.2750  178.0800  142.4950 O   0  0  0  0  0  1  0  0  0  0  0  0
  189.7680  177.3930  144.2320 C   0  0  0  0  0  2  0  0  0  0  0  0
  188.3030  177.0850  144.4830 C   0  0  0  0  0  2  0  0  0  0  0  0
  186.4640  178.1870  145.8670 C   0  0  0  0  0  0  0  0  0  0  0  0
  187.8150  177.7370  145.6880 N   0  0  0  0  0  2  0  0  0  0  0  0
  186.1040  178.6290  146.9940 O   0  0  0  0  0  0  0  0  0  0  0  0
  185.4790  178.1640  144.7360 C   0  0  0  0  0  2  0  0  0  0  0  0
  184.4520  179.2320  144.9090 C   0  0  0  0  0  0  0  0  0  0  0  0
  184.5600  180.3030  144.2640 O   0  0  0  0  0  0  0  0  0  0  0  0
  183.3610  179.0460  145.7500 O   0  0  0  0  0  1  0  0  0  0  0  0
  2 11  1  0  0  0  0
  2  8  1  1  0  0  0
  3  7  1  0  0  0  0
  3 19  1  0  0  0  0
  4  9  1  6  0  0  0
  4  2  1  0  0  0  0
  5 12  1  0  0  0  0
  6  5  1  0  0  0  0
  6 11  1  0  0  0  0
  7 17  1  0  0  0  0
  9 14  1  0  0  0  0
 10 18  2  0  0  0  0
 10 14  1  0  0  0  0
 11 27  1  1  0  0  0
 12 26  1  0  0  0  0
 13 16  1  0  0  0  0
 13 25  2  0  0  0  0
 14  6  2  0  0  0  0
 15  8  1  0  0  0  0
 16  1  1  6  0  0  0
 16 10  1  0  0  0  0
 17 15  1  0  0  0  0
 17 20  1  0  0  0  0
 18 24  1  0  0  0  0
 19 22  1  0  0  0  0
 21  4  1  0  0  0  0
 22 20  1  0  0  0  0
 23 21  1  0  0  0  0
 23 17  1  0  0  0  0
 24  5  2  0  0  0  0
 25 18  1  0  0  0  0
 26 28  1  1  0  0  0
 27 26  1  0  0  0  0
 28 29  1  6  0  0  0
 28 30  1  0  0  0  0
 30 31  1  0  0  0  0
 31 33  1  0  0  0  0
 32 34  2  0  0  0  0
 33 32  1  0  0  0  0
 35 36  1  0  0  0  0
 35 32  1  0  0  0  0
 36 38  1  0  0  0  0
 37 36  2  0  0  0  0
M  END
>  <MODEL>
3

>  <REMARK>
 VINA RESULT:      -8.1      2.090      4.151
  Name = 
  6 active torsions:
  status: ('A' for Active; 'I' for Inactive)
    1  A    between atoms: C_3  and  C_8
    2  A    between atoms: C_3  and  C_22
    3  A    between atoms: C_19  and  C_23
    4  A    between atoms: C_19  and  C_30
    5  A    between atoms: C_23  and  N_32
    6  A    between atoms: C_30  and  C_36
                            x       y       z     vdW  Elec       q    Type
                         _______ _______ _______ _____ _____    ______ ____

>  <TORSDO>
F 6

$$$$
=
 OpenBabel11042409583D

 38 43  0  0  1  0  0  0  0  0999 V2000
  191.6820  178.1000  142.9770 C   0  0  0  0  0  1  0  0  0  0  0  0
  187.1500  178.6280  139.5630 C   0  0  1  0  0  3  0  0  0  0  0  0
  189.7180  174.5720  136.1210 C   0  0  0  0  0  2  0  0  0  0  0  0
  188.6960  178.6730  139.6470 C   0  0  1  0  0  3  0  0  0  0  0  0
  186.6280  177.8360  143.3320 C   0  0  0  0  0  0  0  0  0  0  0  0
  187.2540  177.9330  142.0680 C   0  0  0  0  0  0  0  0  0  0  0  0
  188.7770  174.8990  137.2850 C   0  0  0  0  0  2  0  0  0  0  0  0
  186.6070  177.9080  138.3250 C   0  0  0  0  0  2  0  0  0  0  0  0
  189.2910  177.6210  140.5940 C   0  0  0  0  0  2  0  0  0  0  0  0
  189.3490  177.2920  143.0880 C   0  0  0  0  0  0  0  0  0  0  0  0
  186.4090  178.1570  140.8280 C   0  0  1  0  0  3  0  0  0  0  0  0
  185.1960  178.2540  143.5340 C   0  0  0  0  0  2  0  0  0  0  0  0
  190.8520  176.5690  144.6740 N   0  0  0  0  0  0  0  0  0  0  0  0
  188.6350  177.6520  141.9360 C   0  0  0  0  0  0  0  0  0  0  0  0
  187.1780  176.4990  138.2280 C   0  0  0  0  0  2  0  0  0  0  0  0
  190.7850  176.9040  143.2510 C   0  0  2  0  0  3  0  0  0  0  0  0
  188.3930  176.3830  137.2920 C   0  0  0  0  0  0  0  0  0  0  0  0
  188.7360  177.2150  144.3010 C   0  0  0  0  0  0  0  0  0  0  0  0
  189.1000  174.9010  134.9020 O   0  0  0  0  0  0  0  0  0  0  0  0
  188.0120  176.8240  135.8610 C   0  0  0  0  0  2  0  0  0  0  0  0
  189.3700  178.6180  138.2590 C   0  0  0  0  0  2  0  0  0  0  0  0
  189.0520  176.3140  134.8560 C   0  0  0  0  0  2  0  0  0  0  0  0
  189.6220  177.1790  137.7820 C   0  0  0  0  0  2  0  0  0  0  0  0
  187.3840  177.4830  144.4610 C   0  0  0  0  0  3  0  0  0  0  0  0
  189.7080  176.7530  145.2570 C   0  0  0  0  0  3  0  0  0  0  0  0
  184.3900  178.4130  142.2400 C   0  0  2  0  0  3  0  0  0  0  0  0
  185.2170  179.0540  141.1270 C   0  0  0  0  0  2  0  0  0  0  0  0
  183.0970  179.1810  142.5120 C   0  0  2  0  0  3  0  0  0  0  0  0
  183.0170  179.5160  143.8660 O   0  0  0  0  0  1  0  0  0  0  0  0
  181.8690  178.4020  142.0770 C   0  0  0  0  0  2  0  0  0  0  0  0
  181.5590  178.6350  140.6090 C   0  0  0  0  0  2  0  0  0  0  0  0
  181.5630  176.3540  139.4650 C   0  0  0  0  0  0  0  0  0  0  0  0
  180.8830  177.4930  140.0140 N   0  0  0  0  0  2  0  0  0  0  0  0
  180.8880  175.3570  139.0830 O   0  0  0  0  0  0  0  0  0  0  0  0
  183.0550  176.3360  139.3130 C   0  0  0  0  0  2  0  0  0  0  0  0
  183.4430  175.8000  137.9760 C   0  0  0  0  0  0  0  0  0  0  0  0
  183.3600  176.5410  136.9650 O   0  0  0  0  0  0  0  0  0  0  0  0
  183.9230  174.5040  137.8370 O   0  0  0  0  0  1  0  0  0  0  0  0
  2  8  1  6  0  0  0
  2  4  1  0  0  0  0
  2 11  1  0  0  0  0
  3  7  1  0  0  0  0
  4 21  1  6  0  0  0
  4  9  1  0  0  0  0
  5 12  1  0  0  0  0
  5 24  1  0  0  0  0
  6  5  2  0  0  0  0
  7 17  1  0  0  0  0
  9 14  1  0  0  0  0
 10 16  1  0  0  0  0
 10 18  1  0  0  0  0
 11 27  1  1  0  0  0
 11  6  1  0  0  0  0
 13 25  2  0  0  0  0
 14  6  1  0  0  0  0
 14 10  2  0  0  0  0
 15  8  1  0  0  0  0
 16  1  1  1  0  0  0
 16 13  1  0  0  0  0
 17 23  1  0  0  0  0
 17 15  1  0  0  0  0
 18 24  2  0  0  0  0
 18 25  1  0  0  0  0
 19  3  1  0  0  0  0
 20 17  1  0  0  0  0
 22 19  1  0  0  0  0
 22 20  1  0  0  0  0
 23 21  1  0  0  0  0
 26 28  1  1  0  0  0
 26 12  1  0  0  0  0
 27 26  1  0  0  0  0
 28 29  1  1  0  0  0
 30 28  1  0  0  0  0
 31 30  1  0  0  0  0
 32 33  1  0  0  0  0
 33 31  1  0  0  0  0
 34 32  2  0  0  0  0
 35 32  1  0  0  0  0
 36 35  1  0  0  0  0
 37 36  2  0  0  0  0
 38 36  1  0  0  0  0
M  END
>  <MODEL>
4

>  <REMARK>
 VINA RESULT:      -7.9      3.300      6.972
  Name = 
  6 active torsions:
  status: ('A' for Active; 'I' for Inactive)
    1  A    between atoms: C_3  and  C_8
    2  A    between atoms: C_3  and  C_22
    3  A    between atoms: C_19  and  C_23
    4  A    between atoms: C_19  and  C_30
    5  A    between atoms: C_23  and  N_32
    6  A    between atoms: C_30  and  C_36
                            x       y       z     vdW  Elec       q    Type
                         _______ _______ _______ _____ _____    ______ ____

>  <TORSDO>
F 6

$$$$
=
 OpenBabel11042409583D

 38 43  0  0  1  0  0  0  0  0999 V2000
  190.3180  178.6320  143.3470 C   0  0  0  0  0  1  0  0  0  0  0  0
  187.0470  178.5910  138.6810 C   0  0  1  0  0  3  0  0  0  0  0  0
  190.5200  174.2350  136.7180 C   0  0  0  0  0  2  0  0  0  0  0  0
  188.4940  178.6970  139.2230 C   0  0  1  0  0  3  0  0  0  0  0  0
  185.3960  178.2460  142.1820 C   0  0  0  0  0  0  0  0  0  0  0  0
  186.3780  178.2100  141.1660 C   0  0  0  0  0  0  0  0  0  0  0  0
  189.2700  174.6700  137.4910 C   0  0  0  0  0  2  0  0  0  0  0  0
  186.9040  177.7090  137.4370 C   0  0  0  0  0  2  0  0  0  0  0  0
  188.7660  177.7880  140.4310 C   0  0  0  0  0  2  0  0  0  0  0  0
  188.0580  177.7660  142.8450 C   0  0  0  0  0  0  0  0  0  0  0  0
  185.9530  178.2530  139.7100 C   0  0  1  0  0  3  0  0  0  0  0  0
  183.9730  178.6380  141.8850 C   0  0  0  0  0  2  0  0  0  0  0  0
  189.0010  177.2910  144.8900 N   0  0  0  0  0  0  0  0  0  0  0  0
  187.7310  177.9600  141.4950 C   0  0  0  0  0  0  0  0  0  0  0  0
  187.4690  176.3180  137.6960 C   0  0  0  0  0  2  0  0  0  0  0  0
  189.3730  177.4490  143.4840 C   0  0  2  0  0  3  0  0  0  0  0  0
  188.9110  176.1290  137.1940 C   0  0  0  0  0  0  0  0  0  0  0  0
  187.1040  177.8170  143.8140 C   0  0  0  0  0  0  0  0  0  0  0  0
  190.3050  174.3920  135.3380 O   0  0  0  0  0  0  0  0  0  0  0  0
  188.9870  176.3810  135.6720 C   0  0  0  0  0  2  0  0  0  0  0  0
  189.5590  178.4960  138.1230 C   0  0  0  0  0  2  0  0  0  0  0  0
  190.2810  175.7870  135.1020 C   0  0  0  0  0  2  0  0  0  0  0  0
  189.9370  177.0190  137.9300 C   0  0  0  0  0  2  0  0  0  0  0  0
  185.7690  178.0580  143.5210 C   0  0  0  0  0  3  0  0  0  0  0  0
  187.7350  177.5070  145.0710 C   0  0  0  0  0  3  0  0  0  0  0  0
  183.6000  178.6110  140.3990 C   0  0  2  0  0  3  0  0  0  0  0  0
  184.7310  179.1400  139.5170 C   0  0  0  0  0  2  0  0  0  0  0  0
  182.2910  179.3640  140.1670 C   0  0  2  0  0  3  0  0  0  0  0  0
  181.3310  178.9480  141.0930 O   0  0  0  0  0  1  0  0  0  0  0  0
  181.7790  179.1940  138.7480 C   0  0  0  0  0  2  0  0  0  0  0  0
  181.6860  180.5290  138.0310 C   0  0  0  0  0  2  0  0  0  0  0  0
  180.1740  182.5840  138.0880 C   0  0  0  0  0  0  0  0  0  0  0  0
  180.7830  181.4430  138.7120 N   0  0  0  0  0  2  0  0  0  0  0  0
  179.3070  183.2460  138.7240 O   0  0  0  0  0  0  0  0  0  0  0  0
  180.5640  183.0160  136.7060 C   0  0  0  0  0  2  0  0  0  0  0  0
  181.2360  184.3480  136.7400 C   0  0  0  0  0  0  0  0  0  0  0  0
  180.8100  185.2730  136.0070 O   0  0  0  0  0  0  0  0  0  0  0  0
  182.3060  184.5870  137.5930 O   0  0  0  0  0  1  0  0  0  0  0  0
  2  8  1  6  0  0  0
  2  4  1  0  0  0  0
  2 11  1  0  0  0  0
  3  7  1  0  0  0  0
  4 21  1  6  0  0  0
  4  9  1  0  0  0  0
  5 24  1  0  0  0  0
  6 14  1  0  0  0  0
  6  5  2  0  0  0  0
  8 15  1  0  0  0  0
  9 14  1  0  0  0  0
 10 16  1  0  0  0  0
 10 18  1  0  0  0  0
 11 27  1  1  0  0  0
 11  6  1  0  0  0  0
 12  5  1  0  0  0  0
 13 25  2  0  0  0  0
 14 10  2  0  0  0  0
 16  1  1  1  0  0  0
 16 13  1  0  0  0  0
 17  7  1  0  0  0  0
 17 15  1  0  0  0  0
 17 23  1  0  0  0  0
 18 25  1  0  0  0  0
 19  3  1  0  0  0  0
 20 17  1  0  0  0  0
 22 19  1  0  0  0  0
 22 20  1  0  0  0  0
 23 21  1  0  0  0  0
 24 18  2  0  0  0  0
 26 28  1  1  0  0  0
 26 12  1  0  0  0  0
 27 26  1  0  0  0  0
 28 29  1  1  0  0  0
 30 28  1  0  0  0  0
 31 33  1  0  0  0  0
 31 30  1  0  0  0  0
 32 33  1  0  0  0  0
 32 34  2  0  0  0  0
 35 36  1  0  0  0  0
 35 32  1  0  0  0  0
 36 38  1  0  0  0  0
 37 36  2  0  0  0  0
M  END
>  <MODEL>
5

>  <REMARK>
 VINA RESULT:      -7.8      4.104      8.613
  Name = 
  6 active torsions:
  status: ('A' for Active; 'I' for Inactive)
    1  A    between atoms: C_3  and  C_8
    2  A    between atoms: C_3  and  C_22
    3  A    between atoms: C_19  and  C_23
    4  A    between atoms: C_19  and  C_30
    5  A    between atoms: C_23  and  N_32
    6  A    between atoms: C_30  and  C_36
                            x       y       z     vdW  Elec       q    Type
                         _______ _______ _______ _____ _____    ______ ____

>  <TORSDO>
F 6

$$$$
=
 OpenBabel11042409583D

 38 43  0  0  1  0  0  0  0  0999 V2000
  186.6580  178.6000  134.8720 C   0  0  0  0  0  1  0  0  0  0  0  0
  185.6760  179.0140  140.4690 C   0  0  1  0  0  3  0  0  0  0  0  0
  180.3430  176.7380  139.3400 C   0  0  0  0  0  2  0  0  0  0  0  0
  185.1630  179.3790  139.0540 C   0  0  1  0  0  3  0  0  0  0  0  0
  188.8300  177.1250  139.2120 C   0  0  0  0  0  0  0  0  0  0  0  0
  187.5400  177.7020  139.2160 C   0  0  0  0  0  0  0  0  0  0  0  0
  181.8160  176.5140  139.6980 C   0  0  0  0  0  2  0  0  0  0  0  0
  184.5800  178.5580  141.4380 C   0  0  0  0  0  2  0  0  0  0  0  0
  185.3820  178.2690  138.0160 C   0  0  0  0  0  2  0  0  0  0  0  0
  187.3800  177.2920  136.8400 C   0  0  0  0  0  0  0  0  0  0  0  0
  186.8840  178.0610  140.5360 C   0  0  1  0  0  3  0  0  0  0  0  0
  189.7020  177.1400  140.4390 C   0  0  0  0  0  2  0  0  0  0  0  0
  187.9050  176.5170  134.7380 N   0  0  0  0  0  0  0  0  0  0  0  0
  186.7950  177.7840  138.0160 C   0  0  0  0  0  0  0  0  0  0  0  0
  183.7920  177.3940  140.8500 C   0  0  0  0  0  2  0  0  0  0  0  0
  186.8300  177.2060  135.4520 C   0  0  2  0  0  3  0  0  0  0  0  0
  182.4800  177.8140  140.1650 C   0  0  0  0  0  0  0  0  0  0  0  0
  188.6280  176.7500  136.8480 C   0  0  0  0  0  0  0  0  0  0  0  0
  179.6530  177.2410  140.4570 O   0  0  0  0  0  0  0  0  0  0  0  0
  181.5560  178.5330  141.1720 C   0  0  0  0  0  2  0  0  0  0  0  0
  183.6960  179.8590  139.0570 C   0  0  0  0  0  2  0  0  0  0  0  0
  180.1170  178.5640  140.6410 C   0  0  0  0  0  2  0  0  0  0  0  0
  182.6960  178.7000  138.9180 C   0  0  0  0  0  2  0  0  0  0  0  0
  189.3820  176.6550  138.0100 C   0  0  0  0  0  3  0  0  0  0  0  0
  188.9110  176.2740  135.5190 C   0  0  0  0  0  3  0  0  0  0  0  0
  188.9620  177.4620  141.7430 C   0  0  2  0  0  3  0  0  0  0  0  0
  187.9090  178.5520  141.5480 C   0  0  0  0  0  2  0  0  0  0  0  0
  189.9600  177.8160  142.8440 C   0  0  2  0  0  3  0  0  0  0  0  0
  190.6780  176.6800  143.2220 O   0  0  0  0  0  1  0  0  0  0  0  0
  189.2810  178.4480  144.0460 C   0  0  0  0  0  2  0  0  0  0  0  0
  188.5920  177.4020  144.9040 C   0  0  0  0  0  2  0  0  0  0  0  0
  189.1300  177.4020  147.3990 C   0  0  0  0  0  0  0  0  0  0  0  0
  188.3850  177.8730  146.2650 N   0  0  0  0  0  2  0  0  0  0  0  0
  188.9650  177.9600  148.5200 O   0  0  0  0  0  0  0  0  0  0  0  0
  190.0800  176.2480  147.2820 C   0  0  0  0  0  2  0  0  0  0  0  0
  191.4850  176.7330  147.1460 C   0  0  0  0  0  0  0  0  0  0  0  0
  191.8090  177.4130  146.1410 O   0  0  0  0  0  0  0  0  0  0  0  0
  192.4300  176.4700  148.1280 O   0  0  0  0  0  1  0  0  0  0  0  0
  2 11  1  0  0  0  0
  2  8  1  1  0  0  0
  3  7  1  0  0  0  0
  3 19  1  0  0  0  0
  4  9  1  6  0  0  0
  4 21  1  0  0  0  0
  4  2  1  0  0  0  0
  5  6  1  0  0  0  0
  5 12  1  0  0  0  0
  6 11  1  0  0  0  0
  7 17  1  0  0  0  0
  9 14  1  0  0  0  0
 10 18  2  0  0  0  0
 10 14  1  0  0  0  0
 11 27  1  1  0  0  0
 12 26  1  0  0  0  0
 13 16  1  0  0  0  0
 13 25  2  0  0  0  0
 14  6  2  0  0  0  0
 15  8  1  0  0  0  0
 16  1  1  6  0  0  0
 16 10  1  0  0  0  0
 17 15  1  0  0  0  0
 17 20  1  0  0  0  0
 18 24  1  0  0  0  0
 19 22  1  0  0  0  0
 22 20  1  0  0  0  0
 23 21  1  0  0  0  0
 23 17  1  0  0  0  0
 24  5  2  0  0  0  0
 25 18  1  0  0  0  0
 26 28  1  1  0  0  0
 27 26  1  0  0  0  0
 28 29  1  1  0  0  0
 28 30  1  0  0  0  0
 30 31  1  0  0  0  0
 31 33  1  0  0  0  0
 32 34  2  0  0  0  0
 33 32  1  0  0  0  0
 35 32  1  0  0  0  0
 36 35  1  0  0  0  0
 36 38  1  0  0  0  0
 37 36  2  0  0  0  0
M  END
>  <MODEL>
6

>  <REMARK>
 VINA RESULT:      -7.7      2.015      3.265
  Name = 
  6 active torsions:
  status: ('A' for Active; 'I' for Inactive)
    1  A    between atoms: C_3  and  C_8
    2  A    between atoms: C_3  and  C_22
    3  A    between atoms: C_19  and  C_23
    4  A    between atoms: C_19  and  C_30
    5  A    between atoms: C_23  and  N_32
    6  A    between atoms: C_30  and  C_36
                            x       y       z     vdW  Elec       q    Type
                         _______ _______ _______ _____ _____    ______ ____

>  <TORSDO>
F 6

$$$$
=
 OpenBabel11042409583D

 38 43  0  0  1  0  0  0  0  0999 V2000
  185.2330  177.5630  136.9370 C   0  0  0  0  0  1  0  0  0  0  0  0
  190.5830  177.5050  138.8990 C   0  0  1  0  0  3  0  0  0  0  0  0
  188.2270  176.8130  144.2720 C   0  0  0  0  0  2  0  0  0  0  0  0
  189.1860  178.1630  139.0220 C   0  0  1  0  0  3  0  0  0  0  0  0
  189.5540  175.0520  136.0650 C   0  0  0  0  0  0  0  0  0  0  0  0
  189.4460  175.9320  137.1670 C   0  0  0  0  0  0  0  0  0  0  0  0
  188.7770  176.1810  142.9890 C   0  0  0  0  0  2  0  0  0  0  0  0
  191.2680  177.2230  140.2400 C   0  0  0  0  0  2  0  0  0  0  0  0
  188.0240  177.1730  138.8570 C   0  0  0  0  0  2  0  0  0  0  0  0
  187.0410  175.8770  136.9370 C   0  0  0  0  0  0  0  0  0  0  0  0
  190.6830  176.2770  137.9750 C   0  0  1  0  0  3  0  0  0  0  0  0
  190.8920  174.6920  135.4770 C   0  0  0  0  0  2  0  0  0  0  0  0
  184.9520  175.2660  136.1900 N   0  0  0  0  0  0  0  0  0  0  0  0
  188.1720  176.3500  137.6190 C   0  0  0  0  0  0  0  0  0  0  0  0
  190.3690  176.3800  141.1360 C   0  0  0  0  0  2  0  0  0  0  0  0
  185.5870  176.1090  137.2030 C   0  0  2  0  0  3  0  0  0  0  0  0
  189.5610  177.2010  142.1560 C   0  0  0  0  0  0  0  0  0  0  0  0
  187.1610  175.0410  135.8700 C   0  0  0  0  0  0  0  0  0  0  0  0
  189.2850  177.3290  145.0390 O   0  0  0  0  0  0  0  0  0  0  0  0
  190.5110  177.9980  143.0760 C   0  0  0  0  0  2  0  0  0  0  0  0
  189.0310  178.9930  140.3140 C   0  0  0  0  0  2  0  0  0  0  0  0
  189.7650  178.4580  144.3350 C   0  0  0  0  0  2  0  0  0  0  0  0
  188.5360  178.1530  141.5020 C   0  0  0  0  0  2  0  0  0  0  0  0
  188.3960  174.6130  135.4050 C   0  0  0  0  0  3  0  0  0  0  0  0
  185.8340  174.6790  135.4420 C   0  0  0  0  0  3  0  0  0  0  0  0
  192.0930  175.0240  136.3690 C   0  0  2  0  0  3  0  0  0  0  0  0
  191.9170  176.3610  137.0890 C   0  0  0  0  0  2  0  0  0  0  0  0
  193.3860  174.9730  135.5580 C   0  0  2  0  0  3  0  0  0  0  0  0
  193.8760  173.6660  135.5210 O   0  0  0  0  0  1  0  0  0  0  0  0
  194.4370  175.9260  136.1010 C   0  0  0  0  0  2  0  0  0  0  0  0
  195.8060  175.6300  135.5130 C   0  0  0  0  0  2  0  0  0  0  0  0
  197.4510  174.9020  137.3230 C   0  0  0  0  0  0  0  0  0  0  0  0
  196.8700  175.8980  136.4670 N   0  0  0  0  0  2  0  0  0  0  0  0
  198.4540  175.2030  138.0290 O   0  0  0  0  0  0  0  0  0  0  0  0
  196.8760  173.5200  137.4100 C   0  0  0  0  0  2  0  0  0  0  0  0
  195.8250  173.4520  138.4680 C   0  0  0  0  0  0  0  0  0  0  0  0
  195.2710  172.3540  138.7180 O   0  0  0  0  0  0  0  0  0  0  0  0
  195.4750  174.5780  139.2010 O   0  0  0  0  0  1  0  0  0  0  0  0
  2  4  1  0  0  0  0
  2  8  1  1  0  0  0
  3 19  1  0  0  0  0
  4  9  1  1  0  0  0
  4 21  1  0  0  0  0
  5  6  1  0  0  0  0
  6 14  2  0  0  0  0
  6 11  1  0  0  0  0
  7  3  1  0  0  0  0
  8 15  1  0  0  0  0
 10 16  1  0  0  0  0
 10 14  1  0  0  0  0
 11 27  1  6  0  0  0
 11  2  1  0  0  0  0
 12  5  1  0  0  0  0
 12 26  1  0  0  0  0
 13 16  1  0  0  0  0
 14  9  1  0  0  0  0
 15 17  1  0  0  0  0
 16  1  1  6  0  0  0
 17  7  1  0  0  0  0
 17 20  1  0  0  0  0
 18 10  2  0  0  0  0
 20 22  1  0  0  0  0
 21 23  1  0  0  0  0
 22 19  1  0  0  0  0
 23 17  1  0  0  0  0
 24 18  1  0  0  0  0
 24  5  2  0  0  0  0
 25 18  1  0  0  0  0
 25 13  2  0  0  0  0
 26 28  1  6  0  0  0
 26 27  1  0  0  0  0
 28 29  1  1  0  0  0
 28 30  1  0  0  0  0
 31 30  1  0  0  0  0
 31 33  1  0  0  0  0
 32 35  1  0  0  0  0
 32 34  2  0  0  0  0
 33 32  1  0  0  0  0
 35 36  1  0  0  0  0
 36 37  2  0  0  0  0
 36 38  1  0  0  0  0
M  END
>  <MODEL>
7

>  <REMARK>
 VINA RESULT:      -7.3      4.943      9.254
  Name = 
  6 active torsions:
  status: ('A' for Active; 'I' for Inactive)
    1  A    between atoms: C_3  and  C_8
    2  A    between atoms: C_3  and  C_22
    3  A    between atoms: C_19  and  C_23
    4  A    between atoms: C_19  and  C_30
    5  A    between atoms: C_23  and  N_32
    6  A    between atoms: C_30  and  C_36
                            x       y       z     vdW  Elec       q    Type
                         _______ _______ _______ _____ _____    ______ ____

>  <TORSDO>
F 6

$$$$
=
 OpenBabel11042409583D

 38 43  0  0  1  0  0  0  0  0999 V2000
  179.4840  180.3150  134.5950 C   0  0  0  0  0  1  0  0  0  0  0  0
  181.7250  176.7540  138.4370 C   0  0  1  0  0  3  0  0  0  0  0  0
  186.5830  176.7530  135.0770 C   0  0  0  0  0  2  0  0  0  0  0  0
  181.4080  176.9770  136.9380 C   0  0  1  0  0  3  0  0  0  0  0  0
  180.2490  180.1530  139.6070 C   0  0  0  0  0  0  0  0  0  0  0  0
  180.8110  179.1670  138.7640 C   0  0  0  0  0  0  0  0  0  0  0  0
  185.7870  177.3680  136.2330 C   0  0  0  0  0  2  0  0  0  0  0  0
  183.1020  176.1370  138.7060 C   0  0  0  0  0  2  0  0  0  0  0  0
  181.6100  178.4280  136.4760 C   0  0  0  0  0  2  0  0  0  0  0  0
  180.4170  180.6080  136.8640 C   0  0  0  0  0  0  0  0  0  0  0  0
  181.4790  177.9500  139.3750 C   0  0  1  0  0  3  0  0  0  0  0  0
  180.0130  179.8930  141.0710 C   0  0  0  0  0  2  0  0  0  0  0  0
  179.8500  182.4770  135.6470 N   0  0  0  0  0  0  0  0  0  0  0  0
  180.9050  179.3940  137.3710 C   0  0  0  0  0  0  0  0  0  0  0  0
  184.2000  176.9710  138.0570 C   0  0  0  0  0  2  0  0  0  0  0  0
  180.4170  181.1400  135.4660 C   0  0  2  0  0  3  0  0  0  0  0  0
  184.6540  176.4420  136.6850 C   0  0  0  0  0  0  0  0  0  0  0  0
  179.8670  181.5430  137.6860 C   0  0  0  0  0  0  0  0  0  0  0  0
  187.1210  175.5160  135.4750 O   0  0  0  0  0  0  0  0  0  0  0  0
  185.1880  174.9980  136.8170 C   0  0  0  0  0  2  0  0  0  0  0  0
  182.1570  175.9890  136.0170 C   0  0  0  0  0  2  0  0  0  0  0  0
  186.0240  174.6300  135.5840 C   0  0  0  0  0  2  0  0  0  0  0  0
  183.5470  176.5010  135.6090 C   0  0  0  0  0  2  0  0  0  0  0  0
  179.7630  181.3490  139.0560 C   0  0  0  0  0  3  0  0  0  0  0  0
  179.5360  182.6930  136.8860 C   0  0  0  0  0  3  0  0  0  0  0  0
  180.7580  178.6760  141.6310 C   0  0  2  0  0  3  0  0  0  0  0  0
  180.7670  177.5080  140.6460 C   0  0  0  0  0  2  0  0  0  0  0  0
  180.1800  178.2790  142.9880 C   0  0  2  0  0  3  0  0  0  0  0  0
  178.9390  178.8920  143.1760 O   0  0  0  0  0  1  0  0  0  0  0  0
  181.1230  178.6140  144.1300 C   0  0  0  0  0  2  0  0  0  0  0  0
  182.3470  179.3630  143.6330 C   0  0  0  0  0  2  0  0  0  0  0  0
  184.6120  178.2250  143.3500 C   0  0  0  0  0  0  0  0  0  0  0  0
  183.5760  178.7960  144.1630 N   0  0  0  0  0  2  0  0  0  0  0  0
  185.6970  177.8700  143.8920 O   0  0  0  0  0  0  0  0  0  0  0  0
  184.4230  178.0200  141.8770 C   0  0  0  0  0  2  0  0  0  0  0  0
  185.0410  179.1370  141.1050 C   0  0  0  0  0  0  0  0  0  0  0  0
  184.3950  179.6750  140.1730 O   0  0  0  0  0  0  0  0  0  0  0  0
  186.3070  179.6110  141.4230 O   0  0  0  0  0  1  0  0  0  0  0  0
  2  8  1  6  0  0  0
  2 11  1  0  0  0  0
  3 19  1  0  0  0  0
  3  7  1  0  0  0  0
  4 21  1  6  0  0  0
  4  2  1  0  0  0  0
  5 12  1  0  0  0  0
  6 11  1  0  0  0  0
  6  5  2  0  0  0  0
  7 17  1  0  0  0  0
  9  4  1  0  0  0  0
  9 14  1  0  0  0  0
 10 14  2  0  0  0  0
 10 18  1  0  0  0  0
 11 27  1  1  0  0  0
 12 26  1  0  0  0  0
 13 25  2  0  0  0  0
 14  6  1  0  0  0  0
 15  8  1  0  0  0  0
 16  1  1  6  0  0  0
 16 13  1  0  0  0  0
 16 10  1  0  0  0  0
 17 20  1  0  0  0  0
 17 15  1  0  0  0  0
 18 24  2  0  0  0  0
 19 22  1  0  0  0  0
 22 20  1  0  0  0  0
 23 21  1  0  0  0  0
 23 17  1  0  0  0  0
 24  5  1  0  0  0  0
 25 18  1  0  0  0  0
 26 28  1  1  0  0  0
 27 26  1  0  0  0  0
 28 29  1  1  0  0  0
 28 30  1  0  0  0  0
 31 30  1  0  0  0  0
 31 33  1  0  0  0  0
 32 34  2  0  0  0  0
 32 33  1  0  0  0  0
 35 32  1  0  0  0  0
 36 38  1  0  0  0  0
 36 35  1  0  0  0  0
 37 36  2  0  0  0  0
M  END
>  <MODEL>
8

>  <REMARK>
 VINA RESULT:      -7.1      4.261      7.409
  Name = 
  6 active torsions:
  status: ('A' for Active; 'I' for Inactive)
    1  A    between atoms: C_3  and  C_8
    2  A    between atoms: C_3  and  C_22
    3  A    between atoms: C_19  and  C_23
    4  A    between atoms: C_19  and  C_30
    5  A    between atoms: C_23  and  N_32
    6  A    between atoms: C_30  and  C_36
                            x       y       z     vdW  Elec       q    Type
                         _______ _______ _______ _____ _____    ______ ____

>  <TORSDO>
F 6

$$$$
=
 OpenBabel11042409583D

 38 43  0  0  1  0  0  0  0  0999 V2000
  190.9370  178.5720  143.3500 C   0  0  0  0  0  1  0  0  0  0  0  0
  187.1700  178.5870  139.0760 C   0  0  1  0  0  3  0  0  0  0  0  0
  190.5710  174.4770  136.5380 C   0  0  0  0  0  2  0  0  0  0  0  0
  188.6630  178.7340  139.4600 C   0  0  1  0  0  3  0  0  0  0  0  0
  185.9350  178.0180  142.7160 C   0  0  0  0  0  0  0  0  0  0  0  0
  186.7980  178.0690  141.5980 C   0  0  0  0  0  0  0  0  0  0  0  0
  189.3990  174.8220  137.4630 C   0  0  0  0  0  2  0  0  0  0  0  0
  186.9230  177.7530  137.8140 C   0  0  0  0  0  2  0  0  0  0  0  0
  189.1040  177.7860  140.5860 C   0  0  0  0  0  2  0  0  0  0  0  0
  188.6710  177.6290  143.0600 C   0  0  0  0  0  0  0  0  0  0  0  0
  186.2110  178.1560  140.2010 C   0  0  1  0  0  3  0  0  0  0  0  0
  184.4730  178.3590  142.5960 C   0  0  0  0  0  2  0  0  0  0  0  0
  189.8550  177.1090  144.9630 N   0  0  0  0  0  0  0  0  0  0  0  0
  188.1880  177.8660  141.7640 C   0  0  0  0  0  0  0  0  0  0  0  0
  187.5680  176.3790  137.9430 C   0  0  0  0  0  2  0  0  0  0  0  0
  190.0610  177.3440  143.5340 C   0  0  2  0  0  3  0  0  0  0  0  0
  188.9520  176.2760  137.2780 C   0  0  0  0  0  0  0  0  0  0  0  0
  187.8300  177.5960  144.1290 C   0  0  0  0  0  0  0  0  0  0  0  0
  190.1960  174.6840  135.1990 O   0  0  0  0  0  0  0  0  0  0  0  0
  188.8470  176.5960  135.7700 C   0  0  0  0  0  2  0  0  0  0  0  0
  189.6050  178.6270  138.2420 C   0  0  0  0  0  2  0  0  0  0  0  0
  190.0920  176.0850  135.0340 C   0  0  0  0  0  2  0  0  0  0  0  0
  190.0170  177.1780  137.9380 C   0  0  0  0  0  2  0  0  0  0  0  0
  186.4620  177.7900  143.9960 C   0  0  0  0  0  3  0  0  0  0  0  0
  188.6090  177.2600  145.2920 C   0  0  0  0  0  3  0  0  0  0  0  0
  183.9380  178.3800  141.1600 C   0  0  2  0  0  3  0  0  0  0  0  0
  184.9420  178.9960  140.1860 C   0  0  0  0  0  2  0  0  0  0  0  0
  182.5830  179.0830  141.1100 C   0  0  2  0  0  3  0  0  0  0  0  0
  181.5920  178.2470  141.6300 O   0  0  0  0  0  1  0  0  0  0  0  0
  182.2250  179.5310  139.7040 C   0  0  0  0  0  2  0  0  0  0  0  0
  181.3280  178.5180  139.0140 C   0  0  0  0  0  2  0  0  0  0  0  0
  181.3130  178.5400  136.4620 C   0  0  0  0  0  0  0  0  0  0  0  0
  181.8630  178.1210  137.7210 N   0  0  0  0  0  2  0  0  0  0  0  0
  181.9200  178.2450  135.3940 O   0  0  0  0  0  0  0  0  0  0  0  0
  180.0230  179.3010  136.3900 C   0  0  0  0  0  2  0  0  0  0  0  0
  180.2790  180.7530  136.1650 C   0  0  0  0  0  0  0  0  0  0  0  0
  181.1530  181.3400  136.8490 O   0  0  0  0  0  1  0  0  0  0  0  0
  179.5870  181.4590  135.1890 O   0  0  0  0  0  0  0  0  0  0  0  0
  2  8  1  6  0  0  0
  2  4  1  0  0  0  0
  2 11  1  0  0  0  0
  3  7  1  0  0  0  0
  4 21  1  6  0  0  0
  4  9  1  0  0  0  0
  5 24  1  0  0  0  0
  6 14  1  0  0  0  0
  6  5  2  0  0  0  0
  8 15  1  0  0  0  0
  9 14  1  0  0  0  0
 10 16  1  0  0  0  0
 10 18  1  0  0  0  0
 11 27  1  1  0  0  0
 11  6  1  0  0  0  0
 12  5  1  0  0  0  0
 13 25  2  0  0  0  0
 14 10  2  0  0  0  0
 16  1  1  1  0  0  0
 16 13  1  0  0  0  0
 17  7  1  0  0  0  0
 17 23  1  0  0  0  0
 17 15  1  0  0  0  0
 18 25  1  0  0  0  0
 19  3  1  0  0  0  0
 20 17  1  0  0  0  0
 22 19  1  0  0  0  0
 22 20  1  0  0  0  0
 23 21  1  0  0  0  0
 24 18  2  0  0  0  0
 26 28  1  1  0  0  0
 26 12  1  0  0  0  0
 27 26  1  0  0  0  0
 28 29  1  6  0  0  0
 30 28  1  0  0  0  0
 31 30  1  0  0  0  0
 32 33  1  0  0  0  0
 33 31  1  0  0  0  0
 34 32  2  0  0  0  0
 35 32  1  0  0  0  0
 36 35  1  0  0  0  0
 36 37  1  0  0  0  0
 38 36  2  0  0  0  0
M  END
>  <MODEL>
9

>  <REMARK>
 VINA RESULT:      -7.0      3.738      8.338
  Name = 
  6 active torsions:
  status: ('A' for Active; 'I' for Inactive)
    1  A    between atoms: C_3  and  C_8
    2  A    between atoms: C_3  and  C_22
    3  A    between atoms: C_19  and  C_23
    4  A    between atoms: C_19  and  C_30
    5  A    between atoms: C_23  and  N_32
    6  A    between atoms: C_30  and  C_36
                            x       y       z     vdW  Elec       q    Type
                         _______ _______ _______ _____ _____    ______ ____

>  <TORSDO>
F 6

$$$$
