=
 OpenBabel11042410113D

 32 35  0  0  1  0  0  0  0  0999 V2000
  189.3380  177.1780  141.8820 C   0  0  0  0  0  0  0  0  0  0  0  0
  189.0630  177.3690  144.7250 C   0  0  0  0  0  0  0  0  0  0  0  0
  190.1130  177.0810  146.8520 N   0  0  0  0  0  0  0  0  0  0  0  0
  190.2740  176.7440  142.6750 N   0  0  0  0  0  0  0  0  0  0  0  0
  190.2110  176.8550  144.1010 C   0  0  0  0  0  0  0  0  0  0  0  0
  192.3410  176.1910  147.0670 N   0  0  0  0  0  1  0  0  0  0  0  0
  191.3030  176.4620  144.8760 C   0  0  0  0  0  3  0  0  0  0  0  0
  191.2350  176.5860  146.2650 C   0  0  0  0  0  0  0  0  0  0  0  0
  187.2050  178.4680  141.7150 C   0  0  0  0  0  3  0  0  0  0  0  0
  187.8520  177.7450  143.9270 C   0  0  0  0  0  2  0  0  0  0  0  0
  189.4860  177.0150  140.4660 N   0  0  0  0  0  2  0  0  0  0  0  0
  189.0340  177.4670  146.1170 C   0  0  0  0  0  3  0  0  0  0  0  0
  188.1210  177.8290  142.4500 C   0  0  0  0  0  0  0  0  0  0  0  0
  190.3230  175.9720  138.4330 C   0  0  0  0  0  2  0  0  0  0  0  0
  191.5860  175.4680  137.7390 C   0  0  0  0  0  2  0  0  0  0  0  0
  192.5830  176.5380  137.6820 N   0  0  0  0  0  0  0  0  0  0  0  0
  191.8020  177.4490  139.8140 C   0  0  0  0  0  2  0  0  0  0  0  0
  192.9880  176.8660  139.0470 C   0  0  0  0  0  2  0  0  0  0  0  0
  190.6660  176.4280  139.8490 C   0  0  1  0  0  3  0  0  0  0  0  0
  193.7570  175.9980  137.0130 C   0  0  0  0  0  2  0  0  0  0  0  0
  194.6710  175.4330  137.9940 N   0  0  0  0  0  2  0  0  0  0  0  0
  195.4720  174.5010  137.3210 N   0  0  0  0  0  2  0  0  0  0  0  0
  197.7410  174.8450  137.9730 C   0  0  0  0  0  0  0  0  0  0  0  0
  197.3180  175.3480  140.1620 O   0  0  0  0  0  0  0  0  0  0  0  0
  198.1100  175.6060  139.0900 N   0  0  0  0  0  2  0  0  0  0  0  0
  196.2030  174.6360  139.6390 C   0  0  0  0  0  2  0  0  0  0  0  0
  196.5230  174.0980  138.2420 C   0  0  1  0  0  3  0  0  0  0  0  0
  198.3890  174.8290  136.8950 O   0  0  0  0  0  0  0  0  0  0  0  0
  187.3110  178.6350  140.3020 N   0  0  0  0  0  2  0  0  0  0  0  0
  186.1630  178.6620  139.4980 N   0  0  0  0  0  2  0  0  0  0  0  0
  185.2050  179.4290  140.1720 N   0  0  0  0  0  2  0  0  0  0  0  0
  184.3760  179.9890  139.1930 N   0  0  0  0  0  1  0  0  0  0  0  0
  1 13  1  0  0  0  0
  1  4  2  0  0  0  0
  2 12  1  0  0  0  0
  4  5  1  0  0  0  0
  5  2  2  0  0  0  0
  5  7  1  0  0  0  0
  7  8  2  0  0  0  0
  8  3  1  0  0  0  0
  8  6  1  0  0  0  0
  9 13  2  0  0  0  0
 10  2  1  0  0  0  0
 11  1  1  0  0  0  0
 12  3  2  0  0  0  0
 13 10  1  0  0  0  0
 14 19  1  0  0  0  0
 15 14  1  0  0  0  0
 16 15  1  0  0  0  0
 16 18  1  0  0  0  0
 17 19  1  0  0  0  0
 18 17  1  0  0  0  0
 19 11  1  6  0  0  0
 20 16  1  0  0  0  0
 20 21  1  0  0  0  0
 22 21  1  0  0  0  0
 23 27  1  0  0  0  0
 23 25  1  0  0  0  0
 25 24  1  0  0  0  0
 26 24  1  0  0  0  0
 27 22  1  6  0  0  0
 27 26  1  0  0  0  0
 28 23  2  0  0  0  0
 29  9  1  0  0  0  0
 30 31  1  0  0  0  0
 30 29  1  0  0  0  0
 32 31  1  0  0  0  0
M  END
>  <MODEL>
1

>  <REMARK>
 VINA RESULT:      -9.2      0.000      0.000
  Name = 
  8 active torsions:
  status: ('A' for Active; 'I' for Inactive)
    1  A    between atoms: N_2  and  N_12
    2  A    between atoms: N_2  and  C_17
    3  A    between atoms: N_4  and  N_29
    4  A    between atoms: N_4  and  N_31
    5  A    between atoms: N_8  and  C_17
    6  A    between atoms: N_12  and  C_28
    7  A    between atoms: C_21  and  N_31
    8  A    between atoms: N_24  and  C_27
                            x       y       z     vdW  Elec       q    Type
                         _______ _______ _______ _____ _____    ______ ____

>  <TORSDO>
F 8

$$$$
=
 OpenBabel11042410113D

 32 35  0  0  1  0  0  0  0  0999 V2000
  188.7420  177.6950  145.1140 C   0  0  0  0  0  0  0  0  0  0  0  0
  186.2380  178.2170  146.3990 C   0  0  0  0  0  0  0  0  0  0  0  0
  183.9260  178.7460  146.1170 N   0  0  0  0  0  0  0  0  0  0  0  0
  187.7070  178.0860  144.4290 N   0  0  0  0  0  0  0  0  0  0  0  0
  186.4200  178.3170  145.0110 C   0  0  0  0  0  0  0  0  0  0  0  0
  182.9660  179.1620  143.9470 N   0  0  0  0  0  1  0  0  0  0  0  0
  185.3350  178.6310  144.1920 C   0  0  0  0  0  3  0  0  0  0  0  0
  184.0810  178.8430  144.7690 C   0  0  0  0  0  0  0  0  0  0  0  0
  189.5690  176.8900  147.3300 C   0  0  0  0  0  3  0  0  0  0  0  0
  187.3930  177.9390  147.3120 C   0  0  0  0  0  2  0  0  0  0  0  0
  189.9940  177.4980  144.4450 N   0  0  0  0  0  2  0  0  0  0  0  0
  184.9700  178.4450  146.9370 C   0  0  0  0  0  3  0  0  0  0  0  0
  188.6210  177.4680  146.5840 C   0  0  0  0  0  0  0  0  0  0  0  0
  191.6280  177.4170  142.6430 C   0  0  0  0  0  2  0  0  0  0  0  0
  191.7890  177.4680  141.1250 C   0  0  0  0  0  2  0  0  0  0  0  0
  190.9480  176.4450  140.5020 N   0  0  0  0  0  0  0  0  0  0  0  0
  189.2620  176.6860  142.2570 C   0  0  0  0  0  2  0  0  0  0  0  0
  189.5480  176.7760  140.7590 C   0  0  0  0  0  2  0  0  0  0  0  0
  190.1660  177.6620  143.0090 C   0  0  1  0  0  3  0  0  0  0  0  0
  191.1450  176.5440  139.0630 C   0  0  0  0  0  2  0  0  0  0  0  0
  190.0970  175.8140  138.3670 N   0  0  0  0  0  2  0  0  0  0  0  0
  189.7050  176.5990  137.2740 N   0  0  0  0  0  2  0  0  0  0  0  0
  188.3510  178.5310  137.6280 C   0  0  0  0  0  0  0  0  0  0  0  0
  186.8340  178.1040  135.9730 O   0  0  0  0  0  0  0  0  0  0  0  0
  187.5120  179.0700  136.6440 N   0  0  0  0  0  2  0  0  0  0  0  0
  187.4860  176.8860  136.3130 C   0  0  0  0  0  2  0  0  0  0  0  0
  188.3610  177.0790  137.5540 C   0  0  1  0  0  3  0  0  0  0  0  0
  188.9990  179.2300  138.4500 O   0  0  0  0  0  0  0  0  0  0  0  0
  190.7920  176.3900  146.7930 N   0  0  0  0  0  2  0  0  0  0  0  0
  192.0260  176.8300  147.2930 N   0  0  0  0  0  2  0  0  0  0  0  0
  192.5130  175.8220  148.1340 N   0  0  0  0  0  2  0  0  0  0  0  0
  193.3880  176.4390  149.0360 N   0  0  0  0  0  1  0  0  0  0  0  0
  1 13  1  0  0  0  0
  2 12  1  0  0  0  0
  2 10  1  0  0  0  0
  3 12  2  0  0  0  0
  4  5  1  0  0  0  0
  4  1  2  0  0  0  0
  5  2  2  0  0  0  0
  6  8  1  0  0  0  0
  7  8  2  0  0  0  0
  7  5  1  0  0  0  0
  8  3  1  0  0  0  0
 11  1  1  0  0  0  0
 13 10  1  0  0  0  0
 13  9  2  0  0  0  0
 14 19  1  0  0  0  0
 15 14  1  0  0  0  0
 16 18  1  0  0  0  0
 16 15  1  0  0  0  0
 17 19  1  0  0  0  0
 18 17  1  0  0  0  0
 19 11  1  1  0  0  0
 20 16  1  0  0  0  0
 21 20  1  0  0  0  0
 22 21  1  0  0  0  0
 23 28  2  0  0  0  0
 24 26  1  0  0  0  0
 24 25  1  0  0  0  0
 25 23  1  0  0  0  0
 26 27  1  0  0  0  0
 27 22  1  6  0  0  0
 27 23  1  0  0  0  0
 29 30  1  0  0  0  0
 29  9  1  0  0  0  0
 30 31  1  0  0  0  0
 31 32  1  0  0  0  0
M  END
>  <MODEL>
2

>  <REMARK>
 VINA RESULT:      -8.9      4.100      7.252
  Name = 
  8 active torsions:
  status: ('A' for Active; 'I' for Inactive)
    1  A    between atoms: N_2  and  N_12
    2  A    between atoms: N_2  and  C_17
    3  A    between atoms: N_4  and  N_29
    4  A    between atoms: N_4  and  N_31
    5  A    between atoms: N_8  and  C_17
    6  A    between atoms: N_12  and  C_28
    7  A    between atoms: C_21  and  N_31
    8  A    between atoms: N_24  and  C_27
                            x       y       z     vdW  Elec       q    Type
                         _______ _______ _______ _____ _____    ______ ____

>  <TORSDO>
F 8

$$$$
=
 OpenBabel11042410113D

 32 35  0  0  1  0  0  0  0  0999 V2000
  188.2230  177.5360  143.9390 C   0  0  0  0  0  0  0  0  0  0  0  0
  186.0910  178.3260  145.6770 C   0  0  0  0  0  0  0  0  0  0  0  0
  183.7660  178.8370  145.8740 N   0  0  0  0  0  0  0  0  0  0  0  0
  187.0440  177.8150  143.4660 N   0  0  0  0  0  0  0  0  0  0  0  0
  185.9300  178.1700  144.2920 C   0  0  0  0  0  0  0  0  0  0  0  0
  182.3000  178.8710  143.9630 N   0  0  0  0  0  1  0  0  0  0  0  0
  184.6710  178.3500  143.7180 C   0  0  0  0  0  3  0  0  0  0  0  0
  183.5890  178.6850  144.5340 C   0  0  0  0  0  0  0  0  0  0  0  0
  189.5830  177.1300  145.9950 C   0  0  0  0  0  3  0  0  0  0  0  0
  187.4400  178.1970  146.3180 C   0  0  0  0  0  2  0  0  0  0  0  0
  189.2810  177.1980  143.0320 N   0  0  0  0  0  2  0  0  0  0  0  0
  184.9850  178.6700  146.4560 C   0  0  0  0  0  3  0  0  0  0  0  0
  188.4680  177.5800  145.4110 C   0  0  1  0  0  3  0  0  0  0  0  0
  188.2870  178.2940  141.1000 C   0  0  0  0  0  2  0  0  0  0  0  0
  188.1970  178.2570  139.5760 C   0  0  0  0  0  2  0  0  0  0  0  0
  189.5400  178.3030  138.9980 N   0  0  0  0  0  0  0  0  0  0  0  0
  190.4560  177.0560  140.8930 C   0  0  0  0  0  2  0  0  0  0  0  0
  190.2510  177.0840  139.3790 C   0  0  0  0  0  2  0  0  0  0  0  0
  189.0980  177.0980  141.5920 C   0  0  1  0  0  3  0  0  0  0  0  0
  189.3870  178.2650  137.5510 C   0  0  0  0  0  2  0  0  0  0  0  0
  189.1750  176.8950  137.1100 N   0  0  0  0  0  2  0  0  0  0  0  0
  189.8480  176.7460  135.8890 N   0  0  0  0  0  2  0  0  0  0  0  0
  191.5290  175.1520  136.4550 C   0  0  0  0  0  0  0  0  0  0  0  0
  190.1580  173.6950  137.5610 O   0  0  0  0  0  0  0  0  0  0  0  0
  191.4000  174.2440  137.5150 N   0  0  0  0  0  2  0  0  0  0  0  0
  189.3610  174.5040  136.7040 C   0  0  0  0  0  2  0  0  0  0  0  0
  190.2510  175.3520  135.7920 C   0  0  1  0  0  3  0  0  0  0  0  0
  192.6140  175.7070  136.1420 O   0  0  0  0  0  0  0  0  0  0  0  0
  190.6530  176.5190  145.2760 N   0  0  0  0  0  0  0  0  0  0  0  0
  191.8960  176.3070  145.8890 N   0  0  0  0  0  2  0  0  0  0  0  0
  191.7860  176.7560  147.2110 N   0  0  0  0  0  2  0  0  0  0  0  0
  192.6220  175.9410  147.9830 N   0  0  0  0  0  1  0  0  0  0  0  0
  1 13  1  0  0  0  0
  2 10  1  0  0  0  0
  2 12  1  0  0  0  0
  3 12  2  0  0  0  0
  4  1  2  0  0  0  0
  4  5  1  0  0  0  0
  5  2  2  0  0  0  0
  6  8  1  0  0  0  0
  7  5  1  0  0  0  0
  7  8  2  0  0  0  0
  8  3  1  0  0  0  0
 11  1  1  0  0  0  0
 13  9  1  6  0  0  0
 13 10  1  0  0  0  0
 14 19  1  0  0  0  0
 15 14  1  0  0  0  0
 16 18  1  0  0  0  0
 16 15  1  0  0  0  0
 17 19  1  0  0  0  0
 18 17  1  0  0  0  0
 19 11  1  1  0  0  0
 20 16  1  0  0  0  0
 21 20  1  0  0  0  0
 22 21  1  0  0  0  0
 23 25  1  0  0  0  0
 25 24  1  0  0  0  0
 26 24  1  0  0  0  0
 27 22  1  1  0  0  0
 27 23  1  0  0  0  0
 27 26  1  0  0  0  0
 28 23  2  0  0  0  0
 29 30  1  0  0  0  0
 29  9  2  0  0  0  0
 30 31  1  0  0  0  0
 31 32  1  0  0  0  0
M  END
>  <MODEL>
3

>  <REMARK>
 VINA RESULT:      -8.8      3.407      6.191
  Name = 
  8 active torsions:
  status: ('A' for Active; 'I' for Inactive)
    1  A    between atoms: N_2  and  N_12
    2  A    between atoms: N_2  and  C_17
    3  A    between atoms: N_4  and  N_29
    4  A    between atoms: N_4  and  N_31
    5  A    between atoms: N_8  and  C_17
    6  A    between atoms: N_12  and  C_28
    7  A    between atoms: C_21  and  N_31
    8  A    between atoms: N_24  and  C_27
                            x       y       z     vdW  Elec       q    Type
                         _______ _______ _______ _____ _____    ______ ____

>  <TORSDO>
F 8

$$$$
=
 OpenBabel11042410113D

 32 35  0  0  1  0  0  0  0  0999 V2000
  188.7370  177.6820  145.0040 C   0  0  0  0  0  0  0  0  0  0  0  0
  186.2590  178.1920  146.3430 C   0  0  0  0  0  0  0  0  0  0  0  0
  183.9490  178.7540  146.1130 N   0  0  0  0  0  0  0  0  0  0  0  0
  187.6960  178.1050  144.3470 N   0  0  0  0  0  0  0  0  0  0  0  0
  186.4210  178.3320  144.9560 C   0  0  0  0  0  0  0  0  0  0  0  0
  182.9610  179.2460  143.9720 N   0  0  0  0  0  1  0  0  0  0  0  0
  185.3270  178.6820  144.1640 C   0  0  0  0  0  3  0  0  0  0  0  0
  184.0850  178.8900  144.7670 C   0  0  0  0  0  0  0  0  0  0  0  0
  189.5890  176.8010  147.1810 C   0  0  0  0  0  3  0  0  0  0  0  0
  187.4250  177.8730  147.2290 C   0  0  0  0  0  2  0  0  0  0  0  0
  189.9760  177.4910  144.3090 N   0  0  0  0  0  2  0  0  0  0  0  0
  185.0020  178.4170  146.9070 C   0  0  0  0  0  3  0  0  0  0  0  0
  188.6360  177.4110  146.4680 C   0  0  0  0  0  0  0  0  0  0  0  0
  191.5630  177.3740  142.4680 C   0  0  0  0  0  2  0  0  0  0  0  0
  191.6950  177.4700  140.9500 C   0  0  0  0  0  2  0  0  0  0  0  0
  190.7780  176.5260  140.3100 N   0  0  0  0  0  0  0  0  0  0  0  0
  189.1480  176.8080  142.1120 C   0  0  0  0  0  2  0  0  0  0  0  0
  189.4080  176.9350  140.6120 C   0  0  0  0  0  2  0  0  0  0  0  0
  190.1280  177.6970  142.8760 C   0  0  1  0  0  3  0  0  0  0  0  0
  190.9510  176.6650  138.8720 C   0  0  0  0  0  2  0  0  0  0  0  0
  191.3710  175.3970  138.2970 N   0  0  0  0  0  2  0  0  0  0  0  0
  191.6000  175.6190  136.9320 N   0  0  0  0  0  2  0  0  0  0  0  0
  193.9810  175.7590  136.9090 C   0  0  0  0  0  0  0  0  0  0  0  0
  194.3730  173.8690  138.1320 O   0  0  0  0  0  0  0  0  0  0  0  0
  194.7950  175.1310  137.8600 N   0  0  0  0  0  2  0  0  0  0  0  0
  193.0650  173.7860  137.5800 C   0  0  0  0  0  2  0  0  0  0  0  0
  192.8320  174.9280  136.5880 C   0  0  1  0  0  3  0  0  0  0  0  0
  194.2300  176.8900  136.4170 O   0  0  0  0  0  0  0  0  0  0  0  0
  190.7980  176.3040  146.6100 N   0  0  0  0  0  2  0  0  0  0  0  0
  192.0400  176.8180  147.0070 N   0  0  0  0  0  2  0  0  0  0  0  0
  192.6650  175.8330  147.7820 N   0  0  0  0  0  2  0  0  0  0  0  0
  193.1960  176.4810  148.9040 N   0  0  0  0  0  1  0  0  0  0  0  0
  1 13  1  0  0  0  0
  2 12  1  0  0  0  0
  2 10  1  0  0  0  0
  3 12  2  0  0  0  0
  4  5  1  0  0  0  0
  4  1  2  0  0  0  0
  5  2  2  0  0  0  0
  6  8  1  0  0  0  0
  7  8  2  0  0  0  0
  7  5  1  0  0  0  0
  8  3  1  0  0  0  0
 11  1  1  0  0  0  0
 13  9  2  0  0  0  0
 13 10  1  0  0  0  0
 14 19  1  0  0  0  0
 15 14  1  0  0  0  0
 16 18  1  0  0  0  0
 16 15  1  0  0  0  0
 17 19  1  0  0  0  0
 18 17  1  0  0  0  0
 19 11  1  1  0  0  0
 20 16  1  0  0  0  0
 21 20  1  0  0  0  0
 22 21  1  0  0  0  0
 23 25  1  0  0  0  0
 25 24  1  0  0  0  0
 26 24  1  0  0  0  0
 27 23  1  0  0  0  0
 27 22  1  1  0  0  0
 27 26  1  0  0  0  0
 28 23  2  0  0  0  0
 29 30  1  0  0  0  0
 29  9  1  0  0  0  0
 30 31  1  0  0  0  0
 31 32  1  0  0  0  0
M  END
>  <MODEL>
4

>  <REMARK>
 VINA RESULT:      -8.7      2.623      5.809
  Name = 
  8 active torsions:
  status: ('A' for Active; 'I' for Inactive)
    1  A    between atoms: N_2  and  N_12
    2  A    between atoms: N_2  and  C_17
    3  A    between atoms: N_4  and  N_29
    4  A    between atoms: N_4  and  N_31
    5  A    between atoms: N_8  and  C_17
    6  A    between atoms: N_12  and  C_28
    7  A    between atoms: C_21  and  N_31
    8  A    between atoms: N_24  and  C_27
                            x       y       z     vdW  Elec       q    Type
                         _______ _______ _______ _____ _____    ______ ____

>  <TORSDO>
F 8

$$$$
=
 OpenBabel11042410113D

 32 35  0  0  1  0  0  0  0  0999 V2000
  188.0190  177.6320  144.0110 C   0  0  0  0  0  0  0  0  0  0  0  0
  185.7720  178.5020  145.5570 C   0  0  0  0  0  0  0  0  0  0  0  0
  183.4360  179.0030  145.5700 N   0  0  0  0  0  0  0  0  0  0  0  0
  186.8710  177.8740  143.4460 N   0  0  0  0  0  0  0  0  0  0  0  0
  185.7040  178.2660  144.1750 C   0  0  0  0  0  0  0  0  0  0  0  0
  182.1000  178.9140  143.5680 N   0  0  0  0  0  1  0  0  0  0  0  0
  184.4850  178.4010  143.5100 C   0  0  0  0  0  3  0  0  0  0  0  0
  183.3490  178.7730  144.2320 C   0  0  0  0  0  0  0  0  0  0  0  0
  189.2410  177.3560  146.1720 C   0  0  0  0  0  3  0  0  0  0  0  0
  187.0760  178.4210  146.2910 C   0  0  0  0  0  2  0  0  0  0  0  0
  189.1360  177.2520  143.1970 N   0  0  0  0  0  2  0  0  0  0  0  0
  184.6150  178.8800  146.2400 C   0  0  0  0  0  3  0  0  0  0  0  0
  188.1650  177.7620  145.4900 C   0  0  0  0  0  0  0  0  0  0  0  0
  188.4560  178.3230  141.1190 C   0  0  0  0  0  2  0  0  0  0  0  0
  188.4760  178.1820  139.5990 C   0  0  0  0  0  2  0  0  0  0  0  0
  189.8520  177.9990  139.1350 N   0  0  0  0  0  0  0  0  0  0  0  0
  190.4350  176.7870  141.1790 C   0  0  0  0  0  2  0  0  0  0  0  0
  190.3500  176.7270  139.6540 C   0  0  0  0  0  2  0  0  0  0  0  0
  189.0480  177.0680  141.7560 C   0  0  1  0  0  3  0  0  0  0  0  0
  189.8050  177.8720  137.6870 C   0  0  0  0  0  2  0  0  0  0  0  0
  188.4430  177.5880  137.2580 N   0  0  0  0  0  2  0  0  0  0  0  0
  188.4710  176.3590  136.5840 N   0  0  0  0  0  2  0  0  0  0  0  0
  186.3060  175.3920  136.8430 C   0  0  0  0  0  0  0  0  0  0  0  0
  185.1150  177.3240  136.5800 O   0  0  0  0  0  0  0  0  0  0  0  0
  185.1770  176.1300  137.2220 N   0  0  0  0  0  2  0  0  0  0  0  0
  186.4040  177.5070  136.0060 C   0  0  0  0  0  2  0  0  0  0  0  0
  187.1650  176.1790  135.9720 C   0  0  1  0  0  3  0  0  0  0  0  0
  186.5260  174.2120  137.2200 O   0  0  0  0  0  0  0  0  0  0  0  0
  190.3590  176.7140  145.5620 N   0  0  0  0  0  2  0  0  0  0  0  0
  191.6660  177.1420  145.8350 N   0  0  0  0  0  2  0  0  0  0  0  0
  191.9620  176.7500  147.1470 N   0  0  0  0  0  2  0  0  0  0  0  0
  192.3380  175.4020  147.0890 N   0  0  0  0  0  1  0  0  0  0  0  0
  1 13  1  0  0  0  0
  2 12  1  0  0  0  0
  2 10  1  0  0  0  0
  3 12  2  0  0  0  0
  4  1  2  0  0  0  0
  4  5  1  0  0  0  0
  5  2  2  0  0  0  0
  6  8  1  0  0  0  0
  7  5  1  0  0  0  0
  7  8  2  0  0  0  0
  8  3  1  0  0  0  0
 11  1  1  0  0  0  0
 13  9  2  0  0  0  0
 13 10  1  0  0  0  0
 14 19  1  0  0  0  0
 15 14  1  0  0  0  0
 16 15  1  0  0  0  0
 16 18  1  0  0  0  0
 17 19  1  0  0  0  0
 18 17  1  0  0  0  0
 19 11  1  1  0  0  0
 20 16  1  0  0  0  0
 21 20  1  0  0  0  0
 22 21  1  0  0  0  0
 23 28  2  0  0  0  0
 23 25  1  0  0  0  0
 24 25  1  0  0  0  0
 26 24  1  0  0  0  0
 27 26  1  0  0  0  0
 27 22  1  1  0  0  0
 27 23  1  0  0  0  0
 29 30  1  0  0  0  0
 29  9  1  0  0  0  0
 30 31  1  0  0  0  0
 32 31  1  0  0  0  0
M  END
>  <MODEL>
5

>  <REMARK>
 VINA RESULT:      -8.3      4.679      7.485
  Name = 
  8 active torsions:
  status: ('A' for Active; 'I' for Inactive)
    1  A    between atoms: N_2  and  N_12
    2  A    between atoms: N_2  and  C_17
    3  A    between atoms: N_4  and  N_29
    4  A    between atoms: N_4  and  N_31
    5  A    between atoms: N_8  and  C_17
    6  A    between atoms: N_12  and  C_28
    7  A    between atoms: C_21  and  N_31
    8  A    between atoms: N_24  and  C_27
                            x       y       z     vdW  Elec       q    Type
                         _______ _______ _______ _____ _____    ______ ____

>  <TORSDO>
F 8

$$$$
=
 OpenBabel11042410113D

 32 35  0  0  1  0  0  0  0  0999 V2000
  189.2070  177.1980  141.8750 C   0  0  0  0  0  0  0  0  0  0  0  0
  188.9750  177.3450  144.7240 C   0  0  0  0  0  0  0  0  0  0  0  0
  190.0590  177.0330  146.8300 N   0  0  0  0  0  0  0  0  0  0  0  0
  190.1580  176.7580  142.6470 N   0  0  0  0  0  0  0  0  0  0  0  0
  190.1160  176.8480  144.0750 C   0  0  0  0  0  0  0  0  0  0  0  0
  192.2960  176.1560  146.9980 N   0  0  0  0  0  1  0  0  0  0  0  0
  191.2220  176.4520  144.8270 C   0  0  0  0  0  3  0  0  0  0  0  0
  191.1750  176.5550  146.2190 C   0  0  0  0  0  0  0  0  0  0  0  0
  187.0620  178.4750  141.7600 C   0  0  0  0  0  3  0  0  0  0  0  0
  187.7490  177.7240  143.9510 C   0  0  0  0  0  2  0  0  0  0  0  0
  189.3340  177.0570  140.4550 N   0  0  0  0  0  2  0  0  0  0  0  0
  188.9660  177.4220  146.1180 C   0  0  0  0  0  3  0  0  0  0  0  0
  187.9940  177.8310  142.4720 C   0  0  0  0  0  0  0  0  0  0  0  0
  190.1560  176.0840  138.3810 C   0  0  0  0  0  2  0  0  0  0  0  0
  191.4130  175.6000  137.6630 C   0  0  0  0  0  2  0  0  0  0  0  0
  192.4140  176.6670  137.6400 N   0  0  0  0  0  0  0  0  0  0  0  0
  191.6490  177.5030  139.8070 C   0  0  0  0  0  2  0  0  0  0  0  0
  192.8280  176.9430  139.0140 C   0  0  0  0  0  2  0  0  0  0  0  0
  190.5080  176.4870  139.8100 C   0  0  1  0  0  3  0  0  0  0  0  0
  193.5830  176.1460  136.9460 C   0  0  0  0  0  2  0  0  0  0  0  0
  194.4070  175.3790  137.8680 N   0  0  0  0  0  2  0  0  0  0  0  0
  195.2990  174.6250  137.0930 N   0  0  0  0  0  2  0  0  0  0  0  0
  196.3720  172.6920  137.9900 C   0  0  0  0  0  0  0  0  0  0  0  0
  198.4940  173.2380  137.3410 O   0  0  0  0  0  0  0  0  0  0  0  0
  197.6120  172.2240  137.5360 N   0  0  0  0  0  2  0  0  0  0  0  0
  197.7100  174.4240  137.3630 C   0  0  0  0  0  2  0  0  0  0  0  0
  196.3400  174.1460  137.9880 C   0  0  1  0  0  3  0  0  0  0  0  0
  195.4290  171.9380  138.3430 O   0  0  0  0  0  0  0  0  0  0  0  0
  187.1450  178.6630  140.3480 N   0  0  0  0  0  2  0  0  0  0  0  0
  185.9920  178.6180  139.5520 N   0  0  0  0  0  2  0  0  0  0  0  0
  185.0480  179.4640  140.1480 N   0  0  0  0  0  2  0  0  0  0  0  0
  184.3880  180.1270  139.1060 N   0  0  0  0  0  1  0  0  0  0  0  0
  1 13  1  0  0  0  0
  1  4  2  0  0  0  0
  2 12  1  0  0  0  0
  4  5  1  0  0  0  0
  5  2  2  0  0  0  0
  5  7  1  0  0  0  0
  7  8  2  0  0  0  0
  8  3  1  0  0  0  0
  8  6  1  0  0  0  0
  9 13  2  0  0  0  0
 10  2  1  0  0  0  0
 11  1  1  0  0  0  0
 12  3  2  0  0  0  0
 13 10  1  0  0  0  0
 14 19  1  0  0  0  0
 15 14  1  0  0  0  0
 16 15  1  0  0  0  0
 16 18  1  0  0  0  0
 17 19  1  0  0  0  0
 18 17  1  0  0  0  0
 19 11  1  6  0  0  0
 20 16  1  0  0  0  0
 20 21  1  0  0  0  0
 22 21  1  0  0  0  0
 23 28  2  0  0  0  0
 24 26  1  0  0  0  0
 24 25  1  0  0  0  0
 25 23  1  0  0  0  0
 26 27  1  0  0  0  0
 27 22  1  6  0  0  0
 27 23  1  0  0  0  0
 29  9  1  0  0  0  0
 30 31  1  0  0  0  0
 30 29  1  0  0  0  0
 32 31  1  0  0  0  0
M  END
>  <MODEL>
6

>  <REMARK>
 VINA RESULT:      -8.3      1.039      1.392
  Name = 
  8 active torsions:
  status: ('A' for Active; 'I' for Inactive)
    1  A    between atoms: N_2  and  N_12
    2  A    between atoms: N_2  and  C_17
    3  A    between atoms: N_4  and  N_29
    4  A    between atoms: N_4  and  N_31
    5  A    between atoms: N_8  and  C_17
    6  A    between atoms: N_12  and  C_28
    7  A    between atoms: C_21  and  N_31
    8  A    between atoms: N_24  and  C_27
                            x       y       z     vdW  Elec       q    Type
                         _______ _______ _______ _____ _____    ______ ____

>  <TORSDO>
F 8

$$$$
=
 OpenBabel11042410113D

 32 35  0  0  1  0  0  0  0  0999 V2000
  187.9170  177.9630  142.2020 C   0  0  0  0  0  0  0  0  0  0  0  0
  187.9480  177.5090  145.0280 C   0  0  0  0  0  0  0  0  0  0  0  0
  189.2870  177.1370  146.9710 N   0  0  0  0  0  0  0  0  0  0  0  0
  189.0250  177.6790  142.8210 N   0  0  0  0  0  0  0  0  0  0  0  0
  189.1080  177.4880  144.2370 C   0  0  0  0  0  0  0  0  0  0  0  0
  191.6830  176.9200  146.8490 N   0  0  0  0  0  1  0  0  0  0  0  0
  190.3520  177.2920  144.8380 C   0  0  0  0  0  3  0  0  0  0  0  0
  190.4230  177.1190  146.2220 C   0  0  0  0  0  0  0  0  0  0  0  0
  185.5070  178.5730  142.4530 C   0  0  0  0  0  3  0  0  0  0  0  0
  186.5930  177.6590  144.4070 C   0  0  0  0  0  2  0  0  0  0  0  0
  187.9300  178.1280  140.7780 N   0  0  0  0  0  2  0  0  0  0  0  0
  188.0630  177.3220  146.4060 C   0  0  0  0  0  3  0  0  0  0  0  0
  186.6460  178.1020  142.9720 C   0  0  1  0  0  3  0  0  0  0  0  0
  190.0220  176.9170  140.5020 C   0  0  0  0  0  2  0  0  0  0  0  0
  191.2350  176.7480  139.5890 C   0  0  0  0  0  2  0  0  0  0  0  0
  190.7930  176.4330  138.2300 N   0  0  0  0  0  0  0  0  0  0  0  0
  188.7830  177.7990  138.5110 C   0  0  0  0  0  2  0  0  0  0  0  0
  190.0620  177.5830  137.7030 C   0  0  0  0  0  2  0  0  0  0  0  0
  189.1410  178.0470  139.9760 C   0  0  1  0  0  3  0  0  0  0  0  0
  191.9880  176.2850  137.4130 C   0  0  0  0  0  2  0  0  0  0  0  0
  192.9130  175.3600  138.0490 N   0  0  0  0  0  2  0  0  0  0  0  0
  194.1900  175.9340  137.9700 N   0  0  0  0  0  2  0  0  0  0  0  0
  195.7370  174.3690  138.8910 C   0  0  0  0  0  0  0  0  0  0  0  0
  194.7610  172.4890  138.0330 O   0  0  0  0  0  0  0  0  0  0  0  0
  195.4320  173.0160  139.0890 N   0  0  0  0  0  2  0  0  0  0  0  0
  194.3380  173.6090  137.2640 C   0  0  0  0  0  2  0  0  0  0  0  0
  195.1220  174.8600  137.6680 C   0  0  1  0  0  3  0  0  0  0  0  0
  196.4450  175.0470  139.6800 O   0  0  0  0  0  0  0  0  0  0  0  0
  185.3900  179.0340  141.1080 N   0  0  0  0  0  0  0  0  0  0  0  0
  184.1400  179.3840  140.5780 N   0  0  0  0  0  2  0  0  0  0  0  0
  184.3570  179.8310  139.2690 N   0  0  0  0  0  2  0  0  0  0  0  0
  185.3430  179.0010  138.7200 N   0  0  0  0  0  1  0  0  0  0  0  0
  1  4  2  0  0  0  0
  1 13  1  0  0  0  0
  2 12  1  0  0  0  0
  4  5  1  0  0  0  0
  5  7  1  0  0  0  0
  5  2  2  0  0  0  0
  7  8  2  0  0  0  0
  8  6  1  0  0  0  0
  8  3  1  0  0  0  0
 10  2  1  0  0  0  0
 11  1  1  0  0  0  0
 12  3  2  0  0  0  0
 13  9  1  6  0  0  0
 13 10  1  0  0  0  0
 15 14  1  0  0  0  0
 16 15  1  0  0  0  0
 17 19  1  0  0  0  0
 18 16  1  0  0  0  0
 18 17  1  0  0  0  0
 19 14  1  0  0  0  0
 19 11  1  1  0  0  0
 20 21  1  0  0  0  0
 20 16  1  0  0  0  0
 22 21  1  0  0  0  0
 23 25  1  0  0  0  0
 23 28  2  0  0  0  0
 24 25  1  0  0  0  0
 26 27  1  0  0  0  0
 26 24  1  0  0  0  0
 27 22  1  1  0  0  0
 27 23  1  0  0  0  0
 29  9  2  0  0  0  0
 30 29  1  0  0  0  0
 31 30  1  0  0  0  0
 32 31  1  0  0  0  0
M  END
>  <MODEL>
7

>  <REMARK>
 VINA RESULT:      -8.3      1.555      2.189
  Name = 
  8 active torsions:
  status: ('A' for Active; 'I' for Inactive)
    1  A    between atoms: N_2  and  N_12
    2  A    between atoms: N_2  and  C_17
    3  A    between atoms: N_4  and  N_29
    4  A    between atoms: N_4  and  N_31
    5  A    between atoms: N_8  and  C_17
    6  A    between atoms: N_12  and  C_28
    7  A    between atoms: C_21  and  N_31
    8  A    between atoms: N_24  and  C_27
                            x       y       z     vdW  Elec       q    Type
                         _______ _______ _______ _____ _____    ______ ____

>  <TORSDO>
F 8

$$$$
=
 OpenBabel11042410113D

 32 35  0  0  1  0  0  0  0  0999 V2000
  185.9000  178.0360  143.9740 C   0  0  0  0  0  0  0  0  0  0  0  0
  183.1920  178.8850  143.6070 C   0  0  0  0  0  0  0  0  0  0  0  0
  181.3420  179.0510  142.1040 N   0  0  0  0  0  0  0  0  0  0  0  0
  185.3400  177.9960  142.8000 N   0  0  0  0  0  0  0  0  0  0  0  0
  183.9770  178.3630  142.5670 C   0  0  0  0  0  0  0  0  0  0  0  0
  181.5030  178.3690  139.7990 N   0  0  0  0  0  1  0  0  0  0  0  0
  183.4200  178.1900  141.3000 C   0  0  0  0  0  3  0  0  0  0  0  0
  182.0850  178.5410  141.0850 C   0  0  0  0  0  0  0  0  0  0  0  0
  185.5450  178.3820  146.4230 C   0  0  0  0  0  3  0  0  0  0  0  0
  183.7750  179.1380  144.9640 C   0  0  0  0  0  2  0  0  0  0  0  0
  187.2750  177.6560  144.1100 N   0  0  0  0  0  2  0  0  0  0  0  0
  181.8650  179.2320  143.3480 C   0  0  0  0  0  3  0  0  0  0  0  0
  185.1150  178.4860  145.1610 C   0  0  0  0  0  0  0  0  0  0  0  0
  188.2450  178.2800  141.9660 C   0  0  0  0  0  2  0  0  0  0  0  0
  189.1910  177.8140  140.8620 C   0  0  0  0  0  2  0  0  0  0  0  0
  190.4970  177.4810  141.4340 N   0  0  0  0  0  0  0  0  0  0  0  0
  189.4510  176.7150  143.5080 C   0  0  0  0  0  2  0  0  0  0  0  0
  190.3330  176.3320  142.3210 C   0  0  0  0  0  2  0  0  0  0  0  0
  188.0830  177.1690  143.0010 C   0  0  1  0  0  3  0  0  0  0  0  0
  191.3480  177.0470  140.3370 C   0  0  0  0  0  2  0  0  0  0  0  0
  190.5770  176.2500  139.3940 N   0  0  0  0  0  2  0  0  0  0  0  0
  191.4520  175.8610  138.3710 N   0  0  0  0  0  2  0  0  0  0  0  0
  189.7000  174.7260  137.2180 C   0  0  0  0  0  0  0  0  0  0  0  0
  188.3900  176.5610  136.8450 O   0  0  0  0  0  0  0  0  0  0  0  0
  188.3970  175.2310  137.1160 N   0  0  0  0  0  2  0  0  0  0  0  0
  189.7210  176.9990  137.0930 C   0  0  0  0  0  2  0  0  0  0  0  0
  190.6740  175.8020  137.1440 C   0  0  1  0  0  3  0  0  0  0  0  0
  189.9640  173.5040  137.3580 O   0  0  0  0  0  0  0  0  0  0  0  0
  186.7930  177.7890  146.7800 N   0  0  0  0  0  2  0  0  0  0  0  0
  187.5110  178.2500  147.8910 N   0  0  0  0  0  2  0  0  0  0  0  0
  188.8720  178.0940  147.5960 N   0  0  0  0  0  2  0  0  0  0  0  0
  189.0550  176.7520  147.2440 N   0  0  0  0  0  1  0  0  0  0  0  0
  1 11  1  0  0  0  0
  1 13  1  0  0  0  0
  2 10  1  0  0  0  0
  3 12  2  0  0  0  0
  4  1  2  0  0  0  0
  5  4  1  0  0  0  0
  5  2  2  0  0  0  0
  6  8  1  0  0  0  0
  7  5  1  0  0  0  0
  8  7  2  0  0  0  0
  8  3  1  0  0  0  0
  9 29  1  0  0  0  0
 10 13  1  0  0  0  0
 12  2  1  0  0  0  0
 13  9  2  0  0  0  0
 14 19  1  0  0  0  0
 15 16  1  0  0  0  0
 15 14  1  0  0  0  0
 16 18  1  0  0  0  0
 18 17  1  0  0  0  0
 19 17  1  0  0  0  0
 19 11  1  1  0  0  0
 20 16  1  0  0  0  0
 21 20  1  0  0  0  0
 22 21  1  0  0  0  0
 23 28  2  0  0  0  0
 24 26  1  0  0  0  0
 24 25  1  0  0  0  0
 25 23  1  0  0  0  0
 26 27  1  0  0  0  0
 27 23  1  0  0  0  0
 27 22  1  1  0  0  0
 29 30  1  0  0  0  0
 31 30  1  0  0  0  0
 32 31  1  0  0  0  0
M  END
>  <MODEL>
8

>  <REMARK>
 VINA RESULT:      -8.2      3.726      7.104
  Name = 
  8 active torsions:
  status: ('A' for Active; 'I' for Inactive)
    1  A    between atoms: N_2  and  N_12
    2  A    between atoms: N_2  and  C_17
    3  A    between atoms: N_4  and  N_29
    4  A    between atoms: N_4  and  N_31
    5  A    between atoms: N_8  and  C_17
    6  A    between atoms: N_12  and  C_28
    7  A    between atoms: C_21  and  N_31
    8  A    between atoms: N_24  and  C_27
                            x       y       z     vdW  Elec       q    Type
                         _______ _______ _______ _____ _____    ______ ____

>  <TORSDO>
F 8

$$$$
=
 OpenBabel11042410113D

 32 35  0  0  1  0  0  0  0  0999 V2000
  186.2520  177.9330  144.1860 C   0  0  0  0  0  0  0  0  0  0  0  0
  183.5340  178.8280  144.0950 C   0  0  0  0  0  0  0  0  0  0  0  0
  181.5660  179.0900  142.7660 N   0  0  0  0  0  0  0  0  0  0  0  0
  185.5940  177.9600  143.0640 N   0  0  0  0  0  0  0  0  0  0  0  0
  184.2210  178.3530  142.9670 C   0  0  0  0  0  0  0  0  0  0  0  0
  181.5230  178.5290  140.4240 N   0  0  0  0  0  1  0  0  0  0  0  0
  183.5560  178.2520  141.7440 C   0  0  0  0  0  3  0  0  0  0  0  0
  182.2140  178.6270  141.6630 C   0  0  0  0  0  0  0  0  0  0  0  0
  186.1100  178.1530  146.6710 C   0  0  0  0  0  3  0  0  0  0  0  0
  184.2340  179.0030  145.4090 C   0  0  0  0  0  2  0  0  0  0  0  0
  187.6280  177.5330  144.1840 N   0  0  0  0  0  2  0  0  0  0  0  0
  182.1950  179.2010  143.9680 C   0  0  0  0  0  3  0  0  0  0  0  0
  185.5760  178.3280  145.4570 C   0  0  0  0  0  0  0  0  0  0  0  0
  188.3670  178.2400  141.9760 C   0  0  0  0  0  2  0  0  0  0  0  0
  189.2090  177.8280  140.7700 C   0  0  0  0  0  2  0  0  0  0  0  0
  190.5710  177.5100  141.2010 N   0  0  0  0  0  0  0  0  0  0  0  0
  189.7520  176.6610  143.3430 C   0  0  0  0  0  2  0  0  0  0  0  0
  190.5210  176.3330  142.0650 C   0  0  0  0  0  2  0  0  0  0  0  0
  188.3310  177.0970  142.9870 C   0  0  1  0  0  3  0  0  0  0  0  0
  191.3190  177.1280  140.0130 C   0  0  0  0  0  2  0  0  0  0  0  0
  190.4030  176.8470  138.9180 N   0  0  0  0  0  2  0  0  0  0  0  0
  191.1720  176.7530  137.7500 N   0  0  0  0  0  2  0  0  0  0  0  0
  191.7190  174.4700  137.3280 C   0  0  0  0  0  0  0  0  0  0  0  0
  193.7490  174.8560  136.3500 O   0  0  0  0  0  0  0  0  0  0  0  0
  192.6410  174.0700  136.3510 N   0  0  0  0  0  2  0  0  0  0  0  0
  193.4010  175.9920  137.1320 C   0  0  0  0  0  2  0  0  0  0  0  0
  192.1520  175.7010  137.9690 C   0  0  1  0  0  3  0  0  0  0  0  0
  190.6660  173.8350  137.5940 O   0  0  0  0  0  0  0  0  0  0  0  0
  187.3750  177.5300  146.8890 N   0  0  0  0  0  2  0  0  0  0  0  0
  187.9450  177.5000  148.1690 N   0  0  0  0  0  2  0  0  0  0  0  0
  189.2890  177.8720  148.0300 N   0  0  0  0  0  2  0  0  0  0  0  0
  189.9060  176.8730  147.2680 N   0  0  0  0  0  1  0  0  0  0  0  0
  1 13  1  0  0  0  0
  2 10  1  0  0  0  0
  3 12  2  0  0  0  0
  4  1  2  0  0  0  0
  5  4  1  0  0  0  0
  5  2  2  0  0  0  0
  6  8  1  0  0  0  0
  7  5  1  0  0  0  0
  8  7  2  0  0  0  0
  8  3  1  0  0  0  0
  9 29  1  0  0  0  0
 10 13  1  0  0  0  0
 11  1  1  0  0  0  0
 12  2  1  0  0  0  0
 13  9  2  0  0  0  0
 14 19  1  0  0  0  0
 15 16  1  0  0  0  0
 15 14  1  0  0  0  0
 16 18  1  0  0  0  0
 18 17  1  0  0  0  0
 19 17  1  0  0  0  0
 19 11  1  1  0  0  0
 20 16  1  0  0  0  0
 21 20  1  0  0  0  0
 22 21  1  0  0  0  0
 23 28  2  0  0  0  0
 23 27  1  0  0  0  0
 24 25  1  0  0  0  0
 24 26  1  0  0  0  0
 25 23  1  0  0  0  0
 26 27  1  0  0  0  0
 27 22  1  6  0  0  0
 29 30  1  0  0  0  0
 31 30  1  0  0  0  0
 32 31  1  0  0  0  0
M  END
>  <MODEL>
9

>  <REMARK>
 VINA RESULT:      -8.1      3.079      6.530
  Name = 
  8 active torsions:
  status: ('A' for Active; 'I' for Inactive)
    1  A    between atoms: N_2  and  N_12
    2  A    between atoms: N_2  and  C_17
    3  A    between atoms: N_4  and  N_29
    4  A    between atoms: N_4  and  N_31
    5  A    between atoms: N_8  and  C_17
    6  A    between atoms: N_12  and  C_28
    7  A    between atoms: C_21  and  N_31
    8  A    between atoms: N_24  and  C_27
                            x       y       z     vdW  Elec       q    Type
                         _______ _______ _______ _____ _____    ______ ____

>  <TORSDO>
F 8

$$$$
