=
 OpenBabel11032419523D

 48 51  0  0  1  0  0  0  0  0999 V2000
  185.1760  178.1950  138.8420 C   0  0  2  0  0  3  0  0  0  0  0  0
  189.5500  176.9930  137.7540 C   0  0  1  0  0  3  0  0  0  0  0  0
  188.2860  176.3550  138.3350 C   0  0  0  0  0  2  0  0  0  0  0  0
  185.7330  178.6100  136.5720 C   0  0  0  0  0  2  0  0  0  0  0  0
  188.2360  178.8810  136.7360 C   0  0  0  0  0  2  0  0  0  0  0  0
  186.0530  178.9800  137.9710 N   0  0  0  0  0  0  0  0  0  0  0  0
  189.3840  178.5130  137.6730 C   0  0  0  0  0  2  0  0  0  0  0  0
  187.0710  176.6380  137.4530 C   0  0  0  0  0  2  0  0  0  0  0  0
  186.9740  178.1440  137.1630 C   0  0  1  0  0  0  0  0  0  0  0  0
  190.6390  176.6810  138.5680 O   0  0  0  0  0  0  0  0  0  0  0  0
  193.2930  176.5060  138.6140 C   0  0  0  0  0  1  0  0  0  0  0  0
  191.7420  174.4580  137.9120 O   0  0  0  0  0  1  0  0  0  0  0  0
  191.8710  176.1350  137.4730 P   0  0  1  0  0  0  0  0  0  0  0  0
  181.9470  179.8230  138.6460 C   0  0  0  0  0  0  0  0  0  0  0  0
  181.4550  178.4350  138.3470 C   0  0  2  0  0  3  0  0  0  0  0  0
  182.9380  176.3520  138.1790 O   0  0  0  0  0  1  0  0  0  0  0  0
  183.2280  179.8850  138.8200 N   0  0  0  0  0  0  0  0  0  0  0  0
  182.7650  177.7190  138.3610 C   0  0  0  0  0  0  0  0  0  0  0  0
  183.7380  178.5740  138.6240 C   0  0  0  0  0  0  0  0  0  0  0  0
  180.7680  178.3330  136.9780 C   0  0  0  0  0  0  0  0  0  0  0  0
  179.4670  178.7870  137.0900 F   0  0  0  0  0  0  0  0  0  0  0  0
  181.4360  179.1280  136.0640 F   0  0  0  0  0  0  0  0  0  0  0  0
  180.7560  177.0230  136.5200 F   0  0  0  0  0  0  0  0  0  0  0  0
  181.0590  181.0100  138.8280 C   0  0  0  0  0  2  0  0  0  0  0  0
  181.7050  182.2410  138.2080 C   0  0  0  0  0  2  0  0  0  0  0  0
  180.2930  182.3100  136.3610 C   0  0  0  0  0  1  0  0  0  0  0  0
  180.6940  183.0440  137.5440 N   0  0  0  0  0  0  0  0  0  0  0  0
  181.3540  184.2510  137.0800 C   0  0  0  0  0  1  0  0  0  0  0  0
  184.7250  178.5010  142.7060 C   0  0  0  0  0  0  0  0  0  0  0  0
  186.7400  178.6660  140.5750 O   0  0  0  0  0  0  0  0  0  0  0  0
  184.5260  178.3210  141.2980 N   0  0  0  0  0  2  0  0  0  0  0  0
  183.7510  178.3420  143.4860 O   0  0  0  0  0  0  0  0  0  0  0  0
  185.5370  178.4190  140.2790 C   0  0  0  0  0  0  0  0  0  0  0  0
  186.0490  178.8910  143.2720 C   0  0  0  0  0  2  0  0  0  0  0  0
  186.6980  177.7050  143.9630 C   0  0  0  0  0  2  0  0  0  0  0  0
  186.2300  177.6220  145.4060 C   0  0  0  0  0  2  0  0  0  0  0  0
  188.3800  178.3240  148.4550 C   0  0  0  0  0  3  0  0  0  0  0  0
  189.5760  177.9920  147.9640 C   0  0  0  0  0  3  0  0  0  0  0  0
  187.1100  177.9720  147.7310 C   0  0  0  0  0  2  0  0  0  0  0  0
  189.7220  177.3300  146.6530 C   0  0  0  0  0  0  0  0  0  0  0  0
  187.3620  177.6680  146.3170 N   0  0  0  0  0  0  0  0  0  0  0  0
  188.6420  177.1930  145.8760 C   0  0  0  0  0  3  0  0  0  0  0  0
  191.6260  175.9610  146.9580 O   0  0  0  0  0  0  0  0  0  0  0  0
  191.6450  177.1150  144.9480 N   0  0  0  0  0  2  0  0  0  0  0  0
  191.0190  176.7720  146.1980 C   0  0  0  0  0  0  0  0  0  0  0  0
  191.0960  177.8360  143.8030 C   0  0  0  0  0  3  0  0  0  0  0  0
  191.6340  177.3010  142.4900 C   0  0  0  0  0  1  0  0  0  0  0  0
  191.2730  179.3410  143.9260 C   0  0  0  0  0  1  0  0  0  0  0  0
  1 33  1  1  0  0  0
  2  3  1  0  0  0  0
  2 10  1  1  0  0  0
  4  6  1  0  0  0  0
  5  9  1  0  0  0  0
  5  7  1  0  0  0  0
  6  1  1  0  0  0  0
  7  2  1  0  0  0  0
  8  3  1  0  0  0  0
  9  4  1  6  0  0  0
  9  8  1  0  0  0  0
  9  6  1  0  0  0  0
 13 12  1  0  0  0  0
 13 10  1  0  0  0  0
 13 11  1  1  0  0  0
 14 17  2  0  0  0  0
 14 24  1  0  0  0  0
 15 20  1  6  0  0  0
 15 18  1  0  0  0  0
 15 14  1  0  0  0  0
 16 18  1  0  0  0  0
 18 19  2  0  0  0  0
 19 17  1  0  0  0  0
 19  1  1  0  0  0  0
 20 21  1  0  0  0  0
 22 20  1  0  0  0  0
 23 20  1  0  0  0  0
 25 24  1  0  0  0  0
 26 27  1  0  0  0  0
 27 25  1  0  0  0  0
 28 27  1  0  0  0  0
 29 34  1  0  0  0  0
 29 32  2  0  0  0  0
 31 29  1  0  0  0  0
 33 30  2  0  0  0  0
 33 31  1  0  0  0  0
 34 35  1  0  0  0  0
 35 36  1  0  0  0  0
 36 41  1  0  0  0  0
 38 37  2  0  0  0  0
 39 37  1  0  0  0  0
 40 38  1  0  0  0  0
 41 39  1  0  0  0  0
 42 41  1  0  0  0  0
 42 40  2  0  0  0  0
 44 45  1  0  0  0  0
 45 40  1  0  0  0  0
 45 43  2  0  0  0  0
 46 48  1  0  0  0  0
 46 44  1  0  0  0  0
 47 46  1  0  0  0  0
M  END
>  <MODEL>
1

>  <REMARK>
 VINA RESULT:      -7.6      0.000      0.000
  Name = 
  15 active torsions:
  status: ('A' for Active; 'I' for Inactive)
    1  A    between atoms: C_1  and  O_36
    2  A    between atoms: C_2  and  N_22
    3  A    between atoms: C_2  and  C_39
    4  A    between atoms: C_2  and  C_42
    5  A    between atoms: C_4  and  C_5
    6  A    between atoms: C_5  and  C_33
    7  A    between atoms: C_9  and  C_13
    8  A    between atoms: C_10  and  C_14
    9  A    between atoms: C_14  and  C_26
   10  A    between atoms: C_17  and  C_26
   11  A    between atoms: C_17  and  N_29
   12  A    between atoms: C_19  and  N_35
   13  A    between atoms: N_25  and  C_33
   14  A    between atoms: C_28  and  C_44
   15  A    between atoms: O_36  and  P_43
                            x       y       z     vdW  Elec       q    Type
                         _______ _______ _______ _____ _____    ______ ____

>  <TORSDO>
F 15

$$$$
=
 OpenBabel11032419523D

 48 51  0  0  1  0  0  0  0  0999 V2000
  190.0560  175.6940  137.3360 C   0  0  2  0  0  3  0  0  0  0  0  0
  194.6030  174.9940  136.5660 C   0  0  1  0  0  3  0  0  0  0  0  0
  193.4580  174.3760  137.3720 C   0  0  0  0  0  2  0  0  0  0  0  0
  190.5930  175.4080  135.0400 C   0  0  0  0  0  2  0  0  0  0  0  0
  193.0010  176.1600  135.0170 C   0  0  0  0  0  2  0  0  0  0  0  0
  190.8030  176.2820  136.2200 N   0  0  0  0  0  0  0  0  0  0  0  0
  194.1700  176.3420  135.9820 C   0  0  0  0  0  2  0  0  0  0  0  0
  192.2380  174.1230  136.4890 C   0  0  0  0  0  2  0  0  0  0  0  0
  191.8800  175.3990  135.7110 C   0  0  1  0  0  0  0  0  0  0  0  0
  195.7070  175.1750  137.4000 O   0  0  0  0  0  0  0  0  0  0  0  0
  197.9600  173.7950  137.7090 C   0  0  0  0  0  1  0  0  0  0  0  0
  196.1230  173.9730  139.6290 O   0  0  0  0  0  1  0  0  0  0  0  0
  196.1260  173.5780  137.9370 P   0  0  1  0  0  0  0  0  0  0  0  0
  186.6370  176.8450  137.0150 C   0  0  0  0  0  0  0  0  0  0  0  0
  186.3270  175.3750  136.9630 C   0  0  2  0  0  3  0  0  0  0  0  0
  188.0680  173.4990  137.0710 O   0  0  0  0  0  1  0  0  0  0  0  0
  187.9020  177.0970  137.1230 N   0  0  0  0  0  0  0  0  0  0  0  0
  187.7200  174.8430  137.0370 C   0  0  0  0  0  0  0  0  0  0  0  0
  188.5770  175.8470  137.1190 C   0  0  0  0  0  0  0  0  0  0  0  0
  185.6310  174.9630  135.6590 C   0  0  0  0  0  0  0  0  0  0  0  0
  186.5780  174.8390  134.6600 F   0  0  0  0  0  0  0  0  0  0  0  0
  185.0110  173.7370  135.8320 F   0  0  0  0  0  0  0  0  0  0  0  0
  184.6840  175.9030  135.2770 F   0  0  0  0  0  0  0  0  0  0  0  0
  185.6040  177.9230  137.0400 C   0  0  0  0  0  2  0  0  0  0  0  0
  184.8490  177.8870  138.3610 C   0  0  0  0  0  2  0  0  0  0  0  0
  185.2860  178.9240  140.3970 C   0  0  0  0  0  1  0  0  0  0  0  0
  184.9410  179.1810  139.0140 N   0  0  0  0  0  0  0  0  0  0  0  0
  183.6030  179.7460  139.0160 C   0  0  0  0  0  1  0  0  0  0  0  0
  189.8420  176.7910  141.0740 C   0  0  0  0  0  0  0  0  0  0  0  0
  191.5250  177.0050  138.6760 O   0  0  0  0  0  0  0  0  0  0  0  0
  189.5980  176.2230  139.7810 N   0  0  0  0  0  2  0  0  0  0  0  0
  189.0330  176.5530  142.0090 O   0  0  0  0  0  0  0  0  0  0  0  0
  190.4420  176.3570  138.6230 C   0  0  0  0  0  0  0  0  0  0  0  0
  191.0160  177.6720  141.3400 C   0  0  0  0  0  2  0  0  0  0  0  0
  191.5950  177.3800  142.7130 C   0  0  0  0  0  2  0  0  0  0  0  0
  191.1340  178.4320  143.7080 C   0  0  0  0  0  2  0  0  0  0  0  0
  191.2330  176.1730  146.7580 C   0  0  0  0  0  3  0  0  0  0  0  0
  190.0490  176.4750  147.2970 C   0  0  0  0  0  3  0  0  0  0  0  0
  191.8260  177.0010  145.6520 C   0  0  0  0  0  2  0  0  0  0  0  0
  189.2260  177.5900  146.7880 C   0  0  0  0  0  0  0  0  0  0  0  0
  190.8060  177.8210  144.9860 N   0  0  0  0  0  0  0  0  0  0  0  0
  189.6080  178.2170  145.6700 C   0  0  0  0  0  3  0  0  0  0  0  0
  188.0950  178.2450  148.7590 O   0  0  0  0  0  0  0  0  0  0  0  0
  186.7490  178.3050  146.8730 N   0  0  0  0  0  2  0  0  0  0  0  0
  188.0180  178.0620  147.5090 C   0  0  0  0  0  0  0  0  0  0  0  0
  186.4240  178.3850  145.4510 C   0  0  0  0  0  3  0  0  0  0  0  0
  185.0560  178.9980  145.2190 C   0  0  0  0  0  1  0  0  0  0  0  0
  186.5820  177.0480  144.7440 C   0  0  0  0  0  1  0  0  0  0  0  0
  1 33  1  1  0  0  0
  2  3  1  0  0  0  0
  2 10  1  1  0  0  0
  4  9  1  0  0  0  0
  4  6  1  0  0  0  0
  5  7  1  0  0  0  0
  6  1  1  0  0  0  0
  7  2  1  0  0  0  0
  8  3  1  0  0  0  0
  9  5  1  6  0  0  0
  9  6  1  0  0  0  0
  9  8  1  0  0  0  0
 10 13  1  0  0  0  0
 13 11  1  6  0  0  0
 13 12  1  0  0  0  0
 14 24  1  0  0  0  0
 14 17  2  0  0  0  0
 15 20  1  6  0  0  0
 15 14  1  0  0  0  0
 15 18  1  0  0  0  0
 18 16  1  0  0  0  0
 18 19  2  0  0  0  0
 19 17  1  0  0  0  0
 19  1  1  0  0  0  0
 20 22  1  0  0  0  0
 21 20  1  0  0  0  0
 23 20  1  0  0  0  0
 24 25  1  0  0  0  0
 25 27  1  0  0  0  0
 27 28  1  0  0  0  0
 27 26  1  0  0  0  0
 29 34  1  0  0  0  0
 29 32  2  0  0  0  0
 31 29  1  0  0  0  0
 33 30  2  0  0  0  0
 33 31  1  0  0  0  0
 34 35  1  0  0  0  0
 35 36  1  0  0  0  0
 36 41  1  0  0  0  0
 37 38  2  0  0  0  0
 39 37  1  0  0  0  0
 40 38  1  0  0  0  0
 40 45  1  0  0  0  0
 41 39  1  0  0  0  0
 41 42  1  0  0  0  0
 42 40  2  0  0  0  0
 44 45  1  0  0  0  0
 45 43  2  0  0  0  0
 46 44  1  0  0  0  0
 47 46  1  0  0  0  0
 48 46  1  0  0  0  0
M  END
>  <MODEL>
2

>  <REMARK>
 VINA RESULT:      -7.3      2.930      5.451
  Name = 
  15 active torsions:
  status: ('A' for Active; 'I' for Inactive)
    1  A    between atoms: C_1  and  O_36
    2  A    between atoms: C_2  and  N_22
    3  A    between atoms: C_2  and  C_39
    4  A    between atoms: C_2  and  C_42
    5  A    between atoms: C_4  and  C_5
    6  A    between atoms: C_5  and  C_33
    7  A    between atoms: C_9  and  C_13
    8  A    between atoms: C_10  and  C_14
    9  A    between atoms: C_14  and  C_26
   10  A    between atoms: C_17  and  C_26
   11  A    between atoms: C_17  and  N_29
   12  A    between atoms: C_19  and  N_35
   13  A    between atoms: N_25  and  C_33
   14  A    between atoms: C_28  and  C_44
   15  A    between atoms: O_36  and  P_43
                            x       y       z     vdW  Elec       q    Type
                         _______ _______ _______ _____ _____    ______ ____

>  <TORSDO>
F 15

$$$$
=
 OpenBabel11032419523D

 48 51  0  0  1  0  0  0  0  0999 V2000
  185.1210  177.7830  138.6060 C   0  0  2  0  0  3  0  0  0  0  0  0
  189.7220  177.4810  137.9020 C   0  0  1  0  0  3  0  0  0  0  0  0
  188.5860  176.6460  138.4980 C   0  0  0  0  0  2  0  0  0  0  0  0
  185.7480  178.0470  136.3310 C   0  0  0  0  0  2  0  0  0  0  0  0
  188.1120  178.8930  136.5830 C   0  0  0  0  0  2  0  0  0  0  0  0
  185.8710  178.6400  137.6840 N   0  0  0  0  0  0  0  0  0  0  0  0
  189.2360  178.9050  137.6160 C   0  0  0  0  0  2  0  0  0  0  0  0
  187.4110  176.5440  137.5260 C   0  0  0  0  0  2  0  0  0  0  0  0
  187.0110  177.9460  137.0390 C   0  0  1  0  0  0  0  0  0  0  0  0
  190.7870  177.5200  138.8030 O   0  0  0  0  0  0  0  0  0  0  0  0
  191.6340  176.2730  136.6110 C   0  0  0  0  0  1  0  0  0  0  0  0
  193.2610  176.8550  138.6380 O   0  0  0  0  0  1  0  0  0  0  0  0
  191.7100  176.0890  138.4610 P   0  0  1  0  0  0  0  0  0  0  0  0
  181.6550  178.3850  137.7470 C   0  0  0  0  0  0  0  0  0  0  0  0
  181.5580  176.8860  137.8000 C   0  0  2  0  0  3  0  0  0  0  0  0
  183.5070  175.3030  138.3080 O   0  0  0  0  0  1  0  0  0  0  0  0
  182.8460  178.8300  137.9890 N   0  0  0  0  0  0  0  0  0  0  0  0
  182.9870  176.5750  138.1010 C   0  0  0  0  0  0  0  0  0  0  0  0
  183.6790  177.6980  138.1910 C   0  0  0  0  0  0  0  0  0  0  0  0
  181.1120  176.2740  136.4650 C   0  0  0  0  0  0  0  0  0  0  0  0
  181.4360  174.9310  136.4520 F   0  0  0  0  0  0  0  0  0  0  0  0
  179.7400  176.3980  136.3340 F   0  0  0  0  0  0  0  0  0  0  0  0
  181.7310  176.9030  135.3940 F   0  0  0  0  0  0  0  0  0  0  0  0
  180.4900  179.2970  137.5370 C   0  0  0  0  0  2  0  0  0  0  0  0
  179.6680  179.3910  138.8140 C   0  0  0  0  0  2  0  0  0  0  0  0
  179.8400  179.8380  141.0910 C   0  0  0  0  0  1  0  0  0  0  0  0
  180.3720  180.2000  139.7930 N   0  0  0  0  0  0  0  0  0  0  0  0
  179.9850  181.5790  139.5550 C   0  0  0  0  0  1  0  0  0  0  0  0
  183.9910  178.7430  142.2150 C   0  0  0  0  0  0  0  0  0  0  0  0
  186.3070  178.7910  140.4090 O   0  0  0  0  0  0  0  0  0  0  0  0
  184.0550  178.2750  140.8620 N   0  0  0  0  0  2  0  0  0  0  0  0
  182.9220  178.5950  142.8630 O   0  0  0  0  0  0  0  0  0  0  0  0
  185.2060  178.3240  140.0010 C   0  0  0  0  0  0  0  0  0  0  0  0
  185.1470  179.4180  142.8720 C   0  0  0  0  0  2  0  0  0  0  0  0
  185.3750  178.8460  144.2600 C   0  0  0  0  0  2  0  0  0  0  0  0
  186.4240  177.7470  144.2040 C   0  0  0  0  0  2  0  0  0  0  0  0
  187.6360  178.3860  147.7450 C   0  0  0  0  0  3  0  0  0  0  0  0
  188.9190  178.0460  147.6050 C   0  0  0  0  0  3  0  0  0  0  0  0
  186.6180  178.0590  146.6880 C   0  0  0  0  0  2  0  0  0  0  0  0
  189.4220  177.3980  146.3770 C   0  0  0  0  0  0  0  0  0  0  0  0
  187.2540  177.7690  145.3970 N   0  0  0  0  0  0  0  0  0  0  0  0
  188.6030  177.2830  145.3270 C   0  0  0  0  0  3  0  0  0  0  0  0
  191.1620  176.0230  147.2000 O   0  0  0  0  0  0  0  0  0  0  0  0
  191.7340  177.1570  145.2620 N   0  0  0  0  0  2  0  0  0  0  0  0
  190.7900  176.8290  146.2980 C   0  0  0  0  0  0  0  0  0  0  0  0
  191.5230  177.8690  144.0040 C   0  0  0  0  0  3  0  0  0  0  0  0
  191.0510  179.2920  144.2340 C   0  0  0  0  0  1  0  0  0  0  0  0
  190.6130  177.1080  143.0530 C   0  0  0  0  0  1  0  0  0  0  0  0
  1 33  1  1  0  0  0
  2  3  1  0  0  0  0
  2 10  1  1  0  0  0
  4  6  1  0  0  0  0
  5  9  1  0  0  0  0
  5  7  1  0  0  0  0
  6  1  1  0  0  0  0
  7  2  1  0  0  0  0
  8  3  1  0  0  0  0
  9  4  1  6  0  0  0
  9  8  1  0  0  0  0
  9  6  1  0  0  0  0
 13 11  1  6  0  0  0
 13 12  1  0  0  0  0
 13 10  1  0  0  0  0
 14 15  1  0  0  0  0
 14 17  2  0  0  0  0
 15 20  1  6  0  0  0
 15 18  1  0  0  0  0
 17 19  1  0  0  0  0
 18 19  2  0  0  0  0
 18 16  1  0  0  0  0
 19  1  1  0  0  0  0
 21 20  1  0  0  0  0
 22 20  1  0  0  0  0
 23 20  1  0  0  0  0
 24 14  1  0  0  0  0
 24 25  1  0  0  0  0
 25 27  1  0  0  0  0
 27 26  1  0  0  0  0
 28 27  1  0  0  0  0
 29 32  2  0  0  0  0
 29 34  1  0  0  0  0
 31 29  1  0  0  0  0
 33 30  2  0  0  0  0
 33 31  1  0  0  0  0
 34 35  1  0  0  0  0
 36 35  1  0  0  0  0
 36 41  1  0  0  0  0
 38 37  2  0  0  0  0
 39 37  1  0  0  0  0
 40 38  1  0  0  0  0
 41 39  1  0  0  0  0
 42 41  1  0  0  0  0
 42 40  2  0  0  0  0
 44 45  1  0  0  0  0
 45 40  1  0  0  0  0
 45 43  2  0  0  0  0
 46 47  1  0  0  0  0
 46 44  1  0  0  0  0
 48 46  1  0  0  0  0
M  END
>  <MODEL>
3

>  <REMARK>
 VINA RESULT:      -7.0      1.440      1.874
  Name = 
  15 active torsions:
  status: ('A' for Active; 'I' for Inactive)
    1  A    between atoms: C_1  and  O_36
    2  A    between atoms: C_2  and  N_22
    3  A    between atoms: C_2  and  C_39
    4  A    between atoms: C_2  and  C_42
    5  A    between atoms: C_4  and  C_5
    6  A    between atoms: C_5  and  C_33
    7  A    between atoms: C_9  and  C_13
    8  A    between atoms: C_10  and  C_14
    9  A    between atoms: C_14  and  C_26
   10  A    between atoms: C_17  and  C_26
   11  A    between atoms: C_17  and  N_29
   12  A    between atoms: C_19  and  N_35
   13  A    between atoms: N_25  and  C_33
   14  A    between atoms: C_28  and  C_44
   15  A    between atoms: O_36  and  P_43
                            x       y       z     vdW  Elec       q    Type
                         _______ _______ _______ _____ _____    ______ ____

>  <TORSDO>
F 15

$$$$
=
 OpenBabel11032419523D

 48 51  0  0  1  0  0  0  0  0999 V2000
  190.5140  175.6710  137.3420 C   0  0  2  0  0  3  0  0  0  0  0  0
  195.0680  174.7670  136.8950 C   0  0  1  0  0  3  0  0  0  0  0  0
  193.8380  174.1880  137.5980 C   0  0  0  0  0  2  0  0  0  0  0  0
  191.2080  175.4080  135.0860 C   0  0  0  0  0  2  0  0  0  0  0  0
  193.6440  176.0420  135.2600 C   0  0  0  0  0  2  0  0  0  0  0  0
  191.3690  176.2450  136.3000 N   0  0  0  0  0  0  0  0  0  0  0  0
  194.7440  176.1460  136.3140 C   0  0  0  0  0  2  0  0  0  0  0  0
  192.6770  174.0130  136.6200 C   0  0  0  0  0  2  0  0  0  0  0  0
  192.4400  175.3220  135.8500 C   0  0  1  0  0  0  0  0  0  0  0  0
  196.1140  174.8770  137.8120 O   0  0  0  0  0  0  0  0  0  0  0  0
  197.8170  174.4660  135.8110 C   0  0  0  0  0  1  0  0  0  0  0  0
  198.5300  174.2060  138.3630 O   0  0  0  0  0  1  0  0  0  0  0  0
  197.2310  173.6260  137.3640 P   0  0  1  0  0  0  0  0  0  0  0  0
  187.0240  175.2460  136.4730 C   0  0  0  0  0  0  0  0  0  0  0  0
  187.0950  176.7170  136.1730 C   0  0  2  0  0  3  0  0  0  0  0  0
  189.1780  178.1790  136.4670 O   0  0  0  0  0  1  0  0  0  0  0  0
  188.1410  174.7580  136.9080 N   0  0  0  0  0  0  0  0  0  0  0  0
  188.5140  176.9630  136.5680 C   0  0  0  0  0  0  0  0  0  0  0  0
  189.0640  175.8350  136.9840 C   0  0  0  0  0  0  0  0  0  0  0  0
  186.1180  177.5420  137.0210 C   0  0  0  0  0  0  0  0  0  0  0  0
  184.8430  177.4000  136.5090 F   0  0  0  0  0  0  0  0  0  0  0  0
  186.1260  177.0740  138.3230 F   0  0  0  0  0  0  0  0  0  0  0  0
  186.4640  178.8870  137.0170 F   0  0  0  0  0  0  0  0  0  0  0  0
  185.8280  174.3910  136.2120 C   0  0  0  0  0  2  0  0  0  0  0  0
  185.3410  173.7680  137.5130 C   0  0  0  0  0  2  0  0  0  0  0  0
  184.0080  172.0140  136.7660 C   0  0  0  0  0  1  0  0  0  0  0  0
  183.9640  173.3330  137.3630 N   0  0  0  0  0  0  0  0  0  0  0  0
  183.3490  174.2130  136.3840 C   0  0  0  0  0  1  0  0  0  0  0  0
  189.8370  177.0620  140.9240 C   0  0  0  0  0  0  0  0  0  0  0  0
  191.9450  176.7630  138.9010 O   0  0  0  0  0  0  0  0  0  0  0  0
  189.7270  176.4590  139.6280 N   0  0  0  0  0  2  0  0  0  0  0  0
  188.8360  177.0580  141.6870 O   0  0  0  0  0  0  0  0  0  0  0  0
  190.7810  176.3390  138.6560 C   0  0  0  0  0  0  0  0  0  0  0  0
  191.0970  177.7130  141.3870 C   0  0  0  0  0  2  0  0  0  0  0  0
  191.4710  177.2130  142.7710 C   0  0  0  0  0  2  0  0  0  0  0  0
  191.2440  178.3080  143.7990 C   0  0  0  0  0  2  0  0  0  0  0  0
  191.0790  176.1430  146.9140 C   0  0  0  0  0  3  0  0  0  0  0  0
  189.8620  176.4760  147.3510 C   0  0  0  0  0  3  0  0  0  0  0  0
  191.7660  176.9280  145.8320 C   0  0  0  0  0  2  0  0  0  0  0  0
  189.0970  177.5850  146.7490 C   0  0  0  0  0  0  0  0  0  0  0  0
  190.8120  177.7410  145.0670 N   0  0  0  0  0  0  0  0  0  0  0  0
  189.5720  178.1730  145.6460 C   0  0  0  0  0  3  0  0  0  0  0  0
  187.8340  178.3260  148.6070 O   0  0  0  0  0  0  0  0  0  0  0  0
  186.6290  178.3240  146.6270 N   0  0  0  0  0  2  0  0  0  0  0  0
  187.8450  178.0950  147.3620 C   0  0  0  0  0  0  0  0  0  0  0  0
  186.4080  178.3510  145.1840 C   0  0  0  0  0  3  0  0  0  0  0  0
  185.0820  178.9960  144.8290 C   0  0  0  0  0  1  0  0  0  0  0  0
  186.5690  176.9800  144.5460 C   0  0  0  0  0  1  0  0  0  0  0  0
  1 33  1  1  0  0  0
  2  3  1  0  0  0  0
  2 10  1  1  0  0  0
  4  6  1  0  0  0  0
  5  9  1  0  0  0  0
  5  7  1  0  0  0  0
  6  1  1  0  0  0  0
  7  2  1  0  0  0  0
  8  3  1  0  0  0  0
  9  4  1  6  0  0  0
  9  6  1  0  0  0  0
  9  8  1  0  0  0  0
 13 11  1  6  0  0  0
 13 10  1  0  0  0  0
 13 12  1  0  0  0  0
 14 17  2  0  0  0  0
 15 14  1  0  0  0  0
 15 18  1  0  0  0  0
 15 20  1  1  0  0  0
 16 18  1  0  0  0  0
 17 19  1  0  0  0  0
 18 19  2  0  0  0  0
 19  1  1  0  0  0  0
 20 22  1  0  0  0  0
 21 20  1  0  0  0  0
 23 20  1  0  0  0  0
 24 14  1  0  0  0  0
 24 25  1  0  0  0  0
 26 27  1  0  0  0  0
 27 25  1  0  0  0  0
 28 27  1  0  0  0  0
 29 34  1  0  0  0  0
 29 32  2  0  0  0  0
 31 29  1  0  0  0  0
 33 30  2  0  0  0  0
 33 31  1  0  0  0  0
 34 35  1  0  0  0  0
 35 36  1  0  0  0  0
 36 41  1  0  0  0  0
 37 38  2  0  0  0  0
 39 37  1  0  0  0  0
 40 38  1  0  0  0  0
 40 45  1  0  0  0  0
 41 42  1  0  0  0  0
 41 39  1  0  0  0  0
 42 40  2  0  0  0  0
 44 45  1  0  0  0  0
 45 43  2  0  0  0  0
 46 44  1  0  0  0  0
 47 46  1  0  0  0  0
 48 46  1  0  0  0  0
M  END
>  <MODEL>
4

>  <REMARK>
 VINA RESULT:      -6.8      4.039      6.208
  Name = 
  15 active torsions:
  status: ('A' for Active; 'I' for Inactive)
    1  A    between atoms: C_1  and  O_36
    2  A    between atoms: C_2  and  N_22
    3  A    between atoms: C_2  and  C_39
    4  A    between atoms: C_2  and  C_42
    5  A    between atoms: C_4  and  C_5
    6  A    between atoms: C_5  and  C_33
    7  A    between atoms: C_9  and  C_13
    8  A    between atoms: C_10  and  C_14
    9  A    between atoms: C_14  and  C_26
   10  A    between atoms: C_17  and  C_26
   11  A    between atoms: C_17  and  N_29
   12  A    between atoms: C_19  and  N_35
   13  A    between atoms: N_25  and  C_33
   14  A    between atoms: C_28  and  C_44
   15  A    between atoms: O_36  and  P_43
                            x       y       z     vdW  Elec       q    Type
                         _______ _______ _______ _____ _____    ______ ____

>  <TORSDO>
F 15

$$$$
=
 OpenBabel11032419523D

 48 51  0  0  1  0  0  0  0  0999 V2000
  188.8750  177.2830  140.6310 C   0  0  2  0  0  3  0  0  0  0  0  0
  190.6400  177.3570  144.9480 C   0  0  1  0  0  3  0  0  0  0  0  0
  189.6940  176.5040  144.1000 C   0  0  0  0  0  2  0  0  0  0  0  0
  191.2490  177.2830  140.6810 C   0  0  0  0  0  2  0  0  0  0  0  0
  191.6790  178.3940  142.9050 C   0  0  0  0  0  2  0  0  0  0  0  0
  190.0430  178.0730  141.0290 N   0  0  0  0  0  0  0  0  0  0  0  0
  190.9600  178.6690  144.2240 C   0  0  0  0  0  2  0  0  0  0  0  0
  190.3310  176.1440  142.7590 C   0  0  0  0  0  2  0  0  0  0  0  0
  190.8640  177.4130  142.0740 C   0  0  1  0  0  0  0  0  0  0  0  0
  190.0370  177.6330  146.1750 O   0  0  0  0  0  0  0  0  0  0  0  0
  192.0770  175.9270  146.1460 C   0  0  0  0  0  1  0  0  0  0  0  0
  191.6320  177.5800  148.1860 O   0  0  0  0  0  1  0  0  0  0  0  0
  190.6860  176.4490  147.2660 P   0  0  1  0  0  0  0  0  0  0  0  0
  188.8400  176.1450  137.1930 C   0  0  0  0  0  0  0  0  0  0  0  0
  188.9790  177.6100  136.8850 C   0  0  2  0  0  3  0  0  0  0  0  0
  189.0760  179.4780  138.6350 O   0  0  0  0  0  1  0  0  0  0  0  0
  188.7720  175.8930  138.4610 N   0  0  0  0  0  0  0  0  0  0  0  0
  188.9440  178.1420  138.2800 C   0  0  0  0  0  0  0  0  0  0  0  0
  188.8190  177.1420  139.1360 C   0  0  0  0  0  0  0  0  0  0  0  0
  187.8160  178.1500  136.0420 C   0  0  0  0  0  0  0  0  0  0  0  0
  186.6610  177.4700  136.3760 F   0  0  0  0  0  0  0  0  0  0  0  0
  187.6300  179.4940  136.3160 F   0  0  0  0  0  0  0  0  0  0  0  0
  188.0640  177.9910  134.6860 F   0  0  0  0  0  0  0  0  0  0  0  0
  188.8750  175.0620  136.1650 C   0  0  0  0  0  2  0  0  0  0  0  0
  190.0190  174.1030  136.4600 C   0  0  0  0  0  2  0  0  0  0  0  0
  191.9810  174.0960  135.2120 C   0  0  0  0  0  1  0  0  0  0  0  0
  191.2890  174.7840  136.2830 N   0  0  0  0  0  0  0  0  0  0  0  0
  192.0610  174.5550  137.4910 C   0  0  0  0  0  1  0  0  0  0  0  0
  185.9930  178.2780  143.0660 C   0  0  0  0  0  0  0  0  0  0  0  0
  186.9870  178.7050  140.3350 O   0  0  0  0  0  0  0  0  0  0  0  0
  187.1650  177.7150  142.4640 N   0  0  0  0  0  2  0  0  0  0  0  0
  185.7440  178.0250  144.2740 O   0  0  0  0  0  0  0  0  0  0  0  0
  187.6180  177.9390  141.1160 C   0  0  0  0  0  0  0  0  0  0  0  0
  185.0470  179.1400  142.2980 C   0  0  0  0  0  2  0  0  0  0  0  0
  183.8540  178.3260  141.8300 C   0  0  0  0  0  2  0  0  0  0  0  0
  183.4680  178.7320  140.4180 C   0  0  0  0  0  2  0  0  0  0  0  0
  181.2490  175.7910  139.5000 C   0  0  0  0  0  3  0  0  0  0  0  0
  181.9420  175.3030  138.4690 C   0  0  0  0  0  3  0  0  0  0  0  0
  181.5510  177.1460  140.0780 C   0  0  0  0  0  2  0  0  0  0  0  0
  183.0870  176.0320  137.8880 C   0  0  0  0  0  0  0  0  0  0  0  0
  182.8920  177.6070  139.6980 N   0  0  0  0  0  0  0  0  0  0  0  0
  183.5300  177.1340  138.5030 C   0  0  0  0  0  3  0  0  0  0  0  0
  183.7490  176.4170  135.6500 O   0  0  0  0  0  0  0  0  0  0  0  0
  184.3020  174.3000  136.4130 N   0  0  0  0  0  2  0  0  0  0  0  0
  183.7250  175.6030  136.6190 C   0  0  0  0  0  0  0  0  0  0  0  0
  184.6060  173.2550  137.3870 C   0  0  0  0  0  3  0  0  0  0  0  0
  186.0990  173.0290  137.5250 C   0  0  0  0  0  1  0  0  0  0  0  0
  183.8530  171.9640  137.1050 C   0  0  0  0  0  1  0  0  0  0  0  0
  1  6  1  0  0  0  0
  1 33  1  6  0  0  0
  2 10  1  1  0  0  0
  3  2  1  0  0  0  0
  4  6  1  0  0  0  0
  5  7  1  0  0  0  0
  6  9  1  0  0  0  0
  7  2  1  0  0  0  0
  8  3  1  0  0  0  0
  9  4  1  6  0  0  0
  9  8  1  0  0  0  0
  9  5  1  0  0  0  0
 10 13  1  0  0  0  0
 13 11  1  6  0  0  0
 13 12  1  0  0  0  0
 14 17  2  0  0  0  0
 15 20  1  6  0  0  0
 15 14  1  0  0  0  0
 15 18  1  0  0  0  0
 17 19  1  0  0  0  0
 18 16  1  0  0  0  0
 18 19  2  0  0  0  0
 19  1  1  0  0  0  0
 20 22  1  0  0  0  0
 20 21  1  0  0  0  0
 23 20  1  0  0  0  0
 24 25  1  0  0  0  0
 24 14  1  0  0  0  0
 26 27  1  0  0  0  0
 27 25  1  0  0  0  0
 27 28  1  0  0  0  0
 29 32  2  0  0  0  0
 30 33  2  0  0  0  0
 31 29  1  0  0  0  0
 33 31  1  0  0  0  0
 34 29  1  0  0  0  0
 35 34  1  0  0  0  0
 36 35  1  0  0  0  0
 37 39  1  0  0  0  0
 38 37  2  0  0  0  0
 40 38  1  0  0  0  0
 40 42  2  0  0  0  0
 41 39  1  0  0  0  0
 41 36  1  0  0  0  0
 42 41  1  0  0  0  0
 43 45  2  0  0  0  0
 44 45  1  0  0  0  0
 44 46  1  0  0  0  0
 45 40  1  0  0  0  0
 46 47  1  0  0  0  0
 48 46  1  0  0  0  0
M  END
>  <MODEL>
5

>  <REMARK>
 VINA RESULT:      -6.8      3.597      8.579
  Name = 
  15 active torsions:
  status: ('A' for Active; 'I' for Inactive)
    1  A    between atoms: C_1  and  O_36
    2  A    between atoms: C_2  and  N_22
    3  A    between atoms: C_2  and  C_39
    4  A    between atoms: C_2  and  C_42
    5  A    between atoms: C_4  and  C_5
    6  A    between atoms: C_5  and  C_33
    7  A    between atoms: C_9  and  C_13
    8  A    between atoms: C_10  and  C_14
    9  A    between atoms: C_14  and  C_26
   10  A    between atoms: C_17  and  C_26
   11  A    between atoms: C_17  and  N_29
   12  A    between atoms: C_19  and  N_35
   13  A    between atoms: N_25  and  C_33
   14  A    between atoms: C_28  and  C_44
   15  A    between atoms: O_36  and  P_43
                            x       y       z     vdW  Elec       q    Type
                         _______ _______ _______ _____ _____    ______ ____

>  <TORSDO>
F 15

$$$$
=
 OpenBabel11032419523D

 48 51  0  0  1  0  0  0  0  0999 V2000
  189.0240  176.1950  137.7080 C   0  0  2  0  0  3  0  0  0  0  0  0
  192.7670  174.1860  135.7820 C   0  0  1  0  0  3  0  0  0  0  0  0
  191.5600  173.7990  136.6410 C   0  0  0  0  0  2  0  0  0  0  0  0
  189.1520  176.4940  135.3560 C   0  0  0  0  0  2  0  0  0  0  0  0
  191.6390  176.2870  134.9840 C   0  0  0  0  0  2  0  0  0  0  0  0
  189.8250  176.8000  136.6420 N   0  0  0  0  0  0  0  0  0  0  0  0
  192.8720  175.7100  135.6750 C   0  0  0  0  0  2  0  0  0  0  0  0
  190.2590  174.3060  136.0200 C   0  0  0  0  0  2  0  0  0  0  0  0
  190.3820  175.8030  135.6940 C   0  0  1  0  0  0  0  0  0  0  0  0
  193.9280  173.6750  136.3640 O   0  0  0  0  0  0  0  0  0  0  0  0
  195.1720  173.6120  138.7140 C   0  0  0  0  0  1  0  0  0  0  0  0
  195.8460  175.3260  136.7920 O   0  0  0  0  0  1  0  0  0  0  0  0
  194.3700  174.8420  137.5720 P   0  0  1  0  0  0  0  0  0  0  0  0
  185.4700  176.4430  137.0530 C   0  0  0  0  0  0  0  0  0  0  0  0
  185.6810  177.8920  137.3930 C   0  0  2  0  0  3  0  0  0  0  0  0
  187.9180  178.9290  138.0910 O   0  0  0  0  0  1  0  0  0  0  0  0
  186.5500  175.7340  137.1420 N   0  0  0  0  0  0  0  0  0  0  0  0
  187.1350  177.8390  137.7290 C   0  0  0  0  0  0  0  0  0  0  0  0
  187.5830  176.6040  137.5820 C   0  0  0  0  0  0  0  0  0  0  0  0
  184.8380  178.3470  138.5920 C   0  0  0  0  0  0  0  0  0  0  0  0
  184.0360  177.3000  139.0050 F   0  0  0  0  0  0  0  0  0  0  0  0
  185.6730  178.7010  139.6380 F   0  0  0  0  0  0  0  0  0  0  0  0
  184.0390  179.4310  138.2600 F   0  0  0  0  0  0  0  0  0  0  0  0
  184.1800  175.8730  136.5630 C   0  0  0  0  0  2  0  0  0  0  0  0
  184.3240  174.3730  136.3480 C   0  0  0  0  0  2  0  0  0  0  0  0
  182.4480  173.1800  137.0330 C   0  0  0  0  0  1  0  0  0  0  0  0
  183.0620  173.8200  135.8880 N   0  0  0  0  0  0  0  0  0  0  0  0
  183.3860  172.7640  134.9440 C   0  0  0  0  0  1  0  0  0  0  0  0
  191.5870  177.2860  140.4410 C   0  0  0  0  0  0  0  0  0  0  0  0
  188.7290  176.7670  140.0010 O   0  0  0  0  0  0  0  0  0  0  0  0
  190.9490  176.8710  139.2250 N   0  0  0  0  0  2  0  0  0  0  0  0
  192.8250  177.5130  140.4350 O   0  0  0  0  0  0  0  0  0  0  0  0
  189.5450  176.6160  139.0490 C   0  0  0  0  0  0  0  0  0  0  0  0
  190.8290  177.4370  141.7170 C   0  0  0  0  0  2  0  0  0  0  0  0
  191.7220  177.1150  142.9020 C   0  0  0  0  0  2  0  0  0  0  0  0
  191.6140  178.2110  143.9490 C   0  0  0  0  0  2  0  0  0  0  0  0
  190.8060  176.3720  147.1720 C   0  0  0  0  0  3  0  0  0  0  0  0
  189.4920  176.6010  147.2340 C   0  0  0  0  0  3  0  0  0  0  0  0
  191.6870  177.1190  146.2100 C   0  0  0  0  0  2  0  0  0  0  0  0
  188.8220  177.5430  146.3150 C   0  0  0  0  0  0  0  0  0  0  0  0
  190.9070  177.7290  145.1260 N   0  0  0  0  0  0  0  0  0  0  0  0
  189.5240  178.0670  145.3040 C   0  0  0  0  0  3  0  0  0  0  0  0
  187.0330  178.2690  147.6810 O   0  0  0  0  0  0  0  0  0  0  0  0
  186.4370  178.0120  145.4560 N   0  0  0  0  0  2  0  0  0  0  0  0
  187.4120  177.9600  146.5130 C   0  0  0  0  0  0  0  0  0  0  0  0
  186.6280  177.9220  144.0110 C   0  0  0  0  0  3  0  0  0  0  0  0
  185.3560  178.2460  143.2520 C   0  0  0  0  0  1  0  0  0  0  0  0
  187.2260  176.5900  143.5870 C   0  0  0  0  0  1  0  0  0  0  0  0
  1 33  1  1  0  0  0
  2 10  1  1  0  0  0
  2  3  1  0  0  0  0
  4  9  1  0  0  0  0
  4  6  1  0  0  0  0
  5  7  1  0  0  0  0
  6  1  1  0  0  0  0
  7  2  1  0  0  0  0
  8  3  1  0  0  0  0
  9  5  1  6  0  0  0
  9  8  1  0  0  0  0
  9  6  1  0  0  0  0
 10 13  1  0  0  0  0
 12 13  1  0  0  0  0
 13 11  1  1  0  0  0
 14 17  2  0  0  0  0
 14 15  1  0  0  0  0
 15 18  1  0  0  0  0
 15 20  1  1  0  0  0
 17 19  1  0  0  0  0
 18 16  1  0  0  0  0
 19  1  1  0  0  0  0
 19 18  2  0  0  0  0
 20 21  1  0  0  0  0
 20 22  1  0  0  0  0
 23 20  1  0  0  0  0
 24 14  1  0  0  0  0
 25 24  1  0  0  0  0
 27 25  1  0  0  0  0
 27 26  1  0  0  0  0
 28 27  1  0  0  0  0
 29 34  1  0  0  0  0
 31 29  1  0  0  0  0
 32 29  2  0  0  0  0
 33 31  1  0  0  0  0
 33 30  2  0  0  0  0
 34 35  1  0  0  0  0
 35 36  1  0  0  0  0
 36 41  1  0  0  0  0
 37 38  2  0  0  0  0
 39 37  1  0  0  0  0
 40 45  1  0  0  0  0
 40 38  1  0  0  0  0
 41 42  1  0  0  0  0
 41 39  1  0  0  0  0
 42 40  2  0  0  0  0
 44 45  1  0  0  0  0
 45 43  2  0  0  0  0
 46 44  1  0  0  0  0
 47 46  1  0  0  0  0
 48 46  1  0  0  0  0
M  END
>  <MODEL>
6

>  <REMARK>
 VINA RESULT:      -6.7      3.367      5.484
  Name = 
  15 active torsions:
  status: ('A' for Active; 'I' for Inactive)
    1  A    between atoms: C_1  and  O_36
    2  A    between atoms: C_2  and  N_22
    3  A    between atoms: C_2  and  C_39
    4  A    between atoms: C_2  and  C_42
    5  A    between atoms: C_4  and  C_5
    6  A    between atoms: C_5  and  C_33
    7  A    between atoms: C_9  and  C_13
    8  A    between atoms: C_10  and  C_14
    9  A    between atoms: C_14  and  C_26
   10  A    between atoms: C_17  and  C_26
   11  A    between atoms: C_17  and  N_29
   12  A    between atoms: C_19  and  N_35
   13  A    between atoms: N_25  and  C_33
   14  A    between atoms: C_28  and  C_44
   15  A    between atoms: O_36  and  P_43
                            x       y       z     vdW  Elec       q    Type
                         _______ _______ _______ _____ _____    ______ ____

>  <TORSDO>
F 15

$$$$
=
 OpenBabel11032419523D

 48 51  0  0  1  0  0  0  0  0999 V2000
  184.9750  178.0770  139.0600 C   0  0  2  0  0  3  0  0  0  0  0  0
  189.4310  177.4230  137.8480 C   0  0  1  0  0  3  0  0  0  0  0  0
  188.2820  176.6440  138.4920 C   0  0  0  0  0  2  0  0  0  0  0  0
  185.3980  178.4880  136.7600 C   0  0  0  0  0  2  0  0  0  0  0  0
  187.8480  179.0890  136.8270 C   0  0  0  0  0  2  0  0  0  0  0  0
  185.7120  178.9420  138.1370 N   0  0  0  0  0  0  0  0  0  0  0  0
  189.0640  178.9050  137.7310 C   0  0  0  0  0  2  0  0  0  0  0  0
  187.0130  176.7370  137.6460 C   0  0  0  0  0  2  0  0  0  0  0  0
  186.7090  178.2080  137.3190 C   0  0  1  0  0  0  0  0  0  0  0  0
  190.5780  177.2830  138.6310 O   0  0  0  0  0  0  0  0  0  0  0  0
  193.1700  176.6920  138.7150 C   0  0  0  0  0  1  0  0  0  0  0  0
  191.2970  174.8350  138.3430 O   0  0  0  0  0  1  0  0  0  0  0  0
  191.6830  176.3790  137.6420 P   0  0  1  0  0  0  0  0  0  0  0  0
  181.5420  177.3870  138.1330 C   0  0  0  0  0  0  0  0  0  0  0  0
  181.4040  178.8820  138.1930 C   0  0  2  0  0  3  0  0  0  0  0  0
  183.2820  180.5090  138.8180 O   0  0  0  0  0  1  0  0  0  0  0  0
  182.7310  176.9700  138.4330 N   0  0  0  0  0  0  0  0  0  0  0  0
  182.7910  179.2240  138.6290 C   0  0  0  0  0  0  0  0  0  0  0  0
  183.5030  178.1170  138.7590 C   0  0  0  0  0  0  0  0  0  0  0  0
  180.3590  179.3400  139.2190 C   0  0  0  0  0  0  0  0  0  0  0  0
  180.6860  178.8260  140.4590 F   0  0  0  0  0  0  0  0  0  0  0  0
  180.3620  180.7210  139.2990 F   0  0  0  0  0  0  0  0  0  0  0  0
  179.0880  178.9060  138.8660 F   0  0  0  0  0  0  0  0  0  0  0  0
  180.4630  176.4600  137.6810 C   0  0  0  0  0  2  0  0  0  0  0  0
  180.5650  176.2380  136.1780 C   0  0  0  0  0  2  0  0  0  0  0  0
  180.3190  174.1310  137.1310 C   0  0  0  0  0  1  0  0  0  0  0  0
  180.6400  174.8160  135.8960 N   0  0  0  0  0  0  0  0  0  0  0  0
  182.0310  174.5180  135.6040 C   0  0  0  0  0  1  0  0  0  0  0  0
  184.2170  178.7950  142.8200 C   0  0  0  0  0  0  0  0  0  0  0  0
  186.3510  178.9300  140.8060 O   0  0  0  0  0  0  0  0  0  0  0  0
  184.1400  178.4240  141.4370 N   0  0  0  0  0  2  0  0  0  0  0  0
  183.2110  178.6210  143.5560 O   0  0  0  0  0  0  0  0  0  0  0  0
  185.2060  178.5140  140.4750 C   0  0  0  0  0  0  0  0  0  0  0  0
  185.4480  179.4000  143.4080 C   0  0  0  0  0  2  0  0  0  0  0  0
  185.5380  179.0780  144.8890 C   0  0  0  0  0  2  0  0  0  0  0  0
  186.0770  177.6710  145.0840 C   0  0  0  0  0  2  0  0  0  0  0  0
  189.1220  177.5450  147.3490 C   0  0  0  0  0  3  0  0  0  0  0  0
  190.0420  178.0270  146.5110 C   0  0  0  0  0  3  0  0  0  0  0  0
  187.7620  177.1250  146.8640 C   0  0  0  0  0  2  0  0  0  0  0  0
  189.7530  178.2430  145.0790 C   0  0  0  0  0  0  0  0  0  0  0  0
  187.4530  177.7080  145.5530 N   0  0  0  0  0  0  0  0  0  0  0  0
  188.4970  178.0890  144.6450 C   0  0  0  0  0  3  0  0  0  0  0  0
  191.1930  179.7810  144.0060 O   0  0  0  0  0  0  0  0  0  0  0  0
  191.4540  177.6060  143.2490 N   0  0  0  0  0  2  0  0  0  0  0  0
  190.8230  178.5750  144.1060 C   0  0  0  0  0  0  0  0  0  0  0  0
  191.3890  176.1470  143.2900 C   0  0  0  0  0  3  0  0  0  0  0  0
  190.0350  175.6300  142.8440 C   0  0  0  0  0  1  0  0  0  0  0  0
  191.8010  175.5870  144.6430 C   0  0  0  0  0  1  0  0  0  0  0  0
  1 33  1  1  0  0  0
  2  3  1  0  0  0  0
  2 10  1  1  0  0  0
  4  6  1  0  0  0  0
  5  9  1  0  0  0  0
  5  7  1  0  0  0  0
  6  1  1  0  0  0  0
  7  2  1  0  0  0  0
  8  3  1  0  0  0  0
  9  4  1  6  0  0  0
  9  8  1  0  0  0  0
  9  6  1  0  0  0  0
 13 12  1  0  0  0  0
 13 10  1  0  0  0  0
 13 11  1  1  0  0  0
 14 15  1  0  0  0  0
 14 17  2  0  0  0  0
 15 18  1  0  0  0  0
 15 20  1  1  0  0  0
 17 19  1  0  0  0  0
 18 19  2  0  0  0  0
 18 16  1  0  0  0  0
 19  1  1  0  0  0  0
 20 22  1  0  0  0  0
 20 21  1  0  0  0  0
 23 20  1  0  0  0  0
 24 14  1  0  0  0  0
 25 24  1  0  0  0  0
 27 25  1  0  0  0  0
 27 26  1  0  0  0  0
 28 27  1  0  0  0  0
 29 34  1  0  0  0  0
 29 32  2  0  0  0  0
 31 29  1  0  0  0  0
 33 30  2  0  0  0  0
 33 31  1  0  0  0  0
 34 35  1  0  0  0  0
 35 36  1  0  0  0  0
 36 41  1  0  0  0  0
 38 37  2  0  0  0  0
 39 37  1  0  0  0  0
 40 38  1  0  0  0  0
 41 39  1  0  0  0  0
 42 40  2  0  0  0  0
 42 41  1  0  0  0  0
 43 45  2  0  0  0  0
 44 46  1  0  0  0  0
 44 45  1  0  0  0  0
 45 40  1  0  0  0  0
 46 48  1  0  0  0  0
 47 46  1  0  0  0  0
M  END
>  <MODEL>
7

>  <REMARK>
 VINA RESULT:      -6.5      2.078      3.094
  Name = 
  15 active torsions:
  status: ('A' for Active; 'I' for Inactive)
    1  A    between atoms: C_1  and  O_36
    2  A    between atoms: C_2  and  N_22
    3  A    between atoms: C_2  and  C_39
    4  A    between atoms: C_2  and  C_42
    5  A    between atoms: C_4  and  C_5
    6  A    between atoms: C_5  and  C_33
    7  A    between atoms: C_9  and  C_13
    8  A    between atoms: C_10  and  C_14
    9  A    between atoms: C_14  and  C_26
   10  A    between atoms: C_17  and  C_26
   11  A    between atoms: C_17  and  N_29
   12  A    between atoms: C_19  and  N_35
   13  A    between atoms: N_25  and  C_33
   14  A    between atoms: C_28  and  C_44
   15  A    between atoms: O_36  and  P_43
                            x       y       z     vdW  Elec       q    Type
                         _______ _______ _______ _____ _____    ______ ____

>  <TORSDO>
F 15

$$$$
=
 OpenBabel11032419523D

 48 51  0  0  1  0  0  0  0  0999 V2000
  186.6460  176.5960  137.0330 C   0  0  2  0  0  3  0  0  0  0  0  0
  182.8680  174.7210  135.0420 C   0  0  1  0  0  3  0  0  0  0  0  0
  183.7780  175.9410  134.8760 C   0  0  0  0  0  2  0  0  0  0  0  0
  186.9800  174.3680  136.2840 C   0  0  0  0  0  2  0  0  0  0  0  0
  184.6190  173.4820  136.3550 C   0  0  0  0  0  2  0  0  0  0  0  0
  186.2120  175.2110  137.2320 N   0  0  0  0  0  0  0  0  0  0  0  0
  183.1840  174.0020  136.3570 C   0  0  0  0  0  2  0  0  0  0  0  0
  185.2480  175.5270  134.8310 C   0  0  0  0  0  2  0  0  0  0  0  0
  185.5740  174.6210  136.0300 C   0  0  1  0  0  0  0  0  0  0  0  0
  181.5360  175.1380  135.0420 O   0  0  0  0  0  0  0  0  0  0  0  0
  180.3610  177.5210  134.9210 C   0  0  0  0  0  1  0  0  0  0  0  0
  180.2830  176.0040  137.1080 O   0  0  0  0  0  1  0  0  0  0  0  0
  181.5180  176.5690  136.0240 P   0  0  1  0  0  0  0  0  0  0  0  0
  189.8190  177.1710  138.6820 C   0  0  0  0  0  0  0  0  0  0  0  0
  190.3610  177.1370  137.2800 C   0  0  2  0  0  3  0  0  0  0  0  0
  188.9610  176.7370  135.1720 O   0  0  0  0  0  1  0  0  0  0  0  0
  188.5410  176.9760  138.7410 N   0  0  0  0  0  0  0  0  0  0  0  0
  189.0910  176.8450  136.5510 C   0  0  0  0  0  0  0  0  0  0  0  0
  188.0920  176.7550  137.4120 C   0  0  0  0  0  0  0  0  0  0  0  0
  191.4010  176.0270  137.0740 C   0  0  0  0  0  0  0  0  0  0  0  0
  190.7480  174.8360  136.8210 F   0  0  0  0  0  0  0  0  0  0  0  0
  192.1960  176.3350  135.9840 F   0  0  0  0  0  0  0  0  0  0  0  0
  192.2040  175.8790  138.1970 F   0  0  0  0  0  0  0  0  0  0  0  0
  190.6340  177.4940  139.8910 C   0  0  0  0  0  2  0  0  0  0  0  0
  190.0780  176.7580  141.1030 C   0  0  0  0  0  2  0  0  0  0  0  0
  190.6130  175.6240  143.0610 C   0  0  0  0  0  1  0  0  0  0  0  0
  191.1340  176.5500  142.0770 N   0  0  0  0  0  0  0  0  0  0  0  0
  191.3310  177.8160  142.7610 C   0  0  0  0  0  1  0  0  0  0  0  0
  183.6610  177.8390  139.2160 C   0  0  0  0  0  0  0  0  0  0  0  0
  186.2370  178.6910  138.0900 O   0  0  0  0  0  0  0  0  0  0  0  0
  184.5580  177.0700  138.4040 N   0  0  0  0  0  2  0  0  0  0  0  0
  182.6160  177.2930  139.6580 O   0  0  0  0  0  0  0  0  0  0  0  0
  185.8100  177.5240  137.8600 C   0  0  0  0  0  0  0  0  0  0  0  0
  183.9180  179.2730  139.5360 C   0  0  0  0  0  2  0  0  0  0  0  0
  184.8080  179.3890  140.7610 C   0  0  0  0  0  2  0  0  0  0  0  0
  184.3250  178.4410  141.8460 C   0  0  0  0  0  2  0  0  0  0  0  0
  187.6340  177.4110  143.3990 C   0  0  0  0  0  3  0  0  0  0  0  0
  187.3040  177.4800  144.6910 C   0  0  0  0  0  3  0  0  0  0  0  0
  186.7480  177.9890  142.3310 C   0  0  0  0  0  2  0  0  0  0  0  0
  186.0210  178.0600  145.1350 C   0  0  0  0  0  0  0  0  0  0  0  0
  185.3780  178.1940  142.8190 N   0  0  0  0  0  0  0  0  0  0  0  0
  185.1080  178.3890  144.2150 C   0  0  0  0  0  3  0  0  0  0  0  0
  184.5550  178.6220  146.9040 O   0  0  0  0  0  0  0  0  0  0  0  0
  186.7430  178.3070  147.5980 N   0  0  0  0  0  2  0  0  0  0  0  0
  185.7400  178.3320  146.5670 C   0  0  0  0  0  0  0  0  0  0  0  0
  188.1150  177.8080  147.5480 C   0  0  0  0  0  3  0  0  0  0  0  0
  188.1900  176.3300  147.8780 C   0  0  0  0  0  1  0  0  0  0  0  0
  189.0650  178.6360  148.3990 C   0  0  0  0  0  1  0  0  0  0  0  0
  1  6  1  0  0  0  0
  1 19  1  0  0  0  0
  1 33  1  1  0  0  0
  2 10  1  1  0  0  0
  2  7  1  0  0  0  0
  3  2  1  0  0  0  0
  4  6  1  0  0  0  0
  5  7  1  0  0  0  0
  8  3  1  0  0  0  0
  9  8  1  6  0  0  0
  9  4  1  0  0  0  0
  9  5  1  0  0  0  0
  9  6  1  0  0  0  0
 10 13  1  0  0  0  0
 13 11  1  6  0  0  0
 13 12  1  0  0  0  0
 14 17  2  0  0  0  0
 14 24  1  0  0  0  0
 15 20  1  1  0  0  0
 15 14  1  0  0  0  0
 16 18  1  0  0  0  0
 18 15  1  0  0  0  0
 18 19  2  0  0  0  0
 19 17  1  0  0  0  0
 20 23  1  0  0  0  0
 21 20  1  0  0  0  0
 22 20  1  0  0  0  0
 24 25  1  0  0  0  0
 25 27  1  0  0  0  0
 27 28  1  0  0  0  0
 27 26  1  0  0  0  0
 29 34  1  0  0  0  0
 29 32  2  0  0  0  0
 31 29  1  0  0  0  0
 33 30  2  0  0  0  0
 33 31  1  0  0  0  0
 34 35  1  0  0  0  0
 35 36  1  0  0  0  0
 36 41  1  0  0  0  0
 37 38  2  0  0  0  0
 38 40  1  0  0  0  0
 39 41  1  0  0  0  0
 39 37  1  0  0  0  0
 40 45  1  0  0  0  0
 41 42  1  0  0  0  0
 42 40  2  0  0  0  0
 45 43  2  0  0  0  0
 45 44  1  0  0  0  0
 46 44  1  0  0  0  0
 46 47  1  0  0  0  0
 46 48  1  0  0  0  0
M  END
>  <MODEL>
8

>  <REMARK>
 VINA RESULT:      -6.4      4.136      7.637
  Name = 
  15 active torsions:
  status: ('A' for Active; 'I' for Inactive)
    1  A    between atoms: C_1  and  O_36
    2  A    between atoms: C_2  and  N_22
    3  A    between atoms: C_2  and  C_39
    4  A    between atoms: C_2  and  C_42
    5  A    between atoms: C_4  and  C_5
    6  A    between atoms: C_5  and  C_33
    7  A    between atoms: C_9  and  C_13
    8  A    between atoms: C_10  and  C_14
    9  A    between atoms: C_14  and  C_26
   10  A    between atoms: C_17  and  C_26
   11  A    between atoms: C_17  and  N_29
   12  A    between atoms: C_19  and  N_35
   13  A    between atoms: N_25  and  C_33
   14  A    between atoms: C_28  and  C_44
   15  A    between atoms: O_36  and  P_43
                            x       y       z     vdW  Elec       q    Type
                         _______ _______ _______ _____ _____    ______ ____

>  <TORSDO>
F 15

$$$$
=
 OpenBabel11032419523D

 48 51  0  0  1  0  0  0  0  0999 V2000
  188.7500  177.2200  140.4960 C   0  0  2  0  0  3  0  0  0  0  0  0
  190.7320  177.6630  144.6950 C   0  0  1  0  0  3  0  0  0  0  0  0
  189.6670  176.8080  144.0030 C   0  0  0  0  0  2  0  0  0  0  0  0
  191.1120  176.9870  140.4550 C   0  0  0  0  0  2  0  0  0  0  0  0
  191.7580  178.3230  142.4960 C   0  0  0  0  0  2  0  0  0  0  0  0
  190.0060  177.9320  140.7430 N   0  0  0  0  0  0  0  0  0  0  0  0
  191.1370  178.8330  143.7940 C   0  0  0  0  0  2  0  0  0  0  0  0
  190.1980  176.2190  142.6980 C   0  0  0  0  0  2  0  0  0  0  0  0
  190.8130  177.3310  141.8330 C   0  0  1  0  0  0  0  0  0  0  0  0
  190.2200  178.1510  145.8980 O   0  0  0  0  0  0  0  0  0  0  0  0
  191.4750  176.3840  147.4400 C   0  0  0  0  0  1  0  0  0  0  0  0
  189.2350  177.6030  148.2050 O   0  0  0  0  0  1  0  0  0  0  0  0
  189.7660  176.7350  146.7950 P   0  0  1  0  0  0  0  0  0  0  0  0
  188.0970  176.1590  137.0950 C   0  0  0  0  0  0  0  0  0  0  0  0
  188.4360  177.5860  136.7660 C   0  0  2  0  0  3  0  0  0  0  0  0
  189.0590  179.3840  138.4810 O   0  0  0  0  0  1  0  0  0  0  0  0
  188.1470  175.9010  138.3630 N   0  0  0  0  0  0  0  0  0  0  0  0
  188.6650  178.0940  138.1510 C   0  0  0  0  0  0  0  0  0  0  0  0
  188.4840  177.1140  139.0210 C   0  0  0  0  0  0  0  0  0  0  0  0
  187.2820  178.3250  136.0740 C   0  0  0  0  0  0  0  0  0  0  0  0
  187.3270  179.6610  136.4210 F   0  0  0  0  0  0  0  0  0  0  0  0
  187.4220  178.2210  134.7010 F   0  0  0  0  0  0  0  0  0  0  0  0
  186.0540  177.7970  136.4480 F   0  0  0  0  0  0  0  0  0  0  0  0
  187.8220  175.1030  136.0760 C   0  0  0  0  0  2  0  0  0  0  0  0
  186.9530  174.0110  136.6830 C   0  0  0  0  0  2  0  0  0  0  0  0
  184.8910  173.4960  137.6290 C   0  0  0  0  0  1  0  0  0  0  0  0
  185.6030  174.5090  136.8760 N   0  0  0  0  0  0  0  0  0  0  0  0
  184.9830  174.5650  135.5640 C   0  0  0  0  0  1  0  0  0  0  0  0
  186.2240  178.2500  143.2870 C   0  0  0  0  0  0  0  0  0  0  0  0
  186.9780  178.8110  140.5030 O   0  0  0  0  0  0  0  0  0  0  0  0
  187.2760  177.6420  142.5250 N   0  0  0  0  0  2  0  0  0  0  0  0
  186.0740  177.9220  144.4920 O   0  0  0  0  0  0  0  0  0  0  0  0
  187.6110  177.9350  141.1570 C   0  0  0  0  0  0  0  0  0  0  0  0
  185.2890  179.2450  142.6860 C   0  0  0  0  0  2  0  0  0  0  0  0
  184.0050  178.5640  142.2450 C   0  0  0  0  0  2  0  0  0  0  0  0
  182.8600  178.9710  143.1580 C   0  0  0  0  0  2  0  0  0  0  0  0
  179.1430  178.6680  142.4480 C   0  0  0  0  0  3  0  0  0  0  0  0
  179.1840  178.4790  141.1270 C   0  0  0  0  0  3  0  0  0  0  0  0
  180.3540  179.1220  143.2130 C   0  0  0  0  0  2  0  0  0  0  0  0
  180.4340  178.6330  140.3580 C   0  0  0  0  0  0  0  0  0  0  0  0
  181.5900  178.8900  142.4550 N   0  0  0  0  0  0  0  0  0  0  0  0
  181.5800  178.8240  141.0210 C   0  0  0  0  0  3  0  0  0  0  0  0
  179.8990  179.5990  138.2670 O   0  0  0  0  0  0  0  0  0  0  0  0
  181.0240  177.5830  138.0780 N   0  0  0  0  0  2  0  0  0  0  0  0
  180.4450  178.6330  138.8740 C   0  0  0  0  0  0  0  0  0  0  0  0
  181.8900  176.4790  138.4850 C   0  0  0  0  0  3  0  0  0  0  0  0
  183.3580  176.8360  138.3550 C   0  0  0  0  0  1  0  0  0  0  0  0
  181.5490  175.1810  137.7700 C   0  0  0  0  0  1  0  0  0  0  0  0
  1  6  1  0  0  0  0
  1 33  1  1  0  0  0
  2 10  1  1  0  0  0
  3  2  1  0  0  0  0
  4  6  1  0  0  0  0
  5  7  1  0  0  0  0
  6  9  1  0  0  0  0
  7  2  1  0  0  0  0
  8  3  1  0  0  0  0
  9  4  1  6  0  0  0
  9  5  1  0  0  0  0
  9  8  1  0  0  0  0
 10 13  1  0  0  0  0
 13 11  1  1  0  0  0
 13 12  1  0  0  0  0
 14 17  2  0  0  0  0
 15 20  1  1  0  0  0
 15 14  1  0  0  0  0
 15 18  1  0  0  0  0
 17 19  1  0  0  0  0
 18 16  1  0  0  0  0
 18 19  2  0  0  0  0
 19  1  1  0  0  0  0
 20 21  1  0  0  0  0
 20 23  1  0  0  0  0
 22 20  1  0  0  0  0
 24 25  1  0  0  0  0
 24 14  1  0  0  0  0
 25 27  1  0  0  0  0
 27 26  1  0  0  0  0
 28 27  1  0  0  0  0
 29 32  2  0  0  0  0
 30 33  2  0  0  0  0
 31 29  1  0  0  0  0
 33 31  1  0  0  0  0
 34 29  1  0  0  0  0
 35 34  1  0  0  0  0
 35 36  1  0  0  0  0
 37 39  1  0  0  0  0
 38 37  2  0  0  0  0
 40 42  2  0  0  0  0
 40 38  1  0  0  0  0
 41 36  1  0  0  0  0
 41 39  1  0  0  0  0
 42 41  1  0  0  0  0
 43 45  2  0  0  0  0
 44 46  1  0  0  0  0
 44 45  1  0  0  0  0
 45 40  1  0  0  0  0
 47 46  1  0  0  0  0
 48 46  1  0  0  0  0
M  END
>  <MODEL>
9

>  <REMARK>
 VINA RESULT:      -6.4      3.374      8.114
  Name = 
  15 active torsions:
  status: ('A' for Active; 'I' for Inactive)
    1  A    between atoms: C_1  and  O_36
    2  A    between atoms: C_2  and  N_22
    3  A    between atoms: C_2  and  C_39
    4  A    between atoms: C_2  and  C_42
    5  A    between atoms: C_4  and  C_5
    6  A    between atoms: C_5  and  C_33
    7  A    between atoms: C_9  and  C_13
    8  A    between atoms: C_10  and  C_14
    9  A    between atoms: C_14  and  C_26
   10  A    between atoms: C_17  and  C_26
   11  A    between atoms: C_17  and  N_29
   12  A    between atoms: C_19  and  N_35
   13  A    between atoms: N_25  and  C_33
   14  A    between atoms: C_28  and  C_44
   15  A    between atoms: O_36  and  P_43
                            x       y       z     vdW  Elec       q    Type
                         _______ _______ _______ _____ _____    ______ ____

>  <TORSDO>
F 15

$$$$
