=
 OpenBabel11042412103D

 37 43  0  0  1  0  0  0  0  0999 V2000
  188.7170  175.8090  136.8090 N   0  0  0  0  0  0  0  0  0  0  0  0
  192.8370  174.1150  136.8970 C   0  0  0  0  0  3  0  0  0  0  0  0
  187.0670  175.1870  134.8430 C   0  0  1  0  0  3  0  0  0  0  0  0
  191.1610  175.0170  138.3700 N   0  0  0  0  0  2  0  0  0  0  0  0
  190.1530  176.3550  139.9590 O   0  0  0  0  0  0  0  0  0  0  0  0
  188.2950  174.4110  135.0050 N   0  0  0  0  0  2  0  0  0  0  0  0
  190.2040  176.0050  138.7490 C   0  0  0  0  0  0  0  0  0  0  0  0
  188.6160  177.8360  138.0850 C   0  0  0  0  0  0  0  0  0  0  0  0
  184.6320  175.4360  134.6480 N   0  0  0  0  0  0  0  0  0  0  0  0
  190.6270  174.5190  135.9640 C   0  0  0  0  0  0  0  0  0  0  0  0
  185.7510  174.4830  134.5940 C   0  0  2  0  0  3  0  0  0  0  0  0
  193.2790  173.6130  135.6730 C   0  0  0  0  0  0  0  0  0  0  0  0
  186.1510  174.8100  136.0080 C   0  0  2  0  0  0  0  0  0  0  0  0
  186.2410  177.2630  137.5630 C   0  0  2  0  0  3  0  0  0  0  0  0
  191.5260  174.5840  137.0570 C   0  0  0  0  0  0  0  0  0  0  0  0
  189.2760  178.8300  138.6770 C   0  0  0  0  0  2  0  0  0  0  0  0
  192.4020  173.5490  134.5940 C   0  0  0  0  0  3  0  0  0  0  0  0
  189.2010  174.9020  136.0150 C   0  0  0  0  0  0  0  0  0  0  0  0
  184.9270  175.6830  136.0620 C   0  0  1  0  0  3  0  0  0  0  0  0
  191.0880  173.9920  134.7430 C   0  0  0  0  0  3  0  0  0  0  0  0
  187.3500  178.1950  137.3050 C   0  0  1  0  0  3  0  0  0  0  0  0
  189.3090  176.5940  137.7990 N   0  0  0  0  0  0  0  0  0  0  0  0
  194.9330  173.0620  135.4930 Cl  0  0  0  0  0  0  0  0  0  0  0  0
  183.4070  174.6550  134.5980 C   0  0  0  0  0  1  0  0  0  0  0  0
  185.3380  177.1480  136.3220 C   0  0  0  0  0  2  0  0  0  0  0  0
  186.1750  178.6210  138.1190 N   0  0  0  0  0  0  0  0  0  0  0  0
  186.4290  178.4870  139.4960 N   0  0  0  0  0  2  0  0  0  0  0  0
  185.8320  178.8910  141.8510 N   0  0  0  0  0  2  0  0  0  0  0  0
  185.5570  179.0690  140.4620 C   0  0  0  0  0  0  0  0  0  0  0  0
  184.5610  179.7480  140.0900 O   0  0  0  0  0  0  0  0  0  0  0  0
  183.9820  178.3630  143.3230 C   0  0  0  0  0  2  0  0  0  0  0  0
  185.1900  178.6880  144.1790 C   0  0  0  0  0  2  0  0  0  0  0  0
  184.9570  179.4340  142.8780 C   0  0  0  0  0  3  0  0  0  0  0  0
  186.2020  173.4450  136.7150 C   0  0  0  0  0  2  0  0  0  0  0  0
  185.1330  173.2800  137.7910 C   0  0  0  0  0  2  0  0  0  0  0  0
  184.5800  171.5080  136.3750 C   0  0  0  0  0  1  0  0  0  0  0  0
  184.0150  172.4930  137.2850 N   0  0  0  0  0  2  0  0  0  0  0  0
  1 22  1  0  0  0  0
  2 15  1  0  0  0  0
  3  6  1  1  0  0  0
  3 13  1  0  0  0  0
  4  7  1  0  0  0  0
  6 18  1  0  0  0  0
  7  5  2  0  0  0  0
  8 16  2  0  0  0  0
  9 19  1  0  0  0  0
 10 18  1  0  0  0  0
 10 15  2  0  0  0  0
 11  9  1  6  0  0  0
 11  3  1  0  0  0  0
 11 13  1  0  0  0  0
 12  2  2  0  0  0  0
 13 19  1  0  0  0  0
 13 34  1  1  0  0  0
 14 25  1  6  0  0  0
 14 26  1  0  0  0  0
 15  4  1  0  0  0  0
 17 20  2  0  0  0  0
 17 12  1  0  0  0  0
 18  1  2  0  0  0  0
 19 25  1  6  0  0  0
 20 10  1  0  0  0  0
 21 14  1  0  0  0  0
 21  8  1  1  0  0  0
 21 26  1  0  0  0  0
 22  8  1  0  0  0  0
 22  7  1  0  0  0  0
 23 12  1  0  0  0  0
 24  9  1  0  0  0  0
 26 27  1  0  0  0  0
 27 29  1  0  0  0  0
 28 33  1  0  0  0  0
 29 28  1  0  0  0  0
 30 29  2  0  0  0  0
 31 32  1  0  0  0  0
 33 31  1  0  0  0  0
 33 32  1  0  0  0  0
 34 35  1  0  0  0  0
 36 37  1  0  0  0  0
 37 35  1  0  0  0  0
M  END
>  <MODEL>
1

>  <REMARK>
 VINA RESULT:      -7.3      0.000      0.000
  Name = 
  5 active torsions:
  status: ('A' for Active; 'I' for Inactive)
    1  A    between atoms: N_1  and  N_37
    2  A    between atoms: N_3  and  C_27
    3  A    between atoms: C_10  and  C_23
    4  A    between atoms: C_10  and  N_24
    5  A    between atoms: C_19  and  C_23
                            x       y       z     vdW  Elec       q    Type
                         _______ _______ _______ _____ _____    ______ ____

>  <TORSDO>
F 5

$$$$
=
 OpenBabel11042412103D

 37 43  0  0  1  0  0  0  0  0999 V2000
  188.9730  176.7130  137.3730 N   0  0  0  0  0  0  0  0  0  0  0  0
  193.2390  175.4940  136.9560 C   0  0  0  0  0  3  0  0  0  0  0  0
  187.3770  176.6990  135.2680 C   0  0  1  0  0  3  0  0  0  0  0  0
  191.4940  175.6380  138.6080 N   0  0  0  0  0  2  0  0  0  0  0  0
  190.3720  176.2040  140.5450 O   0  0  0  0  0  0  0  0  0  0  0  0
  188.6760  176.0360  135.1720 N   0  0  0  0  0  2  0  0  0  0  0  0
  190.4490  176.3250  139.2920 C   0  0  0  0  0  0  0  0  0  0  0  0
  188.6860  178.1160  139.2940 C   0  0  0  0  0  0  0  0  0  0  0  0
  184.9290  176.7740  135.1070 N   0  0  0  0  0  0  0  0  0  0  0  0
  190.9930  176.0030  136.1710 C   0  0  0  0  0  0  0  0  0  0  0  0
  186.1350  176.0150  134.7420 C   0  0  2  0  0  3  0  0  0  0  0  0
  193.7190  175.5170  135.6470 C   0  0  0  0  0  0  0  0  0  0  0  0
  186.5110  175.8400  136.1900 C   0  0  2  0  0  0  0  0  0  0  0  0
  186.3730  177.5540  138.5310 C   0  0  2  0  0  3  0  0  0  0  0  0
  191.8900  175.7490  137.2390 C   0  0  0  0  0  0  0  0  0  0  0  0
  189.2500  178.8830  140.2260 C   0  0  0  0  0  2  0  0  0  0  0  0
  192.8440  175.7690  134.5940 C   0  0  0  0  0  3  0  0  0  0  0  0
  189.5370  176.2060  136.3170 C   0  0  0  0  0  0  0  0  0  0  0  0
  185.2080  176.5150  136.5220 C   0  0  1  0  0  3  0  0  0  0  0  0
  191.4950  176.0030  134.8560 C   0  0  0  0  0  3  0  0  0  0  0  0
  187.3850  178.6150  138.6620 C   0  0  1  0  0  3  0  0  0  0  0  0
  189.4930  177.1350  138.5960 N   0  0  0  0  0  0  0  0  0  0  0  0
  195.4170  175.2260  135.3270 Cl  0  0  0  0  0  0  0  0  0  0  0  0
  183.7850  175.9550  134.7420 C   0  0  0  0  0  1  0  0  0  0  0  0
  185.4770  177.8160  137.3080 C   0  0  0  0  0  2  0  0  0  0  0  0
  186.1800  178.6040  139.5420 N   0  0  0  0  0  0  0  0  0  0  0  0
  186.4560  178.0020  140.7820 N   0  0  0  0  0  2  0  0  0  0  0  0
  186.3310  177.9690  143.2420 N   0  0  0  0  0  2  0  0  0  0  0  0
  186.0570  178.6210  142.0020 C   0  0  0  0  0  0  0  0  0  0  0  0
  185.4810  179.7430  141.9860 O   0  0  0  0  0  0  0  0  0  0  0  0
  185.7560  177.4310  145.5330 C   0  0  0  0  0  2  0  0  0  0  0  0
  186.9990  178.2980  145.5480 C   0  0  0  0  0  2  0  0  0  0  0  0
  185.9150  178.5400  144.5130 C   0  0  0  0  0  3  0  0  0  0  0  0
  186.6990  174.3230  136.3530 C   0  0  0  0  0  2  0  0  0  0  0  0
  185.5900  173.6590  137.1640 C   0  0  0  0  0  2  0  0  0  0  0  0
  183.7240  172.2570  137.1240 C   0  0  0  0  0  1  0  0  0  0  0  0
  184.8910  172.6660  136.3580 N   0  0  0  0  0  2  0  0  0  0  0  0
  1 22  1  0  0  0  0
  2 15  1  0  0  0  0
  3  6  1  6  0  0  0
  3 13  1  0  0  0  0
  4  7  1  0  0  0  0
  6 18  1  0  0  0  0
  7  5  2  0  0  0  0
  8 16  2  0  0  0  0
  9 19  1  0  0  0  0
 10 18  1  0  0  0  0
 10 15  2  0  0  0  0
 11  9  1  1  0  0  0
 11  3  1  0  0  0  0
 11 13  1  0  0  0  0
 12  2  2  0  0  0  0
 13 34  1  1  0  0  0
 13 19  1  0  0  0  0
 14 25  1  6  0  0  0
 14 21  1  0  0  0  0
 14 26  1  0  0  0  0
 15  4  1  0  0  0  0
 17 20  2  0  0  0  0
 17 12  1  0  0  0  0
 18  1  2  0  0  0  0
 19 25  1  1  0  0  0
 20 10  1  0  0  0  0
 21  8  1  1  0  0  0
 21 26  1  0  0  0  0
 22  7  1  0  0  0  0
 22  8  1  0  0  0  0
 23 12  1  0  0  0  0
 24  9  1  0  0  0  0
 26 27  1  0  0  0  0
 27 29  1  0  0  0  0
 28 33  1  0  0  0  0
 29 28  1  0  0  0  0
 30 29  2  0  0  0  0
 31 32  1  0  0  0  0
 33 31  1  0  0  0  0
 33 32  1  0  0  0  0
 34 35  1  0  0  0  0
 37 36  1  0  0  0  0
 37 35  1  0  0  0  0
M  END
>  <MODEL>
2

>  <REMARK>
 VINA RESULT:      -5.5      1.427      1.562
  Name = 
  5 active torsions:
  status: ('A' for Active; 'I' for Inactive)
    1  A    between atoms: N_1  and  N_37
    2  A    between atoms: N_3  and  C_27
    3  A    between atoms: C_10  and  C_23
    4  A    between atoms: C_10  and  N_24
    5  A    between atoms: C_19  and  C_23
                            x       y       z     vdW  Elec       q    Type
                         _______ _______ _______ _____ _____    ______ ____

>  <TORSDO>
F 5

$$$$
=
 OpenBabel11042412103D

 37 43  0  0  1  0  0  0  0  0999 V2000
  188.1240  177.3860  139.2080 N   0  0  0  0  0  0  0  0  0  0  0  0
  183.9360  177.7280  137.7240 C   0  0  0  0  0  3  0  0  0  0  0  0
  188.8800  178.7100  141.3650 C   0  0  1  0  0  3  0  0  0  0  0  0
  185.8190  176.2300  137.6610 N   0  0  0  0  0  2  0  0  0  0  0  0
  187.5030  174.8830  136.8340 O   0  0  0  0  0  0  0  0  0  0  0  0
  187.4530  178.6110  141.0620 N   0  0  0  0  0  2  0  0  0  0  0  0
  187.2000  175.9360  137.4590 C   0  0  0  0  0  0  0  0  0  0  0  0
  189.5900  176.7140  137.4350 C   0  0  0  0  0  0  0  0  0  0  0  0
  190.8460  178.4390  142.8100 N   0  0  0  0  0  0  0  0  0  0  0  0
  185.8220  178.2390  139.1730 C   0  0  0  0  0  0  0  0  0  0  0  0
  189.3760  178.4720  142.7740 C   0  0  2  0  0  3  0  0  0  0  0  0
  183.2420  178.8350  138.2090 C   0  0  0  0  0  0  0  0  0  0  0  0
  189.3330  177.3180  141.8070 C   0  0  2  0  0  0  0  0  0  0  0  0
  190.9520  176.5410  139.5230 C   0  0  2  0  0  3  0  0  0  0  0  0
  185.2260  177.4230  138.1790 C   0  0  0  0  0  0  0  0  0  0  0  0
  189.7840  176.5680  136.1250 C   0  0  0  0  0  2  0  0  0  0  0  0
  183.8230  179.6440  139.1830 C   0  0  0  0  0  3  0  0  0  0  0  0
  187.1370  177.9890  139.8000 C   0  0  0  0  0  0  0  0  0  0  0  0
  190.8280  177.2420  141.9660 C   0  0  1  0  0  3  0  0  0  0  0  0
  185.0970  179.3420  139.6630 C   0  0  0  0  0  3  0  0  0  0  0  0
  190.7500  177.2720  138.2620 C   0  0  1  0  0  3  0  0  0  0  0  0
  188.2360  176.7960  137.9490 N   0  0  0  0  0  0  0  0  0  0  0  0
  181.6430  179.2100  137.5980 Cl  0  0  0  0  0  0  0  0  0  0  0  0
  191.2280  178.0130  144.1470 C   0  0  0  0  0  1  0  0  0  0  0  0
  191.5130  177.4810  140.6040 C   0  0  0  0  0  2  0  0  0  0  0  0
  191.9260  176.3720  138.4350 N   0  0  0  0  0  0  0  0  0  0  0  0
  191.6810  175.0980  137.8930 N   0  0  0  0  0  2  0  0  0  0  0  0
  192.3480  173.1800  136.4980 N   0  0  0  0  0  2  0  0  0  0  0  0
  192.6180  174.4850  137.0100 C   0  0  0  0  0  0  0  0  0  0  0  0
  193.6670  175.0980  136.6730 O   0  0  0  0  0  0  0  0  0  0  0  0
  193.9210  171.3420  136.3700 C   0  0  0  0  0  2  0  0  0  0  0  0
  192.8020  171.0770  135.3830 C   0  0  0  0  0  2  0  0  0  0  0  0
  193.2860  172.4960  135.6220 C   0  0  0  0  0  3  0  0  0  0  0  0
  188.3970  176.2970  142.4740 C   0  0  0  0  0  2  0  0  0  0  0  0
  188.1520  176.5760  143.9540 C   0  0  0  0  0  2  0  0  0  0  0  0
  186.7610  177.7520  145.4140 C   0  0  0  0  0  1  0  0  0  0  0  0
  186.7720  176.9890  144.1750 N   0  0  0  0  0  2  0  0  0  0  0  0
  1 18  2  0  0  0  0
  2 15  2  0  0  0  0
  2 12  1  0  0  0  0
  3  6  1  1  0  0  0
  3 13  1  0  0  0  0
  3 11  1  0  0  0  0
  4 15  1  0  0  0  0
  5  7  2  0  0  0  0
  7  4  1  0  0  0  0
  7 22  1  0  0  0  0
  8 22  1  0  0  0  0
  9 24  1  0  0  0  0
 10 20  2  0  0  0  0
 10 18  1  0  0  0  0
 11  9  1  6  0  0  0
 12 17  2  0  0  0  0
 13 19  1  0  0  0  0
 13 34  1  1  0  0  0
 13 11  1  0  0  0  0
 14 25  1  1  0  0  0
 15 10  1  0  0  0  0
 16  8  2  0  0  0  0
 17 20  1  0  0  0  0
 18  6  1  0  0  0  0
 19 25  1  6  0  0  0
 19  9  1  0  0  0  0
 21  8  1  6  0  0  0
 21 26  1  0  0  0  0
 21 14  1  0  0  0  0
 22  1  1  0  0  0  0
 23 12  1  0  0  0  0
 26 14  1  0  0  0  0
 27 26  1  0  0  0  0
 28 29  1  0  0  0  0
 29 27  1  0  0  0  0
 30 29  2  0  0  0  0
 32 33  1  0  0  0  0
 32 31  1  0  0  0  0
 33 31  1  0  0  0  0
 33 28  1  0  0  0  0
 34 35  1  0  0  0  0
 35 37  1  0  0  0  0
 37 36  1  0  0  0  0
M  END
>  <MODEL>
3

>  <REMARK>
 VINA RESULT:      -5.2      3.704      8.744
  Name = 
  5 active torsions:
  status: ('A' for Active; 'I' for Inactive)
    1  A    between atoms: N_1  and  N_37
    2  A    between atoms: N_3  and  C_27
    3  A    between atoms: C_10  and  C_23
    4  A    between atoms: C_10  and  N_24
    5  A    between atoms: C_19  and  C_23
                            x       y       z     vdW  Elec       q    Type
                         _______ _______ _______ _____ _____    ______ ____

>  <TORSDO>
F 5

$$$$
=
 OpenBabel11042412103D

 37 43  0  0  1  0  0  0  0  0999 V2000
  189.5640  176.7870  138.7360 N   0  0  0  0  0  0  0  0  0  0  0  0
  185.6900  176.2950  136.5890 C   0  0  0  0  0  3  0  0  0  0  0  0
  189.7250  178.3810  140.8360 C   0  0  1  0  0  3  0  0  0  0  0  0
  187.7660  175.1410  136.9750 N   0  0  0  0  0  2  0  0  0  0  0  0
  189.7550  174.0430  136.5640 O   0  0  0  0  0  0  0  0  0  0  0  0
  188.4040  178.0170  140.3260 N   0  0  0  0  0  2  0  0  0  0  0  0
  189.1900  175.0730  137.0220 C   0  0  0  0  0  0  0  0  0  0  0  0
  191.3970  176.2440  137.2910 C   0  0  0  0  0  0  0  0  0  0  0  0
  191.4330  178.5600  142.5900 N   0  0  0  0  0  0  0  0  0  0  0  0
  187.1970  177.2300  138.2540 C   0  0  0  0  0  0  0  0  0  0  0  0
  190.0030  178.3380  142.3220 C   0  0  2  0  0  3  0  0  0  0  0  0
  184.7590  177.3020  136.8440 C   0  0  0  0  0  0  0  0  0  0  0  0
  190.3070  177.1240  141.4840 C   0  0  2  0  0  0  0  0  0  0  0  0
  192.3930  176.4640  139.5720 C   0  0  2  0  0  3  0  0  0  0  0  0
  186.9150  176.2510  137.2690 C   0  0  0  0  0  0  0  0  0  0  0  0
  191.8320  176.0340  136.0490 C   0  0  0  0  0  2  0  0  0  0  0  0
  185.0320  178.2690  137.8080 C   0  0  0  0  0  3  0  0  0  0  0  0
  188.4080  177.2560  139.1000 C   0  0  0  0  0  0  0  0  0  0  0  0
  191.7460  177.3160  141.8810 C   0  0  1  0  0  3  0  0  0  0  0  0
  186.2360  178.2270  138.5090 C   0  0  0  0  0  3  0  0  0  0  0  0
  192.2980  177.0520  138.2270 C   0  0  1  0  0  3  0  0  0  0  0  0
  189.9800  176.1310  137.5770 N   0  0  0  0  0  0  0  0  0  0  0  0
  183.2490  177.3500  135.9550 Cl  0  0  0  0  0  0  0  0  0  0  0  0
  191.6420  178.3070  144.0060 C   0  0  0  0  0  1  0  0  0  0  0  0
  192.6080  177.5660  140.6250 C   0  0  0  0  0  2  0  0  0  0  0  0
  193.5530  176.3820  138.6730 N   0  0  0  0  0  0  0  0  0  0  0  0
  193.6060  175.0470  138.2340 N   0  0  0  0  0  2  0  0  0  0  0  0
  194.8470  172.9620  137.8060 N   0  0  0  0  0  2  0  0  0  0  0  0
  194.8340  174.3230  138.2360 C   0  0  0  0  0  0  0  0  0  0  0  0
  195.9030  174.8870  138.6000 O   0  0  0  0  0  0  0  0  0  0  0  0
  195.7050  170.6970  137.8480 C   0  0  0  0  0  2  0  0  0  0  0  0
  196.1410  171.3450  136.5480 C   0  0  0  0  0  2  0  0  0  0  0  0
  196.0650  172.1690  137.8210 C   0  0  0  0  0  3  0  0  0  0  0  0
  189.4420  176.0120  142.0980 C   0  0  0  0  0  2  0  0  0  0  0  0
  189.0000  176.3080  143.5280 C   0  0  0  0  0  2  0  0  0  0  0  0
  187.2350  177.3840  144.6130 C   0  0  0  0  0  1  0  0  0  0  0  0
  187.5470  176.3750  143.6110 N   0  0  0  0  0  2  0  0  0  0  0  0
  1 18  2  0  0  0  0
  2 12  2  0  0  0  0
  2 15  1  0  0  0  0
  3  6  1  1  0  0  0
  3 13  1  0  0  0  0
  3 11  1  0  0  0  0
  4  7  1  0  0  0  0
  4 15  1  0  0  0  0
  5  7  2  0  0  0  0
  7 22  1  0  0  0  0
  8 22  1  0  0  0  0
  9 24  1  0  0  0  0
 10 20  1  0  0  0  0
 10 18  1  0  0  0  0
 11  9  1  6  0  0  0
 12 17  1  0  0  0  0
 13 19  1  0  0  0  0
 13 34  1  1  0  0  0
 13 11  1  0  0  0  0
 14 25  1  1  0  0  0
 15 10  2  0  0  0  0
 16  8  2  0  0  0  0
 17 20  2  0  0  0  0
 18  6  1  0  0  0  0
 19 25  1  6  0  0  0
 19  9  1  0  0  0  0
 21  8  1  6  0  0  0
 21 26  1  0  0  0  0
 21 14  1  0  0  0  0
 22  1  1  0  0  0  0
 23 12  1  0  0  0  0
 26 14  1  0  0  0  0
 27 29  1  0  0  0  0
 27 26  1  0  0  0  0
 28 33  1  0  0  0  0
 28 29  1  0  0  0  0
 29 30  2  0  0  0  0
 32 33  1  0  0  0  0
 32 31  1  0  0  0  0
 33 31  1  0  0  0  0
 34 35  1  0  0  0  0
 35 37  1  0  0  0  0
 37 36  1  0  0  0  0
M  END
>  <MODEL>
4

>  <REMARK>
 VINA RESULT:      -4.9      3.677      8.694
  Name = 
  5 active torsions:
  status: ('A' for Active; 'I' for Inactive)
    1  A    between atoms: N_1  and  N_37
    2  A    between atoms: N_3  and  C_27
    3  A    between atoms: C_10  and  C_23
    4  A    between atoms: C_10  and  N_24
    5  A    between atoms: C_19  and  C_23
                            x       y       z     vdW  Elec       q    Type
                         _______ _______ _______ _____ _____    ______ ____

>  <TORSDO>
F 5

$$$$
