=
 OpenBabel11042412513D

 43 49  0  0  1  0  0  0  0  0999 V2000
  186.0980  177.6700  142.1390 O   0  0  0  0  0  0  0  0  0  0  0  0
  185.5130  178.9480  142.1710 C   0  0  0  0  0  2  0  0  0  0  0  0
  192.9120  176.7580  138.1190 C   0  0  0  0  0  1  0  0  0  0  0  0
  184.2060  179.9190  139.2220 N   0  0  0  0  0  0  0  0  0  0  0  0
  189.7390  177.9110  138.4160 O   0  0  0  0  0  0  0  0  0  0  0  0
  187.2730  176.4220  137.9720 O   0  0  0  0  0  0  0  0  0  0  0  0
  191.7700  174.9040  136.9360 C   0  0  0  0  0  2  0  0  0  0  0  0
  190.2730  173.8540  136.8270 S   0  0  0  0  0  0  0  0  0  0  0  0
  189.0370  176.6130  140.2810 C   0  0  0  0  0  2  0  0  0  0  0  0
  189.5890  176.5710  138.8710 C   0  0  1  0  0  0  0  0  0  0  0  0
  184.4190  179.4900  137.9900 N   0  0  0  0  0  0  0  0  0  0  0  0
  189.2390  178.7610  139.4210 C   0  0  0  0  0  2  0  0  0  0  0  0
  184.1490  178.9070  141.5050 C   0  0  0  0  0  2  0  0  0  0  0  0
  189.0330  175.1830  136.6260 C   0  0  1  0  0  3  0  0  0  0  0  0
  188.5580  175.7980  137.9960 C   0  0  2  0  0  3  0  0  0  0  0  0
  186.1850  177.7980  136.2470 N   0  0  1  0  0  0  0  0  0  0  0  0
  184.6250  178.1620  138.0770 C   0  0  0  0  0  0  0  0  0  0  0  0
  184.2880  178.8400  140.0220 C   0  0  0  0  0  0  0  0  0  0  0  0
  188.3720  178.5260  141.7460 C   0  0  0  0  0  2  0  0  0  0  0  0
  184.9820  177.2910  136.9090 C   0  0  1  0  0  3  0  0  0  0  0  0
  187.4120  177.7520  142.6540 C   0  0  1  0  0  3  0  0  0  0  0  0
  187.3550  177.3740  136.9510 C   0  0  2  0  0  3  0  0  0  0  0  0
  188.0960  176.9710  134.9460 C   0  0  0  0  0  2  0  0  0  0  0  0
  191.5660  176.1670  137.7580 C   0  0  1  0  0  3  0  0  0  0  0  0
  184.5610  177.7080  139.3440 N   0  0  0  0  0  2  0  0  0  0  0  0
  189.3300  176.1500  135.4360 C   0  0  0  0  0  2  0  0  0  0  0  0
  190.8350  175.8970  138.9290 O   0  0  0  0  0  0  0  0  0  0  0  0
  188.3760  177.9490  140.3410 C   0  0  2  0  0  3  0  0  0  0  0  0
  186.9510  176.6660  135.7850 N   0  0  2  0  0  0  0  0  0  0  0  0
  183.8450  177.1910  135.9360 C   0  0  0  0  0  3  0  0  0  0  0  0
  182.6650  176.8710  136.3230 N   0  0  0  0  0  2  0  0  0  0  0  0
  187.4310  178.2620  143.9600 O   0  0  0  0  0  0  0  0  0  0  0  0
  187.9350  177.2240  144.7480 C   0  0  1  0  0  3  0  0  0  0  0  0
  191.2850  177.9980  142.6190 O   0  0  0  0  0  0  0  0  0  0  0  0
  189.2280  177.5390  146.9590 C   0  0  1  0  0  3  0  0  0  0  0  0
  189.3390  176.8470  144.2690 C   0  0  0  0  0  2  0  0  0  0  0  0
  190.3370  178.2230  146.1550 C   0  0  0  0  0  2  0  0  0  0  0  0
  190.3180  177.8250  144.7430 N   0  0  0  0  0  0  0  0  0  0  0  0
  191.2900  178.3540  143.8280 C   0  0  0  0  0  0  0  0  0  0  0  0
  187.8850  177.6390  146.2290 C   0  0  0  0  0  2  0  0  0  0  0  0
  192.3190  179.3340  144.2820 C   0  0  0  0  0  1  0  0  0  0  0  0
  190.9150  176.2130  147.5050 C   0  0  0  0  0  1  0  0  0  0  0  0
  189.5550  176.1990  147.1910 O   0  0  0  0  0  0  0  0  0  0  0  0
  1  2  1  0  0  0  0
  1 21  1  0  0  0  0
  4 18  2  0  0  0  0
  5 10  1  0  0  0  0
  5 12  1  0  0  0  0
  7 24  1  0  0  0  0
  8  7  1  0  0  0  0
  9 28  1  0  0  0  0
 10 27  1  0  0  0  0
 10  9  1  1  0  0  0
 11 17  2  0  0  0  0
 11  4  1  0  0  0  0
 12 28  1  0  0  0  0
 13  2  1  0  0  0  0
 14 26  1  6  0  0  0
 14  8  1  0  0  0  0
 14 15  1  0  0  0  0
 15  6  1  6  0  0  0
 15 10  1  0  0  0  0
 16 20  1  0  0  0  0
 16 22  1  0  0  0  0
 17 25  1  0  0  0  0
 18 13  1  0  0  0  0
 19 21  1  0  0  0  0
 20 17  1  0  0  0  0
 21 32  1  0  0  0  0
 22  6  1  0  0  0  0
 23 26  1  0  0  0  0
 23 29  1  0  0  0  0
 24  3  1  0  0  0  0
 24 27  1  0  0  0  0
 25 18  1  0  0  0  0
 28 19  1  0  0  0  0
 29 16  1  0  0  0  0
 29 22  1  0  0  0  0
 30 31  2  0  0  0  0
 30 20  1  0  0  0  0
 32 33  1  0  0  0  0
 33 40  1  0  0  0  0
 34 39  2  0  0  0  0
 35 43  1  0  0  0  0
 36 38  1  0  0  0  0
 36 33  1  0  0  0  0
 37 35  1  0  0  0  0
 38 37  1  0  0  0  0
 39 41  1  0  0  0  0
 39 38  1  0  0  0  0
 40 35  1  0  0  0  0
 43 42  1  0  0  0  0
M  END
>  <MODEL>
1

>  <REMARK>
 VINA RESULT:      -7.9      0.000      0.000
  Name = 
  4 active torsions:
  status: ('A' for Active; 'I' for Inactive)
    1  A    between atoms: C_1  and  O_6
    2  A    between atoms: O_6  and  C_31
    3  A    between atoms: C_8  and  C_30
    4  A    between atoms: C_14  and  O_40
                            x       y       z     vdW  Elec       q    Type
                         _______ _______ _______ _____ _____    ______ ____

>  <TORSDO>
F 4

$$$$
=
 OpenBabel11042412513D

 43 49  0  0  1  0  0  0  0  0999 V2000
  186.5310  177.8500  141.7160 O   0  0  0  0  0  0  0  0  0  0  0  0
  185.9770  179.1260  141.9220 C   0  0  0  0  0  2  0  0  0  0  0  0
  189.9780  176.3370  134.6990 C   0  0  0  0  0  1  0  0  0  0  0  0
  183.1820  179.6980  140.1320 N   0  0  0  0  0  0  0  0  0  0  0  0
  187.4420  177.5480  136.5930 O   0  0  0  0  0  0  0  0  0  0  0  0
  185.2600  176.0350  137.7940 O   0  0  0  0  0  0  0  0  0  0  0  0
  188.5010  174.3490  134.5940 C   0  0  0  0  0  2  0  0  0  0  0  0
  187.2770  173.3080  135.4710 S   0  0  0  0  0  0  0  0  0  0  0  0
  187.9940  176.5240  138.6670 C   0  0  0  0  0  2  0  0  0  0  0  0
  187.6650  176.2840  137.2070 C   0  0  1  0  0  0  0  0  0  0  0  0
  182.6990  179.1030  139.0550 N   0  0  0  0  0  0  0  0  0  0  0  0
  187.5320  178.5320  137.5970 C   0  0  0  0  0  2  0  0  0  0  0  0
  184.4800  179.0070  142.1500 C   0  0  0  0  0  2  0  0  0  0  0  0
  186.0470  174.6080  135.8470 C   0  0  1  0  0  3  0  0  0  0  0  0
  186.3770  175.4080  137.1630 C   0  0  2  0  0  3  0  0  0  0  0  0
  183.3010  177.1730  136.8330 N   0  0  1  0  0  0  0  0  0  0  0  0
  183.0090  177.7970  139.1660 C   0  0  0  0  0  0  0  0  0  0  0  0
  183.7710  178.7380  140.8670 C   0  0  0  0  0  0  0  0  0  0  0  0
  188.1310  178.6240  140.0140 C   0  0  0  0  0  2  0  0  0  0  0  0
  182.7120  176.7720  138.1120 C   0  0  1  0  0  3  0  0  0  0  0  0
  187.8990  177.9900  141.3890 C   0  0  1  0  0  3  0  0  0  0  0  0
  184.6910  176.8380  136.8010 C   0  0  2  0  0  3  0  0  0  0  0  0
  184.2100  176.1590  134.7910 C   0  0  0  0  0  2  0  0  0  0  0  0
  188.7050  175.7140  135.2320 C   0  0  1  0  0  3  0  0  0  0  0  0
  183.6960  177.5220  140.2910 N   0  0  0  0  0  2  0  0  0  0  0  0
  185.5600  175.4010  134.5940 C   0  0  0  0  0  2  0  0  0  0  0  0
  188.7740  175.6130  136.6320 O   0  0  0  0  0  0  0  0  0  0  0  0
  187.3890  177.8610  138.9310 C   0  0  2  0  0  3  0  0  0  0  0  0
  183.7540  175.9820  136.1580 N   0  0  2  0  0  0  0  0  0  0  0  0
  181.2360  176.5510  137.9680 C   0  0  0  0  0  3  0  0  0  0  0  0
  180.4950  176.3220  138.9900 N   0  0  0  0  0  2  0  0  0  0  0  0
  188.6100  178.6720  142.3860 O   0  0  0  0  0  0  0  0  0  0  0  0
  189.1360  177.6730  143.2070 C   0  0  1  0  0  3  0  0  0  0  0  0
  190.9150  176.5640  139.7480 O   0  0  0  0  0  0  0  0  0  0  0  0
  191.4280  177.7810  144.3890 C   0  0  1  0  0  3  0  0  0  0  0  0
  189.9020  176.6570  142.3560 C   0  0  0  0  0  2  0  0  0  0  0  0
  192.0840  177.7780  143.0050 C   0  0  0  0  0  2  0  0  0  0  0  0
  191.2120  177.1880  141.9840 N   0  0  0  0  0  0  0  0  0  0  0  0
  191.6570  177.0860  140.6220 C   0  0  0  0  0  0  0  0  0  0  0  0
  189.9940  178.3180  144.3090 C   0  0  0  0  0  2  0  0  0  0  0  0
  192.9980  177.5960  140.2110 C   0  0  0  0  0  1  0  0  0  0  0  0
  191.5960  176.6830  146.3030 C   0  0  0  0  0  1  0  0  0  0  0  0
  191.4340  176.4930  144.9300 O   0  0  0  0  0  0  0  0  0  0  0  0
  1  2  1  0  0  0  0
  2 13  1  0  0  0  0
  3 24  1  0  0  0  0
  4 18  2  0  0  0  0
  5 10  1  0  0  0  0
  5 12  1  0  0  0  0
  7 24  1  0  0  0  0
  7  8  1  0  0  0  0
  8 14  1  0  0  0  0
  9 28  1  0  0  0  0
 10  9  1  1  0  0  0
 11 17  2  0  0  0  0
 11  4  1  0  0  0  0
 12 28  1  0  0  0  0
 14 26  1  6  0  0  0
 14 15  1  0  0  0  0
 15 10  1  0  0  0  0
 15  6  1  6  0  0  0
 16 20  1  0  0  0  0
 17 25  1  0  0  0  0
 18 13  1  0  0  0  0
 19 21  1  0  0  0  0
 20 17  1  0  0  0  0
 21  1  1  0  0  0  0
 21 32  1  0  0  0  0
 22 16  1  0  0  0  0
 22  6  1  0  0  0  0
 23 29  1  0  0  0  0
 24 27  1  0  0  0  0
 25 18  1  0  0  0  0
 26 23  1  0  0  0  0
 27 10  1  0  0  0  0
 28 19  1  0  0  0  0
 29 22  1  0  0  0  0
 29 16  1  0  0  0  0
 30 20  1  0  0  0  0
 30 31  2  0  0  0  0
 32 33  1  0  0  0  0
 33 40  1  0  0  0  0
 34 39  2  0  0  0  0
 35 43  1  0  0  0  0
 36 33  1  0  0  0  0
 37 35  1  0  0  0  0
 38 36  1  0  0  0  0
 38 37  1  0  0  0  0
 39 38  1  0  0  0  0
 40 35  1  0  0  0  0
 41 39  1  0  0  0  0
 43 42  1  0  0  0  0
M  END
>  <MODEL>
2

>  <REMARK>
 VINA RESULT:      -7.3      1.926      2.795
  Name = 
  4 active torsions:
  status: ('A' for Active; 'I' for Inactive)
    1  A    between atoms: C_1  and  O_6
    2  A    between atoms: O_6  and  C_31
    3  A    between atoms: C_8  and  C_30
    4  A    between atoms: C_14  and  O_40
                            x       y       z     vdW  Elec       q    Type
                         _______ _______ _______ _____ _____    ______ ____

>  <TORSDO>
F 4

$$$$
=
 OpenBabel11042412513D

 43 49  0  0  1  0  0  0  0  0999 V2000
  186.3740  177.7220  142.0910 O   0  0  0  0  0  0  0  0  0  0  0  0
  185.8150  179.0110  142.1140 C   0  0  0  0  0  2  0  0  0  0  0  0
  192.9930  176.5720  137.8160 C   0  0  0  0  0  1  0  0  0  0  0  0
  184.4020  179.9300  139.1970 N   0  0  0  0  0  0  0  0  0  0  0  0
  189.8580  177.7930  138.2140 O   0  0  0  0  0  0  0  0  0  0  0  0
  187.3480  176.3420  137.9140 O   0  0  0  0  0  0  0  0  0  0  0  0
  191.7680  174.7100  136.7320 C   0  0  0  0  0  2  0  0  0  0  0  0
  190.2490  173.6870  136.7150 S   0  0  0  0  0  0  0  0  0  0  0  0
  189.2110  176.5590  140.1420 C   0  0  0  0  0  2  0  0  0  0  0  0
  189.7030  176.4690  138.7110 C   0  0  1  0  0  0  0  0  0  0  0  0
  184.5540  179.4650  137.9690 N   0  0  0  0  0  0  0  0  0  0  0  0
  189.4170  178.6800  139.2160 C   0  0  0  0  0  2  0  0  0  0  0  0
  184.4220  178.9790  141.5060 C   0  0  0  0  0  2  0  0  0  0  0  0
  189.0270  175.0340  136.5290 C   0  0  1  0  0  3  0  0  0  0  0  0
  188.6210  175.6940  137.9010 C   0  0  2  0  0  3  0  0  0  0  0  0
  186.2140  177.6930  136.1990 N   0  0  1  0  0  0  0  0  0  0  0  0
  184.7390  178.1350  138.0830 C   0  0  0  0  0  0  0  0  0  0  0  0
  184.4980  178.8710  140.0210 C   0  0  0  0  0  0  0  0  0  0  0  0
  188.6450  178.5230  141.5810 C   0  0  0  0  0  2  0  0  0  0  0  0
  185.0300  177.2270  136.9250 C   0  0  1  0  0  3  0  0  0  0  0  0
  187.7100  177.7920  142.5490 C   0  0  1  0  0  3  0  0  0  0  0  0
  187.4040  177.2650  136.8650 C   0  0  2  0  0  3  0  0  0  0  0  0
  188.0520  176.7950  134.8420 C   0  0  0  0  0  2  0  0  0  0  0  0
  191.6220  175.9970  137.5280 C   0  0  1  0  0  3  0  0  0  0  0  0
  184.7210  177.7170  139.3630 N   0  0  0  0  0  2  0  0  0  0  0  0
  189.2900  175.9630  135.3020 C   0  0  0  0  0  2  0  0  0  0  0  0
  190.9370  175.7730  138.7340 O   0  0  0  0  0  0  0  0  0  0  0  0
  188.5780  177.9090  140.1920 C   0  0  2  0  0  3  0  0  0  0  0  0
  186.9380  176.5350  135.7370 N   0  0  2  0  0  0  0  0  0  0  0  0
  183.8520  177.1240  136.0030 C   0  0  0  0  0  3  0  0  0  0  0  0
  182.8090  176.4520  136.3310 N   0  0  0  0  0  2  0  0  0  0  0  0
  187.7940  178.3340  143.8380 O   0  0  0  0  0  0  0  0  0  0  0  0
  186.6120  177.9490  144.4730 C   0  0  1  0  0  3  0  0  0  0  0  0
  189.2230  176.3770  147.1310 O   0  0  0  0  0  0  0  0  0  0  0  0
  185.4420  179.2720  146.3570 C   0  0  1  0  0  3  0  0  0  0  0  0
  186.9370  177.0340  145.6570 C   0  0  0  0  0  2  0  0  0  0  0  0
  186.6670  179.0040  147.2360 C   0  0  0  0  0  2  0  0  0  0  0  0
  187.4140  177.8220  146.7940 N   0  0  0  0  0  0  0  0  0  0  0  0
  188.5920  177.4020  147.5010 C   0  0  0  0  0  0  0  0  0  0  0  0
  185.8140  179.2030  144.8710 C   0  0  0  0  0  2  0  0  0  0  0  0
  189.0940  178.1680  148.6790 C   0  0  0  0  0  1  0  0  0  0  0  0
  183.4420  178.5970  145.6900 C   0  0  0  0  0  1  0  0  0  0  0  0
  184.4290  178.3530  146.6460 O   0  0  0  0  0  0  0  0  0  0  0  0
  1  2  1  0  0  0  0
  1 21  1  0  0  0  0
  4 18  2  0  0  0  0
  5 10  1  0  0  0  0
  5 12  1  0  0  0  0
  7 24  1  0  0  0  0
  8  7  1  0  0  0  0
  9 28  1  0  0  0  0
 10 27  1  0  0  0  0
 10  9  1  1  0  0  0
 11 17  2  0  0  0  0
 11  4  1  0  0  0  0
 12 28  1  0  0  0  0
 13  2  1  0  0  0  0
 14 26  1  6  0  0  0
 14  8  1  0  0  0  0
 14 15  1  0  0  0  0
 15  6  1  6  0  0  0
 15 10  1  0  0  0  0
 16 22  1  0  0  0  0
 16 20  1  0  0  0  0
 17 25  1  0  0  0  0
 18 13  1  0  0  0  0
 19 21  1  0  0  0  0
 20 17  1  0  0  0  0
 21 32  1  0  0  0  0
 22  6  1  0  0  0  0
 23 26  1  0  0  0  0
 23 29  1  0  0  0  0
 24  3  1  0  0  0  0
 24 27  1  0  0  0  0
 25 18  1  0  0  0  0
 28 19  1  0  0  0  0
 29 16  1  0  0  0  0
 29 22  1  0  0  0  0
 30 31  2  0  0  0  0
 30 20  1  0  0  0  0
 32 33  1  0  0  0  0
 33 40  1  0  0  0  0
 33 36  1  0  0  0  0
 34 39  2  0  0  0  0
 35 43  1  0  0  0  0
 35 37  1  0  0  0  0
 36 38  1  0  0  0  0
 38 37  1  0  0  0  0
 38 39  1  0  0  0  0
 39 41  1  0  0  0  0
 40 35  1  0  0  0  0
 42 43  1  0  0  0  0
M  END
>  <MODEL>
3

>  <REMARK>
 VINA RESULT:      -7.0      1.406      2.373
  Name = 
  4 active torsions:
  status: ('A' for Active; 'I' for Inactive)
    1  A    between atoms: C_1  and  O_6
    2  A    between atoms: O_6  and  C_31
    3  A    between atoms: C_8  and  C_30
    4  A    between atoms: C_14  and  O_40
                            x       y       z     vdW  Elec       q    Type
                         _______ _______ _______ _____ _____    ______ ____

>  <TORSDO>
F 4

$$$$
=
 OpenBabel11042412513D

 43 49  0  0  1  0  0  0  0  0999 V2000
  186.3190  177.2080  142.3240 O   0  0  0  0  0  0  0  0  0  0  0  0
  185.7370  178.4740  142.5100 C   0  0  0  0  0  2  0  0  0  0  0  0
  193.1560  176.7740  138.2650 C   0  0  0  0  0  1  0  0  0  0  0  0
  184.4520  179.8060  139.6950 N   0  0  0  0  0  0  0  0  0  0  0  0
  189.9840  177.8920  138.6820 O   0  0  0  0  0  0  0  0  0  0  0  0
  187.5170  176.4790  138.0430 O   0  0  0  0  0  0  0  0  0  0  0  0
  192.0160  175.0840  136.8560 C   0  0  0  0  0  2  0  0  0  0  0  0
  190.5170  174.0610  136.6090 S   0  0  0  0  0  0  0  0  0  0  0  0
  189.2660  176.3780  140.3690 C   0  0  0  0  0  2  0  0  0  0  0  0
  189.8280  176.5070  138.9670 C   0  0  1  0  0  0  0  0  0  0  0  0
  184.6720  179.5320  138.4210 N   0  0  0  0  0  0  0  0  0  0  0  0
  189.4800  178.6140  139.7810 C   0  0  0  0  0  2  0  0  0  0  0  0
  184.3770  178.5200  141.8350 C   0  0  0  0  0  2  0  0  0  0  0  0
  189.2830  175.4080  136.5650 C   0  0  1  0  0  3  0  0  0  0  0  0
  188.8000  175.8520  137.9970 C   0  0  2  0  0  3  0  0  0  0  0  0
  186.4450  178.0610  136.4930 N   0  0  1  0  0  0  0  0  0  0  0  0
  184.8730  178.2020  138.3450 C   0  0  0  0  0  0  0  0  0  0  0  0
  184.5260  178.6370  140.3560 C   0  0  0  0  0  0  0  0  0  0  0  0
  188.5970  178.0980  142.0540 C   0  0  0  0  0  2  0  0  0  0  0  0
  185.2360  177.4810  137.0810 C   0  0  1  0  0  3  0  0  0  0  0  0
  187.6290  177.2210  142.8540 C   0  0  1  0  0  3  0  0  0  0  0  0
  187.6080  177.5490  137.1470 C   0  0  2  0  0  3  0  0  0  0  0  0
  188.3620  177.3940  135.1120 C   0  0  0  0  0  2  0  0  0  0  0  0
  191.8100  176.2360  137.8260 C   0  0  1  0  0  3  0  0  0  0  0  0
  184.8000  177.5960  139.5460 N   0  0  0  0  0  2  0  0  0  0  0  0
  189.5900  176.5140  135.5050 C   0  0  0  0  0  2  0  0  0  0  0  0
  191.0710  175.8270  138.9490 O   0  0  0  0  0  0  0  0  0  0  0  0
  188.6090  177.6990  140.5880 C   0  0  2  0  0  3  0  0  0  0  0  0
  187.2100  176.9920  135.9000 N   0  0  2  0  0  0  0  0  0  0  0  0
  184.1050  177.5050  136.0950 C   0  0  0  0  0  3  0  0  0  0  0  0
  183.8960  176.5210  135.2990 N   0  0  0  0  0  2  0  0  0  0  0  0
  187.6410  177.5660  144.2130 O   0  0  0  0  0  0  0  0  0  0  0  0
  188.9540  177.9620  144.4760 C   0  0  1  0  0  3  0  0  0  0  0  0
  187.2800  179.2030  147.9420 O   0  0  0  0  0  0  0  0  0  0  0  0
  190.6900  176.5640  145.7770 C   0  0  1  0  0  3  0  0  0  0  0  0
  188.9990  178.7700  145.7750 C   0  0  0  0  0  2  0  0  0  0  0  0
  189.8010  176.7050  147.0150 C   0  0  0  0  0  2  0  0  0  0  0  0
  188.9240  177.8780  146.9320 N   0  0  0  0  0  0  0  0  0  0  0  0
  188.0200  178.1860  148.0060 C   0  0  0  0  0  0  0  0  0  0  0  0
  189.8660  176.7230  144.4950 C   0  0  0  0  0  2  0  0  0  0  0  0
  187.9350  177.3120  149.2120 C   0  0  0  0  0  1  0  0  0  0  0  0
  192.0020  177.7790  144.4720 C   0  0  0  0  0  1  0  0  0  0  0  0
  191.7210  177.5080  145.8120 O   0  0  0  0  0  0  0  0  0  0  0  0
  1  2  1  0  0  0  0
  1 21  1  0  0  0  0
  4 18  2  0  0  0  0
  5 10  1  0  0  0  0
  5 12  1  0  0  0  0
  7 24  1  0  0  0  0
  8  7  1  0  0  0  0
  9 28  1  0  0  0  0
 10  9  1  1  0  0  0
 11  4  1  0  0  0  0
 12 28  1  0  0  0  0
 13  2  1  0  0  0  0
 14 26  1  1  0  0  0
 14  8  1  0  0  0  0
 14 15  1  0  0  0  0
 15  6  1  6  0  0  0
 15 10  1  0  0  0  0
 16 20  1  0  0  0  0
 16 22  1  0  0  0  0
 17 11  2  0  0  0  0
 17 25  1  0  0  0  0
 18 13  1  0  0  0  0
 19 21  1  0  0  0  0
 20 17  1  0  0  0  0
 21 32  1  0  0  0  0
 22  6  1  0  0  0  0
 23 26  1  0  0  0  0
 23 29  1  0  0  0  0
 24  3  1  0  0  0  0
 24 27  1  0  0  0  0
 25 18  1  0  0  0  0
 27 10  1  0  0  0  0
 28 19  1  0  0  0  0
 29 16  1  0  0  0  0
 29 22  1  0  0  0  0
 30 20  1  0  0  0  0
 31 30  2  0  0  0  0
 32 33  1  0  0  0  0
 33 40  1  0  0  0  0
 33 36  1  0  0  0  0
 34 39  2  0  0  0  0
 35 43  1  0  0  0  0
 35 37  1  0  0  0  0
 36 38  1  0  0  0  0
 38 37  1  0  0  0  0
 38 39  1  0  0  0  0
 39 41  1  0  0  0  0
 40 35  1  0  0  0  0
 42 43  1  0  0  0  0
M  END
>  <MODEL>
4

>  <REMARK>
 VINA RESULT:      -6.2      1.157      2.055
  Name = 
  4 active torsions:
  status: ('A' for Active; 'I' for Inactive)
    1  A    between atoms: C_1  and  O_6
    2  A    between atoms: O_6  and  C_31
    3  A    between atoms: C_8  and  C_30
    4  A    between atoms: C_14  and  O_40
                            x       y       z     vdW  Elec       q    Type
                         _______ _______ _______ _____ _____    ______ ____

>  <TORSDO>
F 4

$$$$
=
 OpenBabel11042412513D

 43 49  0  0  1  0  0  0  0  0999 V2000
  186.9660  178.0220  141.6150 O   0  0  0  0  0  0  0  0  0  0  0  0
  186.3790  179.2970  141.6880 C   0  0  0  0  0  2  0  0  0  0  0  0
  191.1070  176.1540  135.0750 C   0  0  0  0  0  1  0  0  0  0  0  0
  183.7670  179.7110  139.6010 N   0  0  0  0  0  0  0  0  0  0  0  0
  188.3820  177.4310  136.6340 O   0  0  0  0  0  0  0  0  0  0  0  0
  186.1100  175.9530  137.7050 O   0  0  0  0  0  0  0  0  0  0  0  0
  189.6720  174.1380  134.9470 C   0  0  0  0  0  2  0  0  0  0  0  0
  188.3790  173.1290  135.7620 S   0  0  0  0  0  0  0  0  0  0  0  0
  188.7390  176.5420  138.8110 C   0  0  0  0  0  2  0  0  0  0  0  0
  188.5590  176.2100  137.3430 C   0  0  1  0  0  0  0  0  0  0  0  0
  183.4000  179.0450  138.5200 N   0  0  0  0  0  0  0  0  0  0  0  0
  188.3610  178.4740  137.5790 C   0  0  0  0  0  2  0  0  0  0  0  0
  184.8680  179.1650  141.7750 C   0  0  0  0  0  2  0  0  0  0  0  0
  187.1030  174.4270  135.9360 C   0  0  1  0  0  3  0  0  0  0  0  0
  187.2920  175.3100  137.2270 C   0  0  2  0  0  3  0  0  0  0  0  0
  184.2420  176.9970  136.4900 N   0  0  1  0  0  0  0  0  0  0  0  0
  183.7140  177.7540  138.7410 C   0  0  0  0  0  0  0  0  0  0  0  0
  184.2930  178.8070  140.4470 C   0  0  0  0  0  0  0  0  0  0  0  0
  188.7170  178.7210  140.0340 C   0  0  0  0  0  2  0  0  0  0  0  0
  183.5350  176.6620  137.7280 C   0  0  1  0  0  3  0  0  0  0  0  0
  188.3580  178.1660  141.4160 C   0  0  1  0  0  3  0  0  0  0  0  0
  185.6320  176.6850  136.6140 C   0  0  2  0  0  3  0  0  0  0  0  0
  185.3610  175.8790  134.6120 C   0  0  0  0  0  2  0  0  0  0  0  0
  189.7950  175.5420  135.5170 C   0  0  1  0  0  3  0  0  0  0  0  0
  184.2900  177.5580  139.9430 N   0  0  0  0  0  2  0  0  0  0  0  0
  186.7330  175.1350  134.5950 C   0  0  0  0  0  2  0  0  0  0  0  0
  189.7270  175.5250  136.9210 O   0  0  0  0  0  0  0  0  0  0  0  0
  188.0940  177.8820  138.9310 C   0  0  2  0  0  3  0  0  0  0  0  0
  184.7740  175.7760  135.9360 N   0  0  2  0  0  0  0  0  0  0  0  0
  182.0820  176.4060  137.4530 C   0  0  0  0  0  3  0  0  0  0  0  0
  181.2640  176.1390  138.4040 N   0  0  0  0  0  2  0  0  0  0  0  0
  188.9580  178.9190  142.4340 O   0  0  0  0  0  0  0  0  0  0  0  0
  190.1910  178.3050  142.6620 C   0  0  1  0  0  3  0  0  0  0  0  0
  189.1730  178.9820  146.5160 O   0  0  0  0  0  0  0  0  0  0  0  0
  190.5260  175.7940  143.1570 C   0  0  1  0  0  3  0  0  0  0  0  0
  190.5440  178.3910  144.1490 C   0  0  0  0  0  2  0  0  0  0  0  0
  189.7510  176.0000  144.4610 C   0  0  0  0  0  2  0  0  0  0  0  0
  189.7880  177.3960  144.9100 N   0  0  0  0  0  0  0  0  0  0  0  0
  189.1250  177.7870  146.1230 C   0  0  0  0  0  0  0  0  0  0  0  0
  190.1500  176.8630  142.1260 C   0  0  0  0  0  2  0  0  0  0  0  0
  188.3660  176.7930  146.9370 C   0  0  0  0  0  1  0  0  0  0  0  0
  192.0990  174.9020  144.4350 C   0  0  0  0  0  1  0  0  0  0  0  0
  191.9020  175.8210  143.4040 O   0  0  0  0  0  0  0  0  0  0  0  0
  1  2  1  0  0  0  0
  2 13  1  0  0  0  0
  3 24  1  0  0  0  0
  4 18  2  0  0  0  0
  5 10  1  0  0  0  0
  5 12  1  0  0  0  0
  7 24  1  0  0  0  0
  7  8  1  0  0  0  0
  8 14  1  0  0  0  0
  9 28  1  0  0  0  0
 10  9  1  1  0  0  0
 11 17  2  0  0  0  0
 11  4  1  0  0  0  0
 12 28  1  0  0  0  0
 14 26  1  6  0  0  0
 14 15  1  0  0  0  0
 15 10  1  0  0  0  0
 15  6  1  6  0  0  0
 16 22  1  0  0  0  0
 16 20  1  0  0  0  0
 17 25  1  0  0  0  0
 18 13  1  0  0  0  0
 19 21  1  0  0  0  0
 20 17  1  0  0  0  0
 21  1  1  0  0  0  0
 21 32  1  0  0  0  0
 22  6  1  0  0  0  0
 23 29  1  0  0  0  0
 24 27  1  0  0  0  0
 25 18  1  0  0  0  0
 26 23  1  0  0  0  0
 27 10  1  0  0  0  0
 28 19  1  0  0  0  0
 29 16  1  0  0  0  0
 29 22  1  0  0  0  0
 30 20  1  0  0  0  0
 30 31  2  0  0  0  0
 32 33  1  0  0  0  0
 33 36  1  0  0  0  0
 35 43  1  0  0  0  0
 35 37  1  0  0  0  0
 36 38  1  0  0  0  0
 37 38  1  0  0  0  0
 38 39  1  0  0  0  0
 39 34  2  0  0  0  0
 39 41  1  0  0  0  0
 40 33  1  0  0  0  0
 40 35  1  0  0  0  0
 43 42  1  0  0  0  0
M  END
>  <MODEL>
5

>  <REMARK>
 VINA RESULT:      -6.1      1.721      2.593
  Name = 
  4 active torsions:
  status: ('A' for Active; 'I' for Inactive)
    1  A    between atoms: C_1  and  O_6
    2  A    between atoms: O_6  and  C_31
    3  A    between atoms: C_8  and  C_30
    4  A    between atoms: C_14  and  O_40
                            x       y       z     vdW  Elec       q    Type
                         _______ _______ _______ _____ _____    ______ ____

>  <TORSDO>
F 4

$$$$
=
 OpenBabel11042412513D

 43 49  0  0  1  0  0  0  0  0999 V2000
  183.8280  178.0630  142.5390 O   0  0  0  0  0  0  0  0  0  0  0  0
  183.0500  179.1860  142.8710 C   0  0  0  0  0  2  0  0  0  0  0  0
  188.1280  178.3170  135.8420 C   0  0  0  0  0  1  0  0  0  0  0  0
  180.3790  179.6290  140.8650 N   0  0  0  0  0  0  0  0  0  0  0  0
  185.2570  178.7870  137.5790 O   0  0  0  0  0  0  0  0  0  0  0  0
  183.2580  176.7780  138.2590 O   0  0  0  0  0  0  0  0  0  0  0  0
  187.0250  176.1770  135.2530 C   0  0  0  0  0  2  0  0  0  0  0  0
  185.9170  174.8280  135.8040 S   0  0  0  0  0  0  0  0  0  0  0  0
  185.7750  177.5170  139.5220 C   0  0  0  0  0  2  0  0  0  0  0  0
  185.6310  177.4850  138.0130 C   0  0  1  0  0  0  0  0  0  0  0  0
  180.1080  179.1620  139.6590 N   0  0  0  0  0  0  0  0  0  0  0  0
  185.0840  179.5860  138.7260 C   0  0  0  0  0  2  0  0  0  0  0  0
  181.5790  178.8050  142.8950 C   0  0  0  0  0  2  0  0  0  0  0  0
  184.4550  175.8430  136.2250 C   0  0  1  0  0  3  0  0  0  0  0  0
  184.5200  176.4460  137.6790 C   0  0  2  0  0  3  0  0  0  0  0  0
  181.2340  177.7550  137.2550 N   0  0  1  0  0  0  0  0  0  0  0  0
  180.6220  177.9180  139.6040 C   0  0  0  0  0  0  0  0  0  0  0  0
  181.0500  178.6560  141.5090 C   0  0  0  0  0  0  0  0  0  0  0  0
  185.4280  179.3510  141.1830 C   0  0  0  0  0  2  0  0  0  0  0  0
  180.6040  177.0560  138.3770 C   0  0  1  0  0  3  0  0  0  0  0  0
  185.1770  178.4620  142.4060 C   0  0  1  0  0  3  0  0  0  0  0  0
  182.6570  177.6450  137.3400 C   0  0  2  0  0  3  0  0  0  0  0  0
  182.4910  177.2570  135.2060 C   0  0  0  0  0  2  0  0  0  0  0  0
  186.9340  177.4260  136.1140 C   0  0  1  0  0  3  0  0  0  0  0  0
  181.2360  177.5600  140.7480 N   0  0  0  0  0  2  0  0  0  0  0  0
  183.9620  176.7570  135.0590 C   0  0  0  0  0  2  0  0  0  0  0  0
  186.8870  177.0980  137.4800 O   0  0  0  0  0  0  0  0  0  0  0  0
  184.9300  178.6820  139.9130 C   0  0  2  0  0  3  0  0  0  0  0  0
  181.9440  176.7800  136.4640 N   0  0  2  0  0  0  0  0  0  0  0  0
  179.2060  176.6420  138.0220 C   0  0  0  0  0  3  0  0  0  0  0  0
  178.9310  175.4270  137.7170 N   0  0  0  0  0  2  0  0  0  0  0  0
  185.6650  179.0620  143.5740 O   0  0  0  0  0  0  0  0  0  0  0  0
  185.9310  178.0030  144.4440 C   0  0  1  0  0  3  0  0  0  0  0  0
  188.8350  177.2560  141.7290 O   0  0  0  0  0  0  0  0  0  0  0  0
  187.6770  178.0500  146.3450 C   0  0  1  0  0  3  0  0  0  0  0  0
  186.9920  177.0860  143.8290 C   0  0  0  0  0  2  0  0  0  0  0  0
  188.7630  178.1890  145.2750 C   0  0  0  0  0  2  0  0  0  0  0  0
  188.3220  177.6780  143.9730 N   0  0  0  0  0  0  0  0  0  0  0  0
  189.2080  177.7110  142.8430 C   0  0  0  0  0  0  0  0  0  0  0  0
  186.3300  178.5610  145.8210 C   0  0  0  0  0  2  0  0  0  0  0  0
  190.5800  178.2850  142.9590 C   0  0  0  0  0  1  0  0  0  0  0  0
  188.3130  176.6390  147.9270 C   0  0  0  0  0  1  0  0  0  0  0  0
  187.5650  176.7180  146.7520 O   0  0  0  0  0  0  0  0  0  0  0  0
  1  2  1  0  0  0  0
  2 13  1  0  0  0  0
  3 24  1  0  0  0  0
  4 18  2  0  0  0  0
  5 10  1  0  0  0  0
  5 12  1  0  0  0  0
  7  8  1  0  0  0  0
  7 24  1  0  0  0  0
  8 14  1  0  0  0  0
  9 28  1  0  0  0  0
 10  9  1  1  0  0  0
 11  4  1  0  0  0  0
 12 28  1  0  0  0  0
 14 26  1  6  0  0  0
 14 15  1  0  0  0  0
 15 10  1  0  0  0  0
 15  6  1  6  0  0  0
 16 22  1  0  0  0  0
 16 20  1  0  0  0  0
 17 11  2  0  0  0  0
 17 25  1  0  0  0  0
 18 13  1  0  0  0  0
 19 21  1  0  0  0  0
 20 17  1  0  0  0  0
 21  1  1  0  0  0  0
 21 32  1  0  0  0  0
 22  6  1  0  0  0  0
 23 29  1  0  0  0  0
 24 27  1  0  0  0  0
 25 18  1  0  0  0  0
 26 23  1  0  0  0  0
 27 10  1  0  0  0  0
 28 19  1  0  0  0  0
 29 16  1  0  0  0  0
 29 22  1  0  0  0  0
 30 20  1  0  0  0  0
 31 30  2  0  0  0  0
 32 33  1  0  0  0  0
 33 40  1  0  0  0  0
 34 39  2  0  0  0  0
 35 43  1  0  0  0  0
 36 38  1  0  0  0  0
 36 33  1  0  0  0  0
 37 35  1  0  0  0  0
 38 37  1  0  0  0  0
 39 41  1  0  0  0  0
 39 38  1  0  0  0  0
 40 35  1  0  0  0  0
 43 42  1  0  0  0  0
M  END
>  <MODEL>
6

>  <REMARK>
 VINA RESULT:      -6.0      2.800      3.851
  Name = 
  4 active torsions:
  status: ('A' for Active; 'I' for Inactive)
    1  A    between atoms: C_1  and  O_6
    2  A    between atoms: O_6  and  C_31
    3  A    between atoms: C_8  and  C_30
    4  A    between atoms: C_14  and  O_40
                            x       y       z     vdW  Elec       q    Type
                         _______ _______ _______ _____ _____    ______ ____

>  <TORSDO>
F 4

$$$$
=
 OpenBabel11042412513D

 43 49  0  0  1  0  0  0  0  0999 V2000
  184.4130  177.1340  139.2360 O   0  0  0  0  0  0  0  0  0  0  0  0
  184.5530  178.0640  138.1910 C   0  0  0  0  0  2  0  0  0  0  0  0
  185.6370  179.6500  146.6920 C   0  0  0  0  0  1  0  0  0  0  0  0
  187.7380  179.0060  137.6270 N   0  0  0  0  0  0  0  0  0  0  0  0
  186.5000  179.4350  143.4220 O   0  0  0  0  0  0  0  0  0  0  0  0
  187.8860  177.2360  142.1050 O   0  0  0  0  0  0  0  0  0  0  0  0
  187.2290  177.7610  146.8880 C   0  0  0  0  0  2  0  0  0  0  0  0
  187.9270  176.2630  146.0990 S   0  0  0  0  0  0  0  0  0  0  0  0
  185.0810  177.6410  142.7710 C   0  0  0  0  0  2  0  0  0  0  0  0
  186.1850  178.0780  143.7130 C   0  0  1  0  0  0  0  0  0  0  0  0
  188.8170  178.9300  138.3860 N   0  0  0  0  0  0  0  0  0  0  0  0
  185.7220  179.8260  142.3150 C   0  0  0  0  0  2  0  0  0  0  0  0
  185.6810  177.6350  137.2680 C   0  0  0  0  0  2  0  0  0  0  0  0
  188.5250  177.0340  144.5530 C   0  0  1  0  0  3  0  0  0  0  0  0
  187.4090  177.1530  143.4480 C   0  0  2  0  0  3  0  0  0  0  0  0
  189.8390  178.3960  141.1600 N   0  0  1  0  0  0  0  0  0  0  0  0
  188.7100  177.7890  139.0930 C   0  0  0  0  0  0  0  0  0  0  0  0
  187.0060  177.9080  137.8930 C   0  0  0  0  0  0  0  0  0  0  0  0
  183.8980  178.8460  140.9280 C   0  0  0  0  0  2  0  0  0  0  0  0
  189.6920  177.3560  140.1400 C   0  0  1  0  0  3  0  0  0  0  0  0
  183.4420  177.6090  140.1480 C   0  0  1  0  0  3  0  0  0  0  0  0
  188.7660  178.3220  142.1020 C   0  0  2  0  0  3  0  0  0  0  0  0
  190.3650  178.6170  143.5480 C   0  0  0  0  0  2  0  0  0  0  0  0
  186.4950  178.6720  145.9180 C   0  0  1  0  0  3  0  0  0  0  0  0
  187.5760  177.1140  138.8210 N   0  0  0  0  0  2  0  0  0  0  0  0
  189.4820  178.2480  144.7810 C   0  0  0  0  0  2  0  0  0  0  0  0
  185.6920  177.9290  145.0340 O   0  0  0  0  0  0  0  0  0  0  0  0
  185.2220  178.5900  141.6290 C   0  0  2  0  0  3  0  0  0  0  0  0
  190.0250  177.7480  142.4350 N   0  0  2  0  0  0  0  0  0  0  0  0
  191.0220  177.0180  139.5340 C   0  0  0  0  0  3  0  0  0  0  0  0
  191.1140  176.2130  138.5400 N   0  0  0  0  0  2  0  0  0  0  0  0
  182.2050  177.8310  139.5270 O   0  0  0  0  0  0  0  0  0  0  0  0
  181.6590  178.9320  140.1890 C   0  0  1  0  0  3  0  0  0  0  0  0
  181.2130  180.2690  136.3990 O   0  0  0  0  0  0  0  0  0  0  0  0
  179.1430  179.2870  140.6450 C   0  0  1  0  0  3  0  0  0  0  0  0
  181.3810  180.0530  139.1840 C   0  0  0  0  0  2  0  0  0  0  0  0
  178.9340  179.3800  139.1310 C   0  0  0  0  0  2  0  0  0  0  0  0
  180.1610  179.7680  138.4280 N   0  0  0  0  0  0  0  0  0  0  0  0
  180.1630  179.9180  137.0000 C   0  0  0  0  0  0  0  0  0  0  0  0
  180.4100  178.4890  140.9710 C   0  0  0  0  0  2  0  0  0  0  0  0
  178.9310  179.6600  136.1990 C   0  0  0  0  0  1  0  0  0  0  0  0
  179.2900  180.3540  142.5790 C   0  0  0  0  0  1  0  0  0  0  0  0
  179.2200  180.5670  141.2020 O   0  0  0  0  0  0  0  0  0  0  0  0
  1 21  1  0  0  0  0
  2  1  1  0  0  0  0
  4 18  2  0  0  0  0
  4 11  1  0  0  0  0
  5 10  1  0  0  0  0
  8  7  1  0  0  0  0
 10  9  1  6  0  0  0
 10 27  1  0  0  0  0
 11 17  2  0  0  0  0
 12  5  1  0  0  0  0
 13 18  1  0  0  0  0
 13  2  1  0  0  0  0
 14 26  1  1  0  0  0
 14  8  1  0  0  0  0
 15  6  1  6  0  0  0
 15 10  1  0  0  0  0
 15 14  1  0  0  0  0
 16 22  1  0  0  0  0
 16 29  1  0  0  0  0
 17 20  1  0  0  0  0
 18 25  1  0  0  0  0
 19 28  1  0  0  0  0
 20 16  1  0  0  0  0
 21 19  1  0  0  0  0
 22  6  1  0  0  0  0
 22 29  1  0  0  0  0
 23 26  1  0  0  0  0
 24  3  1  0  0  0  0
 24  7  1  0  0  0  0
 25 17  1  0  0  0  0
 27 24  1  0  0  0  0
 28 12  1  0  0  0  0
 28  9  1  0  0  0  0
 29 23  1  0  0  0  0
 30 20  1  0  0  0  0
 31 30  2  0  0  0  0
 32 21  1  0  0  0  0
 32 33  1  0  0  0  0
 33 40  1  0  0  0  0
 34 39  2  0  0  0  0
 35 40  1  0  0  0  0
 35 43  1  0  0  0  0
 36 33  1  0  0  0  0
 37 35  1  0  0  0  0
 38 37  1  0  0  0  0
 38 36  1  0  0  0  0
 39 38  1  0  0  0  0
 41 39  1  0  0  0  0
 43 42  1  0  0  0  0
M  END
>  <MODEL>
7

>  <REMARK>
 VINA RESULT:      -5.7      3.545      8.467
  Name = 
  4 active torsions:
  status: ('A' for Active; 'I' for Inactive)
    1  A    between atoms: C_1  and  O_6
    2  A    between atoms: O_6  and  C_31
    3  A    between atoms: C_8  and  C_30
    4  A    between atoms: C_14  and  O_40
                            x       y       z     vdW  Elec       q    Type
                         _______ _______ _______ _____ _____    ______ ____

>  <TORSDO>
F 4

$$$$
=
 OpenBabel11042412513D

 43 49  0  0  1  0  0  0  0  0999 V2000
  187.8360  176.6900  138.3460 O   0  0  0  0  0  0  0  0  0  0  0  0
  188.9410  177.5310  138.5640 C   0  0  0  0  0  2  0  0  0  0  0  0
  180.6190  180.0160  137.8390 C   0  0  0  0  0  1  0  0  0  0  0  0
  189.0480  178.8570  141.6600 N   0  0  0  0  0  0  0  0  0  0  0  0
  183.6430  179.6300  139.3180 O   0  0  0  0  0  0  0  0  0  0  0  0
  184.4400  177.5370  141.1830 O   0  0  0  0  0  0  0  0  0  0  0  0
  179.9350  178.3950  139.5840 C   0  0  0  0  0  2  0  0  0  0  0  0
  180.4150  176.9450  140.5940 S   0  0  0  0  0  0  0  0  0  0  0  0
  184.3210  177.6040  138.2740 C   0  0  0  0  0  2  0  0  0  0  0  0
  183.2580  178.2750  139.1210 C   0  0  1  0  0  0  0  0  0  0  0  0
  188.1100  179.0030  142.5790 N   0  0  0  0  0  0  0  0  0  0  0  0
  184.9060  179.8070  138.7180 C   0  0  0  0  0  2  0  0  0  0  0  0
  189.6000  177.1840  139.8880 C   0  0  0  0  0  2  0  0  0  0  0  0
  181.9110  177.6500  141.3730 C   0  0  1  0  0  3  0  0  0  0  0  0
  183.1990  177.5100  140.4770 C   0  0  2  0  0  3  0  0  0  0  0  0
  185.1590  178.8700  143.1220 N   0  0  1  0  0  0  0  0  0  0  0  0
  187.3070  177.9260  142.4810 C   0  0  0  0  0  0  0  0  0  0  0  0
  188.7890  177.6960  141.0300 C   0  0  0  0  0  0  0  0  0  0  0  0
  186.4660  178.4580  137.3190 C   0  0  0  0  0  2  0  0  0  0  0  0
  186.0630  177.7320  143.2960 C   0  0  1  0  0  3  0  0  0  0  0  0
  187.1670  177.1040  137.1710 C   0  0  1  0  0  3  0  0  0  0  0  0
  184.4150  178.7320  141.9090 C   0  0  2  0  0  3  0  0  0  0  0  0
  182.7570  179.3780  143.1620 C   0  0  0  0  0  2  0  0  0  0  0  0
  181.1160  179.1030  138.9390 C   0  0  1  0  0  3  0  0  0  0  0  0
  187.6920  177.0770  141.5090 N   0  0  0  0  0  2  0  0  0  0  0  0
  181.6620  179.0020  142.1150 C   0  0  0  0  0  2  0  0  0  0  0  0
  182.0340  178.1780  138.4120 O   0  0  0  0  0  0  0  0  0  0  0  0
  185.5220  178.4550  138.5090 C   0  0  2  0  0  3  0  0  0  0  0  0
  183.8050  178.3730  143.1440 N   0  0  2  0  0  0  0  0  0  0  0  0
  186.3860  177.5310  144.7470 C   0  0  0  0  0  3  0  0  0  0  0  0
  186.2210  178.4740  145.6010 N   0  0  0  0  0  2  0  0  0  0  0  0
  188.0140  177.0930  136.0540 O   0  0  0  0  0  0  0  0  0  0  0  0
  187.7170  175.9050  135.3850 C   0  0  1  0  0  3  0  0  0  0  0  0
  191.7480  175.5870  135.3460 O   0  0  0  0  0  0  0  0  0  0  0  0
  187.5130  173.5860  136.5020 C   0  0  1  0  0  3  0  0  0  0  0  0
  189.0090  175.2660  134.8690 C   0  0  0  0  0  2  0  0  0  0  0  0
  189.0010  173.6800  136.8500 C   0  0  0  0  0  2  0  0  0  0  0  0
  189.7180  174.5980  135.9600 N   0  0  0  0  0  0  0  0  0  0  0  0
  191.1290  174.8110  136.1220 C   0  0  0  0  0  0  0  0  0  0  0  0
  186.9090  174.9830  136.3150 C   0  0  0  0  0  2  0  0  0  0  0  0
  191.8890  174.1280  137.2090 C   0  0  0  0  0  1  0  0  0  0  0  0
  187.7370  171.5350  135.7010 C   0  0  0  0  0  1  0  0  0  0  0  0
  187.3340  172.8230  135.3450 O   0  0  0  0  0  0  0  0  0  0  0  0
  1  2  1  0  0  0  0
  2 13  1  0  0  0  0
  3 24  1  0  0  0  0
  4 11  1  0  0  0  0
  6 22  1  0  0  0  0
  7  8  1  0  0  0  0
  8 14  1  0  0  0  0
  9 28  1  0  0  0  0
 10  9  1  6  0  0  0
 10  5  1  0  0  0  0
 10 15  1  0  0  0  0
 12  5  1  0  0  0  0
 13 18  1  0  0  0  0
 14 26  1  6  0  0  0
 15  6  1  1  0  0  0
 15 14  1  0  0  0  0
 16 29  1  0  0  0  0
 16 20  1  0  0  0  0
 17 11  2  0  0  0  0
 17 20  1  0  0  0  0
 18 25  1  0  0  0  0
 18  4  2  0  0  0  0
 19 28  1  0  0  0  0
 20 30  1  0  0  0  0
 21 19  1  0  0  0  0
 21  1  1  0  0  0  0
 22 16  1  0  0  0  0
 22 29  1  0  0  0  0
 24  7  1  0  0  0  0
 25 17  1  0  0  0  0
 26 23  1  0  0  0  0
 27 24  1  0  0  0  0
 27 10  1  0  0  0  0
 28 12  1  0  0  0  0
 29 23  1  0  0  0  0
 30 31  2  0  0  0  0
 32 21  1  0  0  0  0
 33 32  1  0  0  0  0
 33 40  1  0  0  0  0
 34 39  2  0  0  0  0
 35 37  1  0  0  0  0
 36 33  1  0  0  0  0
 36 38  1  0  0  0  0
 38 39  1  0  0  0  0
 38 37  1  0  0  0  0
 39 41  1  0  0  0  0
 40 35  1  0  0  0  0
 43 42  1  0  0  0  0
 43 35  1  0  0  0  0
M  END
>  <MODEL>
8

>  <REMARK>
 VINA RESULT:      -5.6      3.631      8.342
  Name = 
  4 active torsions:
  status: ('A' for Active; 'I' for Inactive)
    1  A    between atoms: C_1  and  O_6
    2  A    between atoms: O_6  and  C_31
    3  A    between atoms: C_8  and  C_30
    4  A    between atoms: C_14  and  O_40
                            x       y       z     vdW  Elec       q    Type
                         _______ _______ _______ _____ _____    ______ ____

>  <TORSDO>
F 4

$$$$
=
 OpenBabel11042412513D

 43 49  0  0  1  0  0  0  0  0999 V2000
  184.4650  177.1580  138.8290 O   0  0  0  0  0  0  0  0  0  0  0  0
  184.6980  178.0580  137.7760 C   0  0  0  0  0  2  0  0  0  0  0  0
  185.3050  179.8050  146.2920 C   0  0  0  0  0  1  0  0  0  0  0  0
  187.9400  178.8910  137.3920 N   0  0  0  0  0  0  0  0  0  0  0  0
  186.3610  179.4900  143.0880 O   0  0  0  0  0  0  0  0  0  0  0  0
  187.7560  177.2200  141.9060 O   0  0  0  0  0  0  0  0  0  0  0  0
  186.8210  177.8740  146.6270 C   0  0  0  0  0  2  0  0  0  0  0  0
  187.5190  176.3380  145.9140 S   0  0  0  0  0  0  0  0  0  0  0  0
  184.9290  177.7250  142.3880 C   0  0  0  0  0  2  0  0  0  0  0  0
  185.9860  178.1500  143.3880 C   0  0  1  0  0  0  0  0  0  0  0  0
  188.9670  178.8000  138.2180 N   0  0  0  0  0  0  0  0  0  0  0  0
  185.6660  179.8790  141.9270 C   0  0  0  0  0  2  0  0  0  0  0  0
  185.8660  177.5750  136.9340 C   0  0  0  0  0  2  0  0  0  0  0  0
  188.2360  177.0550  144.3940 C   0  0  1  0  0  3  0  0  0  0  0  0
  187.1950  177.1820  143.2190 C   0  0  2  0  0  3  0  0  0  0  0  0
  189.7990  178.2990  141.0610 N   0  0  1  0  0  0  0  0  0  0  0  0
  188.7810  177.6790  138.9410 C   0  0  0  0  0  0  0  0  0  0  0  0
  187.1590  177.8220  137.6350 C   0  0  0  0  0  0  0  0  0  0  0  0
  183.9000  178.9220  140.4500 C   0  0  0  0  0  2  0  0  0  0  0  0
  189.6820  177.2400  140.0560 C   0  0  1  0  0  3  0  0  0  0  0  0
  183.4550  177.6820  139.6680 C   0  0  1  0  0  3  0  0  0  0  0  0
  188.6680  178.2790  141.9360 C   0  0  2  0  0  3  0  0  0  0  0  0
  190.1830  178.5580  143.4720 C   0  0  0  0  0  2  0  0  0  0  0  0
  186.1780  178.7840  145.5940 C   0  0  1  0  0  3  0  0  0  0  0  0
  187.6450  177.0330  138.6130 N   0  0  0  0  0  2  0  0  0  0  0  0
  189.2150  178.2440  144.6550 C   0  0  0  0  0  2  0  0  0  0  0  0
  185.4080  178.0460  144.6780 O   0  0  0  0  0  0  0  0  0  0  0  0
  185.1700  178.6430  141.2370 C   0  0  2  0  0  3  0  0  0  0  0  0
  189.8850  177.6750  142.3580 N   0  0  2  0  0  0  0  0  0  0  0  0
  191.0360  176.8490  139.5410 C   0  0  0  0  0  3  0  0  0  0  0  0
  191.1810  175.8540  138.7450 N   0  0  0  0  0  2  0  0  0  0  0  0
  182.2660  177.9280  138.9680 O   0  0  0  0  0  0  0  0  0  0  0  0
  181.2660  177.3110  139.7220 C   0  0  1  0  0  3  0  0  0  0  0  0
  178.9620  178.5810  136.6510 O   0  0  0  0  0  0  0  0  0  0  0  0
  180.4370  174.8890  139.3840 C   0  0  1  0  0  3  0  0  0  0  0  0
  179.8980  177.6020  139.1000 C   0  0  0  0  0  2  0  0  0  0  0  0
  179.9230  175.3120  138.0050 C   0  0  0  0  0  2  0  0  0  0  0  0
  179.6810  176.7570  137.9260 N   0  0  0  0  0  0  0  0  0  0  0  0
  179.1860  177.3440  136.7120 C   0  0  0  0  0  0  0  0  0  0  0  0
  181.5740  175.8080  139.8450 C   0  0  0  0  0  2  0  0  0  0  0  0
  178.9310  176.5080  135.5030 C   0  0  0  0  0  1  0  0  0  0  0  0
  179.5780  173.7500  141.0760 C   0  0  0  0  0  1  0  0  0  0  0  0
  179.3940  174.9040  140.3140 O   0  0  0  0  0  0  0  0  0  0  0  0
  1 21  1  0  0  0  0
  2  1  1  0  0  0  0
  4 18  2  0  0  0  0
  4 11  1  0  0  0  0
  5 10  1  0  0  0  0
  6 22  1  0  0  0  0
  8  7  1  0  0  0  0
 10  9  1  6  0  0  0
 10 27  1  0  0  0  0
 11 17  2  0  0  0  0
 12  5  1  0  0  0  0
 13 18  1  0  0  0  0
 13  2  1  0  0  0  0
 14 26  1  1  0  0  0
 14  8  1  0  0  0  0
 15  6  1  6  0  0  0
 15 10  1  0  0  0  0
 15 14  1  0  0  0  0
 16 22  1  0  0  0  0
 16 29  1  0  0  0  0
 17 20  1  0  0  0  0
 18 25  1  0  0  0  0
 19 28  1  0  0  0  0
 20 16  1  0  0  0  0
 21 19  1  0  0  0  0
 22 29  1  0  0  0  0
 23 26  1  0  0  0  0
 24  3  1  0  0  0  0
 24  7  1  0  0  0  0
 25 17  1  0  0  0  0
 27 24  1  0  0  0  0
 28 12  1  0  0  0  0
 28  9  1  0  0  0  0
 29 23  1  0  0  0  0
 30 20  1  0  0  0  0
 31 30  2  0  0  0  0
 32 21  1  0  0  0  0
 32 33  1  0  0  0  0
 33 40  1  0  0  0  0
 34 39  2  0  0  0  0
 35 40  1  0  0  0  0
 35 43  1  0  0  0  0
 36 33  1  0  0  0  0
 37 35  1  0  0  0  0
 38 37  1  0  0  0  0
 38 36  1  0  0  0  0
 39 38  1  0  0  0  0
 41 39  1  0  0  0  0
 43 42  1  0  0  0  0
M  END
>  <MODEL>
9

>  <REMARK>
 VINA RESULT:      -5.6      3.711      8.624
  Name = 
  4 active torsions:
  status: ('A' for Active; 'I' for Inactive)
    1  A    between atoms: C_1  and  O_6
    2  A    between atoms: O_6  and  C_31
    3  A    between atoms: C_8  and  C_30
    4  A    between atoms: C_14  and  O_40
                            x       y       z     vdW  Elec       q    Type
                         _______ _______ _______ _____ _____    ______ ____

>  <TORSDO>
F 4

$$$$
