=
 OpenBabel11042411283D

 55 59  0  0  1  0  0  0  0  0999 V2000
  191.2470  177.7370  140.6200 C   0  0  2  0  0  3  0  0  0  0  0  0
  190.2990  176.6910  141.0740 N   0  0  2  0  0  0  0  0  0  0  0  0
  189.4850  176.1050  139.9840 C   0  0  0  0  0  2  0  0  0  0  0  0
  191.7650  176.4450  138.4180 C   0  0  2  0  0  3  0  0  0  0  0  0
  190.4750  176.9970  137.7830 C   0  0  0  0  0  2  0  0  0  0  0  0
  192.3150  177.2050  139.6460 C   0  0  0  0  0  2  0  0  0  0  0  0
  191.9030  178.2990  141.7070 F   0  0  0  0  0  0  0  0  0  0  0  0
  189.3170  177.0670  138.7910 C   0  0  1  0  0  3  0  0  0  0  0  0
  182.9990  178.2050  137.4830 C   0  0  0  0  0  0  0  0  0  0  0  0
  186.7880  175.6320  136.4010 C   0  0  0  0  0  3  0  0  0  0  0  0
  186.0580  176.8240  135.8750 C   0  0  0  0  0  2  0  0  0  0  0  0
  187.9760  176.9460  138.1530 C   0  0  0  0  0  0  0  0  0  0  0  0
  183.8520  177.5640  136.6410 N   0  0  0  0  0  0  0  0  0  0  0  0
  185.6970  177.9210  138.1290 C   0  0  0  0  0  0  0  0  0  0  0  0
  184.8330  178.5910  139.0000 C   0  0  0  0  0  3  0  0  0  0  0  0
  185.1750  177.4110  136.9230 C   0  0  0  0  0  0  0  0  0  0  0  0
  187.0830  177.8370  138.4940 N   0  0  0  0  0  0  0  0  0  0  0  0
  187.6660  175.7160  137.3990 C   0  0  0  0  0  3  0  0  0  0  0  0
  183.4800  178.7310  138.6890 C   0  0  0  0  0  3  0  0  0  0  0  0
  181.6570  178.3410  137.1300 O   0  0  0  0  0  0  0  0  0  0  0  0
  180.7640  178.8530  137.9860 O   0  0  0  0  0  1  0  0  0  0  0  0
  189.4220  177.2560  142.1170 C   0  0  1  0  0  3  0  0  0  0  0  0
  186.6940  179.5140  141.3210 O   0  0  0  0  0  0  0  0  0  0  0  0
  188.6690  178.3930  141.6540 O   0  0  0  0  0  0  0  0  0  0  0  0
  187.2930  178.5570  141.8740 C   0  0  0  0  0  0  0  0  0  0  0  0
  185.5190  178.1960  143.4060 F   0  0  0  0  0  0  0  0  0  0  0  0
  186.5110  177.5630  142.6760 C   0  0  2  0  0  3  0  0  0  0  0  0
  187.4330  176.7450  143.5830 C   0  0  1  0  0  3  0  0  0  0  0  0
  188.5520  176.1530  142.7250 C   0  0  0  0  0  2  0  0  0  0  0  0
  188.0140  177.5730  144.7360 C   0  0  0  0  0  2  0  0  0  0  0  0
  187.2220  177.4100  146.0290 C   0  0  0  0  0  2  0  0  0  0  0  0
  187.6590  178.3890  147.1120 C   0  0  2  0  0  3  0  0  0  0  0  0
  188.3130  177.6030  148.2360 C   0  0  0  0  0  2  0  0  0  0  0  0
  189.8260  177.6930  148.1530 C   0  0  0  0  0  2  0  0  0  0  0  0
  190.3530  176.5200  147.3490 C   0  0  0  0  0  2  0  0  0  0  0  0
  191.6970  176.8150  146.8720 N   0  0  0  0  0  0  0  0  0  0  0  0
  192.4510  175.5760  146.9370 C   0  0  0  0  0  1  0  0  0  0  0  0
  191.5870  177.1730  145.4650 C   0  0  0  0  0  2  0  0  0  0  0  0
  191.6510  176.0220  144.6800 O   0  0  0  0  0  1  0  0  0  0  0  0
  186.4690  179.1760  147.6490 C   0  0  0  0  0  2  0  0  0  0  0  0
  184.3970  178.2290  146.9420 O   0  0  0  0  0  1  0  0  0  0  0  0
  185.2380  179.8860  145.5950 O   0  0  0  0  0  0  0  0  0  0  0  0
  185.3160  179.0590  146.7100 C   0  0  0  0  0  0  0  0  0  0  0  0
  192.7970  176.1740  137.4140 N   0  0  0  0  0  2  0  0  0  0  0  0
  193.2610  174.7900  137.5070 C   0  0  0  0  0  2  0  0  0  0  0  0
  195.4900  174.9540  139.5810 O   0  0  0  0  0  0  0  0  0  0  0  0
  194.7890  174.7300  137.4910 C   0  0  1  0  0  3  0  0  0  0  0  0
  194.7390  172.3650  136.5400 C   0  0  0  0  0  1  0  0  0  0  0  0
  196.8730  174.7340  139.7550 C   0  0  0  0  0  2  0  0  0  0  0  0
  196.8680  173.1630  137.6770 C   0  0  1  0  0  3  0  0  0  0  0  0
  197.9500  175.3430  137.6910 O   0  0  0  0  0  1  0  0  0  0  0  0
  195.3370  175.6250  138.4470 O   0  0  0  0  0  0  0  0  0  0  0  0
  195.3250  173.2800  137.6100 C   0  0  1  0  0  3  0  0  0  0  0  0
  197.4220  173.0540  136.3970 O   0  0  0  0  0  1  0  0  0  0  0  0
  197.6080  174.2460  138.4920 C   0  0  1  0  0  3  0  0  0  0  0  0
  1  2  1  0  0  0  0
  1  7  1  1  0  0  0
  2  3  1  6  0  0  0
  2 22  1  0  0  0  0
  4 44  1  6  0  0  0
  4  6  1  0  0  0  0
  5  4  1  0  0  0  0
  5  8  1  0  0  0  0
  6  1  1  0  0  0  0
  8 12  1  6  0  0  0
  8  3  1  0  0  0  0
  9 19  1  0  0  0  0
 10 18  2  0  0  0  0
 11 10  1  0  0  0  0
 11 16  1  0  0  0  0
 12 17  2  0  0  0  0
 13 16  1  0  0  0  0
 13  9  2  0  0  0  0
 14 17  1  0  0  0  0
 14 15  1  0  0  0  0
 16 14  2  0  0  0  0
 18 12  1  0  0  0  0
 19 15  2  0  0  0  0
 20  9  1  0  0  0  0
 20 21  1  0  0  0  0
 22 29  1  6  0  0  0
 23 25  2  0  0  0  0
 24 25  1  0  0  0  0
 24 22  1  0  0  0  0
 25 27  1  0  0  0  0
 27 26  1  1  0  0  0
 27 28  1  0  0  0  0
 28 30  1  1  0  0  0
 29 28  1  0  0  0  0
 30 31  1  0  0  0  0
 32 31  1  6  0  0  0
 32 40  1  0  0  0  0
 32 33  1  0  0  0  0
 34 33  1  0  0  0  0
 35 34  1  0  0  0  0
 36 37  1  0  0  0  0
 36 35  1  0  0  0  0
 38 36  1  0  0  0  0
 39 38  1  0  0  0  0
 42 43  2  0  0  0  0
 43 41  1  0  0  0  0
 43 40  1  0  0  0  0
 44 45  1  0  0  0  0
 46 49  1  0  0  0  0
 47 45  1  1  0  0  0
 47 53  1  0  0  0  0
 47 52  1  0  0  0  0
 50 54  1  6  0  0  0
 50 55  1  0  0  0  0
 52 46  1  0  0  0  0
 53 48  1  6  0  0  0
 53 50  1  0  0  0  0
 55 51  1  6  0  0  0
 55 49  1  0  0  0  0
M  END
>  <MODEL>
1

>  <REMARK>
 VINA RESULT:      -8.5      0.000      0.000
  Name = 
  16 active torsions:
  status: ('A' for Active; 'I' for Inactive)
    1  A    between atoms: C_1  and  O_4
    2  A    between atoms: C_2  and  C_26
    3  A    between atoms: C_2  and  C_34
    4  A    between atoms: C_3  and  C_25
    5  A    between atoms: C_3  and  C_37
    6  A    between atoms: C_6  and  C_30
    7  A    between atoms: C_7  and  C_25
    8  A    between atoms: C_7  and  C_39
    9  A    between atoms: C_8  and  N_28
   10  A    between atoms: N_12  and  C_15
   11  A    between atoms: C_23  and  C_53
   12  A    between atoms: C_24  and  N_32
   13  A    between atoms: C_25  and  C_34
   14  A    between atoms: C_26  and  N_28
   15  A    between atoms: C_30  and  N_32
   16  A    between atoms: C_39  and  C_49
                            x       y       z     vdW  Elec       q    Type
                         _______ _______ _______ _____ _____    ______ ____

>  <TORSDO>
F 16

$$$$
=
 OpenBabel11042411283D

 55 59  0  0  1  0  0  0  0  0999 V2000
  192.5730  177.1520  138.8480 C   0  0  2  0  0  3  0  0  0  0  0  0
  191.5290  176.3500  139.5290 N   0  0  2  0  0  0  0  0  0  0  0  0
  190.5480  175.7330  138.6060 C   0  0  0  0  0  2  0  0  0  0  0  0
  192.7080  175.4670  136.8660 C   0  0  2  0  0  3  0  0  0  0  0  0
  191.4590  176.1070  136.2300 C   0  0  0  0  0  2  0  0  0  0  0  0
  193.4660  176.3160  137.9120 C   0  0  0  0  0  2  0  0  0  0  0  0
  193.3940  177.7700  139.7820 F   0  0  0  0  0  0  0  0  0  0  0  0
  190.4160  176.5110  137.2820 C   0  0  1  0  0  3  0  0  0  0  0  0
  184.2150  174.6230  136.3250 C   0  0  0  0  0  0  0  0  0  0  0  0
  187.5270  177.7830  135.2320 C   0  0  0  0  0  3  0  0  0  0  0  0
  186.3480  177.6680  136.1410 C   0  0  0  0  0  2  0  0  0  0  0  0
  189.0210  176.5010  136.7590 C   0  0  0  0  0  0  0  0  0  0  0  0
  184.6860  175.8690  136.0570 N   0  0  0  0  0  0  0  0  0  0  0  0
  186.8520  175.3100  136.9190 C   0  0  0  0  0  0  0  0  0  0  0  0
  186.3780  174.0270  137.2090 C   0  0  0  0  0  3  0  0  0  0  0  0
  185.9650  176.2390  136.3370 C   0  0  0  0  0  0  0  0  0  0  0  0
  188.2070  175.6210  137.2800 N   0  0  0  0  0  0  0  0  0  0  0  0
  188.7200  177.2820  135.5440 C   0  0  0  0  0  3  0  0  0  0  0  0
  185.0630  173.6730  136.9090 C   0  0  0  0  0  3  0  0  0  0  0  0
  182.8890  174.3100  136.0280 O   0  0  0  0  0  0  0  0  0  0  0  0
  182.3670  174.5790  134.8260 O   0  0  0  0  0  1  0  0  0  0  0  0
  190.8360  177.2000  140.5160 C   0  0  1  0  0  3  0  0  0  0  0  0
  187.5530  178.6080  139.8720 O   0  0  0  0  0  0  0  0  0  0  0  0
  189.7500  177.9510  139.9380 O   0  0  0  0  0  0  0  0  0  0  0  0
  188.4740  178.0400  140.5130 C   0  0  0  0  0  0  0  0  0  0  0  0
  187.2720  178.1610  142.5520 F   0  0  0  0  0  0  0  0  0  0  0  0
  188.1670  177.3940  141.8270 C   0  0  2  0  0  3  0  0  0  0  0  0
  189.4480  177.1340  142.6230 C   0  0  1  0  0  3  0  0  0  0  0  0
  190.4220  176.3630  141.7300 C   0  0  0  0  0  2  0  0  0  0  0  0
  190.0940  178.4260  143.1410 C   0  0  0  0  0  2  0  0  0  0  0  0
  189.8740  178.6300  144.6360 C   0  0  0  0  0  2  0  0  0  0  0  0
  189.9140  177.3230  145.4180 C   0  0  2  0  0  3  0  0  0  0  0  0
  188.7000  177.2710  146.3310 C   0  0  0  0  0  2  0  0  0  0  0  0
  187.5130  177.9720  145.6960 C   0  0  0  0  0  2  0  0  0  0  0  0
  186.2300  177.3310  146.1930 C   0  0  0  0  0  2  0  0  0  0  0  0
  185.2730  178.3660  146.5570 N   0  0  0  0  0  0  0  0  0  0  0  0
  186.0080  179.3830  147.2890 C   0  0  0  0  0  1  0  0  0  0  0  0
  184.8120  178.9820  145.3210 C   0  0  0  0  0  2  0  0  0  0  0  0
  183.4330  179.1850  145.3820 O   0  0  0  0  0  1  0  0  0  0  0  0
  191.1920  177.2200  146.2430 C   0  0  0  0  0  2  0  0  0  0  0  0
  191.9700  175.5620  144.7150 O   0  0  0  0  0  0  0  0  0  0  0  0
  192.5450  175.2300  146.9120 O   0  0  0  0  0  1  0  0  0  0  0  0
  191.9120  175.9570  145.9100 C   0  0  0  0  0  0  0  0  0  0  0  0
  193.5990  174.8870  135.8580 N   0  0  0  0  0  2  0  0  0  0  0  0
  194.3490  173.7620  136.4170 C   0  0  0  0  0  2  0  0  0  0  0  0
  196.6800  174.7150  138.1360 O   0  0  0  0  0  0  0  0  0  0  0  0
  195.8530  173.9640  136.2220 C   0  0  1  0  0  3  0  0  0  0  0  0
  196.1760  171.4860  135.7210 C   0  0  0  0  0  1  0  0  0  0  0  0
  198.0900  174.7770  138.1720 C   0  0  0  0  0  2  0  0  0  0  0  0
  198.2040  172.8490  136.4240 C   0  0  1  0  0  3  0  0  0  0  0  0
  198.8410  175.1420  135.9170 O   0  0  0  0  0  1  0  0  0  0  0  0
  196.3000  175.1120  136.9280 O   0  0  0  0  0  0  0  0  0  0  0  0
  196.6670  172.6820  136.5300 C   0  0  1  0  0  3  0  0  0  0  0  0
  198.6530  172.5860  135.1260 O   0  0  0  0  0  1  0  0  0  0  0  0
  198.7890  174.1830  136.9360 C   0  0  1  0  0  3  0  0  0  0  0  0
  1  2  1  0  0  0  0
  1  7  1  1  0  0  0
  2  3  1  6  0  0  0
  2 22  1  0  0  0  0
  4 44  1  6  0  0  0
  4  6  1  0  0  0  0
  5  4  1  0  0  0  0
  5  8  1  0  0  0  0
  6  1  1  0  0  0  0
  8 12  1  6  0  0  0
  8  3  1  0  0  0  0
  9 19  1  0  0  0  0
 10 18  2  0  0  0  0
 10 11  1  0  0  0  0
 11 16  1  0  0  0  0
 12 17  2  0  0  0  0
 13  9  2  0  0  0  0
 13 16  1  0  0  0  0
 14 15  1  0  0  0  0
 14 17  1  0  0  0  0
 16 14  2  0  0  0  0
 18 12  1  0  0  0  0
 19 15  2  0  0  0  0
 20  9  1  0  0  0  0
 21 20  1  0  0  0  0
 22 29  1  1  0  0  0
 23 25  2  0  0  0  0
 24 25  1  0  0  0  0
 24 22  1  0  0  0  0
 25 27  1  0  0  0  0
 27 26  1  1  0  0  0
 27 28  1  0  0  0  0
 28 30  1  6  0  0  0
 29 28  1  0  0  0  0
 30 31  1  0  0  0  0
 32 31  1  1  0  0  0
 32 40  1  0  0  0  0
 32 33  1  0  0  0  0
 34 35  1  0  0  0  0
 34 33  1  0  0  0  0
 35 36  1  0  0  0  0
 36 37  1  0  0  0  0
 38 39  1  0  0  0  0
 38 36  1  0  0  0  0
 41 43  2  0  0  0  0
 43 40  1  0  0  0  0
 43 42  1  0  0  0  0
 44 45  1  0  0  0  0
 46 49  1  0  0  0  0
 47 45  1  1  0  0  0
 47 53  1  0  0  0  0
 47 52  1  0  0  0  0
 50 54  1  6  0  0  0
 50 53  1  0  0  0  0
 50 55  1  0  0  0  0
 52 46  1  0  0  0  0
 53 48  1  6  0  0  0
 55 51  1  6  0  0  0
 55 49  1  0  0  0  0
M  END
>  <MODEL>
2

>  <REMARK>
 VINA RESULT:      -8.4      2.160      3.799
  Name = 
  16 active torsions:
  status: ('A' for Active; 'I' for Inactive)
    1  A    between atoms: C_1  and  O_4
    2  A    between atoms: C_2  and  C_26
    3  A    between atoms: C_2  and  C_34
    4  A    between atoms: C_3  and  C_25
    5  A    between atoms: C_3  and  C_37
    6  A    between atoms: C_6  and  C_30
    7  A    between atoms: C_7  and  C_25
    8  A    between atoms: C_7  and  C_39
    9  A    between atoms: C_8  and  N_28
   10  A    between atoms: N_12  and  C_15
   11  A    between atoms: C_23  and  C_53
   12  A    between atoms: C_24  and  N_32
   13  A    between atoms: C_25  and  C_34
   14  A    between atoms: C_26  and  N_28
   15  A    between atoms: C_30  and  N_32
   16  A    between atoms: C_39  and  C_49
                            x       y       z     vdW  Elec       q    Type
                         _______ _______ _______ _____ _____    ______ ____

>  <TORSDO>
F 16

$$$$
=
 OpenBabel11042411283D

 55 59  0  0  1  0  0  0  0  0999 V2000
  188.2900  176.4170  137.6610 C   0  0  2  0  0  3  0  0  0  0  0  0
  187.9230  177.7070  138.2940 N   0  0  2  0  0  0  0  0  0  0  0  0
  188.8190  178.1070  139.4040 C   0  0  0  0  0  2  0  0  0  0  0  0
  190.8360  176.9200  137.8900 C   0  0  2  0  0  3  0  0  0  0  0  0
  190.7990  176.4660  139.3620 C   0  0  0  0  0  2  0  0  0  0  0  0
  189.6750  176.4450  136.9880 C   0  0  0  0  0  2  0  0  0  0  0  0
  187.3530  176.0680  136.6970 F   0  0  0  0  0  0  0  0  0  0  0  0
  189.5070  176.8990  140.0700 C   0  0  1  0  0  3  0  0  0  0  0  0
  187.9960  177.4400  146.4230 C   0  0  0  0  0  0  0  0  0  0  0  0
  191.4560  177.5020  143.2330 C   0  0  0  0  0  3  0  0  0  0  0  0
  190.8620  176.5520  144.2210 C   0  0  0  0  0  2  0  0  0  0  0  0
  189.6770  177.0870  141.5380 C   0  0  0  0  0  0  0  0  0  0  0  0
  189.2410  177.1650  145.9530 N   0  0  0  0  0  0  0  0  0  0  0  0
  188.4480  177.1040  143.6910 C   0  0  0  0  0  0  0  0  0  0  0  0
  187.1600  177.3770  144.1620 C   0  0  0  0  0  3  0  0  0  0  0  0
  189.4960  176.9920  144.6270 C   0  0  0  0  0  0  0  0  0  0  0  0
  188.6160  176.9040  142.2790 N   0  0  0  0  0  0  0  0  0  0  0  0
  190.9270  177.7000  142.0270 C   0  0  0  0  0  3  0  0  0  0  0  0
  186.9260  177.5530  145.5260 C   0  0  0  0  0  3  0  0  0  0  0  0
  187.7960  177.5920  147.7940 O   0  0  0  0  0  0  0  0  0  0  0  0
  188.4850  178.4980  148.4980 O   0  0  0  0  0  1  0  0  0  0  0  0
  186.5280  177.6320  138.7670 C   0  0  1  0  0  3  0  0  0  0  0  0
  185.3500  179.5760  141.5960 O   0  0  0  0  0  0  0  0  0  0  0  0
  186.3610  178.1670  140.0940 O   0  0  0  0  0  0  0  0  0  0  0  0
  185.3390  179.0600  140.4500 C   0  0  0  0  0  0  0  0  0  0  0  0
  183.0710  179.6510  140.0900 F   0  0  0  0  0  0  0  0  0  0  0  0
  184.2930  179.4760  139.4630 C   0  0  2  0  0  3  0  0  0  0  0  0
  184.1900  178.4690  138.3160 C   0  0  1  0  0  3  0  0  0  0  0  0
  185.5890  178.2580  137.7330 C   0  0  0  0  0  2  0  0  0  0  0  0
  183.5790  177.1320  138.7560 C   0  0  0  0  0  2  0  0  0  0  0  0
  182.5110  176.6320  137.7890 C   0  0  0  0  0  2  0  0  0  0  0  0
  181.1480  176.4760  138.4530 C   0  0  2  0  0  3  0  0  0  0  0  0
  180.1460  177.3390  137.7030 C   0  0  0  0  0  2  0  0  0  0  0  0
  180.8370  178.5090  137.0250 C   0  0  0  0  0  2  0  0  0  0  0  0
  180.3660  179.8040  137.6610 C   0  0  0  0  0  2  0  0  0  0  0  0
  181.1770  180.9110  137.1750 N   0  0  0  0  0  0  0  0  0  0  0  0
  180.3620  181.6470  136.2240 C   0  0  0  0  0  1  0  0  0  0  0  0
  181.4170  181.7990  138.3050 C   0  0  0  0  0  2  0  0  0  0  0  0
  180.5320  181.4950  139.3390 O   0  0  0  0  0  1  0  0  0  0  0  0
  181.2030  176.8930  139.9180 C   0  0  0  0  0  2  0  0  0  0  0  0
  179.6820  175.1400  140.4670 O   0  0  0  0  0  0  0  0  0  0  0  0
  179.3340  177.1300  141.5570 O   0  0  0  0  0  1  0  0  0  0  0  0
  180.0280  176.3380  140.6500 C   0  0  0  0  0  0  0  0  0  0  0  0
  192.1500  176.7000  137.2820 N   0  0  0  0  0  2  0  0  0  0  0  0
  192.7160  175.4240  137.7180 C   0  0  0  0  0  2  0  0  0  0  0  0
  195.2020  174.1090  138.8940 O   0  0  0  0  0  0  0  0  0  0  0  0
  194.1960  175.3330  137.3460 C   0  0  1  0  0  3  0  0  0  0  0  0
  193.6280  174.1730  135.1480 C   0  0  0  0  0  1  0  0  0  0  0  0
  196.5410  173.7790  138.5920 C   0  0  0  0  0  2  0  0  0  0  0  0
  195.9940  173.9540  136.0510 C   0  0  1  0  0  3  0  0  0  0  0  0
  197.4130  175.5510  137.2170 O   0  0  0  0  0  1  0  0  0  0  0  0
  195.0090  175.3640  138.5090 O   0  0  0  0  0  0  0  0  0  0  0  0
  194.4970  174.1420  136.4010 C   0  0  1  0  0  3  0  0  0  0  0  0
  196.3440  174.6890  134.9130 O   0  0  0  0  0  1  0  0  0  0  0  0
  197.0060  174.2110  137.1890 C   0  0  1  0  0  3  0  0  0  0  0  0
  1  7  1  6  0  0  0
  1  2  1  0  0  0  0
  2 22  1  0  0  0  0
  2  3  1  1  0  0  0
  3  8  1  0  0  0  0
  4 44  1  6  0  0  0
  4  5  1  0  0  0  0
  5  8  1  0  0  0  0
  6  1  1  0  0  0  0
  6  4  1  0  0  0  0
  8 12  1  1  0  0  0
  9 20  1  0  0  0  0
 10 11  1  0  0  0  0
 11 16  1  0  0  0  0
 12 18  1  0  0  0  0
 12 17  2  0  0  0  0
 13  9  2  0  0  0  0
 14 15  1  0  0  0  0
 14 16  2  0  0  0  0
 15 19  2  0  0  0  0
 16 13  1  0  0  0  0
 17 14  1  0  0  0  0
 18 10  2  0  0  0  0
 19  9  1  0  0  0  0
 20 21  1  0  0  0  0
 22 29  1  6  0  0  0
 22 24  1  0  0  0  0
 24 25  1  0  0  0  0
 25 23  2  0  0  0  0
 27 26  1  1  0  0  0
 27 25  1  0  0  0  0
 28 30  1  1  0  0  0
 28 27  1  0  0  0  0
 29 28  1  0  0  0  0
 31 32  1  0  0  0  0
 31 30  1  0  0  0  0
 32 33  1  6  0  0  0
 32 40  1  0  0  0  0
 34 35  1  0  0  0  0
 34 33  1  0  0  0  0
 36 35  1  0  0  0  0
 36 38  1  0  0  0  0
 37 36  1  0  0  0  0
 38 39  1  0  0  0  0
 40 43  1  0  0  0  0
 41 43  2  0  0  0  0
 43 42  1  0  0  0  0
 44 45  1  0  0  0  0
 47 45  1  1  0  0  0
 47 52  1  0  0  0  0
 49 46  1  0  0  0  0
 50 54  1  6  0  0  0
 50 53  1  0  0  0  0
 50 55  1  0  0  0  0
 52 46  1  0  0  0  0
 53 48  1  6  0  0  0
 53 47  1  0  0  0  0
 55 51  1  1  0  0  0
 55 49  1  0  0  0  0
M  END
>  <MODEL>
3

>  <REMARK>
 VINA RESULT:      -8.4      2.485      7.755
  Name = 
  16 active torsions:
  status: ('A' for Active; 'I' for Inactive)
    1  A    between atoms: C_1  and  O_4
    2  A    between atoms: C_2  and  C_26
    3  A    between atoms: C_2  and  C_34
    4  A    between atoms: C_3  and  C_25
    5  A    between atoms: C_3  and  C_37
    6  A    between atoms: C_6  and  C_30
    7  A    between atoms: C_7  and  C_25
    8  A    between atoms: C_7  and  C_39
    9  A    between atoms: C_8  and  N_28
   10  A    between atoms: N_12  and  C_15
   11  A    between atoms: C_23  and  C_53
   12  A    between atoms: C_24  and  N_32
   13  A    between atoms: C_25  and  C_34
   14  A    between atoms: C_26  and  N_28
   15  A    between atoms: C_30  and  N_32
   16  A    between atoms: C_39  and  C_49
                            x       y       z     vdW  Elec       q    Type
                         _______ _______ _______ _____ _____    ______ ____

>  <TORSDO>
F 16

$$$$
=
 OpenBabel11042411283D

 55 59  0  0  1  0  0  0  0  0999 V2000
  188.4360  176.4070  137.5590 C   0  0  2  0  0  3  0  0  0  0  0  0
  188.0910  177.6960  138.2060 N   0  0  2  0  0  0  0  0  0  0  0  0
  189.0010  178.0750  139.3110 C   0  0  0  0  0  2  0  0  0  0  0  0
  190.9900  176.8770  137.7690 C   0  0  2  0  0  3  0  0  0  0  0  0
  190.9600  176.4090  139.2370 C   0  0  0  0  0  2  0  0  0  0  0  0
  189.8150  176.4240  136.8730 C   0  0  0  0  0  2  0  0  0  0  0  0
  187.4870  176.0790  136.6000 F   0  0  0  0  0  0  0  0  0  0  0  0
  189.6800  176.8530  139.9610 C   0  0  1  0  0  3  0  0  0  0  0  0
  188.2260  177.4180  146.3250 C   0  0  0  0  0  0  0  0  0  0  0  0
  191.6680  177.3580  143.1160 C   0  0  0  0  0  3  0  0  0  0  0  0
  191.0420  176.4270  144.1020 C   0  0  0  0  0  2  0  0  0  0  0  0
  189.8660  177.0250  141.4290 C   0  0  0  0  0  0  0  0  0  0  0  0
  189.4560  177.0960  145.8460 N   0  0  0  0  0  0  0  0  0  0  0  0
  188.6490  177.0800  143.5880 C   0  0  0  0  0  0  0  0  0  0  0  0
  187.3760  177.4020  144.0680 C   0  0  0  0  0  3  0  0  0  0  0  0
  189.6970  176.9200  144.5180 C   0  0  0  0  0  0  0  0  0  0  0  0
  188.8020  176.8820  142.1740 N   0  0  0  0  0  0  0  0  0  0  0  0
  191.1420  177.5840  141.9140 C   0  0  0  0  0  3  0  0  0  0  0  0
  187.1570  177.5810  145.4340 C   0  0  0  0  0  3  0  0  0  0  0  0
  188.0400  177.5710  147.6980 O   0  0  0  0  0  0  0  0  0  0  0  0
  188.7580  178.4550  148.4000 O   0  0  0  0  0  1  0  0  0  0  0  0
  186.6990  177.6340  138.6900 C   0  0  1  0  0  3  0  0  0  0  0  0
  185.5760  179.5460  141.5640 O   0  0  0  0  0  0  0  0  0  0  0  0
  186.5530  178.1490  140.0280 O   0  0  0  0  0  0  0  0  0  0  0  0
  185.5470  179.0500  140.4100 C   0  0  0  0  0  0  0  0  0  0  0  0
  183.2860  179.6820  140.0810 F   0  0  0  0  0  0  0  0  0  0  0  0
  184.4990  179.5000  139.4400 C   0  0  2  0  0  3  0  0  0  0  0  0
  184.3710  178.5140  138.2760 C   0  0  1  0  0  3  0  0  0  0  0  0
  185.7600  178.2920  137.6760 C   0  0  0  0  0  2  0  0  0  0  0  0
  183.7430  177.1790  138.6990 C   0  0  0  0  0  2  0  0  0  0  0  0
  182.4480  176.8800  137.9500 C   0  0  0  0  0  2  0  0  0  0  0  0
  181.2880  176.5680  138.8880 C   0  0  2  0  0  3  0  0  0  0  0  0
  181.5280  177.2880  140.2050 C   0  0  0  0  0  2  0  0  0  0  0  0
  180.2670  177.9880  140.6790 C   0  0  0  0  0  2  0  0  0  0  0  0
  180.6410  179.0690  141.6760 C   0  0  0  0  0  2  0  0  0  0  0  0
  181.1480  178.4580  142.8960 N   0  0  0  0  0  0  0  0  0  0  0  0
  182.3300  179.2080  143.2850 C   0  0  0  0  0  1  0  0  0  0  0  0
  180.1490  178.6710  143.9340 C   0  0  0  0  0  2  0  0  0  0  0  0
  179.6180  177.4460  144.3350 O   0  0  0  0  0  1  0  0  0  0  0  0
  181.1670  175.0680  139.1270 C   0  0  0  0  0  2  0  0  0  0  0  0
  178.9750  175.3950  138.2480 O   0  0  0  0  0  0  0  0  0  0  0  0
  179.6240  173.2070  138.5010 O   0  0  0  0  0  1  0  0  0  0  0  0
  179.8590  174.5730  138.6110 C   0  0  0  0  0  0  0  0  0  0  0  0
  192.2960  176.6460  137.1470 N   0  0  0  0  0  2  0  0  0  0  0  0
  192.7540  175.2800  137.3970 C   0  0  0  0  0  2  0  0  0  0  0  0
  194.8290  173.1750  138.1460 O   0  0  0  0  0  0  0  0  0  0  0  0
  194.2710  175.2450  137.5870 C   0  0  1  0  0  3  0  0  0  0  0  0
  194.6450  175.9230  135.1570 C   0  0  0  0  0  1  0  0  0  0  0  0
  196.2200  172.9380  138.1760 C   0  0  0  0  0  2  0  0  0  0  0  0
  196.5630  174.8230  136.4110 C   0  0  1  0  0  3  0  0  0  0  0  0
  197.2810  175.0250  138.7280 O   0  0  0  0  0  1  0  0  0  0  0  0
  194.6240  174.3820  138.6570 O   0  0  0  0  0  0  0  0  0  0  0  0
  195.0260  174.9470  136.2660 C   0  0  1  0  0  3  0  0  0  0  0  0
  197.1870  176.0660  136.2580 O   0  0  0  0  0  1  0  0  0  0  0  0
  197.0810  174.1150  137.6820 C   0  0  1  0  0  3  0  0  0  0  0  0
  1  7  1  6  0  0  0
  1  2  1  0  0  0  0
  2 22  1  0  0  0  0
  2  3  1  1  0  0  0
  3  8  1  0  0  0  0
  4 44  1  6  0  0  0
  4  5  1  0  0  0  0
  5  8  1  0  0  0  0
  6  1  1  0  0  0  0
  6  4  1  0  0  0  0
  8 12  1  1  0  0  0
  9 20  1  0  0  0  0
 10 11  1  0  0  0  0
 11 16  1  0  0  0  0
 12 18  1  0  0  0  0
 12 17  2  0  0  0  0
 13  9  2  0  0  0  0
 14 15  1  0  0  0  0
 14 16  2  0  0  0  0
 15 19  2  0  0  0  0
 16 13  1  0  0  0  0
 17 14  1  0  0  0  0
 18 10  2  0  0  0  0
 19  9  1  0  0  0  0
 20 21  1  0  0  0  0
 22 29  1  6  0  0  0
 22 24  1  0  0  0  0
 24 25  1  0  0  0  0
 25 23  2  0  0  0  0
 27 26  1  1  0  0  0
 27 25  1  0  0  0  0
 28 30  1  1  0  0  0
 28 27  1  0  0  0  0
 29 28  1  0  0  0  0
 31 30  1  0  0  0  0
 32 31  1  6  0  0  0
 32 40  1  0  0  0  0
 32 33  1  0  0  0  0
 33 34  1  0  0  0  0
 34 35  1  0  0  0  0
 35 36  1  0  0  0  0
 36 37  1  0  0  0  0
 36 38  1  0  0  0  0
 38 39  1  0  0  0  0
 41 43  2  0  0  0  0
 42 43  1  0  0  0  0
 43 40  1  0  0  0  0
 44 45  1  0  0  0  0
 46 49  1  0  0  0  0
 46 52  1  0  0  0  0
 47 45  1  6  0  0  0
 47 52  1  0  0  0  0
 50 54  1  1  0  0  0
 50 55  1  0  0  0  0
 53 48  1  6  0  0  0
 53 50  1  0  0  0  0
 53 47  1  0  0  0  0
 55 49  1  0  0  0  0
 55 51  1  1  0  0  0
M  END
>  <MODEL>
4

>  <REMARK>
 VINA RESULT:      -8.4      2.865      7.334
  Name = 
  16 active torsions:
  status: ('A' for Active; 'I' for Inactive)
    1  A    between atoms: C_1  and  O_4
    2  A    between atoms: C_2  and  C_26
    3  A    between atoms: C_2  and  C_34
    4  A    between atoms: C_3  and  C_25
    5  A    between atoms: C_3  and  C_37
    6  A    between atoms: C_6  and  C_30
    7  A    between atoms: C_7  and  C_25
    8  A    between atoms: C_7  and  C_39
    9  A    between atoms: C_8  and  N_28
   10  A    between atoms: N_12  and  C_15
   11  A    between atoms: C_23  and  C_53
   12  A    between atoms: C_24  and  N_32
   13  A    between atoms: C_25  and  C_34
   14  A    between atoms: C_26  and  N_28
   15  A    between atoms: C_30  and  N_32
   16  A    between atoms: C_39  and  C_49
                            x       y       z     vdW  Elec       q    Type
                         _______ _______ _______ _____ _____    ______ ____

>  <TORSDO>
F 16

$$$$
=
 OpenBabel11042411283D

 55 59  0  0  1  0  0  0  0  0999 V2000
  191.7380  177.7310  140.8740 C   0  0  2  0  0  3  0  0  0  0  0  0
  190.7240  176.6870  141.1540 N   0  0  2  0  0  0  0  0  0  0  0  0
  190.0450  176.1690  139.9440 C   0  0  0  0  0  2  0  0  0  0  0  0
  192.5100  176.5290  138.6950 C   0  0  2  0  0  3  0  0  0  0  0  0
  191.3190  177.1380  137.9310 C   0  0  0  0  0  2  0  0  0  0  0  0
  192.9130  177.2200  140.0170 C   0  0  0  0  0  2  0  0  0  0  0  0
  192.2610  178.2280  142.0600 F   0  0  0  0  0  0  0  0  0  0  0  0
  190.0450  177.1870  138.7870 C   0  0  1  0  0  3  0  0  0  0  0  0
  184.8670  174.6920  135.6410 C   0  0  0  0  0  0  0  0  0  0  0  0
  187.1850  178.6200  136.8050 C   0  0  0  0  0  3  0  0  0  0  0  0
  185.9920  177.8480  137.2640 C   0  0  0  0  0  2  0  0  0  0  0  0
  188.7940  177.1250  137.9810 C   0  0  0  0  0  0  0  0  0  0  0  0
  184.9710  175.9880  136.0370 N   0  0  0  0  0  0  0  0  0  0  0  0
  187.0810  175.5670  137.0950 C   0  0  0  0  0  0  0  0  0  0  0  0
  186.9820  174.2290  136.7020 C   0  0  0  0  0  3  0  0  0  0  0  0
  186.0350  176.4480  136.7510 C   0  0  0  0  0  0  0  0  0  0  0  0
  188.2240  175.9540  137.8740 N   0  0  0  0  0  0  0  0  0  0  0  0
  188.4250  178.2980  137.1650 C   0  0  0  0  0  3  0  0  0  0  0  0
  185.8820  173.7840  135.9690 C   0  0  0  0  0  3  0  0  0  0  0  0
  183.7450  174.2800  134.9250 O   0  0  0  0  0  0  0  0  0  0  0  0
  183.2980  173.0200  135.0010 O   0  0  0  0  0  1  0  0  0  0  0  0
  189.7320  177.2230  142.1050 C   0  0  1  0  0  3  0  0  0  0  0  0
  187.0100  179.3730  141.0360 O   0  0  0  0  0  0  0  0  0  0  0  0
  188.9840  178.3290  141.5640 O   0  0  0  0  0  0  0  0  0  0  0  0
  187.5880  178.4420  141.6510 C   0  0  0  0  0  0  0  0  0  0  0  0
  185.6920  178.0210  143.0100 F   0  0  0  0  0  0  0  0  0  0  0  0
  186.7710  177.4230  142.3830 C   0  0  2  0  0  3  0  0  0  0  0  0
  187.6320  176.6440  143.3800 C   0  0  1  0  0  3  0  0  0  0  0  0
  188.8490  176.0900  142.6370 C   0  0  0  0  0  2  0  0  0  0  0  0
  188.0700  177.4980  144.5770 C   0  0  0  0  0  2  0  0  0  0  0  0
  187.3610  177.1020  145.8670 C   0  0  0  0  0  2  0  0  0  0  0  0
  187.2950  178.2450  146.8740 C   0  0  2  0  0  3  0  0  0  0  0  0
  188.1310  177.8660  148.0850 C   0  0  0  0  0  2  0  0  0  0  0  0
  189.6110  178.0580  147.8060 C   0  0  0  0  0  2  0  0  0  0  0  0
  190.2630  176.7010  147.6160 C   0  0  0  0  0  2  0  0  0  0  0  0
  191.6000  176.8710  147.0660 N   0  0  0  0  0  0  0  0  0  0  0  0
  192.3750  175.7110  147.4700 C   0  0  0  0  0  1  0  0  0  0  0  0
  191.4810  176.8200  145.6160 C   0  0  0  0  0  2  0  0  0  0  0  0
  191.9130  178.0250  145.0640 O   0  0  0  0  0  1  0  0  0  0  0  0
  185.8560  178.5170  147.2970 C   0  0  0  0  0  2  0  0  0  0  0  0
  185.6510  179.8540  145.3340 O   0  0  0  0  0  0  0  0  0  0  0  0
  183.7540  178.7280  145.9660 O   0  0  0  0  0  1  0  0  0  0  0  0
  185.0860  179.0800  146.1510 C   0  0  0  0  0  0  0  0  0  0  0  0
  193.6560  176.2810  137.8160 N   0  0  0  0  0  2  0  0  0  0  0  0
  193.5190  174.9940  137.1360 C   0  0  0  0  0  2  0  0  0  0  0  0
  195.9230  176.3060  135.7970 O   0  0  0  0  0  0  0  0  0  0  0  0
  194.8680  174.5260  136.5880 C   0  0  1  0  0  3  0  0  0  0  0  0
  195.5770  173.6950  138.8920 C   0  0  0  0  0  1  0  0  0  0  0  0
  197.2630  176.0660  135.4220 C   0  0  0  0  0  2  0  0  0  0  0  0
  197.3840  174.1260  137.1560 C   0  0  1  0  0  3  0  0  0  0  0  0
  197.4060  173.7600  134.7500 O   0  0  0  0  0  1  0  0  0  0  0  0
  195.2130  175.2510  135.4180 O   0  0  0  0  0  0  0  0  0  0  0  0
  195.9770  174.5180  137.6710 C   0  0  1  0  0  3  0  0  0  0  0  0
  197.5800  172.7420  137.2260 O   0  0  0  0  0  1  0  0  0  0  0  0
  197.7800  174.6550  135.7600 C   0  0  1  0  0  3  0  0  0  0  0  0
  1  2  1  0  0  0  0
  1  7  1  1  0  0  0
  2  3  1  6  0  0  0
  2 22  1  0  0  0  0
  4 44  1  6  0  0  0
  4  6  1  0  0  0  0
  5  4  1  0  0  0  0
  5  8  1  0  0  0  0
  6  1  1  0  0  0  0
  8 12  1  6  0  0  0
  8  3  1  0  0  0  0
  9 19  1  0  0  0  0
  9 13  2  0  0  0  0
 10 18  2  0  0  0  0
 10 11  1  0  0  0  0
 13 16  1  0  0  0  0
 14 17  1  0  0  0  0
 15 14  1  0  0  0  0
 16 14  2  0  0  0  0
 16 11  1  0  0  0  0
 17 12  2  0  0  0  0
 18 12  1  0  0  0  0
 19 15  2  0  0  0  0
 20 21  1  0  0  0  0
 20  9  1  0  0  0  0
 22 29  1  6  0  0  0
 23 25  2  0  0  0  0
 24 25  1  0  0  0  0
 24 22  1  0  0  0  0
 25 27  1  0  0  0  0
 27 26  1  1  0  0  0
 27 28  1  0  0  0  0
 28 30  1  1  0  0  0
 29 28  1  0  0  0  0
 30 31  1  0  0  0  0
 32 31  1  6  0  0  0
 32 40  1  0  0  0  0
 32 33  1  0  0  0  0
 34 33  1  0  0  0  0
 35 34  1  0  0  0  0
 36 37  1  0  0  0  0
 36 35  1  0  0  0  0
 38 36  1  0  0  0  0
 39 38  1  0  0  0  0
 41 43  2  0  0  0  0
 42 43  1  0  0  0  0
 43 40  1  0  0  0  0
 45 44  1  0  0  0  0
 47 45  1  1  0  0  0
 47 53  1  0  0  0  0
 49 55  1  0  0  0  0
 49 46  1  0  0  0  0
 50 54  1  6  0  0  0
 50 53  1  0  0  0  0
 52 46  1  0  0  0  0
 52 47  1  0  0  0  0
 53 48  1  1  0  0  0
 55 51  1  6  0  0  0
 55 50  1  0  0  0  0
M  END
>  <MODEL>
5

>  <REMARK>
 VINA RESULT:      -8.3      1.712      2.345
  Name = 
  16 active torsions:
  status: ('A' for Active; 'I' for Inactive)
    1  A    between atoms: C_1  and  O_4
    2  A    between atoms: C_2  and  C_26
    3  A    between atoms: C_2  and  C_34
    4  A    between atoms: C_3  and  C_25
    5  A    between atoms: C_3  and  C_37
    6  A    between atoms: C_6  and  C_30
    7  A    between atoms: C_7  and  C_25
    8  A    between atoms: C_7  and  C_39
    9  A    between atoms: C_8  and  N_28
   10  A    between atoms: N_12  and  C_15
   11  A    between atoms: C_23  and  C_53
   12  A    between atoms: C_24  and  N_32
   13  A    between atoms: C_25  and  C_34
   14  A    between atoms: C_26  and  N_28
   15  A    between atoms: C_30  and  N_32
   16  A    between atoms: C_39  and  C_49
                            x       y       z     vdW  Elec       q    Type
                         _______ _______ _______ _____ _____    ______ ____

>  <TORSDO>
F 16

$$$$
=
 OpenBabel11042411283D

 55 59  0  0  1  0  0  0  0  0999 V2000
  191.5640  177.2420  139.5270 C   0  0  2  0  0  3  0  0  0  0  0  0
  190.7510  176.0800  139.9600 N   0  0  2  0  0  0  0  0  0  0  0  0
  189.7290  175.6620  138.9730 C   0  0  0  0  0  2  0  0  0  0  0  0
  191.6110  176.4100  137.0590 C   0  0  2  0  0  3  0  0  0  0  0  0
  190.2060  176.9980  136.8280 C   0  0  0  0  0  2  0  0  0  0  0  0
  192.4030  176.9590  138.2670 C   0  0  0  0  0  2  0  0  0  0  0  0
  192.4310  177.6290  140.5400 F   0  0  0  0  0  0  0  0  0  0  0  0
  189.2940  176.8170  138.0500 C   0  0  1  0  0  3  0  0  0  0  0  0
  182.9160  178.3110  137.8700 C   0  0  0  0  0  0  0  0  0  0  0  0
  186.2640  175.3750  136.3450 C   0  0  0  0  0  3  0  0  0  0  0  0
  185.5130  176.5680  135.8520 C   0  0  0  0  0  2  0  0  0  0  0  0
  187.8480  176.7430  137.6970 C   0  0  0  0  0  0  0  0  0  0  0  0
  183.5480  177.5360  136.9480 N   0  0  0  0  0  0  0  0  0  0  0  0
  185.6690  177.8820  138.0120 C   0  0  0  0  0  0  0  0  0  0  0  0
  185.0330  178.6880  138.9610 C   0  0  0  0  0  3  0  0  0  0  0  0
  184.8890  177.3090  136.9860 C   0  0  0  0  0  0  0  0  0  0  0  0
  187.0930  177.7250  138.1110 N   0  0  0  0  0  0  0  0  0  0  0  0
  187.3250  175.4790  137.1430 C   0  0  0  0  0  3  0  0  0  0  0  0
  183.6560  178.9020  138.9020 C   0  0  0  0  0  3  0  0  0  0  0  0
  181.5410  178.5170  137.7690 O   0  0  0  0  0  0  0  0  0  0  0  0
  181.0050  179.7250  137.9800 O   0  0  0  0  0  1  0  0  0  0  0  0
  190.1130  176.3930  141.2530 C   0  0  1  0  0  3  0  0  0  0  0  0
  192.0570  177.0810  144.2400 O   0  0  0  0  0  0  0  0  0  0  0  0
  191.0180  176.2600  142.3660 O   0  0  0  0  0  0  0  0  0  0  0  0
  191.1500  177.2200  143.3810 C   0  0  0  0  0  0  0  0  0  0  0  0
  189.9930  178.8090  144.7060 F   0  0  0  0  0  0  0  0  0  0  0  0
  190.2940  178.4480  143.4040 C   0  0  2  0  0  3  0  0  0  0  0  0
  189.0230  178.2450  142.5760 C   0  0  1  0  0  3  0  0  0  0  0  0
  189.4280  177.7610  141.1830 C   0  0  0  0  0  2  0  0  0  0  0  0
  188.0420  177.2620  143.2280 C   0  0  0  0  0  2  0  0  0  0  0  0
  186.9200  177.9700  143.9810 C   0  0  0  0  0  2  0  0  0  0  0  0
  186.8430  177.5520  145.4440 C   0  0  2  0  0  3  0  0  0  0  0  0
  185.5010  177.9970  146.0010 C   0  0  0  0  0  2  0  0  0  0  0  0
  184.8660  179.0510  145.1110 C   0  0  0  0  0  2  0  0  0  0  0  0
  183.4170  178.6800  144.8540 C   0  0  0  0  0  2  0  0  0  0  0  0
  182.9630  179.3020  143.6180 N   0  0  0  0  0  0  0  0  0  0  0  0
  183.6480  178.6280  142.5290 C   0  0  0  0  0  1  0  0  0  0  0  0
  181.5450  179.0030  143.4790 C   0  0  0  0  0  2  0  0  0  0  0  0
  181.1580  179.1610  142.1490 O   0  0  0  0  0  1  0  0  0  0  0  0
  187.9760  178.1770  146.2510 C   0  0  0  0  0  2  0  0  0  0  0  0
  189.5460  176.5100  146.9140 O   0  0  0  0  0  0  0  0  0  0  0  0
  187.9260  177.0130  148.4600 O   0  0  0  0  0  1  0  0  0  0  0  0
  188.5240  177.1810  147.2160 C   0  0  0  0  0  0  0  0  0  0  0  0
  192.4050  176.3870  135.8280 N   0  0  0  0  0  2  0  0  0  0  0  0
  192.8880  175.0350  135.5480 C   0  0  0  0  0  2  0  0  0  0  0  0
  194.0730  172.4010  136.5270 O   0  0  0  0  0  0  0  0  0  0  0  0
  193.9380  174.6120  136.5760 C   0  0  1  0  0  3  0  0  0  0  0  0
  195.7510  175.9050  135.3340 C   0  0  0  0  0  1  0  0  0  0  0  0
  195.1340  171.8680  137.2900 C   0  0  0  0  0  2  0  0  0  0  0  0
  196.4660  174.0810  136.9550 C   0  0  1  0  0  3  0  0  0  0  0  0
  195.5410  173.3990  139.1000 O   0  0  0  0  0  1  0  0  0  0  0  0
  193.5550  173.4070  137.2200 O   0  0  0  0  0  0  0  0  0  0  0  0
  195.3690  174.5770  135.9800 C   0  0  1  0  0  3  0  0  0  0  0  0
  197.0090  175.1430  137.6860 O   0  0  0  0  0  1  0  0  0  0  0  0
  196.0780  172.9210  137.8980 C   0  0  1  0  0  3  0  0  0  0  0  0
  1  2  1  0  0  0  0
  1  7  1  1  0  0  0
  2  3  1  6  0  0  0
  2 22  1  0  0  0  0
  4 44  1  6  0  0  0
  4  6  1  0  0  0  0
  5  4  1  0  0  0  0
  5  8  1  0  0  0  0
  6  1  1  0  0  0  0
  8 12  1  6  0  0  0
  8  3  1  0  0  0  0
  9 19  1  0  0  0  0
 10 18  2  0  0  0  0
 11 10  1  0  0  0  0
 11 16  1  0  0  0  0
 12 17  2  0  0  0  0
 13 16  1  0  0  0  0
 13  9  2  0  0  0  0
 14 17  1  0  0  0  0
 14 15  1  0  0  0  0
 16 14  2  0  0  0  0
 18 12  1  0  0  0  0
 19 15  2  0  0  0  0
 20  9  1  0  0  0  0
 20 21  1  0  0  0  0
 22 29  1  6  0  0  0
 22 24  1  0  0  0  0
 24 25  1  0  0  0  0
 25 27  1  0  0  0  0
 25 23  2  0  0  0  0
 27 26  1  1  0  0  0
 28 30  1  1  0  0  0
 28 27  1  0  0  0  0
 29 28  1  0  0  0  0
 30 31  1  0  0  0  0
 32 31  1  6  0  0  0
 32 33  1  0  0  0  0
 32 40  1  0  0  0  0
 34 33  1  0  0  0  0
 35 34  1  0  0  0  0
 36 35  1  0  0  0  0
 37 36  1  0  0  0  0
 38 36  1  0  0  0  0
 39 38  1  0  0  0  0
 40 43  1  0  0  0  0
 41 43  2  0  0  0  0
 43 42  1  0  0  0  0
 45 44  1  0  0  0  0
 46 52  1  0  0  0  0
 46 49  1  0  0  0  0
 47 45  1  6  0  0  0
 47 52  1  0  0  0  0
 49 55  1  0  0  0  0
 50 54  1  1  0  0  0
 50 55  1  0  0  0  0
 53 48  1  1  0  0  0
 53 47  1  0  0  0  0
 53 50  1  0  0  0  0
 55 51  1  1  0  0  0
M  END
>  <MODEL>
6

>  <REMARK>
 VINA RESULT:      -7.8      2.122      3.956
  Name = 
  16 active torsions:
  status: ('A' for Active; 'I' for Inactive)
    1  A    between atoms: C_1  and  O_4
    2  A    between atoms: C_2  and  C_26
    3  A    between atoms: C_2  and  C_34
    4  A    between atoms: C_3  and  C_25
    5  A    between atoms: C_3  and  C_37
    6  A    between atoms: C_6  and  C_30
    7  A    between atoms: C_7  and  C_25
    8  A    between atoms: C_7  and  C_39
    9  A    between atoms: C_8  and  N_28
   10  A    between atoms: N_12  and  C_15
   11  A    between atoms: C_23  and  C_53
   12  A    between atoms: C_24  and  N_32
   13  A    between atoms: C_25  and  C_34
   14  A    between atoms: C_26  and  N_28
   15  A    between atoms: C_30  and  N_32
   16  A    between atoms: C_39  and  C_49
                            x       y       z     vdW  Elec       q    Type
                         _______ _______ _______ _____ _____    ______ ____

>  <TORSDO>
F 16

$$$$
=
 OpenBabel11042411283D

 55 59  0  0  1  0  0  0  0  0999 V2000
  191.7100  177.1910  139.7130 C   0  0  2  0  0  3  0  0  0  0  0  0
  190.8270  176.0350  139.9960 N   0  0  2  0  0  0  0  0  0  0  0  0
  190.0490  175.5720  138.8240 C   0  0  0  0  0  2  0  0  0  0  0  0
  192.3040  176.2790  137.3460 C   0  0  2  0  0  3  0  0  0  0  0  0
  190.9820  176.8430  136.7910 C   0  0  0  0  0  2  0  0  0  0  0  0
  192.8070  176.8770  138.6790 C   0  0  0  0  0  2  0  0  0  0  0  0
  192.3310  177.6220  140.8780 F   0  0  0  0  0  0  0  0  0  0  0  0
  189.8230  176.6910  137.7880 C   0  0  1  0  0  3  0  0  0  0  0  0
  183.9240  174.3460  136.1620 C   0  0  0  0  0  0  0  0  0  0  0  0
  187.0510  177.8000  135.4960 C   0  0  0  0  0  3  0  0  0  0  0  0
  185.8030  177.5570  136.2800 C   0  0  0  0  0  2  0  0  0  0  0  0
  188.4910  176.5870  137.1280 C   0  0  0  0  0  0  0  0  0  0  0  0
  184.3130  175.6350  135.9780 N   0  0  0  0  0  0  0  0  0  0  0  0
  186.4250  175.2210  137.0370 C   0  0  0  0  0  0  0  0  0  0  0  0
  186.0330  173.8940  137.2410 C   0  0  0  0  0  3  0  0  0  0  0  0
  185.5240  176.0960  136.3950 C   0  0  0  0  0  0  0  0  0  0  0  0
  187.7070  175.6260  137.5400 N   0  0  0  0  0  0  0  0  0  0  0  0
  188.2460  177.3860  135.9120 C   0  0  0  0  0  3  0  0  0  0  0  0
  184.7880  173.4460  136.8010 C   0  0  0  0  0  3  0  0  0  0  0  0
  182.6650  173.9380  135.7250 O   0  0  0  0  0  0  0  0  0  0  0  0
  181.8880  173.1550  136.4830 O   0  0  0  0  0  1  0  0  0  0  0  0
  189.9180  176.3820  141.1050 C   0  0  1  0  0  3  0  0  0  0  0  0
  191.0150  176.3700  144.5650 O   0  0  0  0  0  0  0  0  0  0  0  0
  190.4190  175.9580  142.3880 O   0  0  0  0  0  0  0  0  0  0  0  0
  190.4400  176.7790  143.5260 C   0  0  0  0  0  0  0  0  0  0  0  0
  189.2870  178.4810  144.7070 F   0  0  0  0  0  0  0  0  0  0  0  0
  189.8730  178.1640  143.4940 C   0  0  2  0  0  3  0  0  0  0  0  0
  188.8810  178.3240  142.3390 C   0  0  1  0  0  3  0  0  0  0  0  0
  189.5660  177.8710  141.0490 C   0  0  0  0  0  2  0  0  0  0  0  0
  187.5800  177.5420  142.5650 C   0  0  0  0  0  2  0  0  0  0  0  0
  186.3380  178.4020  142.3520 C   0  0  0  0  0  2  0  0  0  0  0  0
  185.3230  178.2550  143.4790 C   0  0  2  0  0  3  0  0  0  0  0  0
  183.9380  178.5250  142.9170 C   0  0  0  0  0  2  0  0  0  0  0  0
  183.8840  178.2140  141.4320 C   0  0  0  0  0  2  0  0  0  0  0  0
  182.4960  178.5300  140.9060 C   0  0  0  0  0  2  0  0  0  0  0  0
  182.4500  178.2950  139.4700 N   0  0  0  0  0  0  0  0  0  0  0  0
  183.0450  179.4570  138.8320 C   0  0  0  0  0  1  0  0  0  0  0  0
  183.3220  177.1630  139.1890 C   0  0  0  0  0  2  0  0  0  0  0  0
  182.5590  176.0050  139.0450 O   0  0  0  0  0  1  0  0  0  0  0  0
  185.6240  179.2260  144.6150 C   0  0  0  0  0  2  0  0  0  0  0  0
  185.2190  178.9150  146.9440 O   0  0  0  0  0  1  0  0  0  0  0  0
  186.4860  177.2890  145.9350 O   0  0  0  0  0  0  0  0  0  0  0  0
  185.7700  178.4800  145.8980 C   0  0  0  0  0  0  0  0  0  0  0  0
  193.3490  176.2260  136.3220 N   0  0  0  0  0  2  0  0  0  0  0  0
  193.7300  174.8410  136.0420 C   0  0  0  0  0  2  0  0  0  0  0  0
  195.6990  174.8670  138.3700 O   0  0  0  0  0  0  0  0  0  0  0  0
  195.2370  174.6500  136.2140 C   0  0  1  0  0  3  0  0  0  0  0  0
  195.0940  172.2740  135.2990 C   0  0  0  0  0  1  0  0  0  0  0  0
  197.0270  174.5340  138.7140 C   0  0  0  0  0  2  0  0  0  0  0  0
  197.1330  172.9160  136.6750 C   0  0  1  0  0  3  0  0  0  0  0  0
  198.3930  174.9950  136.7890 O   0  0  0  0  0  1  0  0  0  0  0  0
  195.7430  175.5190  137.2150 O   0  0  0  0  0  0  0  0  0  0  0  0
  195.6260  173.1630  136.4190 C   0  0  1  0  0  3  0  0  0  0  0  0
  197.8250  172.7270  135.4750 O   0  0  0  0  0  1  0  0  0  0  0  0
  197.8620  173.9530  137.5590 C   0  0  1  0  0  3  0  0  0  0  0  0
  1  2  1  0  0  0  0
  1  7  1  1  0  0  0
  2  3  1  6  0  0  0
  2 22  1  0  0  0  0
  4 44  1  6  0  0  0
  4  6  1  0  0  0  0
  5  4  1  0  0  0  0
  5  8  1  0  0  0  0
  6  1  1  0  0  0  0
  8 12  1  6  0  0  0
  8  3  1  0  0  0  0
  9 19  1  0  0  0  0
 10 18  2  0  0  0  0
 10 11  1  0  0  0  0
 11 16  1  0  0  0  0
 12 17  2  0  0  0  0
 13  9  2  0  0  0  0
 13 16  1  0  0  0  0
 14 15  1  0  0  0  0
 14 17  1  0  0  0  0
 16 14  2  0  0  0  0
 18 12  1  0  0  0  0
 19 15  2  0  0  0  0
 20  9  1  0  0  0  0
 20 21  1  0  0  0  0
 22 29  1  1  0  0  0
 22 24  1  0  0  0  0
 24 25  1  0  0  0  0
 25 23  2  0  0  0  0
 27 25  1  0  0  0  0
 27 26  1  1  0  0  0
 28 30  1  1  0  0  0
 28 27  1  0  0  0  0
 29 28  1  0  0  0  0
 31 30  1  0  0  0  0
 32 31  1  6  0  0  0
 32 40  1  0  0  0  0
 33 32  1  0  0  0  0
 34 33  1  0  0  0  0
 35 34  1  0  0  0  0
 36 35  1  0  0  0  0
 37 36  1  0  0  0  0
 38 36  1  0  0  0  0
 39 38  1  0  0  0  0
 40 43  1  0  0  0  0
 43 42  2  0  0  0  0
 43 41  1  0  0  0  0
 45 44  1  0  0  0  0
 46 49  1  0  0  0  0
 47 45  1  1  0  0  0
 47 53  1  0  0  0  0
 47 52  1  0  0  0  0
 50 54  1  6  0  0  0
 50 55  1  0  0  0  0
 52 46  1  0  0  0  0
 53 48  1  6  0  0  0
 53 50  1  0  0  0  0
 55 51  1  6  0  0  0
 55 49  1  0  0  0  0
M  END
>  <MODEL>
7

>  <REMARK>
 VINA RESULT:      -7.8      2.251      4.548
  Name = 
  16 active torsions:
  status: ('A' for Active; 'I' for Inactive)
    1  A    between atoms: C_1  and  O_4
    2  A    between atoms: C_2  and  C_26
    3  A    between atoms: C_2  and  C_34
    4  A    between atoms: C_3  and  C_25
    5  A    between atoms: C_3  and  C_37
    6  A    between atoms: C_6  and  C_30
    7  A    between atoms: C_7  and  C_25
    8  A    between atoms: C_7  and  C_39
    9  A    between atoms: C_8  and  N_28
   10  A    between atoms: N_12  and  C_15
   11  A    between atoms: C_23  and  C_53
   12  A    between atoms: C_24  and  N_32
   13  A    between atoms: C_25  and  C_34
   14  A    between atoms: C_26  and  N_28
   15  A    between atoms: C_30  and  N_32
   16  A    between atoms: C_39  and  C_49
                            x       y       z     vdW  Elec       q    Type
                         _______ _______ _______ _____ _____    ______ ____

>  <TORSDO>
F 16

$$$$
=
 OpenBabel11042411283D

 55 59  0  0  1  0  0  0  0  0999 V2000
  189.7030  177.0680  139.8710 C   0  0  2  0  0  3  0  0  0  0  0  0
  189.2000  178.3060  139.2280 N   0  0  2  0  0  0  0  0  0  0  0  0
  188.2020  179.0410  140.0390 C   0  0  0  0  0  2  0  0  0  0  0  0
  189.6940  178.1770  142.2290 C   0  0  2  0  0  3  0  0  0  0  0  0
  188.1810  177.9150  142.3520 C   0  0  0  0  0  2  0  0  0  0  0  0
  190.4610  177.3340  141.1860 C   0  0  0  0  0  2  0  0  0  0  0  0
  190.5600  176.3920  139.0130 F   0  0  0  0  0  0  0  0  0  0  0  0
  187.4460  178.1210  141.0190 C   0  0  1  0  0  3  0  0  0  0  0  0
  181.3660  180.0330  139.4990 C   0  0  0  0  0  0  0  0  0  0  0  0
  184.3250  178.8910  142.9760 C   0  0  0  0  0  3  0  0  0  0  0  0
  183.2270  178.2560  142.1880 C   0  0  0  0  0  2  0  0  0  0  0  0
  186.0230  178.5270  141.1900 C   0  0  0  0  0  0  0  0  0  0  0  0
  181.7150  179.4530  140.6780 N   0  0  0  0  0  0  0  0  0  0  0  0
  183.9750  179.1480  139.9390 C   0  0  0  0  0  0  0  0  0  0  0  0
  183.6280  179.7340  138.7170 C   0  0  0  0  0  3  0  0  0  0  0  0
  182.9770  179.0070  140.9240 C   0  0  0  0  0  0  0  0  0  0  0  0
  185.3220  178.6770  140.0970 N   0  0  0  0  0  0  0  0  0  0  0  0
  185.5750  178.9710  142.5230 C   0  0  0  0  0  3  0  0  0  0  0  0
  182.3280  180.1860  138.4910 C   0  0  0  0  0  3  0  0  0  0  0  0
  180.0530  180.4570  139.3020 O   0  0  0  0  0  0  0  0  0  0  0  0
  179.6050  181.5980  139.8380 O   0  0  0  0  0  1  0  0  0  0  0  0
  188.6340  177.9670  137.9090 C   0  0  1  0  0  3  0  0  0  0  0  0
  190.6950  176.7090  135.1990 O   0  0  0  0  0  0  0  0  0  0  0  0
  189.6420  177.8550  136.8840 O   0  0  0  0  0  0  0  0  0  0  0  0
  189.7070  176.7920  135.9710 C   0  0  0  0  0  0  0  0  0  0  0  0
  188.4330  175.2720  134.6720 F   0  0  0  0  0  0  0  0  0  0  0  0
  188.6730  175.7090  135.9640 C   0  0  2  0  0  3  0  0  0  0  0  0
  187.3840  176.1790  136.6410 C   0  0  1  0  0  3  0  0  0  0  0  0
  187.7390  176.7310  138.0230 C   0  0  0  0  0  2  0  0  0  0  0  0
  186.6300  177.2290  135.8150 C   0  0  0  0  0  2  0  0  0  0  0  0
  185.3710  176.6670  135.1640 C   0  0  0  0  0  2  0  0  0  0  0  0
  184.4500  175.9820  136.1670 C   0  0  2  0  0  3  0  0  0  0  0  0
  184.0900  174.6070  135.6280 C   0  0  0  0  0  2  0  0  0  0  0  0
  184.8460  173.5190  136.3690 C   0  0  0  0  0  2  0  0  0  0  0  0
  183.8720  172.7260  137.2200 C   0  0  0  0  0  2  0  0  0  0  0  0
  182.9290  172.0240  136.3620 N   0  0  0  0  0  0  0  0  0  0  0  0
  183.4440  170.6780  136.1780 C   0  0  0  0  0  1  0  0  0  0  0  0
  181.6790  171.9040  137.1010 C   0  0  0  0  0  2  0  0  0  0  0  0
  181.2500  173.1660  137.5080 O   0  0  0  0  0  1  0  0  0  0  0  0
  183.1840  176.8010  136.3930 C   0  0  0  0  0  2  0  0  0  0  0  0
  181.3650  176.6430  137.9270 O   0  0  0  0  0  0  0  0  0  0  0  0
  183.4010  175.9550  138.7330 O   0  0  0  0  0  1  0  0  0  0  0  0
  182.5970  176.4740  137.7250 C   0  0  0  0  0  0  0  0  0  0  0  0
  190.3550  178.1950  143.5360 N   0  0  0  0  0  2  0  0  0  0  0  0
  189.8000  177.1630  144.4110 C   0  0  0  0  0  2  0  0  0  0  0  0
  186.9310  177.1500  145.4420 O   0  0  0  0  0  0  0  0  0  0  0  0
  189.0460  177.7950  145.5820 C   0  0  1  0  0  3  0  0  0  0  0  0
  190.5170  176.5680  147.2640 C   0  0  0  0  0  1  0  0  0  0  0  0
  186.1430  177.5030  146.5590 C   0  0  0  0  0  2  0  0  0  0  0  0
  188.2760  177.4700  148.0540 C   0  0  1  0  0  3  0  0  0  0  0  0
  187.0860  179.5140  147.4820 O   0  0  0  0  0  1  0  0  0  0  0  0
  187.7360  178.1740  145.1880 O   0  0  0  0  0  0  0  0  0  0  0  0
  189.0880  176.9160  146.8570 C   0  0  1  0  0  3  0  0  0  0  0  0
  189.0580  178.3150  148.8490 O   0  0  0  0  0  1  0  0  0  0  0  0
  186.9260  178.1430  147.7190 C   0  0  1  0  0  3  0  0  0  0  0  0
  1  7  1  6  0  0  0
  1  6  1  0  0  0  0
  2  1  1  0  0  0  0
  2  3  1  1  0  0  0
  3  8  1  0  0  0  0
  4  5  1  0  0  0  0
  4 44  1  1  0  0  0
  6  4  1  0  0  0  0
  8 12  1  1  0  0  0
  8  5  1  0  0  0  0
  9 13  2  0  0  0  0
 11 10  1  0  0  0  0
 12 18  1  0  0  0  0
 13 16  1  0  0  0  0
 14 17  1  0  0  0  0
 14 16  2  0  0  0  0
 15 14  1  0  0  0  0
 16 11  1  0  0  0  0
 17 12  2  0  0  0  0
 18 10  2  0  0  0  0
 19 15  2  0  0  0  0
 19  9  1  0  0  0  0
 20  9  1  0  0  0  0
 20 21  1  0  0  0  0
 22 29  1  1  0  0  0
 22  2  1  0  0  0  0
 23 25  2  0  0  0  0
 24 22  1  0  0  0  0
 25 24  1  0  0  0  0
 27 26  1  6  0  0  0
 27 25  1  0  0  0  0
 27 28  1  0  0  0  0
 28 30  1  6  0  0  0
 28 29  1  0  0  0  0
 31 30  1  0  0  0  0
 32 31  1  6  0  0  0
 32 40  1  0  0  0  0
 33 32  1  0  0  0  0
 33 34  1  0  0  0  0
 34 35  1  0  0  0  0
 36 38  1  0  0  0  0
 36 35  1  0  0  0  0
 37 36  1  0  0  0  0
 38 39  1  0  0  0  0
 40 43  1  0  0  0  0
 43 41  2  0  0  0  0
 43 42  1  0  0  0  0
 44 45  1  0  0  0  0
 46 49  1  0  0  0  0
 47 45  1  6  0  0  0
 47 53  1  0  0  0  0
 49 55  1  0  0  0  0
 50 54  1  6  0  0  0
 52 46  1  0  0  0  0
 52 47  1  0  0  0  0
 53 48  1  1  0  0  0
 53 50  1  0  0  0  0
 55 51  1  6  0  0  0
 55 50  1  0  0  0  0
M  END
>  <MODEL>
8

>  <REMARK>
 VINA RESULT:      -7.4      3.806      9.134
  Name = 
  16 active torsions:
  status: ('A' for Active; 'I' for Inactive)
    1  A    between atoms: C_1  and  O_4
    2  A    between atoms: C_2  and  C_26
    3  A    between atoms: C_2  and  C_34
    4  A    between atoms: C_3  and  C_25
    5  A    between atoms: C_3  and  C_37
    6  A    between atoms: C_6  and  C_30
    7  A    between atoms: C_7  and  C_25
    8  A    between atoms: C_7  and  C_39
    9  A    between atoms: C_8  and  N_28
   10  A    between atoms: N_12  and  C_15
   11  A    between atoms: C_23  and  C_53
   12  A    between atoms: C_24  and  N_32
   13  A    between atoms: C_25  and  C_34
   14  A    between atoms: C_26  and  N_28
   15  A    between atoms: C_30  and  N_32
   16  A    between atoms: C_39  and  C_49
                            x       y       z     vdW  Elec       q    Type
                         _______ _______ _______ _____ _____    ______ ____

>  <TORSDO>
F 16

$$$$
=
 OpenBabel11042411283D

 55 59  0  0  1  0  0  0  0  0999 V2000
  183.6850  178.3130  142.5220 C   0  0  2  0  0  3  0  0  0  0  0  0
  184.7590  179.3300  142.4320 N   0  0  2  0  0  0  0  0  0  0  0  0
  185.3650  179.4450  141.0850 C   0  0  0  0  0  2  0  0  0  0  0  0
  182.7990  178.9000  140.1430 C   0  0  2  0  0  3  0  0  0  0  0  0
  183.9030  178.0290  139.5120 C   0  0  0  0  0  2  0  0  0  0  0  0
  182.4710  178.6330  141.6290 C   0  0  0  0  0  2  0  0  0  0  0  0
  183.2340  178.2010  143.8310 F   0  0  0  0  0  0  0  0  0  0  0  0
  185.2350  178.1450  140.2670 C   0  0  1  0  0  3  0  0  0  0  0  0
  188.9950  175.5870  135.5490 C   0  0  0  0  0  0  0  0  0  0  0  0
  188.7700  178.6780  139.0910 C   0  0  0  0  0  3  0  0  0  0  0  0
  188.6690  178.6760  137.6010 C   0  0  0  0  0  2  0  0  0  0  0  0
  186.4230  177.9020  139.4020 C   0  0  0  0  0  0  0  0  0  0  0  0
  189.2390  176.7750  136.1630 N   0  0  0  0  0  0  0  0  0  0  0  0
  187.2190  176.6050  137.4450 C   0  0  0  0  0  0  0  0  0  0  0  0
  186.9510  175.3860  136.8130 C   0  0  0  0  0  3  0  0  0  0  0  0
  188.3920  177.3020  137.0900 C   0  0  0  0  0  0  0  0  0  0  0  0
  186.2530  177.0990  138.3850 N   0  0  0  0  0  0  0  0  0  0  0  0
  187.7430  178.3610  139.8760 C   0  0  0  0  0  3  0  0  0  0  0  0
  187.8370  174.8660  135.8700 C   0  0  0  0  0  3  0  0  0  0  0  0
  189.8930  175.1070  134.5980 O   0  0  0  0  0  0  0  0  0  0  0  0
  190.9890  174.4290  134.9600 O   0  0  0  0  0  1  0  0  0  0  0  0
  185.7980  179.0230  143.4330 C   0  0  1  0  0  3  0  0  0  0  0  0
  185.2000  179.3750  146.9950 O   0  0  0  0  0  0  0  0  0  0  0  0
  185.5010  179.5760  144.7300 O   0  0  0  0  0  0  0  0  0  0  0  0
  185.6050  178.8520  145.9270 C   0  0  0  0  0  0  0  0  0  0  0  0
  186.8360  177.1890  147.0850 F   0  0  0  0  0  0  0  0  0  0  0  0
  186.1000  177.4390  145.9390 C   0  0  2  0  0  3  0  0  0  0  0  0
  186.9120  177.1320  144.6790 C   0  0  1  0  0  3  0  0  0  0  0  0
  186.0730  177.5170  143.4590 C   0  0  0  0  0  2  0  0  0  0  0  0
  188.2650  177.8560  144.6570 C   0  0  0  0  0  2  0  0  0  0  0  0
  189.4420  176.8910  144.5560 C   0  0  0  0  0  2  0  0  0  0  0  0
  190.7780  177.5640  144.8460 C   0  0  2  0  0  3  0  0  0  0  0  0
  191.2470  178.2680  143.5840 C   0  0  0  0  0  2  0  0  0  0  0  0
  191.8910  177.2860  142.6220 C   0  0  0  0  0  2  0  0  0  0  0  0
  190.9900  177.1050  141.4150 C   0  0  0  0  0  2  0  0  0  0  0  0
  191.7060  177.4860  140.2060 N   0  0  0  0  0  0  0  0  0  0  0  0
  193.1230  177.3370  140.4890 C   0  0  0  0  0  1  0  0  0  0  0  0
  191.3730  176.5080  139.1790 C   0  0  0  0  0  2  0  0  0  0  0  0
  192.2220  176.6660  138.0850 O   0  0  0  0  0  1  0  0  0  0  0  0
  191.8180  176.5420  145.2910 C   0  0  0  0  0  2  0  0  0  0  0  0
  191.1490  177.1930  147.4850 O   0  0  0  0  0  1  0  0  0  0  0  0
  192.2810  175.2010  147.3460 O   0  0  0  0  0  0  0  0  0  0  0  0
  191.7370  176.3410  146.7670 C   0  0  0  0  0  0  0  0  0  0  0  0
  181.6010  178.9600  139.3030 N   0  0  0  0  0  2  0  0  0  0  0  0
  180.6490  177.9170  139.6830 C   0  0  0  0  0  2  0  0  0  0  0  0
  179.7100  175.0170  139.7630 O   0  0  0  0  0  0  0  0  0  0  0  0
  180.8280  176.6750  138.8090 C   0  0  1  0  0  3  0  0  0  0  0  0
  179.7070  177.8360  136.8350 C   0  0  0  0  0  1  0  0  0  0  0  0
  179.6270  173.8470  138.9770 C   0  0  0  0  0  2  0  0  0  0  0  0
  179.8420  175.2970  136.8240 C   0  0  1  0  0  3  0  0  0  0  0  0
  181.5900  173.7880  137.5880 O   0  0  0  0  0  1  0  0  0  0  0  0
  180.9340  175.5080  139.6100 O   0  0  0  0  0  0  0  0  0  0  0  0
  179.7570  176.5760  137.6940 C   0  0  1  0  0  3  0  0  0  0  0  0
  180.6850  175.4900  135.7240 O   0  0  0  0  0  1  0  0  0  0  0  0
  180.2050  173.9870  137.5570 C   0  0  1  0  0  3  0  0  0  0  0  0
  1  7  1  1  0  0  0
  2  3  1  6  0  0  0
  2  1  1  0  0  0  0
  2 22  1  0  0  0  0
  4 44  1  6  0  0  0
  4  6  1  0  0  0  0
  5  4  1  0  0  0  0
  5  8  1  0  0  0  0
  6  1  1  0  0  0  0
  8 12  1  6  0  0  0
  8  3  1  0  0  0  0
  9 19  1  0  0  0  0
  9 13  2  0  0  0  0
 10 18  2  0  0  0  0
 11 10  1  0  0  0  0
 12 18  1  0  0  0  0
 13 16  1  0  0  0  0
 14 17  1  0  0  0  0
 15 14  1  0  0  0  0
 16 14  2  0  0  0  0
 16 11  1  0  0  0  0
 17 12  2  0  0  0  0
 19 15  2  0  0  0  0
 20 21  1  0  0  0  0
 20  9  1  0  0  0  0
 22 29  1  1  0  0  0
 22 24  1  0  0  0  0
 24 25  1  0  0  0  0
 25 27  1  0  0  0  0
 25 23  2  0  0  0  0
 27 26  1  1  0  0  0
 28 30  1  1  0  0  0
 28 27  1  0  0  0  0
 29 28  1  0  0  0  0
 31 30  1  0  0  0  0
 31 32  1  0  0  0  0
 32 33  1  6  0  0  0
 32 40  1  0  0  0  0
 34 33  1  0  0  0  0
 35 34  1  0  0  0  0
 36 37  1  0  0  0  0
 36 35  1  0  0  0  0
 38 36  1  0  0  0  0
 39 38  1  0  0  0  0
 40 43  1  0  0  0  0
 43 42  2  0  0  0  0
 43 41  1  0  0  0  0
 44 45  1  0  0  0  0
 47 52  1  0  0  0  0
 47 45  1  1  0  0  0
 49 46  1  0  0  0  0
 50 54  1  6  0  0  0
 50 55  1  0  0  0  0
 50 53  1  0  0  0  0
 52 46  1  0  0  0  0
 53 48  1  6  0  0  0
 53 47  1  0  0  0  0
 55 51  1  1  0  0  0
 55 49  1  0  0  0  0
M  END
>  <MODEL>
9

>  <REMARK>
 VINA RESULT:      -7.3      3.223      9.010
  Name = 
  16 active torsions:
  status: ('A' for Active; 'I' for Inactive)
    1  A    between atoms: C_1  and  O_4
    2  A    between atoms: C_2  and  C_26
    3  A    between atoms: C_2  and  C_34
    4  A    between atoms: C_3  and  C_25
    5  A    between atoms: C_3  and  C_37
    6  A    between atoms: C_6  and  C_30
    7  A    between atoms: C_7  and  C_25
    8  A    between atoms: C_7  and  C_39
    9  A    between atoms: C_8  and  N_28
   10  A    between atoms: N_12  and  C_15
   11  A    between atoms: C_23  and  C_53
   12  A    between atoms: C_24  and  N_32
   13  A    between atoms: C_25  and  C_34
   14  A    between atoms: C_26  and  N_28
   15  A    between atoms: C_30  and  N_32
   16  A    between atoms: C_39  and  C_49
                            x       y       z     vdW  Elec       q    Type
                         _______ _______ _______ _____ _____    ______ ____

>  <TORSDO>
F 16

$$$$
