=
 OpenBabel11042412313D

 31 36  0  0  1  0  0  0  0  0999 V2000
  187.5150  177.2160  146.7690 C   0  0  0  0  0  3  0  0  0  0  0  0
  191.0080  176.4970  146.6740 O   0  0  0  0  0  0  0  0  0  0  0  0
  181.8790  178.9010  142.3070 C   0  0  0  0  0  0  0  0  0  0  0  0
  185.7080  178.5290  142.7180 C   0  0  1  0  0  3  0  0  0  0  0  0
  180.5830  179.4180  141.8170 C   0  0  0  0  0  0  0  0  0  0  0  0
  189.7890  177.7880  145.1080 C   0  0  0  0  0  3  0  0  0  0  0  0
  183.6960  177.8680  139.1740 C   0  0  2  0  0  3  0  0  0  0  0  0
  181.5370  179.2700  139.5110 C   0  0  0  0  0  2  0  0  0  0  0  0
  184.6960  179.5100  143.2910 C   0  0  1  0  0  3  0  0  0  0  0  0
  185.0820  177.9150  139.8340 C   0  0  2  0  0  3  0  0  0  0  0  0
  185.3270  179.2290  140.3900 N   0  0  2  0  0  0  0  0  0  0  0  0
  188.6080  178.2930  144.7390 C   0  0  0  0  0  3  0  0  0  0  0  0
  188.6950  176.7130  147.1380 C   0  0  0  0  0  3  0  0  0  0  0  0
  182.2780  179.1150  143.5260 N   0  0  0  0  0  0  0  0  0  0  0  0
  180.4210  179.5360  140.4930 C   0  0  0  0  0  3  0  0  0  0  0  0
  182.7580  178.2680  141.3710 N   0  0  0  0  0  0  0  0  0  0  0  0
  185.8900  178.8040  139.1980 O   0  0  0  0  0  0  0  0  0  0  0  0
  184.9660  178.2770  146.0180 C   0  0  0  0  0  2  0  0  0  0  0  0
  186.3320  179.0830  141.4370 C   0  0  0  0  0  2  0  0  0  0  0  0
  189.8960  176.9710  146.3270 C   0  0  0  0  0  0  0  0  0  0  0  0
  183.6000  178.7140  144.0070 C   0  0  2  0  0  3  0  0  0  0  0  0
  186.0960  179.3910  143.9070 C   0  0  1  0  0  3  0  0  0  0  0  0
  182.6180  178.3910  140.0850 C   0  0  0  0  0  0  0  0  0  0  0  0
  186.1910  178.5500  145.1680 C   0  0  0  0  0  0  0  0  0  0  0  0
  187.3840  178.0430  145.5420 C   0  0  0  0  0  0  0  0  0  0  0  0
  183.7060  178.9530  145.4970 C   0  0  0  0  0  2  0  0  0  0  0  0
  179.4620  179.7510  142.7240 C   0  0  0  0  0  0  0  0  0  0  0  0
  178.9310  178.7760  143.6180 N   0  0  0  0  0  1  0  0  0  0  0  0
  178.9510  180.9030  142.7080 O   0  0  0  0  0  0  0  0  0  0  0  0
  183.4030  176.5510  138.8120 O   0  0  0  0  0  0  0  0  0  0  0  0
  183.7900  176.4520  137.4750 C   0  0  0  0  0  1  0  0  0  0  0  0
  1 13  2  0  0  0  0
  3 14  2  0  0  0  0
  4 19  1  6  0  0  0
  4  9  1  0  0  0  0
  4 22  1  0  0  0  0
  5  3  1  0  0  0  0
  5 27  1  0  0  0  0
  6 20  1  0  0  0  0
  7 30  1  1  0  0  0
  7 10  1  0  0  0  0
  7 23  1  0  0  0  0
  8 23  1  0  0  0  0
  8 15  1  0  0  0  0
  9 22  1  0  0  0  0
  9 21  1  0  0  0  0
 10 11  1  0  0  0  0
 11 19  1  0  0  0  0
 12  6  2  0  0  0  0
 12 25  1  0  0  0  0
 14 21  1  0  0  0  0
 15  5  2  0  0  0  0
 16  3  1  0  0  0  0
 17 10  1  0  0  0  0
 17 11  1  0  0  0  0
 20  2  2  0  0  0  0
 20 13  1  0  0  0  0
 21 26  1  0  0  0  0
 22 24  1  0  0  0  0
 23 16  2  0  0  0  0
 24 25  2  0  0  0  0
 24 18  1  0  0  0  0
 25  1  1  0  0  0  0
 26 18  1  0  0  0  0
 27 28  1  0  0  0  0
 29 27  2  0  0  0  0
 31 30  1  0  0  0  0
M  END
>  <MODEL>
1

>  <REMARK>
 VINA RESULT:      -9.1      0.000      0.000
  Name = 
  2 active torsions:
  status: ('A' for Active; 'I' for Inactive)
    1  A    between atoms: O_3  and  C_11
    2  A    between atoms: C_6  and  C_7
                            x       y       z     vdW  Elec       q    Type
                         _______ _______ _______ _____ _____    ______ ____

>  <TORSDO>
F 2

$$$$
=
 OpenBabel11042412313D

 31 36  0  0  1  0  0  0  0  0999 V2000
  190.8820  175.7910  138.7080 C   0  0  0  0  0  3  0  0  0  0  0  0
  191.4590  175.5950  135.1930 O   0  0  0  0  0  0  0  0  0  0  0  0
  185.8130  178.0590  143.5730 C   0  0  0  0  0  0  0  0  0  0  0  0
  187.0400  178.0730  139.9050 C   0  0  1  0  0  3  0  0  0  0  0  0
  185.1810  178.5330  144.8240 C   0  0  0  0  0  0  0  0  0  0  0  0
  190.0630  177.1470  136.3110 C   0  0  0  0  0  3  0  0  0  0  0  0
  183.0680  178.3130  141.0070 C   0  0  2  0  0  3  0  0  0  0  0  0
  183.2360  179.2460  143.4240 C   0  0  0  0  0  2  0  0  0  0  0  0
  187.5940  178.6830  141.1830 C   0  0  1  0  0  3  0  0  0  0  0  0
  184.0380  178.3270  139.8160 C   0  0  2  0  0  3  0  0  0  0  0  0
  184.9800  179.4180  139.9500 N   0  0  2  0  0  0  0  0  0  0  0  0
  189.5680  177.5860  137.4720 C   0  0  0  0  0  3  0  0  0  0  0  0
  191.3770  175.3540  137.5480 C   0  0  0  0  0  3  0  0  0  0  0  0
  187.1030  177.9260  143.4730 N   0  0  0  0  0  0  0  0  0  0  0  0
  183.9450  179.0410  144.7410 C   0  0  0  0  0  3  0  0  0  0  0  0
  184.9860  177.8730  142.4200 N   0  0  0  0  0  0  0  0  0  0  0  0
  183.8950  179.4680  139.0910 O   0  0  0  0  0  0  0  0  0  0  0  0
  189.8480  176.6970  141.2180 C   0  0  0  0  0  2  0  0  0  0  0  0
  186.1600  179.0790  139.1620 C   0  0  0  0  0  2  0  0  0  0  0  0
  190.9940  176.0080  136.2860 C   0  0  0  0  0  0  0  0  0  0  0  0
  187.7650  177.5670  142.2200 C   0  0  2  0  0  3  0  0  0  0  0  0
  188.4790  178.5570  139.9370 C   0  0  1  0  0  3  0  0  0  0  0  0
  183.7920  178.3780  142.3250 C   0  0  0  0  0  0  0  0  0  0  0  0
  189.4390  177.3800  139.9280 C   0  0  0  0  0  0  0  0  0  0  0  0
  189.9410  176.9390  138.7560 C   0  0  0  0  0  0  0  0  0  0  0  0
  189.2400  177.3340  142.4590 C   0  0  0  0  0  2  0  0  0  0  0  0
  185.8370  178.4140  146.1450 C   0  0  0  0  0  0  0  0  0  0  0  0
  185.7000  179.4400  147.1240 N   0  0  0  0  0  1  0  0  0  0  0  0
  186.5400  177.4040  146.4170 O   0  0  0  0  0  0  0  0  0  0  0  0
  182.2940  177.1520  140.9560 O   0  0  0  0  0  0  0  0  0  0  0  0
  181.2210  177.4720  140.1230 C   0  0  0  0  0  1  0  0  0  0  0  0
  1 25  1  0  0  0  0
  2 20  2  0  0  0  0
  3  5  1  0  0  0  0
  4 19  1  6  0  0  0
  4 22  1  0  0  0  0
  4  9  1  0  0  0  0
  5 27  1  0  0  0  0
  6 12  2  0  0  0  0
  7 30  1  1  0  0  0
  7 23  1  0  0  0  0
  8 15  1  0  0  0  0
  9 21  1  0  0  0  0
 10 11  1  0  0  0  0
 10  7  1  0  0  0  0
 12 25  1  0  0  0  0
 13  1  2  0  0  0  0
 14  3  2  0  0  0  0
 15  5  2  0  0  0  0
 16  3  1  0  0  0  0
 17 10  1  0  0  0  0
 17 11  1  0  0  0  0
 18 26  1  0  0  0  0
 19 11  1  0  0  0  0
 20  6  1  0  0  0  0
 20 13  1  0  0  0  0
 21 26  1  0  0  0  0
 21 14  1  0  0  0  0
 22  9  1  0  0  0  0
 23 16  2  0  0  0  0
 23  8  1  0  0  0  0
 24 22  1  0  0  0  0
 24 18  1  0  0  0  0
 25 24  2  0  0  0  0
 27 29  2  0  0  0  0
 27 28  1  0  0  0  0
 31 30  1  0  0  0  0
M  END
>  <MODEL>
2

>  <REMARK>
 VINA RESULT:      -8.2      3.744      6.135
  Name = 
  2 active torsions:
  status: ('A' for Active; 'I' for Inactive)
    1  A    between atoms: O_3  and  C_11
    2  A    between atoms: C_6  and  C_7
                            x       y       z     vdW  Elec       q    Type
                         _______ _______ _______ _____ _____    ______ ____

>  <TORSDO>
F 2

$$$$
=
 OpenBabel11042412313D

 31 36  0  0  1  0  0  0  0  0999 V2000
  189.1210  176.7850  146.3390 C   0  0  0  0  0  3  0  0  0  0  0  0
  192.0510  175.7860  148.1120 O   0  0  0  0  0  0  0  0  0  0  0  0
  186.6940  177.9550  139.4650 C   0  0  0  0  0  0  0  0  0  0  0  0
  189.7300  177.3730  141.7910 C   0  0  1  0  0  3  0  0  0  0  0  0
  185.9010  178.4620  138.3240 C   0  0  0  0  0  0  0  0  0  0  0  0
  191.9730  176.8200  145.9830 C   0  0  0  0  0  3  0  0  0  0  0  0
  189.5810  176.1570  137.8480 C   0  0  2  0  0  3  0  0  0  0  0  0
  187.8010  177.7660  136.8560 C   0  0  0  0  0  2  0  0  0  0  0  0
  188.7530  178.5290  141.6350 C   0  0  1  0  0  3  0  0  0  0  0  0
  190.4670  176.2300  139.1010 C   0  0  2  0  0  3  0  0  0  0  0  0
  190.6360  177.6060  139.5160 N   0  0  2  0  0  0  0  0  0  0  0  0
  191.2190  177.3290  145.0050 C   0  0  0  0  0  3  0  0  0  0  0  0
  189.8750  176.2760  147.3160 C   0  0  0  0  0  3  0  0  0  0  0  0
  186.4910  178.3840  140.6760 N   0  0  0  0  0  0  0  0  0  0  0  0
  186.4160  178.3160  137.0960 C   0  0  0  0  0  3  0  0  0  0  0  0
  187.7910  177.0750  139.1960 N   0  0  0  0  0  0  0  0  0  0  0  0
  191.6190  176.9010  138.8400 O   0  0  0  0  0  0  0  0  0  0  0  0
  187.4680  177.8670  144.2690 C   0  0  0  0  0  2  0  0  0  0  0  0
  190.9760  177.5990  140.9340 C   0  0  0  0  0  2  0  0  0  0  0  0
  191.3410  176.2660  147.1910 C   0  0  0  0  0  0  0  0  0  0  0  0
  187.3290  177.9870  141.8060 C   0  0  2  0  0  3  0  0  0  0  0  0
  189.6430  178.4280  142.8800 C   0  0  1  0  0  3  0  0  0  0  0  0
  188.3070  176.9410  138.0110 C   0  0  0  0  0  0  0  0  0  0  0  0
  188.9770  177.8600  144.1210 C   0  0  0  0  0  0  0  0  0  0  0  0
  189.7380  177.3490  145.1110 C   0  0  0  0  0  0  0  0  0  0  0  0
  186.7480  178.5180  143.0980 C   0  0  0  0  0  2  0  0  0  0  0  0
  184.5580  179.0620  138.4890 C   0  0  0  0  0  0  0  0  0  0  0  0
  183.3880  178.3590  138.0800 N   0  0  0  0  0  1  0  0  0  0  0  0
  184.4330  180.2140  138.9830 O   0  0  0  0  0  0  0  0  0  0  0  0
  189.2770  174.8220  137.5760 O   0  0  0  0  0  0  0  0  0  0  0  0
  190.4140  174.3160  136.9450 C   0  0  0  0  0  1  0  0  0  0  0  0
  1 13  2  0  0  0  0
  3 14  2  0  0  0  0
  4 19  1  6  0  0  0
  4 22  1  0  0  0  0
  5 27  1  0  0  0  0
  5  3  1  0  0  0  0
  6 20  1  0  0  0  0
  7 30  1  1  0  0  0
  7 23  1  0  0  0  0
  7 10  1  0  0  0  0
  8 15  1  0  0  0  0
  8 23  1  0  0  0  0
  9  4  1  0  0  0  0
  9 21  1  0  0  0  0
  9 22  1  0  0  0  0
 10 11  1  0  0  0  0
 11 19  1  0  0  0  0
 12 25  1  0  0  0  0
 12  6  2  0  0  0  0
 14 21  1  0  0  0  0
 15  5  2  0  0  0  0
 16  3  1  0  0  0  0
 17 10  1  0  0  0  0
 17 11  1  0  0  0  0
 20 13  1  0  0  0  0
 20  2  2  0  0  0  0
 21 26  1  0  0  0  0
 22 24  1  0  0  0  0
 23 16  2  0  0  0  0
 24 18  1  0  0  0  0
 24 25  2  0  0  0  0
 25  1  1  0  0  0  0
 26 18  1  0  0  0  0
 27 29  2  0  0  0  0
 28 27  1  0  0  0  0
 31 30  1  0  0  0  0
M  END
>  <MODEL>
3

>  <REMARK>
 VINA RESULT:      -8.1      3.401      5.072
  Name = 
  2 active torsions:
  status: ('A' for Active; 'I' for Inactive)
    1  A    between atoms: O_3  and  C_11
    2  A    between atoms: C_6  and  C_7
                            x       y       z     vdW  Elec       q    Type
                         _______ _______ _______ _____ _____    ______ ____

>  <TORSDO>
F 2

$$$$
=
 OpenBabel11042412313D

 31 36  0  0  1  0  0  0  0  0999 V2000
  188.2920  177.1320  144.3240 C   0  0  0  0  0  3  0  0  0  0  0  0
  191.5900  176.3420  143.2190 O   0  0  0  0  0  0  0  0  0  0  0  0
  181.5430  178.5520  141.6880 C   0  0  0  0  0  0  0  0  0  0  0  0
  185.3150  178.1440  140.9310 C   0  0  1  0  0  3  0  0  0  0  0  0
  180.1560  179.0520  141.5790 C   0  0  0  0  0  0  0  0  0  0  0  0
  189.9390  177.5240  142.0020 C   0  0  0  0  0  3  0  0  0  0  0  0
  182.3130  177.2340  138.2450 C   0  0  2  0  0  3  0  0  0  0  0  0
  180.3530  178.6990  139.1120 C   0  0  0  0  0  2  0  0  0  0  0  0
  184.5220  179.1870  141.7040 C   0  0  1  0  0  3  0  0  0  0  0  0
  183.8350  177.3090  138.4410 C   0  0  2  0  0  3  0  0  0  0  0  0
  184.2300  178.6590  138.7830 N   0  0  2  0  0  0  0  0  0  0  0  0
  188.6980  178.0190  141.9730 C   0  0  0  0  0  3  0  0  0  0  0  0
  189.5320  176.6390  144.3520 C   0  0  0  0  0  3  0  0  0  0  0  0
  182.2970  178.8580  142.7030 N   0  0  0  0  0  0  0  0  0  0  0  0
  179.5930  179.0640  140.3640 C   0  0  0  0  0  3  0  0  0  0  0  0
  182.0950  177.8290  140.5820 N   0  0  0  0  0  0  0  0  0  0  0  0
  184.4010  178.1280  137.5150 O   0  0  0  0  0  0  0  0  0  0  0  0
  185.6280  178.1750  144.3070 C   0  0  0  0  0  2  0  0  0  0  0  0
  185.5100  178.5790  139.4780 C   0  0  0  0  0  2  0  0  0  0  0  0
  190.4220  176.8070  143.1920 C   0  0  0  0  0  0  0  0  0  0  0  0
  183.7050  178.4720  142.7850 C   0  0  2  0  0  3  0  0  0  0  0  0
  186.0440  179.0920  141.8660 C   0  0  1  0  0  3  0  0  0  0  0  0
  181.5650  177.8490  139.3960 C   0  0  0  0  0  0  0  0  0  0  0  0
  186.5290  178.3550  143.1020 C   0  0  0  0  0  0  0  0  0  0  0  0
  187.7830  177.8580  143.1320 C   0  0  0  0  0  0  0  0  0  0  0  0
  184.2630  178.8300  144.1450 C   0  0  0  0  0  2  0  0  0  0  0  0
  179.3660  179.4780  142.7560 C   0  0  0  0  0  0  0  0  0  0  0  0
  179.0710  178.5640  143.8090 N   0  0  0  0  0  1  0  0  0  0  0  0
  178.9310  180.6580  142.8360 O   0  0  0  0  0  0  0  0  0  0  0  0
  181.9330  175.8980  138.1020 O   0  0  0  0  0  0  0  0  0  0  0  0
  183.0980  175.1660  138.3400 C   0  0  0  0  0  1  0  0  0  0  0  0
  1 13  2  0  0  0  0
  3 14  2  0  0  0  0
  4 19  1  6  0  0  0
  4  9  1  0  0  0  0
  4 22  1  0  0  0  0
  5  3  1  0  0  0  0
  5 27  1  0  0  0  0
  6 20  1  0  0  0  0
  7 30  1  1  0  0  0
  7 10  1  0  0  0  0
  7 23  1  0  0  0  0
  8 23  1  0  0  0  0
  8 15  1  0  0  0  0
  9 22  1  0  0  0  0
  9 21  1  0  0  0  0
 10 11  1  0  0  0  0
 11 19  1  0  0  0  0
 12  6  2  0  0  0  0
 12 25  1  0  0  0  0
 14 21  1  0  0  0  0
 15  5  2  0  0  0  0
 16  3  1  0  0  0  0
 17 10  1  0  0  0  0
 17 11  1  0  0  0  0
 20  2  2  0  0  0  0
 20 13  1  0  0  0  0
 21 26  1  0  0  0  0
 22 24  1  0  0  0  0
 23 16  2  0  0  0  0
 24 25  2  0  0  0  0
 24 18  1  0  0  0  0
 25  1  1  0  0  0  0
 26 18  1  0  0  0  0
 27 29  2  0  0  0  0
 27 28  1  0  0  0  0
 30 31  1  0  0  0  0
M  END
>  <MODEL>
4

>  <REMARK>
 VINA RESULT:      -8.1      1.580      1.953
  Name = 
  2 active torsions:
  status: ('A' for Active; 'I' for Inactive)
    1  A    between atoms: O_3  and  C_11
    2  A    between atoms: C_6  and  C_7
                            x       y       z     vdW  Elec       q    Type
                         _______ _______ _______ _____ _____    ______ ____

>  <TORSDO>
F 2

$$$$
=
 OpenBabel11042412313D

 31 36  0  0  1  0  0  0  0  0999 V2000
  188.1590  177.1710  145.0110 C   0  0  0  0  0  3  0  0  0  0  0  0
  191.6800  176.6220  144.8410 O   0  0  0  0  0  0  0  0  0  0  0  0
  182.3080  178.2810  140.6480 C   0  0  0  0  0  0  0  0  0  0  0  0
  186.1620  178.1280  140.9500 C   0  0  1  0  0  3  0  0  0  0  0  0
  180.9720  178.7000  140.1710 C   0  0  0  0  0  0  0  0  0  0  0  0
  190.3470  177.7480  143.2400 C   0  0  0  0  0  3  0  0  0  0  0  0
  184.0770  177.1400  137.5250 C   0  0  2  0  0  3  0  0  0  0  0  0
  181.8600  178.4510  137.8470 C   0  0  0  0  0  2  0  0  0  0  0  0
  185.1180  179.0920  141.4950 C   0  0  1  0  0  3  0  0  0  0  0  0
  185.4790  177.2990  138.1330 C   0  0  2  0  0  3  0  0  0  0  0  0
  185.6730  178.6570  138.5970 N   0  0  2  0  0  0  0  0  0  0  0  0
  189.1310  178.1680  142.8810 C   0  0  0  0  0  3  0  0  0  0  0  0
  189.3740  176.7530  145.3700 C   0  0  0  0  0  3  0  0  0  0  0  0
  182.7330  178.5930  141.8360 N   0  0  0  0  0  0  0  0  0  0  0  0
  180.7630  178.7240  138.8480 C   0  0  0  0  0  3  0  0  0  0  0  0
  183.1890  177.6330  139.7230 N   0  0  0  0  0  0  0  0  0  0  0  0
  186.2190  178.1840  137.4150 O   0  0  0  0  0  0  0  0  0  0  0  0
  185.5360  178.0530  144.2820 C   0  0  0  0  0  2  0  0  0  0  0  0
  186.7160  178.6280  139.6150 C   0  0  0  0  0  2  0  0  0  0  0  0
  190.5350  177.0170  144.5040 C   0  0  0  0  0  0  0  0  0  0  0  0
  184.0870  178.2900  142.2960 C   0  0  2  0  0  3  0  0  0  0  0  0
  186.5410  179.0830  142.0680 C   0  0  1  0  0  3  0  0  0  0  0  0
  183.0030  177.6660  138.4370 C   0  0  0  0  0  0  0  0  0  0  0  0
  186.7180  178.3310  143.3750 C   0  0  0  0  0  0  0  0  0  0  0  0
  187.9470  177.9100  143.7390 C   0  0  0  0  0  0  0  0  0  0  0  0
  184.2270  178.6300  143.7630 C   0  0  0  0  0  2  0  0  0  0  0  0
  179.8640  179.0340  141.0930 C   0  0  0  0  0  0  0  0  0  0  0  0
  179.0980  178.0080  141.7170 N   0  0  0  0  0  1  0  0  0  0  0  0
  179.5740  180.2380  141.3290 O   0  0  0  0  0  0  0  0  0  0  0  0
  183.8430  175.7900  137.2570 O   0  0  0  0  0  0  0  0  0  0  0  0
  183.8040  175.7010  135.8650 C   0  0  0  0  0  1  0  0  0  0  0  0
  1 13  2  0  0  0  0
  3 14  2  0  0  0  0
  4 19  1  6  0  0  0
  4  9  1  0  0  0  0
  4 22  1  0  0  0  0
  5  3  1  0  0  0  0
  5 27  1  0  0  0  0
  6 20  1  0  0  0  0
  7 30  1  1  0  0  0
  7 10  1  0  0  0  0
  7 23  1  0  0  0  0
  8 23  1  0  0  0  0
  8 15  1  0  0  0  0
  9 22  1  0  0  0  0
  9 21  1  0  0  0  0
 10 11  1  0  0  0  0
 11 19  1  0  0  0  0
 12  6  2  0  0  0  0
 12 25  1  0  0  0  0
 14 21  1  0  0  0  0
 15  5  2  0  0  0  0
 16  3  1  0  0  0  0
 17 10  1  0  0  0  0
 17 11  1  0  0  0  0
 20  2  2  0  0  0  0
 20 13  1  0  0  0  0
 21 26  1  0  0  0  0
 22 24  1  0  0  0  0
 23 16  2  0  0  0  0
 24 25  2  0  0  0  0
 24 18  1  0  0  0  0
 25  1  1  0  0  0  0
 26 18  1  0  0  0  0
 27 29  2  0  0  0  0
 27 28  1  0  0  0  0
 31 30  1  0  0  0  0
M  END
>  <MODEL>
5

>  <REMARK>
 VINA RESULT:      -7.6      1.464      1.870
  Name = 
  2 active torsions:
  status: ('A' for Active; 'I' for Inactive)
    1  A    between atoms: O_3  and  C_11
    2  A    between atoms: C_6  and  C_7
                            x       y       z     vdW  Elec       q    Type
                         _______ _______ _______ _____ _____    ______ ____

>  <TORSDO>
F 2

$$$$
=
 OpenBabel11042412313D

 31 36  0  0  1  0  0  0  0  0999 V2000
  188.5840  177.6530  142.2400 C   0  0  0  0  0  3  0  0  0  0  0  0
  191.4970  177.0330  140.2770 O   0  0  0  0  0  0  0  0  0  0  0  0
  181.2540  178.2570  141.5970 C   0  0  0  0  0  0  0  0  0  0  0  0
  184.6760  178.0880  139.8020 C   0  0  1  0  0  3  0  0  0  0  0  0
  179.8480  178.6300  141.8650 C   0  0  0  0  0  0  0  0  0  0  0  0
  189.4530  177.9540  139.5170 C   0  0  0  0  0  3  0  0  0  0  0  0
  181.1500  176.6820  138.1790 C   0  0  2  0  0  3  0  0  0  0  0  0
  179.3730  178.0580  139.4770 C   0  0  0  0  0  2  0  0  0  0  0  0
  184.0300  179.1320  140.7000 C   0  0  1  0  0  3  0  0  0  0  0  0
  182.6480  176.8990  137.9160 C   0  0  2  0  0  3  0  0  0  0  0  0
  182.9780  178.3040  138.0350 N   0  0  2  0  0  0  0  0  0  0  0  0
  188.2100  178.3400  139.8180 C   0  0  0  0  0  3  0  0  0  0  0  0
  189.8260  177.2680  141.9390 C   0  0  0  0  0  3  0  0  0  0  0  0
  182.2280  178.7200  142.3250 N   0  0  0  0  0  0  0  0  0  0  0  0
  178.9650  178.4790  140.8680 C   0  0  0  0  0  3  0  0  0  0  0  0
  181.5430  177.4780  140.4310 N   0  0  0  0  0  0  0  0  0  0  0  0
  182.8370  177.6690  136.8110 O   0  0  0  0  0  0  0  0  0  0  0  0
  185.9300  178.4690  142.9300 C   0  0  0  0  0  2  0  0  0  0  0  0
  184.4040  178.3960  138.3290 C   0  0  0  0  0  2  0  0  0  0  0  0
  190.3270  177.3970  140.5610 C   0  0  0  0  0  0  0  0  0  0  0  0
  183.6340  178.4600  142.0190 C   0  0  2  0  0  3  0  0  0  0  0  0
  185.5370  179.1780  140.4170 C   0  0  1  0  0  3  0  0  0  0  0  0
  180.6980  177.3420  139.4530 C   0  0  0  0  0  0  0  0  0  0  0  0
  186.4270  178.6050  141.5050 C   0  0  0  0  0  0  0  0  0  0  0  0
  187.6840  178.2180  141.2020 C   0  0  0  0  0  0  0  0  0  0  0  0
  184.5140  178.9910  143.1290 C   0  0  0  0  0  2  0  0  0  0  0  0
  179.3840  179.1010  143.1890 C   0  0  0  0  0  0  0  0  0  0  0  0
  179.4270  178.2430  144.3260 N   0  0  0  0  0  1  0  0  0  0  0  0
  178.9310  180.2690  143.3250 O   0  0  0  0  0  0  0  0  0  0  0  0
  180.8890  175.3120  138.2440 O   0  0  0  0  0  0  0  0  0  0  0  0
  180.3600  174.9860  136.9940 C   0  0  0  0  0  1  0  0  0  0  0  0
  2 20  2  0  0  0  0
  3  5  1  0  0  0  0
  3 14  2  0  0  0  0
  4 19  1  6  0  0  0
  4 22  1  0  0  0  0
  4  9  1  0  0  0  0
  5 27  1  0  0  0  0
  6 12  2  0  0  0  0
  6 20  1  0  0  0  0
  7 30  1  1  0  0  0
  7 23  1  0  0  0  0
  8 15  1  0  0  0  0
  9 21  1  0  0  0  0
 10 11  1  0  0  0  0
 10  7  1  0  0  0  0
 11 19  1  0  0  0  0
 12 25  1  0  0  0  0
 13  1  2  0  0  0  0
 15  5  2  0  0  0  0
 16  3  1  0  0  0  0
 17 10  1  0  0  0  0
 17 11  1  0  0  0  0
 18 26  1  0  0  0  0
 20 13  1  0  0  0  0
 21 14  1  0  0  0  0
 21 26  1  0  0  0  0
 22  9  1  0  0  0  0
 22 24  1  0  0  0  0
 23  8  1  0  0  0  0
 23 16  2  0  0  0  0
 24 18  1  0  0  0  0
 25 24  2  0  0  0  0
 25  1  1  0  0  0  0
 27 29  2  0  0  0  0
 27 28  1  0  0  0  0
 31 30  1  0  0  0  0
M  END
>  <MODEL>
6

>  <REMARK>
 VINA RESULT:      -7.4      2.600      3.465
  Name = 
  2 active torsions:
  status: ('A' for Active; 'I' for Inactive)
    1  A    between atoms: O_3  and  C_11
    2  A    between atoms: C_6  and  C_7
                            x       y       z     vdW  Elec       q    Type
                         _______ _______ _______ _____ _____    ______ ____

>  <TORSDO>
F 2

$$$$
=
 OpenBabel11042412313D

 31 36  0  0  1  0  0  0  0  0999 V2000
  184.6230  174.9900  135.4360 C   0  0  0  0  0  3  0  0  0  0  0  0
  181.1870  175.6350  136.1470 O   0  0  0  0  0  0  0  0  0  0  0  0
  191.3740  176.2160  138.1610 C   0  0  0  0  0  0  0  0  0  0  0  0
  187.6050  177.0730  138.2950 C   0  0  1  0  0  3  0  0  0  0  0  0
  192.8390  176.3970  138.2520 C   0  0  0  0  0  0  0  0  0  0  0  0
  183.0420  176.9250  136.8550 C   0  0  0  0  0  3  0  0  0  0  0  0
  190.1160  177.2060  141.5690 C   0  0  2  0  0  3  0  0  0  0  0  0
  192.4400  177.5120  140.4540 C   0  0  0  0  0  2  0  0  0  0  0  0
  188.6880  177.3280  137.2570 C   0  0  1  0  0  3  0  0  0  0  0  0
  188.6830  177.4700  141.0810 C   0  0  2  0  0  3  0  0  0  0  0  0
  188.6890  178.4530  140.0190 N   0  0  2  0  0  0  0  0  0  0  0  0
  184.3680  177.0880  136.8550 C   0  0  0  0  0  3  0  0  0  0  0  0
  183.2980  174.8290  135.4360 C   0  0  0  0  0  3  0  0  0  0  0  0
  190.7800  176.0560  137.0150 N   0  0  0  0  0  0  0  0  0  0  0  0
  193.3280  176.9620  139.3640 C   0  0  0  0  0  3  0  0  0  0  0  0
  190.5950  176.3530  139.3540 N   0  0  0  0  0  0  0  0  0  0  0  0
  188.3220  178.7590  141.3190 O   0  0  0  0  0  0  0  0  0  0  0  0
  187.4680  175.3000  135.4080 C   0  0  0  0  0  2  0  0  0  0  0  0
  187.4700  178.2670  139.2410 C   0  0  0  0  0  2  0  0  0  0  0  0
  182.4360  175.7880  136.1460 C   0  0  0  0  0  0  0  0  0  0  0  0
  189.3260  175.9870  136.8820 C   0  0  2  0  0  3  0  0  0  0  0  0
  187.2060  177.4730  136.8850 C   0  0  1  0  0  3  0  0  0  0  0  0
  191.0560  176.9160  140.4310 C   0  0  0  0  0  0  0  0  0  0  0  0
  186.5960  176.2940  136.1480 C   0  0  0  0  0  0  0  0  0  0  0  0
  185.2560  176.1320  136.1460 C   0  0  0  0  0  0  0  0  0  0  0  0
  188.9500  175.6390  135.4580 C   0  0  0  0  0  2  0  0  0  0  0  0
  193.7690  175.9300  137.1990 C   0  0  0  0  0  0  0  0  0  0  0  0
  194.0810  174.5470  137.0590 N   0  0  0  0  0  1  0  0  0  0  0  0
  194.3090  176.7570  136.4160 O   0  0  0  0  0  0  0  0  0  0  0  0
  190.1080  176.1280  142.4560 O   0  0  0  0  0  0  0  0  0  0  0  0
  190.6270  176.6380  143.6470 C   0  0  0  0  0  1  0  0  0  0  0  0
  1 13  2  0  0  0  0
  1 25  1  0  0  0  0
  3  5  1  0  0  0  0
  3 16  1  0  0  0  0
  4 19  1  1  0  0  0
  5 15  2  0  0  0  0
  7 30  1  1  0  0  0
  9  4  1  0  0  0  0
 10 17  1  0  0  0  0
 10  7  1  0  0  0  0
 11 10  1  0  0  0  0
 11 17  1  0  0  0  0
 12  6  2  0  0  0  0
 13 20  1  0  0  0  0
 14  3  2  0  0  0  0
 15  8  1  0  0  0  0
 16 23  2  0  0  0  0
 18 26  1  0  0  0  0
 18 24  1  0  0  0  0
 19 11  1  0  0  0  0
 20  2  2  0  0  0  0
 20  6  1  0  0  0  0
 21 14  1  0  0  0  0
 21  9  1  0  0  0  0
 22  9  1  0  0  0  0
 22  4  1  0  0  0  0
 23  8  1  0  0  0  0
 23  7  1  0  0  0  0
 24 22  1  0  0  0  0
 25 24  2  0  0  0  0
 25 12  1  0  0  0  0
 26 21  1  0  0  0  0
 27  5  1  0  0  0  0
 28 27  1  0  0  0  0
 29 27  2  0  0  0  0
 30 31  1  0  0  0  0
M  END
>  <MODEL>
7

>  <REMARK>
 VINA RESULT:      -7.0      5.104     10.583
  Name = 
  2 active torsions:
  status: ('A' for Active; 'I' for Inactive)
    1  A    between atoms: O_3  and  C_11
    2  A    between atoms: C_6  and  C_7
                            x       y       z     vdW  Elec       q    Type
                         _______ _______ _______ _____ _____    ______ ____

>  <TORSDO>
F 2

$$$$
=
 OpenBabel11042412313D

 31 36  0  0  1  0  0  0  0  0999 V2000
  181.2060  178.1130  141.5600 C   0  0  0  0  0  3  0  0  0  0  0  0
  179.0640  178.1230  144.4130 O   0  0  0  0  0  0  0  0  0  0  0  0
  188.3540  177.7370  139.7510 C   0  0  0  0  0  0  0  0  0  0  0  0
  185.7240  178.2440  142.5430 C   0  0  1  0  0  3  0  0  0  0  0  0
  189.6210  177.8760  139.0010 C   0  0  0  0  0  0  0  0  0  0  0  0
  181.3260  178.8190  144.3430 C   0  0  0  0  0  3  0  0  0  0  0  0
  189.4310  176.5320  143.1520 C   0  0  2  0  0  3  0  0  0  0  0  0
  190.8030  177.4980  141.1710 C   0  0  0  0  0  2  0  0  0  0  0  0
  186.1360  179.0860  141.3440 C   0  0  1  0  0  3  0  0  0  0  0  0
  188.1360  176.9860  143.8410 C   0  0  2  0  0  3  0  0  0  0  0  0
  187.9260  178.4020  143.6290 N   0  0  2  0  0  0  0  0  0  0  0  0
  182.4300  178.9920  143.6100 C   0  0  0  0  0  3  0  0  0  0  0  0
  180.1030  177.9420  142.2910 C   0  0  0  0  0  3  0  0  0  0  0  0
  187.2440  178.2540  139.3110 N   0  0  0  0  0  0  0  0  0  0  0  0
  190.7650  177.7080  139.6770 C   0  0  0  0  0  3  0  0  0  0  0  0
  188.3930  177.1340  141.0490 N   0  0  0  0  0  0  0  0  0  0  0  0
  188.4020  177.8870  144.8240 O   0  0  0  0  0  0  0  0  0  0  0  0
  183.5470  178.4680  139.9530 C   0  0  0  0  0  2  0  0  0  0  0  0
  186.5000  178.6640  143.7920 C   0  0  0  0  0  2  0  0  0  0  0  0
  180.1030  178.2850  143.7230 C   0  0  0  0  0  0  0  0  0  0  0  0
  186.0020  178.2300  140.0800 C   0  0  2  0  0  3  0  0  0  0  0  0
  184.8220  179.3750  142.0800 C   0  0  1  0  0  3  0  0  0  0  0  0
  189.4970  176.9830  141.7180 C   0  0  0  0  0  0  0  0  0  0  0  0
  183.5670  178.8220  141.4260 C   0  0  0  0  0  0  0  0  0  0  0  0
  182.4510  178.6510  142.1650 C   0  0  0  0  0  0  0  0  0  0  0  0
  184.8600  178.7600  139.2420 C   0  0  0  0  0  2  0  0  0  0  0  0
  189.6620  178.1350  137.5440 C   0  0  0  0  0  0  0  0  0  0  0  0
  190.1180  177.1350  136.6370 N   0  0  0  0  0  1  0  0  0  0  0  0
  189.3050  179.2530  137.0870 O   0  0  0  0  0  0  0  0  0  0  0  0
  189.5180  175.1390  143.2080 O   0  0  0  0  0  0  0  0  0  0  0  0
  190.8340  174.8760  143.5930 C   0  0  0  0  0  1  0  0  0  0  0  0
  1 25  1  0  0  0  0
  1 13  2  0  0  0  0
  3 16  1  0  0  0  0
  4 19  1  1  0  0  0
  5 15  2  0  0  0  0
  5  3  1  0  0  0  0
  7 30  1  6  0  0  0
  7 10  1  0  0  0  0
  8 23  1  0  0  0  0
  9 22  1  0  0  0  0
  9  4  1  0  0  0  0
 10 17  1  0  0  0  0
 11 19  1  0  0  0  0
 11 10  1  0  0  0  0
 11 17  1  0  0  0  0
 12  6  2  0  0  0  0
 13 20  1  0  0  0  0
 14  3  2  0  0  0  0
 14 21  1  0  0  0  0
 15  8  1  0  0  0  0
 16 23  2  0  0  0  0
 18 24  1  0  0  0  0
 20  6  1  0  0  0  0
 20  2  2  0  0  0  0
 21  9  1  0  0  0  0
 22  4  1  0  0  0  0
 23  7  1  0  0  0  0
 24 22  1  0  0  0  0
 24 25  2  0  0  0  0
 25 12  1  0  0  0  0
 26 18  1  0  0  0  0
 26 21  1  0  0  0  0
 27  5  1  0  0  0  0
 28 27  1  0  0  0  0
 29 27  2  0  0  0  0
 30 31  1  0  0  0  0
M  END
>  <MODEL>
8

>  <REMARK>
 VINA RESULT:      -6.9      3.189      7.860
  Name = 
  2 active torsions:
  status: ('A' for Active; 'I' for Inactive)
    1  A    between atoms: O_3  and  C_11
    2  A    between atoms: C_6  and  C_7
                            x       y       z     vdW  Elec       q    Type
                         _______ _______ _______ _____ _____    ______ ____

>  <TORSDO>
F 2

$$$$
=
 OpenBabel11042412313D

 31 36  0  0  1  0  0  0  0  0999 V2000
  186.0560  177.5310  144.4270 C   0  0  0  0  0  3  0  0  0  0  0  0
  187.6470  177.2220  147.6050 O   0  0  0  0  0  0  0  0  0  0  0  0
  187.5640  177.2730  137.2050 C   0  0  0  0  0  0  0  0  0  0  0  0
  188.9430  177.4730  140.8140 C   0  0  1  0  0  3  0  0  0  0  0  0
  187.4740  177.4840  135.7440 C   0  0  0  0  0  0  0  0  0  0  0  0
  188.6660  177.8880  145.5740 C   0  0  0  0  0  3  0  0  0  0  0  0
  190.9250  175.6430  137.6870 C   0  0  2  0  0  3  0  0  0  0  0  0
  189.8820  176.8250  135.6240 C   0  0  0  0  0  2  0  0  0  0  0  0
  188.1580  178.4490  139.9510 C   0  0  1  0  0  3  0  0  0  0  0  0
  191.0180  176.0290  139.1710 C   0  0  2  0  0  3  0  0  0  0  0  0
  190.9020  177.4640  139.3240 N   0  0  2  0  0  0  0  0  0  0  0  0
  188.5230  178.1330  144.2680 C   0  0  0  0  0  3  0  0  0  0  0  0
  186.1990  177.2870  145.7320 C   0  0  0  0  0  3  0  0  0  0  0  0
  186.7420  177.8560  138.0270 N   0  0  0  0  0  0  0  0  0  0  0  0
  188.5610  177.2170  135.0080 C   0  0  0  0  0  3  0  0  0  0  0  0
  188.6660  176.5150  137.7170 N   0  0  0  0  0  0  0  0  0  0  0  0
  192.1150  176.7980  139.4030 O   0  0  0  0  0  0  0  0  0  0  0  0
  185.7030  178.0450  141.6350 C   0  0  0  0  0  2  0  0  0  0  0  0
  190.4460  177.7250  140.6850 C   0  0  0  0  0  2  0  0  0  0  0  0
  187.5120  177.4520  146.3760 C   0  0  0  0  0  0  0  0  0  0  0  0
  186.8750  177.7570  139.4800 C   0  0  2  0  0  3  0  0  0  0  0  0
  188.2650  178.6650  141.4660 C   0  0  1  0  0  3  0  0  0  0  0  0
  189.7310  176.2670  137.0150 C   0  0  0  0  0  0  0  0  0  0  0  0
  187.0640  178.2160  142.2800 C   0  0  0  0  0  0  0  0  0  0  0  0
  187.2080  177.9710  143.5990 C   0  0  0  0  0  0  0  0  0  0  0  0
  185.6860  178.4030  140.1560 C   0  0  0  0  0  2  0  0  0  0  0  0
  186.2270  177.9190  135.0760 C   0  0  0  0  0  0  0  0  0  0  0  0
  185.1170  177.0340  134.9510 N   0  0  0  0  0  1  0  0  0  0  0  0
  186.1350  179.0800  134.5940 O   0  0  0  0  0  0  0  0  0  0  0  0
  190.8500  174.2540  137.5770 O   0  0  0  0  0  0  0  0  0  0  0  0
  192.1350  173.8530  137.2050 C   0  0  0  0  0  1  0  0  0  0  0  0
  1 13  2  0  0  0  0
  3 16  1  0  0  0  0
  3 14  2  0  0  0  0
  4 19  1  6  0  0  0
  4 22  1  0  0  0  0
  5  3  1  0  0  0  0
  6 20  1  0  0  0  0
  7 30  1  1  0  0  0
  7 10  1  0  0  0  0
  8 23  1  0  0  0  0
  9  4  1  0  0  0  0
  9 22  1  0  0  0  0
 10 11  1  0  0  0  0
 10 17  1  0  0  0  0
 11 17  1  0  0  0  0
 11 19  1  0  0  0  0
 12  6  2  0  0  0  0
 13 20  1  0  0  0  0
 14 21  1  0  0  0  0
 15  8  1  0  0  0  0
 15  5  2  0  0  0  0
 18 24  1  0  0  0  0
 20  2  2  0  0  0  0
 21  9  1  0  0  0  0
 21 26  1  0  0  0  0
 22 24  1  0  0  0  0
 23  7  1  0  0  0  0
 23 16  2  0  0  0  0
 24 25  2  0  0  0  0
 25 12  1  0  0  0  0
 25  1  1  0  0  0  0
 26 18  1  0  0  0  0
 27  5  1  0  0  0  0
 28 27  1  0  0  0  0
 29 27  2  0  0  0  0
 31 30  1  0  0  0  0
M  END
>  <MODEL>
9

>  <REMARK>
 VINA RESULT:      -6.7      4.345      6.657
  Name = 
  2 active torsions:
  status: ('A' for Active; 'I' for Inactive)
    1  A    between atoms: O_3  and  C_11
    2  A    between atoms: C_6  and  C_7
                            x       y       z     vdW  Elec       q    Type
                         _______ _______ _______ _____ _____    ______ ____

>  <TORSDO>
F 2

$$$$
