=
 OpenBabel11032420553D

 47 50  0  0  1  0  0  0  0  0999 V2000
  188.3890  177.5000  139.8700 C   0  0  0  0  0  0  0  0  0  0  0  0
  187.1990  178.2150  139.4770 C   0  0  0  0  0  0  0  0  0  0  0  0
  189.0470  177.0680  138.8500 N   0  0  0  0  0  0  0  0  0  0  0  0
  188.8050  177.2970  141.2220 N   0  0  0  0  0  2  0  0  0  0  0  0
  188.3310  177.4650  137.6400 C   0  0  2  0  0  3  0  0  0  0  0  0
  187.1380  178.2190  138.1570 C   0  0  0  0  0  3  0  0  0  0  0  0
  187.8780  176.2280  136.8840 C   0  0  2  0  0  3  0  0  0  0  0  0
  188.6190  176.1180  135.6740 N   0  0  0  0  0  0  0  0  0  0  0  0
  187.2660  176.6090  135.6590 N   0  0  0  0  0  2  0  0  0  0  0  0
  188.5640  174.7210  135.2780 C   0  0  0  0  0  2  0  0  0  0  0  0
  189.1030  173.8360  136.3920 C   0  0  0  0  0  2  0  0  0  0  0  0
  190.6310  173.8810  136.4370 C   0  0  2  0  0  3  0  0  0  0  0  0
  191.2080  172.7040  135.7930 N   0  0  0  0  0  2  0  0  0  0  0  0
  192.4660  173.1160  135.1940 C   0  0  0  0  0  1  0  0  0  0  0  0
  191.1400  174.0790  137.7420 O   0  0  0  0  0  0  0  0  0  0  0  0
  191.7880  175.3240  137.7970 C   0  0  0  0  0  1  0  0  0  0  0  0
  186.2300  178.8970  140.3810 C   0  0  0  0  0  2  0  0  0  0  0  0
  184.1970  180.1430  139.0610 O   0  0  0  0  0  1  0  0  0  0  0  0
  184.5500  178.8130  139.6910 P   0  0  1  0  0  0  0  0  0  0  0  0
  184.4890  177.5960  138.5160 O   0  0  0  0  0  0  0  0  0  0  0  0
  183.4640  178.4650  140.9480 O   0  0  0  0  0  0  0  0  0  0  0  0
  184.2460  178.3450  142.0960 C   0  0  0  0  0  2  0  0  0  0  0  0
  183.4060  178.6700  143.3150 C   0  0  0  0  0  2  0  0  0  0  0  0
  184.2630  178.6750  144.5320 C   0  0  0  0  0  0  0  0  0  0  0  0
  183.8780  179.2690  145.5710 O   0  0  0  0  0  1  0  0  0  0  0  0
  185.4760  177.9990  144.5310 O   0  0  0  0  0  0  0  0  0  0  0  0
  189.9900  176.5190  141.5670 C   0  0  1  0  0  3  0  0  0  0  0  0
  191.8360  177.6650  140.5760 F   0  0  0  0  0  0  0  0  0  0  0  0
  191.1810  177.4570  141.7790 C   0  0  0  0  0  0  0  0  0  0  0  0
  192.0610  176.8720  142.6750 F   0  0  0  0  0  0  0  0  0  0  0  0
  190.6960  178.7860  142.3570 C   0  0  0  0  0  2  0  0  0  0  0  0
  191.2310  179.0360  143.7630 C   0  0  0  0  0  2  0  0  0  0  0  0
  188.8340  178.1640  148.6820 C   0  0  0  0  0  2  0  0  0  0  0  0
  190.5630  177.5450  145.7090 C   0  0  0  0  0  0  0  0  0  0  0  0
  189.8950  177.4580  148.0360 N   0  0  0  0  0  0  0  0  0  0  0  0
  191.1450  177.1800  148.6870 C   0  0  0  0  0  3  0  0  0  0  0  0
  189.5090  177.1050  146.6860 C   0  0  1  0  0  3  0  0  0  0  0  0
  192.1730  176.5350  148.1210 C   0  0  0  0  0  0  0  0  0  0  0  0
  192.1080  175.9820  146.7200 C   0  0  0  0  0  2  0  0  0  0  0  0
  191.7510  177.0200  145.7570 N   0  0  0  0  0  0  0  0  0  0  0  0
  188.2670  177.7150  146.4080 O   0  0  0  0  0  0  0  0  0  0  0  0
  187.7370  178.1560  147.6420 C   0  0  0  0  0  2  0  0  0  0  0  0
  190.2740  178.5800  144.7640 N   0  0  0  0  0  2  0  0  0  0  0  0
  193.6120  177.1550  150.0320 C   0  0  0  0  0  1  0  0  0  0  0  0
  193.3280  176.3620  148.8890 O   0  0  0  0  0  0  0  0  0  0  0  0
  189.7150  175.6800  142.8150 C   0  0  0  0  0  2  0  0  0  0  0  0
  188.3150  175.9370  143.3380 C   0  0  0  0  0  1  0  0  0  0  0  0
  1  4  1  0  0  0  0
  2  1  1  0  0  0  0
  2 17  1  0  0  0  0
  3  1  2  0  0  0  0
  4 27  1  0  0  0  0
  5  6  1  1  0  0  0
  5  3  1  0  0  0  0
  6  2  2  0  0  0  0
  7  9  1  6  0  0  0
  7  5  1  0  0  0  0
  8  7  1  0  0  0  0
  9  8  1  0  0  0  0
 10  8  1  0  0  0  0
 10 11  1  0  0  0  0
 12 11  1  1  0  0  0
 12 15  1  0  0  0  0
 13 12  1  0  0  0  0
 14 13  1  0  0  0  0
 15 16  1  0  0  0  0
 18 19  1  0  0  0  0
 19 20  2  6  0  0  0
 19 17  1  0  0  0  0
 19 21  1  0  0  0  0
 21 22  1  0  0  0  0
 22 23  1  0  0  0  0
 23 24  1  0  0  0  0
 24 25  1  0  0  0  0
 26 24  2  0  0  0  0
 27 29  1  0  0  0  0
 27 46  1  1  0  0  0
 28 29  1  0  0  0  0
 29 31  1  0  0  0  0
 29 30  1  0  0  0  0
 31 32  1  0  0  0  0
 32 43  1  0  0  0  0
 34 40  2  0  0  0  0
 35 33  1  0  0  0  0
 35 36  1  0  0  0  0
 37 34  1  6  0  0  0
 37 35  1  0  0  0  0
 38 36  2  0  0  0  0
 38 45  1  0  0  0  0
 39 38  1  0  0  0  0
 40 39  1  0  0  0  0
 41 37  1  0  0  0  0
 41 42  1  0  0  0  0
 42 33  1  0  0  0  0
 43 34  1  0  0  0  0
 45 44  1  0  0  0  0
 46 47  1  0  0  0  0
M  END
>  <MODEL>
1

>  <REMARK>
 VINA RESULT:      -6.5      0.000      0.000
  Name = 
  19 active torsions:
  status: ('A' for Active; 'I' for Inactive)
    1  A    between atoms: C_1  and  C_8
    2  A    between atoms: C_5  and  O_33
    3  A    between atoms: C_5  and  C_38
    4  A    between atoms: N_6  and  C_24
    5  A    between atoms: C_7  and  P_10
    6  A    between atoms: C_7  and  C_15
    7  A    between atoms: C_8  and  C_11
    8  A    between atoms: C_8  and  N_43
    9  A    between atoms: P_10  and  O_33
   10  A    between atoms: C_11  and  C_12
   11  A    between atoms: C_12  and  C_42
   12  A    between atoms: C_14  and  C_45
   13  A    between atoms: N_18  and  C_22
   14  A    between atoms: C_19  and  C_38
   15  A    between atoms: C_22  and  C_39
   16  A    between atoms: C_24  and  O_34
   17  A    between atoms: C_24  and  C_39
   18  A    between atoms: C_26  and  O_40
   19  A    between atoms: N_36  and  C_42
                            x       y       z     vdW  Elec       q    Type
                         _______ _______ _______ _____ _____    ______ ____

>  <TORSDO>
F 19

$$$$
=
 OpenBabel11032420553D

 47 50  0  0  1  0  0  0  0  0999 V2000
  188.9040  177.2540  140.9360 C   0  0  0  0  0  0  0  0  0  0  0  0
  188.7590  176.9660  142.3430 C   0  0  0  0  0  0  0  0  0  0  0  0
  188.1560  178.2380  140.5690 N   0  0  0  0  0  0  0  0  0  0  0  0
  189.7740  176.5500  140.0480 N   0  0  0  0  0  2  0  0  0  0  0  0
  187.4150  178.7110  141.7360 C   0  0  2  0  0  3  0  0  0  0  0  0
  187.8860  177.8190  142.8500 C   0  0  0  0  0  3  0  0  0  0  0  0
  185.9250  178.5180  141.5090 C   0  0  2  0  0  3  0  0  0  0  0  0
  185.4710  179.4590  140.5430 N   0  0  0  0  0  0  0  0  0  0  0  0
  185.2180  179.6720  141.9440 N   0  0  0  0  0  2  0  0  0  0  0  0
  184.2500  178.9140  139.9730 C   0  0  0  0  0  2  0  0  0  0  0  0
  184.5610  178.1530  138.6940 C   0  0  0  0  0  2  0  0  0  0  0  0
  183.2950  177.5280  138.1050 C   0  0  2  0  0  3  0  0  0  0  0  0
  182.7000  178.4020  137.0980 N   0  0  0  0  0  2  0  0  0  0  0  0
  181.2890  178.5290  137.4190 C   0  0  0  0  0  1  0  0  0  0  0  0
  182.3610  177.1370  139.0930 O   0  0  0  0  0  0  0  0  0  0  0  0
  182.5290  175.7690  139.3660 C   0  0  0  0  0  1  0  0  0  0  0  0
  189.5040  175.9370  143.1230 C   0  0  0  0  0  2  0  0  0  0  0  0
  192.0330  175.4910  144.0360 O   0  0  0  0  0  1  0  0  0  0  0  0
  191.0710  176.6210  143.7430 P   0  0  1  0  0  0  0  0  0  0  0  0
  191.7370  177.6430  142.5700 O   0  0  0  0  0  0  0  0  0  0  0  0
  190.7570  177.4930  145.1640 O   0  0  0  0  0  0  0  0  0  0  0  0
  189.7130  176.8160  145.7960 C   0  0  0  0  0  2  0  0  0  0  0  0
  189.7140  177.1540  147.2740 C   0  0  0  0  0  2  0  0  0  0  0  0
  188.3530  177.5850  147.6940 C   0  0  0  0  0  0  0  0  0  0  0  0
  188.1820  178.1240  148.8170 O   0  0  0  0  0  1  0  0  0  0  0  0
  187.2750  177.4190  146.8340 O   0  0  0  0  0  0  0  0  0  0  0  0
  189.8430  176.8470  138.6220 C   0  0  1  0  0  3  0  0  0  0  0  0
  192.2000  176.8030  139.0070 F   0  0  0  0  0  0  0  0  0  0  0  0
  191.2250  176.4710  138.0800 C   0  0  0  0  0  0  0  0  0  0  0  0
  191.4570  177.1770  136.9100 F   0  0  0  0  0  0  0  0  0  0  0  0
  191.2700  174.9740  137.7740 C   0  0  0  0  0  2  0  0  0  0  0  0
  191.7480  174.6880  136.3540 C   0  0  0  0  0  2  0  0  0  0  0  0
  195.5550  170.9760  137.9110 C   0  0  0  0  0  2  0  0  0  0  0  0
  194.0340  173.5960  136.1690 C   0  0  0  0  0  0  0  0  0  0  0  0
  195.7120  172.2480  137.2800 N   0  0  0  0  0  0  0  0  0  0  0  0
  196.6050  173.2550  137.7860 C   0  0  0  0  0  3  0  0  0  0  0  0
  194.8550  172.3370  136.1170 C   0  0  1  0  0  3  0  0  0  0  0  0
  196.7770  174.4650  137.2400 C   0  0  0  0  0  0  0  0  0  0  0  0
  196.0660  174.8930  135.9810 C   0  0  0  0  0  2  0  0  0  0  0  0
  194.6200  174.7540  136.1160 N   0  0  0  0  0  0  0  0  0  0  0  0
  194.0330  171.1910  136.0870 O   0  0  0  0  0  0  0  0  0  0  0  0
  194.5810  170.2630  137.0010 C   0  0  0  0  0  2  0  0  0  0  0  0
  192.6140  173.5160  136.3310 N   0  0  0  0  0  2  0  0  0  0  0  0
  198.4530  174.9500  138.9900 C   0  0  0  0  0  1  0  0  0  0  0  0
  197.6730  175.3350  137.8680 O   0  0  0  0  0  0  0  0  0  0  0  0
  188.7350  176.0980  137.8820 C   0  0  0  0  0  2  0  0  0  0  0  0
  187.9970  177.0260  136.9370 C   0  0  0  0  0  1  0  0  0  0  0  0
  1  2  1  0  0  0  0
  2  6  2  0  0  0  0
  2 17  1  0  0  0  0
  3  1  2  0  0  0  0
  3  5  1  0  0  0  0
  4  1  1  0  0  0  0
  5  6  1  1  0  0  0
  7  5  1  0  0  0  0
  7  9  1  1  0  0  0
  8  7  1  0  0  0  0
  8  9  1  0  0  0  0
 10  8  1  0  0  0  0
 11 10  1  0  0  0  0
 12 11  1  1  0  0  0
 12 15  1  0  0  0  0
 13 14  1  0  0  0  0
 13 12  1  0  0  0  0
 15 16  1  0  0  0  0
 17 19  1  0  0  0  0
 19 20  2  6  0  0  0
 19 18  1  0  0  0  0
 19 21  1  0  0  0  0
 21 22  1  0  0  0  0
 22 23  1  0  0  0  0
 23 24  1  0  0  0  0
 24 25  1  0  0  0  0
 26 24  2  0  0  0  0
 27 46  1  6  0  0  0
 27  4  1  0  0  0  0
 29 27  1  0  0  0  0
 29 28  1  0  0  0  0
 30 29  1  0  0  0  0
 31 29  1  0  0  0  0
 32 31  1  0  0  0  0
 34 43  1  0  0  0  0
 35 36  1  0  0  0  0
 35 33  1  0  0  0  0
 37 41  1  1  0  0  0
 37 34  1  0  0  0  0
 37 35  1  0  0  0  0
 38 36  2  0  0  0  0
 38 45  1  0  0  0  0
 39 40  1  0  0  0  0
 39 38  1  0  0  0  0
 40 34  2  0  0  0  0
 41 42  1  0  0  0  0
 42 33  1  0  0  0  0
 43 32  1  0  0  0  0
 45 44  1  0  0  0  0
 47 46  1  0  0  0  0
M  END
>  <MODEL>
2

>  <REMARK>
 VINA RESULT:      -6.5      3.515      8.717
  Name = 
  19 active torsions:
  status: ('A' for Active; 'I' for Inactive)
    1  A    between atoms: C_1  and  C_8
    2  A    between atoms: C_5  and  O_33
    3  A    between atoms: C_5  and  C_38
    4  A    between atoms: N_6  and  C_24
    5  A    between atoms: C_7  and  P_10
    6  A    between atoms: C_7  and  C_15
    7  A    between atoms: C_8  and  C_11
    8  A    between atoms: C_8  and  N_43
    9  A    between atoms: P_10  and  O_33
   10  A    between atoms: C_11  and  C_12
   11  A    between atoms: C_12  and  C_42
   12  A    between atoms: C_14  and  C_45
   13  A    between atoms: N_18  and  C_22
   14  A    between atoms: C_19  and  C_38
   15  A    between atoms: C_22  and  C_39
   16  A    between atoms: C_24  and  O_34
   17  A    between atoms: C_24  and  C_39
   18  A    between atoms: C_26  and  O_40
   19  A    between atoms: N_36  and  C_42
                            x       y       z     vdW  Elec       q    Type
                         _______ _______ _______ _____ _____    ______ ____

>  <TORSDO>
F 19

$$$$
=
 OpenBabel11032420553D

 47 50  0  0  1  0  0  0  0  0999 V2000
  188.4270  175.7920  136.7400 C   0  0  0  0  0  0  0  0  0  0  0  0
  189.7390  176.0350  136.1900 C   0  0  0  0  0  0  0  0  0  0  0  0
  188.0360  176.7630  137.4930 N   0  0  0  0  0  0  0  0  0  0  0  0
  187.6410  174.6270  136.4830 N   0  0  0  0  0  2  0  0  0  0  0  0
  189.0880  177.7760  137.5180 C   0  0  2  0  0  3  0  0  0  0  0  0
  190.1580  177.2100  136.6270 C   0  0  0  0  0  3  0  0  0  0  0  0
  189.6170  177.9300  138.9340 C   0  0  2  0  0  3  0  0  0  0  0  0
  188.6580  177.4190  139.8520 N   0  0  0  0  0  0  0  0  0  0  0  0
  188.7960  178.8380  139.6580 N   0  0  0  0  0  2  0  0  0  0  0  0
  189.3810  177.0870  141.0680 C   0  0  0  0  0  2  0  0  0  0  0  0
  188.4220  177.0130  142.2460 C   0  0  0  0  0  2  0  0  0  0  0  0
  189.1320  176.4970  143.5000 C   0  0  2  0  0  3  0  0  0  0  0  0
  188.4130  176.8910  144.7070 N   0  0  0  0  0  2  0  0  0  0  0  0
  187.0920  177.3330  144.2960 C   0  0  0  0  0  1  0  0  0  0  0  0
  190.4990  176.8580  143.5490 O   0  0  0  0  0  0  0  0  0  0  0  0
  190.8640  177.0880  144.8860 C   0  0  0  0  0  1  0  0  0  0  0  0
  190.4820  175.1590  135.2390 C   0  0  0  0  0  2  0  0  0  0  0  0
  190.8810  173.7770  137.5530 O   0  0  0  0  0  1  0  0  0  0  0  0
  191.4180  173.8910  136.1440 P   0  0  1  0  0  0  0  0  0  0  0  0
  191.2520  172.4030  135.3530 O   0  0  0  0  0  0  0  0  0  0  0  0
  193.0520  174.3490  136.1860 O   0  0  0  0  0  0  0  0  0  0  0  0
  193.4900  174.0540  137.4780 C   0  0  0  0  0  2  0  0  0  0  0  0
  194.7360  174.8620  137.7840 C   0  0  0  0  0  2  0  0  0  0  0  0
  195.4970  174.2150  138.8870 C   0  0  0  0  0  0  0  0  0  0  0  0
  195.4950  172.9630  139.0040 O   0  0  0  0  0  0  0  0  0  0  0  0
  196.2360  174.9920  139.7710 O   0  0  0  0  0  1  0  0  0  0  0  0
  186.3420  174.4060  137.1080 C   0  0  1  0  0  3  0  0  0  0  0  0
  184.6310  173.6670  135.6150 F   0  0  0  0  0  0  0  0  0  0  0  0
  185.2260  174.8040  136.1380 C   0  0  0  0  0  0  0  0  0  0  0  0
  185.7720  175.5440  135.1020 F   0  0  0  0  0  0  0  0  0  0  0  0
  184.1890  175.6590  136.8660 C   0  0  0  0  0  2  0  0  0  0  0  0
  184.3630  177.1470  136.5820 C   0  0  0  0  0  2  0  0  0  0  0  0
  184.2420  178.5020  141.9520 C   0  0  0  0  0  2  0  0  0  0  0  0
  183.5590  178.5700  138.5260 C   0  0  0  0  0  0  0  0  0  0  0  0
  183.2690  178.7120  140.9270 N   0  0  0  0  0  0  0  0  0  0  0  0
  181.8940  178.3240  141.0780 C   0  0  0  0  0  3  0  0  0  0  0  0
  183.8860  179.3380  139.7770 C   0  0  1  0  0  3  0  0  0  0  0  0
  180.9490  178.4860  140.1430 C   0  0  0  0  0  0  0  0  0  0  0  0
  181.2290  179.1490  138.8170 C   0  0  0  0  0  2  0  0  0  0  0  0
  182.3270  178.4910  138.1180 N   0  0  0  0  0  0  0  0  0  0  0  0
  185.2790  179.3890  139.9960 O   0  0  0  0  0  0  0  0  0  0  0  0
  185.4930  179.1130  141.3660 C   0  0  0  0  0  2  0  0  0  0  0  0
  184.5960  177.8810  137.8190 N   0  0  0  0  0  2  0  0  0  0  0  0
  179.3780  176.6820  140.7610 C   0  0  0  0  0  1  0  0  0  0  0  0
  179.6600  178.0370  140.4430 O   0  0  0  0  0  0  0  0  0  0  0  0
  186.2130  172.9440  137.5340 C   0  0  0  0  0  2  0  0  0  0  0  0
  187.4600  172.1640  137.1680 C   0  0  0  0  0  1  0  0  0  0  0  0
  1  3  2  0  0  0  0
  2  6  2  0  0  0  0
  2  1  1  0  0  0  0
  3  5  1  0  0  0  0
  4  1  1  0  0  0  0
  4 27  1  0  0  0  0
  5  6  1  6  0  0  0
  5  7  1  0  0  0  0
  7  9  1  1  0  0  0
  7  8  1  0  0  0  0
  8 10  1  0  0  0  0
  9  8  1  0  0  0  0
 10 11  1  0  0  0  0
 12 11  1  6  0  0  0
 12 15  1  0  0  0  0
 12 13  1  0  0  0  0
 14 13  1  0  0  0  0
 15 16  1  0  0  0  0
 17 19  1  0  0  0  0
 17  2  1  0  0  0  0
 19 20  2  6  0  0  0
 19 21  1  0  0  0  0
 19 18  1  0  0  0  0
 21 22  1  0  0  0  0
 22 23  1  0  0  0  0
 23 24  1  0  0  0  0
 24 25  2  0  0  0  0
 24 26  1  0  0  0  0
 27 46  1  6  0  0  0
 28 29  1  0  0  0  0
 29 31  1  0  0  0  0
 29 27  1  0  0  0  0
 30 29  1  0  0  0  0
 32 31  1  0  0  0  0
 32 43  1  0  0  0  0
 35 36  1  0  0  0  0
 35 33  1  0  0  0  0
 37 34  1  6  0  0  0
 37 41  1  0  0  0  0
 37 35  1  0  0  0  0
 38 45  1  0  0  0  0
 38 36  2  0  0  0  0
 39 38  1  0  0  0  0
 40 34  2  0  0  0  0
 40 39  1  0  0  0  0
 41 42  1  0  0  0  0
 42 33  1  0  0  0  0
 43 34  1  0  0  0  0
 45 44  1  0  0  0  0
 47 46  1  0  0  0  0
M  END
>  <MODEL>
3

>  <REMARK>
 VINA RESULT:      -6.4      3.701      9.497
  Name = 
  19 active torsions:
  status: ('A' for Active; 'I' for Inactive)
    1  A    between atoms: C_1  and  C_8
    2  A    between atoms: C_5  and  O_33
    3  A    between atoms: C_5  and  C_38
    4  A    between atoms: N_6  and  C_24
    5  A    between atoms: C_7  and  P_10
    6  A    between atoms: C_7  and  C_15
    7  A    between atoms: C_8  and  C_11
    8  A    between atoms: C_8  and  N_43
    9  A    between atoms: P_10  and  O_33
   10  A    between atoms: C_11  and  C_12
   11  A    between atoms: C_12  and  C_42
   12  A    between atoms: C_14  and  C_45
   13  A    between atoms: N_18  and  C_22
   14  A    between atoms: C_19  and  C_38
   15  A    between atoms: C_22  and  C_39
   16  A    between atoms: C_24  and  O_34
   17  A    between atoms: C_24  and  C_39
   18  A    between atoms: C_26  and  O_40
   19  A    between atoms: N_36  and  C_42
                            x       y       z     vdW  Elec       q    Type
                         _______ _______ _______ _____ _____    ______ ____

>  <TORSDO>
F 19

$$$$
=
 OpenBabel11032420553D

 47 50  0  0  1  0  0  0  0  0999 V2000
  188.8700  176.8800  138.1480 C   0  0  0  0  0  0  0  0  0  0  0  0
  190.2910  176.9120  137.8990 C   0  0  0  0  0  0  0  0  0  0  0  0
  188.5790  177.3190  139.3250 N   0  0  0  0  0  0  0  0  0  0  0  0
  187.8900  176.4270  137.2110 N   0  0  0  0  0  2  0  0  0  0  0  0
  189.8220  177.6950  139.9940 C   0  0  2  0  0  3  0  0  0  0  0  0
  190.8860  177.3990  138.9740 C   0  0  0  0  0  3  0  0  0  0  0  0
  190.0240  176.8260  141.2240 C   0  0  2  0  0  3  0  0  0  0  0  0
  190.0550  177.6520  142.3830 N   0  0  0  0  0  0  0  0  0  0  0  0
  191.2760  177.1300  141.8270 N   0  0  0  0  0  2  0  0  0  0  0  0
  189.7070  176.8020  143.5090 C   0  0  0  0  0  2  0  0  0  0  0  0
  189.6600  177.6210  144.7900 C   0  0  0  0  0  2  0  0  0  0  0  0
  190.2580  176.8410  145.9620 C   0  0  2  0  0  3  0  0  0  0  0  0
  189.9010  177.4570  147.2370 N   0  0  0  0  0  2  0  0  0  0  0  0
  188.4500  177.5030  147.3000 C   0  0  0  0  0  1  0  0  0  0  0  0
  191.6520  176.6390  145.8380 O   0  0  0  0  0  0  0  0  0  0  0  0
  192.1130  175.9230  146.9550 C   0  0  0  0  0  1  0  0  0  0  0  0
  190.9820  176.5340  136.6340 C   0  0  0  0  0  2  0  0  0  0  0  0
  191.1720  174.1790  137.9930 O   0  0  0  0  0  1  0  0  0  0  0  0
  191.2980  174.7440  136.5950 P   0  0  1  0  0  0  0  0  0  0  0  0
  190.1670  173.9990  135.5790 O   0  0  0  0  0  0  0  0  0  0  0  0
  192.8690  174.4830  136.0080 O   0  0  0  0  0  0  0  0  0  0  0  0
  193.4350  173.5350  136.8600 C   0  0  0  0  0  2  0  0  0  0  0  0
  194.8850  173.8920  137.1210 C   0  0  0  0  0  2  0  0  0  0  0  0
  195.3730  173.1690  138.3270 C   0  0  0  0  0  0  0  0  0  0  0  0
  195.5200  171.9210  138.2950 O   0  0  0  0  0  0  0  0  0  0  0  0
  195.6960  173.8750  139.4780 O   0  0  0  0  0  1  0  0  0  0  0  0
  186.4690  176.3650  137.5330 C   0  0  1  0  0  3  0  0  0  0  0  0
  185.7400  177.5280  135.5780 F   0  0  0  0  0  0  0  0  0  0  0  0
  185.7540  177.5920  136.9620 C   0  0  0  0  0  0  0  0  0  0  0  0
  186.4350  178.7340  137.3530 F   0  0  0  0  0  0  0  0  0  0  0  0
  184.3260  177.6560  137.5050 C   0  0  0  0  0  2  0  0  0  0  0  0
  184.1070  178.8580  138.4170 C   0  0  0  0  0  2  0  0  0  0  0  0
  180.4740  179.5800  142.5370 C   0  0  0  0  0  2  0  0  0  0  0  0
  183.1480  178.2850  140.6980 C   0  0  0  0  0  0  0  0  0  0  0  0
  181.7990  179.0480  142.5610 N   0  0  0  0  0  0  0  0  0  0  0  0
  182.8040  179.5190  143.4730 C   0  0  0  0  0  3  0  0  0  0  0  0
  181.9400  178.0170  141.5530 C   0  0  1  0  0  3  0  0  0  0  0  0
  184.0620  179.0640  143.5250 C   0  0  0  0  0  0  0  0  0  0  0  0
  184.5550  177.9490  142.6370 C   0  0  0  0  0  2  0  0  0  0  0  0
  184.3350  178.2580  141.2280 N   0  0  0  0  0  0  0  0  0  0  0  0
  180.7610  177.9940  140.7790 O   0  0  0  0  0  0  0  0  0  0  0  0
  179.7900  178.7450  141.4800 C   0  0  0  0  0  2  0  0  0  0  0  0
  182.9850  178.6210  139.3170 N   0  0  0  0  0  2  0  0  0  0  0  0
  185.4780  178.9120  145.5440 C   0  0  0  0  0  1  0  0  0  0  0  0
  184.9220  179.6440  144.4620 O   0  0  0  0  0  0  0  0  0  0  0  0
  185.8700  175.0690  136.9880 C   0  0  0  0  0  2  0  0  0  0  0  0
  186.7630  174.4720  135.9170 C   0  0  0  0  0  1  0  0  0  0  0  0
  1  3  2  0  0  0  0
  2  1  1  0  0  0  0
  2  6  2  0  0  0  0
  3  5  1  0  0  0  0
  4 27  1  0  0  0  0
  4  1  1  0  0  0  0
  5  6  1  6  0  0  0
  5  7  1  0  0  0  0
  7  9  1  6  0  0  0
  7  8  1  0  0  0  0
  8 10  1  0  0  0  0
  9  8  1  0  0  0  0
 10 11  1  0  0  0  0
 12 11  1  6  0  0  0
 12 13  1  0  0  0  0
 13 14  1  0  0  0  0
 15 12  1  0  0  0  0
 15 16  1  0  0  0  0
 17  2  1  0  0  0  0
 19 20  2  6  0  0  0
 19 17  1  0  0  0  0
 19 18  1  0  0  0  0
 21 19  1  0  0  0  0
 21 22  1  0  0  0  0
 22 23  1  0  0  0  0
 23 24  1  0  0  0  0
 24 26  1  0  0  0  0
 25 24  2  0  0  0  0
 27 46  1  6  0  0  0
 28 29  1  0  0  0  0
 29 30  1  0  0  0  0
 29 31  1  0  0  0  0
 29 27  1  0  0  0  0
 31 32  1  0  0  0  0
 32 43  1  0  0  0  0
 33 35  1  0  0  0  0
 34 40  2  0  0  0  0
 35 36  1  0  0  0  0
 36 38  2  0  0  0  0
 37 34  1  6  0  0  0
 37 35  1  0  0  0  0
 38 45  1  0  0  0  0
 39 38  1  0  0  0  0
 40 39  1  0  0  0  0
 41 42  1  0  0  0  0
 41 37  1  0  0  0  0
 42 33  1  0  0  0  0
 43 34  1  0  0  0  0
 45 44  1  0  0  0  0
 47 46  1  0  0  0  0
M  END
>  <MODEL>
4

>  <REMARK>
 VINA RESULT:      -6.2      3.286      9.081
  Name = 
  19 active torsions:
  status: ('A' for Active; 'I' for Inactive)
    1  A    between atoms: C_1  and  C_8
    2  A    between atoms: C_5  and  O_33
    3  A    between atoms: C_5  and  C_38
    4  A    between atoms: N_6  and  C_24
    5  A    between atoms: C_7  and  P_10
    6  A    between atoms: C_7  and  C_15
    7  A    between atoms: C_8  and  C_11
    8  A    between atoms: C_8  and  N_43
    9  A    between atoms: P_10  and  O_33
   10  A    between atoms: C_11  and  C_12
   11  A    between atoms: C_12  and  C_42
   12  A    between atoms: C_14  and  C_45
   13  A    between atoms: N_18  and  C_22
   14  A    between atoms: C_19  and  C_38
   15  A    between atoms: C_22  and  C_39
   16  A    between atoms: C_24  and  O_34
   17  A    between atoms: C_24  and  C_39
   18  A    between atoms: C_26  and  O_40
   19  A    between atoms: N_36  and  C_42
                            x       y       z     vdW  Elec       q    Type
                         _______ _______ _______ _____ _____    ______ ____

>  <TORSDO>
F 19

$$$$
=
 OpenBabel11032420553D

 47 50  0  0  1  0  0  0  0  0999 V2000
  188.8370  176.4230  138.0460 C   0  0  0  0  0  0  0  0  0  0  0  0
  190.1490  177.0210  137.9920 C   0  0  0  0  0  0  0  0  0  0  0  0
  188.2380  176.6840  139.1570 N   0  0  0  0  0  0  0  0  0  0  0  0
  188.2560  175.6430  136.9990 N   0  0  0  0  0  2  0  0  0  0  0  0
  189.1260  177.5040  139.9760 C   0  0  2  0  0  3  0  0  0  0  0  0
  190.3500  177.6780  139.1210 C   0  0  0  0  0  3  0  0  0  0  0  0
  189.4830  176.7580  141.2500 C   0  0  2  0  0  3  0  0  0  0  0  0
  189.8220  177.6950  142.2650 N   0  0  0  0  0  0  0  0  0  0  0  0
  190.8520  176.9730  141.5670 N   0  0  0  0  0  2  0  0  0  0  0  0
  189.6240  177.0210  143.5380 C   0  0  0  0  0  2  0  0  0  0  0  0
  189.4270  178.0420  144.6480 C   0  0  0  0  0  2  0  0  0  0  0  0
  188.4310  177.5330  145.6920 C   0  0  2  0  0  3  0  0  0  0  0  0
  187.1310  178.1780  145.5330 N   0  0  0  0  0  2  0  0  0  0  0  0
  186.5190  178.2410  146.8490 C   0  0  0  0  0  1  0  0  0  0  0  0
  188.9190  177.6320  147.0160 O   0  0  0  0  0  0  0  0  0  0  0  0
  190.0790  176.8500  147.1370 C   0  0  0  0  0  1  0  0  0  0  0  0
  191.1010  176.9770  136.8450 C   0  0  0  0  0  2  0  0  0  0  0  0
  193.4850  176.5820  138.1040 O   0  0  0  0  0  1  0  0  0  0  0  0
  192.4910  175.8660  137.2160 P   0  0  1  0  0  0  0  0  0  0  0  0
  191.9090  174.4900  138.0120 O   0  0  0  0  0  0  0  0  0  0  0  0
  193.2360  175.4230  135.7580 O   0  0  0  0  0  0  0  0  0  0  0  0
  194.5790  175.7770  135.9010 C   0  0  0  0  0  2  0  0  0  0  0  0
  195.4270  174.5230  135.9660 C   0  0  0  0  0  2  0  0  0  0  0  0
  196.8660  174.8800  135.8450 C   0  0  0  0  0  0  0  0  0  0  0  0
  197.6750  174.0680  135.3280 O   0  0  0  0  0  0  0  0  0  0  0  0
  197.3130  176.1230  136.2750 O   0  0  0  0  0  1  0  0  0  0  0  0
  186.9450  175.0160  137.1270 C   0  0  1  0  0  3  0  0  0  0  0  0
  185.9580  174.5750  134.9970 F   0  0  0  0  0  0  0  0  0  0  0  0
  186.0210  175.5150  136.0140 C   0  0  0  0  0  0  0  0  0  0  0  0
  186.5280  176.6980  135.5020 F   0  0  0  0  0  0  0  0  0  0  0  0
  184.6250  175.7780  136.5800 C   0  0  0  0  0  2  0  0  0  0  0  0
  184.2400  177.2510  136.5100 C   0  0  0  0  0  2  0  0  0  0  0  0
  184.3260  178.4140  141.9260 C   0  0  0  0  0  2  0  0  0  0  0  0
  183.5780  178.6550  138.5210 C   0  0  0  0  0  0  0  0  0  0  0  0
  183.3500  178.7290  140.9320 N   0  0  0  0  0  0  0  0  0  0  0  0
  181.9540  178.4330  141.1010 C   0  0  0  0  0  3  0  0  0  0  0  0
  183.9850  179.3520  139.7900 C   0  0  1  0  0  3  0  0  0  0  0  0
  181.0040  178.6950  140.1950 C   0  0  0  0  0  0  0  0  0  0  0  0
  181.3020  179.3840  138.8870 C   0  0  0  0  0  2  0  0  0  0  0  0
  182.3370  178.6770  138.1390 N   0  0  0  0  0  0  0  0  0  0  0  0
  185.3820  179.2970  139.9780 O   0  0  0  0  0  0  0  0  0  0  0  0
  185.6050  178.9580  141.3320 C   0  0  0  0  0  2  0  0  0  0  0  0
  184.5490  177.9220  137.7660 N   0  0  0  0  0  2  0  0  0  0  0  0
  178.9310  178.9880  141.5070 C   0  0  0  0  0  1  0  0  0  0  0  0
  179.6930  178.3260  140.5080 O   0  0  0  0  0  0  0  0  0  0  0  0
  187.0920  173.4950  137.0870 C   0  0  0  0  0  2  0  0  0  0  0  0
  188.3620  173.0960  136.3620 C   0  0  0  0  0  1  0  0  0  0  0  0
  1  3  2  0  0  0  0
  2  1  1  0  0  0  0
  2  6  2  0  0  0  0
  3  5  1  0  0  0  0
  4 27  1  0  0  0  0
  4  1  1  0  0  0  0
  5  6  1  6  0  0  0
  5  7  1  0  0  0  0
  7  9  1  6  0  0  0
  7  8  1  0  0  0  0
  8 10  1  0  0  0  0
  9  8  1  0  0  0  0
 10 11  1  0  0  0  0
 12 11  1  6  0  0  0
 12 15  1  0  0  0  0
 13 12  1  0  0  0  0
 13 14  1  0  0  0  0
 15 16  1  0  0  0  0
 17 19  1  0  0  0  0
 17  2  1  0  0  0  0
 19 20  2  1  0  0  0
 19 18  1  0  0  0  0
 21 22  1  0  0  0  0
 21 19  1  0  0  0  0
 22 23  1  0  0  0  0
 24 23  1  0  0  0  0
 24 26  1  0  0  0  0
 25 24  2  0  0  0  0
 27 46  1  6  0  0  0
 28 29  1  0  0  0  0
 29 31  1  0  0  0  0
 29 27  1  0  0  0  0
 30 29  1  0  0  0  0
 32 31  1  0  0  0  0
 32 43  1  0  0  0  0
 35 36  1  0  0  0  0
 35 33  1  0  0  0  0
 37 34  1  6  0  0  0
 37 41  1  0  0  0  0
 37 35  1  0  0  0  0
 38 45  1  0  0  0  0
 38 36  2  0  0  0  0
 39 38  1  0  0  0  0
 40 34  2  0  0  0  0
 40 39  1  0  0  0  0
 41 42  1  0  0  0  0
 42 33  1  0  0  0  0
 43 34  1  0  0  0  0
 45 44  1  0  0  0  0
 47 46  1  0  0  0  0
M  END
>  <MODEL>
5

>  <REMARK>
 VINA RESULT:      -6.0      3.662     10.134
  Name = 
  19 active torsions:
  status: ('A' for Active; 'I' for Inactive)
    1  A    between atoms: C_1  and  C_8
    2  A    between atoms: C_5  and  O_33
    3  A    between atoms: C_5  and  C_38
    4  A    between atoms: N_6  and  C_24
    5  A    between atoms: C_7  and  P_10
    6  A    between atoms: C_7  and  C_15
    7  A    between atoms: C_8  and  C_11
    8  A    between atoms: C_8  and  N_43
    9  A    between atoms: P_10  and  O_33
   10  A    between atoms: C_11  and  C_12
   11  A    between atoms: C_12  and  C_42
   12  A    between atoms: C_14  and  C_45
   13  A    between atoms: N_18  and  C_22
   14  A    between atoms: C_19  and  C_38
   15  A    between atoms: C_22  and  C_39
   16  A    between atoms: C_24  and  O_34
   17  A    between atoms: C_24  and  C_39
   18  A    between atoms: C_26  and  O_40
   19  A    between atoms: N_36  and  C_42
                            x       y       z     vdW  Elec       q    Type
                         _______ _______ _______ _____ _____    ______ ____

>  <TORSDO>
F 19

$$$$
=
 OpenBabel11032420553D

 47 50  0  0  1  0  0  0  0  0999 V2000
  187.4490  178.0720  141.7600 C   0  0  0  0  0  0  0  0  0  0  0  0
  186.5590  177.7910  142.8600 C   0  0  0  0  0  0  0  0  0  0  0  0
  186.9540  178.9500  140.9560 N   0  0  0  0  0  0  0  0  0  0  0  0
  188.7300  177.4660  141.5750 N   0  0  0  0  0  2  0  0  0  0  0  0
  185.6420  179.3470  141.4610 C   0  0  2  0  0  3  0  0  0  0  0  0
  185.4780  178.5380  142.7170 C   0  0  0  0  0  3  0  0  0  0  0  0
  184.5700  178.9680  140.4540 C   0  0  2  0  0  3  0  0  0  0  0  0
  185.1610  178.8310  139.1670 N   0  0  0  0  0  0  0  0  0  0  0  0
  184.4120  180.0130  139.5030 N   0  0  0  0  0  2  0  0  0  0  0  0
  184.2760  177.9780  138.3910 C   0  0  0  0  0  2  0  0  0  0  0  0
  185.0750  177.1770  137.3750 C   0  0  0  0  0  2  0  0  0  0  0  0
  184.1480  176.3930  136.4440 C   0  0  2  0  0  3  0  0  0  0  0  0
  183.7380  175.1320  137.0550 N   0  0  0  0  0  2  0  0  0  0  0  0
  184.9340  174.3250  137.2210 C   0  0  0  0  0  1  0  0  0  0  0  0
  184.6920  176.2080  135.1500 O   0  0  0  0  0  0  0  0  0  0  0  0
  185.7520  177.1100  134.9660 C   0  0  0  0  0  1  0  0  0  0  0  0
  186.8220  176.8740  144.0060 C   0  0  0  0  0  2  0  0  0  0  0  0
  186.4740  179.0310  145.6330 O   0  0  0  0  0  0  0  0  0  0  0  0
  187.3600  177.8170  145.4640 P   0  0  1  0  0  0  0  0  0  0  0  0
  187.2440  176.8350  146.8380 O   0  0  0  0  0  1  0  0  0  0  0  0
  188.9680  178.3050  145.2310 O   0  0  0  0  0  0  0  0  0  0  0  0
  189.6800  177.1350  144.9650 C   0  0  0  0  0  2  0  0  0  0  0  0
  191.1300  177.3250  145.3660 C   0  0  0  0  0  2  0  0  0  0  0  0
  191.4020  176.5950  146.6340 C   0  0  0  0  0  0  0  0  0  0  0  0
  192.4200  175.8630  146.7330 O   0  0  0  0  0  0  0  0  0  0  0  0
  190.5480  176.7430  147.7190 O   0  0  0  0  0  1  0  0  0  0  0  0
  189.5680  177.7470  140.4150 C   0  0  1  0  0  3  0  0  0  0  0  0
  190.5990  175.7220  139.6800 F   0  0  0  0  0  0  0  0  0  0  0  0
  190.8130  176.8570  140.4460 C   0  0  0  0  0  0  0  0  0  0  0  0
  191.0620  176.4770  141.7550 F   0  0  0  0  0  0  0  0  0  0  0  0
  192.0180  177.6350  139.9180 C   0  0  0  0  0  2  0  0  0  0  0  0
  193.0160  176.7370  139.1960 C   0  0  0  0  0  2  0  0  0  0  0  0
  191.7020  173.9350  134.6000 C   0  0  0  0  0  2  0  0  0  0  0  0
  193.4460  176.0190  136.7970 C   0  0  0  0  0  0  0  0  0  0  0  0
  192.9730  174.3830  135.0740 N   0  0  0  0  0  0  0  0  0  0  0  0
  194.1070  173.5080  135.1860 C   0  0  0  0  0  3  0  0  0  0  0  0
  192.9110  175.7900  135.4100 C   0  0  1  0  0  3  0  0  0  0  0  0
  195.3130  173.8760  135.6360 C   0  0  0  0  0  0  0  0  0  0  0  0
  195.6260  175.2940  136.0440 C   0  0  0  0  0  2  0  0  0  0  0  0
  194.6940  175.7710  137.0600 N   0  0  0  0  0  0  0  0  0  0  0  0
  191.5690  176.2100  135.3040 O   0  0  0  0  0  0  0  0  0  0  0  0
  190.8710  175.1980  134.6070 C   0  0  0  0  0  2  0  0  0  0  0  0
  192.5660  176.4590  137.8380 N   0  0  0  0  0  2  0  0  0  0  0  0
  197.6070  173.0880  135.1610 C   0  0  0  0  0  1  0  0  0  0  0  0
  196.3070  172.8950  135.6990 O   0  0  0  0  0  0  0  0  0  0  0  0
  188.7650  177.5330  139.1320 C   0  0  0  0  0  2  0  0  0  0  0  0
  189.0880  178.6050  138.1090 C   0  0  0  0  0  1  0  0  0  0  0  0
  1  2  1  0  0  0  0
  2 17  1  0  0  0  0
  3  5  1  0  0  0  0
  3  1  2  0  0  0  0
  4  1  1  0  0  0  0
  5  6  1  1  0  0  0
  6  2  2  0  0  0  0
  7  9  1  6  0  0  0
  7  5  1  0  0  0  0
  8  9  1  0  0  0  0
  8  7  1  0  0  0  0
 10  8  1  0  0  0  0
 11 10  1  0  0  0  0
 12 13  1  0  0  0  0
 12 11  1  1  0  0  0
 13 14  1  0  0  0  0
 15 12  1  0  0  0  0
 16 15  1  0  0  0  0
 17 19  1  0  0  0  0
 19 18  2  1  0  0  0
 19 20  1  0  0  0  0
 21 19  1  0  0  0  0
 22 21  1  0  0  0  0
 22 23  1  0  0  0  0
 23 24  1  0  0  0  0
 24 25  2  0  0  0  0
 24 26  1  0  0  0  0
 27 46  1  6  0  0  0
 27 29  1  0  0  0  0
 27  4  1  0  0  0  0
 28 29  1  0  0  0  0
 29 30  1  0  0  0  0
 31 29  1  0  0  0  0
 32 31  1  0  0  0  0
 33 42  1  0  0  0  0
 33 35  1  0  0  0  0
 34 40  2  0  0  0  0
 34 43  1  0  0  0  0
 35 36  1  0  0  0  0
 35 37  1  0  0  0  0
 36 38  2  0  0  0  0
 37 41  1  1  0  0  0
 37 34  1  0  0  0  0
 38 45  1  0  0  0  0
 38 39  1  0  0  0  0
 39 40  1  0  0  0  0
 42 41  1  0  0  0  0
 43 32  1  0  0  0  0
 44 45  1  0  0  0  0
 47 46  1  0  0  0  0
M  END
>  <MODEL>
6

>  <REMARK>
 VINA RESULT:      -6.0      2.995      8.262
  Name = 
  19 active torsions:
  status: ('A' for Active; 'I' for Inactive)
    1  A    between atoms: C_1  and  C_8
    2  A    between atoms: C_5  and  O_33
    3  A    between atoms: C_5  and  C_38
    4  A    between atoms: N_6  and  C_24
    5  A    between atoms: C_7  and  P_10
    6  A    between atoms: C_7  and  C_15
    7  A    between atoms: C_8  and  C_11
    8  A    between atoms: C_8  and  N_43
    9  A    between atoms: P_10  and  O_33
   10  A    between atoms: C_11  and  C_12
   11  A    between atoms: C_12  and  C_42
   12  A    between atoms: C_14  and  C_45
   13  A    between atoms: N_18  and  C_22
   14  A    between atoms: C_19  and  C_38
   15  A    between atoms: C_22  and  C_39
   16  A    between atoms: C_24  and  O_34
   17  A    between atoms: C_24  and  C_39
   18  A    between atoms: C_26  and  O_40
   19  A    between atoms: N_36  and  C_42
                            x       y       z     vdW  Elec       q    Type
                         _______ _______ _______ _____ _____    ______ ____

>  <TORSDO>
F 19

$$$$
=
 OpenBabel11032420553D

 47 50  0  0  1  0  0  0  0  0999 V2000
  184.0130  178.7810  141.1460 C   0  0  0  0  0  0  0  0  0  0  0  0
  182.8430  178.5110  140.3460 C   0  0  0  0  0  0  0  0  0  0  0  0
  185.0020  179.1870  140.4260 N   0  0  0  0  0  0  0  0  0  0  0  0
  184.0790  178.6310  142.5660 N   0  0  0  0  0  2  0  0  0  0  0  0
  184.5700  179.2230  139.0310 C   0  0  2  0  0  3  0  0  0  0  0  0
  183.1380  178.7700  139.0840 C   0  0  0  0  0  3  0  0  0  0  0  0
  185.3960  178.2440  138.2140 C   0  0  2  0  0  3  0  0  0  0  0  0
  186.7640  178.6340  138.2550 N   0  0  0  0  0  0  0  0  0  0  0  0
  185.9620  178.9110  137.0920 N   0  0  0  0  0  2  0  0  0  0  0  0
  187.5440  177.4450  137.9550 C   0  0  0  0  0  2  0  0  0  0  0  0
  188.8270  177.4380  138.7730 C   0  0  0  0  0  2  0  0  0  0  0  0
  189.7510  176.3010  138.3340 C   0  0  2  0  0  3  0  0  0  0  0  0
  191.0670  176.8120  137.9620 N   0  0  0  0  0  2  0  0  0  0  0  0
  191.9320  176.6550  139.1190 C   0  0  0  0  0  1  0  0  0  0  0  0
  189.1870  175.4890  137.3220 O   0  0  0  0  0  0  0  0  0  0  0  0
  190.1650  175.2240  136.3500 C   0  0  0  0  0  1  0  0  0  0  0  0
  181.5050  178.0790  140.8420 C   0  0  0  0  0  2  0  0  0  0  0  0
  179.3130  178.8200  139.4040 O   0  0  0  0  0  0  0  0  0  0  0  0
  180.2520  179.3420  140.4690 P   0  0  1  0  0  0  0  0  0  0  0  0
  179.3750  179.6920  141.8740 O   0  0  0  0  0  1  0  0  0  0  0  0
  181.0380  180.7380  139.9110 O   0  0  0  0  0  0  0  0  0  0  0  0
  180.0950  181.4130  139.1340 C   0  0  0  0  0  2  0  0  0  0  0  0
  180.6520  181.6300  137.7410 C   0  0  0  0  0  2  0  0  0  0  0  0
  180.8840  183.0810  137.5100 C   0  0  0  0  0  0  0  0  0  0  0  0
  181.9420  183.6230  137.9230 O   0  0  0  0  0  1  0  0  0  0  0  0
  179.9480  183.8340  136.8140 O   0  0  0  0  0  0  0  0  0  0  0  0
  185.3050  178.8680  143.3200 C   0  0  1  0  0  3  0  0  0  0  0  0
  183.6540  178.6930  145.0380 F   0  0  0  0  0  0  0  0  0  0  0  0
  185.0220  178.7470  144.8200 C   0  0  0  0  0  0  0  0  0  0  0  0
  185.5360  179.8600  145.4660 F   0  0  0  0  0  0  0  0  0  0  0  0
  185.6980  177.4940  145.3750 C   0  0  0  0  0  2  0  0  0  0  0  0
  186.9040  177.8250  146.2470 C   0  0  0  0  0  2  0  0  0  0  0  0
  191.5700  176.6910  143.4830 C   0  0  0  0  0  2  0  0  0  0  0  0
  189.4250  177.9260  145.9500 C   0  0  0  0  0  0  0  0  0  0  0  0
  191.3620  176.9470  144.8730 N   0  0  0  0  0  0  0  0  0  0  0  0
  191.8540  176.0710  145.9000 C   0  0  0  0  0  3  0  0  0  0  0  0
  190.6030  178.1670  145.0470 C   0  0  1  0  0  3  0  0  0  0  0  0
  191.6740  176.2590  147.2140 C   0  0  0  0  0  0  0  0  0  0  0  0
  190.9530  177.4630  147.7670 C   0  0  0  0  0  2  0  0  0  0  0  0
  189.6180  177.5920  147.1910 N   0  0  0  0  0  0  0  0  0  0  0  0
  190.1880  178.6140  143.7740 O   0  0  0  0  0  0  0  0  0  0  0  0
  190.9360  177.8910  142.8170 C   0  0  0  0  0  2  0  0  0  0  0  0
  188.0950  178.0100  145.4280 N   0  0  0  0  0  2  0  0  0  0  0  0
  193.1810  175.6170  149.0640 C   0  0  0  0  0  1  0  0  0  0  0  0
  192.2030  175.3010  148.0820 O   0  0  0  0  0  0  0  0  0  0  0  0
  186.3840  177.8800  142.8780 C   0  0  0  0  0  2  0  0  0  0  0  0
  187.4480  178.5790  142.0550 C   0  0  0  0  0  1  0  0  0  0  0  0
  1  4  1  0  0  0  0
  2 17  1  0  0  0  0
  2  1  1  0  0  0  0
  3  1  2  0  0  0  0
  4 27  1  0  0  0  0
  5  6  1  1  0  0  0
  5  3  1  0  0  0  0
  6  2  2  0  0  0  0
  7  9  1  6  0  0  0
  7  8  1  0  0  0  0
  7  5  1  0  0  0  0
  9  8  1  0  0  0  0
 10  8  1  0  0  0  0
 10 11  1  0  0  0  0
 12 11  1  6  0  0  0
 13 12  1  0  0  0  0
 13 14  1  0  0  0  0
 15 12  1  0  0  0  0
 16 15  1  0  0  0  0
 19 18  2  6  0  0  0
 19 17  1  0  0  0  0
 19 20  1  0  0  0  0
 21 19  1  0  0  0  0
 22 21  1  0  0  0  0
 23 22  1  0  0  0  0
 24 23  1  0  0  0  0
 24 25  1  0  0  0  0
 26 24  2  0  0  0  0
 27 46  1  6  0  0  0
 27 29  1  0  0  0  0
 29 28  1  0  0  0  0
 29 31  1  0  0  0  0
 29 30  1  0  0  0  0
 31 32  1  0  0  0  0
 33 35  1  0  0  0  0
 34 40  2  0  0  0  0
 35 37  1  0  0  0  0
 35 36  1  0  0  0  0
 36 38  2  0  0  0  0
 37 41  1  6  0  0  0
 37 34  1  0  0  0  0
 38 39  1  0  0  0  0
 38 45  1  0  0  0  0
 40 39  1  0  0  0  0
 42 33  1  0  0  0  0
 42 41  1  0  0  0  0
 43 34  1  0  0  0  0
 43 32  1  0  0  0  0
 45 44  1  0  0  0  0
 47 46  1  0  0  0  0
M  END
>  <MODEL>
7

>  <REMARK>
 VINA RESULT:      -6.0      3.473      5.074
  Name = 
  19 active torsions:
  status: ('A' for Active; 'I' for Inactive)
    1  A    between atoms: C_1  and  C_8
    2  A    between atoms: C_5  and  O_33
    3  A    between atoms: C_5  and  C_38
    4  A    between atoms: N_6  and  C_24
    5  A    between atoms: C_7  and  P_10
    6  A    between atoms: C_7  and  C_15
    7  A    between atoms: C_8  and  C_11
    8  A    between atoms: C_8  and  N_43
    9  A    between atoms: P_10  and  O_33
   10  A    between atoms: C_11  and  C_12
   11  A    between atoms: C_12  and  C_42
   12  A    between atoms: C_14  and  C_45
   13  A    between atoms: N_18  and  C_22
   14  A    between atoms: C_19  and  C_38
   15  A    between atoms: C_22  and  C_39
   16  A    between atoms: C_24  and  O_34
   17  A    between atoms: C_24  and  C_39
   18  A    between atoms: C_26  and  O_40
   19  A    between atoms: N_36  and  C_42
                            x       y       z     vdW  Elec       q    Type
                         _______ _______ _______ _____ _____    ______ ____

>  <TORSDO>
F 19

$$$$
=
 OpenBabel11032420553D

 47 50  0  0  1  0  0  0  0  0999 V2000
  187.5100  178.0550  141.5680 C   0  0  0  0  0  0  0  0  0  0  0  0
  186.7720  177.7410  142.7680 C   0  0  0  0  0  0  0  0  0  0  0  0
  186.9280  178.9720  140.8740 N   0  0  0  0  0  0  0  0  0  0  0  0
  188.7430  177.4410  141.1880 N   0  0  0  0  0  2  0  0  0  0  0  0
  185.7040  179.3650  141.5680 C   0  0  2  0  0  3  0  0  0  0  0  0
  185.6960  178.5070  142.8020 C   0  0  0  0  0  3  0  0  0  0  0  0
  184.4980  179.0420  140.7010 C   0  0  2  0  0  3  0  0  0  0  0  0
  184.9400  178.4710  139.4750 N   0  0  0  0  0  0  0  0  0  0  0  0
  184.5180  179.8460  139.5290 N   0  0  0  0  0  2  0  0  0  0  0  0
  183.8230  177.7090  138.9440 C   0  0  0  0  0  2  0  0  0  0  0  0
  183.0370  177.0680  140.0780 C   0  0  0  0  0  2  0  0  0  0  0  0
  181.5310  177.1560  139.8210 C   0  0  2  0  0  3  0  0  0  0  0  0
  180.8670  177.9320  140.8650 N   0  0  0  0  0  2  0  0  0  0  0  0
  180.7430  179.2940  140.3750 C   0  0  0  0  0  1  0  0  0  0  0  0
  180.9280  175.8910  139.6300 O   0  0  0  0  0  0  0  0  0  0  0  0
  180.0120  175.9760  138.5680 C   0  0  0  0  0  1  0  0  0  0  0  0
  187.1700  176.7740  143.8310 C   0  0  0  0  0  2  0  0  0  0  0  0
  189.1410  178.5680  144.3990 O   0  0  0  0  0  0  0  0  0  0  0  0
  188.2040  177.5950  145.0810 P   0  0  1  0  0  0  0  0  0  0  0  0
  187.2100  178.4310  146.1660 O   0  0  0  0  0  1  0  0  0  0  0  0
  189.1010  176.4130  145.9040 O   0  0  0  0  0  0  0  0  0  0  0  0
  189.8830  177.1110  146.8250 C   0  0  0  0  0  2  0  0  0  0  0  0
  191.3390  177.0320  146.4130 C   0  0  0  0  0  2  0  0  0  0  0  0
  192.1060  176.2460  147.4170 C   0  0  0  0  0  0  0  0  0  0  0  0
  192.4260  176.7690  148.5150 O   0  0  0  0  0  1  0  0  0  0  0  0
  192.4430  174.9240  147.1560 O   0  0  0  0  0  0  0  0  0  0  0  0
  189.4220  177.7580  139.9370 C   0  0  1  0  0  3  0  0  0  0  0  0
  190.8500  176.0000  140.6960 F   0  0  0  0  0  0  0  0  0  0  0  0
  190.8340  177.1670  139.9480 C   0  0  0  0  0  0  0  0  0  0  0  0
  191.7010  178.0820  140.5220 F   0  0  0  0  0  0  0  0  0  0  0  0
  191.2870  176.8850  138.5150 C   0  0  0  0  0  2  0  0  0  0  0  0
  192.7330  176.4060  138.4490 C   0  0  0  0  0  2  0  0  0  0  0  0
  194.6800  171.7050  136.2570 C   0  0  0  0  0  2  0  0  0  0  0  0
  193.8670  175.0860  136.5980 C   0  0  0  0  0  0  0  0  0  0  0  0
  195.0620  173.0600  136.0170 N   0  0  0  0  0  0  0  0  0  0  0  0
  196.4290  173.5000  136.0840 C   0  0  0  0  0  3  0  0  0  0  0  0
  193.8930  173.8630  135.7240 C   0  0  1  0  0  3  0  0  0  0  0  0
  196.8350  174.7590  135.8820 C   0  0  0  0  0  0  0  0  0  0  0  0
  195.8820  175.8680  135.5120 C   0  0  0  0  0  2  0  0  0  0  0  0
  194.8010  175.9830  136.4860 N   0  0  0  0  0  0  0  0  0  0  0  0
  192.7480  173.0650  135.9270 O   0  0  0  0  0  0  0  0  0  0  0  0
  193.1870  171.7240  136.0190 C   0  0  0  0  0  2  0  0  0  0  0  0
  192.8450  175.2340  137.5900 N   0  0  0  0  0  2  0  0  0  0  0  0
  199.0390  175.2460  134.8760 C   0  0  0  0  0  1  0  0  0  0  0  0
  198.2030  175.0240  136.0020 O   0  0  0  0  0  0  0  0  0  0  0  0
  188.6070  177.2290  138.7570 C   0  0  0  0  0  2  0  0  0  0  0  0
  188.3070  178.3400  137.7690 C   0  0  0  0  0  1  0  0  0  0  0  0
  1  2  1  0  0  0  0
  2  6  2  0  0  0  0
  2 17  1  0  0  0  0
  3  5  1  0  0  0  0
  3  1  2  0  0  0  0
  4  1  1  0  0  0  0
  5  6  1  1  0  0  0
  7  9  1  6  0  0  0
  7  5  1  0  0  0  0
  8  9  1  0  0  0  0
  8  7  1  0  0  0  0
 10  8  1  0  0  0  0
 10 11  1  0  0  0  0
 12 11  1  1  0  0  0
 12 13  1  0  0  0  0
 14 13  1  0  0  0  0
 15 12  1  0  0  0  0
 16 15  1  0  0  0  0
 17 19  1  0  0  0  0
 19 18  2  6  0  0  0
 19 21  1  0  0  0  0
 19 20  1  0  0  0  0
 21 22  1  0  0  0  0
 23 22  1  0  0  0  0
 23 24  1  0  0  0  0
 24 25  1  0  0  0  0
 26 24  2  0  0  0  0
 27 46  1  6  0  0  0
 27 29  1  0  0  0  0
 27  4  1  0  0  0  0
 29 30  1  0  0  0  0
 29 28  1  0  0  0  0
 31 29  1  0  0  0  0
 32 31  1  0  0  0  0
 34 43  1  0  0  0  0
 35 36  1  0  0  0  0
 35 33  1  0  0  0  0
 37 41  1  1  0  0  0
 37 35  1  0  0  0  0
 37 34  1  0  0  0  0
 38 45  1  0  0  0  0
 38 36  2  0  0  0  0
 39 38  1  0  0  0  0
 39 40  1  0  0  0  0
 40 34  2  0  0  0  0
 41 42  1  0  0  0  0
 42 33  1  0  0  0  0
 43 32  1  0  0  0  0
 44 45  1  0  0  0  0
 47 46  1  0  0  0  0
M  END
>  <MODEL>
8

>  <REMARK>
 VINA RESULT:      -5.9      3.423      9.108
  Name = 
  19 active torsions:
  status: ('A' for Active; 'I' for Inactive)
    1  A    between atoms: C_1  and  C_8
    2  A    between atoms: C_5  and  O_33
    3  A    between atoms: C_5  and  C_38
    4  A    between atoms: N_6  and  C_24
    5  A    between atoms: C_7  and  P_10
    6  A    between atoms: C_7  and  C_15
    7  A    between atoms: C_8  and  C_11
    8  A    between atoms: C_8  and  N_43
    9  A    between atoms: P_10  and  O_33
   10  A    between atoms: C_11  and  C_12
   11  A    between atoms: C_12  and  C_42
   12  A    between atoms: C_14  and  C_45
   13  A    between atoms: N_18  and  C_22
   14  A    between atoms: C_19  and  C_38
   15  A    between atoms: C_22  and  C_39
   16  A    between atoms: C_24  and  O_34
   17  A    between atoms: C_24  and  C_39
   18  A    between atoms: C_26  and  O_40
   19  A    between atoms: N_36  and  C_42
                            x       y       z     vdW  Elec       q    Type
                         _______ _______ _______ _____ _____    ______ ____

>  <TORSDO>
F 19

$$$$
=
 OpenBabel11032420553D

 47 50  0  0  1  0  0  0  0  0999 V2000
  189.0310  176.9810  138.7930 C   0  0  0  0  0  0  0  0  0  0  0  0
  189.6810  177.2110  140.0610 C   0  0  0  0  0  0  0  0  0  0  0  0
  189.7910  176.3330  137.9760 N   0  0  0  0  0  0  0  0  0  0  0  0
  187.7050  177.4040  138.4700 N   0  0  0  0  0  2  0  0  0  0  0  0
  191.0610  176.0650  138.6450 C   0  0  2  0  0  3  0  0  0  0  0  0
  190.8870  176.6730  140.0090 C   0  0  0  0  0  3  0  0  0  0  0  0
  192.1870  176.7650  137.9040 C   0  0  2  0  0  3  0  0  0  0  0  0
  193.2060  175.8200  137.5970 N   0  0  0  0  0  0  0  0  0  0  0  0
  193.3710  176.7400  138.6920 N   0  0  0  0  0  2  0  0  0  0  0  0
  193.9530  176.3620  136.4750 C   0  0  0  0  0  2  0  0  0  0  0  0
  194.8180  175.2800  135.8470 C   0  0  0  0  0  2  0  0  0  0  0  0
  195.2770  174.2660  136.8950 C   0  0  2  0  0  3  0  0  0  0  0  0
  196.4240  174.7700  137.6440 N   0  0  0  0  0  2  0  0  0  0  0  0
  196.1710  174.5020  139.0490 C   0  0  0  0  0  1  0  0  0  0  0  0
  195.5140  172.9800  136.3540 O   0  0  0  0  0  0  0  0  0  0  0  0
  194.5530  172.0880  136.8560 C   0  0  0  0  0  1  0  0  0  0  0  0
  189.0890  177.8760  141.2560 C   0  0  0  0  0  2  0  0  0  0  0  0
  189.9790  175.7120  142.6530 O   0  0  0  0  0  0  0  0  0  0  0  0
  189.8240  177.2120  142.7810 P   0  0  1  0  0  0  0  0  0  0  0  0
  191.3420  177.9200  143.0240 O   0  0  0  0  0  1  0  0  0  0  0  0
  188.7960  177.5760  144.0810 O   0  0  0  0  0  0  0  0  0  0  0  0
  187.5420  177.0840  143.7170 C   0  0  0  0  0  2  0  0  0  0  0  0
  186.5110  177.5300  144.7340 C   0  0  0  0  0  2  0  0  0  0  0  0
  185.4110  178.2610  144.0490 C   0  0  0  0  0  0  0  0  0  0  0  0
  184.6810  179.0540  144.6980 O   0  0  0  0  0  1  0  0  0  0  0  0
  185.2060  178.0920  142.6850 O   0  0  0  0  0  0  0  0  0  0  0  0
  187.1150  177.1920  137.1530 C   0  0  1  0  0  3  0  0  0  0  0  0
  185.0990  175.9860  137.5840 F   0  0  0  0  0  0  0  0  0  0  0  0
  185.5890  177.2410  137.2550 C   0  0  0  0  0  0  0  0  0  0  0  0
  185.0670  177.6200  136.0290 F   0  0  0  0  0  0  0  0  0  0  0  0
  185.1730  178.2660  138.3100 C   0  0  0  0  0  2  0  0  0  0  0  0
  183.8840  177.8740  139.0230 C   0  0  0  0  0  2  0  0  0  0  0  0
  180.0850  181.9060  139.0070 C   0  0  0  0  0  2  0  0  0  0  0  0
  181.4960  178.7170  139.2220 C   0  0  0  0  0  0  0  0  0  0  0  0
  180.0690  180.6280  139.6450 N   0  0  0  0  0  0  0  0  0  0  0  0
  179.7730  180.4670  141.0420 C   0  0  0  0  0  3  0  0  0  0  0  0
  180.3940  179.5900  138.6890 C   0  0  1  0  0  3  0  0  0  0  0  0
  179.7590  179.2940  141.6880 C   0  0  0  0  0  0  0  0  0  0  0  0
  180.0170  177.9830  140.9890 C   0  0  0  0  0  2  0  0  0  0  0  0
  181.2960  177.9990  140.2870 N   0  0  0  0  0  0  0  0  0  0  0  0
  180.7730  180.2090  137.4790 O   0  0  0  0  0  0  0  0  0  0  0  0
  180.3790  181.5640  137.5640 C   0  0  0  0  0  2  0  0  0  0  0  0
  182.7790  178.7190  138.5880 N   0  0  0  0  0  2  0  0  0  0  0  0
  180.0460  178.3940  143.9710 C   0  0  0  0  0  1  0  0  0  0  0  0
  179.4690  179.3130  143.0550 O   0  0  0  0  0  0  0  0  0  0  0  0
  187.6400  178.2430  136.1750 C   0  0  0  0  0  2  0  0  0  0  0  0
  188.1880  177.5860  134.9230 C   0  0  0  0  0  1  0  0  0  0  0  0
  1  2  1  0  0  0  0
  2 17  1  0  0  0  0
  3  5  1  0  0  0  0
  3  1  2  0  0  0  0
  4  1  1  0  0  0  0
  5  6  1  1  0  0  0
  6  2  2  0  0  0  0
  7  5  1  0  0  0  0
  7  9  1  1  0  0  0
  8  7  1  0  0  0  0
  8  9  1  0  0  0  0
 10  8  1  0  0  0  0
 11 10  1  0  0  0  0
 12 11  1  6  0  0  0
 12 13  1  0  0  0  0
 13 14  1  0  0  0  0
 15 16  1  0  0  0  0
 15 12  1  0  0  0  0
 17 19  1  0  0  0  0
 19 18  2  6  0  0  0
 19 20  1  0  0  0  0
 19 21  1  0  0  0  0
 22 21  1  0  0  0  0
 22 23  1  0  0  0  0
 24 25  1  0  0  0  0
 24 23  1  0  0  0  0
 26 24  2  0  0  0  0
 27 46  1  6  0  0  0
 27 29  1  0  0  0  0
 27  4  1  0  0  0  0
 29 28  1  0  0  0  0
 29 31  1  0  0  0  0
 30 29  1  0  0  0  0
 31 32  1  0  0  0  0
 33 35  1  0  0  0  0
 34 40  2  0  0  0  0
 35 36  1  0  0  0  0
 36 38  2  0  0  0  0
 37 41  1  6  0  0  0
 37 34  1  0  0  0  0
 37 35  1  0  0  0  0
 38 45  1  0  0  0  0
 39 38  1  0  0  0  0
 40 39  1  0  0  0  0
 41 42  1  0  0  0  0
 42 33  1  0  0  0  0
 43 32  1  0  0  0  0
 43 34  1  0  0  0  0
 45 44  1  0  0  0  0
 47 46  1  0  0  0  0
M  END
>  <MODEL>
9

>  <REMARK>
 VINA RESULT:      -5.8      4.306      8.386
  Name = 
  19 active torsions:
  status: ('A' for Active; 'I' for Inactive)
    1  A    between atoms: C_1  and  C_8
    2  A    between atoms: C_5  and  O_33
    3  A    between atoms: C_5  and  C_38
    4  A    between atoms: N_6  and  C_24
    5  A    between atoms: C_7  and  P_10
    6  A    between atoms: C_7  and  C_15
    7  A    between atoms: C_8  and  C_11
    8  A    between atoms: C_8  and  N_43
    9  A    between atoms: P_10  and  O_33
   10  A    between atoms: C_11  and  C_12
   11  A    between atoms: C_12  and  C_42
   12  A    between atoms: C_14  and  C_45
   13  A    between atoms: N_18  and  C_22
   14  A    between atoms: C_19  and  C_38
   15  A    between atoms: C_22  and  C_39
   16  A    between atoms: C_24  and  O_34
   17  A    between atoms: C_24  and  C_39
   18  A    between atoms: C_26  and  O_40
   19  A    between atoms: N_36  and  C_42
                            x       y       z     vdW  Elec       q    Type
                         _______ _______ _______ _____ _____    ______ ____

>  <TORSDO>
F 19

$$$$
