=
 OpenBabel11032420213D

 32 36  0  0  1  0  0  0  0  0999 V2000
  187.0590  177.8840  147.1510 C   0  0  0  0  0  0  0  0  0  0  0  0
  189.1650  177.1370  146.5070 C   0  0  2  0  0  3  0  0  0  0  0  0
  187.0420  177.2920  144.9600 N   0  0  0  0  0  0  0  0  0  0  0  0
  190.2070  178.1020  148.4890 O   0  0  0  0  0  0  0  0  0  0  0  0
  187.7000  177.2250  146.2230 C   0  0  0  0  0  0  0  0  0  0  0  0
  184.8090  178.7500  147.1740 N   0  0  0  0  0  2  0  0  0  0  0  0
  185.9680  178.0000  145.1500 C   0  0  0  0  0  0  0  0  0  0  0  0
  185.9060  178.5060  146.5350 C   0  0  0  0  0  0  0  0  0  0  0  0
  187.8930  178.4090  148.1680 N   0  0  0  0  0  2  0  0  0  0  0  0
  189.1750  177.9090  147.7920 C   0  0  0  0  0  0  0  0  0  0  0  0
  183.7450  178.6920  144.3900 C   0  0  0  0  0  3  0  0  0  0  0  0
  182.6980  178.9300  143.3630 C   0  0  0  0  0  3  0  0  0  0  0  0
  186.6010  178.3410  142.0900 C   0  0  0  0  0  3  0  0  0  0  0  0
  182.9930  178.8940  142.0590 C   0  0  0  0  0  3  0  0  0  0  0  0
  185.0620  179.2130  140.7680 C   0  0  0  0  0  2  0  0  0  0  0  0
  184.3720  178.5720  141.6910 C   0  0  1  0  0  3  0  0  0  0  0  0
  185.2890  177.8800  142.6380 C   0  0  2  0  0  3  0  0  0  0  0  0
  186.4530  179.0390  141.0080 N   0  0  0  0  0  0  0  0  0  0  0  0
  184.9890  178.2760  144.0730 C   0  0  0  0  0  0  0  0  0  0  0  0
  189.9570  177.8820  145.4450 C   0  0  0  0  0  2  0  0  0  0  0  0
  190.9950  177.2240  143.3530 C   0  0  0  0  0  0  0  0  0  0  0  0
  191.3550  177.5300  142.1340 C   0  0  0  0  0  3  0  0  0  0  0  0
  190.6430  176.9000  144.5650 C   0  0  0  0  0  3  0  0  0  0  0  0
  190.8910  176.7790  140.9160 C   0  0  0  0  0  2  0  0  0  0  0  0
  189.6780  177.3950  140.2180 C   0  0  0  0  0  2  0  0  0  0  0  0
  190.0530  177.9050  138.9020 N   0  0  0  0  0  0  0  0  0  0  0  0
  187.7810  177.7000  137.9030 C   0  0  0  0  0  2  0  0  0  0  0  0
  188.2820  176.7210  136.9440 N   0  0  0  0  0  0  0  0  0  0  0  0
  188.9190  178.6380  138.3230 C   0  0  0  0  0  2  0  0  0  0  0  0
  190.4700  176.7930  138.0370 C   0  0  0  0  0  2  0  0  0  0  0  0
  186.9500  175.6630  136.5760 Cl  0  0  0  0  0  0  0  0  0  0  0  0
  189.2830  175.9100  137.6260 C   0  0  0  0  0  2  0  0  0  0  0  0
  1  9  1  0  0  0  0
  2 20  1  6  0  0  0
  2 10  1  0  0  0  0
  3  7  2  0  0  0  0
  3  5  1  0  0  0  0
  5  2  1  0  0  0  0
  5  1  2  0  0  0  0
  7  8  1  0  0  0  0
  8  1  1  0  0  0  0
  8  6  2  0  0  0  0
 10  9  1  0  0  0  0
 10  4  2  0  0  0  0
 12 11  1  0  0  0  0
 14 12  2  0  0  0  0
 15 18  1  0  0  0  0
 16 15  1  1  0  0  0
 16 14  1  0  0  0  0
 16 17  1  0  0  0  0
 17 13  1  6  0  0  0
 17 19  1  0  0  0  0
 18 13  2  0  0  0  0
 19 11  2  0  0  0  0
 19  7  1  0  0  0  0
 21 23  2  0  0  0  0
 22 21  2  0  0  0  0
 23 20  1  0  0  0  0
 24 22  1  0  0  0  0
 25 24  1  0  0  0  0
 26 25  1  0  0  0  0
 27 29  1  0  0  0  0
 28 32  1  0  0  0  0
 28 27  1  0  0  0  0
 29 26  1  0  0  0  0
 30 26  1  0  0  0  0
 31 28  1  0  0  0  0
 32 30  1  0  0  0  0
M  END
>  <MODEL>
1

>  <REMARK>
 VINA RESULT:      -9.5      0.000      0.000
  Name = 
  6 active torsions:
  status: ('A' for Active; 'I' for Inactive)
    1  A    between atoms: N_2  and  C_13
    2  A    between atoms: C_3  and  C_18
    3  A    between atoms: C_9  and  C_29
    4  A    between atoms: C_13  and  C_29
    5  A    between atoms: C_18  and  C_24
    6  A    between atoms: C_21  and  C_30
                            x       y       z     vdW  Elec       q    Type
                         _______ _______ _______ _____ _____    ______ ____

>  <TORSDO>
F 6

$$$$
=
 OpenBabel11032420213D

 32 36  0  0  1  0  0  0  0  0999 V2000
  185.7780  178.5700  146.2280 C   0  0  0  0  0  0  0  0  0  0  0  0
  185.0490  179.2460  144.1270 C   0  0  2  0  0  3  0  0  0  0  0  0
  187.5210  178.6270  144.7780 N   0  0  0  0  0  0  0  0  0  0  0  0
  182.7180  178.8280  144.7060 O   0  0  0  0  0  0  0  0  0  0  0  0
  186.1840  179.0220  145.0730 C   0  0  0  0  0  0  0  0  0  0  0  0
  187.0290  177.6250  148.0590 N   0  0  0  0  0  2  0  0  0  0  0  0
  187.9260  177.9320  145.8000 C   0  0  0  0  0  0  0  0  0  0  0  0
  186.8420  177.7640  146.7880 C   0  0  0  0  0  0  0  0  0  0  0  0
  184.3820  178.3410  146.3020 N   0  0  0  0  0  2  0  0  0  0  0  0
  183.9360  178.8010  145.0260 C   0  0  0  0  0  0  0  0  0  0  0  0
  189.7630  176.9520  147.0880 C   0  0  0  0  0  3  0  0  0  0  0  0
  191.1420  176.4260  147.2610 C   0  0  0  0  0  3  0  0  0  0  0  0
  189.7120  176.9560  143.4050 C   0  0  0  0  0  3  0  0  0  0  0  0
  191.9260  176.1880  146.2030 C   0  0  0  0  0  3  0  0  0  0  0  0
  191.4890  175.7170  143.8290 C   0  0  0  0  0  2  0  0  0  0  0  0
  191.3830  176.5040  144.8820 C   0  0  1  0  0  3  0  0  0  0  0  0
  190.2430  177.4460  144.7130 C   0  0  2  0  0  3  0  0  0  0  0  0
  190.4590  176.0270  142.8980 N   0  0  0  0  0  0  0  0  0  0  0  0
  189.2900  177.3620  145.8930 C   0  0  0  0  0  0  0  0  0  0  0  0
  185.1600  178.3110  142.9330 C   0  0  0  0  0  2  0  0  0  0  0  0
  185.2130  178.9170  140.5840 C   0  0  0  0  0  0  0  0  0  0  0  0
  184.7180  178.7860  139.3810 C   0  0  0  0  0  3  0  0  0  0  0  0
  185.7200  179.0580  141.7760 C   0  0  0  0  0  3  0  0  0  0  0  0
  185.5260  178.3390  138.1920 C   0  0  0  0  0  2  0  0  0  0  0  0
  186.8610  177.6820  138.5470 C   0  0  0  0  0  2  0  0  0  0  0  0
  187.9440  178.6580  138.4670 N   0  0  0  0  0  0  0  0  0  0  0  0
  189.5110  177.1830  137.2140 C   0  0  0  0  0  2  0  0  0  0  0  0
  190.4450  177.2100  138.3340 N   0  0  0  0  0  0  0  0  0  0  0  0
  188.6770  178.4690  137.2080 C   0  0  0  0  0  2  0  0  0  0  0  0
  188.8310  178.5150  139.6300 C   0  0  0  0  0  2  0  0  0  0  0  0
  191.2980  175.6930  138.3040 Cl  0  0  0  0  0  0  0  0  0  0  0  0
  189.6600  177.2250  139.5620 C   0  0  0  0  0  2  0  0  0  0  0  0
  1  9  1  0  0  0  0
  1  8  1  0  0  0  0
  2 20  1  6  0  0  0
  2 10  1  0  0  0  0
  2  5  1  0  0  0  0
  3  5  1  0  0  0  0
  3  7  2  0  0  0  0
  4 10  2  0  0  0  0
  5  1  2  0  0  0  0
  7 19  1  0  0  0  0
  7  8  1  0  0  0  0
  8  6  2  0  0  0  0
 10  9  1  0  0  0  0
 11 12  1  0  0  0  0
 14 12  2  0  0  0  0
 16 15  1  1  0  0  0
 16 14  1  0  0  0  0
 17 13  1  6  0  0  0
 17 16  1  0  0  0  0
 17 19  1  0  0  0  0
 18 13  2  0  0  0  0
 18 15  1  0  0  0  0
 19 11  2  0  0  0  0
 21 23  2  0  0  0  0
 22 21  2  0  0  0  0
 23 20  1  0  0  0  0
 24 25  1  0  0  0  0
 24 22  1  0  0  0  0
 26 25  1  0  0  0  0
 26 30  1  0  0  0  0
 27 28  1  0  0  0  0
 28 32  1  0  0  0  0
 29 27  1  0  0  0  0
 29 26  1  0  0  0  0
 31 28  1  0  0  0  0
 32 30  1  0  0  0  0
M  END
>  <MODEL>
2

>  <REMARK>
 VINA RESULT:      -9.4      2.218      5.314
  Name = 
  6 active torsions:
  status: ('A' for Active; 'I' for Inactive)
    1  A    between atoms: N_2  and  C_13
    2  A    between atoms: C_3  and  C_18
    3  A    between atoms: C_9  and  C_29
    4  A    between atoms: C_13  and  C_29
    5  A    between atoms: C_18  and  C_24
    6  A    between atoms: C_21  and  C_30
                            x       y       z     vdW  Elec       q    Type
                         _______ _______ _______ _____ _____    ______ ____

>  <TORSDO>
F 6

$$$$
=
 OpenBabel11032420213D

 32 36  0  0  1  0  0  0  0  0999 V2000
  187.4200  178.0150  141.9460 C   0  0  0  0  0  0  0  0  0  0  0  0
  185.1460  178.3070  142.3330 C   0  0  2  0  0  3  0  0  0  0  0  0
  186.9090  177.4330  144.0790 N   0  0  0  0  0  0  0  0  0  0  0  0
  184.8970  179.6880  140.3390 O   0  0  0  0  0  0  0  0  0  0  0  0
  186.4460  177.7050  142.7580 C   0  0  2  0  0  3  0  0  0  0  0  0
  189.8020  177.7480  142.1970 N   0  0  0  0  0  1  0  0  0  0  0  0
  188.2010  177.5700  144.0430 C   0  0  0  0  0  0  0  0  0  0  0  0
  188.6480  178.0220  142.7110 C   0  0  0  0  0  0  0  0  0  0  0  0
  187.0420  178.8880  140.8970 N   0  0  0  0  0  2  0  0  0  0  0  0
  185.6380  179.0260  141.1130 C   0  0  0  0  0  0  0  0  0  0  0  0
  190.3930  177.1690  145.0590 C   0  0  0  0  0  3  0  0  0  0  0  0
  191.3070  176.8770  146.1930 C   0  0  0  0  0  3  0  0  0  0  0  0
  187.4200  178.0420  147.0510 C   0  0  0  0  0  3  0  0  0  0  0  0
  190.8720  176.9260  147.4580 C   0  0  0  0  0  3  0  0  0  0  0  0
  189.0140  178.0860  148.5780 C   0  0  0  0  0  2  0  0  0  0  0  0
  189.4590  177.2400  147.6690 C   0  0  1  0  0  3  0  0  0  0  0  0
  188.4520  177.0650  146.5870 C   0  0  2  0  0  3  0  0  0  0  0  0
  187.7280  178.5590  148.1980 N   0  0  0  0  0  0  0  0  0  0  0  0
  189.0650  177.3400  145.2250 C   0  0  0  0  0  0  0  0  0  0  0  0
  184.6610  179.3100  143.3680 C   0  0  0  0  0  2  0  0  0  0  0  0
  182.3590  178.8080  142.7880 C   0  0  0  0  0  0  0  0  0  0  0  0
  181.4530  178.6060  141.8670 C   0  0  0  0  0  3  0  0  0  0  0  0
  183.2490  179.0070  143.7190 C   0  0  0  0  0  3  0  0  0  0  0  0
  180.1920  179.4200  141.7480 C   0  0  0  0  0  2  0  0  0  0  0  0
  180.2640  180.5500  140.7210 C   0  0  0  0  0  2  0  0  0  0  0  0
  180.2360  180.0070  139.3660 N   0  0  0  0  0  0  0  0  0  0  0  0
  181.8160  181.6730  138.4020 C   0  0  0  0  0  2  0  0  0  0  0  0
  180.7650  182.1750  137.5230 N   0  0  0  0  0  0  0  0  0  0  0  0
  181.5490  180.2010  138.7360 C   0  0  0  0  0  2  0  0  0  0  0  0
  179.1700  180.6570  138.5910 C   0  0  0  0  0  2  0  0  0  0  0  0
  181.1080  183.8590  137.2500 Cl  0  0  0  0  0  0  0  0  0  0  0  0
  179.5090  182.1170  138.2610 C   0  0  0  0  0  2  0  0  0  0  0  0
  1  8  2  0  0  0  0
  2  5  1  0  0  0  0
  2 20  1  1  0  0  0
  4 10  2  0  0  0  0
  5  1  1  1  0  0  0
  5  3  1  0  0  0  0
  6  8  1  0  0  0  0
  7  3  2  0  0  0  0
  7 19  1  0  0  0  0
  8  7  1  0  0  0  0
  9 10  1  0  0  0  0
  9  1  1  0  0  0  0
 10  2  1  0  0  0  0
 11 19  2  0  0  0  0
 11 12  1  0  0  0  0
 12 14  2  0  0  0  0
 13 18  2  0  0  0  0
 16 14  1  6  0  0  0
 16 15  1  0  0  0  0
 17 13  1  1  0  0  0
 17 16  1  0  0  0  0
 18 15  1  0  0  0  0
 19 17  1  0  0  0  0
 20 23  1  0  0  0  0
 21 23  2  0  0  0  0
 22 21  2  0  0  0  0
 24 22  1  0  0  0  0
 25 24  1  0  0  0  0
 26 25  1  0  0  0  0
 27 29  1  0  0  0  0
 28 32  1  0  0  0  0
 28 27  1  0  0  0  0
 29 26  1  0  0  0  0
 30 26  1  0  0  0  0
 31 28  1  0  0  0  0
 32 30  1  0  0  0  0
M  END
>  <MODEL>
3

>  <REMARK>
 VINA RESULT:      -9.4      3.789      7.958
  Name = 
  6 active torsions:
  status: ('A' for Active; 'I' for Inactive)
    1  A    between atoms: N_2  and  C_13
    2  A    between atoms: C_3  and  C_18
    3  A    between atoms: C_9  and  C_29
    4  A    between atoms: C_13  and  C_29
    5  A    between atoms: C_18  and  C_24
    6  A    between atoms: C_21  and  C_30
                            x       y       z     vdW  Elec       q    Type
                         _______ _______ _______ _____ _____    ______ ____

>  <TORSDO>
F 6

$$$$
=
 OpenBabel11032420213D

 32 36  0  0  1  0  0  0  0  0999 V2000
  190.7360  176.6170  142.9290 C   0  0  0  0  0  0  0  0  0  0  0  0
  189.4880  177.0620  141.0190 C   0  0  2  0  0  3  0  0  0  0  0  0
  188.5840  177.0710  143.4890 N   0  0  0  0  0  0  0  0  0  0  0  0
  191.4980  177.3860  139.6770 O   0  0  0  0  0  0  0  0  0  0  0  0
  189.5170  176.7140  142.4720 C   0  0  0  0  0  0  0  0  0  0  0  0
  191.5430  176.4840  145.1970 N   0  0  0  0  0  2  0  0  0  0  0  0
  189.2720  177.1710  144.5890 C   0  0  0  0  0  0  0  0  0  0  0  0
  190.7110  176.9670  144.3330 C   0  0  0  0  0  0  0  0  0  0  0  0
  191.7370  176.9180  141.9740 N   0  0  0  0  0  2  0  0  0  0  0  0
  190.9680  177.1450  140.7940 C   0  0  0  0  0  0  0  0  0  0  0  0
  189.4340  177.6670  146.9810 C   0  0  0  0  0  3  0  0  0  0  0  0
  188.8740  177.9400  148.3300 C   0  0  0  0  0  3  0  0  0  0  0  0
  186.3270  178.1650  145.0650 C   0  0  0  0  0  3  0  0  0  0  0  0
  187.5700  178.1910  148.4970 C   0  0  0  0  0  3  0  0  0  0  0  0
  185.7940  179.0380  147.0210 C   0  0  0  0  0  2  0  0  0  0  0  0
  186.7210  178.1440  147.3060 C   0  0  1  0  0  3  0  0  0  0  0  0
  187.1460  177.4260  146.0740 C   0  0  2  0  0  3  0  0  0  0  0  0
  185.5340  179.0230  145.6230 N   0  0  0  0  0  0  0  0  0  0  0  0
  188.6530  177.5010  145.8940 C   0  0  0  0  0  0  0  0  0  0  0  0
  188.8520  178.4270  140.8120 C   0  0  0  0  0  2  0  0  0  0  0  0
  186.4380  178.6320  140.9400 C   0  0  0  0  0  0  0  0  0  0  0  0
  185.3780  179.0060  141.6080 C   0  0  0  0  0  3  0  0  0  0  0  0
  187.4830  178.2520  140.2600 C   0  0  0  0  0  3  0  0  0  0  0  0
  184.2570  178.0730  141.9800 C   0  0  0  0  0  2  0  0  0  0  0  0
  182.8640  178.7010  141.9150 C   0  0  0  0  0  2  0  0  0  0  0  0
  182.0410  178.0080  140.9280 N   0  0  0  0  0  0  0  0  0  0  0  0
  182.6020  179.5220  139.0330 C   0  0  0  0  0  2  0  0  0  0  0  0
  181.2080  179.9400  138.9420 N   0  0  0  0  0  0  0  0  0  0  0  0
  182.6790  178.1030  139.6080 C   0  0  0  0  0  2  0  0  0  0  0  0
  180.6900  178.5850  140.9120 C   0  0  0  0  0  2  0  0  0  0  0  0
  181.2190  181.5750  138.3460 Cl  0  0  0  0  0  0  0  0  0  0  0  0
  180.6750  179.9920  140.2970 C   0  0  0  0  0  2  0  0  0  0  0  0
  1  8  1  0  0  0  0
  2 20  1  1  0  0  0
  2  5  1  0  0  0  0
  3  7  2  0  0  0  0
  4 10  2  0  0  0  0
  5  1  2  0  0  0  0
  5  3  1  0  0  0  0
  7 19  1  0  0  0  0
  8  7  1  0  0  0  0
  8  6  2  0  0  0  0
  9  1  1  0  0  0  0
 10  2  1  0  0  0  0
 10  9  1  0  0  0  0
 11 12  1  0  0  0  0
 12 14  2  0  0  0  0
 13 18  2  0  0  0  0
 16 15  1  6  0  0  0
 16 14  1  0  0  0  0
 17 13  1  6  0  0  0
 17 16  1  0  0  0  0
 18 15  1  0  0  0  0
 19 17  1  0  0  0  0
 19 11  2  0  0  0  0
 21 22  2  0  0  0  0
 22 24  1  0  0  0  0
 23 20  1  0  0  0  0
 23 21  2  0  0  0  0
 25 24  1  0  0  0  0
 26 25  1  0  0  0  0
 27 29  1  0  0  0  0
 28 27  1  0  0  0  0
 28 32  1  0  0  0  0
 29 26  1  0  0  0  0
 30 26  1  0  0  0  0
 31 28  1  0  0  0  0
 32 30  1  0  0  0  0
M  END
>  <MODEL>
4

>  <REMARK>
 VINA RESULT:      -9.0      3.055      6.559
  Name = 
  6 active torsions:
  status: ('A' for Active; 'I' for Inactive)
    1  A    between atoms: N_2  and  C_13
    2  A    between atoms: C_3  and  C_18
    3  A    between atoms: C_9  and  C_29
    4  A    between atoms: C_13  and  C_29
    5  A    between atoms: C_18  and  C_24
    6  A    between atoms: C_21  and  C_30
                            x       y       z     vdW  Elec       q    Type
                         _______ _______ _______ _____ _____    ______ ____

>  <TORSDO>
F 6

$$$$
=
 OpenBabel11032420213D

 32 36  0  0  1  0  0  0  0  0999 V2000
  190.9860  177.0190  142.9810 C   0  0  0  0  0  0  0  0  0  0  0  0
  190.1670  176.7270  140.8250 C   0  0  2  0  0  3  0  0  0  0  0  0
  188.7280  176.8010  143.0250 N   0  0  0  0  0  0  0  0  0  0  0  0
  192.2560  177.5030  139.8350 O   0  0  0  0  0  0  0  0  0  0  0  0
  189.9430  176.6300  142.2990 C   0  0  0  0  0  0  0  0  0  0  0  0
  191.2180  177.5070  145.3310 N   0  0  0  0  0  2  0  0  0  0  0  0
  189.0650  177.2910  144.1820 C   0  0  0  0  0  0  0  0  0  0  0  0
  190.5170  177.5460  144.2450 C   0  0  0  0  0  0  0  0  0  0  0  0
  192.0550  177.4930  142.1820 N   0  0  0  0  0  2  0  0  0  0  0  0
  191.5650  177.2680  140.8610 C   0  0  0  0  0  0  0  0  0  0  0  0
  188.4970  177.7520  146.5190 C   0  0  0  0  0  3  0  0  0  0  0  0
  187.5550  177.9900  147.6430 C   0  0  0  0  0  3  0  0  0  0  0  0
  186.0860  178.2050  143.7710 C   0  0  0  0  0  3  0  0  0  0  0  0
  186.2540  178.2060  147.4170 C   0  0  0  0  0  3  0  0  0  0  0  0
  184.9730  179.0340  145.4870 C   0  0  0  0  0  2  0  0  0  0  0  0
  185.7980  178.1580  146.0280 C   0  0  1  0  0  3  0  0  0  0  0  0
  186.5890  177.4700  144.9710 C   0  0  2  0  0  3  0  0  0  0  0  0
  185.1390  179.0350  144.0750 N   0  0  0  0  0  0  0  0  0  0  0  0
  188.0780  177.5840  145.2470 C   0  0  0  0  0  0  0  0  0  0  0  0
  189.2280  177.7510  140.2100 C   0  0  0  0  0  2  0  0  0  0  0  0
  187.7820  177.8690  138.2650 C   0  0  0  0  0  0  0  0  0  0  0  0
  186.8520  178.4980  137.5950 C   0  0  0  0  0  3  0  0  0  0  0  0
  188.7090  177.2280  138.9190 C   0  0  0  0  0  3  0  0  0  0  0  0
  185.5320  177.8780  137.2210 C   0  0  0  0  0  2  0  0  0  0  0  0
  184.5090  177.8360  138.3570 C   0  0  0  0  0  2  0  0  0  0  0  0
  184.4450  179.1290  139.0320 N   0  0  0  0  0  0  0  0  0  0  0  0
  183.3710  178.2680  141.1070 C   0  0  0  0  0  2  0  0  0  0  0  0
  182.1900  179.0810  140.8440 N   0  0  0  0  0  0  0  0  0  0  0  0
  184.6030  178.9310  140.4790 C   0  0  0  0  0  2  0  0  0  0  0  0
  183.1720  179.7920  138.7180 C   0  0  0  0  0  2  0  0  0  0  0  0
  180.8370  178.2270  141.5300 Cl  0  0  0  0  0  0  0  0  0  0  0  0
  181.9830  179.1020  139.4010 C   0  0  0  0  0  2  0  0  0  0  0  0
  1  8  1  0  0  0  0
  2 20  1  1  0  0  0
  2 10  1  0  0  0  0
  2  5  1  0  0  0  0
  3  7  2  0  0  0  0
  4 10  2  0  0  0  0
  5  1  2  0  0  0  0
  5  3  1  0  0  0  0
  7  8  1  0  0  0  0
  7 19  1  0  0  0  0
  8  6  2  0  0  0  0
  9  1  1  0  0  0  0
 10  9  1  0  0  0  0
 11 12  1  0  0  0  0
 13 18  2  0  0  0  0
 14 12  2  0  0  0  0
 16 15  1  6  0  0  0
 16 14  1  0  0  0  0
 17 13  1  6  0  0  0
 17 19  1  0  0  0  0
 17 16  1  0  0  0  0
 18 15  1  0  0  0  0
 19 11  2  0  0  0  0
 21 23  2  0  0  0  0
 22 21  2  0  0  0  0
 23 20  1  0  0  0  0
 24 22  1  0  0  0  0
 24 25  1  0  0  0  0
 25 26  1  0  0  0  0
 26 29  1  0  0  0  0
 28 27  1  0  0  0  0
 28 31  1  0  0  0  0
 29 27  1  0  0  0  0
 30 26  1  0  0  0  0
 30 32  1  0  0  0  0
 32 28  1  0  0  0  0
M  END
>  <MODEL>
5

>  <REMARK>
 VINA RESULT:      -9.0      2.915      5.894
  Name = 
  6 active torsions:
  status: ('A' for Active; 'I' for Inactive)
    1  A    between atoms: N_2  and  C_13
    2  A    between atoms: C_3  and  C_18
    3  A    between atoms: C_9  and  C_29
    4  A    between atoms: C_13  and  C_29
    5  A    between atoms: C_18  and  C_24
    6  A    between atoms: C_21  and  C_30
                            x       y       z     vdW  Elec       q    Type
                         _______ _______ _______ _____ _____    ______ ____

>  <TORSDO>
F 6

$$$$
=
 OpenBabel11032420213D

 32 36  0  0  1  0  0  0  0  0999 V2000
  184.1960  178.9570  145.0200 C   0  0  0  0  0  0  0  0  0  0  0  0
  183.9520  179.3890  142.7490 C   0  0  2  0  0  3  0  0  0  0  0  0
  186.2230  178.9480  144.0010 N   0  0  0  0  0  0  0  0  0  0  0  0
  181.5600  178.9260  142.8310 O   0  0  0  0  0  0  0  0  0  0  0  0
  184.8460  179.3100  143.9440 C   0  0  0  0  0  0  0  0  0  0  0  0
  185.0170  178.2530  147.1750 N   0  0  0  0  0  2  0  0  0  0  0  0
  186.3990  178.3770  145.1550 C   0  0  0  0  0  0  0  0  0  0  0  0
  185.1220  178.2580  145.8860 C   0  0  0  0  0  0  0  0  0  0  0  0
  182.8260  178.6740  144.8020 N   0  0  0  0  0  2  0  0  0  0  0  0
  182.6720  178.9850  143.4170 C   0  0  0  0  0  0  0  0  0  0  0  0
  187.8820  177.5030  146.8970 C   0  0  0  0  0  3  0  0  0  0  0  0
  189.1910  177.0520  147.4340 C   0  0  0  0  0  3  0  0  0  0  0  0
  188.7950  177.4820  143.3290 C   0  0  0  0  0  3  0  0  0  0  0  0
  190.2360  176.8490  146.6220 C   0  0  0  0  0  3  0  0  0  0  0  0
  190.4590  176.3420  144.2260 C   0  0  0  0  0  2  0  0  0  0  0  0
  190.0420  177.1280  145.1990 C   0  0  1  0  0  3  0  0  0  0  0  0
  188.9410  178.0080  144.7200 C   0  0  2  0  0  3  0  0  0  0  0  0
  189.6940  176.5910  143.0530 N   0  0  0  0  0  0  0  0  0  0  0  0
  187.7180  177.8800  145.6120 C   0  0  0  0  0  0  0  0  0  0  0  0
  184.3520  178.3470  141.7170 C   0  0  0  0  0  2  0  0  0  0  0  0
  184.4880  178.3020  139.2940 C   0  0  0  0  0  0  0  0  0  0  0  0
  184.4720  177.6140  138.1830 C   0  0  0  0  0  3  0  0  0  0  0  0
  184.5080  179.0040  140.3920 C   0  0  0  0  0  3  0  0  0  0  0  0
  185.6010  177.6120  137.1880 C   0  0  0  0  0  2  0  0  0  0  0  0
  186.9510  177.1880  137.7660 C   0  0  0  0  0  2  0  0  0  0  0  0
  187.7390  178.3630  138.1320 N   0  0  0  0  0  0  0  0  0  0  0  0
  189.8940  177.5040  137.2280 C   0  0  0  0  0  2  0  0  0  0  0  0
  190.4690  177.5090  138.5680 N   0  0  0  0  0  0  0  0  0  0  0  0
  188.7960  178.5700  137.1340 C   0  0  0  0  0  2  0  0  0  0  0  0
  188.3010  178.1860  139.4780 C   0  0  0  0  0  2  0  0  0  0  0  0
  191.6510  176.2320  138.6050 Cl  0  0  0  0  0  0  0  0  0  0  0  0
  189.4150  177.1300  139.5000 C   0  0  0  0  0  2  0  0  0  0  0  0
  1  8  1  0  0  0  0
  2 20  1  6  0  0  0
  2 10  1  0  0  0  0
  2  5  1  0  0  0  0
  3  7  2  0  0  0  0
  4 10  2  0  0  0  0
  5  3  1  0  0  0  0
  5  1  2  0  0  0  0
  7 19  1  0  0  0  0
  7  8  1  0  0  0  0
  8  6  2  0  0  0  0
  9  1  1  0  0  0  0
 10  9  1  0  0  0  0
 11 12  1  0  0  0  0
 14 12  2  0  0  0  0
 16 15  1  6  0  0  0
 16 14  1  0  0  0  0
 17 13  1  6  0  0  0
 17 16  1  0  0  0  0
 17 19  1  0  0  0  0
 18 13  2  0  0  0  0
 18 15  1  0  0  0  0
 19 11  2  0  0  0  0
 21 23  2  0  0  0  0
 22 21  2  0  0  0  0
 23 20  1  0  0  0  0
 24 25  1  0  0  0  0
 24 22  1  0  0  0  0
 25 26  1  0  0  0  0
 26 30  1  0  0  0  0
 27 28  1  0  0  0  0
 28 31  1  0  0  0  0
 28 32  1  0  0  0  0
 29 27  1  0  0  0  0
 29 26  1  0  0  0  0
 30 32  1  0  0  0  0
M  END
>  <MODEL>
6

>  <REMARK>
 VINA RESULT:      -8.8      2.533      5.454
  Name = 
  6 active torsions:
  status: ('A' for Active; 'I' for Inactive)
    1  A    between atoms: N_2  and  C_13
    2  A    between atoms: C_3  and  C_18
    3  A    between atoms: C_9  and  C_29
    4  A    between atoms: C_13  and  C_29
    5  A    between atoms: C_18  and  C_24
    6  A    between atoms: C_21  and  C_30
                            x       y       z     vdW  Elec       q    Type
                         _______ _______ _______ _____ _____    ______ ____

>  <TORSDO>
F 6

$$$$
=
 OpenBabel11032420213D

 32 36  0  0  1  0  0  0  0  0999 V2000
  190.7410  177.1070  143.1550 C   0  0  0  0  0  0  0  0  0  0  0  0
  190.3870  176.7660  140.8820 C   0  0  2  0  0  3  0  0  0  0  0  0
  188.5210  176.9170  142.7290 N   0  0  0  0  0  0  0  0  0  0  0  0
  192.6500  177.4900  140.3340 O   0  0  0  0  0  0  0  0  0  0  0  0
  189.8580  176.7130  142.2790 C   0  0  0  0  0  0  0  0  0  0  0  0
  190.4850  177.6560  145.4880 N   0  0  0  0  0  2  0  0  0  0  0  0
  188.6170  177.4340  143.9190 C   0  0  0  0  0  0  0  0  0  0  0  0
  190.0280  177.6740  144.2790 C   0  0  0  0  0  0  0  0  0  0  0  0
  191.9620  177.5460  142.5870 N   0  0  0  0  0  2  0  0  0  0  0  0
  191.7560  177.2920  141.1980 C   0  0  0  0  0  0  0  0  0  0  0  0
  187.5680  177.9040  146.0810 C   0  0  0  0  0  3  0  0  0  0  0  0
  186.4130  178.1790  146.9750 C   0  0  0  0  0  3  0  0  0  0  0  0
  185.8490  178.5030  142.8790 C   0  0  0  0  0  3  0  0  0  0  0  0
  185.2060  178.4640  146.4710 C   0  0  0  0  0  3  0  0  0  0  0  0
  184.4250  179.3730  144.3240 C   0  0  0  0  0  2  0  0  0  0  0  0
  185.0670  178.4520  145.0150 C   0  0  1  0  0  3  0  0  0  0  0  0
  186.0380  177.7330  144.1460 C   0  0  2  0  0  3  0  0  0  0  0  0
  184.9000  179.3780  142.9830 N   0  0  0  0  0  0  0  0  0  0  0  0
  187.4340  177.7680  144.7450 C   0  0  0  0  0  0  0  0  0  0  0  0
  189.6150  177.7850  140.0590 C   0  0  0  0  0  2  0  0  0  0  0  0
  188.9350  178.0350  137.7430 C   0  0  0  0  0  0  0  0  0  0  0  0
  188.3410  178.7440  136.8200 C   0  0  0  0  0  3  0  0  0  0  0  0
  189.5310  177.3150  138.6510 C   0  0  0  0  0  3  0  0  0  0  0  0
  187.1860  178.2380  135.9970 C   0  0  0  0  0  2  0  0  0  0  0  0
  186.0900  177.5440  136.8060 C   0  0  0  0  0  2  0  0  0  0  0  0
  185.1050  176.9400  135.9130 N   0  0  0  0  0  0  0  0  0  0  0  0
  184.1580  175.3840  137.6110 C   0  0  0  0  0  2  0  0  0  0  0  0
  184.6070  174.2390  136.8250 N   0  0  0  0  0  0  0  0  0  0  0  0
  183.9070  176.5780  136.6840 C   0  0  0  0  0  2  0  0  0  0  0  0
  185.6880  175.7670  135.2480 C   0  0  0  0  0  2  0  0  0  0  0  0
  184.9300  172.9570  137.9570 Cl  0  0  0  0  0  0  0  0  0  0  0  0
  185.8850  174.5950  136.2210 C   0  0  0  0  0  2  0  0  0  0  0  0
  1  8  1  0  0  0  0
  2 20  1  6  0  0  0
  2 10  1  0  0  0  0
  2  5  1  0  0  0  0
  3  7  2  0  0  0  0
  4 10  2  0  0  0  0
  5  3  1  0  0  0  0
  5  1  2  0  0  0  0
  7  8  1  0  0  0  0
  7 19  1  0  0  0  0
  8  6  2  0  0  0  0
  9  1  1  0  0  0  0
 10  9  1  0  0  0  0
 11 12  1  0  0  0  0
 13 18  2  0  0  0  0
 14 12  2  0  0  0  0
 16 15  1  6  0  0  0
 16 14  1  0  0  0  0
 17 13  1  6  0  0  0
 17 19  1  0  0  0  0
 17 16  1  0  0  0  0
 18 15  1  0  0  0  0
 19 11  2  0  0  0  0
 21 23  2  0  0  0  0
 22 21  2  0  0  0  0
 23 20  1  0  0  0  0
 24 25  1  0  0  0  0
 24 22  1  0  0  0  0
 26 29  1  0  0  0  0
 26 25  1  0  0  0  0
 28 27  1  0  0  0  0
 28 31  1  0  0  0  0
 29 27  1  0  0  0  0
 30 26  1  0  0  0  0
 30 32  1  0  0  0  0
 32 28  1  0  0  0  0
M  END
>  <MODEL>
7

>  <REMARK>
 VINA RESULT:      -8.7      2.837      5.040
  Name = 
  6 active torsions:
  status: ('A' for Active; 'I' for Inactive)
    1  A    between atoms: N_2  and  C_13
    2  A    between atoms: C_3  and  C_18
    3  A    between atoms: C_9  and  C_29
    4  A    between atoms: C_13  and  C_29
    5  A    between atoms: C_18  and  C_24
    6  A    between atoms: C_21  and  C_30
                            x       y       z     vdW  Elec       q    Type
                         _______ _______ _______ _____ _____    ______ ____

>  <TORSDO>
F 6

$$$$
=
 OpenBabel11032420213D

 32 36  0  0  1  0  0  0  0  0999 V2000
  186.0030  178.6150  146.3910 C   0  0  0  0  0  0  0  0  0  0  0  0
  185.1420  179.0070  144.2670 C   0  0  2  0  0  3  0  0  0  0  0  0
  187.6370  178.3960  144.8320 N   0  0  0  0  0  0  0  0  0  0  0  0
  182.8490  178.7650  145.0590 O   0  0  0  0  0  0  0  0  0  0  0  0
  186.3360  178.8790  145.1570 C   0  0  0  0  0  0  0  0  0  0  0  0
  187.3590  177.8990  148.2510 N   0  0  0  0  0  2  0  0  0  0  0  0
  188.0960  177.8420  145.9160 C   0  0  0  0  0  0  0  0  0  0  0  0
  187.0830  177.8600  146.9890 C   0  0  0  0  0  0  0  0  0  0  0  0
  184.6110  178.4520  146.5920 N   0  0  0  0  0  2  0  0  0  0  0  0
  184.0850  178.7390  145.2960 C   0  0  0  0  0  0  0  0  0  0  0  0
  189.9030  176.7790  147.1810 C   0  0  0  0  0  3  0  0  0  0  0  0
  191.2690  176.2190  147.3460 C   0  0  0  0  0  3  0  0  0  0  0  0
  189.8800  176.9100  143.5000 C   0  0  0  0  0  3  0  0  0  0  0  0
  192.0560  176.0000  146.2850 C   0  0  0  0  0  3  0  0  0  0  0  0
  191.6280  175.6210  143.8930 C   0  0  0  0  0  2  0  0  0  0  0  0
  191.5300  176.3730  144.9720 C   0  0  1  0  0  3  0  0  0  0  0  0
  190.4110  177.3440  144.8280 C   0  0  2  0  0  3  0  0  0  0  0  0
  190.6110  175.9840  142.9670 N   0  0  0  0  0  0  0  0  0  0  0  0
  189.4480  177.2400  145.9980 C   0  0  0  0  0  0  0  0  0  0  0  0
  185.1400  177.9050  143.2190 C   0  0  0  0  0  2  0  0  0  0  0  0
  183.7380  178.2660  141.2710 C   0  0  0  0  0  0  0  0  0  0  0  0
  182.6150  178.0410  140.6410 C   0  0  0  0  0  3  0  0  0  0  0  0
  184.8640  178.4990  141.8850 C   0  0  0  0  0  3  0  0  0  0  0  0
  182.5390  177.4320  139.2670 C   0  0  0  0  0  2  0  0  0  0  0  0
  183.8740  177.3830  138.5230 C   0  0  0  0  0  2  0  0  0  0  0  0
  183.6760  176.9130  137.1550 N   0  0  0  0  0  0  0  0  0  0  0  0
  183.8130  174.4890  137.7060 C   0  0  0  0  0  2  0  0  0  0  0  0
  185.0110  174.3600  136.8840 N   0  0  0  0  0  0  0  0  0  0  0  0
  182.9470  175.6380  137.1790 C   0  0  0  0  0  2  0  0  0  0  0  0
  184.9750  176.7740  136.4830 C   0  0  0  0  0  2  0  0  0  0  0  0
  185.9620  173.0850  137.5900 Cl  0  0  0  0  0  0  0  0  0  0  0  0
  185.7810  175.5880  137.0330 C   0  0  0  0  0  2  0  0  0  0  0  0
  1  9  1  0  0  0  0
  1  8  1  0  0  0  0
  2 20  1  6  0  0  0
  2  5  1  0  0  0  0
  2 10  1  0  0  0  0
  3  5  1  0  0  0  0
  3  7  2  0  0  0  0
  4 10  2  0  0  0  0
  5  1  2  0  0  0  0
  7 19  1  0  0  0  0
  7  8  1  0  0  0  0
  8  6  2  0  0  0  0
 10  9  1  0  0  0  0
 11 12  1  0  0  0  0
 14 12  2  0  0  0  0
 16 15  1  1  0  0  0
 16 14  1  0  0  0  0
 17 13  1  6  0  0  0
 17 16  1  0  0  0  0
 17 19  1  0  0  0  0
 18 13  2  0  0  0  0
 18 15  1  0  0  0  0
 19 11  2  0  0  0  0
 21 23  2  0  0  0  0
 22 21  2  0  0  0  0
 23 20  1  0  0  0  0
 24 22  1  0  0  0  0
 25 24  1  0  0  0  0
 26 29  1  0  0  0  0
 26 25  1  0  0  0  0
 28 32  1  0  0  0  0
 28 31  1  0  0  0  0
 28 27  1  0  0  0  0
 29 27  1  0  0  0  0
 30 32  1  0  0  0  0
 30 26  1  0  0  0  0
M  END
>  <MODEL>
8

>  <REMARK>
 VINA RESULT:      -8.6      2.819      6.008
  Name = 
  6 active torsions:
  status: ('A' for Active; 'I' for Inactive)
    1  A    between atoms: N_2  and  C_13
    2  A    between atoms: C_3  and  C_18
    3  A    between atoms: C_9  and  C_29
    4  A    between atoms: C_13  and  C_29
    5  A    between atoms: C_18  and  C_24
    6  A    between atoms: C_21  and  C_30
                            x       y       z     vdW  Elec       q    Type
                         _______ _______ _______ _____ _____    ______ ____

>  <TORSDO>
F 6

$$$$
=
 OpenBabel11032420213D

 32 36  0  0  1  0  0  0  0  0999 V2000
  190.1630  176.4530  136.9930 C   0  0  0  0  0  0  0  0  0  0  0  0
  189.7600  176.9000  139.2390 C   0  0  2  0  0  3  0  0  0  0  0  0
  191.1570  174.8820  138.2940 N   0  0  0  0  0  0  0  0  0  0  0  0
  189.0500  179.1800  138.7460 O   0  0  0  0  0  0  0  0  0  0  0  0
  190.1970  175.9300  138.1890 C   0  0  2  0  0  3  0  0  0  0  0  0
  191.0790  175.6470  134.9140 N   0  0  0  0  0  1  0  0  0  0  0  0
  191.6970  174.7680  137.1160 C   0  0  0  0  0  0  0  0  0  0  0  0
  191.1760  175.7970  136.1940 C   0  0  0  0  0  0  0  0  0  0  0  0
  189.7830  177.8170  136.9690 N   0  0  0  0  0  2  0  0  0  0  0  0
  189.4930  178.0720  138.3430 C   0  0  0  0  0  0  0  0  0  0  0  0
  192.4490  172.7550  135.9430 C   0  0  0  0  0  3  0  0  0  0  0  0
  193.4210  171.6750  135.6310 C   0  0  0  0  0  3  0  0  0  0  0  0
  194.7710  174.9810  137.7390 C   0  0  0  0  0  3  0  0  0  0  0  0
  194.6830  171.7360  136.0710 C   0  0  0  0  0  3  0  0  0  0  0  0
  196.1630  173.5760  136.7570 C   0  0  0  0  0  2  0  0  0  0  0  0
  195.0490  172.8840  136.9000 C   0  0  1  0  0  3  0  0  0  0  0  0
  194.0200  173.6950  137.6050 C   0  0  2  0  0  3  0  0  0  0  0  0
  195.9890  174.8750  137.3110 N   0  0  0  0  0  0  0  0  0  0  0  0
  192.7320  173.7560  136.8020 C   0  0  0  0  0  0  0  0  0  0  0  0
  190.9090  177.2170  140.1820 C   0  0  0  0  0  2  0  0  0  0  0  0
  189.3290  176.8420  141.9850 C   0  0  0  0  0  0  0  0  0  0  0  0
  188.1040  176.9140  142.4360 C   0  0  0  0  0  3  0  0  0  0  0  0
  190.5570  176.7640  141.5530 C   0  0  0  0  0  3  0  0  0  0  0  0
  187.7170  177.6740  143.6760 C   0  0  0  0  0  2  0  0  0  0  0  0
  188.3290  177.1310  144.9670 C   0  0  0  0  0  2  0  0  0  0  0  0
  189.0740  178.1810  145.6570 N   0  0  0  0  0  0  0  0  0  0  0  0
  191.3100  177.1260  145.3670 C   0  0  0  0  0  2  0  0  0  0  0  0
  191.4420  176.9870  146.8130 N   0  0  0  0  0  0  0  0  0  0  0  0
  190.4020  178.3180  145.0450 C   0  0  0  0  0  2  0  0  0  0  0  0
  189.1740  177.8630  147.0880 C   0  0  0  0  0  2  0  0  0  0  0  0
  192.4280  175.5790  147.0870 Cl  0  0  0  0  0  0  0  0  0  0  0  0
  190.1210  176.6830  147.3480 C   0  0  0  0  0  2  0  0  0  0  0  0
  2 20  1  1  0  0  0
  5  1  1  6  0  0  0
  5  3  1  0  0  0  0
  5  2  1  0  0  0  0
  6  8  1  0  0  0  0
  7  3  2  0  0  0  0
  8  1  2  0  0  0  0
  8  7  1  0  0  0  0
  9  1  1  0  0  0  0
  9 10  1  0  0  0  0
 10  4  2  0  0  0  0
 10  2  1  0  0  0  0
 11 19  2  0  0  0  0
 12 11  1  0  0  0  0
 12 14  2  0  0  0  0
 15 16  1  0  0  0  0
 15 18  1  0  0  0  0
 16 14  1  6  0  0  0
 16 17  1  0  0  0  0
 17 13  1  6  0  0  0
 18 13  2  0  0  0  0
 19  7  1  0  0  0  0
 19 17  1  0  0  0  0
 20 23  1  0  0  0  0
 21 22  2  0  0  0  0
 22 24  1  0  0  0  0
 23 21  2  0  0  0  0
 24 25  1  0  0  0  0
 25 26  1  0  0  0  0
 26 30  1  0  0  0  0
 27 28  1  0  0  0  0
 28 31  1  0  0  0  0
 28 32  1  0  0  0  0
 29 27  1  0  0  0  0
 29 26  1  0  0  0  0
 30 32  1  0  0  0  0
M  END
>  <MODEL>
9

>  <REMARK>
 VINA RESULT:      -8.5      4.401     10.010
  Name = 
  6 active torsions:
  status: ('A' for Active; 'I' for Inactive)
    1  A    between atoms: N_2  and  C_13
    2  A    between atoms: C_3  and  C_18
    3  A    between atoms: C_9  and  C_29
    4  A    between atoms: C_13  and  C_29
    5  A    between atoms: C_18  and  C_24
    6  A    between atoms: C_21  and  C_30
                            x       y       z     vdW  Elec       q    Type
                         _______ _______ _______ _____ _____    ______ ____

>  <TORSDO>
F 6

$$$$
