=
 OpenBabel11042412093D

 37 41  0  0  1  0  0  0  0  0999 V2000
  188.7330  177.2030  140.7180 C   0  0  2  0  0  3  0  0  0  0  0  0
  183.6740  179.2220  139.6460 C   0  0  0  0  0  0  0  0  0  0  0  0
  184.6750  178.7620  141.5820 C   0  0  0  0  0  0  0  0  0  0  0  0
  181.0460  178.9300  140.6800 N   0  0  0  0  0  0  0  0  0  0  0  0
  187.2910  178.4290  142.2100 C   0  0  0  0  0  0  0  0  0  0  0  0
  181.2050  179.2210  139.2780 C   0  0  0  0  0  0  0  0  0  0  0  0
  186.8690  178.7620  140.8440 C   0  0  0  0  0  0  0  0  0  0  0  0
  184.0450  178.2420  144.0070 C   0  0  0  0  0  1  0  0  0  0  0  0
  180.1890  179.2620  138.5400 O   0  0  0  0  0  0  0  0  0  0  0  0
  184.9710  179.2120  139.3760 O   0  0  0  0  0  0  0  0  0  0  0  0
  185.0740  178.4220  142.9430 C   0  0  0  0  0  0  0  0  0  0  0  0
  188.2310  178.5890  141.1750 C   0  0  2  0  0  3  0  0  0  0  0  0
  185.5680  178.9310  140.5090 C   0  0  0  0  0  0  0  0  0  0  0  0
  183.4520  178.9330  140.9770 C   0  0  0  0  0  0  0  0  0  0  0  0
  182.5710  179.4610  138.6640 C   0  0  0  0  0  2  0  0  0  0  0  0
  182.1540  178.7950  141.5340 N   0  0  0  0  0  0  0  0  0  0  0  0
  186.4660  178.2480  143.2970 C   0  0  0  0  0  3  0  0  0  0  0  0
  189.1400  175.8510  142.8470 C   0  0  0  0  0  1  0  0  0  0  0  0
  189.7920  176.5740  141.6690 C   0  0  2  0  0  3  0  0  0  0  0  0
  191.9560  177.6230  141.5380 O   0  0  0  0  0  0  0  0  0  0  0  0
  190.8510  177.5270  142.1520 C   0  0  0  0  0  0  0  0  0  0  0  0
  190.6200  178.2660  143.3190 O   0  0  0  0  0  0  0  0  0  0  0  0
  191.5030  178.2020  144.4380 C   0  0  0  0  0  2  0  0  0  0  0  0
  190.0390  176.9410  147.4620 N   0  0  0  0  0  2  0  0  0  0  0  0
  191.0760  177.1080  145.4120 C   0  0  1  0  0  3  0  0  0  0  0  0
  192.0310  176.9200  146.4120 O   0  0  0  0  0  0  0  0  0  0  0  0
  191.3320  176.3760  147.4510 N   0  0  0  0  0  2  0  0  0  0  0  0
  189.8120  177.4410  146.1250 C   0  0  0  0  0  2  0  0  0  0  0  0
  189.5650  178.4630  138.5960 C   0  0  0  0  0  1  0  0  0  0  0  0
  189.1610  177.1140  139.2050 C   0  0  1  0  0  0  0  0  0  0  0  0
  190.2520  176.1460  138.9940 N   0  0  0  0  0  2  0  0  0  0  0  0
  191.2000  176.6340  137.9940 C   0  0  0  0  0  2  0  0  0  0  0  0
  192.4670  175.8050  138.0550 C   0  0  0  0  0  2  0  0  0  0  0  0
  193.6190  176.6710  137.8670 N   0  0  0  0  0  1  0  0  0  0  0  0
  187.9490  176.6230  138.4140 C   0  0  0  0  0  2  0  0  0  0  0  0
  187.5330  177.5870  137.4910 O   0  0  0  0  0  0  0  0  0  0  0  0
  186.3060  177.1290  137.0120 C   0  0  0  0  0  1  0  0  0  0  0  0
  1 19  1  1  0  0  0
  2 14  2  0  0  0  0
  3 11  1  0  0  0  0
  4 16  2  0  0  0  0
  5 17  1  0  0  0  0
  6  4  1  0  0  0  0
  7 12  1  0  0  0  0
  7  5  2  0  0  0  0
  9  6  2  0  0  0  0
 10  2  1  0  0  0  0
 10 13  1  0  0  0  0
 11 17  2  0  0  0  0
 11  8  1  0  0  0  0
 12  1  1  6  0  0  0
 12  5  1  0  0  0  0
 13  7  1  0  0  0  0
 13  3  2  0  0  0  0
 14 16  1  0  0  0  0
 14  3  1  0  0  0  0
 15  6  1  0  0  0  0
 15  2  1  0  0  0  0
 19 21  1  0  0  0  0
 19 18  1  1  0  0  0
 20 21  2  0  0  0  0
 21 22  1  0  0  0  0
 22 23  1  0  0  0  0
 25 23  1  6  0  0  0
 25 28  1  0  0  0  0
 25 26  1  0  0  0  0
 26 27  1  0  0  0  0
 27 24  1  0  0  0  0
 28 24  1  0  0  0  0
 30 29  1  6  0  0  0
 30  1  1  0  0  0  0
 31 30  1  0  0  0  0
 32 33  1  0  0  0  0
 32 31  1  0  0  0  0
 34 33  1  0  0  0  0
 35 30  1  0  0  0  0
 36 35  1  0  0  0  0
 37 36  1  0  0  0  0
M  END
>  <MODEL>
1

>  <REMARK>
 VINA RESULT:      -7.5      0.000      0.000
  Name = 
  12 active torsions:
  status: ('A' for Active; 'I' for Inactive)
    1  A    between atoms: N_7  and  C_29
    2  A    between atoms: N_7  and  C_36
    3  A    between atoms: C_8  and  C_28
    4  A    between atoms: C_13  and  O_14
    5  A    between atoms: C_13  and  C_29
    6  A    between atoms: O_15  and  C_20
    7  A    between atoms: O_15  and  C_28
    8  A    between atoms: C_16  and  C_23
    9  A    between atoms: C_16  and  C_24
   10  A    between atoms: C_16  and  C_29
   11  A    between atoms: C_18  and  C_36
   12  A    between atoms: C_20  and  C_23
                            x       y       z     vdW  Elec       q    Type
                         _______ _______ _______ _____ _____    ______ ____

>  <TORSDO>
F 12

$$$$
=
 OpenBabel11042412093D

 37 41  0  0  1  0  0  0  0  0999 V2000
  188.8320  176.2400  137.2040 C   0  0  2  0  0  3  0  0  0  0  0  0
  186.4870  178.6390  141.6270 C   0  0  0  0  0  0  0  0  0  0  0  0
  188.4620  177.6370  141.3940 C   0  0  0  0  0  0  0  0  0  0  0  0
  186.3250  178.1630  144.4220 N   0  0  0  0  0  0  0  0  0  0  0  0
  189.9280  177.0600  139.1880 C   0  0  0  0  0  0  0  0  0  0  0  0
  185.2200  178.8200  143.7710 C   0  0  0  0  0  0  0  0  0  0  0  0
  188.6440  177.7660  139.0900 C   0  0  0  0  0  0  0  0  0  0  0  0
  190.2340  176.4970  142.8480 C   0  0  0  0  0  1  0  0  0  0  0  0
  184.1890  179.0930  144.4360 O   0  0  0  0  0  0  0  0  0  0  0  0
  186.7400  178.6610  140.3270 O   0  0  0  0  0  0  0  0  0  0  0  0
  189.7300  176.9260  141.5120 C   0  0  0  0  0  0  0  0  0  0  0  0
  189.4110  177.4650  137.9440 C   0  0  2  0  0  3  0  0  0  0  0  0
  187.8970  178.0620  140.1800 C   0  0  0  0  0  0  0  0  0  0  0  0
  187.5050  178.0060  142.3110 C   0  0  0  0  0  0  0  0  0  0  0  0
  185.2590  179.1720  142.2960 C   0  0  0  0  0  2  0  0  0  0  0  0
  187.4680  177.7640  143.7090 N   0  0  0  0  0  0  0  0  0  0  0  0
  190.5290  176.6170  140.3450 C   0  0  0  0  0  3  0  0  0  0  0  0
  190.4400  174.2640  137.3940 C   0  0  0  0  0  1  0  0  0  0  0  0
  189.9080  175.3740  136.4880 C   0  0  2  0  0  3  0  0  0  0  0  0
  190.9050  176.7060  134.7470 O   0  0  0  0  0  0  0  0  0  0  0  0
  191.0420  176.1510  135.8790 C   0  0  0  0  0  0  0  0  0  0  0  0
  192.2670  176.2100  136.5560 O   0  0  0  0  0  0  0  0  0  0  0  0
  193.5120  176.1180  135.8650 C   0  0  0  0  0  2  0  0  0  0  0  0
  195.4320  174.8450  138.6180 N   0  0  0  0  0  2  0  0  0  0  0  0
  194.4500  175.1300  136.5540 C   0  0  1  0  0  3  0  0  0  0  0  0
  195.7720  175.5750  136.5150 O   0  0  0  0  0  0  0  0  0  0  0  0
  196.3720  174.9510  137.5710 N   0  0  0  0  0  2  0  0  0  0  0  0
  194.1310  174.9530  137.9980 C   0  0  0  0  0  2  0  0  0  0  0  0
  187.6230  177.9410  135.6480 C   0  0  0  0  0  1  0  0  0  0  0  0
  187.5950  176.5430  136.2790 C   0  0  1  0  0  0  0  0  0  0  0  0
  187.4410  175.5380  135.2130 N   0  0  0  0  0  2  0  0  0  0  0  0
  186.3860  174.5820  135.5420 C   0  0  0  0  0  2  0  0  0  0  0  0
  186.9770  173.1900  135.6340 C   0  0  0  0  0  2  0  0  0  0  0  0
  187.0650  172.7940  137.0290 N   0  0  0  0  0  1  0  0  0  0  0  0
  186.3430  176.4840  137.1540 C   0  0  0  0  0  2  0  0  0  0  0  0
  185.7070  177.7280  137.1990 O   0  0  0  0  0  0  0  0  0  0  0  0
  184.3520  177.4390  137.3610 C   0  0  0  0  0  1  0  0  0  0  0  0
  1 19  1  6  0  0  0
  2 15  1  0  0  0  0
  2 14  2  0  0  0  0
  3 11  1  0  0  0  0
  3 14  1  0  0  0  0
  5 17  1  0  0  0  0
  6  4  1  0  0  0  0
  6  9  2  0  0  0  0
  7  5  2  0  0  0  0
  7 13  1  0  0  0  0
 10  2  1  0  0  0  0
 11  8  1  0  0  0  0
 12  1  1  6  0  0  0
 12  7  1  0  0  0  0
 12  5  1  0  0  0  0
 13 10  1  0  0  0  0
 13  3  2  0  0  0  0
 14 16  1  0  0  0  0
 15  6  1  0  0  0  0
 16  4  2  0  0  0  0
 17 11  2  0  0  0  0
 19 18  1  1  0  0  0
 20 21  2  0  0  0  0
 21 19  1  0  0  0  0
 21 22  1  0  0  0  0
 23 22  1  0  0  0  0
 25 23  1  1  0  0  0
 25 28  1  0  0  0  0
 26 25  1  0  0  0  0
 26 27  1  0  0  0  0
 27 24  1  0  0  0  0
 28 24  1  0  0  0  0
 30 29  1  6  0  0  0
 30 35  1  0  0  0  0
 30  1  1  0  0  0  0
 31 32  1  0  0  0  0
 31 30  1  0  0  0  0
 32 33  1  0  0  0  0
 33 34  1  0  0  0  0
 35 36  1  0  0  0  0
 36 37  1  0  0  0  0
M  END
>  <MODEL>
2

>  <REMARK>
 VINA RESULT:      -6.6      3.305      6.161
  Name = 
  12 active torsions:
  status: ('A' for Active; 'I' for Inactive)
    1  A    between atoms: N_7  and  C_29
    2  A    between atoms: N_7  and  C_36
    3  A    between atoms: C_8  and  C_28
    4  A    between atoms: C_13  and  O_14
    5  A    between atoms: C_13  and  C_29
    6  A    between atoms: O_15  and  C_20
    7  A    between atoms: O_15  and  C_28
    8  A    between atoms: C_16  and  C_23
    9  A    between atoms: C_16  and  C_24
   10  A    between atoms: C_16  and  C_29
   11  A    between atoms: C_18  and  C_36
   12  A    between atoms: C_20  and  C_23
                            x       y       z     vdW  Elec       q    Type
                         _______ _______ _______ _____ _____    ______ ____

>  <TORSDO>
F 12

$$$$
=
 OpenBabel11042412093D

 37 41  0  0  1  0  0  0  0  0999 V2000
  187.9840  176.9330  137.7350 C   0  0  2  0  0  3  0  0  0  0  0  0
  186.2100  178.7460  142.6730 C   0  0  0  0  0  0  0  0  0  0  0  0
  188.0510  177.6240  142.1120 C   0  0  0  0  0  0  0  0  0  0  0  0
  186.1930  177.8170  145.3550 N   0  0  0  0  0  0  0  0  0  0  0  0
  189.2930  177.3020  139.7240 C   0  0  0  0  0  0  0  0  0  0  0  0
  185.1190  178.6720  144.9170 C   0  0  0  0  0  0  0  0  0  0  0  0
  188.0850  178.1260  139.8530 C   0  0  0  0  0  0  0  0  0  0  0  0
  189.7920  176.0990  143.2040 C   0  0  0  0  0  1  0  0  0  0  0  0
  184.1700  178.9190  145.7030 O   0  0  0  0  0  0  0  0  0  0  0  0
  186.3730  178.9650  141.3760 O   0  0  0  0  0  0  0  0  0  0  0  0
  189.2440  176.7930  142.0030 C   0  0  0  0  0  0  0  0  0  0  0  0
  188.7360  177.9570  138.6110 C   0  0  2  0  0  3  0  0  0  0  0  0
  187.4490  178.2990  141.0350 C   0  0  0  0  0  0  0  0  0  0  0  0
  187.2020  177.9170  143.1550 C   0  0  0  0  0  0  0  0  0  0  0  0
  185.0920  179.2650  143.5210 C   0  0  0  0  0  2  0  0  0  0  0  0
  187.2370  177.4450  144.4920 N   0  0  0  0  0  0  0  0  0  0  0  0
  189.9240  176.6160  140.7380 C   0  0  0  0  0  3  0  0  0  0  0  0
  189.3640  174.7870  137.6030 C   0  0  0  0  0  1  0  0  0  0  0  0
  188.9200  176.0480  136.8620 C   0  0  2  0  0  3  0  0  0  0  0  0
  189.9460  177.6360  135.3700 O   0  0  0  0  0  0  0  0  0  0  0  0
  190.1060  176.7660  136.2780 C   0  0  0  0  0  0  0  0  0  0  0  0
  191.3910  176.4240  136.7170 O   0  0  0  0  0  0  0  0  0  0  0  0
  192.4070  175.9980  135.8090 C   0  0  0  0  0  2  0  0  0  0  0  0
  194.8980  175.3950  138.3210 N   0  0  0  0  0  2  0  0  0  0  0  0
  193.4730  175.1740  136.5250 C   0  0  1  0  0  3  0  0  0  0  0  0
  194.7530  175.5020  136.0770 O   0  0  0  0  0  0  0  0  0  0  0  0
  195.5750  175.1500  137.1080 N   0  0  0  0  0  2  0  0  0  0  0  0
  193.4900  175.4170  137.9940 C   0  0  0  0  0  2  0  0  0  0  0  0
  187.0110  178.9470  136.4000 C   0  0  0  0  0  1  0  0  0  0  0  0
  186.7760  177.5190  136.9110 C   0  0  1  0  0  0  0  0  0  0  0  0
  186.4110  176.6560  135.7750 N   0  0  0  0  0  2  0  0  0  0  0  0
  185.1340  175.9870  136.0130 C   0  0  0  0  0  2  0  0  0  0  0  0
  185.2310  174.5410  135.5720 C   0  0  0  0  0  2  0  0  0  0  0  0
  186.0010  173.7890  136.5480 N   0  0  0  0  0  1  0  0  0  0  0  0
  185.5710  177.5830  137.8490 C   0  0  0  0  0  2  0  0  0  0  0  0
  185.2800  178.9050  138.1970 O   0  0  0  0  0  0  0  0  0  0  0  0
  184.0320  178.8530  138.8170 C   0  0  0  0  0  1  0  0  0  0  0  0
  1 19  1  6  0  0  0
  2 14  2  0  0  0  0
  2 15  1  0  0  0  0
  3 14  1  0  0  0  0
  5  7  2  0  0  0  0
  5 17  1  0  0  0  0
  6  4  1  0  0  0  0
  6  9  2  0  0  0  0
  7 13  1  0  0  0  0
 10  2  1  0  0  0  0
 11  3  1  0  0  0  0
 11  8  1  0  0  0  0
 12  1  1  6  0  0  0
 12  5  1  0  0  0  0
 12  7  1  0  0  0  0
 13 10  1  0  0  0  0
 13  3  2  0  0  0  0
 14 16  1  0  0  0  0
 15  6  1  0  0  0  0
 16  4  2  0  0  0  0
 17 11  2  0  0  0  0
 19 18  1  1  0  0  0
 20 21  2  0  0  0  0
 21 22  1  0  0  0  0
 21 19  1  0  0  0  0
 23 22  1  0  0  0  0
 25 23  1  6  0  0  0
 25 28  1  0  0  0  0
 26 25  1  0  0  0  0
 26 27  1  0  0  0  0
 27 24  1  0  0  0  0
 28 24  1  0  0  0  0
 30 29  1  6  0  0  0
 30  1  1  0  0  0  0
 30 35  1  0  0  0  0
 31 32  1  0  0  0  0
 31 30  1  0  0  0  0
 33 32  1  0  0  0  0
 33 34  1  0  0  0  0
 35 36  1  0  0  0  0
 36 37  1  0  0  0  0
M  END
>  <MODEL>
3

>  <REMARK>
 VINA RESULT:      -6.3      3.144      6.210
  Name = 
  12 active torsions:
  status: ('A' for Active; 'I' for Inactive)
    1  A    between atoms: N_7  and  C_29
    2  A    between atoms: N_7  and  C_36
    3  A    between atoms: C_8  and  C_28
    4  A    between atoms: C_13  and  O_14
    5  A    between atoms: C_13  and  C_29
    6  A    between atoms: O_15  and  C_20
    7  A    between atoms: O_15  and  C_28
    8  A    between atoms: C_16  and  C_23
    9  A    between atoms: C_16  and  C_24
   10  A    between atoms: C_16  and  C_29
   11  A    between atoms: C_18  and  C_36
   12  A    between atoms: C_20  and  C_23
                            x       y       z     vdW  Elec       q    Type
                         _______ _______ _______ _____ _____    ______ ____

>  <TORSDO>
F 12

$$$$
=
 OpenBabel11042412093D

 37 41  0  0  1  0  0  0  0  0999 V2000
  189.5140  177.7750  145.3210 C   0  0  2  0  0  3  0  0  0  0  0  0
  184.2000  178.2860  143.7960 C   0  0  0  0  0  0  0  0  0  0  0  0
  186.0530  178.1170  142.5720 C   0  0  0  0  0  0  0  0  0  0  0  0
  182.7260  179.6370  141.7810 N   0  0  0  0  0  0  0  0  0  0  0  0
  188.5320  177.2120  143.1930 C   0  0  0  0  0  0  0  0  0  0  0  0
  182.0950  179.4050  143.0560 C   0  0  0  0  0  0  0  0  0  0  0  0
  187.4440  177.1980  144.1780 C   0  0  0  0  0  0  0  0  0  0  0  0
  186.8720  178.6890  140.2160 C   0  0  0  0  0  1  0  0  0  0  0  0
  180.9470  179.8710  143.2680 O   0  0  0  0  0  0  0  0  0  0  0  0
  185.1010  177.7400  144.5990 O   0  0  0  0  0  0  0  0  0  0  0  0
  187.1230  178.1480  141.5820 C   0  0  0  0  0  0  0  0  0  0  0  0
  188.7360  176.7270  144.4970 C   0  0  2  0  0  3  0  0  0  0  0  0
  186.2000  177.6460  143.8890 C   0  0  0  0  0  0  0  0  0  0  0  0
  184.7470  178.5480  142.5570 C   0  0  0  0  0  0  0  0  0  0  0  0
  182.7900  178.6300  144.1590 C   0  0  0  0  0  2  0  0  0  0  0  0
  184.0370  179.2070  141.5190 N   0  0  0  0  0  0  0  0  0  0  0  0
  188.4510  177.6620  141.8940 C   0  0  0  0  0  3  0  0  0  0  0  0
  191.0070  179.4620  144.1170 C   0  0  0  0  0  1  0  0  0  0  0  0
  190.9350  178.0810  144.7660 C   0  0  2  0  0  3  0  0  0  0  0  0
  191.6740  175.8460  144.2550 O   0  0  0  0  0  0  0  0  0  0  0  0
  191.4920  177.0310  143.8430 C   0  0  0  0  0  0  0  0  0  0  0  0
  191.8540  177.3940  142.5400 O   0  0  0  0  0  0  0  0  0  0  0  0
  191.4210  176.6470  141.4040 C   0  0  0  0  0  2  0  0  0  0  0  0
  192.4870  176.5690  137.9770 N   0  0  0  0  0  2  0  0  0  0  0  0
  191.9560  177.2570  140.1110 C   0  0  1  0  0  3  0  0  0  0  0  0
  193.3350  177.0790  140.0000 O   0  0  0  0  0  0  0  0  0  0  0  0
  193.5800  177.1460  138.6580 N   0  0  0  0  0  2  0  0  0  0  0  0
  191.3730  176.6200  138.8970 C   0  0  0  0  0  2  0  0  0  0  0  0
  189.9960  178.7420  147.6900 C   0  0  0  0  0  1  0  0  0  0  0  0
  189.5190  177.5320  146.8770 C   0  0  1  0  0  0  0  0  0  0  0  0
  188.1990  177.1090  147.3750 N   0  0  0  0  0  2  0  0  0  0  0  0
  187.5130  178.2110  148.0460 C   0  0  0  0  0  2  0  0  0  0  0  0
  186.1120  178.3500  147.4850 C   0  0  0  0  0  2  0  0  0  0  0  0
  185.8130  179.7570  147.2790 N   0  0  0  0  0  1  0  0  0  0  0  0
  190.5040  176.3980  147.1600 C   0  0  0  0  0  2  0  0  0  0  0  0
  191.6380  176.8780  147.8230 O   0  0  0  0  0  0  0  0  0  0  0  0
  192.5390  175.8140  147.8220 C   0  0  0  0  0  1  0  0  0  0  0  0
  1 19  1  6  0  0  0
  1 30  1  0  0  0  0
  2 15  1  0  0  0  0
  2 10  1  0  0  0  0
  3 13  1  0  0  0  0
  4  6  1  0  0  0  0
  5  7  1  0  0  0  0
  5 12  1  0  0  0  0
  6  9  2  0  0  0  0
  6 15  1  0  0  0  0
  7 12  1  0  0  0  0
  8 11  1  0  0  0  0
 11 17  1  0  0  0  0
 11  3  2  0  0  0  0
 12  1  1  1  0  0  0
 13  7  2  0  0  0  0
 13 10  1  0  0  0  0
 14  3  1  0  0  0  0
 14  2  2  0  0  0  0
 16  4  2  0  0  0  0
 16 14  1  0  0  0  0
 17  5  2  0  0  0  0
 19 18  1  6  0  0  0
 21 20  2  0  0  0  0
 21 19  1  0  0  0  0
 22 21  1  0  0  0  0
 23 22  1  0  0  0  0
 24 27  1  0  0  0  0
 24 28  1  0  0  0  0
 25 23  1  1  0  0  0
 26 25  1  0  0  0  0
 27 26  1  0  0  0  0
 28 25  1  0  0  0  0
 30 35  1  0  0  0  0
 30 31  1  0  0  0  0
 30 29  1  1  0  0  0
 31 32  1  0  0  0  0
 33 32  1  0  0  0  0
 34 33  1  0  0  0  0
 35 36  1  0  0  0  0
 37 36  1  0  0  0  0
M  END
>  <MODEL>
4

>  <REMARK>
 VINA RESULT:      -6.3      2.487      6.569
  Name = 
  12 active torsions:
  status: ('A' for Active; 'I' for Inactive)
    1  A    between atoms: N_7  and  C_29
    2  A    between atoms: N_7  and  C_36
    3  A    between atoms: C_8  and  C_28
    4  A    between atoms: C_13  and  O_14
    5  A    between atoms: C_13  and  C_29
    6  A    between atoms: O_15  and  C_20
    7  A    between atoms: O_15  and  C_28
    8  A    between atoms: C_16  and  C_23
    9  A    between atoms: C_16  and  C_24
   10  A    between atoms: C_16  and  C_29
   11  A    between atoms: C_18  and  C_36
   12  A    between atoms: C_20  and  C_23
                            x       y       z     vdW  Elec       q    Type
                         _______ _______ _______ _____ _____    ______ ____

>  <TORSDO>
F 12

$$$$
=
 OpenBabel11042412093D

 37 41  0  0  1  0  0  0  0  0999 V2000
  189.1680  177.1370  140.9860 C   0  0  2  0  0  3  0  0  0  0  0  0
  184.0260  179.1360  140.3730 C   0  0  0  0  0  0  0  0  0  0  0  0
  185.1710  178.6110  142.2090 C   0  0  0  0  0  0  0  0  0  0  0  0
  181.4840  178.7710  141.5850 N   0  0  0  0  0  0  0  0  0  0  0  0
  187.8300  178.2850  142.6280 C   0  0  0  0  0  0  0  0  0  0  0  0
  181.5360  179.1200  140.1880 C   0  0  0  0  0  0  0  0  0  0  0  0
  187.3040  178.6670  141.3120 C   0  0  0  0  0  0  0  0  0  0  0  0
  184.7270  177.9870  144.6510 C   0  0  0  0  0  1  0  0  0  0  0  0
  180.4680  179.1770  139.5280 O   0  0  0  0  0  0  0  0  0  0  0  0
  185.2990  179.1520  140.0080 O   0  0  0  0  0  0  0  0  0  0  0  0
  185.6720  178.2220  143.5220 C   0  0  0  0  0  0  0  0  0  0  0  0
  188.6880  178.4970  141.5350 C   0  0  2  0  0  3  0  0  0  0  0  0
  185.9810  178.8330  141.0810 C   0  0  0  0  0  0  0  0  0  0  0  0
  183.9050  178.7910  141.7030 C   0  0  0  0  0  0  0  0  0  0  0  0
  182.8510  179.4000  139.4850 C   0  0  0  0  0  2  0  0  0  0  0  0
  182.6530  178.6150  142.3490 N   0  0  0  0  0  0  0  0  0  0  0  0
  187.0890  178.0500  143.7660 C   0  0  0  0  0  3  0  0  0  0  0  0
  189.7690  175.4560  142.8130 C   0  0  0  0  0  1  0  0  0  0  0  0
  190.3080  176.4890  141.8240 C   0  0  2  0  0  3  0  0  0  0  0  0
  191.7180  178.4400  141.8820 O   0  0  0  0  0  0  0  0  0  0  0  0
  191.2150  177.4670  142.5200 C   0  0  0  0  0  0  0  0  0  0  0  0
  191.5360  177.2570  143.8670 O   0  0  0  0  0  0  0  0  0  0  0  0
  190.5870  177.4810  144.9090 C   0  0  0  0  0  2  0  0  0  0  0  0
  192.0390  176.6700  148.0900 N   0  0  0  0  0  2  0  0  0  0  0  0
  190.8680  176.5800  146.1090 C   0  0  1  0  0  3  0  0  0  0  0  0
  192.0870  175.9160  145.9690 O   0  0  0  0  0  0  0  0  0  0  0  0
  192.4610  175.6190  147.2480 N   0  0  0  0  0  2  0  0  0  0  0  0
  190.9730  177.3430  147.3830 C   0  0  0  0  0  2  0  0  0  0  0  0
  188.6200  176.1030  138.6600 C   0  0  0  0  0  1  0  0  0  0  0  0
  189.4730  177.1110  139.4410 C   0  0  1  0  0  0  0  0  0  0  0  0
  189.3290  178.4410  138.8250 N   0  0  0  0  0  2  0  0  0  0  0  0
  189.4100  178.3570  137.3690 C   0  0  0  0  0  2  0  0  0  0  0  0
  188.2070  179.0450  136.7560 C   0  0  0  0  0  2  0  0  0  0  0  0
  187.5600  178.1420  135.8200 N   0  0  0  0  0  1  0  0  0  0  0  0
  190.9290  176.6780  139.2690 C   0  0  0  0  0  2  0  0  0  0  0  0
  191.0050  175.3880  138.7340 O   0  0  0  0  0  0  0  0  0  0  0  0
  192.2110  175.3540  138.0340 C   0  0  0  0  0  1  0  0  0  0  0  0
  1 19  1  1  0  0  0
  2 14  2  0  0  0  0
  3 11  1  0  0  0  0
  4 16  2  0  0  0  0
  5 17  1  0  0  0  0
  6  4  1  0  0  0  0
  7 12  1  0  0  0  0
  7  5  2  0  0  0  0
  9  6  2  0  0  0  0
 10  2  1  0  0  0  0
 10 13  1  0  0  0  0
 11 17  2  0  0  0  0
 11  8  1  0  0  0  0
 12  1  1  6  0  0  0
 12  5  1  0  0  0  0
 13  7  1  0  0  0  0
 13  3  2  0  0  0  0
 14  3  1  0  0  0  0
 14 16  1  0  0  0  0
 15  6  1  0  0  0  0
 15  2  1  0  0  0  0
 19 21  1  0  0  0  0
 19 18  1  1  0  0  0
 20 21  2  0  0  0  0
 21 22  1  0  0  0  0
 22 23  1  0  0  0  0
 25 23  1  6  0  0  0
 25 28  1  0  0  0  0
 26 25  1  0  0  0  0
 26 27  1  0  0  0  0
 27 24  1  0  0  0  0
 28 24  1  0  0  0  0
 30 29  1  6  0  0  0
 30  1  1  0  0  0  0
 31 30  1  0  0  0  0
 32 31  1  0  0  0  0
 33 32  1  0  0  0  0
 34 33  1  0  0  0  0
 35 30  1  0  0  0  0
 36 35  1  0  0  0  0
 37 36  1  0  0  0  0
M  END
>  <MODEL>
5

>  <REMARK>
 VINA RESULT:      -6.2      1.470      2.257
  Name = 
  12 active torsions:
  status: ('A' for Active; 'I' for Inactive)
    1  A    between atoms: N_7  and  C_29
    2  A    between atoms: N_7  and  C_36
    3  A    between atoms: C_8  and  C_28
    4  A    between atoms: C_13  and  O_14
    5  A    between atoms: C_13  and  C_29
    6  A    between atoms: O_15  and  C_20
    7  A    between atoms: O_15  and  C_28
    8  A    between atoms: C_16  and  C_23
    9  A    between atoms: C_16  and  C_24
   10  A    between atoms: C_16  and  C_29
   11  A    between atoms: C_18  and  C_36
   12  A    between atoms: C_20  and  C_23
                            x       y       z     vdW  Elec       q    Type
                         _______ _______ _______ _____ _____    ______ ____

>  <TORSDO>
F 12

$$$$
=
 OpenBabel11042412093D

 37 41  0  0  1  0  0  0  0  0999 V2000
  188.9860  177.1720  140.7420 C   0  0  2  0  0  3  0  0  0  0  0  0
  183.9380  179.0650  142.0680 C   0  0  0  0  0  0  0  0  0  0  0  0
  185.6480  178.4580  143.3600 C   0  0  0  0  0  0  0  0  0  0  0  0
  181.9710  178.5560  144.0510 N   0  0  0  0  0  0  0  0  0  0  0  0
  188.2900  178.1780  142.8180 C   0  0  0  0  0  0  0  0  0  0  0  0
  181.5380  178.9930  142.7480 C   0  0  0  0  0  0  0  0  0  0  0  0
  187.3420  178.6270  141.7910 C   0  0  0  0  0  0  0  0  0  0  0  0
  186.0740  177.6690  145.7570 C   0  0  0  0  0  1  0  0  0  0  0  0
  180.3070  179.0630  142.5010 O   0  0  0  0  0  0  0  0  0  0  0  0
  185.0080  179.1390  141.2910 O   0  0  0  0  0  0  0  0  0  0  0  0
  186.5720  178.0010  144.3910 C   0  0  0  0  0  0  0  0  0  0  0  0
  188.7190  178.4820  141.5140 C   0  0  2  0  0  3  0  0  0  0  0  0
  186.0190  178.7720  142.0410 C   0  0  0  0  0  0  0  0  0  0  0  0
  184.2840  178.6350  143.3330 C   0  0  0  0  0  0  0  0  0  0  0  0
  182.5290  179.3520  141.6570 C   0  0  0  0  0  2  0  0  0  0  0  0
  183.3320  178.3850  144.3550 N   0  0  0  0  0  0  0  0  0  0  0  0
  187.9870  177.8520  144.1220 C   0  0  0  0  0  3  0  0  0  0  0  0
  190.0370  175.6820  142.5310 C   0  0  0  0  0  1  0  0  0  0  0  0
  190.2640  176.4170  141.2100 C   0  0  2  0  0  3  0  0  0  0  0  0
  191.9020  177.7300  142.3890 O   0  0  0  0  0  0  0  0  0  0  0  0
  191.5060  177.2620  141.2800 C   0  0  0  0  0  0  0  0  0  0  0  0
  192.1890  177.5660  140.0950 O   0  0  0  0  0  0  0  0  0  0  0  0
  193.4940  177.0550  139.8270 C   0  0  0  0  0  2  0  0  0  0  0  0
  195.0680  175.2590  137.1480 N   0  0  0  0  0  2  0  0  0  0  0  0
  193.5170  176.2700  138.5180 C   0  0  1  0  0  3  0  0  0  0  0  0
  193.8060  177.1010  137.4350 O   0  0  0  0  0  0  0  0  0  0  0  0
  194.3250  176.2610  136.4910 N   0  0  0  0  0  2  0  0  0  0  0  0
  194.5690  175.2160  138.5040 C   0  0  0  0  0  2  0  0  0  0  0  0
  189.4220  178.6300  138.6290 C   0  0  0  0  0  1  0  0  0  0  0  0
  188.9040  177.2930  139.1740 C   0  0  1  0  0  0  0  0  0  0  0  0
  189.6100  176.1920  138.4960 N   0  0  0  0  0  2  0  0  0  0  0  0
  189.9530  176.5560  137.1230 C   0  0  0  0  0  2  0  0  0  0  0  0
  189.7570  175.3550  136.2190 C   0  0  0  0  0  2  0  0  0  0  0  0
  188.5070  174.6960  136.5570 N   0  0  0  0  0  1  0  0  0  0  0  0
  187.4290  177.2040  138.7850 C   0  0  0  0  0  2  0  0  0  0  0  0
  187.0870  178.2220  137.8890 O   0  0  0  0  0  0  0  0  0  0  0  0
  185.6980  178.1690  137.7890 C   0  0  0  0  0  1  0  0  0  0  0  0
  1 19  1  6  0  0  0
  2 14  2  0  0  0  0
  3 11  1  0  0  0  0
  4 16  2  0  0  0  0
  5 17  1  0  0  0  0
  6  4  1  0  0  0  0
  7 13  1  0  0  0  0
  7  5  2  0  0  0  0
  9  6  2  0  0  0  0
 10 13  1  0  0  0  0
 10  2  1  0  0  0  0
 11  8  1  0  0  0  0
 12  1  1  6  0  0  0
 12  7  1  0  0  0  0
 12  5  1  0  0  0  0
 13  3  2  0  0  0  0
 14  3  1  0  0  0  0
 14 16  1  0  0  0  0
 15  2  1  0  0  0  0
 15  6  1  0  0  0  0
 17 11  2  0  0  0  0
 19 21  1  0  0  0  0
 19 18  1  1  0  0  0
 21 20  2  0  0  0  0
 22 21  1  0  0  0  0
 23 22  1  0  0  0  0
 24 28  1  0  0  0  0
 25 23  1  1  0  0  0
 26 25  1  0  0  0  0
 27 24  1  0  0  0  0
 27 26  1  0  0  0  0
 28 25  1  0  0  0  0
 30 29  1  6  0  0  0
 30  1  1  0  0  0  0
 31 30  1  0  0  0  0
 32 31  1  0  0  0  0
 33 34  1  0  0  0  0
 33 32  1  0  0  0  0
 35 30  1  0  0  0  0
 36 35  1  0  0  0  0
 37 36  1  0  0  0  0
M  END
>  <MODEL>
6

>  <REMARK>
 VINA RESULT:      -6.0      2.684      4.286
  Name = 
  12 active torsions:
  status: ('A' for Active; 'I' for Inactive)
    1  A    between atoms: N_7  and  C_29
    2  A    between atoms: N_7  and  C_36
    3  A    between atoms: C_8  and  C_28
    4  A    between atoms: C_13  and  O_14
    5  A    between atoms: C_13  and  C_29
    6  A    between atoms: O_15  and  C_20
    7  A    between atoms: O_15  and  C_28
    8  A    between atoms: C_16  and  C_23
    9  A    between atoms: C_16  and  C_24
   10  A    between atoms: C_16  and  C_29
   11  A    between atoms: C_18  and  C_36
   12  A    between atoms: C_20  and  C_23
                            x       y       z     vdW  Elec       q    Type
                         _______ _______ _______ _____ _____    ______ ____

>  <TORSDO>
F 12

$$$$
=
 OpenBabel11042412093D

 37 41  0  0  1  0  0  0  0  0999 V2000
  187.5110  176.8590  137.8910 C   0  0  2  0  0  3  0  0  0  0  0  0
  186.2720  178.4600  143.0600 C   0  0  0  0  0  0  0  0  0  0  0  0
  188.1840  177.7280  142.1850 C   0  0  0  0  0  0  0  0  0  0  0  0
  186.9180  177.6600  145.7060 N   0  0  0  0  0  0  0  0  0  0  0  0
  189.0350  177.5750  139.6160 C   0  0  0  0  0  0  0  0  0  0  0  0
  185.6270  178.2510  145.4630 C   0  0  0  0  0  0  0  0  0  0  0  0
  187.7200  178.1320  139.9540 C   0  0  0  0  0  0  0  0  0  0  0  0
  190.3730  176.6480  142.9550 C   0  0  0  0  0  1  0  0  0  0  0  0
  184.7970  178.3270  146.4040 O   0  0  0  0  0  0  0  0  0  0  0  0
  186.1570  178.6550  141.7550 O   0  0  0  0  0  0  0  0  0  0  0  0
  189.4910  177.1620  141.8690 C   0  0  0  0  0  0  0  0  0  0  0  0
  188.1670  178.0530  138.6170 C   0  0  2  0  0  3  0  0  0  0  0  0
  187.2760  178.2170  141.2300 C   0  0  0  0  0  0  0  0  0  0  0  0
  187.4860  177.8780  143.3610 C   0  0  0  0  0  0  0  0  0  0  0  0
  185.2330  178.7680  144.0920 C   0  0  0  0  0  2  0  0  0  0  0  0
  187.8520  177.4800  144.6730 N   0  0  0  0  0  0  0  0  0  0  0  0
  189.9640  177.0790  140.5030 C   0  0  0  0  0  3  0  0  0  0  0  0
  188.8700  174.8030  137.2190 C   0  0  0  0  0  1  0  0  0  0  0  0
  188.4200  176.2050  136.8110 C   0  0  2  0  0  3  0  0  0  0  0  0
  189.4540  178.2720  136.1350 O   0  0  0  0  0  0  0  0  0  0  0  0
  189.5990  177.0390  136.3890 C   0  0  0  0  0  0  0  0  0  0  0  0
  190.8470  176.4220  136.2320 O   0  0  0  0  0  0  0  0  0  0  0  0
  191.8230  176.4230  137.2730 C   0  0  0  0  0  2  0  0  0  0  0  0
  195.1940  175.2570  137.6730 N   0  0  0  0  0  2  0  0  0  0  0  0
  193.1030  175.7230  136.8260 C   0  0  1  0  0  3  0  0  0  0  0  0
  194.0310  176.6370  136.3260 O   0  0  0  0  0  0  0  0  0  0  0  0
  195.2380  176.0170  136.4860 N   0  0  0  0  0  2  0  0  0  0  0  0
  193.7930  175.0260  137.9460 C   0  0  0  0  0  2  0  0  0  0  0  0
  185.1350  175.8890  137.4510 C   0  0  0  0  0  1  0  0  0  0  0  0
  186.0500  177.1180  137.3660 C   0  0  1  0  0  0  0  0  0  0  0  0
  185.4040  178.2460  138.0590 N   0  0  0  0  0  2  0  0  0  0  0  0
  184.1210  177.8440  138.6330 C   0  0  0  0  0  2  0  0  0  0  0  0
  183.3650  179.0750  139.0900 C   0  0  0  0  0  2  0  0  0  0  0  0
  184.2590  180.2200  139.0850 N   0  0  0  0  0  1  0  0  0  0  0  0
  186.1530  177.4840  135.8850 C   0  0  0  0  0  2  0  0  0  0  0  0
  185.3300  176.6630  135.1100 O   0  0  0  0  0  0  0  0  0  0  0  0
  184.3270  177.5030  134.6270 C   0  0  0  0  0  1  0  0  0  0  0  0
  1 19  1  6  0  0  0
  2 14  2  0  0  0  0
  2 15  1  0  0  0  0
  3 14  1  0  0  0  0
  5  7  2  0  0  0  0
  5 17  1  0  0  0  0
  6  4  1  0  0  0  0
  6  9  2  0  0  0  0
  7 13  1  0  0  0  0
 10  2  1  0  0  0  0
 11  3  1  0  0  0  0
 11  8  1  0  0  0  0
 12  1  1  6  0  0  0
 12  5  1  0  0  0  0
 12  7  1  0  0  0  0
 13 10  1  0  0  0  0
 13  3  2  0  0  0  0
 14 16  1  0  0  0  0
 15  6  1  0  0  0  0
 16  4  2  0  0  0  0
 17 11  2  0  0  0  0
 19 18  1  1  0  0  0
 20 21  2  0  0  0  0
 21 19  1  0  0  0  0
 22 21  1  0  0  0  0
 22 23  1  0  0  0  0
 24 28  1  0  0  0  0
 25 23  1  1  0  0  0
 25 28  1  0  0  0  0
 26 27  1  0  0  0  0
 26 25  1  0  0  0  0
 27 24  1  0  0  0  0
 30 29  1  1  0  0  0
 30  1  1  0  0  0  0
 30 31  1  0  0  0  0
 31 32  1  0  0  0  0
 32 33  1  0  0  0  0
 34 33  1  0  0  0  0
 35 30  1  0  0  0  0
 36 35  1  0  0  0  0
 37 36  1  0  0  0  0
M  END
>  <MODEL>
7

>  <REMARK>
 VINA RESULT:      -6.0      2.930      6.556
  Name = 
  12 active torsions:
  status: ('A' for Active; 'I' for Inactive)
    1  A    between atoms: N_7  and  C_29
    2  A    between atoms: N_7  and  C_36
    3  A    between atoms: C_8  and  C_28
    4  A    between atoms: C_13  and  O_14
    5  A    between atoms: C_13  and  C_29
    6  A    between atoms: O_15  and  C_20
    7  A    between atoms: O_15  and  C_28
    8  A    between atoms: C_16  and  C_23
    9  A    between atoms: C_16  and  C_24
   10  A    between atoms: C_16  and  C_29
   11  A    between atoms: C_18  and  C_36
   12  A    between atoms: C_20  and  C_23
                            x       y       z     vdW  Elec       q    Type
                         _______ _______ _______ _____ _____    ______ ____

>  <TORSDO>
F 12

$$$$
=
 OpenBabel11042412093D

 37 41  0  0  1  0  0  0  0  0999 V2000
  186.8630  178.0990  143.0830 C   0  0  2  0  0  3  0  0  0  0  0  0
  189.0460  177.4470  138.0210 C   0  0  0  0  0  0  0  0  0  0  0  0
  186.9630  177.9110  138.6560 C   0  0  0  0  0  0  0  0  0  0  0  0
  188.2710  176.2930  135.5450 N   0  0  0  0  0  0  0  0  0  0  0  0
  185.9770  178.8860  140.9860 C   0  0  0  0  0  0  0  0  0  0  0  0
  189.6700  176.3010  135.8930 C   0  0  0  0  0  0  0  0  0  0  0  0
  187.4180  178.6880  140.7890 C   0  0  0  0  0  0  0  0  0  0  0  0
  184.5780  177.7310  137.7430 C   0  0  0  0  0  1  0  0  0  0  0  0
  190.4950  175.7320  135.1340 O   0  0  0  0  0  0  0  0  0  0  0  0
  189.1550  177.9350  139.2480 O   0  0  0  0  0  0  0  0  0  0  0  0
  185.5270  178.0920  138.8360 C   0  0  0  0  0  0  0  0  0  0  0  0
  186.9000  179.1970  142.0000 C   0  0  2  0  0  3  0  0  0  0  0  0
  187.9300  178.2010  139.6340 C   0  0  0  0  0  0  0  0  0  0  0  0
  187.7240  177.3980  137.6310 C   0  0  0  0  0  0  0  0  0  0  0  0
  190.1720  176.9590  137.1640 C   0  0  0  0  0  2  0  0  0  0  0  0
  187.2980  176.8440  136.3960 N   0  0  0  0  0  0  0  0  0  0  0  0
  184.9830  178.6180  140.0700 C   0  0  0  0  0  3  0  0  0  0  0  0
  185.6970  177.2270  145.1820 C   0  0  0  0  0  1  0  0  0  0  0  0
  185.9560  178.4470  144.2990 C   0  0  2  0  0  3  0  0  0  0  0  0
  184.5570  180.3900  144.0370 O   0  0  0  0  0  0  0  0  0  0  0  0
  184.6620  179.1300  143.9450 C   0  0  0  0  0  0  0  0  0  0  0  0
  183.5630  178.3490  143.5650 O   0  0  0  0  0  0  0  0  0  0  0  0
  182.5370  178.8600  142.7150 C   0  0  0  0  0  2  0  0  0  0  0  0
  179.0990  178.7450  143.7390 N   0  0  0  0  0  2  0  0  0  0  0  0
  181.3230  179.3040  143.5270 C   0  0  1  0  0  3  0  0  0  0  0  0
  180.5370  180.2070  142.8110 O   0  0  0  0  0  0  0  0  0  0  0  0
  179.2950  180.0910  143.3650 N   0  0  0  0  0  2  0  0  0  0  0  0
  180.4190  178.1710  143.8670 C   0  0  0  0  0  2  0  0  0  0  0  0
  188.4610  176.0520  143.2670 C   0  0  0  0  0  1  0  0  0  0  0  0
  188.2720  177.5520  143.5270 C   0  0  1  0  0  0  0  0  0  0  0  0
  189.3780  178.2920  142.8960 N   0  0  0  0  0  2  0  0  0  0  0  0
  190.4620  177.3900  142.5120 C   0  0  0  0  0  2  0  0  0  0  0  0
  191.6970  177.7090  143.3290 C   0  0  0  0  0  2  0  0  0  0  0  0
  191.5720  179.0420  143.8920 N   0  0  0  0  0  1  0  0  0  0  0  0
  188.3860  177.7510  145.0380 C   0  0  0  0  0  2  0  0  0  0  0  0
  189.1930  176.7640  145.6120 O   0  0  0  0  0  0  0  0  0  0  0  0
  189.3500  177.1500  146.9430 C   0  0  0  0  0  1  0  0  0  0  0  0
  1 30  1  0  0  0  0
  1 19  1  1  0  0  0
  2 10  1  0  0  0  0
  3 11  2  0  0  0  0
  3 13  1  0  0  0  0
  4  6  1  0  0  0  0
  4 16  2  0  0  0  0
  5 12  1  0  0  0  0
  6 15  1  0  0  0  0
  7  5  1  0  0  0  0
  7 12  1  0  0  0  0
  8 11  1  0  0  0  0
  9  6  2  0  0  0  0
 10 13  1  0  0  0  0
 11 17  1  0  0  0  0
 12  1  1  1  0  0  0
 13  7  2  0  0  0  0
 14  2  2  0  0  0  0
 14  3  1  0  0  0  0
 15  2  1  0  0  0  0
 16 14  1  0  0  0  0
 17  5  2  0  0  0  0
 19 18  1  6  0  0  0
 21 20  2  0  0  0  0
 21 19  1  0  0  0  0
 22 21  1  0  0  0  0
 23 22  1  0  0  0  0
 24 28  1  0  0  0  0
 25 23  1  6  0  0  0
 25 28  1  0  0  0  0
 26 27  1  0  0  0  0
 26 25  1  0  0  0  0
 27 24  1  0  0  0  0
 30 29  1  6  0  0  0
 30 35  1  0  0  0  0
 31 30  1  0  0  0  0
 32 31  1  0  0  0  0
 32 33  1  0  0  0  0
 33 34  1  0  0  0  0
 35 36  1  0  0  0  0
 36 37  1  0  0  0  0
M  END
>  <MODEL>
8

>  <REMARK>
 VINA RESULT:      -5.9      2.661      7.299
  Name = 
  12 active torsions:
  status: ('A' for Active; 'I' for Inactive)
    1  A    between atoms: N_7  and  C_29
    2  A    between atoms: N_7  and  C_36
    3  A    between atoms: C_8  and  C_28
    4  A    between atoms: C_13  and  O_14
    5  A    between atoms: C_13  and  C_29
    6  A    between atoms: O_15  and  C_20
    7  A    between atoms: O_15  and  C_28
    8  A    between atoms: C_16  and  C_23
    9  A    between atoms: C_16  and  C_24
   10  A    between atoms: C_16  and  C_29
   11  A    between atoms: C_18  and  C_36
   12  A    between atoms: C_20  and  C_23
                            x       y       z     vdW  Elec       q    Type
                         _______ _______ _______ _____ _____    ______ ____

>  <TORSDO>
F 12

$$$$
=
 OpenBabel11042412093D

 37 41  0  0  1  0  0  0  0  0999 V2000
  188.0320  177.8310  142.5680 C   0  0  2  0  0  3  0  0  0  0  0  0
  191.7830  176.5710  138.6740 C   0  0  0  0  0  0  0  0  0  0  0  0
  189.6090  177.0250  138.5050 C   0  0  0  0  0  0  0  0  0  0  0  0
  191.8780  175.0460  136.2810 N   0  0  0  0  0  0  0  0  0  0  0  0
  187.9030  178.2730  140.2020 C   0  0  0  0  0  0  0  0  0  0  0  0
  193.0790  175.1660  137.0680 C   0  0  0  0  0  0  0  0  0  0  0  0
  189.3260  178.1150  140.5270 C   0  0  0  0  0  0  0  0  0  0  0  0
  187.6680  176.6080  136.8890 C   0  0  0  0  0  1  0  0  0  0  0  0
  194.1090  174.5350  136.7190 O   0  0  0  0  0  0  0  0  0  0  0  0
  191.4760  177.2320  139.7800 O   0  0  0  0  0  0  0  0  0  0  0  0
  188.1970  177.1630  138.1680 C   0  0  0  0  0  0  0  0  0  0  0  0
  188.4350  178.7660  141.4070 C   0  0  2  0  0  3  0  0  0  0  0  0
  190.1940  177.4940  139.6940 C   0  0  0  0  0  0  0  0  0  0  0  0
  190.6670  176.4070  137.8790 C   0  0  0  0  0  0  0  0  0  0  0  0
  193.1280  176.0200  138.3210 C   0  0  0  0  0  2  0  0  0  0  0  0
  190.6780  175.6660  136.6690 N   0  0  0  0  0  0  0  0  0  0  0  0
  187.2730  177.8330  139.0590 C   0  0  0  0  0  3  0  0  0  0  0  0
  186.1600  177.1260  144.1570 C   0  0  0  0  0  1  0  0  0  0  0  0
  186.7150  178.2500  143.2830 C   0  0  2  0  0  3  0  0  0  0  0  0
  185.5770  180.0340  142.1340 O   0  0  0  0  0  0  0  0  0  0  0  0
  185.6470  178.7910  142.3730 C   0  0  0  0  0  0  0  0  0  0  0  0
  184.7000  177.9090  141.8360 O   0  0  0  0  0  0  0  0  0  0  0  0
  183.7380  178.3350  140.8720 C   0  0  0  0  0  2  0  0  0  0  0  0
  180.4550  179.6500  141.4890 N   0  0  0  0  0  2  0  0  0  0  0  0
  182.3280  178.3090  141.4580 C   0  0  1  0  0  3  0  0  0  0  0  0
  182.2670  179.0110  142.6620 O   0  0  0  0  0  0  0  0  0  0  0  0
  180.9560  179.3740  142.7780 N   0  0  0  0  0  2  0  0  0  0  0  0
  181.3290  178.9600  140.5660 C   0  0  0  0  0  2  0  0  0  0  0  0
  190.2910  178.5580  143.6390 C   0  0  0  0  0  1  0  0  0  0  0  0
  189.1850  177.4960  143.5860 C   0  0  1  0  0  0  0  0  0  0  0  0
  188.6730  177.2690  144.9490 N   0  0  0  0  0  2  0  0  0  0  0  0
  189.5290  177.9090  145.9450 C   0  0  0  0  0  2  0  0  0  0  0  0
  189.9570  176.8840  146.9750 C   0  0  0  0  0  2  0  0  0  0  0  0
  191.4070  176.8710  147.0680 N   0  0  0  0  0  1  0  0  0  0  0  0
  189.8460  176.1990  143.1200 C   0  0  0  0  0  2  0  0  0  0  0  0
  191.2390  176.3170  143.1320 O   0  0  0  0  0  0  0  0  0  0  0  0
  191.6860  175.2840  143.9540 C   0  0  0  0  0  1  0  0  0  0  0  0
  1 19  1  1  0  0  0
  1 30  1  0  0  0  0
  2 10  1  0  0  0  0
  3 13  1  0  0  0  0
  4 16  2  0  0  0  0
  4  6  1  0  0  0  0
  5  7  1  0  0  0  0
  5 12  1  0  0  0  0
  6 15  1  0  0  0  0
  7 12  1  0  0  0  0
  8 11  1  0  0  0  0
  9  6  2  0  0  0  0
 11  3  2  0  0  0  0
 11 17  1  0  0  0  0
 12  1  1  1  0  0  0
 13 10  1  0  0  0  0
 13  7  2  0  0  0  0
 14  3  1  0  0  0  0
 14  2  2  0  0  0  0
 15  2  1  0  0  0  0
 16 14  1  0  0  0  0
 17  5  2  0  0  0  0
 19 18  1  6  0  0  0
 20 21  2  0  0  0  0
 21 19  1  0  0  0  0
 22 21  1  0  0  0  0
 23 22  1  0  0  0  0
 24 27  1  0  0  0  0
 25 23  1  6  0  0  0
 25 26  1  0  0  0  0
 26 27  1  0  0  0  0
 28 25  1  0  0  0  0
 28 24  1  0  0  0  0
 30 29  1  1  0  0  0
 30 31  1  0  0  0  0
 31 32  1  0  0  0  0
 32 33  1  0  0  0  0
 33 34  1  0  0  0  0
 35 36  1  0  0  0  0
 35 30  1  0  0  0  0
 36 37  1  0  0  0  0
M  END
>  <MODEL>
9

>  <REMARK>
 VINA RESULT:      -5.9      1.957      8.101
  Name = 
  12 active torsions:
  status: ('A' for Active; 'I' for Inactive)
    1  A    between atoms: N_7  and  C_29
    2  A    between atoms: N_7  and  C_36
    3  A    between atoms: C_8  and  C_28
    4  A    between atoms: C_13  and  O_14
    5  A    between atoms: C_13  and  C_29
    6  A    between atoms: O_15  and  C_20
    7  A    between atoms: O_15  and  C_28
    8  A    between atoms: C_16  and  C_23
    9  A    between atoms: C_16  and  C_24
   10  A    between atoms: C_16  and  C_29
   11  A    between atoms: C_18  and  C_36
   12  A    between atoms: C_20  and  C_23
                            x       y       z     vdW  Elec       q    Type
                         _______ _______ _______ _____ _____    ______ ____

>  <TORSDO>
F 12

$$$$
