=
 OpenBabel11042411543D

 35 36  0  0  1  0  0  0  0  0999 V2000
  191.0440  177.8220  141.7550 O   0  0  0  0  0  0  0  0  0  0  0  0
  190.1830  176.7860  141.5900 C   0  0  1  0  0  3  0  0  0  0  0  0
  189.7700  177.9850  142.2830 N   0  0  0  0  0  0  0  0  0  0  0  0
  189.6360  176.8070  140.1790 C   0  0  0  0  0  2  0  0  0  0  0  0
  190.5280  176.0650  139.3040 N   0  0  0  0  0  2  0  0  0  0  0  0
  190.9950  174.8350  137.4040 O   0  0  0  0  0  0  0  0  0  0  0  0
  190.2320  175.6710  137.9570 C   0  0  0  0  0  0  0  0  0  0  0  0
  186.9450  178.2800  136.5240 C   0  0  0  0  0  3  0  0  0  0  0  0
  187.8390  175.4040  137.0580 C   0  0  0  0  0  3  0  0  0  0  0  0
  189.2010  177.3810  136.6440 N   0  0  0  0  0  0  0  0  0  0  0  0
  188.2120  178.0150  135.7830 C   0  0  0  0  0  2  0  0  0  0  0  0
  189.0820  176.2020  137.1830 C   0  0  0  0  0  0  0  0  0  0  0  0
  186.2090  177.3080  137.0610 C   0  0  0  0  0  0  0  0  0  0  0  0
  186.5890  175.8830  137.0100 C   0  0  0  0  0  3  0  0  0  0  0  0
  184.8920  177.6620  137.6570 C   0  0  0  0  0  2  0  0  0  0  0  0
  185.0490  177.9440  139.0750 N   0  0  0  0  0  2  0  0  0  0  0  0
  184.8130  179.2430  139.6180 C   0  0  0  0  0  0  0  0  0  0  0  0
  184.4650  180.1940  138.8640 O   0  0  0  0  0  0  0  0  0  0  0  0
  186.2010  179.1890  141.6470 C   0  0  0  0  0  1  0  0  0  0  0  0
  184.9690  179.4450  140.9890 O   0  0  0  0  0  0  0  0  0  0  0  0
  189.8490  177.7250  143.6650 N   0  0  0  0  0  0  0  0  0  0  0  0
  187.6510  177.1420  144.4830 C   0  0  0  0  0  3  0  0  0  0  0  0
  188.7180  177.9350  144.5210 C   0  0  0  0  0  3  0  0  0  0  0  0
  186.4850  177.3870  145.3820 C   0  0  0  0  0  2  0  0  0  0  0  0
  185.7200  178.6340  144.9590 C   0  0  2  0  0  3  0  0  0  0  0  0
  185.8450  178.6450  147.1700 C   0  0  0  0  0  1  0  0  0  0  0  0
  185.4900  179.4390  146.0780 O   0  0  0  0  0  0  0  0  0  0  0  0
  184.4470  178.2520  144.3660 N   0  0  0  0  0  2  0  0  0  0  0  0
  183.6240  179.4480  144.3160 C   0  0  0  0  0  1  0  0  0  0  0  0
  191.1500  177.5590  144.3020 C   0  0  0  0  0  2  0  0  0  0  0  0
  192.0620  175.3490  144.1590 O   0  0  0  0  0  1  0  0  0  0  0  0
  191.2600  176.1820  144.9410 C   0  0  1  0  0  3  0  0  0  0  0  0
  192.5720  175.2490  146.8410 O   0  0  0  0  0  0  0  0  0  0  0  0
  191.6250  177.3290  147.0080 O   0  0  0  0  0  1  0  0  0  0  0  0
  191.8310  176.2980  146.3140 C   0  0  0  0  0  0  0  0  0  0  0  0
  1  3  1  0  0  0  0
  2  4  1  6  0  0  0
  2  1  1  0  0  0  0
  2  3  1  0  0  0  0
  3 21  1  0  0  0  0
  5  4  1  0  0  0  0
  6  7  2  0  0  0  0
  7  5  1  0  0  0  0
  8 13  2  0  0  0  0
  9 12  1  0  0  0  0
 10 12  2  0  0  0  0
 11  8  1  0  0  0  0
 11 10  1  0  0  0  0
 12  7  1  0  0  0  0
 13 15  1  0  0  0  0
 14  9  2  0  0  0  0
 14 13  1  0  0  0  0
 15 16  1  0  0  0  0
 16 17  1  0  0  0  0
 17 20  1  0  0  0  0
 18 17  2  0  0  0  0
 20 19  1  0  0  0  0
 21 30  1  0  0  0  0
 21 23  1  0  0  0  0
 22 23  2  0  0  0  0
 22 24  1  0  0  0  0
 25 24  1  1  0  0  0
 25 27  1  0  0  0  0
 27 26  1  0  0  0  0
 28 25  1  0  0  0  0
 29 28  1  0  0  0  0
 30 32  1  0  0  0  0
 32 31  1  6  0  0  0
 32 35  1  0  0  0  0
 35 33  2  0  0  0  0
 35 34  1  0  0  0  0
M  END
>  <MODEL>
1

>  <REMARK>
 VINA RESULT:      -6.8      0.000      0.000
  Name = 
  15 active torsions:
  status: ('A' for Active; 'I' for Inactive)
    1  A    between atoms: N_1  and  C_34
    2  A    between atoms: N_2  and  C_3
    3  A    between atoms: C_3  and  C_17
    4  A    between atoms: N_6  and  C_19
    5  A    between atoms: C_8  and  C_24
    6  A    between atoms: C_8  and  N_25
    7  A    between atoms: C_13  and  O_31
    8  A    between atoms: O_16  and  C_19
    9  A    between atoms: C_19  and  C_21
   10  A    between atoms: C_20  and  C_35
   11  A    between atoms: C_21  and  C_22
   12  A    between atoms: C_24  and  C_30
   13  A    between atoms: N_25  and  N_26
   14  A    between atoms: N_25  and  C_27
   15  A    between atoms: C_32  and  C_34
                            x       y       z     vdW  Elec       q    Type
                         _______ _______ _______ _____ _____    ______ ____

>  <TORSDO>
F 15

$$$$
=
 OpenBabel11042411543D

 35 36  0  0  1  0  0  0  0  0999 V2000
  190.9980  176.4730  141.5590 O   0  0  0  0  0  0  0  0  0  0  0  0
  191.3730  177.7760  141.5120 C   0  0  1  0  0  3  0  0  0  0  0  0
  190.1780  177.3280  140.8360 N   0  0  0  0  0  0  0  0  0  0  0  0
  190.9930  178.4540  142.8100 C   0  0  0  0  0  2  0  0  0  0  0  0
  191.6960  177.8200  143.9130 N   0  0  0  0  0  2  0  0  0  0  0  0
  191.8250  176.9820  146.0630 O   0  0  0  0  0  0  0  0  0  0  0  0
  191.0810  177.2840  145.0920 C   0  0  0  0  0  0  0  0  0  0  0  0
  186.6910  177.6130  144.5610 C   0  0  0  0  0  3  0  0  0  0  0  0
  188.9690  177.1610  146.5520 C   0  0  0  0  0  3  0  0  0  0  0  0
  188.9430  176.7970  144.1420 N   0  0  0  0  0  0  0  0  0  0  0  0
  187.5250  176.4660  144.0990 C   0  0  0  0  0  2  0  0  0  0  0  0
  189.6190  177.0610  145.2230 C   0  0  0  0  0  0  0  0  0  0  0  0
  186.7810  178.1190  145.7900 C   0  0  0  0  0  0  0  0  0  0  0  0
  187.7380  177.6250  146.8000 C   0  0  0  0  0  3  0  0  0  0  0  0
  185.8080  179.1690  146.1980 C   0  0  0  0  0  2  0  0  0  0  0  0
  184.4550  178.7360  145.8890 N   0  0  0  0  0  2  0  0  0  0  0  0
  183.7480  179.2230  144.7480 C   0  0  0  0  0  0  0  0  0  0  0  0
  184.2890  180.0620  143.9750 O   0  0  0  0  0  0  0  0  0  0  0  0
  181.8060  178.9850  143.2580 C   0  0  0  0  0  1  0  0  0  0  0  0
  182.4560  178.7590  144.5000 O   0  0  0  0  0  0  0  0  0  0  0  0
  190.4960  177.1680  139.4730 N   0  0  0  0  0  0  0  0  0  0  0  0
  188.3710  177.4630  138.3610 C   0  0  0  0  0  3  0  0  0  0  0  0
  189.6690  177.7380  138.4500 C   0  0  0  0  0  3  0  0  0  0  0  0
  187.5350  178.0680  137.2830 C   0  0  0  0  0  2  0  0  0  0  0  0
  186.1020  178.2800  137.7540 C   0  0  2  0  0  3  0  0  0  0  0  0
  184.7650  178.7960  139.4420 C   0  0  0  0  0  1  0  0  0  0  0  0
  186.1000  178.5350  139.1280 O   0  0  0  0  0  0  0  0  0  0  0  0
  185.3130  177.0890  137.4800 N   0  0  0  0  0  2  0  0  0  0  0  0
  184.9700  177.1200  136.0690 C   0  0  0  0  0  1  0  0  0  0  0  0
  191.4680  176.1600  139.0660 C   0  0  0  0  0  2  0  0  0  0  0  0
  193.5470  176.8650  138.1120 O   0  0  0  0  0  1  0  0  0  0  0  0
  192.2090  176.6060  137.8140 C   0  0  1  0  0  3  0  0  0  0  0  0
  190.8900  175.2900  136.1620 O   0  0  0  0  0  0  0  0  0  0  0  0
  193.1320  174.8920  136.4250 O   0  0  0  0  0  1  0  0  0  0  0  0
  192.1150  175.5560  136.7600 C   0  0  0  0  0  0  0  0  0  0  0  0
  2  1  1  0  0  0  0
  2  4  1  1  0  0  0
  3  2  1  0  0  0  0
  3  1  1  0  0  0  0
  4  5  1  0  0  0  0
  5  7  1  0  0  0  0
  7 12  1  0  0  0  0
  7  6  2  0  0  0  0
  8 13  2  0  0  0  0
  9 14  2  0  0  0  0
 10 12  2  0  0  0  0
 11 10  1  0  0  0  0
 11  8  1  0  0  0  0
 12  9  1  0  0  0  0
 13 15  1  0  0  0  0
 13 14  1  0  0  0  0
 16 15  1  0  0  0  0
 17 16  1  0  0  0  0
 18 17  2  0  0  0  0
 19 20  1  0  0  0  0
 20 17  1  0  0  0  0
 21  3  1  0  0  0  0
 22 23  2  0  0  0  0
 23 21  1  0  0  0  0
 24 22  1  0  0  0  0
 25 24  1  1  0  0  0
 25 27  1  0  0  0  0
 27 26  1  0  0  0  0
 28 25  1  0  0  0  0
 29 28  1  0  0  0  0
 30 21  1  0  0  0  0
 32 31  1  1  0  0  0
 32 30  1  0  0  0  0
 33 35  2  0  0  0  0
 34 35  1  0  0  0  0
 35 32  1  0  0  0  0
M  END
>  <MODEL>
2

>  <REMARK>
 VINA RESULT:      -6.6      1.779      7.227
  Name = 
  15 active torsions:
  status: ('A' for Active; 'I' for Inactive)
    1  A    between atoms: N_1  and  C_34
    2  A    between atoms: N_2  and  C_3
    3  A    between atoms: C_3  and  C_17
    4  A    between atoms: N_6  and  C_19
    5  A    between atoms: C_8  and  C_24
    6  A    between atoms: C_8  and  N_25
    7  A    between atoms: C_13  and  O_31
    8  A    between atoms: O_16  and  C_19
    9  A    between atoms: C_19  and  C_21
   10  A    between atoms: C_20  and  C_35
   11  A    between atoms: C_21  and  C_22
   12  A    between atoms: C_24  and  C_30
   13  A    between atoms: N_25  and  N_26
   14  A    between atoms: N_25  and  C_27
   15  A    between atoms: C_32  and  C_34
                            x       y       z     vdW  Elec       q    Type
                         _______ _______ _______ _____ _____    ______ ____

>  <TORSDO>
F 15

$$$$
=
 OpenBabel11042411543D

 35 36  0  0  1  0  0  0  0  0999 V2000
  190.2460  176.8240  140.9610 O   0  0  0  0  0  0  0  0  0  0  0  0
  189.5340  177.8900  140.5150 C   0  0  1  0  0  3  0  0  0  0  0  0
  189.2440  176.5570  140.0380 N   0  0  0  0  0  0  0  0  0  0  0  0
  188.5130  178.2840  141.5590 C   0  0  0  0  0  2  0  0  0  0  0  0
  187.4300  179.0170  140.9250 N   0  0  0  0  0  2  0  0  0  0  0  0
  185.1990  179.5420  140.6210 O   0  0  0  0  0  0  0  0  0  0  0  0
  186.0750  179.0680  141.3930 C   0  0  0  0  0  0  0  0  0  0  0  0
  185.1320  178.9500  145.7240 C   0  0  0  0  0  3  0  0  0  0  0  0
  186.3160  177.4230  143.3540 C   0  0  0  0  0  3  0  0  0  0  0  0
  184.7150  179.2610  143.3490 N   0  0  0  0  0  0  0  0  0  0  0  0
  184.1230  178.8910  144.6280 C   0  0  0  0  0  2  0  0  0  0  0  0
  185.6560  178.5990  142.7380 C   0  0  0  0  0  0  0  0  0  0  0  0
  186.2260  178.1900  145.7380 C   0  0  0  0  0  0  0  0  0  0  0  0
  186.5680  177.2460  144.6560 C   0  0  0  0  0  3  0  0  0  0  0  0
  187.0970  178.2230  146.9450 C   0  0  0  0  0  2  0  0  0  0  0  0
  188.2630  177.3780  146.7370 N   0  0  0  0  0  2  0  0  0  0  0  0
  189.3970  177.4300  147.6020 C   0  0  0  0  0  0  0  0  0  0  0  0
  189.4160  178.2310  148.5780 O   0  0  0  0  0  0  0  0  0  0  0  0
  191.3900  176.8260  146.2940 C   0  0  0  0  0  1  0  0  0  0  0  0
  190.4790  176.5850  147.3560 O   0  0  0  0  0  0  0  0  0  0  0  0
  189.8560  176.4140  138.7770 N   0  0  0  0  0  0  0  0  0  0  0  0
  192.0510  175.6560  138.1100 C   0  0  0  0  0  3  0  0  0  0  0  0
  191.2690  176.6030  138.6170 C   0  0  0  0  0  3  0  0  0  0  0  0
  193.5200  175.8770  137.9600 C   0  0  0  0  0  2  0  0  0  0  0  0
  194.1450  174.8150  137.0650 C   0  0  2  0  0  3  0  0  0  0  0  0
  193.8410  173.3670  135.4190 C   0  0  0  0  0  1  0  0  0  0  0  0
  193.2060  174.3920  136.1210 O   0  0  0  0  0  0  0  0  0  0  0  0
  194.5690  173.6810  137.8710 N   0  0  0  0  0  2  0  0  0  0  0  0
  195.5100  174.1840  138.8560 C   0  0  0  0  0  1  0  0  0  0  0  0
  189.0400  176.4020  137.5690 C   0  0  0  0  0  2  0  0  0  0  0  0
  188.9560  177.4310  135.4090 O   0  0  0  0  0  1  0  0  0  0  0  0
  189.2830  177.6590  136.7470 C   0  0  1  0  0  3  0  0  0  0  0  0
  187.0980  178.6510  137.4110 O   0  0  0  0  0  0  0  0  0  0  0  0
  189.0240  179.8770  137.6040 O   0  0  0  0  0  1  0  0  0  0  0  0
  188.4730  178.7900  137.2850 C   0  0  0  0  0  0  0  0  0  0  0  0
  2  1  1  0  0  0  0
  2  4  1  1  0  0  0
  3  2  1  0  0  0  0
  3  1  1  0  0  0  0
  5  7  1  0  0  0  0
  5  4  1  0  0  0  0
  6  7  2  0  0  0  0
  7 12  1  0  0  0  0
  8 13  2  0  0  0  0
  9 14  2  0  0  0  0
 10 11  1  0  0  0  0
 11  8  1  0  0  0  0
 12 10  2  0  0  0  0
 12  9  1  0  0  0  0
 13 15  1  0  0  0  0
 14 13  1  0  0  0  0
 16 15  1  0  0  0  0
 16 17  1  0  0  0  0
 17 18  2  0  0  0  0
 19 20  1  0  0  0  0
 20 17  1  0  0  0  0
 21  3  1  0  0  0  0
 22 23  2  0  0  0  0
 23 21  1  0  0  0  0
 24 22  1  0  0  0  0
 25 28  1  0  0  0  0
 25 24  1  1  0  0  0
 26 27  1  0  0  0  0
 27 25  1  0  0  0  0
 28 29  1  0  0  0  0
 30 21  1  0  0  0  0
 32 31  1  6  0  0  0
 32 35  1  0  0  0  0
 32 30  1  0  0  0  0
 35 33  2  0  0  0  0
 35 34  1  0  0  0  0
M  END
>  <MODEL>
3

>  <REMARK>
 VINA RESULT:      -6.5      2.608      9.014
  Name = 
  15 active torsions:
  status: ('A' for Active; 'I' for Inactive)
    1  A    between atoms: N_1  and  C_34
    2  A    between atoms: N_2  and  C_3
    3  A    between atoms: C_3  and  C_17
    4  A    between atoms: N_6  and  C_19
    5  A    between atoms: C_8  and  C_24
    6  A    between atoms: C_8  and  N_25
    7  A    between atoms: C_13  and  O_31
    8  A    between atoms: O_16  and  C_19
    9  A    between atoms: C_19  and  C_21
   10  A    between atoms: C_20  and  C_35
   11  A    between atoms: C_21  and  C_22
   12  A    between atoms: C_24  and  C_30
   13  A    between atoms: N_25  and  N_26
   14  A    between atoms: N_25  and  C_27
   15  A    between atoms: C_32  and  C_34
                            x       y       z     vdW  Elec       q    Type
                         _______ _______ _______ _____ _____    ______ ____

>  <TORSDO>
F 15

$$$$
=
 OpenBabel11042411543D

 35 36  0  0  1  0  0  0  0  0999 V2000
  190.3130  176.6740  141.4350 O   0  0  0  0  0  0  0  0  0  0  0  0
  189.3020  176.9770  140.5830 C   0  0  1  0  0  3  0  0  0  0  0  0
  189.5560  177.7950  141.7470 N   0  0  0  0  0  0  0  0  0  0  0  0
  189.8660  177.6600  139.3560 C   0  0  0  0  0  2  0  0  0  0  0  0
  188.8330  177.7600  138.3390 N   0  0  0  0  0  2  0  0  0  0  0  0
  188.0290  177.5040  136.1870 O   0  0  0  0  0  0  0  0  0  0  0  0
  188.8750  177.1390  137.0470 C   0  0  0  0  0  0  0  0  0  0  0  0
  192.1470  174.1530  137.2430 C   0  0  0  0  0  3  0  0  0  0  0  0
  190.7960  176.3140  135.5510 C   0  0  0  0  0  3  0  0  0  0  0  0
  189.8680  174.9910  137.3750 N   0  0  0  0  0  0  0  0  0  0  0  0
  190.6990  173.8270  137.0970 C   0  0  0  0  0  2  0  0  0  0  0  0
  189.8560  176.0890  136.6760 C   0  0  0  0  0  0  0  0  0  0  0  0
  192.7580  175.0690  136.4920 C   0  0  0  0  0  0  0  0  0  0  0  0
  192.0580  175.8760  135.4720 C   0  0  0  0  0  3  0  0  0  0  0  0
  194.2330  175.2200  136.6170 C   0  0  0  0  0  2  0  0  0  0  0  0
  194.6100  175.2440  138.0210 N   0  0  0  0  0  2  0  0  0  0  0  0
  195.6200  174.3830  138.5470 C   0  0  0  0  0  0  0  0  0  0  0  0
  196.2100  173.5600  137.7930 O   0  0  0  0  0  0  0  0  0  0  0  0
  197.1200  175.1220  140.3510 C   0  0  0  0  0  1  0  0  0  0  0  0
  195.9450  174.4640  139.9010 O   0  0  0  0  0  0  0  0  0  0  0  0
  188.6310  177.4170  142.7410 N   0  0  0  0  0  0  0  0  0  0  0  0
  186.5490  177.8550  143.8870 C   0  0  0  0  0  3  0  0  0  0  0  0
  187.3690  178.0860  142.8670 C   0  0  0  0  0  3  0  0  0  0  0  0
  185.2390  178.5620  143.9900 C   0  0  0  0  0  2  0  0  0  0  0  0
  184.7340  178.5740  145.4270 C   0  0  2  0  0  3  0  0  0  0  0  0
  182.9510  178.8690  144.1480 C   0  0  0  0  0  1  0  0  0  0  0  0
  183.4190  179.0450  145.4510 O   0  0  0  0  0  0  0  0  0  0  0  0
  185.5760  179.4410  146.2370 N   0  0  0  0  0  2  0  0  0  0  0  0
  186.1500  178.6180  147.2870 C   0  0  0  0  0  1  0  0  0  0  0  0
  189.0610  176.5800  143.8540 C   0  0  0  0  0  2  0  0  0  0  0  0
  189.1870  177.5000  146.0610 O   0  0  0  0  0  1  0  0  0  0  0  0
  189.8750  177.3920  144.8510 C   0  0  1  0  0  3  0  0  0  0  0  0
  191.9290  177.0540  146.2170 O   0  0  0  0  0  1  0  0  0  0  0  0
  191.6800  175.9540  144.2220 O   0  0  0  0  0  0  0  0  0  0  0  0
  191.2030  176.7500  145.0740 C   0  0  0  0  0  0  0  0  0  0  0  0
  1  3  1  0  0  0  0
  2  4  1  6  0  0  0
  2  1  1  0  0  0  0
  2  3  1  0  0  0  0
  3 21  1  0  0  0  0
  5  4  1  0  0  0  0
  6  7  2  0  0  0  0
  7  5  1  0  0  0  0
  9 12  1  0  0  0  0
 11  8  1  0  0  0  0
 11 10  1  0  0  0  0
 12  7  1  0  0  0  0
 12 10  2  0  0  0  0
 13 15  1  0  0  0  0
 13  8  2  0  0  0  0
 14  9  2  0  0  0  0
 14 13  1  0  0  0  0
 15 16  1  0  0  0  0
 16 17  1  0  0  0  0
 17 20  1  0  0  0  0
 18 17  2  0  0  0  0
 20 19  1  0  0  0  0
 21 23  1  0  0  0  0
 21 30  1  0  0  0  0
 22 24  1  0  0  0  0
 23 22  2  0  0  0  0
 25 24  1  6  0  0  0
 25 27  1  0  0  0  0
 25 28  1  0  0  0  0
 26 27  1  0  0  0  0
 28 29  1  0  0  0  0
 30 32  1  0  0  0  0
 32 35  1  0  0  0  0
 32 31  1  1  0  0  0
 34 35  2  0  0  0  0
 35 33  1  0  0  0  0
M  END
>  <MODEL>
4

>  <REMARK>
 VINA RESULT:      -6.4      2.836      5.627
  Name = 
  15 active torsions:
  status: ('A' for Active; 'I' for Inactive)
    1  A    between atoms: N_1  and  C_34
    2  A    between atoms: N_2  and  C_3
    3  A    between atoms: C_3  and  C_17
    4  A    between atoms: N_6  and  C_19
    5  A    between atoms: C_8  and  C_24
    6  A    between atoms: C_8  and  N_25
    7  A    between atoms: C_13  and  O_31
    8  A    between atoms: O_16  and  C_19
    9  A    between atoms: C_19  and  C_21
   10  A    between atoms: C_20  and  C_35
   11  A    between atoms: C_21  and  C_22
   12  A    between atoms: C_24  and  C_30
   13  A    between atoms: N_25  and  N_26
   14  A    between atoms: N_25  and  C_27
   15  A    between atoms: C_32  and  C_34
                            x       y       z     vdW  Elec       q    Type
                         _______ _______ _______ _____ _____    ______ ____

>  <TORSDO>
F 15

$$$$
=
 OpenBabel11042411543D

 35 36  0  0  1  0  0  0  0  0999 V2000
  185.7700  178.7080  139.5050 O   0  0  0  0  0  0  0  0  0  0  0  0
  184.4870  178.4500  139.8600 C   0  0  1  0  0  3  0  0  0  0  0  0
  185.2780  179.4100  140.5960 N   0  0  0  0  0  0  0  0  0  0  0  0
  183.5500  179.1840  138.9250 C   0  0  0  0  0  2  0  0  0  0  0  0
  182.3530  178.3860  138.7150 N   0  0  0  0  0  2  0  0  0  0  0  0
  181.0830  176.8460  137.5510 O   0  0  0  0  0  0  0  0  0  0  0  0
  182.2360  177.2880  137.8000 C   0  0  0  0  0  0  0  0  0  0  0  0
  186.2530  175.5610  137.0610 C   0  0  0  0  0  3  0  0  0  0  0  0
  183.9630  177.2230  135.8970 C   0  0  0  0  0  3  0  0  0  0  0  0
  183.9060  175.5820  137.6980 N   0  0  0  0  0  0  0  0  0  0  0  0
  184.9870  174.7780  137.1450 C   0  0  0  0  0  2  0  0  0  0  0  0
  183.4000  176.6450  137.1410 C   0  0  0  0  0  0  0  0  0  0  0  0
  186.3700  176.6630  136.3200 C   0  0  0  0  0  0  0  0  0  0  0  0
  185.2540  177.2360  135.5420 C   0  0  0  0  0  3  0  0  0  0  0  0
  187.7120  177.2920  136.1920 C   0  0  0  0  0  2  0  0  0  0  0  0
  188.4040  177.2470  137.4700 N   0  0  0  0  0  2  0  0  0  0  0  0
  188.9740  178.4140  138.0630 C   0  0  0  0  0  0  0  0  0  0  0  0
  188.8950  179.5290  137.4750 O   0  0  0  0  0  0  0  0  0  0  0  0
  190.5760  177.2950  139.5550 C   0  0  0  0  0  1  0  0  0  0  0  0
  189.6140  178.3060  139.2970 O   0  0  0  0  0  0  0  0  0  0  0  0
  185.7480  178.7680  141.7590 N   0  0  0  0  0  0  0  0  0  0  0  0
  187.5300  177.5490  142.8460 C   0  0  0  0  0  3  0  0  0  0  0  0
  187.1160  178.3540  141.8720 C   0  0  0  0  0  3  0  0  0  0  0  0
  188.9620  177.1380  142.9410 C   0  0  0  0  0  2  0  0  0  0  0  0
  189.5920  177.6450  144.2310 C   0  0  2  0  0  3  0  0  0  0  0  0
  191.1910  176.4160  143.3170 C   0  0  0  0  0  1  0  0  0  0  0  0
  190.7000  176.8530  144.5480 O   0  0  0  0  0  0  0  0  0  0  0  0
  188.6220  177.5780  145.3130 N   0  0  0  0  0  2  0  0  0  0  0  0
  189.3230  177.0810  146.4840 C   0  0  0  0  0  1  0  0  0  0  0  0
  184.8000  178.2210  142.7220 C   0  0  0  0  0  2  0  0  0  0  0  0
  182.7710  179.3390  143.3260 O   0  0  0  0  0  1  0  0  0  0  0  0
  184.1520  179.3370  143.5280 C   0  0  1  0  0  3  0  0  0  0  0  0
  185.7750  179.1840  145.4100 O   0  0  0  0  0  0  0  0  0  0  0  0
  183.5270  178.9840  145.8090 O   0  0  0  0  0  1  0  0  0  0  0  0
  184.4560  179.1670  144.9780 C   0  0  0  0  0  0  0  0  0  0  0  0
  1  2  1  0  0  0  0
  1  3  1  0  0  0  0
  2  4  1  6  0  0  0
  2  3  1  0  0  0  0
  3 21  1  0  0  0  0
  5  4  1  0  0  0  0
  6  7  2  0  0  0  0
  7  5  1  0  0  0  0
  8 11  1  0  0  0  0
  9 12  1  0  0  0  0
 11 10  1  0  0  0  0
 12 10  2  0  0  0  0
 12  7  1  0  0  0  0
 13  8  2  0  0  0  0
 14  9  2  0  0  0  0
 14 13  1  0  0  0  0
 15 13  1  0  0  0  0
 15 16  1  0  0  0  0
 16 17  1  0  0  0  0
 17 20  1  0  0  0  0
 18 17  2  0  0  0  0
 20 19  1  0  0  0  0
 21 23  1  0  0  0  0
 21 30  1  0  0  0  0
 22 24  1  0  0  0  0
 23 22  2  0  0  0  0
 25 24  1  6  0  0  0
 25 27  1  0  0  0  0
 25 28  1  0  0  0  0
 26 27  1  0  0  0  0
 28 29  1  0  0  0  0
 30 32  1  0  0  0  0
 32 31  1  1  0  0  0
 32 35  1  0  0  0  0
 35 33  2  0  0  0  0
 35 34  1  0  0  0  0
M  END
>  <MODEL>
5

>  <REMARK>
 VINA RESULT:      -6.4      2.193      5.953
  Name = 
  15 active torsions:
  status: ('A' for Active; 'I' for Inactive)
    1  A    between atoms: N_1  and  C_34
    2  A    between atoms: N_2  and  C_3
    3  A    between atoms: C_3  and  C_17
    4  A    between atoms: N_6  and  C_19
    5  A    between atoms: C_8  and  C_24
    6  A    between atoms: C_8  and  N_25
    7  A    between atoms: C_13  and  O_31
    8  A    between atoms: O_16  and  C_19
    9  A    between atoms: C_19  and  C_21
   10  A    between atoms: C_20  and  C_35
   11  A    between atoms: C_21  and  C_22
   12  A    between atoms: C_24  and  C_30
   13  A    between atoms: N_25  and  N_26
   14  A    between atoms: N_25  and  C_27
   15  A    between atoms: C_32  and  C_34
                            x       y       z     vdW  Elec       q    Type
                         _______ _______ _______ _____ _____    ______ ____

>  <TORSDO>
F 15

$$$$
=
 OpenBabel11042411543D

 35 36  0  0  1  0  0  0  0  0999 V2000
  184.7550  179.7530  140.1050 O   0  0  0  0  0  0  0  0  0  0  0  0
  185.0410  178.6200  140.7950 C   0  0  1  0  0  3  0  0  0  0  0  0
  185.8290  179.0040  139.6460 N   0  0  0  0  0  0  0  0  0  0  0  0
  185.7900  178.9790  142.0600 C   0  0  0  0  0  2  0  0  0  0  0  0
  184.8410  179.3770  143.0870 N   0  0  0  0  0  2  0  0  0  0  0  0
  183.8180  179.1450  145.1460 O   0  0  0  0  0  0  0  0  0  0  0  0
  184.8320  178.9000  144.4390 C   0  0  0  0  0  0  0  0  0  0  0  0
  188.5420  177.8800  146.6430 C   0  0  0  0  0  3  0  0  0  0  0  0
  186.8040  177.2680  144.2010 C   0  0  0  0  0  3  0  0  0  0  0  0
  186.1650  178.2820  146.3230 N   0  0  0  0  0  0  0  0  0  0  0  0
  187.1600  177.5500  147.0960 C   0  0  0  0  0  2  0  0  0  0  0  0
  185.9530  178.1410  145.0460 C   0  0  0  0  0  0  0  0  0  0  0  0
  188.9720  177.6360  145.4050 C   0  0  0  0  0  0  0  0  0  0  0  0
  188.1170  177.0520  144.3530 C   0  0  0  0  0  3  0  0  0  0  0  0
  190.4070  177.8720  145.0940 C   0  0  0  0  0  2  0  0  0  0  0  0
  190.5920  177.9700  143.6550 N   0  0  0  0  0  2  0  0  0  0  0  0
  191.3180  176.9870  142.9170 C   0  0  0  0  0  0  0  0  0  0  0  0
  191.8320  175.9980  143.5100 O   0  0  0  0  0  0  0  0  0  0  0  0
  190.3220  177.1280  140.6720 C   0  0  0  0  0  1  0  0  0  0  0  0
  191.4490  177.1330  141.5360 O   0  0  0  0  0  0  0  0  0  0  0  0
  185.3780  178.2430  138.5490 N   0  0  0  0  0  0  0  0  0  0  0  0
  183.2010  177.6580  137.6770 C   0  0  0  0  0  3  0  0  0  0  0  0
  184.1390  177.5240  138.6100 C   0  0  0  0  0  3  0  0  0  0  0  0
  181.9190  176.9000  137.7690 C   0  0  0  0  0  2  0  0  0  0  0  0
  182.1750  175.4100  137.9540 C   0  0  2  0  0  3  0  0  0  0  0  0
  182.4540  173.5130  136.8470 C   0  0  0  0  0  1  0  0  0  0  0  0
  182.7140  174.8830  136.7770 O   0  0  0  0  0  0  0  0  0  0  0  0
  180.9270  174.7300  138.2640 N   0  0  0  0  0  2  0  0  0  0  0  0
  179.8950  175.7490  138.3430 C   0  0  0  0  0  1  0  0  0  0  0  0
  186.2980  177.9050  137.4700 C   0  0  0  0  0  2  0  0  0  0  0  0
  188.0070  176.3040  137.9690 O   0  0  0  0  0  1  0  0  0  0  0  0
  187.6970  177.6640  138.0170 C   0  0  1  0  0  3  0  0  0  0  0  0
  188.9850  179.7520  137.5930 O   0  0  0  0  0  1  0  0  0  0  0  0
  189.2630  177.9320  136.2290 O   0  0  0  0  0  0  0  0  0  0  0  0
  188.6970  178.4440  137.2320 C   0  0  0  0  0  0  0  0  0  0  0  0
  1  2  1  0  0  0  0
  2  4  1  1  0  0  0
  3  1  1  0  0  0  0
  3  2  1  0  0  0  0
  4  5  1  0  0  0  0
  5  7  1  0  0  0  0
  7 12  1  0  0  0  0
  7  6  2  0  0  0  0
  8 11  1  0  0  0  0
  9 14  2  0  0  0  0
  9 12  1  0  0  0  0
 10 11  1  0  0  0  0
 12 10  2  0  0  0  0
 13  8  2  0  0  0  0
 14 13  1  0  0  0  0
 15 13  1  0  0  0  0
 16 15  1  0  0  0  0
 17 18  2  0  0  0  0
 17 16  1  0  0  0  0
 19 20  1  0  0  0  0
 20 17  1  0  0  0  0
 21 23  1  0  0  0  0
 21  3  1  0  0  0  0
 22 24  1  0  0  0  0
 22 23  2  0  0  0  0
 25 24  1  6  0  0  0
 25 28  1  0  0  0  0
 27 26  1  0  0  0  0
 27 25  1  0  0  0  0
 28 29  1  0  0  0  0
 30 32  1  0  0  0  0
 30 21  1  0  0  0  0
 32 31  1  6  0  0  0
 34 35  2  0  0  0  0
 35 33  1  0  0  0  0
 35 32  1  0  0  0  0
M  END
>  <MODEL>
6

>  <REMARK>
 VINA RESULT:      -6.3      2.576      8.597
  Name = 
  15 active torsions:
  status: ('A' for Active; 'I' for Inactive)
    1  A    between atoms: N_1  and  C_34
    2  A    between atoms: N_2  and  C_3
    3  A    between atoms: C_3  and  C_17
    4  A    between atoms: N_6  and  C_19
    5  A    between atoms: C_8  and  C_24
    6  A    between atoms: C_8  and  N_25
    7  A    between atoms: C_13  and  O_31
    8  A    between atoms: O_16  and  C_19
    9  A    between atoms: C_19  and  C_21
   10  A    between atoms: C_20  and  C_35
   11  A    between atoms: C_21  and  C_22
   12  A    between atoms: C_24  and  C_30
   13  A    between atoms: N_25  and  N_26
   14  A    between atoms: N_25  and  C_27
   15  A    between atoms: C_32  and  C_34
                            x       y       z     vdW  Elec       q    Type
                         _______ _______ _______ _____ _____    ______ ____

>  <TORSDO>
F 15

$$$$
=
 OpenBabel11042411543D

 35 36  0  0  1  0  0  0  0  0999 V2000
  190.4810  176.9450  140.8300 O   0  0  0  0  0  0  0  0  0  0  0  0
  189.5870  177.8500  140.3600 C   0  0  1  0  0  3  0  0  0  0  0  0
  189.6680  176.5270  139.7850 N   0  0  0  0  0  0  0  0  0  0  0  0
  188.4020  177.9190  141.2990 C   0  0  0  0  0  2  0  0  0  0  0  0
  187.3860  178.7910  140.7340 N   0  0  0  0  0  2  0  0  0  0  0  0
  185.2160  179.5600  140.5250 O   0  0  0  0  0  0  0  0  0  0  0  0
  186.0580  178.9610  141.2470 C   0  0  0  0  0  0  0  0  0  0  0  0
  184.8970  178.8300  145.5240 C   0  0  0  0  0  3  0  0  0  0  0  0
  186.4000  177.4120  143.2700 C   0  0  0  0  0  3  0  0  0  0  0  0
  184.5770  179.0230  143.1220 N   0  0  0  0  0  0  0  0  0  0  0  0
  183.9680  178.6110  144.3790 C   0  0  0  0  0  2  0  0  0  0  0  0
  185.6290  178.4760  142.5820 C   0  0  0  0  0  0  0  0  0  0  0  0
  186.0780  178.2210  145.6200 C   0  0  0  0  0  0  0  0  0  0  0  0
  186.6000  177.3030  144.5890 C   0  0  0  0  0  3  0  0  0  0  0  0
  186.8680  178.3980  146.8690 C   0  0  0  0  0  2  0  0  0  0  0  0
  188.1700  177.7650  146.7250 N   0  0  0  0  0  2  0  0  0  0  0  0
  189.0870  177.6660  147.8150 C   0  0  0  0  0  0  0  0  0  0  0  0
  188.7860  178.1450  148.9440 O   0  0  0  0  0  0  0  0  0  0  0  0
  190.9020  176.9320  146.3270 C   0  0  0  0  0  1  0  0  0  0  0  0
  190.3140  177.0360  147.6160 O   0  0  0  0  0  0  0  0  0  0  0  0
  190.4200  176.6270  138.5980 N   0  0  0  0  0  0  0  0  0  0  0  0
  188.5540  177.2760  137.2080 C   0  0  0  0  0  3  0  0  0  0  0  0
  189.8650  177.2280  137.4210 C   0  0  0  0  0  3  0  0  0  0  0  0
  188.0040  177.9040  135.9700 C   0  0  0  0  0  2  0  0  0  0  0  0
  186.4940  177.7210  135.8880 C   0  0  2  0  0  3  0  0  0  0  0  0
  185.0020  177.5420  137.5140 C   0  0  0  0  0  1  0  0  0  0  0  0
  186.0730  176.8740  136.9170 O   0  0  0  0  0  0  0  0  0  0  0  0
  186.1380  177.1380  134.6040 N   0  0  0  0  0  2  0  0  0  0  0  0
  186.4740  175.7260  134.6680 C   0  0  0  0  0  1  0  0  0  0  0  0
  191.6360  175.8380  138.4390 C   0  0  0  0  0  2  0  0  0  0  0  0
  193.5420  177.0670  139.2080 O   0  0  0  0  0  1  0  0  0  0  0  0
  192.8090  176.7340  138.0680 C   0  0  1  0  0  3  0  0  0  0  0  0
  193.4190  176.1610  135.7220 O   0  0  0  0  0  0  0  0  0  0  0  0
  194.6580  175.3400  137.4670 O   0  0  0  0  0  1  0  0  0  0  0  0
  193.6890  176.0450  137.0790 C   0  0  0  0  0  0  0  0  0  0  0  0
  2  1  1  0  0  0  0
  2  4  1  1  0  0  0
  3  2  1  0  0  0  0
  3  1  1  0  0  0  0
  5  7  1  0  0  0  0
  5  4  1  0  0  0  0
  6  7  2  0  0  0  0
  7 12  1  0  0  0  0
  8 13  2  0  0  0  0
  9 14  2  0  0  0  0
 10 11  1  0  0  0  0
 11  8  1  0  0  0  0
 12 10  2  0  0  0  0
 12  9  1  0  0  0  0
 13 15  1  0  0  0  0
 14 13  1  0  0  0  0
 16 15  1  0  0  0  0
 16 17  1  0  0  0  0
 17 18  2  0  0  0  0
 19 20  1  0  0  0  0
 20 17  1  0  0  0  0
 21  3  1  0  0  0  0
 22 23  2  0  0  0  0
 23 21  1  0  0  0  0
 24 22  1  0  0  0  0
 25 24  1  6  0  0  0
 25 27  1  0  0  0  0
 27 26  1  0  0  0  0
 28 29  1  0  0  0  0
 28 25  1  0  0  0  0
 30 21  1  0  0  0  0
 32 30  1  0  0  0  0
 32 31  1  1  0  0  0
 33 35  2  0  0  0  0
 35 34  1  0  0  0  0
 35 32  1  0  0  0  0
M  END
>  <MODEL>
7

>  <REMARK>
 VINA RESULT:      -6.3      2.204      8.019
  Name = 
  15 active torsions:
  status: ('A' for Active; 'I' for Inactive)
    1  A    between atoms: N_1  and  C_34
    2  A    between atoms: N_2  and  C_3
    3  A    between atoms: C_3  and  C_17
    4  A    between atoms: N_6  and  C_19
    5  A    between atoms: C_8  and  C_24
    6  A    between atoms: C_8  and  N_25
    7  A    between atoms: C_13  and  O_31
    8  A    between atoms: O_16  and  C_19
    9  A    between atoms: C_19  and  C_21
   10  A    between atoms: C_20  and  C_35
   11  A    between atoms: C_21  and  C_22
   12  A    between atoms: C_24  and  C_30
   13  A    between atoms: N_25  and  N_26
   14  A    between atoms: N_25  and  C_27
   15  A    between atoms: C_32  and  C_34
                            x       y       z     vdW  Elec       q    Type
                         _______ _______ _______ _____ _____    ______ ____

>  <TORSDO>
F 15

$$$$
=
 OpenBabel11042411543D

 35 36  0  0  1  0  0  0  0  0999 V2000
  184.5400  179.7840  140.2380 O   0  0  0  0  0  0  0  0  0  0  0  0
  184.7890  178.6000  140.8520 C   0  0  1  0  0  3  0  0  0  0  0  0
  185.5510  179.0050  139.6930 N   0  0  0  0  0  0  0  0  0  0  0  0
  185.6060  178.8450  142.1020 C   0  0  0  0  0  2  0  0  0  0  0  0
  184.7480  179.3830  143.1440 N   0  0  0  0  0  2  0  0  0  0  0  0
  183.8410  179.3800  145.2700 O   0  0  0  0  0  0  0  0  0  0  0  0
  184.7930  179.0160  144.5300 C   0  0  0  0  0  0  0  0  0  0  0  0
  188.6530  177.9300  146.4230 C   0  0  0  0  0  3  0  0  0  0  0  0
  186.5250  177.1220  144.3800 C   0  0  0  0  0  3  0  0  0  0  0  0
  186.3120  178.5780  146.3220 N   0  0  0  0  0  0  0  0  0  0  0  0
  187.3240  177.8730  147.0970 C   0  0  0  0  0  2  0  0  0  0  0  0
  185.9030  178.2370  145.1340 C   0  0  0  0  0  0  0  0  0  0  0  0
  188.8700  177.4110  145.2150 C   0  0  0  0  0  0  0  0  0  0  0  0
  187.8150  176.7650  144.4110 C   0  0  0  0  0  3  0  0  0  0  0  0
  190.2630  177.3940  144.6900 C   0  0  0  0  0  2  0  0  0  0  0  0
  190.2490  177.5400  143.2430 N   0  0  0  0  0  2  0  0  0  0  0  0
  190.3620  176.4170  142.3690 C   0  0  0  0  0  0  0  0  0  0  0  0
  190.4880  175.2530  142.8430 O   0  0  0  0  0  0  0  0  0  0  0  0
  191.3570  177.3320  140.3150 C   0  0  0  0  0  1  0  0  0  0  0  0
  190.3290  176.6230  140.9900 O   0  0  0  0  0  0  0  0  0  0  0  0
  185.0140  178.3340  138.5770 N   0  0  0  0  0  0  0  0  0  0  0  0
  182.8640  177.2670  138.2920 C   0  0  0  0  0  3  0  0  0  0  0  0
  183.6070  178.3700  138.3010 C   0  0  0  0  0  3  0  0  0  0  0  0
  181.4030  177.3340  137.9980 C   0  0  0  0  0  2  0  0  0  0  0  0
  180.5890  176.7020  139.1190 C   0  0  2  0  0  3  0  0  0  0  0  0
  179.9770  178.6110  140.0580 C   0  0  0  0  0  1  0  0  0  0  0  0
  180.7350  177.4620  140.2830 O   0  0  0  0  0  0  0  0  0  0  0  0
  181.0550  175.3460  139.3620 N   0  0  0  0  0  2  0  0  0  0  0  0
  180.0720  174.7030  140.2180 C   0  0  0  0  0  1  0  0  0  0  0  0
  185.8100  177.3330  137.8770 C   0  0  0  0  0  2  0  0  0  0  0  0
  188.0220  176.4250  138.0070 O   0  0  0  0  0  1  0  0  0  0  0  0
  187.2950  177.6160  138.0480 C   0  0  1  0  0  3  0  0  0  0  0  0
  187.2590  178.4190  135.6910 O   0  0  0  0  0  0  0  0  0  0  0  0
  188.6430  179.4120  137.2240 O   0  0  0  0  0  1  0  0  0  0  0  0
  187.7680  178.5400  136.9770 C   0  0  0  0  0  0  0  0  0  0  0  0
  1  2  1  0  0  0  0
  2  4  1  1  0  0  0
  3  1  1  0  0  0  0
  3  2  1  0  0  0  0
  4  5  1  0  0  0  0
  5  7  1  0  0  0  0
  7 12  1  0  0  0  0
  7  6  2  0  0  0  0
  8 11  1  0  0  0  0
  9 14  2  0  0  0  0
  9 12  1  0  0  0  0
 10 11  1  0  0  0  0
 12 10  2  0  0  0  0
 13  8  2  0  0  0  0
 14 13  1  0  0  0  0
 15 13  1  0  0  0  0
 16 15  1  0  0  0  0
 17 18  2  0  0  0  0
 17 16  1  0  0  0  0
 19 20  1  0  0  0  0
 20 17  1  0  0  0  0
 21  3  1  0  0  0  0
 22 23  2  0  0  0  0
 23 21  1  0  0  0  0
 24 22  1  0  0  0  0
 25 24  1  6  0  0  0
 25 28  1  0  0  0  0
 25 27  1  0  0  0  0
 26 27  1  0  0  0  0
 28 29  1  0  0  0  0
 30 32  1  0  0  0  0
 30 21  1  0  0  0  0
 32 31  1  6  0  0  0
 33 35  2  0  0  0  0
 35 34  1  0  0  0  0
 35 32  1  0  0  0  0
M  END
>  <MODEL>
8

>  <REMARK>
 VINA RESULT:      -6.2      2.660      8.375
  Name = 
  15 active torsions:
  status: ('A' for Active; 'I' for Inactive)
    1  A    between atoms: N_1  and  C_34
    2  A    between atoms: N_2  and  C_3
    3  A    between atoms: C_3  and  C_17
    4  A    between atoms: N_6  and  C_19
    5  A    between atoms: C_8  and  C_24
    6  A    between atoms: C_8  and  N_25
    7  A    between atoms: C_13  and  O_31
    8  A    between atoms: O_16  and  C_19
    9  A    between atoms: C_19  and  C_21
   10  A    between atoms: C_20  and  C_35
   11  A    between atoms: C_21  and  C_22
   12  A    between atoms: C_24  and  C_30
   13  A    between atoms: N_25  and  N_26
   14  A    between atoms: N_25  and  C_27
   15  A    between atoms: C_32  and  C_34
                            x       y       z     vdW  Elec       q    Type
                         _______ _______ _______ _____ _____    ______ ____

>  <TORSDO>
F 15

$$$$
=
 OpenBabel11042411543D

 35 36  0  0  1  0  0  0  0  0999 V2000
  183.8380  179.4170  140.8160 O   0  0  0  0  0  0  0  0  0  0  0  0
  184.8680  178.6430  141.2420 C   0  0  1  0  0  3  0  0  0  0  0  0
  184.9640  179.3830  140.0050 N   0  0  0  0  0  0  0  0  0  0  0  0
  185.6300  179.3750  142.3260 C   0  0  0  0  0  2  0  0  0  0  0  0
  184.7650  179.5740  143.4760 N   0  0  0  0  0  2  0  0  0  0  0  0
  183.9480  179.0050  145.5620 O   0  0  0  0  0  0  0  0  0  0  0  0
  184.9010  178.9160  144.7430 C   0  0  0  0  0  0  0  0  0  0  0  0
  189.0510  177.8520  145.8880 C   0  0  0  0  0  3  0  0  0  0  0  0
  186.5750  177.0160  144.2990 C   0  0  0  0  0  3  0  0  0  0  0  0
  186.7330  178.5040  146.2220 N   0  0  0  0  0  0  0  0  0  0  0  0
  187.8740  177.8090  146.8020 C   0  0  0  0  0  2  0  0  0  0  0  0
  186.1070  178.1450  145.1380 C   0  0  0  0  0  0  0  0  0  0  0  0
  189.0360  177.3130  144.6690 C   0  0  0  0  0  0  0  0  0  0  0  0
  187.8480  176.6570  144.0900 C   0  0  0  0  0  3  0  0  0  0  0  0
  190.3040  177.2850  143.8910 C   0  0  0  0  0  2  0  0  0  0  0  0
  190.1180  176.5190  142.6680 N   0  0  0  0  0  2  0  0  0  0  0  0
  190.7780  176.8670  141.4510 C   0  0  0  0  0  0  0  0  0  0  0  0
  191.5440  177.8700  141.4070 O   0  0  0  0  0  0  0  0  0  0  0  0
  190.5930  176.6390  139.0090 C   0  0  0  0  0  1  0  0  0  0  0  0
  190.5660  176.0850  140.3160 O   0  0  0  0  0  0  0  0  0  0  0  0
  184.7000  178.4840  138.9520 N   0  0  0  0  0  0  0  0  0  0  0  0
  186.8750  177.9020  138.0750 C   0  0  0  0  0  3  0  0  0  0  0  0
  185.6290  178.3190  137.8730 C   0  0  0  0  0  3  0  0  0  0  0  0
  187.8220  177.7430  136.9330 C   0  0  0  0  0  2  0  0  0  0  0  0
  187.6900  176.3640  136.2990 C   0  0  2  0  0  3  0  0  0  0  0  0
  186.4630  174.5830  136.7680 C   0  0  0  0  0  1  0  0  0  0  0  0
  187.4490  175.4170  137.2980 O   0  0  0  0  0  0  0  0  0  0  0  0
  188.9180  176.0260  135.5960 N   0  0  0  0  0  2  0  0  0  0  0  0
  189.4340  177.2570  135.0230 C   0  0  0  0  0  1  0  0  0  0  0  0
  183.3530  177.9590  138.7650 C   0  0  0  0  0  2  0  0  0  0  0  0
  182.9600  175.6220  139.1050 O   0  0  0  0  0  1  0  0  0  0  0  0
  183.4030  176.5590  138.1710 C   0  0  1  0  0  3  0  0  0  0  0  0
  181.6440  175.4600  136.7920 O   0  0  0  0  0  1  0  0  0  0  0  0
  182.6930  177.3490  136.0280 O   0  0  0  0  0  0  0  0  0  0  0  0
  182.5610  176.4920  136.9410 C   0  0  0  0  0  0  0  0  0  0  0  0
  1  2  1  0  0  0  0
  2  4  1  1  0  0  0
  3  1  1  0  0  0  0
  3  2  1  0  0  0  0
  4  5  1  0  0  0  0
  5  7  1  0  0  0  0
  7 12  1  0  0  0  0
  7  6  2  0  0  0  0
  8 11  1  0  0  0  0
  9 12  1  0  0  0  0
 10 11  1  0  0  0  0
 12 10  2  0  0  0  0
 13  8  2  0  0  0  0
 14  9  2  0  0  0  0
 14 13  1  0  0  0  0
 15 13  1  0  0  0  0
 16 15  1  0  0  0  0
 17 16  1  0  0  0  0
 18 17  2  0  0  0  0
 19 20  1  0  0  0  0
 20 17  1  0  0  0  0
 21  3  1  0  0  0  0
 23 22  2  0  0  0  0
 23 21  1  0  0  0  0
 24 22  1  0  0  0  0
 25 24  1  1  0  0  0
 25 27  1  0  0  0  0
 26 27  1  0  0  0  0
 28 25  1  0  0  0  0
 29 28  1  0  0  0  0
 30 21  1  0  0  0  0
 32 30  1  0  0  0  0
 32 31  1  1  0  0  0
 33 35  1  0  0  0  0
 34 35  2  0  0  0  0
 35 32  1  0  0  0  0
M  END
>  <MODEL>
9

>  <REMARK>
 VINA RESULT:      -6.2      2.191      9.158
  Name = 
  15 active torsions:
  status: ('A' for Active; 'I' for Inactive)
    1  A    between atoms: N_1  and  C_34
    2  A    between atoms: N_2  and  C_3
    3  A    between atoms: C_3  and  C_17
    4  A    between atoms: N_6  and  C_19
    5  A    between atoms: C_8  and  C_24
    6  A    between atoms: C_8  and  N_25
    7  A    between atoms: C_13  and  O_31
    8  A    between atoms: O_16  and  C_19
    9  A    between atoms: C_19  and  C_21
   10  A    between atoms: C_20  and  C_35
   11  A    between atoms: C_21  and  C_22
   12  A    between atoms: C_24  and  C_30
   13  A    between atoms: N_25  and  N_26
   14  A    between atoms: N_25  and  C_27
   15  A    between atoms: C_32  and  C_34
                            x       y       z     vdW  Elec       q    Type
                         _______ _______ _______ _____ _____    ______ ____

>  <TORSDO>
F 15

$$$$
