=
 OpenBabel11042413323D

 41 44  0  0  1  0  0  0  0  0999 V2000
  191.2990  176.6340  138.6140 N   0  0  0  0  0  0  0  0  0  0  0  0
  190.4550  177.7830  139.0460 C   0  0  2  0  0  3  0  0  0  0  0  0
  190.6230  176.7480  139.9390 C   0  0  2  0  0  3  0  0  0  0  0  0
  192.1350  175.9960  137.6500 C   0  0  0  0  0  0  0  0  0  0  0  0
  189.8900  172.4330  135.2990 N   0  0  0  0  0  2  0  0  0  0  0  0
  192.1230  173.2590  135.4260 N   0  0  0  0  0  0  0  0  0  0  0  0
  194.3420  175.8960  136.6540 C   0  0  0  0  0  3  0  0  0  0  0  0
  193.9650  174.7420  135.8830 N   0  0  0  0  0  2  0  0  0  0  0  0
  190.4520  174.2180  136.8650 C   0  0  0  0  0  0  0  0  0  0  0  0
  193.4890  176.4670  137.4680 N   0  0  0  0  0  0  0  0  0  0  0  0
  191.7220  174.9360  136.9440 C   0  0  0  0  0  0  0  0  0  0  0  0
  190.7750  173.1640  135.8930 C   0  0  0  0  0  0  0  0  0  0  0  0
  192.6330  174.2680  136.0500 C   0  0  0  0  0  0  0  0  0  0  0  0
  188.9770  174.9210  136.9710 S   0  0  0  0  0  0  0  0  0  0  0  0
  185.2890  179.1860  140.0340 N   0  0  0  0  0  2  0  0  0  0  0  0
  184.4120  178.2600  138.0880 O   0  0  0  0  0  0  0  0  0  0  0  0
  187.9580  178.1830  139.0270 C   0  0  0  0  0  0  0  0  0  0  0  0
  188.0170  178.7610  140.1850 N   0  0  0  0  0  2  0  0  0  0  0  0
  185.4280  178.4830  138.7970 C   0  0  0  0  0  0  0  0  0  0  0  0
  189.1480  177.6810  138.4150 N   0  0  0  0  0  2  0  0  0  0  0  0
  186.7090  178.0270  138.3440 N   0  0  0  0  0  2  0  0  0  0  0  0
  184.0840  179.6350  140.4620 O   0  0  0  0  0  0  0  0  0  0  0  0
  183.5760  178.6060  141.2610 C   0  0  0  0  0  2  0  0  0  0  0  0
  184.5340  178.3070  142.4000 C   0  0  0  0  0  2  0  0  0  0  0  0
  184.4470  179.3920  143.4600 C   0  0  0  0  0  2  0  0  0  0  0  0
  183.6990  178.8830  144.6800 C   0  0  0  0  0  2  0  0  0  0  0  0
  184.6600  178.6560  145.8330 C   0  0  0  0  0  1  0  0  0  0  0  0
  191.6510  177.1270  140.9890 C   0  0  0  0  0  2  0  0  0  0  0  0
  190.9750  177.7680  142.1870 C   0  0  0  0  0  2  0  0  0  0  0  0
  189.7930  176.9260  142.6340 C   0  0  0  0  0  2  0  0  0  0  0  0
  188.5150  176.8000  144.7380 C   0  0  1  0  0  3  0  0  0  0  0  0
  187.5440  177.1380  143.6260 C   0  0  0  0  0  2  0  0  0  0  0  0
  188.9440  177.7140  143.6080 C   0  0  2  0  0  3  0  0  0  0  0  0
  188.2030  177.6270  145.9390 C   0  0  0  0  0  3  0  0  0  0  0  0
  188.7850  177.4070  147.1140 C   0  0  0  0  0  3  0  0  0  0  0  0
  189.7150  176.3850  147.2760 O   0  0  0  0  0  0  0  0  0  0  0  0
  191.6500  177.5340  145.9160 O   0  0  0  0  0  0  0  0  0  0  0  0
  191.3930  176.7100  147.1550 P   0  0  1  0  0  0  0  0  0  0  0  0
  191.9030  177.5740  148.5170 O   0  0  0  0  0  1  0  0  0  0  0  0
  192.3240  175.1560  147.0390 C   0  0  0  0  0  2  0  0  0  0  0  0
  192.4030  174.7520  145.7080 O   0  0  0  0  0  1  0  0  0  0  0  0
  1  2  1  0  0  0  0
  1  3  1  0  0  0  0
  2 20  1  6  0  0  0
  2  3  1  0  0  0  0
  3 28  1  1  0  0  0
  4  1  1  0  0  0  0
  5 12  2  0  0  0  0
  6 12  1  0  0  0  0
  6 13  2  0  0  0  0
  7 10  2  0  0  0  0
  8 13  1  0  0  0  0
  8  7  1  0  0  0  0
  9 11  1  0  0  0  0
  9 14  2  0  0  0  0
 10  4  1  0  0  0  0
 11  4  2  0  0  0  0
 12  9  1  0  0  0  0
 13 11  1  0  0  0  0
 15 22  1  0  0  0  0
 16 19  2  0  0  0  0
 17 18  2  0  0  0  0
 19 15  1  0  0  0  0
 20 17  1  0  0  0  0
 21 19  1  0  0  0  0
 21 17  1  0  0  0  0
 22 23  1  0  0  0  0
 23 24  1  0  0  0  0
 24 25  1  0  0  0  0
 25 26  1  0  0  0  0
 26 27  1  0  0  0  0
 28 29  1  0  0  0  0
 29 30  1  0  0  0  0
 31 34  1  1  0  0  0
 32 31  1  0  0  0  0
 33 30  1  6  0  0  0
 33 32  1  0  0  0  0
 33 31  1  0  0  0  0
 34 35  2  0  0  0  0
 35 36  1  0  0  0  0
 38 37  2  6  0  0  0
 38 36  1  0  0  0  0
 38 39  1  0  0  0  0
 40 38  1  0  0  0  0
 41 40  1  0  0  0  0
M  END
>  <MODEL>
1

>  <REMARK>
 VINA RESULT:      -7.7      0.000      0.000
  Name = 
  15 active torsions:
  status: ('A' for Active; 'I' for Inactive)
    1  A    between atoms: C_1  and  P_20
    2  A    between atoms: C_2  and  N_8
    3  A    between atoms: N_4  and  O_27
    4  A    between atoms: C_6  and  C_13
    5  A    between atoms: C_7  and  C_40
    6  A    between atoms: C_7  and  C_41
    7  A    between atoms: C_14  and  C_22
    8  A    between atoms: C_14  and  C_41
    9  A    between atoms: C_17  and  O_33
   10  A    between atoms: C_19  and  O_27
   11  A    between atoms: C_19  and  C_31
   12  A    between atoms: P_20  and  O_33
   13  A    between atoms: C_21  and  N_36
   14  A    between atoms: C_28  and  C_29
   15  A    between atoms: C_29  and  C_31
                            x       y       z     vdW  Elec       q    Type
                         _______ _______ _______ _____ _____    ______ ____

>  <TORSDO>
F 15

$$$$
=
 OpenBabel11042413323D

 41 44  0  0  1  0  0  0  0  0999 V2000
  189.1960  177.1240  143.7440 N   0  0  0  0  0  0  0  0  0  0  0  0
  188.9410  177.8550  142.4700 C   0  0  2  0  0  3  0  0  0  0  0  0
  188.0470  176.8680  142.8260 C   0  0  2  0  0  3  0  0  0  0  0  0
  189.9640  176.9170  144.9270 C   0  0  0  0  0  0  0  0  0  0  0  0
  187.6820  178.3810  148.9160 N   0  0  0  0  0  2  0  0  0  0  0  0
  189.8720  177.6030  148.3850 N   0  0  0  0  0  0  0  0  0  0  0  0
  192.0660  176.1380  145.8500 C   0  0  0  0  0  3  0  0  0  0  0  0
  191.6730  176.5710  147.1640 N   0  0  0  0  0  2  0  0  0  0  0  0
  188.3040  177.9510  146.5950 C   0  0  0  0  0  0  0  0  0  0  0  0
  191.2690  176.3040  144.8240 N   0  0  0  0  0  0  0  0  0  0  0  0
  189.5380  177.3230  146.1300 C   0  0  0  0  0  0  0  0  0  0  0  0
  188.5830  178.1090  148.0300 C   0  0  0  0  0  0  0  0  0  0  0  0
  190.3900  177.1750  147.2830 C   0  0  0  0  0  0  0  0  0  0  0  0
  186.8130  177.6290  146.0000 S   0  0  0  0  0  0  0  0  0  0  0  0
  189.3590  177.7890  137.0430 N   0  0  0  0  0  2  0  0  0  0  0  0
  191.3300  176.5550  136.9690 O   0  0  0  0  0  0  0  0  0  0  0  0
  189.5880  177.5310  140.0480 C   0  0  0  0  0  0  0  0  0  0  0  0
  188.5260  178.1610  139.6530 N   0  0  0  0  0  2  0  0  0  0  0  0
  190.4360  177.0910  137.6740 C   0  0  0  0  0  0  0  0  0  0  0  0
  189.8410  177.3550  141.4430 N   0  0  0  0  0  2  0  0  0  0  0  0
  190.5200  176.9940  139.1010 N   0  0  0  0  0  2  0  0  0  0  0  0
  189.2800  177.9000  135.6950 O   0  0  0  0  0  0  0  0  0  0  0  0
  187.9460  177.6180  135.3840 C   0  0  0  0  0  2  0  0  0  0  0  0
  187.0220  178.3320  136.3550 C   0  0  0  0  0  2  0  0  0  0  0  0
  185.8060  177.4710  136.6540 C   0  0  0  0  0  2  0  0  0  0  0  0
  185.9840  176.0820  136.0680 C   0  0  0  0  0  2  0  0  0  0  0  0
  184.6330  175.4390  135.8100 C   0  0  0  0  0  1  0  0  0  0  0  0
  186.7940  177.4870  143.4160 C   0  0  0  0  0  2  0  0  0  0  0  0
  186.1220  178.3940  142.4020 C   0  0  0  0  0  2  0  0  0  0  0  0
  185.1150  179.2960  143.0930 C   0  0  0  0  0  2  0  0  0  0  0  0
  182.7060  179.4550  143.5940 C   0  0  1  0  0  3  0  0  0  0  0  0
  183.3990  178.9060  144.8230 C   0  0  0  0  0  2  0  0  0  0  0  0
  183.8740  178.5030  143.4430 C   0  0  2  0  0  3  0  0  0  0  0  0
  181.4370  178.7080  143.3630 C   0  0  0  0  0  3  0  0  0  0  0  0
  180.8270  178.7080  142.1810 C   0  0  0  0  0  3  0  0  0  0  0  0
  181.3490  179.4140  141.1020 O   0  0  0  0  0  0  0  0  0  0  0  0
  182.9340  177.4430  140.3820 O   0  0  0  0  0  1  0  0  0  0  0  0
  182.1260  178.5890  139.8170 P   0  0  1  0  0  0  0  0  0  0  0  0
  180.9650  177.9810  138.7490 O   0  0  0  0  0  0  0  0  0  0  0  0
  183.2360  179.7180  138.9300 C   0  0  0  0  0  2  0  0  0  0  0  0
  184.4390  179.8380  139.6230 O   0  0  0  0  0  1  0  0  0  0  0  0
  1  4  1  0  0  0  0
  2 20  1  6  0  0  0
  2  3  1  0  0  0  0
  2  1  1  0  0  0  0
  3 28  1  1  0  0  0
  3  1  1  0  0  0  0
  4 11  2  0  0  0  0
  7  8  1  0  0  0  0
  8 13  1  0  0  0  0
  9 12  1  0  0  0  0
 10  4  1  0  0  0  0
 10  7  2  0  0  0  0
 11  9  1  0  0  0  0
 11 13  1  0  0  0  0
 12  6  1  0  0  0  0
 12  5  2  0  0  0  0
 13  6  2  0  0  0  0
 14  9  2  0  0  0  0
 15 19  1  0  0  0  0
 16 19  2  0  0  0  0
 17 20  1  0  0  0  0
 18 17  2  0  0  0  0
 19 21  1  0  0  0  0
 21 17  1  0  0  0  0
 22 15  1  0  0  0  0
 23 22  1  0  0  0  0
 23 24  1  0  0  0  0
 24 25  1  0  0  0  0
 26 25  1  0  0  0  0
 27 26  1  0  0  0  0
 29 30  1  0  0  0  0
 29 28  1  0  0  0  0
 31 34  1  1  0  0  0
 31 32  1  0  0  0  0
 33 30  1  6  0  0  0
 33 31  1  0  0  0  0
 33 32  1  0  0  0  0
 35 34  2  0  0  0  0
 36 35  1  0  0  0  0
 38 39  2  6  0  0  0
 38 37  1  0  0  0  0
 38 36  1  0  0  0  0
 40 41  1  0  0  0  0
 40 38  1  0  0  0  0
M  END
>  <MODEL>
2

>  <REMARK>
 VINA RESULT:      -7.2      4.605      8.793
  Name = 
  15 active torsions:
  status: ('A' for Active; 'I' for Inactive)
    1  A    between atoms: C_1  and  P_20
    2  A    between atoms: C_2  and  N_8
    3  A    between atoms: N_4  and  O_27
    4  A    between atoms: C_6  and  C_13
    5  A    between atoms: C_7  and  C_40
    6  A    between atoms: C_7  and  C_41
    7  A    between atoms: C_14  and  C_22
    8  A    between atoms: C_14  and  C_41
    9  A    between atoms: C_17  and  O_33
   10  A    between atoms: C_19  and  O_27
   11  A    between atoms: C_19  and  C_31
   12  A    between atoms: P_20  and  O_33
   13  A    between atoms: C_21  and  N_36
   14  A    between atoms: C_28  and  C_29
   15  A    between atoms: C_29  and  C_31
                            x       y       z     vdW  Elec       q    Type
                         _______ _______ _______ _____ _____    ______ ____

>  <TORSDO>
F 15

$$$$
=
 OpenBabel11042413323D

 41 44  0  0  1  0  0  0  0  0999 V2000
  190.0320  176.5230  139.0190 N   0  0  0  0  0  0  0  0  0  0  0  0
  189.4340  176.9510  140.3160 C   0  0  2  0  0  3  0  0  0  0  0  0
  189.8280  177.9400  139.4410 C   0  0  2  0  0  3  0  0  0  0  0  0
  190.4270  175.4990  138.1090 C   0  0  0  0  0  0  0  0  0  0  0  0
  195.0870  175.7780  136.8960 N   0  0  0  0  0  2  0  0  0  0  0  0
  193.2070  174.4960  136.1840 N   0  0  0  0  0  0  0  0  0  0  0  0
  189.7160  173.5890  136.7970 C   0  0  0  0  0  3  0  0  0  0  0  0
  191.0180  173.4920  136.1940 N   0  0  0  0  0  2  0  0  0  0  0  0
  192.8700  176.2410  137.8050 C   0  0  0  0  0  0  0  0  0  0  0  0
  189.4540  174.5210  137.6800 N   0  0  0  0  0  0  0  0  0  0  0  0
  191.6620  175.4460  137.5950 C   0  0  0  0  0  0  0  0  0  0  0  0
  193.8080  175.5930  136.8770 C   0  0  0  0  0  0  0  0  0  0  0  0
  191.9890  174.4480  136.6080 C   0  0  0  0  0  0  0  0  0  0  0  0
  193.3250  176.8810  139.2410 S   0  0  0  0  0  0  0  0  0  0  0  0
  189.7850  177.4450  145.7250 N   0  0  0  0  0  2  0  0  0  0  0  0
  192.0490  176.9260  145.8680 O   0  0  0  0  0  0  0  0  0  0  0  0
  190.1230  177.0520  142.7460 C   0  0  0  0  0  0  0  0  0  0  0  0
  188.9300  177.4150  143.0960 N   0  0  0  0  0  2  0  0  0  0  0  0
  191.0370  177.0860  145.1350 C   0  0  0  0  0  0  0  0  0  0  0  0
  190.4240  176.8060  141.3710 N   0  0  0  0  0  2  0  0  0  0  0  0
  191.1620  176.9000  143.7210 N   0  0  0  0  0  2  0  0  0  0  0  0
  189.6520  177.6070  147.0650 O   0  0  0  0  0  0  0  0  0  0  0  0
  188.3290  177.2540  147.3440 C   0  0  0  0  0  2  0  0  0  0  0  0
  187.4010  177.8290  146.2870 C   0  0  0  0  0  2  0  0  0  0  0  0
  186.1500  178.3960  146.9360 C   0  0  0  0  0  2  0  0  0  0  0  0
  185.2580  179.0430  145.8910 C   0  0  0  0  0  2  0  0  0  0  0  0
  185.3180  178.2650  144.5900 C   0  0  0  0  0  1  0  0  0  0  0  0
  188.6220  178.5050  138.7140 C   0  0  0  0  0  2  0  0  0  0  0  0
  189.0370  179.1030  137.3820 C   0  0  0  0  0  2  0  0  0  0  0  0
  189.0540  178.0290  136.3090 C   0  0  0  0  0  2  0  0  0  0  0  0
  186.8820  176.8830  136.5250 C   0  0  1  0  0  3  0  0  0  0  0  0
  187.4940  176.4700  135.2020 C   0  0  0  0  0  2  0  0  0  0  0  0
  187.6720  177.8860  135.7090 C   0  0  2  0  0  3  0  0  0  0  0  0
  185.4260  177.1440  136.3380 C   0  0  0  0  0  3  0  0  0  0  0  0
  184.6820  177.6860  137.2970 C   0  0  0  0  0  3  0  0  0  0  0  0
  185.2320  178.0330  138.5270 O   0  0  0  0  0  0  0  0  0  0  0  0
  184.1760  180.3950  138.9930 O   0  0  0  0  0  0  0  0  0  0  0  0
  184.3660  179.0330  139.6170 P   0  0  1  0  0  0  0  0  0  0  0  0
  182.8540  178.3470  139.9360 O   0  0  0  0  0  1  0  0  0  0  0  0
  185.2910  179.2130  141.1690 C   0  0  0  0  0  2  0  0  0  0  0  0
  186.3940  178.3620  141.1610 O   0  0  0  0  0  1  0  0  0  0  0  0
  1  3  1  0  0  0  0
  1  2  1  0  0  0  0
  2 20  1  1  0  0  0
  3 28  1  6  0  0  0
  3  2  1  0  0  0  0
  4  1  1  0  0  0  0
  6 13  2  0  0  0  0
  6 12  1  0  0  0  0
  7 10  2  0  0  0  0
  8 13  1  0  0  0  0
  8  7  1  0  0  0  0
  9 14  2  0  0  0  0
 10  4  1  0  0  0  0
 11  9  1  0  0  0  0
 11  4  2  0  0  0  0
 12  5  2  0  0  0  0
 12  9  1  0  0  0  0
 13 11  1  0  0  0  0
 15 22  1  0  0  0  0
 17 18  2  0  0  0  0
 17 21  1  0  0  0  0
 19 15  1  0  0  0  0
 19 16  2  0  0  0  0
 20 17  1  0  0  0  0
 21 19  1  0  0  0  0
 22 23  1  0  0  0  0
 24 25  1  0  0  0  0
 24 23  1  0  0  0  0
 26 25  1  0  0  0  0
 27 26  1  0  0  0  0
 29 28  1  0  0  0  0
 30 29  1  0  0  0  0
 31 34  1  6  0  0  0
 32 33  1  0  0  0  0
 32 31  1  0  0  0  0
 33 30  1  1  0  0  0
 33 31  1  0  0  0  0
 34 35  2  0  0  0  0
 35 36  1  0  0  0  0
 36 38  1  0  0  0  0
 38 37  2  6  0  0  0
 38 39  1  0  0  0  0
 38 40  1  0  0  0  0
 41 40  1  0  0  0  0
M  END
>  <MODEL>
3

>  <REMARK>
 VINA RESULT:      -7.2      2.883      6.719
  Name = 
  15 active torsions:
  status: ('A' for Active; 'I' for Inactive)
    1  A    between atoms: C_1  and  P_20
    2  A    between atoms: C_2  and  N_8
    3  A    between atoms: N_4  and  O_27
    4  A    between atoms: C_6  and  C_13
    5  A    between atoms: C_7  and  C_40
    6  A    between atoms: C_7  and  C_41
    7  A    between atoms: C_14  and  C_22
    8  A    between atoms: C_14  and  C_41
    9  A    between atoms: C_17  and  O_33
   10  A    between atoms: C_19  and  O_27
   11  A    between atoms: C_19  and  C_31
   12  A    between atoms: P_20  and  O_33
   13  A    between atoms: C_21  and  N_36
   14  A    between atoms: C_28  and  C_29
   15  A    between atoms: C_29  and  C_31
                            x       y       z     vdW  Elec       q    Type
                         _______ _______ _______ _____ _____    ______ ____

>  <TORSDO>
F 15

$$$$
=
 OpenBabel11042413323D

 41 44  0  0  1  0  0  0  0  0999 V2000
  190.0190  177.0670  140.1130 N   0  0  0  0  0  0  0  0  0  0  0  0
  189.3060  176.6770  141.3630 C   0  0  2  0  0  3  0  0  0  0  0  0
  189.2430  178.0000  140.9820 C   0  0  2  0  0  3  0  0  0  0  0  0
  190.8000  176.7290  138.9690 C   0  0  0  0  0  0  0  0  0  0  0  0
  188.1420  174.9910  135.3390 N   0  0  0  0  0  2  0  0  0  0  0  0
  190.4700  175.2190  135.7990 N   0  0  0  0  0  0  0  0  0  0  0  0
  193.0270  176.6040  138.0200 C   0  0  0  0  0  3  0  0  0  0  0  0
  192.5090  175.9740  136.8350 N   0  0  0  0  0  2  0  0  0  0  0  0
  188.8890  175.8160  137.5110 C   0  0  0  0  0  0  0  0  0  0  0  0
  192.2290  176.9470  139.0000 N   0  0  0  0  0  0  0  0  0  0  0  0
  190.2590  176.1630  137.8830 C   0  0  0  0  0  0  0  0  0  0  0  0
  189.0930  175.2160  136.1850 C   0  0  0  0  0  0  0  0  0  0  0  0
  191.1030  175.7540  136.7890 C   0  0  0  0  0  0  0  0  0  0  0  0
  187.5660  176.6950  137.9060 S   0  0  0  0  0  0  0  0  0  0  0  0
  189.6260  177.3980  146.7490 N   0  0  0  0  0  2  0  0  0  0  0  0
  191.8520  176.7500  146.9460 O   0  0  0  0  0  0  0  0  0  0  0  0
  189.9730  176.8480  143.7950 C   0  0  0  0  0  0  0  0  0  0  0  0
  188.8000  177.2990  144.1120 N   0  0  0  0  0  2  0  0  0  0  0  0
  190.8600  176.9370  146.1930 C   0  0  0  0  0  0  0  0  0  0  0  0
  190.2730  176.5210  142.4380 N   0  0  0  0  0  2  0  0  0  0  0  0
  190.9900  176.6780  144.7900 N   0  0  0  0  0  2  0  0  0  0  0  0
  189.4890  177.6290  148.0770 O   0  0  0  0  0  0  0  0  0  0  0  0
  188.2930  178.3420  148.2000 C   0  0  0  0  0  2  0  0  0  0  0  0
  187.2620  177.8050  147.2240 C   0  0  0  0  0  2  0  0  0  0  0  0
  186.1350  178.8080  147.0420 C   0  0  0  0  0  2  0  0  0  0  0  0
  185.1290  178.2960  146.0260 C   0  0  0  0  0  2  0  0  0  0  0  0
  185.0670  179.2240  144.8270 C   0  0  0  0  0  1  0  0  0  0  0  0
  187.9060  178.2910  140.3260 C   0  0  0  0  0  2  0  0  0  0  0  0
  186.9320  178.8660  141.3390 C   0  0  0  0  0  2  0  0  0  0  0  0
  185.5300  178.3490  141.0690 C   0  0  0  0  0  2  0  0  0  0  0  0
  183.4640  178.6800  139.7650 C   0  0  1  0  0  3  0  0  0  0  0  0
  184.5870  178.3940  138.7890 C   0  0  0  0  0  2  0  0  0  0  0  0
  184.8560  179.2180  140.0300 C   0  0  2  0  0  3  0  0  0  0  0  0
  182.6110  179.7810  139.2320 C   0  0  0  0  0  3  0  0  0  0  0  0
  181.3180  179.8720  139.5270 C   0  0  0  0  0  3  0  0  0  0  0  0
  180.6990  178.9360  140.3490 O   0  0  0  0  0  0  0  0  0  0  0  0
  179.8670  180.7450  142.0670 O   0  0  0  0  0  0  0  0  0  0  0  0
  180.3430  179.3130  141.9820 P   0  0  1  0  0  0  0  0  0  0  0  0
  179.1260  178.2850  142.5490 O   0  0  0  0  0  1  0  0  0  0  0  0
  181.8290  179.1190  143.0060 C   0  0  0  0  0  2  0  0  0  0  0  0
  181.4800  178.5860  144.2460 O   0  0  0  0  0  1  0  0  0  0  0  0
  1  3  1  0  0  0  0
  1  2  1  0  0  0  0
  2 20  1  1  0  0  0
  3 28  1  6  0  0  0
  3  2  1  0  0  0  0
  4 10  1  0  0  0  0
  4  1  1  0  0  0  0
  5 12  2  0  0  0  0
  6 12  1  0  0  0  0
  6 13  2  0  0  0  0
  7 10  2  0  0  0  0
  8  7  1  0  0  0  0
  9 11  1  0  0  0  0
  9 14  2  0  0  0  0
 11  4  2  0  0  0  0
 12  9  1  0  0  0  0
 13  8  1  0  0  0  0
 13 11  1  0  0  0  0
 15 22  1  0  0  0  0
 17 18  2  0  0  0  0
 17 21  1  0  0  0  0
 19 15  1  0  0  0  0
 19 16  2  0  0  0  0
 20 17  1  0  0  0  0
 21 19  1  0  0  0  0
 22 23  1  0  0  0  0
 24 23  1  0  0  0  0
 25 24  1  0  0  0  0
 26 25  1  0  0  0  0
 27 26  1  0  0  0  0
 28 29  1  0  0  0  0
 30 29  1  0  0  0  0
 31 34  1  6  0  0  0
 31 33  1  0  0  0  0
 32 31  1  0  0  0  0
 32 33  1  0  0  0  0
 33 30  1  1  0  0  0
 34 35  2  0  0  0  0
 35 36  1  0  0  0  0
 36 38  1  0  0  0  0
 38 37  2  1  0  0  0
 38 39  1  0  0  0  0
 38 40  1  0  0  0  0
 40 41  1  0  0  0  0
M  END
>  <MODEL>
4

>  <REMARK>
 VINA RESULT:      -7.1      3.380      7.017
  Name = 
  15 active torsions:
  status: ('A' for Active; 'I' for Inactive)
    1  A    between atoms: C_1  and  P_20
    2  A    between atoms: C_2  and  N_8
    3  A    between atoms: N_4  and  O_27
    4  A    between atoms: C_6  and  C_13
    5  A    between atoms: C_7  and  C_40
    6  A    between atoms: C_7  and  C_41
    7  A    between atoms: C_14  and  C_22
    8  A    between atoms: C_14  and  C_41
    9  A    between atoms: C_17  and  O_33
   10  A    between atoms: C_19  and  O_27
   11  A    between atoms: C_19  and  C_31
   12  A    between atoms: P_20  and  O_33
   13  A    between atoms: C_21  and  N_36
   14  A    between atoms: C_28  and  C_29
   15  A    between atoms: C_29  and  C_31
                            x       y       z     vdW  Elec       q    Type
                         _______ _______ _______ _____ _____    ______ ____

>  <TORSDO>
F 15

$$$$
=
 OpenBabel11042413323D

 41 44  0  0  1  0  0  0  0  0999 V2000
  191.5910  176.3700  137.7430 N   0  0  0  0  0  0  0  0  0  0  0  0
  190.6720  177.4630  138.1690 C   0  0  2  0  0  3  0  0  0  0  0  0
  190.9870  176.5000  139.1020 C   0  0  2  0  0  3  0  0  0  0  0  0
  192.4230  175.7560  136.7610 C   0  0  0  0  0  0  0  0  0  0  0  0
  190.5080  171.7110  134.9600 N   0  0  0  0  0  2  0  0  0  0  0  0
  192.6050  172.8330  134.7950 N   0  0  0  0  0  0  0  0  0  0  0  0
  194.5280  175.8490  135.5650 C   0  0  0  0  0  3  0  0  0  0  0  0
  194.2520  174.5840  134.9380 N   0  0  0  0  0  2  0  0  0  0  0  0
  190.9450  173.7020  136.3030 C   0  0  0  0  0  0  0  0  0  0  0  0
  193.6770  176.3800  136.4060 N   0  0  0  0  0  0  0  0  0  0  0  0
  192.1040  174.5850  136.1940 C   0  0  0  0  0  0  0  0  0  0  0  0
  191.3280  172.6080  135.3990 C   0  0  0  0  0  0  0  0  0  0  0  0
  193.0200  173.9570  135.2760 C   0  0  0  0  0  0  0  0  0  0  0  0
  189.4000  174.2110  136.4920 S   0  0  0  0  0  0  0  0  0  0  0  0
  185.5340  179.0770  138.9610 N   0  0  0  0  0  2  0  0  0  0  0  0
  184.5960  177.6990  137.3380 O   0  0  0  0  0  0  0  0  0  0  0  0
  188.1740  177.8510  138.1410 C   0  0  0  0  0  0  0  0  0  0  0  0
  188.2680  178.6980  139.1160 N   0  0  0  0  0  2  0  0  0  0  0  0
  185.6350  178.0890  137.9330 C   0  0  0  0  0  0  0  0  0  0  0  0
  189.3440  177.2100  137.6310 N   0  0  0  0  0  2  0  0  0  0  0  0
  186.9020  177.5330  137.5620 N   0  0  0  0  0  2  0  0  0  0  0  0
  184.3410  179.6210  139.3070 O   0  0  0  0  0  0  0  0  0  0  0  0
  183.8730  178.8290  140.3600 C   0  0  0  0  0  2  0  0  0  0  0  0
  185.0080  178.5030  141.3140 C   0  0  0  0  0  2  0  0  0  0  0  0
  184.8700  179.3120  142.5930 C   0  0  0  0  0  2  0  0  0  0  0  0
  184.5320  178.4040  143.7610 C   0  0  0  0  0  2  0  0  0  0  0  0
  183.2300  178.8360  144.4100 C   0  0  0  0  0  1  0  0  0  0  0  0
  192.0370  177.0260  140.0620 C   0  0  0  0  0  2  0  0  0  0  0  0
  191.3790  177.7400  141.2280 C   0  0  0  0  0  2  0  0  0  0  0  0
  191.1700  176.7750  142.3820 C   0  0  0  0  0  2  0  0  0  0  0  0
  190.8150  176.8270  144.8210 C   0  0  1  0  0  3  0  0  0  0  0  0
  190.4430  178.1880  144.2700 C   0  0  0  0  0  2  0  0  0  0  0  0
  191.6080  177.4250  143.6770 C   0  0  2  0  0  3  0  0  0  0  0  0
  191.5860  176.9970  146.0870 C   0  0  0  0  0  3  0  0  0  0  0  0
  191.0360  176.7790  147.2780 C   0  0  0  0  0  3  0  0  0  0  0  0
  189.7080  176.3830  147.3960 O   0  0  0  0  0  0  0  0  0  0  0  0
  187.6190  176.8860  148.9130 O   0  0  0  0  0  1  0  0  0  0  0  0
  188.5030  177.5100  147.8590 P   0  0  1  0  0  0  0  0  0  0  0  0
  189.2360  178.8960  148.4930 O   0  0  0  0  0  0  0  0  0  0  0  0
  187.4880  177.9640  146.4230 C   0  0  0  0  0  2  0  0  0  0  0  0
  186.2460  177.3370  146.5080 O   0  0  0  0  0  1  0  0  0  0  0  0
  1  2  1  0  0  0  0
  1  3  1  0  0  0  0
  2 20  1  6  0  0  0
  2  3  1  0  0  0  0
  3 28  1  1  0  0  0
  4  1  1  0  0  0  0
  5 12  2  0  0  0  0
  6 13  2  0  0  0  0
  6 12  1  0  0  0  0
  7 10  2  0  0  0  0
  8 13  1  0  0  0  0
  8  7  1  0  0  0  0
  9 14  2  0  0  0  0
 10  4  1  0  0  0  0
 11  9  1  0  0  0  0
 11  4  2  0  0  0  0
 12  9  1  0  0  0  0
 13 11  1  0  0  0  0
 15 22  1  0  0  0  0
 16 19  2  0  0  0  0
 17 18  2  0  0  0  0
 19 15  1  0  0  0  0
 20 17  1  0  0  0  0
 21 19  1  0  0  0  0
 21 17  1  0  0  0  0
 22 23  1  0  0  0  0
 23 24  1  0  0  0  0
 24 25  1  0  0  0  0
 25 26  1  0  0  0  0
 26 27  1  0  0  0  0
 28 29  1  0  0  0  0
 29 30  1  0  0  0  0
 31 34  1  1  0  0  0
 32 31  1  0  0  0  0
 33 30  1  6  0  0  0
 33 32  1  0  0  0  0
 33 31  1  0  0  0  0
 34 35  2  0  0  0  0
 35 36  1  0  0  0  0
 36 38  1  0  0  0  0
 38 39  2  1  0  0  0
 38 37  1  0  0  0  0
 40 41  1  0  0  0  0
 40 38  1  0  0  0  0
M  END
>  <MODEL>
5

>  <REMARK>
 VINA RESULT:      -6.7      1.507      2.184
  Name = 
  15 active torsions:
  status: ('A' for Active; 'I' for Inactive)
    1  A    between atoms: C_1  and  P_20
    2  A    between atoms: C_2  and  N_8
    3  A    between atoms: N_4  and  O_27
    4  A    between atoms: C_6  and  C_13
    5  A    between atoms: C_7  and  C_40
    6  A    between atoms: C_7  and  C_41
    7  A    between atoms: C_14  and  C_22
    8  A    between atoms: C_14  and  C_41
    9  A    between atoms: C_17  and  O_33
   10  A    between atoms: C_19  and  O_27
   11  A    between atoms: C_19  and  C_31
   12  A    between atoms: P_20  and  O_33
   13  A    between atoms: C_21  and  N_36
   14  A    between atoms: C_28  and  C_29
   15  A    between atoms: C_29  and  C_31
                            x       y       z     vdW  Elec       q    Type
                         _______ _______ _______ _____ _____    ______ ____

>  <TORSDO>
F 15

$$$$
=
 OpenBabel11042413323D

 41 44  0  0  1  0  0  0  0  0999 V2000
  188.6120  177.6330  143.3160 N   0  0  0  0  0  0  0  0  0  0  0  0
  187.3570  177.4810  142.5270 C   0  0  2  0  0  3  0  0  0  0  0  0
  188.0860  178.6350  142.3430 C   0  0  2  0  0  3  0  0  0  0  0  0
  189.5620  177.1280  144.2520 C   0  0  0  0  0  0  0  0  0  0  0  0
  188.3030  177.9700  148.8310 N   0  0  0  0  0  2  0  0  0  0  0  0
  190.2310  177.1220  147.7150 N   0  0  0  0  0  0  0  0  0  0  0  0
  191.6860  175.9990  144.5510 C   0  0  0  0  0  3  0  0  0  0  0  0
  191.6140  176.1960  145.9740 N   0  0  0  0  0  2  0  0  0  0  0  0
  188.4020  177.9550  146.3930 C   0  0  0  0  0  0  0  0  0  0  0  0
  190.7330  176.4350  143.7650 N   0  0  0  0  0  0  0  0  0  0  0  0
  189.4330  177.3240  145.5700 C   0  0  0  0  0  0  0  0  0  0  0  0
  188.9720  177.8000  147.7390 C   0  0  0  0  0  0  0  0  0  0  0  0
  190.4660  176.8760  146.4690 C   0  0  0  0  0  0  0  0  0  0  0  0
  186.7960  177.8900  146.0840 S   0  0  0  0  0  0  0  0  0  0  0  0
  182.1490  179.0040  142.0880 N   0  0  0  0  0  2  0  0  0  0  0  0
  181.7160  179.0420  144.3740 O   0  0  0  0  0  0  0  0  0  0  0  0
  184.9480  178.1690  142.8710 C   0  0  0  0  0  0  0  0  0  0  0  0
  184.7800  178.3110  141.5940 N   0  0  0  0  0  2  0  0  0  0  0  0
  182.5480  178.8350  143.4510 C   0  0  0  0  0  0  0  0  0  0  0  0
  186.2150  177.7530  143.3860 N   0  0  0  0  0  2  0  0  0  0  0  0
  183.8800  178.4310  143.7880 N   0  0  0  0  0  2  0  0  0  0  0  0
  180.8860  179.3700  141.7580 O   0  0  0  0  0  0  0  0  0  0  0  0
  180.4290  178.3650  140.9010 C   0  0  0  0  0  2  0  0  0  0  0  0
  181.4930  178.0360  139.8680 C   0  0  0  0  0  2  0  0  0  0  0  0
  181.1650  176.7260  139.1720 C   0  0  0  0  0  2  0  0  0  0  0  0
  182.2310  175.6860  139.4700 C   0  0  0  0  0  2  0  0  0  0  0  0
  183.1710  175.5380  138.2890 C   0  0  0  0  0  1  0  0  0  0  0  0
  188.8890  178.5450  141.0580 C   0  0  0  0  0  2  0  0  0  0  0  0
  187.9780  178.2430  139.8830 C   0  0  0  0  0  2  0  0  0  0  0  0
  188.6600  178.6230  138.5810 C   0  0  0  0  0  2  0  0  0  0  0  0
  189.0600  177.9450  136.2440 C   0  0  1  0  0  3  0  0  0  0  0  0
  187.6400  178.4630  136.3390 C   0  0  0  0  0  2  0  0  0  0  0  0
  188.2340  177.6700  137.4840 C   0  0  2  0  0  3  0  0  0  0  0  0
  189.0870  176.7180  135.3970 C   0  0  0  0  0  3  0  0  0  0  0  0
  190.1490  175.9200  135.3510 C   0  0  0  0  0  3  0  0  0  0  0  0
  191.2920  176.1980  136.0940 O   0  0  0  0  0  0  0  0  0  0  0  0
  191.2900  176.2070  138.7240 O   0  0  0  0  0  1  0  0  0  0  0  0
  191.6210  175.3340  137.5370 P   0  0  1  0  0  0  0  0  0  0  0  0
  190.6720  173.9350  137.5900 O   0  0  0  0  0  0  0  0  0  0  0  0
  193.3780  174.8790  137.6050 C   0  0  0  0  0  2  0  0  0  0  0  0
  194.1650  176.0030  137.3620 O   0  0  0  0  0  1  0  0  0  0  0  0
  1  4  1  0  0  0  0
  2  1  1  0  0  0  0
  2 20  1  1  0  0  0
  3 28  1  6  0  0  0
  3  2  1  0  0  0  0
  3  1  1  0  0  0  0
  4 11  2  0  0  0  0
  6 12  1  0  0  0  0
  7  8  1  0  0  0  0
  8 13  1  0  0  0  0
  9 12  1  0  0  0  0
 10  4  1  0  0  0  0
 10  7  2  0  0  0  0
 11  9  1  0  0  0  0
 11 13  1  0  0  0  0
 12  5  2  0  0  0  0
 13  6  2  0  0  0  0
 14  9  2  0  0  0  0
 15 19  1  0  0  0  0
 17 20  1  0  0  0  0
 17 21  1  0  0  0  0
 18 17  2  0  0  0  0
 19 21  1  0  0  0  0
 19 16  2  0  0  0  0
 22 15  1  0  0  0  0
 23 22  1  0  0  0  0
 24 23  1  0  0  0  0
 25 26  1  0  0  0  0
 25 24  1  0  0  0  0
 27 26  1  0  0  0  0
 29 28  1  0  0  0  0
 30 29  1  0  0  0  0
 31 34  1  6  0  0  0
 31 32  1  0  0  0  0
 31 33  1  0  0  0  0
 32 33  1  0  0  0  0
 33 30  1  1  0  0  0
 35 34  2  0  0  0  0
 35 36  1  0  0  0  0
 36 38  1  0  0  0  0
 38 39  2  1  0  0  0
 38 40  1  0  0  0  0
 38 37  1  0  0  0  0
 41 40  1  0  0  0  0
M  END
>  <MODEL>
6

>  <REMARK>
 VINA RESULT:      -6.7      4.884      8.160
  Name = 
  15 active torsions:
  status: ('A' for Active; 'I' for Inactive)
    1  A    between atoms: C_1  and  P_20
    2  A    between atoms: C_2  and  N_8
    3  A    between atoms: N_4  and  O_27
    4  A    between atoms: C_6  and  C_13
    5  A    between atoms: C_7  and  C_40
    6  A    between atoms: C_7  and  C_41
    7  A    between atoms: C_14  and  C_22
    8  A    between atoms: C_14  and  C_41
    9  A    between atoms: C_17  and  O_33
   10  A    between atoms: C_19  and  O_27
   11  A    between atoms: C_19  and  C_31
   12  A    between atoms: P_20  and  O_33
   13  A    between atoms: C_21  and  N_36
   14  A    between atoms: C_28  and  C_29
   15  A    between atoms: C_29  and  C_31
                            x       y       z     vdW  Elec       q    Type
                         _______ _______ _______ _____ _____    ______ ____

>  <TORSDO>
F 15

$$$$
=
 OpenBabel11042413323D

 41 44  0  0  1  0  0  0  0  0999 V2000
  190.7270  176.6920  138.8530 N   0  0  0  0  0  0  0  0  0  0  0  0
  189.8730  177.8390  139.2760 C   0  0  2  0  0  3  0  0  0  0  0  0
  189.9330  176.7490  140.1160 C   0  0  2  0  0  3  0  0  0  0  0  0
  191.6320  176.0880  137.9320 C   0  0  0  0  0  0  0  0  0  0  0  0
  189.5890  172.5680  135.3420 N   0  0  0  0  0  2  0  0  0  0  0  0
  191.7990  173.4110  135.6420 N   0  0  0  0  0  0  0  0  0  0  0  0
  193.9020  176.0340  137.0840 C   0  0  0  0  0  3  0  0  0  0  0  0
  193.5900  174.8980  136.2600 N   0  0  0  0  0  2  0  0  0  0  0  0
  190.0250  174.3160  136.9890 C   0  0  0  0  0  0  0  0  0  0  0  0
  192.9900  176.5750  137.8540 N   0  0  0  0  0  0  0  0  0  0  0  0
  191.2790  175.0430  137.1720 C   0  0  0  0  0  0  0  0  0  0  0  0
  190.4240  173.2910  136.0140 C   0  0  0  0  0  0  0  0  0  0  0  0
  192.2550  174.4070  136.3240 C   0  0  0  0  0  0  0  0  0  0  0  0
  188.5380  175.0030  137.0130 S   0  0  0  0  0  0  0  0  0  0  0  0
  184.6350  179.1600  139.9450 N   0  0  0  0  0  2  0  0  0  0  0  0
  183.9380  178.4520  137.8410 O   0  0  0  0  0  0  0  0  0  0  0  0
  187.3870  178.2530  139.0780 C   0  0  0  0  0  0  0  0  0  0  0  0
  187.3400  178.7050  140.2920 N   0  0  0  0  0  2  0  0  0  0  0  0
  184.8870  178.5910  138.6570 C   0  0  0  0  0  0  0  0  0  0  0  0
  188.6280  177.8120  138.5250 N   0  0  0  0  0  2  0  0  0  0  0  0
  186.2040  178.1790  138.2740 N   0  0  0  0  0  2  0  0  0  0  0  0
  183.3950  179.5690  140.3100 O   0  0  0  0  0  0  0  0  0  0  0  0
  182.9200  178.5680  141.1620 C   0  0  0  0  0  2  0  0  0  0  0  0
  181.6100  179.0020  141.7970 C   0  0  0  0  0  2  0  0  0  0  0  0
  180.4490  178.7090  140.8620 C   0  0  0  0  0  2  0  0  0  0  0  0
  179.6780  177.4910  141.3400 C   0  0  0  0  0  2  0  0  0  0  0  0
  179.8200  176.3520  140.3470 C   0  0  0  0  0  1  0  0  0  0  0  0
  190.8690  177.0350  141.2760 C   0  0  0  0  0  2  0  0  0  0  0  0
  190.1700  177.8780  142.3260 C   0  0  0  0  0  2  0  0  0  0  0  0
  188.9660  177.1350  142.8770 C   0  0  0  0  0  2  0  0  0  0  0  0
  187.9800  176.9520  145.1300 C   0  0  1  0  0  3  0  0  0  0  0  0
  186.9190  177.5090  144.2040 C   0  0  0  0  0  2  0  0  0  0  0  0
  188.3660  177.9170  144.0270 C   0  0  2  0  0  3  0  0  0  0  0  0
  187.9430  177.6870  146.4270 C   0  0  0  0  0  3  0  0  0  0  0  0
  188.6990  177.3270  147.4590 C   0  0  0  0  0  3  0  0  0  0  0  0
  189.5620  176.2380  147.3750 O   0  0  0  0  0  0  0  0  0  0  0  0
  191.6820  177.5320  148.2400 O   0  0  0  0  0  1  0  0  0  0  0  0
  191.2540  176.4780  147.2460 P   0  0  1  0  0  0  0  0  0  0  0  0
  192.0590  175.0300  147.5860 O   0  0  0  0  0  0  0  0  0  0  0  0
  191.6800  177.0310  145.5710 C   0  0  0  0  0  2  0  0  0  0  0  0
  191.7430  175.9340  144.7140 O   0  0  0  0  0  1  0  0  0  0  0  0
  1  2  1  0  0  0  0
  1  3  1  0  0  0  0
  2 20  1  6  0  0  0
  2  3  1  0  0  0  0
  3 28  1  1  0  0  0
  4  1  1  0  0  0  0
  5 12  2  0  0  0  0
  6 12  1  0  0  0  0
  6 13  2  0  0  0  0
  7 10  2  0  0  0  0
  8 13  1  0  0  0  0
  8  7  1  0  0  0  0
  9 14  2  0  0  0  0
  9 11  1  0  0  0  0
 10  4  1  0  0  0  0
 11  4  2  0  0  0  0
 12  9  1  0  0  0  0
 13 11  1  0  0  0  0
 15 22  1  0  0  0  0
 16 19  2  0  0  0  0
 17 18  2  0  0  0  0
 19 15  1  0  0  0  0
 20 17  1  0  0  0  0
 21 19  1  0  0  0  0
 21 17  1  0  0  0  0
 22 23  1  0  0  0  0
 23 24  1  0  0  0  0
 25 26  1  0  0  0  0
 25 24  1  0  0  0  0
 27 26  1  0  0  0  0
 28 29  1  0  0  0  0
 29 30  1  0  0  0  0
 31 34  1  1  0  0  0
 32 31  1  0  0  0  0
 33 30  1  6  0  0  0
 33 32  1  0  0  0  0
 33 31  1  0  0  0  0
 34 35  2  0  0  0  0
 36 35  1  0  0  0  0
 38 36  1  0  0  0  0
 38 39  2  1  0  0  0
 38 37  1  0  0  0  0
 40 38  1  0  0  0  0
 41 40  1  0  0  0  0
M  END
>  <MODEL>
7

>  <REMARK>
 VINA RESULT:      -6.7      1.358      1.941
  Name = 
  15 active torsions:
  status: ('A' for Active; 'I' for Inactive)
    1  A    between atoms: C_1  and  P_20
    2  A    between atoms: C_2  and  N_8
    3  A    between atoms: N_4  and  O_27
    4  A    between atoms: C_6  and  C_13
    5  A    between atoms: C_7  and  C_40
    6  A    between atoms: C_7  and  C_41
    7  A    between atoms: C_14  and  C_22
    8  A    between atoms: C_14  and  C_41
    9  A    between atoms: C_17  and  O_33
   10  A    between atoms: C_19  and  O_27
   11  A    between atoms: C_19  and  C_31
   12  A    between atoms: P_20  and  O_33
   13  A    between atoms: C_21  and  N_36
   14  A    between atoms: C_28  and  C_29
   15  A    between atoms: C_29  and  C_31
                            x       y       z     vdW  Elec       q    Type
                         _______ _______ _______ _____ _____    ______ ____

>  <TORSDO>
F 15

$$$$
=
 OpenBabel11042413323D

 41 44  0  0  1  0  0  0  0  0999 V2000
  190.4960  176.8930  138.6100 N   0  0  0  0  0  0  0  0  0  0  0  0
  189.6180  176.9740  139.8120 C   0  0  2  0  0  3  0  0  0  0  0  0
  189.7350  178.1050  139.0350 C   0  0  2  0  0  3  0  0  0  0  0  0
  191.3530  176.1550  137.7430 C   0  0  0  0  0  0  0  0  0  0  0  0
  189.1120  172.4540  135.6100 N   0  0  0  0  0  2  0  0  0  0  0  0
  191.3590  173.2350  135.7640 N   0  0  0  0  0  0  0  0  0  0  0  0
  193.5960  175.9160  136.8570 C   0  0  0  0  0  3  0  0  0  0  0  0
  193.2200  174.7080  136.1720 N   0  0  0  0  0  2  0  0  0  0  0  0
  189.6560  174.3550  137.0400 C   0  0  0  0  0  0  0  0  0  0  0  0
  192.7260  176.5750  137.5800 N   0  0  0  0  0  0  0  0  0  0  0  0
  190.9410  175.0470  137.1130 C   0  0  0  0  0  0  0  0  0  0  0  0
  189.9900  173.2130  136.1770 C   0  0  0  0  0  0  0  0  0  0  0  0
  191.8700  174.2820  136.3200 C   0  0  0  0  0  0  0  0  0  0  0  0
  188.1980  175.1000  137.0200 S   0  0  0  0  0  0  0  0  0  0  0  0
  189.0800  176.9040  145.2280 N   0  0  0  0  0  2  0  0  0  0  0  0
  191.3220  177.3160  145.6980 O   0  0  0  0  0  0  0  0  0  0  0  0
  189.9070  177.0440  142.3230 C   0  0  0  0  0  0  0  0  0  0  0  0
  188.6370  176.8570  142.5000 N   0  0  0  0  0  2  0  0  0  0  0  0
  190.4310  177.1470  144.8250 C   0  0  0  0  0  0  0  0  0  0  0  0
  190.4460  177.1070  141.0010 N   0  0  0  0  0  2  0  0  0  0  0  0
  190.7910  177.2000  143.4400 N   0  0  0  0  0  2  0  0  0  0  0  0
  188.7330  176.8360  146.5370 O   0  0  0  0  0  0  0  0  0  0  0  0
  187.7830  177.8460  146.7130 C   0  0  0  0  0  2  0  0  0  0  0  0
  186.6310  177.6550  145.7420 C   0  0  0  0  0  2  0  0  0  0  0  0
  185.5130  178.6360  146.0520 C   0  0  0  0  0  2  0  0  0  0  0  0
  184.6460  178.8560  144.8250 C   0  0  0  0  0  2  0  0  0  0  0  0
  185.3270  178.3000  143.5880 C   0  0  0  0  0  1  0  0  0  0  0  0
  188.5130  178.2590  138.1490 C   0  0  0  0  0  2  0  0  0  0  0  0
  187.2450  178.2160  138.9820 C   0  0  0  0  0  2  0  0  0  0  0  0
  186.0240  178.2840  138.0820 C   0  0  0  0  0  2  0  0  0  0  0  0
  183.7790  179.0810  138.7170 C   0  0  1  0  0  3  0  0  0  0  0  0
  184.6100  178.9850  139.9800 C   0  0  0  0  0  2  0  0  0  0  0  0
  184.7810  177.9570  138.8810 C   0  0  2  0  0  3  0  0  0  0  0  0
  182.4100  178.5540  138.9820 C   0  0  0  0  0  3  0  0  0  0  0  0
  181.3450  179.0020  138.3250 C   0  0  0  0  0  3  0  0  0  0  0  0
  181.4630  179.9940  137.3550 O   0  0  0  0  0  0  0  0  0  0  0  0
  181.9220  182.3800  138.3620 O   0  0  0  0  0  1  0  0  0  0  0  0
  180.8630  181.5720  137.6500 P   0  0  1  0  0  0  0  0  0  0  0  0
  180.4840  182.3180  136.1800 O   0  0  0  0  0  0  0  0  0  0  0  0
  179.3770  181.4920  138.6900 C   0  0  0  0  0  2  0  0  0  0  0  0
  179.7370  181.5850  140.0330 O   0  0  0  0  0  1  0  0  0  0  0  0
  1  3  1  0  0  0  0
  1  2  1  0  0  0  0
  2 20  1  1  0  0  0
  3 28  1  6  0  0  0
  3  2  1  0  0  0  0
  4  1  1  0  0  0  0
  5 12  2  0  0  0  0
  6 12  1  0  0  0  0
  6 13  2  0  0  0  0
  7 10  2  0  0  0  0
  8 13  1  0  0  0  0
  8  7  1  0  0  0  0
  9 11  1  0  0  0  0
 10  4  1  0  0  0  0
 11  4  2  0  0  0  0
 12  9  1  0  0  0  0
 13 11  1  0  0  0  0
 14  9  2  0  0  0  0
 15 22  1  0  0  0  0
 17 18  2  0  0  0  0
 17 21  1  0  0  0  0
 19 15  1  0  0  0  0
 19 16  2  0  0  0  0
 20 17  1  0  0  0  0
 21 19  1  0  0  0  0
 22 23  1  0  0  0  0
 24 25  1  0  0  0  0
 24 23  1  0  0  0  0
 26 25  1  0  0  0  0
 27 26  1  0  0  0  0
 28 29  1  0  0  0  0
 30 29  1  0  0  0  0
 31 33  1  0  0  0  0
 31 34  1  1  0  0  0
 31 32  1  0  0  0  0
 33 30  1  6  0  0  0
 33 32  1  0  0  0  0
 35 34  2  0  0  0  0
 36 38  1  0  0  0  0
 36 35  1  0  0  0  0
 38 39  2  6  0  0  0
 38 37  1  0  0  0  0
 38 40  1  0  0  0  0
 40 41  1  0  0  0  0
M  END
>  <MODEL>
8

>  <REMARK>
 VINA RESULT:      -6.7      3.360      7.459
  Name = 
  15 active torsions:
  status: ('A' for Active; 'I' for Inactive)
    1  A    between atoms: C_1  and  P_20
    2  A    between atoms: C_2  and  N_8
    3  A    between atoms: N_4  and  O_27
    4  A    between atoms: C_6  and  C_13
    5  A    between atoms: C_7  and  C_40
    6  A    between atoms: C_7  and  C_41
    7  A    between atoms: C_14  and  C_22
    8  A    between atoms: C_14  and  C_41
    9  A    between atoms: C_17  and  O_33
   10  A    between atoms: C_19  and  O_27
   11  A    between atoms: C_19  and  C_31
   12  A    between atoms: P_20  and  O_33
   13  A    between atoms: C_21  and  N_36
   14  A    between atoms: C_28  and  C_29
   15  A    between atoms: C_29  and  C_31
                            x       y       z     vdW  Elec       q    Type
                         _______ _______ _______ _____ _____    ______ ____

>  <TORSDO>
F 15

$$$$
=
 OpenBabel11042413323D

 41 44  0  0  1  0  0  0  0  0999 V2000
  186.7670  178.3420  142.7320 N   0  0  0  0  0  0  0  0  0  0  0  0
  186.7610  177.9550  141.2930 C   0  0  2  0  0  3  0  0  0  0  0  0
  187.9460  178.4190  141.8200 C   0  0  2  0  0  3  0  0  0  0  0  0
  186.1070  178.4690  143.9900 C   0  0  0  0  0  0  0  0  0  0  0  0
  188.9790  177.4250  147.7210 N   0  0  0  0  0  2  0  0  0  0  0  0
  186.6580  177.8820  147.4230 N   0  0  0  0  0  0  0  0  0  0  0  0
  184.0270  178.9740  145.1270 C   0  0  0  0  0  3  0  0  0  0  0  0
  184.6120  178.6290  146.3950 N   0  0  0  0  0  2  0  0  0  0  0  0
  188.0620  177.7110  145.4780 C   0  0  0  0  0  0  0  0  0  0  0  0
  184.7260  178.8950  144.0220 N   0  0  0  0  0  0  0  0  0  0  0  0
  186.7100  178.1540  145.1430 C   0  0  0  0  0  0  0  0  0  0  0  0
  187.9610  177.5510  146.9360 C   0  0  0  0  0  0  0  0  0  0  0  0
  185.9730  178.2100  146.3800 C   0  0  0  0  0  0  0  0  0  0  0  0
  189.4220  178.2220  144.7230 S   0  0  0  0  0  0  0  0  0  0  0  0
  181.8120  179.2940  139.4630 N   0  0  0  0  0  2  0  0  0  0  0  0
  182.4820  181.2220  138.3460 O   0  0  0  0  0  0  0  0  0  0  0  0
  184.7260  179.0000  140.2150 C   0  0  0  0  0  0  0  0  0  0  0  0
  183.9740  178.0350  140.6410 N   0  0  0  0  0  2  0  0  0  0  0  0
  182.8100  180.2320  139.0520 C   0  0  0  0  0  0  0  0  0  0  0  0
  186.1230  179.0070  140.5170 N   0  0  0  0  0  2  0  0  0  0  0  0
  184.1810  180.0680  139.4320 N   0  0  0  0  0  2  0  0  0  0  0  0
  180.5090  179.4490  139.1230 O   0  0  0  0  0  0  0  0  0  0  0  0
  179.8130  179.4300  140.3350 C   0  0  0  0  0  2  0  0  0  0  0  0
  180.3730  178.3490  141.2420 C   0  0  0  0  0  2  0  0  0  0  0  0
  180.7820  178.9430  142.5790 C   0  0  0  0  0  2  0  0  0  0  0  0
  179.6140  179.6790  143.2120 C   0  0  0  0  0  2  0  0  0  0  0  0
  179.2000  179.0030  144.5050 C   0  0  0  0  0  1  0  0  0  0  0  0
  188.8770  177.2570  142.1140 C   0  0  0  0  0  2  0  0  0  0  0  0
  190.2170  177.4660  141.4340 C   0  0  0  0  0  2  0  0  0  0  0  0
  190.2390  176.7560  140.0920 C   0  0  0  0  0  2  0  0  0  0  0  0
  188.7740  177.1160  138.1420 C   0  0  1  0  0  3  0  0  0  0  0  0
  190.2070  177.1170  137.6510 C   0  0  0  0  0  2  0  0  0  0  0  0
  189.8670  177.7290  138.9930 C   0  0  2  0  0  3  0  0  0  0  0  0
  188.0160  178.2070  137.4650 C   0  0  0  0  0  3  0  0  0  0  0  0
  186.7150  178.1050  137.2110 C   0  0  0  0  0  3  0  0  0  0  0  0
  186.0000  176.9650  137.5640 O   0  0  0  0  0  0  0  0  0  0  0  0
  183.4920  177.5270  137.0060 O   0  0  0  0  0  1  0  0  0  0  0  0
  184.5840  176.5270  136.7040 P   0  0  1  0  0  0  0  0  0  0  0  0
  184.9030  176.5330  135.0440 O   0  0  0  0  0  0  0  0  0  0  0  0
  184.0320  174.8740  137.2100 C   0  0  0  0  0  2  0  0  0  0  0  0
  185.1360  174.0880  137.5360 O   0  0  0  0  0  1  0  0  0  0  0  0
  1  4  1  0  0  0  0
  2 20  1  6  0  0  0
  2  3  1  0  0  0  0
  2  1  1  0  0  0  0
  3 28  1  1  0  0  0
  3  1  1  0  0  0  0
  4 10  1  0  0  0  0
  4 11  2  0  0  0  0
  7  8  1  0  0  0  0
  9 12  1  0  0  0  0
 10  7  2  0  0  0  0
 11  9  1  0  0  0  0
 11 13  1  0  0  0  0
 12  6  1  0  0  0  0
 12  5  2  0  0  0  0
 13  8  1  0  0  0  0
 13  6  2  0  0  0  0
 14  9  2  0  0  0  0
 16 19  2  0  0  0  0
 17 20  1  0  0  0  0
 17 18  2  0  0  0  0
 19 21  1  0  0  0  0
 19 15  1  0  0  0  0
 21 17  1  0  0  0  0
 22 15  1  0  0  0  0
 22 23  1  0  0  0  0
 23 24  1  0  0  0  0
 24 25  1  0  0  0  0
 25 26  1  0  0  0  0
 26 27  1  0  0  0  0
 29 28  1  0  0  0  0
 30 29  1  0  0  0  0
 31 34  1  6  0  0  0
 31 33  1  0  0  0  0
 32 31  1  0  0  0  0
 32 33  1  0  0  0  0
 33 30  1  1  0  0  0
 35 34  2  0  0  0  0
 35 36  1  0  0  0  0
 38 39  2  6  0  0  0
 38 37  1  0  0  0  0
 38 40  1  0  0  0  0
 38 36  1  0  0  0  0
 40 41  1  0  0  0  0
M  END
>  <MODEL>
9

>  <REMARK>
 VINA RESULT:      -6.7      5.550      8.657
  Name = 
  15 active torsions:
  status: ('A' for Active; 'I' for Inactive)
    1  A    between atoms: C_1  and  P_20
    2  A    between atoms: C_2  and  N_8
    3  A    between atoms: N_4  and  O_27
    4  A    between atoms: C_6  and  C_13
    5  A    between atoms: C_7  and  C_40
    6  A    between atoms: C_7  and  C_41
    7  A    between atoms: C_14  and  C_22
    8  A    between atoms: C_14  and  C_41
    9  A    between atoms: C_17  and  O_33
   10  A    between atoms: C_19  and  O_27
   11  A    between atoms: C_19  and  C_31
   12  A    between atoms: P_20  and  O_33
   13  A    between atoms: C_21  and  N_36
   14  A    between atoms: C_28  and  C_29
   15  A    between atoms: C_29  and  C_31
                            x       y       z     vdW  Elec       q    Type
                         _______ _______ _______ _____ _____    ______ ____

>  <TORSDO>
F 15

$$$$
