=
 OpenBabel11032419293D

 36 41  0  0  1  0  0  0  0  0999 V2000
  184.7930  178.8770  141.8520 C   0  0  0  0  0  0  0  0  0  0  0  0
  182.3570  176.2040  139.5760 C   0  0  0  0  0  3  0  0  0  0  0  0
  184.6820  178.7160  145.6060 C   0  0  0  0  0  0  0  0  0  0  0  0
  180.7140  177.9220  139.1090 C   0  0  0  0  0  0  0  0  0  0  0  0
  180.0770  179.1580  139.2920 O   0  0  0  0  0  0  0  0  0  0  0  0
  181.8290  177.4720  139.8730 C   0  0  0  0  0  0  0  0  0  0  0  0
  181.7020  178.9440  142.0030 C   0  0  0  0  0  0  0  0  0  0  0  0
  185.8410  179.2990  144.3720 S   0  0  0  0  0  0  0  0  0  0  0  0
  180.4040  180.1330  140.2720 C   0  0  2  0  0  3  0  0  0  0  0  0
  182.4990  178.2500  140.9520 C   0  0  0  0  0  0  0  0  0  0  0  0
  180.3760  179.5370  141.6710 C   0  0  1  0  0  3  0  0  0  0  0  0
  180.7260  175.8910  137.8510 C   0  0  0  0  0  3  0  0  0  0  0  0
  184.5500  178.9710  143.1660 C   0  0  0  0  0  0  0  0  0  0  0  0
  183.3080  178.6020  143.7560 N   0  0  0  0  0  0  0  0  0  0  0  0
  182.0720  179.0210  143.2450 N   0  0  0  0  0  0  0  0  0  0  0  0
  179.4170  181.2780  140.1860 C   0  0  0  0  0  1  0  0  0  0  0  0
  183.4640  178.4440  145.1570 C   0  0  0  0  0  3  0  0  0  0  0  0
  180.2120  177.1150  138.1330 N   0  0  0  0  0  0  0  0  0  0  0  0
  179.3600  178.5870  141.8110 O   0  0  0  0  0  1  0  0  0  0  0  0
  181.8120  175.4120  138.5720 C   0  0  0  0  0  3  0  0  0  0  0  0
  183.8360  178.2880  140.9040 C   0  0  0  0  0  3  0  0  0  0  0  0
  185.0680  178.5510  147.0360 C   0  0  0  0  0  2  0  0  0  0  0  0
  186.5100  178.9690  147.2510 C   0  0  0  0  0  2  0  0  0  0  0  0
  188.5430  178.2010  148.4280 C   0  0  0  0  0  1  0  0  0  0  0  0
  187.3350  177.7580  147.6300 C   0  0  0  0  0  2  0  0  0  0  0  0
  186.1560  179.1620  141.3100 C   0  0  0  0  0  2  0  0  0  0  0  0
  187.0790  177.9800  141.5560 C   0  0  0  0  0  2  0  0  0  0  0  0
  188.1850  178.6610  139.5640 O   0  0  0  0  0  0  0  0  0  0  0  0
  188.2860  178.1020  140.6870 C   0  0  0  0  0  0  0  0  0  0  0  0
  189.5420  177.5510  141.0890 N   0  0  0  0  0  2  0  0  0  0  0  0
  189.7340  176.9390  142.3970 C   0  0  0  0  0  2  0  0  0  0  0  0
  189.3480  177.9230  144.6790 C   0  0  0  0  0  2  0  0  0  0  0  0
  191.6460  177.9530  143.6870 C   0  0  1  0  0  3  0  0  0  0  0  0
  190.6890  177.2290  144.6090 C   0  0  2  0  0  3  0  0  0  0  0  0
  190.1590  177.9890  143.4020 C   0  0  2  0  0  0  0  0  0  0  0  0
  192.0410  179.1560  144.2710 O   0  0  0  0  0  1  0  0  0  0  0  0
  1 13  2  0  0  0  0
  2  6  2  0  0  0  0
  3 22  1  0  0  0  0
  4  5  1  0  0  0  0
  4  6  1  0  0  0  0
  5  9  1  0  0  0  0
  6 10  1  0  0  0  0
  7 15  2  0  0  0  0
  8  3  1  0  0  0  0
  9 16  1  1  0  0  0
  9 11  1  0  0  0  0
 10  7  1  0  0  0  0
 11 19  1  6  0  0  0
 11  7  1  0  0  0  0
 12 18  1  0  0  0  0
 12 20  2  0  0  0  0
 13 14  1  0  0  0  0
 13  8  1  0  0  0  0
 14 17  1  0  0  0  0
 15 14  1  0  0  0  0
 17  3  2  0  0  0  0
 18  4  2  0  0  0  0
 20  2  1  0  0  0  0
 21 10  2  0  0  0  0
 21  1  1  0  0  0  0
 22 23  1  0  0  0  0
 23 25  1  0  0  0  0
 25 24  1  0  0  0  0
 26 27  1  0  0  0  0
 26  1  1  0  0  0  0
 28 29  2  0  0  0  0
 29 30  1  0  0  0  0
 29 27  1  0  0  0  0
 30 31  1  0  0  0  0
 33 36  1  1  0  0  0
 33 34  1  0  0  0  0
 34 32  1  1  0  0  0
 35 31  1  6  0  0  0
 35 33  1  0  0  0  0
 35 34  1  0  0  0  0
 35 32  1  0  0  0  0
M  END
>  <MODEL>
1

>  <REMARK>
 VINA RESULT:      -8.1      0.000      0.000
  Name = 
  8 active torsions:
  status: ('A' for Active; 'I' for Inactive)
    1  A    between atoms: C_1  and  C_33
    2  A    between atoms: C_3  and  C_12
    3  A    between atoms: C_12  and  C_22
    4  A    between atoms: C_16  and  C_26
    5  A    between atoms: C_16  and  N_31
    6  A    between atoms: C_22  and  C_23
    7  A    between atoms: C_24  and  C_34
    8  A    between atoms: C_33  and  C_34
                            x       y       z     vdW  Elec       q    Type
                         _______ _______ _______ _____ _____    ______ ____

>  <TORSDO>
F 8

$$$$
=
 OpenBabel11032419293D

 36 41  0  0  1  0  0  0  0  0999 V2000
  185.2780  178.9530  140.7370 C   0  0  0  0  0  0  0  0  0  0  0  0
  182.3220  181.1010  138.5230 C   0  0  0  0  0  3  0  0  0  0  0  0
  188.5270  178.0560  139.0730 C   0  0  0  0  0  0  0  0  0  0  0  0
  181.0030  179.1070  138.1340 C   0  0  0  0  0  0  0  0  0  0  0  0
  180.7690  177.7250  138.0850 O   0  0  0  0  0  0  0  0  0  0  0  0
  182.2370  179.6980  138.5300 C   0  0  0  0  0  0  0  0  0  0  0  0
  183.9340  177.7640  138.2150 C   0  0  0  0  0  0  0  0  0  0  0  0
  187.9540  178.2700  140.7560 S   0  0  0  0  0  0  0  0  0  0  0  0
  181.7110  176.7040  138.3810 C   0  0  2  0  0  3  0  0  0  0  0  0
  183.4440  178.9480  138.9760 C   0  0  0  0  0  0  0  0  0  0  0  0
  182.9680  176.8550  137.5380 C   0  0  1  0  0  3  0  0  0  0  0  0
  180.0580  181.2690  137.7640 C   0  0  0  0  0  3  0  0  0  0  0  0
  186.3060  178.4320  140.0560 C   0  0  0  0  0  0  0  0  0  0  0  0
  186.2600  178.1680  138.6580 N   0  0  0  0  0  0  0  0  0  0  0  0
  185.1930  177.4940  138.0490 N   0  0  0  0  0  0  0  0  0  0  0  0
  181.0810  175.3510  138.1190 C   0  0  0  0  0  1  0  0  0  0  0  0
  187.5740  177.9910  138.1540 C   0  0  0  0  0  3  0  0  0  0  0  0
  179.9690  179.9140  137.7690 N   0  0  0  0  0  0  0  0  0  0  0  0
  182.6770  177.3120  136.2490 O   0  0  0  0  0  1  0  0  0  0  0  0
  181.2420  181.8880  138.1400 C   0  0  0  0  0  3  0  0  0  0  0  0
  184.0360  179.3980  140.0900 C   0  0  0  0  0  3  0  0  0  0  0  0
  189.9760  177.9580  138.7390 C   0  0  0  0  0  2  0  0  0  0  0  0
  190.6440  176.8810  139.5730 C   0  0  0  0  0  2  0  0  0  0  0  0
  191.5770  177.3760  141.8070 C   0  0  0  0  0  1  0  0  0  0  0  0
  191.8210  177.4770  140.3160 C   0  0  0  0  0  2  0  0  0  0  0  0
  185.4300  179.3220  142.1780 C   0  0  0  0  0  2  0  0  0  0  0  0
  184.9790  178.1740  143.0660 C   0  0  0  0  0  2  0  0  0  0  0  0
  183.7060  179.4820  144.5900 O   0  0  0  0  0  0  0  0  0  0  0  0
  184.6730  178.6920  144.4320 C   0  0  0  0  0  0  0  0  0  0  0  0
  185.4900  178.3440  145.5520 N   0  0  0  0  0  2  0  0  0  0  0  0
  186.5880  177.3960  145.4420 C   0  0  0  0  0  2  0  0  0  0  0  0
  188.3090  177.9030  147.2040 C   0  0  0  0  0  2  0  0  0  0  0  0
  189.0120  177.6780  144.8120 C   0  0  1  0  0  3  0  0  0  0  0  0
  188.8730  176.9800  146.1480 C   0  0  2  0  0  3  0  0  0  0  0  0
  187.9000  178.0830  145.7580 C   0  0  2  0  0  0  0  0  0  0  0  0
  190.0450  178.6120  144.8770 O   0  0  0  0  0  1  0  0  0  0  0  0
  1 26  1  0  0  0  0
  2  6  2  0  0  0  0
  3  8  1  0  0  0  0
  4  6  1  0  0  0  0
  5  4  1  0  0  0  0
  5  9  1  0  0  0  0
  6 10  1  0  0  0  0
  7 10  1  0  0  0  0
  9 16  1  6  0  0  0
 10 21  2  0  0  0  0
 11 19  1  6  0  0  0
 11  7  1  0  0  0  0
 11  9  1  0  0  0  0
 12 18  1  0  0  0  0
 12 20  2  0  0  0  0
 13  1  2  0  0  0  0
 13  8  1  0  0  0  0
 14 13  1  0  0  0  0
 15  7  2  0  0  0  0
 15 14  1  0  0  0  0
 17 14  1  0  0  0  0
 17  3  2  0  0  0  0
 18  4  2  0  0  0  0
 20  2  1  0  0  0  0
 21  1  1  0  0  0  0
 22  3  1  0  0  0  0
 22 23  1  0  0  0  0
 23 25  1  0  0  0  0
 25 24  1  0  0  0  0
 26 27  1  0  0  0  0
 27 29  1  0  0  0  0
 29 28  2  0  0  0  0
 29 30  1  0  0  0  0
 31 30  1  0  0  0  0
 33 36  1  1  0  0  0
 33 35  1  0  0  0  0
 33 34  1  0  0  0  0
 34 32  1  1  0  0  0
 35 31  1  6  0  0  0
 35 34  1  0  0  0  0
 35 32  1  0  0  0  0
M  END
>  <MODEL>
2

>  <REMARK>
 VINA RESULT:      -7.9      2.576      5.236
  Name = 
  8 active torsions:
  status: ('A' for Active; 'I' for Inactive)
    1  A    between atoms: C_1  and  C_33
    2  A    between atoms: C_3  and  C_12
    3  A    between atoms: C_12  and  C_22
    4  A    between atoms: C_16  and  C_26
    5  A    between atoms: C_16  and  N_31
    6  A    between atoms: C_22  and  C_23
    7  A    between atoms: C_24  and  C_34
    8  A    between atoms: C_33  and  C_34
                            x       y       z     vdW  Elec       q    Type
                         _______ _______ _______ _____ _____    ______ ____

>  <TORSDO>
F 8

$$$$
=
 OpenBabel11032419293D

 36 41  0  0  1  0  0  0  0  0999 V2000
  185.3280  178.9440  140.5270 C   0  0  0  0  0  0  0  0  0  0  0  0
  182.2260  181.1460  138.5830 C   0  0  0  0  0  3  0  0  0  0  0  0
  188.3340  177.8650  138.5440 C   0  0  0  0  0  0  0  0  0  0  0  0
  180.7980  179.1970  138.4100 C   0  0  0  0  0  0  0  0  0  0  0  0
  180.5070  177.8250  138.4340 O   0  0  0  0  0  0  0  0  0  0  0  0
  182.0890  179.7480  138.6470 C   0  0  0  0  0  0  0  0  0  0  0  0
  183.6660  177.7380  138.2110 C   0  0  0  0  0  0  0  0  0  0  0  0
  187.9620  178.1520  140.2720 S   0  0  0  0  0  0  0  0  0  0  0  0
  181.4370  176.7750  138.6580 C   0  0  2  0  0  3  0  0  0  0  0  0
  183.3100  178.9630  138.9810 C   0  0  0  0  0  0  0  0  0  0  0  0
  182.5970  176.8500  137.6760 C   0  0  1  0  0  3  0  0  0  0  0  0
  179.8990  181.3840  138.0740 C   0  0  0  0  0  3  0  0  0  0  0  0
  186.2540  178.3610  139.7540 C   0  0  0  0  0  0  0  0  0  0  0  0
  186.0410  178.0590  138.3800 N   0  0  0  0  0  0  0  0  0  0  0  0
  184.8880  177.4110  137.9150 N   0  0  0  0  0  0  0  0  0  0  0  0
  180.7320  175.4430  138.5130 C   0  0  0  0  0  1  0  0  0  0  0  0
  187.2820  177.8120  137.7390 C   0  0  0  0  0  3  0  0  0  0  0  0
  179.7600  180.0350  138.1350 N   0  0  0  0  0  0  0  0  0  0  0  0
  182.1810  177.2800  136.4130 O   0  0  0  0  0  1  0  0  0  0  0  0
  181.1400  181.9650  138.2960 C   0  0  0  0  0  3  0  0  0  0  0  0
  184.0390  179.4200  140.0070 C   0  0  0  0  0  3  0  0  0  0  0  0
  189.7320  177.6970  138.0550 C   0  0  0  0  0  2  0  0  0  0  0  0
  190.3840  176.4920  138.7060 C   0  0  0  0  0  2  0  0  0  0  0  0
  192.7260  176.1710  137.9850 C   0  0  0  0  0  1  0  0  0  0  0  0
  191.8290  176.8110  139.0230 C   0  0  0  0  0  2  0  0  0  0  0  0
  185.6550  179.3480  141.9290 C   0  0  0  0  0  2  0  0  0  0  0  0
  185.2630  178.2460  142.9000 C   0  0  0  0  0  2  0  0  0  0  0  0
  185.2540  179.1440  145.1020 O   0  0  0  0  0  0  0  0  0  0  0  0
  184.5790  178.8460  144.0820 C   0  0  0  0  0  0  0  0  0  0  0  0
  183.1630  179.0410  144.0930 N   0  0  0  0  0  2  0  0  0  0  0  0
  182.3360  178.7650  142.9270 C   0  0  0  0  0  2  0  0  0  0  0  0
  180.2090  179.6430  141.9130 C   0  0  0  0  0  2  0  0  0  0  0  0
  180.1060  178.1840  143.9440 C   0  0  1  0  0  3  0  0  0  0  0  0
  180.0190  178.2370  142.4340 C   0  0  2  0  0  3  0  0  0  0  0  0
  180.9130  179.2150  143.1830 C   0  0  2  0  0  0  0  0  0  0  0  0
  178.9780  178.7890  144.5000 O   0  0  0  0  0  1  0  0  0  0  0  0
  1 26  1  0  0  0  0
  2  6  2  0  0  0  0
  3  8  1  0  0  0  0
  4  5  1  0  0  0  0
  4  6  1  0  0  0  0
  5  9  1  0  0  0  0
  6 10  1  0  0  0  0
  7 10  1  0  0  0  0
  9 16  1  6  0  0  0
 10 21  2  0  0  0  0
 11 19  1  6  0  0  0
 11  7  1  0  0  0  0
 11  9  1  0  0  0  0
 12 18  1  0  0  0  0
 12 20  2  0  0  0  0
 13  8  1  0  0  0  0
 13  1  2  0  0  0  0
 14 13  1  0  0  0  0
 15  7  2  0  0  0  0
 15 14  1  0  0  0  0
 17 14  1  0  0  0  0
 17  3  2  0  0  0  0
 18  4  2  0  0  0  0
 20  2  1  0  0  0  0
 21  1  1  0  0  0  0
 22  3  1  0  0  0  0
 22 23  1  0  0  0  0
 23 25  1  0  0  0  0
 24 25  1  0  0  0  0
 26 27  1  0  0  0  0
 27 29  1  0  0  0  0
 29 30  1  0  0  0  0
 29 28  2  0  0  0  0
 31 30  1  0  0  0  0
 32 35  1  0  0  0  0
 33 36  1  1  0  0  0
 34 32  1  1  0  0  0
 34 35  1  0  0  0  0
 34 33  1  0  0  0  0
 35 31  1  6  0  0  0
 35 33  1  0  0  0  0
M  END
>  <MODEL>
3

>  <REMARK>
 VINA RESULT:      -7.2      3.257      6.924
  Name = 
  8 active torsions:
  status: ('A' for Active; 'I' for Inactive)
    1  A    between atoms: C_1  and  C_33
    2  A    between atoms: C_3  and  C_12
    3  A    between atoms: C_12  and  C_22
    4  A    between atoms: C_16  and  C_26
    5  A    between atoms: C_16  and  N_31
    6  A    between atoms: C_22  and  C_23
    7  A    between atoms: C_24  and  C_34
    8  A    between atoms: C_33  and  C_34
                            x       y       z     vdW  Elec       q    Type
                         _______ _______ _______ _____ _____    ______ ____

>  <TORSDO>
F 8

$$$$
=
 OpenBabel11032419293D

 36 41  0  0  1  0  0  0  0  0999 V2000
  185.8540  178.6260  139.8910 C   0  0  0  0  0  0  0  0  0  0  0  0
  182.4220  180.8400  138.6380 C   0  0  0  0  0  3  0  0  0  0  0  0
  188.3180  177.4420  137.3100 C   0  0  0  0  0  0  0  0  0  0  0  0
  180.9660  178.9160  138.8480 C   0  0  0  0  0  0  0  0  0  0  0  0
  180.6700  177.5510  138.9750 O   0  0  0  0  0  0  0  0  0  0  0  0
  182.2840  179.4480  138.7710 C   0  0  0  0  0  0  0  0  0  0  0  0
  183.6940  177.3970  138.0450 C   0  0  0  0  0  0  0  0  0  0  0  0
  188.3510  177.7770  139.0680 S   0  0  0  0  0  0  0  0  0  0  0  0
  181.6120  176.4880  139.0110 C   0  0  2  0  0  3  0  0  0  0  0  0
  183.5390  178.6470  138.8420 C   0  0  0  0  0  0  0  0  0  0  0  0
  182.5200  176.5170  137.7910 C   0  0  1  0  0  3  0  0  0  0  0  0
  180.0430  181.1110  138.6630 C   0  0  0  0  0  3  0  0  0  0  0  0
  186.5730  178.0070  138.9450 C   0  0  0  0  0  0  0  0  0  0  0  0
  186.0500  177.6760  137.6630 N   0  0  0  0  0  0  0  0  0  0  0  0
  184.8130  177.0400  137.4900 N   0  0  0  0  0  0  0  0  0  0  0  0
  180.8750  175.1670  139.0670 C   0  0  0  0  0  1  0  0  0  0  0  0
  187.1100  177.3900  136.7650 C   0  0  0  0  0  3  0  0  0  0  0  0
  179.9040  179.7670  138.7920 N   0  0  0  0  0  0  0  0  0  0  0  0
  181.8340  176.9250  136.6430 O   0  0  0  0  0  1  0  0  0  0  0  0
  181.3110  181.6730  138.5830 C   0  0  0  0  0  3  0  0  0  0  0  0
  184.4870  179.1140  139.6630 C   0  0  0  0  0  3  0  0  0  0  0  0
  189.5660  177.2360  136.5220 C   0  0  0  0  0  2  0  0  0  0  0  0
  190.7240  176.8880  137.4380 C   0  0  0  0  0  2  0  0  0  0  0  0
  192.1660  174.8890  137.6160 C   0  0  0  0  0  1  0  0  0  0  0  0
  191.7030  176.0010  136.6990 C   0  0  0  0  0  2  0  0  0  0  0  0
  186.4960  179.0570  141.1700 C   0  0  0  0  0  2  0  0  0  0  0  0
  186.4200  177.9410  142.1990 C   0  0  0  0  0  2  0  0  0  0  0  0
  188.7790  178.1440  142.4260 O   0  0  0  0  0  0  0  0  0  0  0  0
  187.6810  177.9140  142.9970 C   0  0  0  0  0  0  0  0  0  0  0  0
  187.6670  177.5820  144.3880 N   0  0  0  0  0  2  0  0  0  0  0  0
  186.4260  177.3580  145.1150 C   0  0  0  0  0  2  0  0  0  0  0  0
  184.5100  178.9840  145.2330 C   0  0  0  0  0  2  0  0  0  0  0  0
  186.0400  178.7220  147.1980 C   0  0  1  0  0  3  0  0  0  0  0  0
  184.7280  178.3070  146.5670 C   0  0  2  0  0  3  0  0  0  0  0  0
  185.9180  178.6640  145.6890 C   0  0  2  0  0  0  0  0  0  0  0  0
  185.9560  180.0480  147.6230 O   0  0  0  0  0  1  0  0  0  0  0  0
  1 26  1  0  0  0  0
  2  6  2  0  0  0  0
  3  8  1  0  0  0  0
  4  5  1  0  0  0  0
  5  9  1  0  0  0  0
  6 10  1  0  0  0  0
  6  4  1  0  0  0  0
  7 10  1  0  0  0  0
  9 16  1  6  0  0  0
 10 21  2  0  0  0  0
 11 19  1  6  0  0  0
 11  7  1  0  0  0  0
 11  9  1  0  0  0  0
 12 18  1  0  0  0  0
 13  8  1  0  0  0  0
 13  1  2  0  0  0  0
 14 13  1  0  0  0  0
 15 14  1  0  0  0  0
 15  7  2  0  0  0  0
 17  3  2  0  0  0  0
 17 14  1  0  0  0  0
 18  4  2  0  0  0  0
 20  2  1  0  0  0  0
 20 12  2  0  0  0  0
 21  1  1  0  0  0  0
 22  3  1  0  0  0  0
 22 23  1  0  0  0  0
 25 23  1  0  0  0  0
 25 24  1  0  0  0  0
 26 27  1  0  0  0  0
 27 29  1  0  0  0  0
 28 29  2  0  0  0  0
 29 30  1  0  0  0  0
 30 31  1  0  0  0  0
 32 35  1  0  0  0  0
 33 36  1  6  0  0  0
 34 32  1  6  0  0  0
 34 33  1  0  0  0  0
 35 31  1  6  0  0  0
 35 34  1  0  0  0  0
 35 33  1  0  0  0  0
M  END
>  <MODEL>
4

>  <REMARK>
 VINA RESULT:      -7.0      3.209      6.116
  Name = 
  8 active torsions:
  status: ('A' for Active; 'I' for Inactive)
    1  A    between atoms: C_1  and  C_33
    2  A    between atoms: C_3  and  C_12
    3  A    between atoms: C_12  and  C_22
    4  A    between atoms: C_16  and  C_26
    5  A    between atoms: C_16  and  N_31
    6  A    between atoms: C_22  and  C_23
    7  A    between atoms: C_24  and  C_34
    8  A    between atoms: C_33  and  C_34
                            x       y       z     vdW  Elec       q    Type
                         _______ _______ _______ _____ _____    ______ ____

>  <TORSDO>
F 8

$$$$
=
 OpenBabel11032419293D

 36 41  0  0  1  0  0  0  0  0999 V2000
  185.4390  178.3770  138.9950 C   0  0  0  0  0  0  0  0  0  0  0  0
  183.4970  175.3750  136.6560 C   0  0  0  0  0  3  0  0  0  0  0  0
  184.5730  178.7110  142.6390 C   0  0  0  0  0  0  0  0  0  0  0  0
  181.9920  176.9790  135.6440 C   0  0  0  0  0  0  0  0  0  0  0  0
  181.3370  178.2140  135.5280 O   0  0  0  0  0  0  0  0  0  0  0  0
  182.9270  176.6590  136.6690 C   0  0  0  0  0  0  0  0  0  0  0  0
  182.3810  178.3970  138.5130 C   0  0  0  0  0  0  0  0  0  0  0  0
  185.9600  179.1520  141.5950 S   0  0  0  0  0  0  0  0  0  0  0  0
  181.4650  179.3170  136.4140 C   0  0  2  0  0  3  0  0  0  0  0  0
  183.3700  177.5870  137.7470 C   0  0  0  0  0  0  0  0  0  0  0  0
  181.1530  178.9110  137.8460 C   0  0  1  0  0  3  0  0  0  0  0  0
  182.2460  174.8010  134.6970 C   0  0  0  0  0  3  0  0  0  0  0  0
  184.9370  178.6390  140.2090 C   0  0  0  0  0  0  0  0  0  0  0  0
  183.6000  178.3240  140.5820 N   0  0  0  0  0  0  0  0  0  0  0  0
  182.4940  178.6440  139.7830 N   0  0  0  0  0  0  0  0  0  0  0  0
  180.5220  180.4200  135.9800 C   0  0  0  0  0  1  0  0  0  0  0  0
  183.4690  178.3560  141.9950 C   0  0  0  0  0  3  0  0  0  0  0  0
  181.6920  176.0400  134.7040 N   0  0  0  0  0  0  0  0  0  0  0  0
  180.1240  177.9660  137.9060 O   0  0  0  0  0  1  0  0  0  0  0  0
  183.1610  174.4450  135.6790 C   0  0  0  0  0  3  0  0  0  0  0  0
  184.6900  177.6480  137.9630 C   0  0  0  0  0  3  0  0  0  0  0  0
  184.6620  178.7450  144.1260 C   0  0  0  0  0  2  0  0  0  0  0  0
  185.9290  178.0580  144.6000 C   0  0  0  0  0  2  0  0  0  0  0  0
  187.3900  177.6950  146.5600 C   0  0  0  0  0  1  0  0  0  0  0  0
  186.0200  178.1550  146.1080 C   0  0  0  0  0  2  0  0  0  0  0  0
  186.8850  178.6180  138.7040 C   0  0  0  0  0  2  0  0  0  0  0  0
  187.6310  177.2970  138.6120 C   0  0  0  0  0  2  0  0  0  0  0  0
  189.7550  177.8390  137.6910 O   0  0  0  0  0  0  0  0  0  0  0  0
  189.0980  177.5450  138.7240 C   0  0  0  0  0  0  0  0  0  0  0  0
  189.7750  177.4070  139.9750 N   0  0  0  0  0  2  0  0  0  0  0  0
  189.0620  177.1220  141.2110 C   0  0  0  0  0  2  0  0  0  0  0  0
  189.5460  178.0610  143.4930 C   0  0  0  0  0  2  0  0  0  0  0  0
  190.3490  175.7650  142.9010 C   0  0  1  0  0  3  0  0  0  0  0  0
  189.2620  176.5780  143.5680 C   0  0  2  0  0  3  0  0  0  0  0  0
  190.0220  177.1510  142.3820 C   0  0  2  0  0  0  0  0  0  0  0  0
  191.5110  175.8150  143.6700 O   0  0  0  0  0  1  0  0  0  0  0  0
  1 13  2  0  0  0  0
  2  6  2  0  0  0  0
  3 22  1  0  0  0  0
  4  6  1  0  0  0  0
  5  4  1  0  0  0  0
  5  9  1  0  0  0  0
  6 10  1  0  0  0  0
  7 15  2  0  0  0  0
  8  3  1  0  0  0  0
  9 16  1  6  0  0  0
  9 11  1  0  0  0  0
 10 21  2  0  0  0  0
 10  7  1  0  0  0  0
 11 19  1  6  0  0  0
 11  7  1  0  0  0  0
 12 18  1  0  0  0  0
 12 20  2  0  0  0  0
 13 14  1  0  0  0  0
 13  8  1  0  0  0  0
 14 17  1  0  0  0  0
 15 14  1  0  0  0  0
 17  3  2  0  0  0  0
 18  4  2  0  0  0  0
 20  2  1  0  0  0  0
 21  1  1  0  0  0  0
 22 23  1  0  0  0  0
 23 25  1  0  0  0  0
 25 24  1  0  0  0  0
 26  1  1  0  0  0  0
 27 26  1  0  0  0  0
 27 29  1  0  0  0  0
 28 29  2  0  0  0  0
 29 30  1  0  0  0  0
 30 31  1  0  0  0  0
 33 34  1  0  0  0  0
 33 36  1  1  0  0  0
 34 32  1  1  0  0  0
 35 31  1  6  0  0  0
 35 33  1  0  0  0  0
 35 32  1  0  0  0  0
 35 34  1  0  0  0  0
M  END
>  <MODEL>
5

>  <REMARK>
 VINA RESULT:      -6.9      2.443      3.102
  Name = 
  8 active torsions:
  status: ('A' for Active; 'I' for Inactive)
    1  A    between atoms: C_1  and  C_33
    2  A    between atoms: C_3  and  C_12
    3  A    between atoms: C_12  and  C_22
    4  A    between atoms: C_16  and  C_26
    5  A    between atoms: C_16  and  N_31
    6  A    between atoms: C_22  and  C_23
    7  A    between atoms: C_24  and  C_34
    8  A    between atoms: C_33  and  C_34
                            x       y       z     vdW  Elec       q    Type
                         _______ _______ _______ _____ _____    ______ ____

>  <TORSDO>
F 8

$$$$
=
 OpenBabel11032419293D

 36 41  0  0  1  0  0  0  0  0999 V2000
  184.2820  178.5970  141.2950 C   0  0  0  0  0  0  0  0  0  0  0  0
  181.2260  176.0230  139.7820 C   0  0  0  0  0  3  0  0  0  0  0  0
  184.8440  178.7960  145.0060 C   0  0  0  0  0  0  0  0  0  0  0  0
  179.6990  177.8670  139.4160 C   0  0  0  0  0  0  0  0  0  0  0  0
  179.2270  179.1800  139.5670 O   0  0  0  0  0  0  0  0  0  0  0  0
  180.8850  177.3650  140.0230 C   0  0  0  0  0  0  0  0  0  0  0  0
  181.2920  179.0320  141.9660 C   0  0  0  0  0  0  0  0  0  0  0  0
  185.8090  179.1270  143.5340 S   0  0  0  0  0  0  0  0  0  0  0  0
  179.8200  180.1970  140.3620 C   0  0  2  0  0  3  0  0  0  0  0  0
  181.8130  178.1570  140.8780 C   0  0  0  0  0  0  0  0  0  0  0  0
  179.9910  179.7390  141.8030 C   0  0  1  0  0  3  0  0  0  0  0  0
  179.2850  175.7420  138.4090 C   0  0  0  0  0  3  0  0  0  0  0  0
  184.2930  178.8390  142.6120 C   0  0  0  0  0  0  0  0  0  0  0  0
  183.1510  178.6710  143.4430 N   0  0  0  0  0  0  0  0  0  0  0  0
  181.8880  179.1800  143.1100 N   0  0  0  0  0  0  0  0  0  0  0  0
  178.9500  181.4350  140.3210 C   0  0  0  0  0  1  0  0  0  0  0  0
  183.5440  178.6260  144.8060 C   0  0  0  0  0  3  0  0  0  0  0  0
  178.9510  177.0370  138.6370 N   0  0  0  0  0  0  0  0  0  0  0  0
  178.9310  178.9300  142.2200 O   0  0  0  0  0  1  0  0  0  0  0  0
  180.4330  175.2090  138.9810 C   0  0  0  0  0  3  0  0  0  0  0  0
  183.1170  178.0370  140.5960 C   0  0  0  0  0  3  0  0  0  0  0  0
  185.4670  178.7210  146.3580 C   0  0  0  0  0  2  0  0  0  0  0  0
  186.7580  177.9260  146.3070 C   0  0  0  0  0  2  0  0  0  0  0  0
  188.2940  177.0150  148.0150 C   0  0  0  0  0  1  0  0  0  0  0  0
  187.6080  178.2670  147.5120 C   0  0  0  0  0  2  0  0  0  0  0  0
  185.5450  178.6730  140.4980 C   0  0  0  0  0  2  0  0  0  0  0  0
  185.2460  178.4960  139.0190 C   0  0  0  0  0  2  0  0  0  0  0  0
  187.6090  178.6120  138.7850 O   0  0  0  0  0  0  0  0  0  0  0  0
  186.5180  178.2410  138.2810 C   0  0  0  0  0  0  0  0  0  0  0  0
  186.5100  177.6280  136.9900 N   0  0  0  0  0  2  0  0  0  0  0  0
  185.2870  177.1310  136.3780 C   0  0  0  0  0  2  0  0  0  0  0  0
  186.0980  174.8960  137.1980 C   0  0  0  0  0  2  0  0  0  0  0  0
  184.1020  175.0150  135.6910 C   0  0  1  0  0  3  0  0  0  0  0  0
  184.5880  174.9280  137.1220 C   0  0  2  0  0  3  0  0  0  0  0  0
  185.4220  175.6530  136.0750 C   0  0  2  0  0  0  0  0  0  0  0  0
  184.3400  173.8040  135.0410 O   0  0  0  0  0  1  0  0  0  0  0  0
  1 13  2  0  0  0  0
  2  6  2  0  0  0  0
  3 22  1  0  0  0  0
  4  5  1  0  0  0  0
  4  6  1  0  0  0  0
  5  9  1  0  0  0  0
  6 10  1  0  0  0  0
  7 15  2  0  0  0  0
  8  3  1  0  0  0  0
  9 16  1  1  0  0  0
  9 11  1  0  0  0  0
 10  7  1  0  0  0  0
 11  7  1  0  0  0  0
 11 19  1  6  0  0  0
 12 18  1  0  0  0  0
 12 20  2  0  0  0  0
 13 14  1  0  0  0  0
 13  8  1  0  0  0  0
 14 17  1  0  0  0  0
 15 14  1  0  0  0  0
 17  3  2  0  0  0  0
 18  4  2  0  0  0  0
 20  2  1  0  0  0  0
 21 10  2  0  0  0  0
 21  1  1  0  0  0  0
 23 22  1  0  0  0  0
 23 25  1  0  0  0  0
 25 24  1  0  0  0  0
 26  1  1  0  0  0  0
 27 26  1  0  0  0  0
 29 28  2  0  0  0  0
 29 27  1  0  0  0  0
 30 29  1  0  0  0  0
 31 30  1  0  0  0  0
 33 36  1  6  0  0  0
 33 35  1  0  0  0  0
 33 34  1  0  0  0  0
 34 32  1  6  0  0  0
 35 31  1  1  0  0  0
 35 34  1  0  0  0  0
 35 32  1  0  0  0  0
M  END
>  <MODEL>
6

>  <REMARK>
 VINA RESULT:      -6.9      2.421      4.353
  Name = 
  8 active torsions:
  status: ('A' for Active; 'I' for Inactive)
    1  A    between atoms: C_1  and  C_33
    2  A    between atoms: C_3  and  C_12
    3  A    between atoms: C_12  and  C_22
    4  A    between atoms: C_16  and  C_26
    5  A    between atoms: C_16  and  N_31
    6  A    between atoms: C_22  and  C_23
    7  A    between atoms: C_24  and  C_34
    8  A    between atoms: C_33  and  C_34
                            x       y       z     vdW  Elec       q    Type
                         _______ _______ _______ _____ _____    ______ ____

>  <TORSDO>
F 8

$$$$
=
 OpenBabel11032419293D

 36 41  0  0  1  0  0  0  0  0999 V2000
  191.0590  176.1190  138.3700 C   0  0  0  0  0  0  0  0  0  0  0  0
  188.4720  173.0830  136.8400 C   0  0  0  0  0  3  0  0  0  0  0  0
  190.3000  177.6650  141.7120 C   0  0  0  0  0  0  0  0  0  0  0  0
  187.3760  174.6230  135.3250 C   0  0  0  0  0  0  0  0  0  0  0  0
  187.0240  175.8870  134.8280 O   0  0  0  0  0  0  0  0  0  0  0  0
  188.2130  174.4100  136.4570 C   0  0  0  0  0  0  0  0  0  0  0  0
  188.0880  176.6780  137.7050 C   0  0  0  0  0  0  0  0  0  0  0  0
  191.7490  177.4690  140.6780 S   0  0  0  0  0  0  0  0  0  0  0  0
  187.4060  177.1400  135.3780 C   0  0  2  0  0  3  0  0  0  0  0  0
  188.8610  175.4850  137.2600 C   0  0  0  0  0  0  0  0  0  0  0  0
  187.0100  177.2400  136.8430 C   0  0  1  0  0  3  0  0  0  0  0  0
  187.1180  172.2660  135.0420 C   0  0  0  0  0  3  0  0  0  0  0  0
  190.6330  176.8220  139.4280 C   0  0  0  0  0  0  0  0  0  0  0  0
  189.2600  176.9320  139.7860 N   0  0  0  0  0  0  0  0  0  0  0  0
  188.2570  177.2480  138.8600 N   0  0  0  0  0  0  0  0  0  0  0  0
  186.7420  178.2530  134.5940 C   0  0  0  0  0  1  0  0  0  0  0  0
  189.1430  177.3950  141.1230 C   0  0  0  0  0  3  0  0  0  0  0  0
  186.8660  173.5450  134.6670 N   0  0  0  0  0  0  0  0  0  0  0  0
  185.7910  176.6050  137.0970 O   0  0  0  0  0  1  0  0  0  0  0  0
  187.9280  172.0110  136.1410 C   0  0  0  0  0  3  0  0  0  0  0  0
  190.1600  175.3100  137.5350 C   0  0  0  0  0  3  0  0  0  0  0  0
  190.3980  178.1020  143.1330 C   0  0  0  0  0  2  0  0  0  0  0  0
  189.9790  176.9820  144.0660 C   0  0  0  0  0  2  0  0  0  0  0  0
  187.5880  177.4280  144.5010 C   0  0  0  0  0  1  0  0  0  0  0  0
  188.9850  177.5130  145.0770 C   0  0  0  0  0  2  0  0  0  0  0  0
  192.5210  175.9390  138.1170 C   0  0  0  0  0  2  0  0  0  0  0  0
  192.7480  174.8220  137.1130 C   0  0  0  0  0  2  0  0  0  0  0  0
  192.9310  176.2650  135.2320 O   0  0  0  0  0  0  0  0  0  0  0  0
  193.4690  175.3610  135.9230 C   0  0  0  0  0  0  0  0  0  0  0  0
  194.7370  174.8330  135.5270 N   0  0  0  0  0  2  0  0  0  0  0  0
  195.4330  173.8250  136.3140 C   0  0  0  0  0  2  0  0  0  0  0  0
  195.9260  173.7540  138.7790 C   0  0  0  0  0  2  0  0  0  0  0  0
  197.6350  174.6720  137.1970 C   0  0  1  0  0  3  0  0  0  0  0  0
  197.1680  173.4580  137.9700 C   0  0  2  0  0  3  0  0  0  0  0  0
  196.1570  174.4790  137.4710 C   0  0  2  0  0  0  0  0  0  0  0  0
  198.1550  175.6190  138.0800 O   0  0  0  0  0  1  0  0  0  0  0  0
  1 13  2  0  0  0  0
  3 22  1  0  0  0  0
  4  6  1  0  0  0  0
  5  4  1  0  0  0  0
  5  9  1  0  0  0  0
  6  2  2  0  0  0  0
  6 10  1  0  0  0  0
  7 15  2  0  0  0  0
  8  3  1  0  0  0  0
  9 16  1  6  0  0  0
  9 11  1  0  0  0  0
 10 21  2  0  0  0  0
 10  7  1  0  0  0  0
 11 19  1  6  0  0  0
 11  7  1  0  0  0  0
 12 20  2  0  0  0  0
 13 14  1  0  0  0  0
 13  8  1  0  0  0  0
 14 17  1  0  0  0  0
 15 14  1  0  0  0  0
 17  3  2  0  0  0  0
 18 12  1  0  0  0  0
 18  4  2  0  0  0  0
 20  2  1  0  0  0  0
 21  1  1  0  0  0  0
 22 23  1  0  0  0  0
 23 25  1  0  0  0  0
 24 25  1  0  0  0  0
 26  1  1  0  0  0  0
 27 26  1  0  0  0  0
 28 29  2  0  0  0  0
 29 27  1  0  0  0  0
 30 29  1  0  0  0  0
 30 31  1  0  0  0  0
 33 35  1  0  0  0  0
 33 34  1  0  0  0  0
 33 36  1  1  0  0  0
 34 32  1  1  0  0  0
 35 31  1  6  0  0  0
 35 34  1  0  0  0  0
 35 32  1  0  0  0  0
M  END
>  <MODEL>
7

>  <REMARK>
 VINA RESULT:      -6.9      5.942      7.916
  Name = 
  8 active torsions:
  status: ('A' for Active; 'I' for Inactive)
    1  A    between atoms: C_1  and  C_33
    2  A    between atoms: C_3  and  C_12
    3  A    between atoms: C_12  and  C_22
    4  A    between atoms: C_16  and  C_26
    5  A    between atoms: C_16  and  N_31
    6  A    between atoms: C_22  and  C_23
    7  A    between atoms: C_24  and  C_34
    8  A    between atoms: C_33  and  C_34
                            x       y       z     vdW  Elec       q    Type
                         _______ _______ _______ _____ _____    ______ ____

>  <TORSDO>
F 8

$$$$
=
 OpenBabel11032419293D

 36 41  0  0  1  0  0  0  0  0999 V2000
  184.4170  178.3140  139.1540 C   0  0  0  0  0  0  0  0  0  0  0  0
  181.2840  175.7750  137.7420 C   0  0  0  0  0  3  0  0  0  0  0  0
  185.0610  178.5540  142.8500 C   0  0  0  0  0  0  0  0  0  0  0  0
  179.7820  177.6410  137.3820 C   0  0  0  0  0  0  0  0  0  0  0  0
  179.3370  178.9640  137.5250 O   0  0  0  0  0  0  0  0  0  0  0  0
  180.9720  177.1260  137.9710 C   0  0  0  0  0  0  0  0  0  0  0  0
  181.4500  178.8120  139.8810 C   0  0  0  0  0  0  0  0  0  0  0  0
  186.0000  178.8470  141.3530 S   0  0  0  0  0  0  0  0  0  0  0  0
  179.9650  179.9810  138.2930 C   0  0  2  0  0  3  0  0  0  0  0  0
  181.9320  177.9130  138.7950 C   0  0  0  0  0  0  0  0  0  0  0  0
  180.1580  179.5400  139.7360 C   0  0  1  0  0  3  0  0  0  0  0  0
  179.3100  175.5100  136.4140 C   0  0  0  0  0  3  0  0  0  0  0  0
  184.4600  178.5740  140.4670 C   0  0  0  0  0  0  0  0  0  0  0  0
  183.3330  178.4380  141.3250 N   0  0  0  0  0  0  0  0  0  0  0  0
  182.0730  178.9640  141.0110 N   0  0  0  0  0  0  0  0  0  0  0  0
  179.1160  181.2340  138.2520 C   0  0  0  0  0  1  0  0  0  0  0  0
  183.7540  178.4040  142.6790 C   0  0  0  0  0  3  0  0  0  0  0  0
  179.0040  176.8140  136.6310 N   0  0  0  0  0  0  0  0  0  0  0  0
  179.0930  178.7550  140.1870 O   0  0  0  0  0  1  0  0  0  0  0  0
  180.4600  174.9650  136.9700 C   0  0  0  0  0  3  0  0  0  0  0  0
  183.2270  177.7660  138.4880 C   0  0  0  0  0  3  0  0  0  0  0  0
  185.7110  178.4860  144.1890 C   0  0  0  0  0  2  0  0  0  0  0  0
  184.7110  178.8040  145.2850 C   0  0  0  0  0  2  0  0  0  0  0  0
  186.6020  177.7090  146.4390 C   0  0  0  0  0  1  0  0  0  0  0  0
  185.3300  178.5060  146.6330 C   0  0  0  0  0  2  0  0  0  0  0  0
  185.6630  178.3560  138.3300 C   0  0  0  0  0  2  0  0  0  0  0  0
  185.7210  177.1560  137.3990 C   0  0  0  0  0  2  0  0  0  0  0  0
  186.4370  177.9070  135.2600 O   0  0  0  0  0  0  0  0  0  0  0  0
  186.7640  177.3840  136.3570 C   0  0  0  0  0  0  0  0  0  0  0  0
  188.1170  176.9740  136.5660 N   0  0  0  0  0  2  0  0  0  0  0  0
  188.5670  176.4130  137.8320 C   0  0  0  0  0  2  0  0  0  0  0  0
  189.1910  178.5800  138.9450 C   0  0  0  0  0  2  0  0  0  0  0  0
  190.5090  176.5090  139.4340 C   0  0  1  0  0  3  0  0  0  0  0  0
  189.3840  177.4130  139.8870 C   0  0  2  0  0  3  0  0  0  0  0  0
  189.6870  177.2560  138.4040 C   0  0  2  0  0  0  0  0  0  0  0  0
  191.7320  177.1550  139.6150 O   0  0  0  0  0  1  0  0  0  0  0  0
  1 13  2  0  0  0  0
  2  6  2  0  0  0  0
  3 22  1  0  0  0  0
  4  5  1  0  0  0  0
  4  6  1  0  0  0  0
  5  9  1  0  0  0  0
  6 10  1  0  0  0  0
  7 15  2  0  0  0  0
  8  3  1  0  0  0  0
  9 16  1  1  0  0  0
  9 11  1  0  0  0  0
 10  7  1  0  0  0  0
 11  7  1  0  0  0  0
 11 19  1  6  0  0  0
 12 18  1  0  0  0  0
 12 20  2  0  0  0  0
 13 14  1  0  0  0  0
 13  8  1  0  0  0  0
 14 17  1  0  0  0  0
 15 14  1  0  0  0  0
 17  3  2  0  0  0  0
 18  4  2  0  0  0  0
 20  2  1  0  0  0  0
 21 10  2  0  0  0  0
 21  1  1  0  0  0  0
 22 23  1  0  0  0  0
 23 25  1  0  0  0  0
 24 25  1  0  0  0  0
 26  1  1  0  0  0  0
 27 26  1  0  0  0  0
 28 29  2  0  0  0  0
 29 30  1  0  0  0  0
 29 27  1  0  0  0  0
 30 31  1  0  0  0  0
 33 36  1  1  0  0  0
 33 34  1  0  0  0  0
 34 32  1  1  0  0  0
 35 31  1  6  0  0  0
 35 32  1  0  0  0  0
 35 33  1  0  0  0  0
 35 34  1  0  0  0  0
M  END
>  <MODEL>
8

>  <REMARK>
 VINA RESULT:      -6.8      2.444      3.281
  Name = 
  8 active torsions:
  status: ('A' for Active; 'I' for Inactive)
    1  A    between atoms: C_1  and  C_33
    2  A    between atoms: C_3  and  C_12
    3  A    between atoms: C_12  and  C_22
    4  A    between atoms: C_16  and  C_26
    5  A    between atoms: C_16  and  N_31
    6  A    between atoms: C_22  and  C_23
    7  A    between atoms: C_24  and  C_34
    8  A    between atoms: C_33  and  C_34
                            x       y       z     vdW  Elec       q    Type
                         _______ _______ _______ _____ _____    ______ ____

>  <TORSDO>
F 8

$$$$
=
 OpenBabel11032419293D

 36 41  0  0  1  0  0  0  0  0999 V2000
  186.8600  176.5680  137.2750 C   0  0  0  0  0  0  0  0  0  0  0  0
  189.9690  176.8850  140.1880 C   0  0  0  0  0  3  0  0  0  0  0  0
  185.0500  173.2980  136.8690 C   0  0  0  0  0  0  0  0  0  0  0  0
  191.7100  176.6950  138.5140 C   0  0  0  0  0  0  0  0  0  0  0  0
  192.2310  176.3930  137.2480 O   0  0  0  0  0  0  0  0  0  0  0  0
  190.3400  176.5460  138.8760 C   0  0  0  0  0  0  0  0  0  0  0  0
  189.4500  174.8820  137.0990 C   0  0  0  0  0  0  0  0  0  0  0  0
  184.7060  175.0180  136.5100 S   0  0  0  0  0  0  0  0  0  0  0  0
  191.5040  175.8650  136.1470 C   0  0  2  0  0  3  0  0  0  0  0  0
  189.2580  176.0790  137.9640 C   0  0  0  0  0  0  0  0  0  0  0  0
  190.7910  174.5770  136.5250 C   0  0  1  0  0  3  0  0  0  0  0  0
  192.2290  177.4790  140.7100 C   0  0  0  0  0  3  0  0  0  0  0  0
  186.4110  175.3410  136.9780 C   0  0  0  0  0  0  0  0  0  0  0  0
  187.1630  174.1580  137.2190 N   0  0  0  0  0  0  0  0  0  0  0  0
  188.5070  174.0240  136.8480 N   0  0  0  0  0  0  0  0  0  0  0  0
  192.4570  175.6010  134.9990 C   0  0  0  0  0  1  0  0  0  0  0  0
  186.3120  173.0230  137.1700 C   0  0  0  0  0  3  0  0  0  0  0  0
  192.5930  177.1540  139.4430 N   0  0  0  0  0  0  0  0  0  0  0  0
  191.5460  173.8060  137.4140 O   0  0  0  0  0  1  0  0  0  0  0  0
  190.9040  177.3480  141.1060 C   0  0  0  0  0  3  0  0  0  0  0  0
  188.1320  176.8040  137.9710 C   0  0  0  0  0  3  0  0  0  0  0  0
  183.9870  172.2540  136.8290 C   0  0  0  0  0  2  0  0  0  0  0  0
  184.3950  171.1110  135.9190 C   0  0  0  0  0  2  0  0  0  0  0  0
  182.1310  170.2740  135.3920 C   0  0  0  0  0  1  0  0  0  0  0  0
  183.4320  169.9570  136.0980 C   0  0  0  0  0  2  0  0  0  0  0  0
  185.9740  177.7610  137.1120 C   0  0  0  0  0  2  0  0  0  0  0  0
  185.7960  178.4700  138.4440 C   0  0  0  0  0  2  0  0  0  0  0  0
  183.4940  178.0300  138.0410 O   0  0  0  0  0  0  0  0  0  0  0  0
  184.3730  178.3590  138.8800 C   0  0  0  0  0  0  0  0  0  0  0  0
  183.9860  178.6680  140.2210 N   0  0  0  0  0  2  0  0  0  0  0  0
  184.9620  179.0030  141.2480 C   0  0  0  0  0  2  0  0  0  0  0  0
  185.7280  177.8740  143.3600 C   0  0  0  0  0  2  0  0  0  0  0  0
  183.7050  179.3470  143.4040 C   0  0  1  0  0  3  0  0  0  0  0  0
  185.1950  179.2590  143.6500 C   0  0  2  0  0  3  0  0  0  0  0  0
  184.5470  178.4010  142.5730 C   0  0  2  0  0  0  0  0  0  0  0  0
  183.0240  178.6280  144.3860 O   0  0  0  0  0  1  0  0  0  0  0  0
  1 21  1  0  0  0  0
  2 20  1  0  0  0  0
  3 17  2  0  0  0  0
  4  6  1  0  0  0  0
  4 18  2  0  0  0  0
  5  4  1  0  0  0  0
  6  2  2  0  0  0  0
  7 10  1  0  0  0  0
  8  3  1  0  0  0  0
  8 13  1  0  0  0  0
  9 16  1  6  0  0  0
  9 11  1  0  0  0  0
  9  5  1  0  0  0  0
 10 21  2  0  0  0  0
 10  6  1  0  0  0  0
 11  7  1  0  0  0  0
 11 19  1  1  0  0  0
 12 20  2  0  0  0  0
 13 14  1  0  0  0  0
 13  1  2  0  0  0  0
 15  7  2  0  0  0  0
 15 14  1  0  0  0  0
 17 14  1  0  0  0  0
 18 12  1  0  0  0  0
 22  3  1  0  0  0  0
 23 25  1  0  0  0  0
 23 22  1  0  0  0  0
 24 25  1  0  0  0  0
 26  1  1  0  0  0  0
 26 27  1  0  0  0  0
 27 29  1  0  0  0  0
 28 29  2  0  0  0  0
 29 30  1  0  0  0  0
 30 31  1  0  0  0  0
 33 34  1  0  0  0  0
 33 36  1  1  0  0  0
 34 32  1  1  0  0  0
 35 31  1  6  0  0  0
 35 32  1  0  0  0  0
 35 33  1  0  0  0  0
 35 34  1  0  0  0  0
M  END
>  <MODEL>
9

>  <REMARK>
 VINA RESULT:      -6.8      4.528      9.831
  Name = 
  8 active torsions:
  status: ('A' for Active; 'I' for Inactive)
    1  A    between atoms: C_1  and  C_33
    2  A    between atoms: C_3  and  C_12
    3  A    between atoms: C_12  and  C_22
    4  A    between atoms: C_16  and  C_26
    5  A    between atoms: C_16  and  N_31
    6  A    between atoms: C_22  and  C_23
    7  A    between atoms: C_24  and  C_34
    8  A    between atoms: C_33  and  C_34
                            x       y       z     vdW  Elec       q    Type
                         _______ _______ _______ _____ _____    ______ ____

>  <TORSDO>
F 8

$$$$
