=
 OpenBabel11042412413D

 43 46  0  0  1  0  0  0  0  0999 V2000
  188.5390  176.9620  143.3880 C   0  0  2  0  0  3  0  0  0  0  0  0
  189.3550  177.1630  141.5640 C   0  0  1  0  0  3  0  0  0  0  0  0
  189.4800  178.0010  142.8150 C   0  0  2  0  0  3  0  0  0  0  0  0
  188.4630  176.2590  142.1740 O   0  0  0  0  0  0  0  0  0  0  0  0
  186.8180  177.7350  145.0920 C   0  0  0  0  0  3  0  0  0  0  0  0
  184.7070  178.6650  144.3600 C   0  0  0  0  0  3  0  0  0  0  0  0
  185.5770  178.2970  145.3940 C   0  0  0  0  0  0  0  0  0  0  0  0
  185.0770  178.4750  143.0270 C   0  0  0  0  0  0  0  0  0  0  0  0
  185.1870  178.5180  146.8130 C   0  0  0  0  0  1  0  0  0  0  0  0
  186.3270  177.9110  142.7310 C   0  0  0  0  0  3  0  0  0  0  0  0
  187.1970  177.5300  143.7550 C   0  0  0  0  0  0  0  0  0  0  0  0
  184.1770  178.8750  141.9870 N   0  0  0  0  0  2  0  0  0  0  0  0
  184.5430  178.9590  139.5800 C   0  0  0  0  0  1  0  0  0  0  0  0
  184.0050  178.1380  140.7390 C   0  0  2  0  0  3  0  0  0  0  0  0
  182.5630  177.7750  140.5160 C   0  0  0  0  0  0  0  0  0  0  0  0
  182.2430  176.6540  139.8690 C   0  0  0  0  0  2  0  0  0  0  0  0
  181.5080  178.6900  140.9850 C   0  0  0  0  0  0  0  0  0  0  0  0
  180.9020  178.4710  142.0680 O   0  0  0  0  0  1  0  0  0  0  0  0
  181.1640  179.8030  140.2260 O   0  0  0  0  0  0  0  0  0  0  0  0
  190.8490  177.8630  143.4120 C   0  0  0  0  0  0  0  0  0  0  0  0
  191.8640  177.8710  142.6610 O   0  0  0  0  0  0  0  0  0  0  0  0
  190.9890  177.6480  144.8210 N   0  0  0  0  0  0  0  0  0  0  0  0
  191.5890  176.6100  145.3050 C   0  0  0  0  0  3  0  0  0  0  0  0
  191.7050  176.4360  146.7770 C   0  0  0  0  0  1  0  0  0  0  0  0
  188.6480  177.9680  140.4760 C   0  0  0  0  0  2  0  0  0  0  0  0
  189.5440  178.1270  139.2590 C   0  0  2  0  0  3  0  0  0  0  0  0
  189.0440  179.2110  138.3190 C   0  0  0  0  0  1  0  0  0  0  0  0
  191.1620  174.9410  137.9000 N   0  0  0  0  0  0  0  0  0  0  0  0
  186.9620  175.8980  136.7290 C   0  0  0  0  0  0  0  0  0  0  0  0
  187.5470  176.7750  137.5780 N   0  0  0  0  0  2  0  0  0  0  0  0
  190.3460  173.1970  136.4360 N   0  0  0  0  0  1  0  0  0  0  0  0
  188.7650  176.2540  137.7990 C   0  0  0  0  0  0  0  0  0  0  0  0
  190.1500  174.4090  137.1570 C   0  0  0  0  0  0  0  0  0  0  0  0
  189.7820  176.8040  138.5840 C   0  0  0  0  0  0  0  0  0  0  0  0
  187.7890  174.8260  136.3950 C   0  0  0  0  0  3  0  0  0  0  0  0
  191.0220  176.1120  138.5990 C   0  0  0  0  0  0  0  0  0  0  0  0
  188.9400  175.0920  137.1050 C   0  0  0  0  0  0  0  0  0  0  0  0
  192.2050  176.6400  139.3400 C   0  0  0  0  0  1  0  0  0  0  0  0
  185.6090  176.1240  136.1540 C   0  0  0  0  0  2  0  0  0  0  0  0
  184.5610  175.9520  137.2400 C   0  0  0  0  0  2  0  0  0  0  0  0
  183.7970  174.6530  137.0390 C   0  0  0  0  0  2  0  0  0  0  0  0
  184.4730  173.5230  137.7470 C   0  0  0  0  0  3  0  0  0  0  0  0
  184.6820  172.3540  137.1420 C   0  0  0  0  0  2  0  0  0  0  0  0
  1 11  1  6  0  0  0
  2 25  1  6  0  0  0
  2  4  1  0  0  0  0
  2  3  1  0  0  0  0
  3  1  1  0  0  0  0
  3 20  1  1  0  0  0
  4  1  1  0  0  0  0
  5  7  1  0  0  0  0
  6  7  2  0  0  0  0
  7  9  1  0  0  0  0
  8  6  1  0  0  0  0
 10  8  2  0  0  0  0
 10 11  1  0  0  0  0
 11  5  2  0  0  0  0
 12  8  1  0  0  0  0
 14 13  1  6  0  0  0
 14 12  1  0  0  0  0
 15 14  1  0  0  0  0
 15 17  1  0  0  0  0
 16 15  2  0  0  0  0
 17 18  1  0  0  0  0
 19 17  2  0  0  0  0
 20 22  1  0  0  0  0
 21 20  2  0  0  0  0
 22 23  2  0  0  0  0
 23 24  1  0  0  0  0
 26 27  1  6  0  0  0
 26 25  1  0  0  0  0
 28 36  1  0  0  0  0
 29 30  1  0  0  0  0
 30 32  1  0  0  0  0
 31 33  1  0  0  0  0
 32 34  1  0  0  0  0
 33 28  2  0  0  0  0
 34 36  2  0  0  0  0
 34 26  1  0  0  0  0
 35 29  2  0  0  0  0
 35 37  1  0  0  0  0
 36 38  1  0  0  0  0
 37 33  1  0  0  0  0
 37 32  2  0  0  0  0
 39 29  1  0  0  0  0
 39 40  1  0  0  0  0
 41 40  1  0  0  0  0
 41 42  1  0  0  0  0
 43 42  2  0  0  0  0
M  END
>  <MODEL>
1

>  <REMARK>
 VINA RESULT:      -8.2      0.000      0.000
  Name = 
  14 active torsions:
  status: ('A' for Active; 'I' for Inactive)
    1  A    between atoms: N_2  and  C_3
    2  A    between atoms: C_3  and  C_24
    3  A    between atoms: C_4  and  C_16
    4  A    between atoms: C_4  and  C_34
    5  A    between atoms: C_5  and  C_10
    6  A    between atoms: C_5  and  C_18
    7  A    between atoms: C_7  and  C_41
    8  A    between atoms: C_8  and  C_13
    9  A    between atoms: C_8  and  C_39
   10  A    between atoms: C_9  and  C_11
   11  A    between atoms: C_9  and  C_39
   12  A    between atoms: C_18  and  N_43
   13  A    between atoms: C_26  and  C_34
   14  A    between atoms: C_33  and  N_43
                            x       y       z     vdW  Elec       q    Type
                         _______ _______ _______ _____ _____    ______ ____

>  <TORSDO>
F 14

$$$$
=
 OpenBabel11042412413D

 43 46  0  0  1  0  0  0  0  0999 V2000
  189.0850  177.8320  138.3180 C   0  0  2  0  0  3  0  0  0  0  0  0
  189.0420  178.2220  140.2890 C   0  0  1  0  0  3  0  0  0  0  0  0
  189.5730  177.0390  139.5130 C   0  0  2  0  0  3  0  0  0  0  0  0
  188.5980  178.8760  139.1220 O   0  0  0  0  0  0  0  0  0  0  0  0
  188.1650  176.0080  136.8060 C   0  0  0  0  0  3  0  0  0  0  0  0
  185.7960  175.9040  136.3210 C   0  0  0  0  0  3  0  0  0  0  0  0
  187.0890  175.3870  136.1710 C   0  0  0  0  0  0  0  0  0  0  0  0
  185.5780  177.0380  137.1060 C   0  0  0  0  0  0  0  0  0  0  0  0
  187.3150  174.1670  135.3500 C   0  0  0  0  0  1  0  0  0  0  0  0
  186.6640  177.6560  137.7420 C   0  0  0  0  0  3  0  0  0  0  0  0
  187.9590  177.1550  137.5900 C   0  0  0  0  0  0  0  0  0  0  0  0
  184.2440  177.5380  137.2580 N   0  0  0  0  0  2  0  0  0  0  0  0
  182.9150  176.2380  138.8310 C   0  0  0  0  0  1  0  0  0  0  0  0
  183.5400  177.5900  138.5350 C   0  0  2  0  0  3  0  0  0  0  0  0
  182.5000  178.6750  138.5410 C   0  0  0  0  0  0  0  0  0  0  0  0
  181.2190  178.3820  138.3150 C   0  0  0  0  0  2  0  0  0  0  0  0
  182.9170  180.0710  138.7610 C   0  0  0  0  0  0  0  0  0  0  0  0
  182.0880  181.0140  138.6520 O   0  0  0  0  0  0  0  0  0  0  0  0
  184.2380  180.3600  139.0820 O   0  0  0  0  0  1  0  0  0  0  0  0
  191.0720  177.0070  139.5520 C   0  0  0  0  0  0  0  0  0  0  0  0
  191.6820  177.4360  140.5720 O   0  0  0  0  0  0  0  0  0  0  0  0
  191.8020  176.5620  138.4030 N   0  0  0  0  0  0  0  0  0  0  0  0
  191.7310  175.3470  137.9670 C   0  0  0  0  0  3  0  0  0  0  0  0
  192.5120  174.9400  136.7700 C   0  0  0  0  0  1  0  0  0  0  0  0
  187.8570  177.7830  141.1470 C   0  0  0  0  0  2  0  0  0  0  0  0
  188.2910  177.5530  142.5840 C   0  0  2  0  0  3  0  0  0  0  0  0
  188.9300  176.1880  142.7780 C   0  0  0  0  0  1  0  0  0  0  0  0
  184.9280  178.5550  144.1000 N   0  0  0  0  0  0  0  0  0  0  0  0
  188.3330  177.6200  146.8300 C   0  0  0  0  0  0  0  0  0  0  0  0
  188.5910  177.4900  145.5070 N   0  0  0  0  0  0  0  0  0  0  0  0
  184.1830  178.8100  146.3880 N   0  0  0  0  0  1  0  0  0  0  0  0
  187.4220  177.7860  144.9160 C   0  0  0  0  0  0  0  0  0  0  0  0
  185.1900  178.4800  145.4360 C   0  0  2  0  0  3  0  0  0  0  0  0
  187.1670  177.8360  143.5420 C   0  0  0  0  0  0  0  0  0  0  0  0
  187.0190  178.0030  147.0960 C   0  0  0  0  0  3  0  0  0  0  0  0
  185.8700  178.2600  143.1490 C   0  0  0  0  0  0  0  0  0  0  0  0
  186.4650  178.0990  145.8370 C   0  0  0  0  0  0  0  0  0  0  0  0
  185.5010  178.4220  141.7120 C   0  0  0  0  0  1  0  0  0  0  0  0
  189.3850  177.4540  147.8690 C   0  0  0  0  0  2  0  0  0  0  0  0
  190.7520  177.4250  147.2060 C   0  0  0  0  0  2  0  0  0  0  0  0
  191.4680  176.1230  147.5250 C   0  0  0  0  0  2  0  0  0  0  0  0
  192.0570  175.5220  146.2890 C   0  0  0  0  0  3  0  0  0  0  0  0
  191.8500  176.0650  145.0900 C   0  0  0  0  0  2  0  0  0  0  0  0
  1 11  1  1  0  0  0
  1  4  1  0  0  0  0
  1  3  1  0  0  0  0
  2 25  1  1  0  0  0
  3 20  1  6  0  0  0
  3  2  1  0  0  0  0
  4  2  1  0  0  0  0
  5 11  1  0  0  0  0
  6  8  2  0  0  0  0
  7  6  1  0  0  0  0
  7  5  2  0  0  0  0
  8 12  1  0  0  0  0
  8 10  1  0  0  0  0
  9  7  1  0  0  0  0
 11 10  2  0  0  0  0
 12 14  1  0  0  0  0
 14 15  1  0  0  0  0
 14 13  1  6  0  0  0
 15 17  1  0  0  0  0
 16 15  2  0  0  0  0
 17 19  1  0  0  0  0
 18 17  2  0  0  0  0
 20 21  2  0  0  0  0
 22 20  1  0  0  0  0
 23 22  2  0  0  0  0
 24 23  1  0  0  0  0
 25 26  1  0  0  0  0
 26 27  1  6  0  0  0
 26 34  1  0  0  0  0
 28 33  1  0  0  0  0
 29 35  1  0  0  0  0
 29 39  1  0  0  0  0
 30 29  2  0  0  0  0
 32 30  1  0  0  0  0
 32 37  1  0  0  0  0
 33 37  1  0  0  0  0
 33 31  1  6  0  0  0
 34 32  2  0  0  0  0
 36 34  1  0  0  0  0
 36 28  2  0  0  0  0
 37 35  2  0  0  0  0
 38 36  1  0  0  0  0
 40 41  1  0  0  0  0
 40 39  1  0  0  0  0
 42 41  1  0  0  0  0
 43 42  2  0  0  0  0
M  END
>  <MODEL>
2

>  <REMARK>
 VINA RESULT:      -7.9      2.004      7.759
  Name = 
  14 active torsions:
  status: ('A' for Active; 'I' for Inactive)
    1  A    between atoms: N_2  and  C_3
    2  A    between atoms: C_3  and  C_24
    3  A    between atoms: C_4  and  C_16
    4  A    between atoms: C_4  and  C_34
    5  A    between atoms: C_5  and  C_10
    6  A    between atoms: C_5  and  C_18
    7  A    between atoms: C_7  and  C_41
    8  A    between atoms: C_8  and  C_13
    9  A    between atoms: C_8  and  C_39
   10  A    between atoms: C_9  and  C_11
   11  A    between atoms: C_9  and  C_39
   12  A    between atoms: C_18  and  N_43
   13  A    between atoms: C_26  and  C_34
   14  A    between atoms: C_33  and  N_43
                            x       y       z     vdW  Elec       q    Type
                         _______ _______ _______ _____ _____    ______ ____

>  <TORSDO>
F 14

$$$$
=
 OpenBabel11042412413D

 43 46  0  0  1  0  0  0  0  0999 V2000
  185.4920  179.1940  142.4650 C   0  0  2  0  0  3  0  0  0  0  0  0
  183.7410  178.6810  141.6240 C   0  0  1  0  0  3  0  0  0  0  0  0
  184.3860  178.2670  142.9250 C   0  0  2  0  0  3  0  0  0  0  0  0
  184.8280  179.5030  141.2670 O   0  0  0  0  0  0  0  0  0  0  0  0
  187.2920  178.3440  140.8850 C   0  0  0  0  0  3  0  0  0  0  0  0
  189.2270  177.1790  141.7520 C   0  0  0  0  0  3  0  0  0  0  0  0
  188.5090  177.6970  140.6680 C   0  0  0  0  0  0  0  0  0  0  0  0
  188.7330  177.3090  143.0520 C   0  0  0  0  0  0  0  0  0  0  0  0
  189.0480  177.5730  139.2860 C   0  0  0  0  0  1  0  0  0  0  0  0
  187.5100  177.9620  143.2620 C   0  0  0  0  0  3  0  0  0  0  0  0
  186.7800  178.4720  142.1860 C   0  0  0  0  0  0  0  0  0  0  0  0
  189.4950  176.7850  144.1460 N   0  0  0  0  0  2  0  0  0  0  0  0
  191.5860  177.9390  144.6220 C   0  0  0  0  0  1  0  0  0  0  0  0
  190.1880  177.6200  145.1220 C   0  0  2  0  0  3  0  0  0  0  0  0
  190.2380  176.9570  146.4700 C   0  0  0  0  0  0  0  0  0  0  0  0
  189.1350  176.8560  147.2120 C   0  0  0  0  0  2  0  0  0  0  0  0
  191.5260  176.4560  146.9790 C   0  0  0  0  0  0  0  0  0  0  0  0
  192.0810  176.9980  147.9720 O   0  0  0  0  0  1  0  0  0  0  0  0
  192.1490  175.3800  146.3560 O   0  0  0  0  0  0  0  0  0  0  0  0
  183.6530  178.8550  144.0940 C   0  0  0  0  0  0  0  0  0  0  0  0
  182.4030  179.0300  144.0260 O   0  0  0  0  0  0  0  0  0  0  0  0
  184.3850  179.2840  145.2480 N   0  0  0  0  0  0  0  0  0  0  0  0
  185.1020  178.4720  145.9530 C   0  0  0  0  0  3  0  0  0  0  0  0
  185.8400  178.9720  147.1420 C   0  0  0  0  0  1  0  0  0  0  0  0
  183.6450  177.4760  140.6920 C   0  0  0  0  0  2  0  0  0  0  0  0
  183.1750  177.9020  139.3110 C   0  0  2  0  0  3  0  0  0  0  0  0
  181.7780  178.4970  139.3410 C   0  0  0  0  0  1  0  0  0  0  0  0
  182.7930  174.6240  137.3810 N   0  0  0  0  0  0  0  0  0  0  0  0
  186.1640  177.3590  136.3450 C   0  0  0  0  0  0  0  0  0  0  0  0
  185.3360  177.7970  137.3220 N   0  0  0  0  0  2  0  0  0  0  0  0
  184.0740  173.6340  135.5830 N   0  0  0  0  0  1  0  0  0  0  0  0
  184.4060  176.8320  137.4170 C   0  0  0  0  0  0  0  0  0  0  0  0
  183.8300  174.6970  136.4980 C   0  0  0  0  0  0  0  0  0  0  0  0
  183.3360  176.7860  138.3150 C   0  0  0  0  0  0  0  0  0  0  0  0
  185.7870  176.1250  135.8180 C   0  0  0  0  0  3  0  0  0  0  0  0
  182.5300  175.6180  138.2880 C   0  0  0  0  0  0  0  0  0  0  0  0
  184.6490  175.8200  136.5350 C   0  0  0  0  0  0  0  0  0  0  0  0
  181.4030  175.4200  139.2470 C   0  0  0  0  0  1  0  0  0  0  0  0
  187.3970  178.0960  135.9550 C   0  0  0  0  0  2  0  0  0  0  0  0
  187.9630  177.4980  134.6780 C   0  0  0  0  0  2  0  0  0  0  0  0
  189.4800  177.4290  134.7520 C   0  0  0  0  0  2  0  0  0  0  0  0
  189.9200  176.5810  135.9030 C   0  0  0  0  0  3  0  0  0  0  0  0
  189.7740  175.2570  135.8820 C   0  0  0  0  0  2  0  0  0  0  0  0
  1 11  1  6  0  0  0
  1  3  1  0  0  0  0
  2 25  1  6  0  0  0
  2  3  1  0  0  0  0
  3 20  1  1  0  0  0
  4  2  1  0  0  0  0
  4  1  1  0  0  0  0
  5 11  1  0  0  0  0
  6  8  2  0  0  0  0
  7  5  2  0  0  0  0
  7  6  1  0  0  0  0
  8 10  1  0  0  0  0
  8 12  1  0  0  0  0
  9  7  1  0  0  0  0
 11 10  2  0  0  0  0
 12 14  1  0  0  0  0
 14 13  1  6  0  0  0
 14 15  1  0  0  0  0
 15 17  1  0  0  0  0
 15 16  2  0  0  0  0
 17 18  1  0  0  0  0
 19 17  2  0  0  0  0
 20 22  1  0  0  0  0
 21 20  2  0  0  0  0
 22 23  2  0  0  0  0
 23 24  1  0  0  0  0
 26 27  1  1  0  0  0
 26 25  1  0  0  0  0
 28 36  1  0  0  0  0
 29 30  1  0  0  0  0
 30 32  1  0  0  0  0
 31 33  1  0  0  0  0
 32 34  1  0  0  0  0
 33 37  1  0  0  0  0
 33 28  2  0  0  0  0
 34 26  1  0  0  0  0
 35 29  2  0  0  0  0
 35 37  1  0  0  0  0
 36 34  2  0  0  0  0
 36 38  1  0  0  0  0
 37 32  2  0  0  0  0
 39 29  1  0  0  0  0
 40 41  1  0  0  0  0
 40 39  1  0  0  0  0
 41 42  1  0  0  0  0
 43 42  2  0  0  0  0
M  END
>  <MODEL>
3

>  <REMARK>
 VINA RESULT:      -7.9      2.374      7.001
  Name = 
  14 active torsions:
  status: ('A' for Active; 'I' for Inactive)
    1  A    between atoms: N_2  and  C_3
    2  A    between atoms: C_3  and  C_24
    3  A    between atoms: C_4  and  C_16
    4  A    between atoms: C_4  and  C_34
    5  A    between atoms: C_5  and  C_10
    6  A    between atoms: C_5  and  C_18
    7  A    between atoms: C_7  and  C_41
    8  A    between atoms: C_8  and  C_13
    9  A    between atoms: C_8  and  C_39
   10  A    between atoms: C_9  and  C_11
   11  A    between atoms: C_9  and  C_39
   12  A    between atoms: C_18  and  N_43
   13  A    between atoms: C_26  and  C_34
   14  A    between atoms: C_33  and  N_43
                            x       y       z     vdW  Elec       q    Type
                         _______ _______ _______ _____ _____    ______ ____

>  <TORSDO>
F 14

$$$$
=
 OpenBabel11042412413D

 43 46  0  0  1  0  0  0  0  0999 V2000
  186.0330  179.2310  141.7450 C   0  0  2  0  0  3  0  0  0  0  0  0
  184.1560  178.7690  141.1950 C   0  0  1  0  0  3  0  0  0  0  0  0
  185.0220  178.2640  142.3250 C   0  0  2  0  0  3  0  0  0  0  0  0
  185.1670  179.6230  140.7100 O   0  0  0  0  0  0  0  0  0  0  0  0
  187.4530  178.4070  139.8050 C   0  0  0  0  0  3  0  0  0  0  0  0
  189.5700  177.3100  140.2210 C   0  0  0  0  0  3  0  0  0  0  0  0
  188.6090  177.7910  139.3230 C   0  0  0  0  0  0  0  0  0  0  0  0
  189.3790  177.4470  141.5980 C   0  0  0  0  0  0  0  0  0  0  0  0
  188.8250  177.6600  137.8570 C   0  0  0  0  0  1  0  0  0  0  0  0
  188.2160  178.0690  142.0750 C   0  0  0  0  0  3  0  0  0  0  0  0
  187.2460  178.5420  141.1880 C   0  0  0  0  0  0  0  0  0  0  0  0
  190.3840  176.9620  142.4960 N   0  0  0  0  0  2  0  0  0  0  0  0
  191.3350  178.7920  143.7920 C   0  0  0  0  0  1  0  0  0  0  0  0
  190.5780  177.4780  143.8480 C   0  0  2  0  0  3  0  0  0  0  0  0
  191.2960  176.4800  144.7140 C   0  0  0  0  0  0  0  0  0  0  0  0
  191.8460  175.3930  144.1750 C   0  0  0  0  0  2  0  0  0  0  0  0
  191.3510  176.6990  146.1700 C   0  0  0  0  0  0  0  0  0  0  0  0
  192.3570  176.3360  146.8370 O   0  0  0  0  0  1  0  0  0  0  0  0
  190.2830  177.3020  146.8240 O   0  0  0  0  0  0  0  0  0  0  0  0
  184.5120  178.7590  143.6460 C   0  0  0  0  0  0  0  0  0  0  0  0
  183.3700  179.2940  143.7170 O   0  0  0  0  0  0  0  0  0  0  0  0
  185.3560  178.6920  144.8020 N   0  0  0  0  0  0  0  0  0  0  0  0
  186.1340  177.6850  145.0320 C   0  0  0  0  0  3  0  0  0  0  0  0
  186.9880  177.6670  146.2480 C   0  0  0  0  0  1  0  0  0  0  0  0
  183.8880  177.6350  140.2080 C   0  0  0  0  0  2  0  0  0  0  0  0
  182.4130  177.2710  140.1970 C   0  0  2  0  0  3  0  0  0  0  0  0
  182.1660  175.9010  139.5870 C   0  0  0  0  0  1  0  0  0  0  0  0
  179.9420  180.1340  139.6380 N   0  0  0  0  0  0  0  0  0  0  0  0
  181.9450  178.2900  136.1010 C   0  0  0  0  0  0  0  0  0  0  0  0
  182.3030  177.7850  137.3050 N   0  0  0  0  0  2  0  0  0  0  0  0
  179.1690  181.2520  137.6360 N   0  0  0  0  0  1  0  0  0  0  0  0
  181.6040  178.5170  138.1870 C   0  0  0  0  0  0  0  0  0  0  0  0
  179.9860  180.2810  138.2830 C   0  0  0  0  0  0  0  0  0  0  0  0
  181.5890  178.3660  139.5770 C   0  0  0  0  0  0  0  0  0  0  0  0
  181.0200  179.3290  136.1960 C   0  0  0  0  0  3  0  0  0  0  0  0
  180.7000  179.2040  140.3010 C   0  0  0  0  0  0  0  0  0  0  0  0
  180.8270  179.4450  137.5560 C   0  0  0  0  0  0  0  0  0  0  0  0
  180.5420  179.0860  141.7800 C   0  0  0  0  0  1  0  0  0  0  0  0
  182.4330  177.7170  134.8180 C   0  0  0  0  0  2  0  0  0  0  0  0
  183.3840  176.5680  135.1040 C   0  0  0  0  0  2  0  0  0  0  0  0
  184.8160  176.9740  134.7960 C   0  0  0  0  0  2  0  0  0  0  0  0
  185.7640  176.3870  135.7930 C   0  0  0  0  0  3  0  0  0  0  0  0
  185.5320  176.4740  137.1020 C   0  0  0  0  0  2  0  0  0  0  0  0
  1 11  1  6  0  0  0
  1  3  1  0  0  0  0
  2 25  1  6  0  0  0
  2  3  1  0  0  0  0
  3 20  1  1  0  0  0
  4  2  1  0  0  0  0
  4  1  1  0  0  0  0
  5 11  1  0  0  0  0
  6  8  2  0  0  0  0
  7  5  2  0  0  0  0
  7  6  1  0  0  0  0
  8 10  1  0  0  0  0
  8 12  1  0  0  0  0
  9  7  1  0  0  0  0
 11 10  2  0  0  0  0
 12 14  1  0  0  0  0
 14 13  1  6  0  0  0
 14 15  1  0  0  0  0
 15 17  1  0  0  0  0
 16 15  2  0  0  0  0
 17 19  2  0  0  0  0
 17 18  1  0  0  0  0
 20 21  2  0  0  0  0
 20 22  1  0  0  0  0
 22 23  2  0  0  0  0
 23 24  1  0  0  0  0
 26 27  1  6  0  0  0
 26 25  1  0  0  0  0
 28 36  1  0  0  0  0
 29 35  2  0  0  0  0
 29 30  1  0  0  0  0
 30 32  1  0  0  0  0
 31 33  1  0  0  0  0
 32 34  1  0  0  0  0
 33 28  2  0  0  0  0
 34 26  1  0  0  0  0
 34 36  2  0  0  0  0
 35 37  1  0  0  0  0
 36 38  1  0  0  0  0
 37 32  2  0  0  0  0
 37 33  1  0  0  0  0
 39 40  1  0  0  0  0
 39 29  1  0  0  0  0
 41 40  1  0  0  0  0
 41 42  1  0  0  0  0
 42 43  2  0  0  0  0
M  END
>  <MODEL>
4

>  <REMARK>
 VINA RESULT:      -7.8      2.661      7.797
  Name = 
  14 active torsions:
  status: ('A' for Active; 'I' for Inactive)
    1  A    between atoms: N_2  and  C_3
    2  A    between atoms: C_3  and  C_24
    3  A    between atoms: C_4  and  C_16
    4  A    between atoms: C_4  and  C_34
    5  A    between atoms: C_5  and  C_10
    6  A    between atoms: C_5  and  C_18
    7  A    between atoms: C_7  and  C_41
    8  A    between atoms: C_8  and  C_13
    9  A    between atoms: C_8  and  C_39
   10  A    between atoms: C_9  and  C_11
   11  A    between atoms: C_9  and  C_39
   12  A    between atoms: C_18  and  N_43
   13  A    between atoms: C_26  and  C_34
   14  A    between atoms: C_33  and  N_43
                            x       y       z     vdW  Elec       q    Type
                         _______ _______ _______ _____ _____    ______ ____

>  <TORSDO>
F 14

$$$$
=
 OpenBabel11042412413D

 43 46  0  0  1  0  0  0  0  0999 V2000
  185.9320  179.1580  141.8230 C   0  0  2  0  0  3  0  0  0  0  0  0
  184.1520  178.8360  140.9500 C   0  0  1  0  0  3  0  0  0  0  0  0
  184.7860  178.2360  142.1820 C   0  0  2  0  0  3  0  0  0  0  0  0
  185.2750  179.6430  140.6800 O   0  0  0  0  0  0  0  0  0  0  0  0
  187.7200  178.4860  140.1460 C   0  0  0  0  0  3  0  0  0  0  0  0
  189.5560  177.0630  140.8240 C   0  0  0  0  0  3  0  0  0  0  0  0
  188.9010  177.8100  139.8370 C   0  0  0  0  0  0  0  0  0  0  0  0
  189.0350  176.9940  142.1180 C   0  0  0  0  0  0  0  0  0  0  0  0
  189.4690  177.8970  138.4650 C   0  0  0  0  0  1  0  0  0  0  0  0
  187.8490  177.6770  142.4220 C   0  0  0  0  0  3  0  0  0  0  0  0
  187.1810  178.4150  141.4420 C   0  0  0  0  0  0  0  0  0  0  0  0
  189.7330  176.2370  143.1150 N   0  0  0  0  0  2  0  0  0  0  0  0
  191.7580  175.2220  144.0120 C   0  0  0  0  0  1  0  0  0  0  0  0
  191.1120  176.5030  143.5120 C   0  0  2  0  0  3  0  0  0  0  0  0
  191.1800  177.5810  144.5570 C   0  0  0  0  0  0  0  0  0  0  0  0
  191.5590  178.8160  144.2280 C   0  0  0  0  0  2  0  0  0  0  0  0
  190.8600  177.2490  145.9570 C   0  0  0  0  0  0  0  0  0  0  0  0
  189.6650  177.2320  146.3570 O   0  0  0  0  0  0  0  0  0  0  0  0
  191.8820  176.9610  146.8540 O   0  0  0  0  0  1  0  0  0  0  0  0
  184.0910  178.7110  143.4230 C   0  0  0  0  0  0  0  0  0  0  0  0
  182.8350  178.8520  143.4240 O   0  0  0  0  0  0  0  0  0  0  0  0
  184.8630  179.0750  144.5730 N   0  0  0  0  0  0  0  0  0  0  0  0
  185.4620  178.1970  145.3090 C   0  0  0  0  0  3  0  0  0  0  0  0
  186.2500  178.6310  146.4930 C   0  0  0  0  0  1  0  0  0  0  0  0
  183.9900  177.7600  139.8790 C   0  0  0  0  0  2  0  0  0  0  0  0
  182.8100  178.0750  138.9750 C   0  0  2  0  0  3  0  0  0  0  0  0
  182.1830  179.4190  139.3010 C   0  0  0  0  0  1  0  0  0  0  0  0
  179.9590  175.6730  139.8240 N   0  0  0  0  0  0  0  0  0  0  0  0
  182.7450  174.6270  136.4970 C   0  0  0  0  0  0  0  0  0  0  0  0
  182.9820  175.8120  137.1070 N   0  0  0  0  0  2  0  0  0  0  0  0
  179.2820  173.5510  138.8790 N   0  0  0  0  0  1  0  0  0  0  0  0
  182.0060  175.9070  138.0250 C   0  0  0  0  0  0  0  0  0  0  0  0
  180.1390  174.6880  138.8980 C   0  0  0  0  0  0  0  0  0  0  0  0
  181.8260  176.9380  138.9520 C   0  0  0  0  0  0  0  0  0  0  0  0
  181.6390  173.9560  137.0150 C   0  0  0  0  0  3  0  0  0  0  0  0
  180.7690  176.7780  139.8860 C   0  0  0  0  0  0  0  0  0  0  0  0
  181.1900  174.8140  137.9970 C   0  0  0  0  0  0  0  0  0  0  0  0
  180.5220  177.7750  140.9690 C   0  0  0  0  0  1  0  0  0  0  0  0
  183.6430  174.0780  135.4450 C   0  0  0  0  0  2  0  0  0  0  0  0
  184.9180  174.9010  135.3850 C   0  0  0  0  0  2  0  0  0  0  0  0
  186.0100  174.2510  136.2190 C   0  0  0  0  0  2  0  0  0  0  0  0
  186.7590  175.2760  137.0090 C   0  0  0  0  0  3  0  0  0  0  0  0
  186.3570  176.5450  137.0530 C   0  0  0  0  0  2  0  0  0  0  0  0
  1 11  1  6  0  0  0
  1  3  1  0  0  0  0
  2 25  1  6  0  0  0
  2  3  1  0  0  0  0
  3 20  1  1  0  0  0
  4  2  1  0  0  0  0
  4  1  1  0  0  0  0
  5 11  1  0  0  0  0
  6  8  2  0  0  0  0
  7  5  2  0  0  0  0
  7  6  1  0  0  0  0
  8 10  1  0  0  0  0
  8 12  1  0  0  0  0
  9  7  1  0  0  0  0
 11 10  2  0  0  0  0
 12 14  1  0  0  0  0
 14 13  1  1  0  0  0
 14 15  1  0  0  0  0
 15 17  1  0  0  0  0
 16 15  2  0  0  0  0
 17 18  2  0  0  0  0
 17 19  1  0  0  0  0
 20 21  2  0  0  0  0
 20 22  1  0  0  0  0
 22 23  2  0  0  0  0
 23 24  1  0  0  0  0
 26 27  1  1  0  0  0
 26 25  1  0  0  0  0
 28 36  1  0  0  0  0
 29 35  2  0  0  0  0
 29 30  1  0  0  0  0
 30 32  1  0  0  0  0
 31 33  1  0  0  0  0
 32 34  1  0  0  0  0
 33 28  2  0  0  0  0
 34 26  1  0  0  0  0
 34 36  2  0  0  0  0
 35 37  1  0  0  0  0
 36 38  1  0  0  0  0
 37 32  2  0  0  0  0
 37 33  1  0  0  0  0
 39 29  1  0  0  0  0
 40 39  1  0  0  0  0
 40 41  1  0  0  0  0
 41 42  1  0  0  0  0
 42 43  2  0  0  0  0
M  END
>  <MODEL>
5

>  <REMARK>
 VINA RESULT:      -7.7      2.487      7.385
  Name = 
  14 active torsions:
  status: ('A' for Active; 'I' for Inactive)
    1  A    between atoms: N_2  and  C_3
    2  A    between atoms: C_3  and  C_24
    3  A    between atoms: C_4  and  C_16
    4  A    between atoms: C_4  and  C_34
    5  A    between atoms: C_5  and  C_10
    6  A    between atoms: C_5  and  C_18
    7  A    between atoms: C_7  and  C_41
    8  A    between atoms: C_8  and  C_13
    9  A    between atoms: C_8  and  C_39
   10  A    between atoms: C_9  and  C_11
   11  A    between atoms: C_9  and  C_39
   12  A    between atoms: C_18  and  N_43
   13  A    between atoms: C_26  and  C_34
   14  A    between atoms: C_33  and  N_43
                            x       y       z     vdW  Elec       q    Type
                         _______ _______ _______ _____ _____    ______ ____

>  <TORSDO>
F 14

$$$$
=
 OpenBabel11042412413D

 43 46  0  0  1  0  0  0  0  0999 V2000
  181.7570  175.7450  138.2630 C   0  0  2  0  0  3  0  0  0  0  0  0
  181.9520  176.9490  139.8590 C   0  0  1  0  0  3  0  0  0  0  0  0
  182.0710  177.2220  138.3790 C   0  0  2  0  0  3  0  0  0  0  0  0
  181.6900  175.5790  139.6560 O   0  0  0  0  0  0  0  0  0  0  0  0
  182.7590  173.5930  137.3550 C   0  0  0  0  0  3  0  0  0  0  0  0
  185.0420  173.5520  136.5540 C   0  0  0  0  0  3  0  0  0  0  0  0
  183.8290  172.8950  136.7920 C   0  0  0  0  0  0  0  0  0  0  0  0
  185.1870  174.9040  136.8740 C   0  0  0  0  0  0  0  0  0  0  0  0
  183.6730  171.4600  136.4320 C   0  0  0  0  0  1  0  0  0  0  0  0
  184.1070  175.5980  137.4370 C   0  0  0  0  0  3  0  0  0  0  0  0
  182.8960  174.9500  137.6900 C   0  0  0  0  0  0  0  0  0  0  0  0
  186.4330  175.5570  136.6060 N   0  0  0  0  0  2  0  0  0  0  0  0
  186.6410  177.8010  135.6800 C   0  0  0  0  0  1  0  0  0  0  0  0
  186.7030  176.9520  136.9380 C   0  0  2  0  0  3  0  0  0  0  0  0
  188.0330  177.1030  137.6220 C   0  0  0  0  0  0  0  0  0  0  0  0
  188.8750  176.0720  137.6920 C   0  0  0  0  0  2  0  0  0  0  0  0
  188.3800  178.3910  138.2470 C   0  0  0  0  0  0  0  0  0  0  0  0
  188.1110  178.6100  139.4590 O   0  0  0  0  0  1  0  0  0  0  0  0
  189.0000  179.3840  137.4980 O   0  0  0  0  0  0  0  0  0  0  0  0
  180.9170  178.0490  137.8950 C   0  0  0  0  0  0  0  0  0  0  0  0
  180.0600  177.5370  137.1210 O   0  0  0  0  0  0  0  0  0  0  0  0
  180.8370  179.4340  138.2530 N   0  0  0  0  0  0  0  0  0  0  0  0
  181.7730  180.2780  137.9620 C   0  0  0  0  0  3  0  0  0  0  0  0
  181.6390  181.7040  138.3590 C   0  0  0  0  0  1  0  0  0  0  0  0
  183.3090  177.1460  140.5290 C   0  0  0  0  0  2  0  0  0  0  0  0
  183.4420  178.5600  141.0680 C   0  0  2  0  0  3  0  0  0  0  0  0
  184.4560  179.3770  140.2850 C   0  0  0  0  0  1  0  0  0  0  0  0
  183.0610  178.9740  144.8490 N   0  0  0  0  0  0  0  0  0  0  0  0
  187.0260  177.7560  143.1990 C   0  0  0  0  0  0  0  0  0  0  0  0
  186.0390  177.9210  142.2870 N   0  0  0  0  0  0  0  0  0  0  0  0
  184.6160  178.6970  146.6830 N   0  0  0  0  0  1  0  0  0  0  0  0
  184.9640  178.2430  143.0250 C   0  0  0  0  0  0  0  0  0  0  0  0
  184.3080  178.6460  145.2930 C   0  0  2  0  0  3  0  0  0  0  0  0
  183.6860  178.5550  142.5520 C   0  0  0  0  0  0  0  0  0  0  0  0
  186.6040  177.9770  144.5090 C   0  0  0  0  0  3  0  0  0  0  0  0
  182.7260  178.9520  143.5200 C   0  0  0  0  0  0  0  0  0  0  0  0
  185.2690  178.2870  144.3540 C   0  0  0  0  0  0  0  0  0  0  0  0
  181.3500  179.3780  143.1300 C   0  0  0  0  0  1  0  0  0  0  0  0
  188.4310  177.4600  142.8100 C   0  0  0  0  0  2  0  0  0  0  0  0
  189.0790  176.5870  143.8700 C   0  0  0  0  0  2  0  0  0  0  0  0
  190.4300  177.1550  144.2730 C   0  0  0  0  0  2  0  0  0  0  0  0
  190.6840  178.4610  143.5910 C   0  0  0  0  0  3  0  0  0  0  0  0
  191.4900  179.3770  144.1260 C   0  0  0  0  0  2  0  0  0  0  0  0
  1 11  1  1  0  0  0
  1  3  1  0  0  0  0
  1  4  1  0  0  0  0
  2 25  1  1  0  0  0
  3 20  1  6  0  0  0
  3  2  1  0  0  0  0
  4  2  1  0  0  0  0
  5 11  1  0  0  0  0
  6  7  1  0  0  0  0
  6  8  2  0  0  0  0
  7  5  2  0  0  0  0
  8 10  1  0  0  0  0
  9  7  1  0  0  0  0
 10 11  2  0  0  0  0
 12  8  1  0  0  0  0
 12 14  1  0  0  0  0
 14 13  1  6  0  0  0
 14 15  1  0  0  0  0
 15 16  2  0  0  0  0
 15 17  1  0  0  0  0
 17 18  1  0  0  0  0
 19 17  2  0  0  0  0
 20 22  1  0  0  0  0
 21 20  2  0  0  0  0
 23 22  2  0  0  0  0
 23 24  1  0  0  0  0
 25 26  1  0  0  0  0
 26 27  1  6  0  0  0
 26 34  1  0  0  0  0
 28 33  1  0  0  0  0
 29 35  1  0  0  0  0
 30 32  1  0  0  0  0
 30 29  2  0  0  0  0
 32 37  1  0  0  0  0
 33 31  1  6  0  0  0
 34 32  2  0  0  0  0
 34 36  1  0  0  0  0
 36 28  2  0  0  0  0
 37 35  2  0  0  0  0
 37 33  1  0  0  0  0
 38 36  1  0  0  0  0
 39 29  1  0  0  0  0
 39 40  1  0  0  0  0
 40 41  1  0  0  0  0
 42 43  2  0  0  0  0
 42 41  1  0  0  0  0
M  END
>  <MODEL>
6

>  <REMARK>
 VINA RESULT:      -7.6      2.315      9.112
  Name = 
  14 active torsions:
  status: ('A' for Active; 'I' for Inactive)
    1  A    between atoms: N_2  and  C_3
    2  A    between atoms: C_3  and  C_24
    3  A    between atoms: C_4  and  C_16
    4  A    between atoms: C_4  and  C_34
    5  A    between atoms: C_5  and  C_10
    6  A    between atoms: C_5  and  C_18
    7  A    between atoms: C_7  and  C_41
    8  A    between atoms: C_8  and  C_13
    9  A    between atoms: C_8  and  C_39
   10  A    between atoms: C_9  and  C_11
   11  A    between atoms: C_9  and  C_39
   12  A    between atoms: C_18  and  N_43
   13  A    between atoms: C_26  and  C_34
   14  A    between atoms: C_33  and  N_43
                            x       y       z     vdW  Elec       q    Type
                         _______ _______ _______ _____ _____    ______ ____

>  <TORSDO>
F 14

$$$$
=
 OpenBabel11042412413D

 43 46  0  0  1  0  0  0  0  0999 V2000
  188.7630  178.1480  138.8370 C   0  0  2  0  0  3  0  0  0  0  0  0
  189.1010  178.1230  140.8170 C   0  0  1  0  0  3  0  0  0  0  0  0
  189.4150  177.1170  139.7350 C   0  0  2  0  0  3  0  0  0  0  0  0
  188.4900  179.0120  139.9110 O   0  0  0  0  0  0  0  0  0  0  0  0
  187.4830  176.7080  137.1790 C   0  0  0  0  0  3  0  0  0  0  0  0
  185.0630  176.7300  137.1560 C   0  0  0  0  0  3  0  0  0  0  0  0
  186.2760  176.2490  136.6490 C   0  0  0  0  0  0  0  0  0  0  0  0
  185.0540  177.6670  138.1930 C   0  0  0  0  0  0  0  0  0  0  0  0
  186.2810  175.2370  135.5580 C   0  0  0  0  0  1  0  0  0  0  0  0
  186.2710  178.1220  138.7210 C   0  0  0  0  0  3  0  0  0  0  0  0
  187.4860  177.6560  138.2150 C   0  0  0  0  0  0  0  0  0  0  0  0
  183.8000  178.1310  138.7060 N   0  0  0  0  0  2  0  0  0  0  0  0
  181.7480  179.2330  137.9910 C   0  0  0  0  0  1  0  0  0  0  0  0
  182.5240  177.9280  138.0270 C   0  0  2  0  0  3  0  0  0  0  0  0
  181.7210  176.8440  138.6910 C   0  0  0  0  0  0  0  0  0  0  0  0
  182.2540  176.1130  139.6700 C   0  0  0  0  0  2  0  0  0  0  0  0
  180.3510  176.5730  138.2210 C   0  0  0  0  0  0  0  0  0  0  0  0
  180.1520  176.0100  137.1110 O   0  0  0  0  0  0  0  0  0  0  0  0
  179.2610  176.9480  138.9980 O   0  0  0  0  0  1  0  0  0  0  0  0
  190.8920  177.0510  139.4820 C   0  0  0  0  0  0  0  0  0  0  0  0
  191.6960  177.5070  140.3430 O   0  0  0  0  0  0  0  0  0  0  0  0
  191.3750  176.5430  138.2330 N   0  0  0  0  0  0  0  0  0  0  0  0
  192.6360  176.4900  137.9500 C   0  0  0  0  0  3  0  0  0  0  0  0
  193.0820  175.9540  136.6370 C   0  0  0  0  0  1  0  0  0  0  0  0
  188.0700  177.5380  141.7790 C   0  0  0  0  0  2  0  0  0  0  0  0
  188.7170  177.1740  143.1040 C   0  0  2  0  0  3  0  0  0  0  0  0
  189.1170  175.7100  143.1630 C   0  0  0  0  0  1  0  0  0  0  0  0
  187.4220  177.9640  146.6130 N   0  0  0  0  0  0  0  0  0  0  0  0
  184.6320  178.3330  143.1480 C   0  0  0  0  0  0  0  0  0  0  0  0
  185.9000  177.9690  142.8420 N   0  0  0  0  0  0  0  0  0  0  0  0
  185.2580  178.6760  147.4280 N   0  0  0  0  0  1  0  0  0  0  0  0
  186.5330  177.9650  144.0270 C   0  0  0  0  0  0  0  0  0  0  0  0
  186.1300  178.3220  146.3600 C   0  0  2  0  0  3  0  0  0  0  0  0
  187.8660  177.6150  144.2630 C   0  0  0  0  0  0  0  0  0  0  0  0
  184.4400  178.5540  144.5110 C   0  0  0  0  0  3  0  0  0  0  0  0
  188.2920  177.6030  145.6170 C   0  0  0  0  0  0  0  0  0  0  0  0
  185.6880  178.3070  145.0420 C   0  0  0  0  0  0  0  0  0  0  0  0
  189.6700  177.1770  146.0010 C   0  0  0  0  0  1  0  0  0  0  0  0
  183.5510  178.3950  142.1280 C   0  0  0  0  0  2  0  0  0  0  0  0
  182.3110  179.0230  142.7400 C   0  0  0  0  0  2  0  0  0  0  0  0
  181.1690  179.0300  141.7360 C   0  0  0  0  0  2  0  0  0  0  0  0
  179.9060  178.5330  142.3620 C   0  0  0  0  0  3  0  0  0  0  0  0
  179.7490  178.5170  143.6850 C   0  0  0  0  0  2  0  0  0  0  0  0
  1 11  1  1  0  0  0
  1  3  1  0  0  0  0
  1  4  1  0  0  0  0
  2 25  1  1  0  0  0
  3 20  1  6  0  0  0
  3  2  1  0  0  0  0
  4  2  1  0  0  0  0
  5 11  1  0  0  0  0
  6  8  2  0  0  0  0
  7  6  1  0  0  0  0
  7  5  2  0  0  0  0
  8 12  1  0  0  0  0
  8 10  1  0  0  0  0
  9  7  1  0  0  0  0
 11 10  2  0  0  0  0
 14 13  1  1  0  0  0
 14 15  1  0  0  0  0
 14 12  1  0  0  0  0
 15 16  2  0  0  0  0
 17 15  1  0  0  0  0
 17 19  1  0  0  0  0
 18 17  2  0  0  0  0
 20 21  2  0  0  0  0
 22 20  1  0  0  0  0
 23 22  2  0  0  0  0
 24 23  1  0  0  0  0
 25 26  1  0  0  0  0
 26 27  1  6  0  0  0
 26 34  1  0  0  0  0
 29 35  1  0  0  0  0
 30 29  2  0  0  0  0
 30 32  1  0  0  0  0
 32 34  2  0  0  0  0
 32 37  1  0  0  0  0
 33 28  1  0  0  0  0
 33 31  1  1  0  0  0
 34 36  1  0  0  0  0
 35 37  2  0  0  0  0
 36 38  1  0  0  0  0
 36 28  2  0  0  0  0
 37 33  1  0  0  0  0
 39 40  1  0  0  0  0
 39 29  1  0  0  0  0
 41 42  1  0  0  0  0
 41 40  1  0  0  0  0
 42 43  2  0  0  0  0
M  END
>  <MODEL>
7

>  <REMARK>
 VINA RESULT:      -7.5      2.215      6.799
  Name = 
  14 active torsions:
  status: ('A' for Active; 'I' for Inactive)
    1  A    between atoms: N_2  and  C_3
    2  A    between atoms: C_3  and  C_24
    3  A    between atoms: C_4  and  C_16
    4  A    between atoms: C_4  and  C_34
    5  A    between atoms: C_5  and  C_10
    6  A    between atoms: C_5  and  C_18
    7  A    between atoms: C_7  and  C_41
    8  A    between atoms: C_8  and  C_13
    9  A    between atoms: C_8  and  C_39
   10  A    between atoms: C_9  and  C_11
   11  A    between atoms: C_9  and  C_39
   12  A    between atoms: C_18  and  N_43
   13  A    between atoms: C_26  and  C_34
   14  A    between atoms: C_33  and  N_43
                            x       y       z     vdW  Elec       q    Type
                         _______ _______ _______ _____ _____    ______ ____

>  <TORSDO>
F 14

$$$$
=
 OpenBabel11042412413D

 43 46  0  0  1  0  0  0  0  0999 V2000
  190.9140  176.3750  140.7490 C   0  0  2  0  0  3  0  0  0  0  0  0
  190.2560  176.8770  138.9170 C   0  0  1  0  0  3  0  0  0  0  0  0
  191.4370  177.3610  139.7250 C   0  0  2  0  0  3  0  0  0  0  0  0
  189.8290  176.0030  139.9370 O   0  0  0  0  0  0  0  0  0  0  0  0
  191.2630  177.8720  142.7730 C   0  0  0  0  0  3  0  0  0  0  0  0
  189.4360  178.3090  144.2980 C   0  0  0  0  0  3  0  0  0  0  0  0
  190.7690  178.5020  143.9160 C   0  0  0  0  0  0  0  0  0  0  0  0
  188.5960  177.4920  143.5380 C   0  0  0  0  0  0  0  0  0  0  0  0
  191.6560  179.3880  144.7180 C   0  0  0  0  0  1  0  0  0  0  0  0
  189.0990  176.8650  142.3900 C   0  0  0  0  0  3  0  0  0  0  0  0
  190.4300  177.0410  142.0060 C   0  0  0  0  0  0  0  0  0  0  0  0
  187.2310  177.3240  143.9410 N   0  0  0  0  0  2  0  0  0  0  0  0
  186.3000  177.6100  146.1730 C   0  0  0  0  0  1  0  0  0  0  0  0
  186.5270  178.2540  144.8170 C   0  0  2  0  0  3  0  0  0  0  0  0
  185.2250  178.6970  144.2080 C   0  0  0  0  0  0  0  0  0  0  0  0
  184.1710  178.9520  144.9830 C   0  0  0  0  0  2  0  0  0  0  0  0
  185.1170  178.8090  142.7430 C   0  0  0  0  0  0  0  0  0  0  0  0
  185.6810  179.7530  142.1270 O   0  0  0  0  0  1  0  0  0  0  0  0
  184.3770  177.8750  142.0270 O   0  0  0  0  0  0  0  0  0  0  0  0
  192.7250  176.8740  139.1300 C   0  0  0  0  0  0  0  0  0  0  0  0
  193.8220  177.1650  139.6850 O   0  0  0  0  0  0  0  0  0  0  0  0
  192.7050  176.1490  137.8940 N   0  0  0  0  0  0  0  0  0  0  0  0
  193.5560  176.3760  136.9470 C   0  0  0  0  0  3  0  0  0  0  0  0
  193.4880  175.5940  135.6850 C   0  0  0  0  0  1  0  0  0  0  0  0
  189.2590  178.0180  138.7300 C   0  0  0  0  0  2  0  0  0  0  0  0
  188.7210  178.0320  137.3100 C   0  0  2  0  0  3  0  0  0  0  0  0
  188.4540  179.4430  136.8130 C   0  0  0  0  0  1  0  0  0  0  0  0
  186.4340  175.1250  136.3400 N   0  0  0  0  0  0  0  0  0  0  0  0
  184.6850  178.6230  138.4910 C   0  0  0  0  0  0  0  0  0  0  0  0
  186.0180  178.6840  138.2640 N   0  0  0  0  0  0  0  0  0  0  0  0
  184.0690  174.7360  136.6630 N   0  0  0  0  0  1  0  0  0  0  0  0
  186.2980  177.5220  137.6500 C   0  0  0  0  0  0  0  0  0  0  0  0
  185.2330  175.5370  136.8370 C   0  0  2  0  0  3  0  0  0  0  0  0
  187.5420  177.1090  137.1670 C   0  0  0  0  0  0  0  0  0  0  0  0
  184.1030  177.4450  138.0250 C   0  0  0  0  0  3  0  0  0  0  0  0
  187.5780  175.8710  136.4720 C   0  0  0  0  0  0  0  0  0  0  0  0
  185.1750  176.7630  137.4910 C   0  0  0  0  0  0  0  0  0  0  0  0
  188.8330  175.3580  135.8480 C   0  0  0  0  0  1  0  0  0  0  0  0
  183.9260  179.7510  139.0960 C   0  0  0  0  0  2  0  0  0  0  0  0
  182.4570  179.3790  139.1960 C   0  0  0  0  0  2  0  0  0  0  0  0
  181.5820  180.5800  138.8750 C   0  0  0  0  0  2  0  0  0  0  0  0
  180.9170  180.4150  137.5460 C   0  0  0  0  0  3  0  0  0  0  0  0
  181.1800  179.3670  136.7660 C   0  0  0  0  0  2  0  0  0  0  0  0
  1 11  1  1  0  0  0
  2 25  1  1  0  0  0
  2  3  1  0  0  0  0
  2  4  1  0  0  0  0
  3 20  1  6  0  0  0
  3  1  1  0  0  0  0
  4  1  1  0  0  0  0
  5  7  1  0  0  0  0
  7  6  2  0  0  0  0
  7  9  1  0  0  0  0
  8 12  1  0  0  0  0
  8  6  1  0  0  0  0
 10  8  2  0  0  0  0
 11 10  1  0  0  0  0
 11  5  2  0  0  0  0
 12 14  1  0  0  0  0
 14 13  1  1  0  0  0
 15 14  1  0  0  0  0
 15 16  2  0  0  0  0
 17 15  1  0  0  0  0
 18 17  1  0  0  0  0
 19 17  2  0  0  0  0
 20 21  2  0  0  0  0
 22 20  1  0  0  0  0
 23 22  2  0  0  0  0
 24 23  1  0  0  0  0
 26 27  1  1  0  0  0
 26 25  1  0  0  0  0
 28 36  2  0  0  0  0
 28 33  1  0  0  0  0
 29 39  1  0  0  0  0
 30 29  2  0  0  0  0
 32 30  1  0  0  0  0
 33 31  1  6  0  0  0
 33 37  1  0  0  0  0
 34 26  1  0  0  0  0
 34 32  2  0  0  0  0
 35 29  1  0  0  0  0
 36 34  1  0  0  0  0
 37 32  1  0  0  0  0
 37 35  2  0  0  0  0
 38 36  1  0  0  0  0
 39 40  1  0  0  0  0
 41 40  1  0  0  0  0
 42 41  1  0  0  0  0
 43 42  2  0  0  0  0
M  END
>  <MODEL>
8

>  <REMARK>
 VINA RESULT:      -7.4      2.205      5.114
  Name = 
  14 active torsions:
  status: ('A' for Active; 'I' for Inactive)
    1  A    between atoms: N_2  and  C_3
    2  A    between atoms: C_3  and  C_24
    3  A    between atoms: C_4  and  C_16
    4  A    between atoms: C_4  and  C_34
    5  A    between atoms: C_5  and  C_10
    6  A    between atoms: C_5  and  C_18
    7  A    between atoms: C_7  and  C_41
    8  A    between atoms: C_8  and  C_13
    9  A    between atoms: C_8  and  C_39
   10  A    between atoms: C_9  and  C_11
   11  A    between atoms: C_9  and  C_39
   12  A    between atoms: C_18  and  N_43
   13  A    between atoms: C_26  and  C_34
   14  A    between atoms: C_33  and  N_43
                            x       y       z     vdW  Elec       q    Type
                         _______ _______ _______ _____ _____    ______ ____

>  <TORSDO>
F 14

$$$$
=
 OpenBabel11042412413D

 43 46  0  0  1  0  0  0  0  0999 V2000
  185.3980  179.3510  142.0760 C   0  0  2  0  0  3  0  0  0  0  0  0
  183.7660  178.8390  141.0220 C   0  0  1  0  0  3  0  0  0  0  0  0
  184.2430  178.4230  142.3930 C   0  0  2  0  0  3  0  0  0  0  0  0
  184.8890  179.6610  140.8040 O   0  0  0  0  0  0  0  0  0  0  0  0
  187.4030  178.5410  140.7420 C   0  0  0  0  0  3  0  0  0  0  0  0
  189.1920  177.3340  141.8370 C   0  0  0  0  0  3  0  0  0  0  0  0
  188.6370  177.8920  140.6790 C   0  0  0  0  0  0  0  0  0  0  0  0
  188.5170  177.4250  143.0570 C   0  0  0  0  0  0  0  0  0  0  0  0
  189.3690  177.8100  139.3860 C   0  0  0  0  0  1  0  0  0  0  0  0
  187.2780  178.0800  143.1120 C   0  0  0  0  0  3  0  0  0  0  0  0
  186.7110  178.6300  141.9600 C   0  0  0  0  0  0  0  0  0  0  0  0
  189.1130  176.8600  144.2310 N   0  0  0  0  0  2  0  0  0  0  0  0
  191.2910  177.5160  145.1010 C   0  0  0  0  0  1  0  0  0  0  0  0
  189.7870  177.6510  145.2550 C   0  0  2  0  0  3  0  0  0  0  0  0
  189.3500  177.2410  146.6340 C   0  0  0  0  0  0  0  0  0  0  0  0
  190.0710  176.3680  147.3380 C   0  0  0  0  0  2  0  0  0  0  0  0
  188.0970  177.7870  147.1840 C   0  0  0  0  0  0  0  0  0  0  0  0
  186.9960  177.5770  146.6070 O   0  0  0  0  0  0  0  0  0  0  0  0
  188.1200  178.5500  148.3460 O   0  0  0  0  0  1  0  0  0  0  0  0
  183.3690  179.0110  143.4620 C   0  0  0  0  0  0  0  0  0  0  0  0
  183.8620  179.2940  144.5900 O   0  0  0  0  0  0  0  0  0  0  0  0
  181.9670  179.1740  143.2200 N   0  0  0  0  0  0  0  0  0  0  0  0
  181.0680  178.6260  143.9720 C   0  0  0  0  0  3  0  0  0  0  0  0
  179.6260  178.8280  143.6740 C   0  0  0  0  0  1  0  0  0  0  0  0
  183.7880  177.6350  140.0840 C   0  0  0  0  0  2  0  0  0  0  0  0
  182.8140  177.8320  138.9350 C   0  0  2  0  0  3  0  0  0  0  0  0
  181.9310  179.0520  139.1350 C   0  0  0  0  0  1  0  0  0  0  0  0
  180.3070  174.9490  139.0930 N   0  0  0  0  0  0  0  0  0  0  0  0
  183.6890  174.7120  136.1900 C   0  0  0  0  0  0  0  0  0  0  0  0
  183.6330  175.8440  136.9310 N   0  0  0  0  0  2  0  0  0  0  0  0
  180.1380  172.8690  137.8700 N   0  0  0  0  0  1  0  0  0  0  0  0
  182.5300  175.6880  137.6810 C   0  0  0  0  0  0  0  0  0  0  0  0
  180.7820  174.1120  138.1270 C   0  0  0  0  0  0  0  0  0  0  0  0
  182.0460  176.5700  138.6520 C   0  0  0  0  0  0  0  0  0  0  0  0
  182.6450  173.8290  136.4590 C   0  0  0  0  0  3  0  0  0  0  0  0
  180.9040  176.1490  139.3830 C   0  0  0  0  0  0  0  0  0  0  0  0
  181.9200  174.4940  137.4250 C   0  0  0  0  0  0  0  0  0  0  0  0
  180.3380  176.9710  140.4930 C   0  0  0  0  0  1  0  0  0  0  0  0
  184.8110  174.4240  135.2560 C   0  0  0  0  0  2  0  0  0  0  0  0
  185.6480  175.6780  135.0670 C   0  0  0  0  0  2  0  0  0  0  0  0
  187.0270  175.4920  135.6800 C   0  0  0  0  0  2  0  0  0  0  0  0
  187.4670  176.7340  136.3880 C   0  0  0  0  0  3  0  0  0  0  0  0
  186.5830  177.6130  136.8570 C   0  0  0  0  0  2  0  0  0  0  0  0
  1 11  1  6  0  0  0
  1  3  1  0  0  0  0
  2 25  1  6  0  0  0
  2  3  1  0  0  0  0
  3 20  1  1  0  0  0
  4  2  1  0  0  0  0
  4  1  1  0  0  0  0
  5 11  1  0  0  0  0
  6  8  2  0  0  0  0
  7  5  2  0  0  0  0
  7  6  1  0  0  0  0
  8 10  1  0  0  0  0
  8 12  1  0  0  0  0
  9  7  1  0  0  0  0
 11 10  2  0  0  0  0
 12 14  1  0  0  0  0
 14 13  1  1  0  0  0
 14 15  1  0  0  0  0
 15 17  1  0  0  0  0
 15 16  2  0  0  0  0
 17 19  1  0  0  0  0
 18 17  2  0  0  0  0
 20 21  2  0  0  0  0
 22 20  1  0  0  0  0
 22 23  2  0  0  0  0
 24 23  1  0  0  0  0
 26 27  1  1  0  0  0
 26 25  1  0  0  0  0
 28 36  1  0  0  0  0
 29 35  2  0  0  0  0
 29 30  1  0  0  0  0
 30 32  1  0  0  0  0
 31 33  1  0  0  0  0
 32 34  1  0  0  0  0
 33 28  2  0  0  0  0
 34 26  1  0  0  0  0
 34 36  2  0  0  0  0
 35 37  1  0  0  0  0
 36 38  1  0  0  0  0
 37 32  2  0  0  0  0
 37 33  1  0  0  0  0
 39 29  1  0  0  0  0
 40 39  1  0  0  0  0
 40 41  1  0  0  0  0
 41 42  1  0  0  0  0
 42 43  2  0  0  0  0
M  END
>  <MODEL>
9

>  <REMARK>
 VINA RESULT:      -7.3      2.772      7.398
  Name = 
  14 active torsions:
  status: ('A' for Active; 'I' for Inactive)
    1  A    between atoms: N_2  and  C_3
    2  A    between atoms: C_3  and  C_24
    3  A    between atoms: C_4  and  C_16
    4  A    between atoms: C_4  and  C_34
    5  A    between atoms: C_5  and  C_10
    6  A    between atoms: C_5  and  C_18
    7  A    between atoms: C_7  and  C_41
    8  A    between atoms: C_8  and  C_13
    9  A    between atoms: C_8  and  C_39
   10  A    between atoms: C_9  and  C_11
   11  A    between atoms: C_9  and  C_39
   12  A    between atoms: C_18  and  N_43
   13  A    between atoms: C_26  and  C_34
   14  A    between atoms: C_33  and  N_43
                            x       y       z     vdW  Elec       q    Type
                         _______ _______ _______ _____ _____    ______ ____

>  <TORSDO>
F 14

$$$$
