=
 OpenBabel11042412313D

 31 33  0  0  1  0  0  0  0  0999 V2000
  184.7850  178.4650  139.5610 C   0  0  1  0  0  3  0  0  0  0  0  0
  181.5000  179.2760  140.3720 C   0  0  0  0  0  2  0  0  0  0  0  0
  182.5750  179.6600  139.3470 C   0  0  2  0  0  3  0  0  0  0  0  0
  181.5430  177.8670  140.4730 O   0  0  0  0  0  0  0  0  0  0  0  0
  181.9610  180.1450  138.1940 O   0  0  0  0  0  1  0  0  0  0  0  0
  182.7840  176.1090  139.6290 O   0  0  0  0  0  0  0  0  0  0  0  0
  182.5700  177.3470  139.7210 C   0  0  0  0  0  0  0  0  0  0  0  0
  183.3550  178.3830  139.0110 C   0  0  2  0  0  3  0  0  0  0  0  0
  186.1050  177.8160  137.4970 C   0  0  0  0  0  0  0  0  0  0  0  0
  185.8010  178.6850  138.4680 C   0  0  0  0  0  3  0  0  0  0  0  0
  188.3070  177.2920  136.4630 C   0  0  0  0  0  3  0  0  0  0  0  0
  189.3900  177.9900  136.7710 C   0  0  0  0  0  3  0  0  0  0  0  0
  187.1520  178.2410  136.5070 C   0  0  2  0  0  3  0  0  0  0  0  0
  187.7800  179.4910  136.9020 N   0  0  0  0  0  0  0  0  0  0  0  0
  189.0320  179.3380  137.0370 N   0  0  0  0  0  0  0  0  0  0  0  0
  185.4280  176.5060  137.4110 C   0  0  0  0  0  3  0  0  0  0  0  0
  184.6110  176.2390  136.4920 O   0  0  0  0  0  0  0  0  0  0  0  0
  184.8920  179.5130  140.5730 N   0  0  0  0  0  2  0  0  0  0  0  0
  185.7280  179.0120  141.6580 C   0  0  1  0  0  3  0  0  0  0  0  0
  185.0070  179.0200  145.3400 C   0  0  0  0  0  2  0  0  0  0  0  0
  184.9170  178.0520  142.5410 C   0  0  2  0  0  3  0  0  0  0  0  0
  183.7200  178.7460  143.2070 C   0  0  0  0  0  2  0  0  0  0  0  0
  185.7890  177.3710  143.6060 C   0  0  0  0  0  2  0  0  0  0  0  0
  186.2230  178.3650  144.6890 C   0  0  2  0  0  3  0  0  0  0  0  0
  184.1710  179.7330  144.2840 C   0  0  0  0  0  2  0  0  0  0  0  0
  187.1320  177.7190  145.7390 C   0  0  1  0  0  3  0  0  0  0  0  0
  188.6070  177.8270  145.3760 C   0  0  0  0  0  1  0  0  0  0  0  0
  187.8810  177.7380  147.8220 C   0  0  0  0  0  1  0  0  0  0  0  0
  186.9080  178.2960  146.9910 O   0  0  0  0  0  0  0  0  0  0  0  0
  188.2230  178.9100  141.5930 C   0  0  0  0  0  1  0  0  0  0  0  0
  186.9390  178.2930  141.0740 C   0  0  0  0  0  2  0  0  0  0  0  0
  1 10  1  6  0  0  0
  1 18  1  0  0  0  0
  2  4  1  0  0  0  0
  3  5  1  6  0  0  0
  3  2  1  0  0  0  0
  6  7  2  0  0  0  0
  7  4  1  0  0  0  0
  8  3  1  0  0  0  0
  8  1  1  1  0  0  0
  8  7  1  0  0  0  0
  9 10  2  0  0  0  0
 11 13  1  0  0  0  0
 11 12  2  0  0  0  0
 12 15  1  0  0  0  0
 13 14  1  0  0  0  0
 13  9  1  1  0  0  0
 14 15  2  0  0  0  0
 16  9  1  0  0  0  0
 17 16  2  0  0  0  0
 18 19  1  0  0  0  0
 19 31  1  6  0  0  0
 21 19  1  1  0  0  0
 21 22  1  0  0  0  0
 21 23  1  0  0  0  0
 22 25  1  0  0  0  0
 23 24  1  0  0  0  0
 24 20  1  0  0  0  0
 24 26  1  1  0  0  0
 25 20  1  0  0  0  0
 26 27  1  6  0  0  0
 26 29  1  0  0  0  0
 29 28  1  0  0  0  0
 31 30  1  0  0  0  0
M  END
>  <MODEL>
1

>  <REMARK>
 VINA RESULT:      -6.8      0.000      0.000
  Name = 
  10 active torsions:
  status: ('A' for Active; 'I' for Inactive)
    1  A    between atoms: C_3  and  N_9
    2  A    between atoms: C_3  and  C_14
    3  A    between atoms: C_3  and  C_25
    4  A    between atoms: C_5  and  C_6
    5  A    between atoms: C_6  and  C_7
    6  A    between atoms: N_9  and  C_18
    7  A    between atoms: C_12  and  C_18
    8  A    between atoms: C_15  and  C_18
    9  A    between atoms: C_21  and  C_27
   10  A    between atoms: C_21  and  O_30
                            x       y       z     vdW  Elec       q    Type
                         _______ _______ _______ _____ _____    ______ ____

>  <TORSDO>
F 10

$$$$
=
 OpenBabel11042412313D

 31 33  0  0  1  0  0  0  0  0999 V2000
  189.2560  177.2470  139.2390 C   0  0  1  0  0  3  0  0  0  0  0  0
  188.4660  176.6230  135.9080 C   0  0  0  0  0  2  0  0  0  0  0  0
  187.9230  176.3200  137.3100 C   0  0  2  0  0  3  0  0  0  0  0  0
  188.8470  177.9840  135.9240 O   0  0  0  0  0  0  0  0  0  0  0  0
  186.5480  176.0990  137.2350 O   0  0  0  0  0  1  0  0  0  0  0  0
  188.9500  179.7350  137.4290 O   0  0  0  0  0  0  0  0  0  0  0  0
  188.7030  178.5260  137.1790 C   0  0  0  0  0  0  0  0  0  0  0  0
  188.1930  177.5560  138.1760 C   0  0  2  0  0  3  0  0  0  0  0  0
  191.4530  176.3600  138.3380 C   0  0  0  0  0  0  0  0  0  0  0  0
  190.6570  177.3750  138.6940 C   0  0  0  0  0  3  0  0  0  0  0  0
  193.0760  176.1320  136.4650 C   0  0  0  0  0  3  0  0  0  0  0  0
  194.1450  175.3580  136.5790 C   0  0  0  0  0  3  0  0  0  0  0  0
  192.8160  176.7150  137.8180 C   0  0  2  0  0  3  0  0  0  0  0  0
  193.8660  176.1200  138.6290 N   0  0  0  0  0  0  0  0  0  0  0  0
  194.6070  175.3710  137.9220 N   0  0  0  0  0  0  0  0  0  0  0  0
  190.9950  174.9590  138.4520 C   0  0  0  0  0  3  0  0  0  0  0  0
  190.7320  174.2620  137.4370 O   0  0  0  0  0  0  0  0  0  0  0  0
  189.0860  178.1040  140.4090 N   0  0  0  0  0  2  0  0  0  0  0  0
  189.4060  177.3200  141.5960 C   0  0  1  0  0  3  0  0  0  0  0  0
  190.9460  176.5270  144.9250 C   0  0  0  0  0  2  0  0  0  0  0  0
  190.5030  178.0260  142.4070 C   0  0  2  0  0  3  0  0  0  0  0  0
  191.7330  177.1310  142.6230 C   0  0  0  0  0  2  0  0  0  0  0  0
  189.9840  178.5390  143.7570 C   0  0  0  0  0  2  0  0  0  0  0  0
  189.6970  177.3820  144.7210 C   0  0  2  0  0  3  0  0  0  0  0  0
  191.4300  175.9830  143.5860 C   0  0  0  0  0  2  0  0  0  0  0  0
  189.1350  177.8670  146.0600 C   0  0  1  0  0  3  0  0  0  0  0  0
  187.6230  177.7070  146.1470 C   0  0  0  0  0  1  0  0  0  0  0  0
  189.3340  177.8620  148.2650 C   0  0  0  0  0  1  0  0  0  0  0  0
  189.7450  177.1850  147.1150 O   0  0  0  0  0  0  0  0  0  0  0  0
  187.0930  178.1560  142.0330 C   0  0  0  0  0  1  0  0  0  0  0  0
  188.1520  177.1510  142.4460 C   0  0  0  0  0  2  0  0  0  0  0  0
  1 10  1  6  0  0  0
  1 18  1  0  0  0  0
  2  4  1  0  0  0  0
  2  3  1  0  0  0  0
  3  5  1  6  0  0  0
  3  8  1  0  0  0  0
  4  7  1  0  0  0  0
  7  6  2  0  0  0  0
  7  8  1  0  0  0  0
  8  1  1  1  0  0  0
  9 16  1  0  0  0  0
  9 10  2  0  0  0  0
 11 12  2  0  0  0  0
 11 13  1  0  0  0  0
 12 15  1  0  0  0  0
 13  9  1  1  0  0  0
 13 14  1  0  0  0  0
 15 14  2  0  0  0  0
 17 16  2  0  0  0  0
 18 19  1  0  0  0  0
 19 31  1  1  0  0  0
 21 19  1  1  0  0  0
 21 22  1  0  0  0  0
 21 23  1  0  0  0  0
 22 25  1  0  0  0  0
 23 24  1  0  0  0  0
 24 20  1  0  0  0  0
 24 26  1  1  0  0  0
 25 20  1  0  0  0  0
 26 27  1  6  0  0  0
 26 29  1  0  0  0  0
 29 28  1  0  0  0  0
 30 31  1  0  0  0  0
M  END
>  <MODEL>
2

>  <REMARK>
 VINA RESULT:      -6.7      3.474      5.683
  Name = 
  10 active torsions:
  status: ('A' for Active; 'I' for Inactive)
    1  A    between atoms: C_3  and  N_9
    2  A    between atoms: C_3  and  C_14
    3  A    between atoms: C_3  and  C_25
    4  A    between atoms: C_5  and  C_6
    5  A    between atoms: C_6  and  C_7
    6  A    between atoms: N_9  and  C_18
    7  A    between atoms: C_12  and  C_18
    8  A    between atoms: C_15  and  C_18
    9  A    between atoms: C_21  and  C_27
   10  A    between atoms: C_21  and  O_30
                            x       y       z     vdW  Elec       q    Type
                         _______ _______ _______ _____ _____    ______ ____

>  <TORSDO>
F 10

$$$$
=
 OpenBabel11042412313D

 31 33  0  0  1  0  0  0  0  0999 V2000
  188.5520  178.0120  139.9650 C   0  0  1  0  0  3  0  0  0  0  0  0
  189.8840  176.5260  137.1130 C   0  0  0  0  0  2  0  0  0  0  0  0
  188.7110  176.3390  138.0840 C   0  0  2  0  0  3  0  0  0  0  0  0
  189.9490  177.9120  136.8430 O   0  0  0  0  0  0  0  0  0  0  0  0
  187.6770  175.6660  137.4360 O   0  0  0  0  0  1  0  0  0  0  0  0
  188.8870  179.8550  137.5040 O   0  0  0  0  0  0  0  0  0  0  0  0
  189.0360  178.6080  137.5990 C   0  0  0  0  0  0  0  0  0  0  0  0
  188.2320  177.7390  138.4890 C   0  0  2  0  0  3  0  0  0  0  0  0
  186.1250  178.6920  140.2230 C   0  0  0  0  0  0  0  0  0  0  0  0
  187.3650  178.5680  140.7100 C   0  0  0  0  0  3  0  0  0  0  0  0
  185.3960  179.0120  142.5810 C   0  0  0  0  0  2  0  0  0  0  0  0
  184.3700  178.3360  143.0750 C   0  0  0  0  0  3  0  0  0  0  0  0
  185.0890  179.2740  141.1400 C   0  0  2  0  0  3  0  0  0  0  0  0
  183.7990  178.6250  140.9660 N   0  0  0  0  0  2  0  0  0  0  0  0
  183.4050  178.1130  142.0580 N   0  0  0  0  0  0  0  0  0  0  0  0
  185.8040  178.2650  138.8450 C   0  0  0  0  0  3  0  0  0  0  0  0
  185.3670  179.0730  137.9840 O   0  0  0  0  0  0  0  0  0  0  0  0
  189.0440  176.8030  140.6210 N   0  0  0  0  0  2  0  0  0  0  0  0
  189.5700  177.1780  141.9280 C   0  0  1  0  0  3  0  0  0  0  0  0
  188.7940  177.4490  145.5890 C   0  0  0  0  0  2  0  0  0  0  0  0
  189.1830  176.1180  142.9700 C   0  0  2  0  0  3  0  0  0  0  0  0
  187.7890  176.3680  143.5640 C   0  0  0  0  0  2  0  0  0  0  0  0
  190.2220  176.0090  144.0960 C   0  0  0  0  0  2  0  0  0  0  0  0
  190.1900  177.2440  145.0040 C   0  0  2  0  0  3  0  0  0  0  0  0
  187.7760  177.6010  144.4660 C   0  0  0  0  0  2  0  0  0  0  0  0
  191.2490  177.1790  146.1090 C   0  0  1  0  0  3  0  0  0  0  0  0
  190.6320  177.1040  147.5000 C   0  0  0  0  0  1  0  0  0  0  0  0
  192.3270  175.5710  147.1820 C   0  0  0  0  0  1  0  0  0  0  0  0
  192.0920  176.0840  145.9050 O   0  0  0  0  0  0  0  0  0  0  0  0
  191.5340  177.3820  140.3990 C   0  0  0  0  0  1  0  0  0  0  0  0
  191.0870  177.3060  141.8460 C   0  0  0  0  0  2  0  0  0  0  0  0
  1 18  1  0  0  0  0
  1 10  1  1  0  0  0
  2  3  1  0  0  0  0
  3  5  1  6  0  0  0
  3  8  1  0  0  0  0
  4  2  1  0  0  0  0
  4  7  1  0  0  0  0
  6  7  2  0  0  0  0
  7  8  1  0  0  0  0
  8  1  1  1  0  0  0
  9 10  2  0  0  0  0
 11 12  1  0  0  0  0
 13  9  1  6  0  0  0
 13 11  1  0  0  0  0
 14 13  1  0  0  0  0
 14 15  1  0  0  0  0
 15 12  2  0  0  0  0
 16  9  1  0  0  0  0
 17 16  2  0  0  0  0
 18 19  1  0  0  0  0
 19 31  1  6  0  0  0
 21 19  1  6  0  0  0
 21 22  1  0  0  0  0
 21 23  1  0  0  0  0
 22 25  1  0  0  0  0
 23 24  1  0  0  0  0
 24 20  1  0  0  0  0
 24 26  1  1  0  0  0
 25 20  1  0  0  0  0
 26 27  1  1  0  0  0
 29 26  1  0  0  0  0
 29 28  1  0  0  0  0
 30 31  1  0  0  0  0
M  END
>  <MODEL>
3

>  <REMARK>
 VINA RESULT:      -6.7      2.901      5.568
  Name = 
  10 active torsions:
  status: ('A' for Active; 'I' for Inactive)
    1  A    between atoms: C_3  and  N_9
    2  A    between atoms: C_3  and  C_14
    3  A    between atoms: C_3  and  C_25
    4  A    between atoms: C_5  and  C_6
    5  A    between atoms: C_6  and  C_7
    6  A    between atoms: N_9  and  C_18
    7  A    between atoms: C_12  and  C_18
    8  A    between atoms: C_15  and  C_18
    9  A    between atoms: C_21  and  C_27
   10  A    between atoms: C_21  and  O_30
                            x       y       z     vdW  Elec       q    Type
                         _______ _______ _______ _____ _____    ______ ____

>  <TORSDO>
F 10

$$$$
=
 OpenBabel11042412313D

 31 33  0  0  1  0  0  0  0  0999 V2000
  187.9290  178.1890  141.2980 C   0  0  1  0  0  3  0  0  0  0  0  0
  188.2610  176.7370  138.1530 C   0  0  0  0  0  2  0  0  0  0  0  0
  187.8460  178.0740  138.7810 C   0  0  2  0  0  3  0  0  0  0  0  0
  189.4200  176.3240  138.8490 O   0  0  0  0  0  0  0  0  0  0  0  0
  188.0530  179.1000  137.8600 O   0  0  0  0  0  1  0  0  0  0  0  0
  190.7170  177.0330  140.6260 O   0  0  0  0  0  0  0  0  0  0  0  0
  189.7090  177.1800  139.8850 C   0  0  0  0  0  0  0  0  0  0  0  0
  188.7450  178.2980  140.0030 C   0  0  2  0  0  3  0  0  0  0  0  0
  188.9450  177.6790  143.5630 C   0  0  0  0  0  0  0  0  0  0  0  0
  188.7600  178.4950  142.5200 C   0  0  0  0  0  3  0  0  0  0  0  0
  191.1950  177.6150  144.6250 C   0  0  0  0  0  3  0  0  0  0  0  0
  191.3920  176.9790  145.7690 C   0  0  0  0  0  3  0  0  0  0  0  0
  189.8140  178.1870  144.6770 C   0  0  2  0  0  3  0  0  0  0  0  0
  189.3320  177.7380  145.9730 N   0  0  0  0  0  0  0  0  0  0  0  0
  190.2270  177.0720  146.5770 N   0  0  0  0  0  0  0  0  0  0  0  0
  188.3230  176.3390  143.5990 C   0  0  0  0  0  3  0  0  0  0  0  0
  188.8160  175.3610  142.9780 O   0  0  0  0  0  0  0  0  0  0  0  0
  186.7580  179.0610  141.2480 N   0  0  0  0  0  2  0  0  0  0  0  0
  185.7620  178.5360  142.1760 C   0  0  1  0  0  3  0  0  0  0  0  0
  183.3940  178.4900  145.0860 C   0  0  0  0  0  2  0  0  0  0  0  0
  185.3740  179.6200  143.1920 C   0  0  2  0  0  3  0  0  0  0  0  0
  185.7450  179.2290  144.6300 C   0  0  0  0  0  2  0  0  0  0  0  0
  183.8820  179.9770  143.1140 C   0  0  0  0  0  2  0  0  0  0  0  0
  183.0080  178.8370  143.6500 C   0  0  2  0  0  3  0  0  0  0  0  0
  184.8650  178.0930  145.1490 C   0  0  0  0  0  2  0  0  0  0  0  0
  181.5130  179.1530  143.5410 C   0  0  1  0  0  3  0  0  0  0  0  0
  181.0210  179.1410  142.1000 C   0  0  0  0  0  1  0  0  0  0  0  0
  179.4700  178.7500  144.2920 C   0  0  0  0  0  1  0  0  0  0  0  0
  180.7720  178.2460  144.3020 O   0  0  0  0  0  0  0  0  0  0  0  0
  184.5300  178.6930  140.0090 C   0  0  0  0  0  1  0  0  0  0  0  0
  184.5330  178.0820  141.3960 C   0  0  0  0  0  2  0  0  0  0  0  0
  1 10  1  1  0  0  0
  2  3  1  0  0  0  0
  2  4  1  0  0  0  0
  3  5  1  6  0  0  0
  3  8  1  0  0  0  0
  4  7  1  0  0  0  0
  7  8  1  0  0  0  0
  7  6  2  0  0  0  0
  8  1  1  1  0  0  0
  9 16  1  0  0  0  0
 10  9  2  0  0  0  0
 11 13  1  0  0  0  0
 11 12  2  0  0  0  0
 12 15  1  0  0  0  0
 13  9  1  6  0  0  0
 13 14  1  0  0  0  0
 14 15  2  0  0  0  0
 17 16  2  0  0  0  0
 18  1  1  0  0  0  0
 18 19  1  0  0  0  0
 19 31  1  6  0  0  0
 20 25  1  0  0  0  0
 21 19  1  6  0  0  0
 21 22  1  0  0  0  0
 22 25  1  0  0  0  0
 23 21  1  0  0  0  0
 23 24  1  0  0  0  0
 24 26  1  1  0  0  0
 24 20  1  0  0  0  0
 26 27  1  6  0  0  0
 26 29  1  0  0  0  0
 28 29  1  0  0  0  0
 30 31  1  0  0  0  0
M  END
>  <MODEL>
4

>  <REMARK>
 VINA RESULT:      -6.6      3.424      6.356
  Name = 
  10 active torsions:
  status: ('A' for Active; 'I' for Inactive)
    1  A    between atoms: C_3  and  N_9
    2  A    between atoms: C_3  and  C_14
    3  A    between atoms: C_3  and  C_25
    4  A    between atoms: C_5  and  C_6
    5  A    between atoms: C_6  and  C_7
    6  A    between atoms: N_9  and  C_18
    7  A    between atoms: C_12  and  C_18
    8  A    between atoms: C_15  and  C_18
    9  A    between atoms: C_21  and  C_27
   10  A    between atoms: C_21  and  O_30
                            x       y       z     vdW  Elec       q    Type
                         _______ _______ _______ _____ _____    ______ ____

>  <TORSDO>
F 10

$$$$
=
 OpenBabel11042412313D

 31 33  0  0  1  0  0  0  0  0999 V2000
  188.9250  177.3350  141.6170 C   0  0  1  0  0  3  0  0  0  0  0  0
  191.8380  178.0060  143.3990 C   0  0  0  0  0  2  0  0  0  0  0  0
  190.3650  178.4350  143.3700 C   0  0  2  0  0  3  0  0  0  0  0  0
  191.8360  176.5990  143.2560 O   0  0  0  0  0  0  0  0  0  0  0  0
  189.9930  178.8940  144.6330 O   0  0  0  0  0  1  0  0  0  0  0  0
  190.3110  174.8960  142.9190 O   0  0  0  0  0  0  0  0  0  0  0  0
  190.5640  176.1230  143.0420 C   0  0  0  0  0  0  0  0  0  0  0  0
  189.5390  177.1920  143.0160 C   0  0  2  0  0  3  0  0  0  0  0  0
  186.6870  178.0980  142.5270 C   0  0  0  0  0  0  0  0  0  0  0  0
  187.6750  178.1790  141.6300 C   0  0  0  0  0  3  0  0  0  0  0  0
  184.2110  178.3340  142.4280 C   0  0  0  0  0  2  0  0  0  0  0  0
  183.5920  178.5520  141.2770 C   0  0  0  0  0  3  0  0  0  0  0  0
  185.5290  179.0380  142.3510 C   0  0  2  0  0  3  0  0  0  0  0  0
  185.5080  179.6100  141.0150 N   0  0  0  0  0  2  0  0  0  0  0  0
  184.4160  179.3380  140.4300 N   0  0  0  0  0  0  0  0  0  0  0  0
  186.7480  177.1280  143.6410 C   0  0  0  0  0  3  0  0  0  0  0  0
  186.5910  177.4810  144.8390 O   0  0  0  0  0  0  0  0  0  0  0  0
  189.8990  177.8820  140.6770 N   0  0  0  0  0  2  0  0  0  0  0  0
  189.9200  177.0270  139.4950 C   0  0  1  0  0  3  0  0  0  0  0  0
  187.4180  176.7550  136.7120 C   0  0  0  0  0  2  0  0  0  0  0  0
  189.7020  177.8740  138.2330 C   0  0  2  0  0  3  0  0  0  0  0  0
  188.3210  178.5460  138.2150 C   0  0  0  0  0  2  0  0  0  0  0  0
  189.9060  177.0590  136.9480 C   0  0  0  0  0  2  0  0  0  0  0  0
  188.7710  176.0480  136.7430 C   0  0  2  0  0  3  0  0  0  0  0  0
  187.2020  177.5250  138.0100 C   0  0  0  0  0  2  0  0  0  0  0  0
  188.9760  175.1920  135.4900 C   0  0  1  0  0  3  0  0  0  0  0  0
  190.4490  174.9500  135.1880 C   0  0  0  0  0  1  0  0  0  0  0  0
  189.0780  173.2490  136.5450 C   0  0  0  0  0  1  0  0  0  0  0  0
  188.3130  173.9700  135.6270 O   0  0  0  0  0  0  0  0  0  0  0  0
  192.3910  177.2420  139.7870 C   0  0  0  0  0  1  0  0  0  0  0  0
  191.2590  176.3030  139.4180 C   0  0  0  0  0  2  0  0  0  0  0  0
  1 10  1  1  0  0  0
  3  2  1  0  0  0  0
  3  5  1  1  0  0  0
  4  2  1  0  0  0  0
  6  7  2  0  0  0  0
  7  4  1  0  0  0  0
  8  1  1  6  0  0  0
  8  7  1  0  0  0  0
  8  3  1  0  0  0  0
  9 16  1  0  0  0  0
 10  9  2  0  0  0  0
 12 11  1  0  0  0  0
 13 11  1  0  0  0  0
 13  9  1  6  0  0  0
 14 13  1  0  0  0  0
 15 14  1  0  0  0  0
 15 12  2  0  0  0  0
 16 17  2  0  0  0  0
 18  1  1  0  0  0  0
 19 31  1  6  0  0  0
 19 18  1  0  0  0  0
 20 24  1  0  0  0  0
 20 25  1  0  0  0  0
 21 19  1  1  0  0  0
 22 21  1  0  0  0  0
 23 21  1  0  0  0  0
 24 26  1  6  0  0  0
 24 23  1  0  0  0  0
 25 22  1  0  0  0  0
 26 27  1  1  0  0  0
 26 29  1  0  0  0  0
 29 28  1  0  0  0  0
 31 30  1  0  0  0  0
M  END
>  <MODEL>
5

>  <REMARK>
 VINA RESULT:      -6.5      3.199      8.017
  Name = 
  10 active torsions:
  status: ('A' for Active; 'I' for Inactive)
    1  A    between atoms: C_3  and  N_9
    2  A    between atoms: C_3  and  C_14
    3  A    between atoms: C_3  and  C_25
    4  A    between atoms: C_5  and  C_6
    5  A    between atoms: C_6  and  C_7
    6  A    between atoms: N_9  and  C_18
    7  A    between atoms: C_12  and  C_18
    8  A    between atoms: C_15  and  C_18
    9  A    between atoms: C_21  and  C_27
   10  A    between atoms: C_21  and  O_30
                            x       y       z     vdW  Elec       q    Type
                         _______ _______ _______ _____ _____    ______ ____

>  <TORSDO>
F 10

$$$$
=
 OpenBabel11042412313D

 31 33  0  0  1  0  0  0  0  0999 V2000
  188.0080  177.6620  144.8400 C   0  0  1  0  0  3  0  0  0  0  0  0
  186.1620  179.4960  147.1510 C   0  0  0  0  0  2  0  0  0  0  0  0
  185.9460  178.6940  145.8610 C   0  0  2  0  0  3  0  0  0  0  0  0
  187.0430  178.7260  147.9450 O   0  0  0  0  0  0  0  0  0  0  0  0
  184.6340  178.2250  145.8230 O   0  0  0  0  0  1  0  0  0  0  0  0
  188.2400  176.7560  147.7870 O   0  0  0  0  0  0  0  0  0  0  0  0
  187.4740  177.6090  147.2680 C   0  0  0  0  0  0  0  0  0  0  0  0
  186.9120  177.5030  145.9020 C   0  0  2  0  0  3  0  0  0  0  0  0
  190.5110  177.8380  145.1970 C   0  0  0  0  0  0  0  0  0  0  0  0
  189.3510  177.1860  145.3350 C   0  0  0  0  0  3  0  0  0  0  0  0
  191.8280  175.7350  145.3900 C   0  0  0  0  0  3  0  0  0  0  0  0
  191.8480  175.0440  146.5200 C   0  0  0  0  0  3  0  0  0  0  0  0
  191.7340  177.1790  145.7680 C   0  0  2  0  0  3  0  0  0  0  0  0
  191.6800  177.1270  147.2200 N   0  0  0  0  0  0  0  0  0  0  0  0
  191.7540  175.9280  147.6270 N   0  0  0  0  0  0  0  0  0  0  0  0
  190.5690  179.1490  144.5170 C   0  0  0  0  0  3  0  0  0  0  0  0
  191.6360  179.5880  144.0130 O   0  0  0  0  0  0  0  0  0  0  0  0
  187.6430  176.9650  143.6100 N   0  0  0  0  0  2  0  0  0  0  0  0
  188.4140  177.5440  142.5150 C   0  0  1  0  0  3  0  0  0  0  0  0
  191.3300  177.5030  140.1540 C   0  0  0  0  0  2  0  0  0  0  0  0
  189.0070  176.4260  141.6460 C   0  0  2  0  0  3  0  0  0  0  0  0
  190.4550  176.0940  142.0330 C   0  0  0  0  0  2  0  0  0  0  0  0
  188.9260  176.7540  140.1480 C   0  0  0  0  0  2  0  0  0  0  0  0
  189.9000  177.8770  139.7710 C   0  0  2  0  0  3  0  0  0  0  0  0
  191.4120  177.2230  141.6500 C   0  0  0  0  0  2  0  0  0  0  0  0
  189.8060  178.2530  138.2890 C   0  0  1  0  0  3  0  0  0  0  0  0
  189.5700  177.0410  137.3970 C   0  0  0  0  0  1  0  0  0  0  0  0
  187.9580  178.6210  137.1270 C   0  0  0  0  0  1  0  0  0  0  0  0
  188.7890  179.1910  138.0930 O   0  0  0  0  0  0  0  0  0  0  0  0
  186.0600  178.2690  142.0960 C   0  0  0  0  0  1  0  0  0  0  0  0
  187.5080  178.4380  141.6750 C   0  0  0  0  0  2  0  0  0  0  0  0
  1 10  1  1  0  0  0
  2  4  1  0  0  0  0
  3  5  1  1  0  0  0
  3  8  1  0  0  0  0
  3  2  1  0  0  0  0
  7  6  2  0  0  0  0
  7  4  1  0  0  0  0
  8  1  1  6  0  0  0
  8  7  1  0  0  0  0
  9 10  2  0  0  0  0
 11 13  1  0  0  0  0
 11 12  2  0  0  0  0
 12 15  1  0  0  0  0
 13  9  1  6  0  0  0
 13 14  1  0  0  0  0
 14 15  2  0  0  0  0
 16  9  1  0  0  0  0
 17 16  2  0  0  0  0
 18  1  1  0  0  0  0
 19 31  1  6  0  0  0
 19 18  1  0  0  0  0
 20 25  1  0  0  0  0
 21 22  1  0  0  0  0
 21 19  1  1  0  0  0
 23 21  1  0  0  0  0
 24 26  1  6  0  0  0
 24 23  1  0  0  0  0
 24 20  1  0  0  0  0
 25 22  1  0  0  0  0
 26 27  1  6  0  0  0
 28 29  1  0  0  0  0
 29 26  1  0  0  0  0
 31 30  1  0  0  0  0
M  END
>  <MODEL>
6

>  <REMARK>
 VINA RESULT:      -6.5      3.752      8.237
  Name = 
  10 active torsions:
  status: ('A' for Active; 'I' for Inactive)
    1  A    between atoms: C_3  and  N_9
    2  A    between atoms: C_3  and  C_14
    3  A    between atoms: C_3  and  C_25
    4  A    between atoms: C_5  and  C_6
    5  A    between atoms: C_6  and  C_7
    6  A    between atoms: N_9  and  C_18
    7  A    between atoms: C_12  and  C_18
    8  A    between atoms: C_15  and  C_18
    9  A    between atoms: C_21  and  C_27
   10  A    between atoms: C_21  and  O_30
                            x       y       z     vdW  Elec       q    Type
                         _______ _______ _______ _____ _____    ______ ____

>  <TORSDO>
F 10

$$$$
=
 OpenBabel11042412313D

 31 33  0  0  1  0  0  0  0  0999 V2000
  190.9390  176.4400  138.0700 C   0  0  1  0  0  3  0  0  0  0  0  0
  193.8740  174.6380  137.5680 C   0  0  0  0  0  2  0  0  0  0  0  0
  192.7990  175.3660  136.7490 C   0  0  2  0  0  3  0  0  0  0  0  0
  194.1700  175.4850  138.6600 O   0  0  0  0  0  0  0  0  0  0  0  0
  193.3430  175.7730  135.5320 O   0  0  0  0  0  1  0  0  0  0  0  0
  193.4470  177.4970  139.5360 O   0  0  0  0  0  0  0  0  0  0  0  0
  193.3470  176.5860  138.6730 C   0  0  0  0  0  0  0  0  0  0  0  0
  192.3760  176.6000  137.5550 C   0  0  2  0  0  3  0  0  0  0  0  0
  189.4530  175.3230  136.3470 C   0  0  0  0  0  0  0  0  0  0  0  0
  190.2350  175.2680  137.4310 C   0  0  0  0  0  3  0  0  0  0  0  0
  187.3630  174.1200  135.7330 C   0  0  0  0  0  3  0  0  0  0  0  0
  186.8440  173.2020  136.5340 C   0  0  0  0  0  3  0  0  0  0  0  0
  188.8490  174.0310  135.8780 C   0  0  2  0  0  3  0  0  0  0  0  0
  189.0110  172.9780  136.8680 N   0  0  0  0  0  0  0  0  0  0  0  0
  187.8830  172.5180  137.2190 N   0  0  0  0  0  0  0  0  0  0  0  0
  189.2090  176.6030  135.6500 C   0  0  0  0  0  3  0  0  0  0  0  0
  189.9770  177.0230  134.7450 O   0  0  0  0  0  0  0  0  0  0  0  0
  190.9200  176.3130  139.5250 N   0  0  0  0  0  2  0  0  0  0  0  0
  189.7520  177.0270  140.0270 C   0  0  1  0  0  3  0  0  0  0  0  0
  188.9630  176.2230  143.6070 C   0  0  0  0  0  2  0  0  0  0  0  0
  190.1040  177.7480  141.3360 C   0  0  2  0  0  3  0  0  0  0  0  0
  190.9730  176.8830  142.2620 C   0  0  0  0  0  2  0  0  0  0  0  0
  188.8530  178.2270  142.0870 C   0  0  0  0  0  2  0  0  0  0  0  0
  188.0730  177.0480  142.6790 C   0  0  2  0  0  3  0  0  0  0  0  0
  190.1800  175.7130  142.8440 C   0  0  0  0  0  2  0  0  0  0  0  0
  186.7960  177.4980  143.3950 C   0  0  1  0  0  3  0  0  0  0  0  0
  187.0270  177.7720  144.8750 C   0  0  0  0  0  1  0  0  0  0  0  0
  184.9940  178.2640  142.3630 C   0  0  0  0  0  1  0  0  0  0  0  0
  186.2730  178.6370  142.7780 O   0  0  0  0  0  0  0  0  0  0  0  0
  187.7810  177.9530  138.8040 C   0  0  0  0  0  1  0  0  0  0  0  0
  189.2850  178.0330  138.9820 C   0  0  0  0  0  2  0  0  0  0  0  0
  1 10  1  6  0  0  0
  1 18  1  0  0  0  0
  2  4  1  0  0  0  0
  3  5  1  6  0  0  0
  3  8  1  0  0  0  0
  3  2  1  0  0  0  0
  4  7  1  0  0  0  0
  7  6  2  0  0  0  0
  8  1  1  1  0  0  0
  8  7  1  0  0  0  0
  9 10  2  0  0  0  0
 11 13  1  0  0  0  0
 11 12  2  0  0  0  0
 12 15  1  0  0  0  0
 13  9  1  1  0  0  0
 13 14  1  0  0  0  0
 14 15  2  0  0  0  0
 16  9  1  0  0  0  0
 17 16  2  0  0  0  0
 18 19  1  0  0  0  0
 19 31  1  6  0  0  0
 21 19  1  6  0  0  0
 21 23  1  0  0  0  0
 21 22  1  0  0  0  0
 22 25  1  0  0  0  0
 23 24  1  0  0  0  0
 24 26  1  1  0  0  0
 24 20  1  0  0  0  0
 25 20  1  0  0  0  0
 26 27  1  1  0  0  0
 28 29  1  0  0  0  0
 29 26  1  0  0  0  0
 30 31  1  0  0  0  0
M  END
>  <MODEL>
7

>  <REMARK>
 VINA RESULT:      -6.1      4.489      7.179
  Name = 
  10 active torsions:
  status: ('A' for Active; 'I' for Inactive)
    1  A    between atoms: C_3  and  N_9
    2  A    between atoms: C_3  and  C_14
    3  A    between atoms: C_3  and  C_25
    4  A    between atoms: C_5  and  C_6
    5  A    between atoms: C_6  and  C_7
    6  A    between atoms: N_9  and  C_18
    7  A    between atoms: C_12  and  C_18
    8  A    between atoms: C_15  and  C_18
    9  A    between atoms: C_21  and  C_27
   10  A    between atoms: C_21  and  O_30
                            x       y       z     vdW  Elec       q    Type
                         _______ _______ _______ _____ _____    ______ ____

>  <TORSDO>
F 10

$$$$
=
 OpenBabel11042412313D

 31 33  0  0  1  0  0  0  0  0999 V2000
  183.8030  178.3210  139.1210 C   0  0  1  0  0  3  0  0  0  0  0  0
  180.5880  179.6290  139.3710 C   0  0  0  0  0  2  0  0  0  0  0  0
  181.9300  179.9580  138.7040 C   0  0  2  0  0  3  0  0  0  0  0  0
  180.3830  178.2450  139.1730 O   0  0  0  0  0  0  0  0  0  0  0  0
  181.7050  180.7470  137.5770 O   0  0  0  0  0  1  0  0  0  0  0  0
  181.5040  176.4430  138.2560 O   0  0  0  0  0  0  0  0  0  0  0  0
  181.4700  177.6640  138.5630 C   0  0  0  0  0  0  0  0  0  0  0  0
  182.5590  178.6260  138.2750 C   0  0  2  0  0  3  0  0  0  0  0  0
  185.5890  177.5380  137.5030 C   0  0  0  0  0  0  0  0  0  0  0  0
  185.0770  178.4600  138.3260 C   0  0  0  0  0  3  0  0  0  0  0  0
  188.0050  177.0040  137.2360 C   0  0  0  0  0  3  0  0  0  0  0  0
  188.9390  177.7960  137.7400 C   0  0  0  0  0  3  0  0  0  0  0  0
  186.8740  177.8840  136.8080 C   0  0  2  0  0  3  0  0  0  0  0  0
  187.3410  179.2090  137.1840 N   0  0  0  0  0  0  0  0  0  0  0  0
  188.5000  179.1460  137.6950 N   0  0  0  0  0  0  0  0  0  0  0  0
  184.9070  176.2440  137.2940 C   0  0  0  0  0  3  0  0  0  0  0  0
  184.1780  176.0330  136.2890 O   0  0  0  0  0  0  0  0  0  0  0  0
  183.8470  179.1750  140.3050 N   0  0  0  0  0  2  0  0  0  0  0  0
  184.5080  178.4360  141.3740 C   0  0  1  0  0  3  0  0  0  0  0  0
  187.6850  177.5050  143.1400 C   0  0  0  0  0  2  0  0  0  0  0  0
  185.6200  179.2950  141.9930 C   0  0  2  0  0  3  0  0  0  0  0  0
  186.9780  179.0670  141.3120 C   0  0  0  0  0  2  0  0  0  0  0  0
  185.7470  179.0710  143.5070 C   0  0  0  0  0  2  0  0  0  0  0  0
  186.3290  177.6870  143.8180 C   0  0  2  0  0  3  0  0  0  0  0  0
  187.5420  177.6840  141.6330 C   0  0  0  0  0  2  0  0  0  0  0  0
  186.4230  177.4230  145.3240 C   0  0  1  0  0  3  0  0  0  0  0  0
  187.8370  177.6130  145.8580 C   0  0  0  0  0  1  0  0  0  0  0  0
  186.2150  178.5980  147.1880 C   0  0  0  0  0  1  0  0  0  0  0  0
  185.5400  178.2540  146.0160 O   0  0  0  0  0  0  0  0  0  0  0  0
  182.3170  179.0260  142.4170 C   0  0  0  0  0  1  0  0  0  0  0  0
  183.4830  178.0570  142.4370 C   0  0  0  0  0  2  0  0  0  0  0  0
  1 10  1  6  0  0  0
  1 18  1  0  0  0  0
  3  5  1  6  0  0  0
  3  2  1  0  0  0  0
  4  2  1  0  0  0  0
  6  7  2  0  0  0  0
  7  4  1  0  0  0  0
  8  7  1  0  0  0  0
  8  3  1  0  0  0  0
  8  1  1  1  0  0  0
  9 10  2  0  0  0  0
 11 12  2  0  0  0  0
 13 14  1  0  0  0  0
 13 11  1  0  0  0  0
 13  9  1  1  0  0  0
 14 15  2  0  0  0  0
 15 12  1  0  0  0  0
 16  9  1  0  0  0  0
 17 16  2  0  0  0  0
 18 19  1  0  0  0  0
 19 31  1  1  0  0  0
 20 24  1  0  0  0  0
 21 19  1  6  0  0  0
 21 23  1  0  0  0  0
 22 25  1  0  0  0  0
 22 21  1  0  0  0  0
 23 24  1  0  0  0  0
 24 26  1  1  0  0  0
 25 20  1  0  0  0  0
 26 27  1  1  0  0  0
 26 29  1  0  0  0  0
 29 28  1  0  0  0  0
 30 31  1  0  0  0  0
M  END
>  <MODEL>
8

>  <REMARK>
 VINA RESULT:      -6.0      1.181      2.119
  Name = 
  10 active torsions:
  status: ('A' for Active; 'I' for Inactive)
    1  A    between atoms: C_3  and  N_9
    2  A    between atoms: C_3  and  C_14
    3  A    between atoms: C_3  and  C_25
    4  A    between atoms: C_5  and  C_6
    5  A    between atoms: C_6  and  C_7
    6  A    between atoms: N_9  and  C_18
    7  A    between atoms: C_12  and  C_18
    8  A    between atoms: C_15  and  C_18
    9  A    between atoms: C_21  and  C_27
   10  A    between atoms: C_21  and  O_30
                            x       y       z     vdW  Elec       q    Type
                         _______ _______ _______ _____ _____    ______ ____

>  <TORSDO>
F 10

$$$$
=
 OpenBabel11042412313D

 31 33  0  0  1  0  0  0  0  0999 V2000
  188.0390  178.2700  140.2190 C   0  0  1  0  0  3  0  0  0  0  0  0
  188.1760  177.5610  136.8140 C   0  0  0  0  0  2  0  0  0  0  0  0
  188.2940  178.7640  137.7590 C   0  0  2  0  0  3  0  0  0  0  0  0
  188.9210  176.5200  137.4140 O   0  0  0  0  0  0  0  0  0  0  0  0
  189.0620  179.7550  137.1510 O   0  0  0  0  0  1  0  0  0  0  0  0
  190.1130  176.1440  139.3580 O   0  0  0  0  0  0  0  0  0  0  0  0
  189.3940  176.8960  138.6500 C   0  0  0  0  0  0  0  0  0  0  0  0
  189.0060  178.2750  139.0270 C   0  0  2  0  0  3  0  0  0  0  0  0
  185.5610  178.7400  140.4710 C   0  0  0  0  0  0  0  0  0  0  0  0
  186.5960  178.2510  139.7780 C   0  0  0  0  0  3  0  0  0  0  0  0
  183.3820  177.5380  140.4770 C   0  0  0  0  0  2  0  0  0  0  0  0
  183.0760  176.6760  139.5200 C   0  0  0  0  0  3  0  0  0  0  0  0
  184.2030  178.6160  139.8440 C   0  0  2  0  0  3  0  0  0  0  0  0
  184.2950  178.1760  138.4610 N   0  0  0  0  0  2  0  0  0  0  0  0
  183.6520  177.0960  138.2920 N   0  0  0  0  0  0  0  0  0  0  0  0
  185.7630  179.3760  141.7900 C   0  0  0  0  0  3  0  0  0  0  0  0
  184.8570  179.3910  142.6650 O   0  0  0  0  0  0  0  0  0  0  0  0
  188.3140  177.1430  141.1050 N   0  0  0  0  0  2  0  0  0  0  0  0
  188.5330  177.6660  142.4490 C   0  0  1  0  0  3  0  0  0  0  0  0
  187.6490  177.8360  146.0920 C   0  0  0  0  0  2  0  0  0  0  0  0
  188.2690  176.5650  143.4870 C   0  0  2  0  0  3  0  0  0  0  0  0
  186.8410  176.6270  144.0500 C   0  0  0  0  0  2  0  0  0  0  0  0
  189.2880  176.5980  144.6350 C   0  0  0  0  0  2  0  0  0  0  0  0
  189.0720  177.8190  145.5380 C   0  0  2  0  0  3  0  0  0  0  0  0
  186.6440  177.8490  144.9460 C   0  0  0  0  0  2  0  0  0  0  0  0
  190.1060  177.8970  146.6650 C   0  0  1  0  0  3  0  0  0  0  0  0
  189.4860  177.6630  148.0370 C   0  0  0  0  0  1  0  0  0  0  0  0
  191.5040  176.5420  147.7190 C   0  0  0  0  0  1  0  0  0  0  0  0
  191.1310  176.9740  146.4450 O   0  0  0  0  0  0  0  0  0  0  0  0
  190.9440  177.0920  142.1370 C   0  0  0  0  0  1  0  0  0  0  0  0
  189.9680  178.1680  142.5690 C   0  0  0  0  0  2  0  0  0  0  0  0
  1 10  1  6  0  0  0
  1 18  1  0  0  0  0
  2  4  1  0  0  0  0
  2  3  1  0  0  0  0
  3  5  1  6  0  0  0
  3  8  1  0  0  0  0
  4  7  1  0  0  0  0
  7  8  1  0  0  0  0
  7  6  2  0  0  0  0
  8  1  1  1  0  0  0
  9 16  1  0  0  0  0
 10  9  2  0  0  0  0
 12 11  1  0  0  0  0
 13  9  1  1  0  0  0
 13 11  1  0  0  0  0
 14 13  1  0  0  0  0
 15 14  1  0  0  0  0
 15 12  2  0  0  0  0
 16 17  2  0  0  0  0
 18 19  1  0  0  0  0
 19 31  1  6  0  0  0
 21 19  1  6  0  0  0
 21 22  1  0  0  0  0
 21 23  1  0  0  0  0
 22 25  1  0  0  0  0
 23 24  1  0  0  0  0
 24 20  1  0  0  0  0
 24 26  1  1  0  0  0
 25 20  1  0  0  0  0
 26 27  1  1  0  0  0
 29 26  1  0  0  0  0
 29 28  1  0  0  0  0
 30 31  1  0  0  0  0
M  END
>  <MODEL>
9

>  <REMARK>
 VINA RESULT:      -6.0      2.760      5.021
  Name = 
  10 active torsions:
  status: ('A' for Active; 'I' for Inactive)
    1  A    between atoms: C_3  and  N_9
    2  A    between atoms: C_3  and  C_14
    3  A    between atoms: C_3  and  C_25
    4  A    between atoms: C_5  and  C_6
    5  A    between atoms: C_6  and  C_7
    6  A    between atoms: N_9  and  C_18
    7  A    between atoms: C_12  and  C_18
    8  A    between atoms: C_15  and  C_18
    9  A    between atoms: C_21  and  C_27
   10  A    between atoms: C_21  and  O_30
                            x       y       z     vdW  Elec       q    Type
                         _______ _______ _______ _____ _____    ______ ____

>  <TORSDO>
F 10

$$$$
