=
 OpenBabel11042412163D

 34 37  0  0  1  0  0  0  0  0999 V2000
  190.1430  176.3790  137.7770 C   0  0  1  0  0  0  0  0  0  0  0  0
  188.2440  178.3830  140.1470 C   0  0  0  0  0  3  0  0  0  0  0  0
  189.9980  176.9760  139.1720 C   0  0  0  0  0  0  0  0  0  0  0  0
  189.5060  178.3800  139.3590 C   0  0  0  0  0  2  0  0  0  0  0  0
  189.3570  177.4210  142.1410 C   0  0  0  0  0  0  0  0  0  0  0  0
  188.1810  177.9600  141.4090 C   0  0  0  0  0  0  0  0  0  0  0  0
  190.3830  176.2750  140.2010 N   0  0  0  0  0  0  0  0  0  0  0  0
  190.3000  176.6440  141.5890 C   0  0  0  0  0  3  0  0  0  0  0  0
  186.9420  178.0910  142.0960 N   0  0  0  0  0  1  0  0  0  0  0  0
  189.4960  177.8100  144.7550 C   0  0  0  0  0  3  0  0  0  0  0  0
  189.4340  177.6310  143.5630 C   0  0  0  0  0  0  0  0  0  0  0  0
  191.4380  175.5440  137.6920 C   0  0  0  0  0  2  0  0  0  0  0  0
  195.2380  173.9210  138.6090 C   0  0  0  0  0  2  0  0  0  0  0  0
  195.9010  174.9330  136.4610 C   0  0  0  0  0  0  0  0  0  0  0  0
  195.0050  175.9790  136.5190 O   0  0  0  0  0  0  0  0  0  0  0  0
  195.4200  173.6870  137.1230 C   0  0  2  0  0  3  0  0  0  0  0  0
  192.6590  176.3640  137.2780 C   0  0  2  0  0  3  0  0  0  0  0  0
  193.8840  175.5340  137.2360 C   0  0  2  0  0  0  0  0  0  0  0  0
  193.6080  176.3830  138.3210 O   0  0  0  0  0  0  0  0  0  0  0  0
  197.0190  175.0280  135.8890 O   0  0  0  0  0  0  0  0  0  0  0  0
  194.0450  174.0800  137.6810 C   0  0  2  0  0  3  0  0  0  0  0  0
  188.9220  175.4900  137.4720 C   0  0  0  0  0  2  0  0  0  0  0  0
  189.3610  173.1420  137.5010 O   0  0  0  0  0  1  0  0  0  0  0  0
  189.3730  174.1170  135.4290 O   0  0  0  0  0  0  0  0  0  0  0  0
  189.2330  174.1830  136.8090 C   0  0  0  0  0  0  0  0  0  0  0  0
  190.1680  177.4990  136.7090 C   0  0  0  0  0  2  0  0  0  0  0  0
  188.9550  177.0870  134.7170 O   0  0  0  0  0  0  0  0  0  0  0  0
  188.9440  177.5680  135.8390 C   0  0  0  0  0  0  0  0  0  0  0  0
  187.6930  178.1770  136.3850 C   0  0  0  0  0  2  0  0  0  0  0  0
  186.4690  177.6730  135.6370 C   0  0  0  0  0  2  0  0  0  0  0  0
  185.2020  177.0920  136.8030 P   0  0  0  0  0  0  0  0  0  0  0  0
  183.6720  177.2750  136.1070 O   0  0  0  0  0  0  0  0  0  0  0  0
  185.2810  178.0080  138.2240 O   0  0  0  0  0  1  0  0  0  0  0  0
  185.4260  175.6360  137.1360 O   0  0  0  0  0  1  0  0  0  0  0  0
  1 26  1  6  0  0  0
  1  3  1  0  0  0  0
  2  6  2  0  0  0  0
  3  4  1  0  0  0  0
  3  7  2  0  0  0  0
  4  2  1  0  0  0  0
  5 11  1  0  0  0  0
  6  9  1  0  0  0  0
  6  5  1  0  0  0  0
  7  8  1  0  0  0  0
  8  5  2  0  0  0  0
 11 10  3  0  0  0  0
 12  1  1  0  0  0  0
 14 15  1  0  0  0  0
 14 16  1  0  0  0  0
 16 21  1  0  0  0  0
 16 13  1  1  0  0  0
 17 12  1  1  0  0  0
 17 19  1  0  0  0  0
 18 15  1  6  0  0  0
 18 17  1  0  0  0  0
 18 21  1  0  0  0  0
 18 19  1  0  0  0  0
 20 14  2  0  0  0  0
 21 13  1  1  0  0  0
 22  1  1  0  0  0  0
 24 25  2  0  0  0  0
 25 22  1  0  0  0  0
 25 23  1  0  0  0  0
 27 28  2  0  0  0  0
 28 29  1  0  0  0  0
 28 26  1  0  0  0  0
 30 29  1  0  0  0  0
 30 31  1  0  0  0  0
 31 34  1  0  0  0  0
 31 33  1  0  0  0  0
 32 31  2  0  0  0  0
M  END
>  <MODEL>
1

>  <REMARK>
 VINA RESULT:      -6.0      0.000      0.000
  Name = 
  11 active torsions:
  status: ('A' for Active; 'I' for Inactive)
    1  A    between atoms: P_2  and  C_23
    2  A    between atoms: C_4  and  C_23
    3  A    between atoms: C_4  and  C_29
    4  A    between atoms: C_9  and  C_15
    5  A    between atoms: C_11  and  C_12
    6  A    between atoms: C_11  and  C_15
    7  A    between atoms: C_13  and  C_15
    8  A    between atoms: C_13  and  C_21
    9  A    between atoms: C_14  and  C_15
   10  A    between atoms: C_14  and  C_29
   11  A    between atoms: C_18  and  C_33
                            x       y       z     vdW  Elec       q    Type
                         _______ _______ _______ _____ _____    ______ ____

>  <TORSDO>
F 11

$$$$
=
 OpenBabel11042412163D

 34 37  0  0  1  0  0  0  0  0999 V2000
  182.4230  178.4850  141.3370 C   0  0  1  0  0  0  0  0  0  0  0  0
  183.5820  179.3150  144.6850 C   0  0  0  0  0  3  0  0  0  0  0  0
  183.5720  178.6490  142.3260 C   0  0  0  0  0  0  0  0  0  0  0  0
  183.6030  179.8050  143.2810 C   0  0  0  0  0  2  0  0  0  0  0  0
  185.7540  178.1500  144.4260 C   0  0  0  0  0  0  0  0  0  0  0  0
  184.5610  178.5760  145.2050 C   0  0  0  0  0  0  0  0  0  0  0  0
  184.5700  177.8130  142.2790 N   0  0  0  0  0  0  0  0  0  0  0  0
  185.7230  177.7810  143.1390 C   0  0  0  0  0  3  0  0  0  0  0  0
  184.4800  178.2370  146.5850 N   0  0  0  0  0  1  0  0  0  0  0  0
  188.0540  177.8640  145.7030 C   0  0  0  0  0  3  0  0  0  0  0  0
  187.0050  177.9960  145.1210 C   0  0  0  0  0  0  0  0  0  0  0  0
  182.5490  177.1340  140.6020 C   0  0  0  0  0  2  0  0  0  0  0  0
  181.9010  175.6180  136.7030 C   0  0  0  0  0  2  0  0  0  0  0  0
  180.6770  173.8330  137.8810 C   0  0  0  0  0  0  0  0  0  0  0  0
  180.2700  174.6180  138.9390 O   0  0  0  0  0  0  0  0  0  0  0  0
  181.9910  174.2300  137.3030 C   0  0  2  0  0  3  0  0  0  0  0  0
  181.2010  176.4650  140.3350 C   0  0  2  0  0  3  0  0  0  0  0  0
  181.2490  175.6040  139.1320 C   0  0  2  0  0  0  0  0  0  0  0  0
  180.6860  176.8900  139.0930 O   0  0  0  0  0  0  0  0  0  0  0  0
  179.9960  172.8620  137.4560 O   0  0  0  0  0  0  0  0  0  0  0  0
  182.3960  175.4580  138.1310 C   0  0  2  0  0  3  0  0  0  0  0  0
  181.0830  178.5490  142.0950 C   0  0  0  0  0  2  0  0  0  0  0  0
  180.1400  180.7220  142.4130 O   0  0  0  0  0  1  0  0  0  0  0  0
  179.4000  179.5910  140.5630 O   0  0  0  0  0  0  0  0  0  0  0  0
  180.1830  179.6820  141.7070 C   0  0  0  0  0  0  0  0  0  0  0  0
  182.4220  179.6440  140.3120 C   0  0  0  0  0  2  0  0  0  0  0  0
  182.4870  179.2170  137.9830 O   0  0  0  0  0  0  0  0  0  0  0  0
  183.1230  179.3420  139.0160 C   0  0  0  0  0  0  0  0  0  0  0  0
  184.6150  179.2580  138.9970 C   0  0  0  0  0  2  0  0  0  0  0  0
  185.0880  178.1540  138.0650 C   0  0  0  0  0  2  0  0  0  0  0  0
  186.9040  178.1010  138.0060 P   0  0  0  0  0  0  0  0  0  0  0  0
  187.4600  179.1880  136.8360 O   0  0  0  0  0  0  0  0  0  0  0  0
  187.4090  176.5380  137.6010 O   0  0  0  0  0  1  0  0  0  0  0  0
  187.4820  178.4780  139.3510 O   0  0  0  0  0  1  0  0  0  0  0  0
  1 26  1  6  0  0  0
  1 22  1  0  0  0  0
  1  3  1  0  0  0  0
  2  6  2  0  0  0  0
  3  4  1  0  0  0  0
  4  2  1  0  0  0  0
  5 11  1  0  0  0  0
  5  6  1  0  0  0  0
  6  9  1  0  0  0  0
  7  3  2  0  0  0  0
  7  8  1  0  0  0  0
  8  5  2  0  0  0  0
 11 10  3  0  0  0  0
 12  1  1  0  0  0  0
 14 15  1  0  0  0  0
 16 13  1  6  0  0  0
 16 14  1  0  0  0  0
 16 21  1  0  0  0  0
 17 12  1  6  0  0  0
 18 15  1  6  0  0  0
 18 17  1  0  0  0  0
 19 18  1  0  0  0  0
 19 17  1  0  0  0  0
 20 14  2  0  0  0  0
 21 13  1  6  0  0  0
 21 18  1  0  0  0  0
 24 25  2  0  0  0  0
 25 22  1  0  0  0  0
 25 23  1  0  0  0  0
 27 28  2  0  0  0  0
 28 26  1  0  0  0  0
 29 28  1  0  0  0  0
 30 29  1  0  0  0  0
 31 30  1  0  0  0  0
 31 34  1  0  0  0  0
 32 31  2  0  0  0  0
 33 31  1  0  0  0  0
M  END
>  <MODEL>
2

>  <REMARK>
 VINA RESULT:      -6.0      6.047      9.398
  Name = 
  11 active torsions:
  status: ('A' for Active; 'I' for Inactive)
    1  A    between atoms: P_2  and  C_23
    2  A    between atoms: C_4  and  C_23
    3  A    between atoms: C_4  and  C_29
    4  A    between atoms: C_9  and  C_15
    5  A    between atoms: C_11  and  C_12
    6  A    between atoms: C_11  and  C_15
    7  A    between atoms: C_13  and  C_15
    8  A    between atoms: C_13  and  C_21
    9  A    between atoms: C_14  and  C_15
   10  A    between atoms: C_14  and  C_29
   11  A    between atoms: C_18  and  C_33
                            x       y       z     vdW  Elec       q    Type
                         _______ _______ _______ _____ _____    ______ ____

>  <TORSDO>
F 11

$$$$
=
 OpenBabel11042412163D

 34 37  0  0  1  0  0  0  0  0999 V2000
  185.4850  178.7430  143.0540 C   0  0  1  0  0  0  0  0  0  0  0  0
  188.2360  176.3690  143.2250 C   0  0  0  0  0  3  0  0  0  0  0  0
  186.5070  177.9760  143.8840 C   0  0  0  0  0  0  0  0  0  0  0  0
  186.8050  176.5350  143.5940 C   0  0  0  0  0  2  0  0  0  0  0  0
  189.0130  177.1410  145.4480 C   0  0  0  0  0  0  0  0  0  0  0  0
  189.2340  176.6320  144.0690 C   0  0  0  0  0  0  0  0  0  0  0  0
  187.0640  178.5670  144.9040 N   0  0  0  0  0  0  0  0  0  0  0  0
  188.0660  178.0280  145.7840 C   0  0  0  0  0  3  0  0  0  0  0  0
  190.5620  176.3530  143.6410 N   0  0  0  0  0  1  0  0  0  0  0  0
  190.7330  176.4470  147.3360 C   0  0  0  0  0  3  0  0  0  0  0  0
  189.9500  176.7650  146.4750 C   0  0  0  0  0  0  0  0  0  0  0  0
  184.5310  177.7570  142.3480 C   0  0  0  0  0  2  0  0  0  0  0  0
  180.4300  177.8900  141.3090 C   0  0  0  0  0  2  0  0  0  0  0  0
  181.1060  179.8210  139.9360 C   0  0  0  0  0  0  0  0  0  0  0  0
  182.3860  179.3730  139.6880 O   0  0  0  0  0  0  0  0  0  0  0  0
  180.5620  179.3980  141.2570 C   0  0  2  0  0  3  0  0  0  0  0  0
  184.1930  178.1660  140.9150 C   0  0  2  0  0  3  0  0  0  0  0  0
  182.7850  178.6040  140.7910 C   0  0  2  0  0  0  0  0  0  0  0  0
  183.1930  177.3210  140.3920 O   0  0  0  0  0  0  0  0  0  0  0  0
  180.4660  180.5330  139.1180 O   0  0  0  0  0  0  0  0  0  0  0  0
  181.6890  178.5430  141.8560 C   0  0  2  0  0  3  0  0  0  0  0  0
  184.6830  179.6850  143.9740 C   0  0  0  0  0  2  0  0  0  0  0  0
  182.6470  178.6300  144.6440 O   0  0  0  0  0  0  0  0  0  0  0  0
  184.2580  178.7740  146.2650 O   0  0  0  0  0  1  0  0  0  0  0  0
  183.8010  179.0020  144.9740 C   0  0  0  0  0  0  0  0  0  0  0  0
  186.1960  179.6300  142.0040 C   0  0  0  0  0  2  0  0  0  0  0  0
  188.5180  179.1600  142.0130 O   0  0  0  0  0  0  0  0  0  0  0  0
  187.4540  179.0410  141.4280 C   0  0  0  0  0  0  0  0  0  0  0  0
  187.3760  178.2530  140.1600 C   0  0  0  0  0  2  0  0  0  0  0  0
  188.7650  177.9250  139.6350 C   0  0  0  0  0  2  0  0  0  0  0  0
  188.8660  178.2520  137.8500 P   0  0  0  0  0  0  0  0  0  0  0  0
  187.4390  177.7380  137.1030 O   0  0  0  0  0  0  0  0  0  0  0  0
  190.1750  177.4040  137.1950 O   0  0  0  0  0  1  0  0  0  0  0  0
  189.0550  179.7300  137.5990 O   0  0  0  0  0  1  0  0  0  0  0  0
  1 26  1  6  0  0  0
  1  3  1  0  0  0  0
  1 22  1  0  0  0  0
  2  4  1  0  0  0  0
  2  6  2  0  0  0  0
  3  7  2  0  0  0  0
  4  3  1  0  0  0  0
  5  8  2  0  0  0  0
  5 11  1  0  0  0  0
  6  5  1  0  0  0  0
  7  8  1  0  0  0  0
  9  6  1  0  0  0  0
 11 10  3  0  0  0  0
 12  1  1  0  0  0  0
 14 16  1  0  0  0  0
 15 14  1  0  0  0  0
 16 13  1  6  0  0  0
 16 21  1  0  0  0  0
 17 12  1  1  0  0  0
 18 15  1  6  0  0  0
 18 17  1  0  0  0  0
 18 21  1  0  0  0  0
 19 18  1  0  0  0  0
 19 17  1  0  0  0  0
 20 14  2  0  0  0  0
 21 13  1  6  0  0  0
 22 25  1  0  0  0  0
 23 25  2  0  0  0  0
 25 24  1  0  0  0  0
 28 26  1  0  0  0  0
 28 27  2  0  0  0  0
 29 28  1  0  0  0  0
 30 29  1  0  0  0  0
 31 30  1  0  0  0  0
 32 31  2  0  0  0  0
 33 31  1  0  0  0  0
 34 31  1  0  0  0  0
M  END
>  <MODEL>
3

>  <REMARK>
 VINA RESULT:      -5.9      4.367      9.207
  Name = 
  11 active torsions:
  status: ('A' for Active; 'I' for Inactive)
    1  A    between atoms: P_2  and  C_23
    2  A    between atoms: C_4  and  C_23
    3  A    between atoms: C_4  and  C_29
    4  A    between atoms: C_9  and  C_15
    5  A    between atoms: C_11  and  C_12
    6  A    between atoms: C_11  and  C_15
    7  A    between atoms: C_13  and  C_15
    8  A    between atoms: C_13  and  C_21
    9  A    between atoms: C_14  and  C_15
   10  A    between atoms: C_14  and  C_29
   11  A    between atoms: C_18  and  C_33
                            x       y       z     vdW  Elec       q    Type
                         _______ _______ _______ _____ _____    ______ ____

>  <TORSDO>
F 11

$$$$
=
 OpenBabel11042412163D

 34 37  0  0  1  0  0  0  0  0999 V2000
  188.6290  176.9970  138.0970 C   0  0  1  0  0  0  0  0  0  0  0  0
  187.6130  178.2190  141.3690 C   0  0  0  0  0  3  0  0  0  0  0  0
  188.9710  177.2920  139.5520 C   0  0  0  0  0  0  0  0  0  0  0  0
  188.4900  178.5490  140.2140 C   0  0  0  0  0  2  0  0  0  0  0  0
  189.4480  177.0720  142.5770 C   0  0  0  0  0  0  0  0  0  0  0  0
  188.0500  177.5620  142.4430 C   0  0  0  0  0  0  0  0  0  0  0  0
  189.7560  176.4740  140.1950 N   0  0  0  0  0  0  0  0  0  0  0  0
  190.1690  176.5600  141.5700 C   0  0  0  0  0  3  0  0  0  0  0  0
  187.1480  177.3790  143.5270 N   0  0  0  0  0  1  0  0  0  0  0  0
  190.5180  176.9770  144.9950 C   0  0  0  0  0  3  0  0  0  0  0  0
  190.0310  177.0200  143.8920 C   0  0  0  0  0  0  0  0  0  0  0  0
  188.4870  175.4740  137.8860 C   0  0  0  0  0  2  0  0  0  0  0  0
  188.8600  172.3600  135.0430 C   0  0  0  0  0  2  0  0  0  0  0  0
  186.5860  171.7630  135.7820 C   0  0  0  0  0  0  0  0  0  0  0  0
  186.2030  173.0490  136.1010 O   0  0  0  0  0  0  0  0  0  0  0  0
  188.0390  171.5000  135.9810 C   0  0  2  0  0  3  0  0  0  0  0  0
  187.2260  175.0870  137.1150 C   0  0  2  0  0  3  0  0  0  0  0  0
  187.3530  173.7450  136.5040 C   0  0  2  0  0  0  0  0  0  0  0  0
  187.5270  174.9160  135.7480 O   0  0  0  0  0  0  0  0  0  0  0  0
  185.7730  170.8950  135.3720 O   0  0  0  0  0  0  0  0  0  0  0  0
  188.5920  172.8510  136.4570 C   0  0  2  0  0  3  0  0  0  0  0  0
  187.3090  177.7040  137.7290 C   0  0  0  0  0  2  0  0  0  0  0  0
  187.6920  179.8550  136.7630 O   0  0  0  0  0  1  0  0  0  0  0  0
  187.1480  178.1970  135.2810 O   0  0  0  0  0  0  0  0  0  0  0  0
  187.3930  178.6500  136.5700 C   0  0  0  0  0  0  0  0  0  0  0  0
  189.7220  177.5590  137.1580 C   0  0  0  0  0  2  0  0  0  0  0  0
  190.7080  175.9540  135.7210 O   0  0  0  0  0  0  0  0  0  0  0  0
  190.7890  176.5720  136.7700 C   0  0  0  0  0  0  0  0  0  0  0  0
  191.9830  176.4030  137.6530 C   0  0  0  0  0  2  0  0  0  0  0  0
  192.4980  174.9730  137.6050 C   0  0  0  0  0  2  0  0  0  0  0  0
  194.2840  174.9490  137.2710 P   0  0  0  0  0  0  0  0  0  0  0  0
  195.1310  175.0360  138.7320 O   0  0  0  0  0  1  0  0  0  0  0  0
  194.6950  176.2790  136.3080 O   0  0  0  0  0  0  0  0  0  0  0  0
  194.6640  173.6770  136.5500 O   0  0  0  0  0  1  0  0  0  0  0  0
  1 26  1  6  0  0  0
  1  3  1  0  0  0  0
  2  6  2  0  0  0  0
  3  7  2  0  0  0  0
  3  4  1  0  0  0  0
  4  2  1  0  0  0  0
  5 11  1  0  0  0  0
  6  5  1  0  0  0  0
  6  9  1  0  0  0  0
  7  8  1  0  0  0  0
  8  5  2  0  0  0  0
 11 10  3  0  0  0  0
 12  1  1  0  0  0  0
 14 16  1  0  0  0  0
 14 15  1  0  0  0  0
 15 18  1  0  0  0  0
 16 13  1  6  0  0  0
 16 21  1  0  0  0  0
 17 12  1  1  0  0  0
 18 19  1  6  0  0  0
 18 17  1  0  0  0  0
 19 17  1  0  0  0  0
 20 14  2  0  0  0  0
 21 13  1  6  0  0  0
 21 18  1  0  0  0  0
 22  1  1  0  0  0  0
 24 25  2  0  0  0  0
 25 23  1  0  0  0  0
 25 22  1  0  0  0  0
 27 28  2  0  0  0  0
 28 26  1  0  0  0  0
 28 29  1  0  0  0  0
 30 29  1  0  0  0  0
 31 30  1  0  0  0  0
 31 32  1  0  0  0  0
 33 31  2  0  0  0  0
 34 31  1  0  0  0  0
M  END
>  <MODEL>
4

>  <REMARK>
 VINA RESULT:      -5.8      2.492      5.994
  Name = 
  11 active torsions:
  status: ('A' for Active; 'I' for Inactive)
    1  A    between atoms: P_2  and  C_23
    2  A    between atoms: C_4  and  C_23
    3  A    between atoms: C_4  and  C_29
    4  A    between atoms: C_9  and  C_15
    5  A    between atoms: C_11  and  C_12
    6  A    between atoms: C_11  and  C_15
    7  A    between atoms: C_13  and  C_15
    8  A    between atoms: C_13  and  C_21
    9  A    between atoms: C_14  and  C_15
   10  A    between atoms: C_14  and  C_29
   11  A    between atoms: C_18  and  C_33
                            x       y       z     vdW  Elec       q    Type
                         _______ _______ _______ _____ _____    ______ ____

>  <TORSDO>
F 11

$$$$
=
 OpenBabel11042412163D

 34 37  0  0  1  0  0  0  0  0999 V2000
  189.0560  176.2190  136.9010 C   0  0  1  0  0  0  0  0  0  0  0  0
  188.0120  173.3290  134.9530 C   0  0  0  0  0  3  0  0  0  0  0  0
  187.9610  175.2450  136.4800 C   0  0  0  0  0  0  0  0  0  0  0  0
  187.8360  174.8020  135.0520 C   0  0  0  0  0  2  0  0  0  0  0  0
  186.0040  172.8840  136.3370 C   0  0  0  0  0  0  0  0  0  0  0  0
  187.1760  172.4620  135.5240 C   0  0  0  0  0  0  0  0  0  0  0  0
  187.0840  174.8610  137.3640 N   0  0  0  0  0  0  0  0  0  0  0  0
  186.0030  173.9310  137.1730 C   0  0  0  0  0  3  0  0  0  0  0  0
  187.3890  171.0750  135.2890 N   0  0  0  0  0  1  0  0  0  0  0  0
  183.8500  171.3480  136.3300 C   0  0  0  0  0  3  0  0  0  0  0  0
  184.8320  172.0490  136.3320 C   0  0  0  0  0  0  0  0  0  0  0  0
  189.0550  176.3820  138.4350 C   0  0  0  0  0  2  0  0  0  0  0  0
  188.7330  177.8600  142.3880 C   0  0  0  0  0  2  0  0  0  0  0  0
  191.1680  177.4840  142.4520 C   0  0  0  0  0  0  0  0  0  0  0  0
  191.3770  177.7070  141.1070 O   0  0  0  0  0  0  0  0  0  0  0  0
  189.8360  176.8930  142.7660 C   0  0  2  0  0  3  0  0  0  0  0  0
  190.2130  177.2360  138.9510 C   0  0  2  0  0  3  0  0  0  0  0  0
  190.2130  177.3180  140.4290 C   0  0  2  0  0  0  0  0  0  0  0  0
  189.7160  178.3650  139.6350 O   0  0  0  0  0  0  0  0  0  0  0  0
  192.0340  177.7480  143.3270 O   0  0  0  0  0  0  0  0  0  0  0  0
  189.1530  176.7880  141.3950 C   0  0  2  0  0  3  0  0  0  0  0  0
  190.4230  175.6860  136.4280 C   0  0  0  0  0  2  0  0  0  0  0  0
  192.1170  174.6870  137.7850 O   0  0  0  0  0  1  0  0  0  0  0  0
  190.2650  173.3910  137.4140 O   0  0  0  0  0  0  0  0  0  0  0  0
  190.9880  174.5650  137.2450 C   0  0  0  0  0  0  0  0  0  0  0  0
  188.8470  177.5950  136.2250 C   0  0  0  0  0  2  0  0  0  0  0  0
  186.7290  178.0820  135.2810 O   0  0  0  0  0  0  0  0  0  0  0  0
  187.4360  178.1140  136.2750 C   0  0  0  0  0  0  0  0  0  0  0  0
  186.8880  178.6130  137.5730 C   0  0  0  0  0  2  0  0  0  0  0  0
  185.4830  178.0830  137.8110 C   0  0  0  0  0  2  0  0  0  0  0  0
  184.7860  178.7860  139.3360 P   0  0  0  0  0  0  0  0  0  0  0  0
  184.1570  180.3220  139.0100 O   0  0  0  0  0  0  0  0  0  0  0  0
  186.0040  178.9190  140.5030 O   0  0  0  0  0  1  0  0  0  0  0  0
  183.6840  177.8980  139.8650 O   0  0  0  0  0  1  0  0  0  0  0  0
  1 26  1  6  0  0  0
  1 12  1  0  0  0  0
  2  4  1  0  0  0  0
  2  6  2  0  0  0  0
  3  1  1  0  0  0  0
  3  7  2  0  0  0  0
  4  3  1  0  0  0  0
  5  8  2  0  0  0  0
  6  5  1  0  0  0  0
  8  7  1  0  0  0  0
  9  6  1  0  0  0  0
 10 11  3  0  0  0  0
 11  5  1  0  0  0  0
 14 16  1  0  0  0  0
 14 20  2  0  0  0  0
 15 14  1  0  0  0  0
 16 13  1  1  0  0  0
 17 12  1  1  0  0  0
 17 19  1  0  0  0  0
 17 18  1  0  0  0  0
 18 19  1  1  0  0  0
 18 15  1  0  0  0  0
 18 21  1  0  0  0  0
 21 13  1  1  0  0  0
 21 16  1  0  0  0  0
 22  1  1  0  0  0  0
 22 25  1  0  0  0  0
 25 24  2  0  0  0  0
 25 23  1  0  0  0  0
 26 28  1  0  0  0  0
 27 28  2  0  0  0  0
 28 29  1  0  0  0  0
 29 30  1  0  0  0  0
 30 31  1  0  0  0  0
 31 34  1  0  0  0  0
 31 33  1  0  0  0  0
 32 31  2  0  0  0  0
M  END
>  <MODEL>
5

>  <REMARK>
 VINA RESULT:      -5.8      3.040      5.893
  Name = 
  11 active torsions:
  status: ('A' for Active; 'I' for Inactive)
    1  A    between atoms: P_2  and  C_23
    2  A    between atoms: C_4  and  C_23
    3  A    between atoms: C_4  and  C_29
    4  A    between atoms: C_9  and  C_15
    5  A    between atoms: C_11  and  C_12
    6  A    between atoms: C_11  and  C_15
    7  A    between atoms: C_13  and  C_15
    8  A    between atoms: C_13  and  C_21
    9  A    between atoms: C_14  and  C_15
   10  A    between atoms: C_14  and  C_29
   11  A    between atoms: C_18  and  C_33
                            x       y       z     vdW  Elec       q    Type
                         _______ _______ _______ _____ _____    ______ ____

>  <TORSDO>
F 11

$$$$
=
 OpenBabel11042412163D

 34 37  0  0  1  0  0  0  0  0999 V2000
  180.8160  178.8250  139.5370 C   0  0  1  0  0  0  0  0  0  0  0  0
  184.2260  178.4270  140.7410 C   0  0  0  0  0  3  0  0  0  0  0  0
  181.7800  178.5630  140.6890 C   0  0  0  0  0  0  0  0  0  0  0  0
  182.9690  177.6680  140.5060 C   0  0  0  0  0  2  0  0  0  0  0  0
  183.6440  178.8730  143.1080 C   0  0  0  0  0  0  0  0  0  0  0  0
  184.5360  178.9610  141.9220 C   0  0  0  0  0  0  0  0  0  0  0  0
  181.5140  179.0660  141.8610 N   0  0  0  0  0  0  0  0  0  0  0  0
  182.3070  178.9600  143.0560 C   0  0  0  0  0  3  0  0  0  0  0  0
  185.8050  179.5890  142.0580 N   0  0  0  0  0  1  0  0  0  0  0  0
  184.7530  178.7770  145.5090 C   0  0  0  0  0  3  0  0  0  0  0  0
  184.2460  178.8210  144.4150 C   0  0  0  0  0  0  0  0  0  0  0  0
  181.4430  178.3560  138.2080 C   0  0  0  0  0  2  0  0  0  0  0  0
  182.7910  174.9890  136.0240 C   0  0  0  0  0  2  0  0  0  0  0  0
  180.4940  174.1670  136.3710 C   0  0  0  0  0  0  0  0  0  0  0  0
  179.9040  175.4140  136.4000 O   0  0  0  0  0  0  0  0  0  0  0  0
  181.8870  174.1460  136.8990 C   0  0  2  0  0  3  0  0  0  0  0  0
  180.4360  177.6920  137.2680 C   0  0  2  0  0  3  0  0  0  0  0  0
  180.8490  176.3150  136.9140 C   0  0  2  0  0  0  0  0  0  0  0  0
  181.0500  177.3920  136.0340 O   0  0  0  0  0  0  0  0  0  0  0  0
  179.8970  173.1440  135.9460 O   0  0  0  0  0  0  0  0  0  0  0  0
  182.1620  175.6130  137.2590 C   0  0  2  0  0  3  0  0  0  0  0  0
  179.4970  178.0700  139.7930 C   0  0  0  0  0  2  0  0  0  0  0  0
  180.0820  175.7880  140.1890 O   0  0  0  0  0  0  0  0  0  0  0  0
  179.2150  176.9060  141.9900 O   0  0  0  0  0  1  0  0  0  0  0  0
  179.6150  176.8550  140.6610 C   0  0  0  0  0  0  0  0  0  0  0  0
  180.4690  180.3310  139.4530 C   0  0  0  0  0  2  0  0  0  0  0  0
  182.5100  181.2680  138.6990 O   0  0  0  0  0  0  0  0  0  0  0  0
  181.3160  181.1210  138.4940 C   0  0  0  0  0  0  0  0  0  0  0  0
  180.6910  181.6720  137.2530 C   0  0  0  0  0  2  0  0  0  0  0  0
  179.9580  182.9720  137.5430 C   0  0  0  0  0  2  0  0  0  0  0  0
  180.8090  184.3740  136.7600 P   0  0  0  0  0  0  0  0  0  0  0  0
  182.2810  184.6480  137.5460 O   0  0  0  0  0  1  0  0  0  0  0  0
  179.8450  185.7590  136.8830 O   0  0  0  0  0  1  0  0  0  0  0  0
  181.0710  184.0780  135.3010 O   0  0  0  0  0  0  0  0  0  0  0  0
  1 12  1  6  0  0  0
  1 22  1  0  0  0  0
  1  3  1  0  0  0  0
  2  6  2  0  0  0  0
  3  7  2  0  0  0  0
  4  3  1  0  0  0  0
  4  2  1  0  0  0  0
  5 11  1  0  0  0  0
  6  9  1  0  0  0  0
  6  5  1  0  0  0  0
  7  8  1  0  0  0  0
  8  5  2  0  0  0  0
 11 10  3  0  0  0  0
 14 15  1  0  0  0  0
 14 16  1  0  0  0  0
 15 18  1  0  0  0  0
 16 13  1  6  0  0  0
 16 21  1  0  0  0  0
 17 12  1  1  0  0  0
 18 19  1  6  0  0  0
 18 21  1  0  0  0  0
 18 17  1  0  0  0  0
 19 17  1  0  0  0  0
 20 14  2  0  0  0  0
 21 13  1  6  0  0  0
 22 25  1  0  0  0  0
 23 25  2  0  0  0  0
 25 24  1  0  0  0  0
 26  1  1  0  0  0  0
 28 27  2  0  0  0  0
 28 26  1  0  0  0  0
 29 30  1  0  0  0  0
 29 28  1  0  0  0  0
 31 33  1  0  0  0  0
 31 30  1  0  0  0  0
 31 32  1  0  0  0  0
 34 31  2  0  0  0  0
M  END
>  <MODEL>
6

>  <REMARK>
 VINA RESULT:      -5.8      8.315     10.186
  Name = 
  11 active torsions:
  status: ('A' for Active; 'I' for Inactive)
    1  A    between atoms: P_2  and  C_23
    2  A    between atoms: C_4  and  C_23
    3  A    between atoms: C_4  and  C_29
    4  A    between atoms: C_9  and  C_15
    5  A    between atoms: C_11  and  C_12
    6  A    between atoms: C_11  and  C_15
    7  A    between atoms: C_13  and  C_15
    8  A    between atoms: C_13  and  C_21
    9  A    between atoms: C_14  and  C_15
   10  A    between atoms: C_14  and  C_29
   11  A    between atoms: C_18  and  C_33
                            x       y       z     vdW  Elec       q    Type
                         _______ _______ _______ _____ _____    ______ ____

>  <TORSDO>
F 11

$$$$
=
 OpenBabel11042412163D

 34 37  0  0  1  0  0  0  0  0999 V2000
  185.5530  178.7600  143.0160 C   0  0  1  0  0  0  0  0  0  0  0  0
  188.2010  176.2760  143.2500 C   0  0  0  0  0  3  0  0  0  0  0  0
  186.5680  177.9990  143.8610 C   0  0  0  0  0  0  0  0  0  0  0  0
  186.7920  176.5300  143.6530 C   0  0  0  0  0  2  0  0  0  0  0  0
  189.0880  177.1470  145.3940 C   0  0  0  0  0  0  0  0  0  0  0  0
  189.2380  176.5440  144.0430 C   0  0  0  0  0  0  0  0  0  0  0  0
  187.1860  178.6250  144.8220 N   0  0  0  0  0  0  0  0  0  0  0  0
  188.1930  178.0960  145.7020 C   0  0  0  0  0  3  0  0  0  0  0  0
  190.5360  176.1770  143.5910 N   0  0  0  0  0  1  0  0  0  0  0  0
  190.8400  176.4930  147.2660 C   0  0  0  0  0  3  0  0  0  0  0  0
  190.0420  176.7920  146.4110 C   0  0  0  0  0  0  0  0  0  0  0  0
  184.5820  177.7700  142.3390 C   0  0  0  0  0  2  0  0  0  0  0  0
  183.1800  177.2220  138.3830 C   0  0  0  0  0  2  0  0  0  0  0  0
  180.9680  177.0870  139.4610 C   0  0  0  0  0  0  0  0  0  0  0  0
  181.2760  177.9240  140.5130 O   0  0  0  0  0  0  0  0  0  0  0  0
  182.1270  176.2980  138.9580 C   0  0  2  0  0  3  0  0  0  0  0  0
  183.2310  178.3940  141.9920 C   0  0  2  0  0  3  0  0  0  0  0  0
  182.6470  177.7850  140.7750 C   0  0  2  0  0  0  0  0  0  0  0  0
  183.2980  179.0290  140.7340 O   0  0  0  0  0  0  0  0  0  0  0  0
  179.8060  176.9980  138.9830 O   0  0  0  0  0  0  0  0  0  0  0  0
  183.2970  176.7730  139.8310 C   0  0  2  0  0  3  0  0  0  0  0  0
  184.7680  179.7350  143.9170 C   0  0  0  0  0  2  0  0  0  0  0  0
  182.8810  178.6740  144.9280 O   0  0  0  0  0  0  0  0  0  0  0  0
  184.6870  178.9840  146.3020 O   0  0  0  0  0  1  0  0  0  0  0  0
  184.0540  179.1030  145.0720 C   0  0  0  0  0  0  0  0  0  0  0  0
  186.2710  179.6110  141.9430 C   0  0  0  0  0  2  0  0  0  0  0  0
  186.1700  178.7030  139.7570 O   0  0  0  0  0  0  0  0  0  0  0  0
  186.8220  178.8300  140.7810 C   0  0  0  0  0  0  0  0  0  0  0  0
  188.2020  178.2630  140.8720 C   0  0  0  0  0  2  0  0  0  0  0  0
  189.0210  178.6250  139.6430 C   0  0  0  0  0  2  0  0  0  0  0  0
  189.4310  177.1330  138.6880 P   0  0  0  0  0  0  0  0  0  0  0  0
  188.0060  176.3340  138.2540 O   0  0  0  0  0  1  0  0  0  0  0  0
  190.3820  176.1020  139.6350 O   0  0  0  0  0  1  0  0  0  0  0  0
  190.1940  177.5060  137.4380 O   0  0  0  0  0  0  0  0  0  0  0  0
  1 26  1  6  0  0  0
  1  3  1  0  0  0  0
  1 22  1  0  0  0  0
  2  4  1  0  0  0  0
  2  6  2  0  0  0  0
  3  7  2  0  0  0  0
  4  3  1  0  0  0  0
  5  8  2  0  0  0  0
  5 11  1  0  0  0  0
  6  5  1  0  0  0  0
  7  8  1  0  0  0  0
  9  6  1  0  0  0  0
 11 10  3  0  0  0  0
 12  1  1  0  0  0  0
 14 15  1  0  0  0  0
 16 13  1  6  0  0  0
 16 14  1  0  0  0  0
 16 21  1  0  0  0  0
 17 12  1  6  0  0  0
 18 15  1  6  0  0  0
 18 17  1  0  0  0  0
 19 18  1  0  0  0  0
 19 17  1  0  0  0  0
 20 14  2  0  0  0  0
 21 13  1  6  0  0  0
 21 18  1  0  0  0  0
 22 25  1  0  0  0  0
 23 25  2  0  0  0  0
 25 24  1  0  0  0  0
 27 28  2  0  0  0  0
 28 29  1  0  0  0  0
 28 26  1  0  0  0  0
 30 29  1  0  0  0  0
 31 33  1  0  0  0  0
 31 30  1  0  0  0  0
 32 31  1  0  0  0  0
 34 31  2  0  0  0  0
M  END
>  <MODEL>
7

>  <REMARK>
 VINA RESULT:      -5.8      4.437      8.873
  Name = 
  11 active torsions:
  status: ('A' for Active; 'I' for Inactive)
    1  A    between atoms: P_2  and  C_23
    2  A    between atoms: C_4  and  C_23
    3  A    between atoms: C_4  and  C_29
    4  A    between atoms: C_9  and  C_15
    5  A    between atoms: C_11  and  C_12
    6  A    between atoms: C_11  and  C_15
    7  A    between atoms: C_13  and  C_15
    8  A    between atoms: C_13  and  C_21
    9  A    between atoms: C_14  and  C_15
   10  A    between atoms: C_14  and  C_29
   11  A    between atoms: C_18  and  C_33
                            x       y       z     vdW  Elec       q    Type
                         _______ _______ _______ _____ _____    ______ ____

>  <TORSDO>
F 11

$$$$
=
 OpenBabel11042412163D

 34 37  0  0  1  0  0  0  0  0999 V2000
  189.0820  178.1190  141.6360 C   0  0  1  0  0  0  0  0  0  0  0  0
  187.2350  177.1770  144.6250 C   0  0  0  0  0  3  0  0  0  0  0  0
  187.7490  177.9280  142.3500 C   0  0  0  0  0  0  0  0  0  0  0  0
  187.5140  176.7380  143.2320 C   0  0  0  0  0  2  0  0  0  0  0  0
  185.1690  178.3700  143.9540 C   0  0  0  0  0  0  0  0  0  0  0  0
  186.1680  177.9040  144.9520 C   0  0  0  0  0  0  0  0  0  0  0  0
  186.7850  178.7750  142.1220 N   0  0  0  0  0  0  0  0  0  0  0  0
  185.4750  178.7860  142.7170 C   0  0  0  0  0  3  0  0  0  0  0  0
  185.9520  178.1920  146.3290 N   0  0  0  0  0  1  0  0  0  0  0  0
  182.6500  178.6280  144.7200 C   0  0  0  0  0  3  0  0  0  0  0  0
  183.7980  178.5090  144.3710 C   0  0  0  0  0  0  0  0  0  0  0  0
  188.8420  178.6070  140.1920 C   0  0  0  0  0  2  0  0  0  0  0  0
  188.8640  178.6260  135.9590 C   0  0  0  0  0  2  0  0  0  0  0  0
  187.9600  176.3460  136.2020 C   0  0  0  0  0  0  0  0  0  0  0  0
  187.3070  176.5830  137.3930 O   0  0  0  0  0  0  0  0  0  0  0  0
  189.2010  177.1510  136.0230 C   0  0  2  0  0  3  0  0  0  0  0  0
  187.6970  177.8770  139.4910 C   0  0  2  0  0  3  0  0  0  0  0  0
  188.0300  177.5680  138.0820 C   0  0  2  0  0  0  0  0  0  0  0  0
  187.2080  178.6550  138.4210 O   0  0  0  0  0  0  0  0  0  0  0  0
  187.5420  175.5150  135.3530 O   0  0  0  0  0  0  0  0  0  0  0  0
  189.2610  178.0130  137.2920 C   0  0  2  0  0  3  0  0  0  0  0  0
  189.9320  179.1490  142.4060 C   0  0  0  0  0  2  0  0  0  0  0  0
  191.7420  178.2440  143.6750 O   0  0  0  0  0  0  0  0  0  0  0  0
  189.8140  178.6270  144.8500 O   0  0  0  0  0  1  0  0  0  0  0  0
  190.5510  178.6460  143.6730 C   0  0  0  0  0  0  0  0  0  0  0  0
  189.8810  176.7940  141.6170 C   0  0  0  0  0  2  0  0  0  0  0  0
  192.0810  177.2820  140.8880 O   0  0  0  0  0  0  0  0  0  0  0  0
  191.0130  176.7530  140.6280 C   0  0  0  0  0  0  0  0  0  0  0  0
  190.8360  176.0020  139.3480 C   0  0  0  0  0  2  0  0  0  0  0  0
  192.0430  176.1800  138.4400 C   0  0  0  0  0  2  0  0  0  0  0  0
  192.1760  174.7920  137.2740 P   0  0  0  0  0  0  0  0  0  0  0  0
  193.5850  173.9170  137.6010 O   0  0  0  0  0  1  0  0  0  0  0  0
  192.2440  175.3890  135.6920 O   0  0  0  0  0  0  0  0  0  0  0  0
  190.9790  173.8790  137.4100 O   0  0  0  0  0  1  0  0  0  0  0  0
  1 12  1  6  0  0  0
  1  3  1  0  0  0  0
  1 22  1  0  0  0  0
  2  6  2  0  0  0  0
  3  4  1  0  0  0  0
  4  2  1  0  0  0  0
  5 11  1  0  0  0  0
  5  6  1  0  0  0  0
  6  9  1  0  0  0  0
  7  3  2  0  0  0  0
  7  8  1  0  0  0  0
  8  5  2  0  0  0  0
 11 10  3  0  0  0  0
 14 15  1  0  0  0  0
 16 13  1  6  0  0  0
 16 14  1  0  0  0  0
 16 21  1  0  0  0  0
 17 12  1  1  0  0  0
 18 15  1  6  0  0  0
 18 19  1  0  0  0  0
 18 17  1  0  0  0  0
 19 17  1  0  0  0  0
 20 14  2  0  0  0  0
 21 13  1  6  0  0  0
 21 18  1  0  0  0  0
 22 25  1  0  0  0  0
 25 23  2  0  0  0  0
 25 24  1  0  0  0  0
 26  1  1  0  0  0  0
 28 27  2  0  0  0  0
 28 26  1  0  0  0  0
 29 28  1  0  0  0  0
 30 29  1  0  0  0  0
 31 34  1  0  0  0  0
 31 32  1  0  0  0  0
 31 30  1  0  0  0  0
 33 31  2  0  0  0  0
M  END
>  <MODEL>
8

>  <REMARK>
 VINA RESULT:      -5.7      3.219      6.638
  Name = 
  11 active torsions:
  status: ('A' for Active; 'I' for Inactive)
    1  A    between atoms: P_2  and  C_23
    2  A    between atoms: C_4  and  C_23
    3  A    between atoms: C_4  and  C_29
    4  A    between atoms: C_9  and  C_15
    5  A    between atoms: C_11  and  C_12
    6  A    between atoms: C_11  and  C_15
    7  A    between atoms: C_13  and  C_15
    8  A    between atoms: C_13  and  C_21
    9  A    between atoms: C_14  and  C_15
   10  A    between atoms: C_14  and  C_29
   11  A    between atoms: C_18  and  C_33
                            x       y       z     vdW  Elec       q    Type
                         _______ _______ _______ _____ _____    ______ ____

>  <TORSDO>
F 11

$$$$
=
 OpenBabel11042412163D

 34 37  0  0  1  0  0  0  0  0999 V2000
  189.4500  177.8340  141.5270 C   0  0  1  0  0  0  0  0  0  0  0  0
  187.5310  177.9630  138.4380 C   0  0  0  0  0  3  0  0  0  0  0  0
  188.2510  178.3610  140.7470 C   0  0  0  0  0  0  0  0  0  0  0  0
  188.3940  178.7950  139.3180 C   0  0  0  0  0  2  0  0  0  0  0  0
  185.4570  178.7560  139.5380 C   0  0  0  0  0  0  0  0  0  0  0  0
  186.2020  177.9560  138.5300 C   0  0  0  0  0  0  0  0  0  0  0  0
  187.1110  178.5040  141.3620 N   0  0  0  0  0  0  0  0  0  0  0  0
  185.8650  178.9520  140.7990 C   0  0  0  0  0  3  0  0  0  0  0  0
  185.4710  177.1910  137.5780 N   0  0  0  0  0  1  0  0  0  0  0  0
  183.0550  179.6650  138.8990 C   0  0  0  0  0  3  0  0  0  0  0  0
  184.1500  179.2500  139.1890 C   0  0  0  0  0  0  0  0  0  0  0  0
  189.3250  178.2260  143.0140 C   0  0  0  0  0  2  0  0  0  0  0  0
  189.2910  177.9710  147.2390 C   0  0  0  0  0  2  0  0  0  0  0  0
  191.4240  176.7760  146.9260 C   0  0  0  0  0  0  0  0  0  0  0  0
  191.7860  177.4410  145.7740 O   0  0  0  0  0  0  0  0  0  0  0  0
  189.9520  176.6160  147.0940 C   0  0  2  0  0  3  0  0  0  0  0  0
  190.6750  178.3310  143.7240 C   0  0  2  0  0  3  0  0  0  0  0  0
  190.6060  177.7970  145.1030 C   0  0  2  0  0  0  0  0  0  0  0  0
  190.5670  179.1770  144.8470 O   0  0  0  0  0  0  0  0  0  0  0  0
  192.2680  176.3390  147.7520 O   0  0  0  0  0  0  0  0  0  0  0  0
  189.3670  177.3260  145.8650 C   0  0  2  0  0  3  0  0  0  0  0  0
  189.5130  176.3000  141.3910 C   0  0  0  0  0  2  0  0  0  0  0  0
  190.3380  174.9380  143.1720 O   0  0  0  0  0  0  0  0  0  0  0  0
  188.1220  175.4980  143.3100 O   0  0  0  0  0  1  0  0  0  0  0  0
  189.3540  175.5380  142.6710 C   0  0  0  0  0  0  0  0  0  0  0  0
  190.7660  178.3970  140.9420 C   0  0  0  0  0  2  0  0  0  0  0  0
  192.6660  176.9830  141.0010 O   0  0  0  0  0  0  0  0  0  0  0  0
  191.6950  177.3630  140.3670 C   0  0  0  0  0  0  0  0  0  0  0  0
  191.3810  176.7590  139.0370 C   0  0  0  0  0  2  0  0  0  0  0  0
  192.6540  176.4370  138.2700 C   0  0  0  0  0  2  0  0  0  0  0  0
  192.4640  174.8890  137.3370 P   0  0  0  0  0  0  0  0  0  0  0  0
  192.4560  175.2280  135.6810 O   0  0  0  0  0  0  0  0  0  0  0  0
  191.0010  174.1520  137.7620 O   0  0  0  0  0  1  0  0  0  0  0  0
  193.6040  173.9480  137.6480 O   0  0  0  0  0  1  0  0  0  0  0  0
  1 26  1  6  0  0  0
  1 12  1  0  0  0  0
  2  6  2  0  0  0  0
  2  4  1  0  0  0  0
  3  7  2  0  0  0  0
  3  1  1  0  0  0  0
  4  3  1  0  0  0  0
  5  8  2  0  0  0  0
  6  5  1  0  0  0  0
  8  7  1  0  0  0  0
  9  6  1  0  0  0  0
 10 11  3  0  0  0  0
 11  5  1  0  0  0  0
 14 16  1  0  0  0  0
 14 20  2  0  0  0  0
 15 14  1  0  0  0  0
 16 13  1  1  0  0  0
 17 12  1  6  0  0  0
 17 19  1  0  0  0  0
 17 18  1  0  0  0  0
 18 19  1  1  0  0  0
 18 15  1  0  0  0  0
 18 21  1  0  0  0  0
 21 16  1  0  0  0  0
 21 13  1  1  0  0  0
 22  1  1  0  0  0  0
 22 25  1  0  0  0  0
 25 23  2  0  0  0  0
 25 24  1  0  0  0  0
 28 26  1  0  0  0  0
 28 27  2  0  0  0  0
 29 28  1  0  0  0  0
 30 29  1  0  0  0  0
 31 34  1  0  0  0  0
 31 33  1  0  0  0  0
 31 30  1  0  0  0  0
 32 31  2  0  0  0  0
M  END
>  <MODEL>
9

>  <REMARK>
 VINA RESULT:      -5.7      3.873      7.332
  Name = 
  11 active torsions:
  status: ('A' for Active; 'I' for Inactive)
    1  A    between atoms: P_2  and  C_23
    2  A    between atoms: C_4  and  C_23
    3  A    between atoms: C_4  and  C_29
    4  A    between atoms: C_9  and  C_15
    5  A    between atoms: C_11  and  C_12
    6  A    between atoms: C_11  and  C_15
    7  A    between atoms: C_13  and  C_15
    8  A    between atoms: C_13  and  C_21
    9  A    between atoms: C_14  and  C_15
   10  A    between atoms: C_14  and  C_29
   11  A    between atoms: C_18  and  C_33
                            x       y       z     vdW  Elec       q    Type
                         _______ _______ _______ _____ _____    ______ ____

>  <TORSDO>
F 11

$$$$
