=
 OpenBabel11032420303D

 33 38  0  0  1  0  0  0  0  0999 V2000
  186.5680  178.4140  143.2830 C   0  0  1  0  0  3  0  0  0  0  0  0
  188.3610  176.8420  143.5380 C   0  0  2  0  0  0  0  0  0  0  0  0
  187.7500  177.0590  144.8160 C   0  0  2  0  0  3  0  0  0  0  0  0
  186.8260  177.9920  144.6630 C   0  0  2  0  0  3  0  0  0  0  0  0
  189.7690  177.3450  143.8160 C   0  0  1  0  0  3  0  0  0  0  0  0
  187.5190  177.5310  142.4530 C   0  0  2  0  0  3  0  0  0  0  0  0
  184.3040  178.8090  144.7280 S   0  0  0  0  0  0  0  0  0  0  0  0
  188.7650  177.1020  145.8820 C   0  0  2  0  0  3  0  0  0  0  0  0
  188.4800  178.1550  146.9660 C   0  0  1  0  0  3  0  0  0  0  0  0
  190.0000  177.3360  145.2260 O   0  0  0  0  0  0  0  0  0  0  0  0
  187.1560  177.8320  147.6700 C   0  0  0  0  0  2  0  0  0  0  0  0
  185.9230  178.3060  146.9320 C   0  0  0  0  0  3  0  0  0  0  0  0
  185.7950  178.3380  145.6000 C   0  0  0  0  0  0  0  0  0  0  0  0
  189.5490  175.9300  143.2880 C   0  0  0  0  0  2  0  0  0  0  0  0
  185.0610  178.2200  143.1360 C   0  0  1  0  0  3  0  0  0  0  0  0
  189.5120  178.1310  147.9040 O   0  0  0  0  0  1  0  0  0  0  0  0
  184.4980  178.9860  141.9330 C   0  0  1  0  0  3  0  0  0  0  0  0
  185.5050  179.7260  141.3070 O   0  0  0  0  0  1  0  0  0  0  0  0
  183.8250  178.0600  140.9110 C   0  0  0  0  0  2  0  0  0  0  0  0
  181.7190  177.2240  140.1620 O   0  0  0  0  0  1  0  0  0  0  0  0
  182.3400  178.3530  140.6960 C   0  0  1  0  0  3  0  0  0  0  0  0
  181.6520  178.7610  141.9990 C   0  0  0  0  0  2  0  0  0  0  0  0
  180.2760  180.5380  142.7720 O   0  0  0  0  0  1  0  0  0  0  0  0
  180.3880  179.5840  141.7650 C   0  0  0  0  0  0  0  0  0  0  0  0
  179.2650  178.7540  141.7950 O   0  0  0  0  0  1  0  0  0  0  0  0
  180.4580  180.2320  140.5300 O   0  0  0  0  0  1  0  0  0  0  0  0
  188.3060  178.2950  141.3730 C   0  0  0  0  0  2  0  0  0  0  0  0
  190.4510  176.7630  138.5810 C   0  0  0  0  0  2  0  0  0  0  0  0
  189.8300  177.4870  137.5440 O   0  0  0  0  0  0  0  0  0  0  0  0
  188.6480  177.4510  140.1520 C   0  0  0  0  0  3  0  0  0  0  0  0
  187.9280  178.0020  138.9220 C   0  0  0  0  0  2  0  0  0  0  0  0
  190.1600  177.4310  139.9260 C   0  0  0  0  0  2  0  0  0  0  0  0
  188.4440  177.2750  137.6790 C   0  0  0  0  0  2  0  0  0  0  0  0
  1  4  1  0  0  0  0
  2  5  1  0  0  0  0
  2  3  1  0  0  0  0
  3  8  1  0  0  0  0
  4  3  1  0  0  0  0
  4 13  1  0  0  0  0
  5 10  1  0  0  0  0
  6  1  1  0  0  0  0
  6  2  1  0  0  0  0
  7 13  1  0  0  0  0
  8  9  1  0  0  0  0
  9 11  1  0  0  0  0
  9 16  1  0  0  0  0
 10  8  1  0  0  0  0
 12 11  1  0  0  0  0
 13 12  2  0  0  0  0
 14  2  1  0  0  0  0
 14  5  1  0  0  0  0
 15  1  1  0  0  0  0
 15  7  1  0  0  0  0
 17 15  1  0  0  0  0
 18 17  1  0  0  0  0
 19 17  1  0  0  0  0
 20 21  1  0  0  0  0
 21 19  1  0  0  0  0
 21 22  1  0  0  0  0
 24 25  1  0  0  0  0
 24 22  1  0  0  0  0
 24 23  1  0  0  0  0
 26 24  1  0  0  0  0
 27  6  1  0  0  0  0
 28 32  1  0  0  0  0
 29 33  1  0  0  0  0
 29 28  1  0  0  0  0
 30 27  1  0  0  0  0
 31 30  1  0  0  0  0
 32 30  1  0  0  0  0
 33 31  1  0  0  0  0
M  END
>  <MODEL>
1

>  <REMARK>
 VINA RESULT:      -9.0      0.000      0.000
  Name = 
  7 active torsions:
  status: ('A' for Active; 'I' for Inactive)
    1  A    between atoms: C_3  and  C_15
    2  A    between atoms: C_6  and  C_31
    3  A    between atoms: C_6  and  C_32
    4  A    between atoms: C_10  and  C_15
    5  A    between atoms: C_10  and  C_31
    6  A    between atoms: C_11  and  C_12
    7  A    between atoms: C_11  and  C_18
                            x       y       z     vdW  Elec       q    Type
                         _______ _______ _______ _____ _____    ______ ____

>  <TORSDO>
F 7

$$$$
=
 OpenBabel11032420303D

 33 38  0  0  1  0  0  0  0  0999 V2000
  186.4740  178.4000  142.9840 C   0  0  1  0  0  3  0  0  0  0  0  0
  188.2850  176.8780  143.3760 C   0  0  2  0  0  0  0  0  0  0  0  0
  187.5850  177.0920  144.6090 C   0  0  2  0  0  3  0  0  0  0  0  0
  186.6500  177.9990  144.3840 C   0  0  2  0  0  3  0  0  0  0  0  0
  189.6580  177.4200  143.7390 C   0  0  1  0  0  3  0  0  0  0  0  0
  187.4990  177.5330  142.2300 C   0  0  2  0  0  3  0  0  0  0  0  0
  184.1100  178.7520  144.2730 S   0  0  0  0  0  0  0  0  0  0  0  0
  188.5270  177.1730  145.7380 C   0  0  2  0  0  3  0  0  0  0  0  0
  188.1440  178.2300  146.7880 C   0  0  1  0  0  3  0  0  0  0  0  0
  189.7960  177.4320  145.1620 O   0  0  0  0  0  0  0  0  0  0  0  0
  186.7840  177.8800  147.4070 C   0  0  0  0  0  2  0  0  0  0  0  0
  185.5910  178.3140  146.5840 C   0  0  0  0  0  3  0  0  0  0  0  0
  185.5510  178.3290  145.2470 C   0  0  0  0  0  0  0  0  0  0  0  0
  189.5090  175.9950  143.2150 C   0  0  0  0  0  2  0  0  0  0  0  0
  184.9840  178.1650  142.7410 C   0  0  1  0  0  3  0  0  0  0  0  0
  189.1110  178.2430  147.7920 O   0  0  0  0  0  1  0  0  0  0  0  0
  184.4840  178.9040  141.4950 C   0  0  1  0  0  3  0  0  0  0  0  0
  185.5050  179.6800  140.9390 O   0  0  0  0  0  1  0  0  0  0  0  0
  183.9230  177.9490  140.4330 C   0  0  0  0  0  2  0  0  0  0  0  0
  184.7700  177.6070  138.2270 O   0  0  0  0  0  1  0  0  0  0  0  0
  184.0180  178.4870  139.0050 C   0  0  1  0  0  3  0  0  0  0  0  0
  182.6340  178.6820  138.3840 C   0  0  0  0  0  2  0  0  0  0  0  0
  181.4170  180.4900  137.4370 O   0  0  0  0  0  1  0  0  0  0  0  0
  182.0900  180.0930  138.5890 C   0  0  0  0  0  0  0  0  0  0  0  0
  183.1410  180.9800  138.8320 O   0  0  0  0  0  1  0  0  0  0  0  0
  181.2000  180.1140  139.6650 O   0  0  0  0  0  1  0  0  0  0  0  0
  188.3360  178.3060  141.1950 C   0  0  0  0  0  2  0  0  0  0  0  0
  190.5960  176.6530  138.5670 C   0  0  0  0  0  2  0  0  0  0  0  0
  190.1760  177.4840  137.5100 O   0  0  0  0  0  0  0  0  0  0  0  0
  188.7160  177.4790  139.9740 C   0  0  0  0  0  3  0  0  0  0  0  0
  188.2020  178.1570  138.7050 C   0  0  0  0  0  2  0  0  0  0  0  0
  190.2330  177.2940  139.9070 C   0  0  0  0  0  2  0  0  0  0  0  0
  188.7690  177.4270  137.4870 C   0  0  0  0  0  2  0  0  0  0  0  0
  1  4  1  0  0  0  0
  2  5  1  0  0  0  0
  2  3  1  0  0  0  0
  3  8  1  0  0  0  0
  4  3  1  0  0  0  0
  4 13  1  0  0  0  0
  5 10  1  0  0  0  0
  6  1  1  0  0  0  0
  6  2  1  0  0  0  0
  7 13  1  0  0  0  0
  8  9  1  0  0  0  0
  9 11  1  0  0  0  0
  9 16  1  0  0  0  0
 10  8  1  0  0  0  0
 12 11  1  0  0  0  0
 13 12  2  0  0  0  0
 14  2  1  0  0  0  0
 14  5  1  0  0  0  0
 15  1  1  0  0  0  0
 15  7  1  0  0  0  0
 17 15  1  0  0  0  0
 18 17  1  0  0  0  0
 19 17  1  0  0  0  0
 20 21  1  0  0  0  0
 21 19  1  0  0  0  0
 22 24  1  0  0  0  0
 22 21  1  0  0  0  0
 23 24  1  0  0  0  0
 24 25  1  0  0  0  0
 24 26  1  0  0  0  0
 27  6  1  0  0  0  0
 28 32  1  0  0  0  0
 29 28  1  0  0  0  0
 30 27  1  0  0  0  0
 31 30  1  0  0  0  0
 32 30  1  0  0  0  0
 33 29  1  0  0  0  0
 33 31  1  0  0  0  0
M  END
>  <MODEL>
2

>  <REMARK>
 VINA RESULT:      -8.9      1.329      1.818
  Name = 
  7 active torsions:
  status: ('A' for Active; 'I' for Inactive)
    1  A    between atoms: C_3  and  C_15
    2  A    between atoms: C_6  and  C_31
    3  A    between atoms: C_6  and  C_32
    4  A    between atoms: C_10  and  C_15
    5  A    between atoms: C_10  and  C_31
    6  A    between atoms: C_11  and  C_12
    7  A    between atoms: C_11  and  C_18
                            x       y       z     vdW  Elec       q    Type
                         _______ _______ _______ _____ _____    ______ ____

>  <TORSDO>
F 7

$$$$
=
 OpenBabel11032420303D

 33 38  0  0  1  0  0  0  0  0999 V2000
  188.4460  177.3590  143.7790 C   0  0  1  0  0  3  0  0  0  0  0  0
  188.0170  178.1320  146.0080 C   0  0  2  0  0  0  0  0  0  0  0  0
  189.3810  177.6990  145.9220 C   0  0  2  0  0  3  0  0  0  0  0  0
  189.5650  177.1980  144.7130 C   0  0  2  0  0  3  0  0  0  0  0  0
  187.4840  177.1630  147.0510 C   0  0  1  0  0  3  0  0  0  0  0  0
  187.4000  178.1340  144.6010 C   0  0  2  0  0  3  0  0  0  0  0  0
  190.7420  177.2140  142.3370 S   0  0  0  0  0  0  0  0  0  0  0  0
  189.7860  176.9970  147.1520 C   0  0  2  0  0  3  0  0  0  0  0  0
  190.6970  175.7840  146.9000 C   0  0  1  0  0  3  0  0  0  0  0  0
  188.5790  176.6310  147.8000 O   0  0  0  0  0  0  0  0  0  0  0  0
  192.0010  176.2410  146.2360 C   0  0  0  0  0  2  0  0  0  0  0  0
  191.9070  176.4380  144.7390 C   0  0  0  0  0  3  0  0  0  0  0  0
  190.8240  176.8910  144.0960 C   0  0  0  0  0  0  0  0  0  0  0  0
  187.3540  178.6680  147.2640 C   0  0  0  0  0  2  0  0  0  0  0  0
  189.0940  178.0400  142.5750 C   0  0  1  0  0  3  0  0  0  0  0  0
  190.9940  175.1790  148.1210 O   0  0  0  0  0  1  0  0  0  0  0  0
  188.2260  177.9270  141.3170 C   0  0  1  0  0  3  0  0  0  0  0  0
  187.7630  179.1850  140.9240 O   0  0  0  0  0  1  0  0  0  0  0  0
  188.9680  177.2610  140.1500 C   0  0  0  0  0  2  0  0  0  0  0  0
  189.9050  177.8990  138.0500 O   0  0  0  0  0  1  0  0  0  0  0  0
  188.7300  177.9360  138.7990 C   0  0  1  0  0  3  0  0  0  0  0  0
  187.5950  177.2630  138.0260 C   0  0  0  0  0  2  0  0  0  0  0  0
  187.3400  179.3420  136.9030 O   0  0  0  0  0  1  0  0  0  0  0  0
  186.6200  178.2680  137.4180 C   0  0  0  0  0  0  0  0  0  0  0  0
  185.7410  178.7350  138.3980 O   0  0  0  0  0  1  0  0  0  0  0  0
  185.8950  177.6700  136.3850 O   0  0  0  0  0  1  0  0  0  0  0  0
  185.9710  177.5720  144.4920 C   0  0  0  0  0  2  0  0  0  0  0  0
  182.6620  179.3680  143.7370 C   0  0  0  0  0  2  0  0  0  0  0  0
  182.4330  178.6900  142.5240 O   0  0  0  0  0  0  0  0  0  0  0  0
  184.9970  178.5070  143.7880 C   0  0  0  0  0  3  0  0  0  0  0  0
  184.7340  178.0100  142.3670 C   0  0  0  0  0  2  0  0  0  0  0  0
  183.6890  178.6030  144.5740 C   0  0  0  0  0  2  0  0  0  0  0  0
  183.6030  178.8370  141.7540 C   0  0  0  0  0  2  0  0  0  0  0  0
  1  6  1  0  0  0  0
  1  4  1  0  0  0  0
  2  5  1  0  0  0  0
  2 14  1  0  0  0  0
  3  2  1  0  0  0  0
  3  8  1  0  0  0  0
  4  3  1  0  0  0  0
  5 14  1  0  0  0  0
  5 10  1  0  0  0  0
  6  2  1  0  0  0  0
  7 15  1  0  0  0  0
  7 13  1  0  0  0  0
  8 10  1  0  0  0  0
  9  8  1  0  0  0  0
  9 16  1  0  0  0  0
 11  9  1  0  0  0  0
 12 11  1  0  0  0  0
 13  4  1  0  0  0  0
 13 12  2  0  0  0  0
 15  1  1  0  0  0  0
 17 15  1  0  0  0  0
 18 17  1  0  0  0  0
 19 17  1  0  0  0  0
 20 21  1  0  0  0  0
 21 19  1  0  0  0  0
 22 21  1  0  0  0  0
 23 24  1  0  0  0  0
 24 22  1  0  0  0  0
 24 25  1  0  0  0  0
 26 24  1  0  0  0  0
 27  6  1  0  0  0  0
 28 32  1  0  0  0  0
 29 28  1  0  0  0  0
 30 27  1  0  0  0  0
 30 32  1  0  0  0  0
 31 30  1  0  0  0  0
 33 31  1  0  0  0  0
 33 29  1  0  0  0  0
M  END
>  <MODEL>
3

>  <REMARK>
 VINA RESULT:      -8.6      2.251      5.757
  Name = 
  7 active torsions:
  status: ('A' for Active; 'I' for Inactive)
    1  A    between atoms: C_3  and  C_15
    2  A    between atoms: C_6  and  C_31
    3  A    between atoms: C_6  and  C_32
    4  A    between atoms: C_10  and  C_15
    5  A    between atoms: C_10  and  C_31
    6  A    between atoms: C_11  and  C_12
    7  A    between atoms: C_11  and  C_18
                            x       y       z     vdW  Elec       q    Type
                         _______ _______ _______ _____ _____    ______ ____

>  <TORSDO>
F 7

$$$$
=
 OpenBabel11032420303D

 33 38  0  0  1  0  0  0  0  0999 V2000
  186.5440  178.3840  143.0130 C   0  0  1  0  0  3  0  0  0  0  0  0
  188.3480  176.8450  143.3760 C   0  0  2  0  0  0  0  0  0  0  0  0
  187.6650  177.0600  144.6170 C   0  0  2  0  0  3  0  0  0  0  0  0
  186.7340  177.9750  144.4080 C   0  0  2  0  0  3  0  0  0  0  0  0
  189.7300  177.3750  143.7250 C   0  0  1  0  0  3  0  0  0  0  0  0
  187.5530  177.5120  142.2420 C   0  0  2  0  0  3  0  0  0  0  0  0
  184.1990  178.7480  144.3320 S   0  0  0  0  0  0  0  0  0  0  0  0
  188.6210  177.1280  145.7360 C   0  0  2  0  0  3  0  0  0  0  0  0
  188.2590  178.1820  146.7960 C   0  0  1  0  0  3  0  0  0  0  0  0
  189.8850  177.3790  145.1450 O   0  0  0  0  0  0  0  0  0  0  0  0
  186.9050  177.8410  147.4290 C   0  0  0  0  0  2  0  0  0  0  0  0
  185.7050  178.2880  146.6230 C   0  0  0  0  0  3  0  0  0  0  0  0
  185.6490  178.3090  145.2860 C   0  0  0  0  0  0  0  0  0  0  0  0
  189.5630  175.9530  143.1960 C   0  0  0  0  0  2  0  0  0  0  0  0
  185.0500  178.1620  142.7870 C   0  0  1  0  0  3  0  0  0  0  0  0
  189.2390  178.1830  147.7870 O   0  0  0  0  0  1  0  0  0  0  0  0
  184.5400  178.9100  141.5500 C   0  0  1  0  0  3  0  0  0  0  0  0
  185.5140  179.7930  141.0730 O   0  0  0  0  0  1  0  0  0  0  0  0
  184.1090  177.9590  140.4260 C   0  0  0  0  0  2  0  0  0  0  0  0
  181.9280  178.8050  140.9020 O   0  0  0  0  0  1  0  0  0  0  0  0
  182.6020  177.7020  140.3780 C   0  0  1  0  0  3  0  0  0  0  0  0
  182.1230  177.4260  138.9520 C   0  0  0  0  0  2  0  0  0  0  0  0
  181.2100  175.4120  139.8210 O   0  0  0  0  0  1  0  0  0  0  0  0
  181.8400  175.9470  138.7020 C   0  0  0  0  0  0  0  0  0  0  0  0
  183.0360  175.2620  138.4790 O   0  0  0  0  0  1  0  0  0  0  0  0
  181.0020  175.7990  137.5940 O   0  0  0  0  0  1  0  0  0  0  0  0
  188.3840  178.2830  141.2000 C   0  0  0  0  0  2  0  0  0  0  0  0
  190.6010  176.7650  138.4570 C   0  0  0  0  0  2  0  0  0  0  0  0
  190.0260  177.5150  137.4120 O   0  0  0  0  0  0  0  0  0  0  0  0
  188.7550  177.4550  139.9780 C   0  0  0  0  0  3  0  0  0  0  0  0
  188.0860  178.0360  138.7330 C   0  0  0  0  0  2  0  0  0  0  0  0
  190.2740  177.4150  139.8030 C   0  0  0  0  0  2  0  0  0  0  0  0
  188.6330  177.3220  137.4960 C   0  0  0  0  0  2  0  0  0  0  0  0
  1  4  1  0  0  0  0
  2  5  1  0  0  0  0
  2  3  1  0  0  0  0
  3  8  1  0  0  0  0
  4  3  1  0  0  0  0
  4 13  1  0  0  0  0
  5 10  1  0  0  0  0
  6  1  1  0  0  0  0
  6  2  1  0  0  0  0
  7 13  1  0  0  0  0
  8  9  1  0  0  0  0
  9 11  1  0  0  0  0
  9 16  1  0  0  0  0
 10  8  1  0  0  0  0
 12 11  1  0  0  0  0
 13 12  2  0  0  0  0
 14  2  1  0  0  0  0
 14  5  1  0  0  0  0
 15  1  1  0  0  0  0
 15  7  1  0  0  0  0
 17 15  1  0  0  0  0
 18 17  1  0  0  0  0
 19 17  1  0  0  0  0
 21 19  1  0  0  0  0
 21 20  1  0  0  0  0
 22 21  1  0  0  0  0
 24 22  1  0  0  0  0
 24 23  1  0  0  0  0
 25 24  1  0  0  0  0
 26 24  1  0  0  0  0
 27  6  1  0  0  0  0
 28 32  1  0  0  0  0
 29 33  1  0  0  0  0
 29 28  1  0  0  0  0
 30 27  1  0  0  0  0
 31 30  1  0  0  0  0
 32 30  1  0  0  0  0
 33 31  1  0  0  0  0
M  END
>  <MODEL>
4

>  <REMARK>
 VINA RESULT:      -8.6      1.131      2.086
  Name = 
  7 active torsions:
  status: ('A' for Active; 'I' for Inactive)
    1  A    between atoms: C_3  and  C_15
    2  A    between atoms: C_6  and  C_31
    3  A    between atoms: C_6  and  C_32
    4  A    between atoms: C_10  and  C_15
    5  A    between atoms: C_10  and  C_31
    6  A    between atoms: C_11  and  C_12
    7  A    between atoms: C_11  and  C_18
                            x       y       z     vdW  Elec       q    Type
                         _______ _______ _______ _____ _____    ______ ____

>  <TORSDO>
F 7

$$$$
=
 OpenBabel11032420303D

 33 38  0  0  1  0  0  0  0  0999 V2000
  188.3210  178.1260  142.5060 C   0  0  1  0  0  3  0  0  0  0  0  0
  187.1540  177.3050  144.4340 C   0  0  2  0  0  0  0  0  0  0  0  0
  186.1940  177.7060  143.4480 C   0  0  2  0  0  3  0  0  0  0  0  0
  186.8600  178.2340  142.4350 C   0  0  2  0  0  3  0  0  0  0  0  0
  186.8050  178.2590  145.5650 C   0  0  1  0  0  3  0  0  0  0  0  0
  188.5610  177.3550  143.8170 C   0  0  2  0  0  3  0  0  0  0  0  0
  187.6040  178.2520  139.8900 S   0  0  0  0  0  0  0  0  0  0  0  0
  185.0390  178.3650  144.0800 C   0  0  2  0  0  3  0  0  0  0  0  0
  184.4960  179.5630  143.2810 C   0  0  1  0  0  3  0  0  0  0  0  0
  185.4740  178.7440  145.3750 O   0  0  0  0  0  0  0  0  0  0  0  0
  184.0030  179.0910  141.9070 C   0  0  0  0  0  2  0  0  0  0  0  0
  185.0930  178.9360  140.8700 C   0  0  0  0  0  3  0  0  0  0  0  0
  186.3410  178.5260  141.1290 C   0  0  0  0  0  0  0  0  0  0  0  0
  186.8100  176.7520  145.8060 C   0  0  0  0  0  2  0  0  0  0  0  0
  188.6840  177.4610  141.1800 C   0  0  1  0  0  3  0  0  0  0  0  0
  183.4290  180.1270  143.9790 O   0  0  0  0  0  1  0  0  0  0  0  0
  190.1700  177.6290  140.8430 C   0  0  1  0  0  3  0  0  0  0  0  0
  190.9280  176.6260  141.4530 O   0  0  0  0  0  1  0  0  0  0  0  0
  190.4320  177.6290  139.3310 C   0  0  0  0  0  2  0  0  0  0  0  0
  190.0270  175.4400  138.4670 O   0  0  0  0  0  1  0  0  0  0  0  0
  191.0460  176.3290  138.8100 C   0  0  1  0  0  3  0  0  0  0  0  0
  191.9510  176.5790  137.6030 C   0  0  0  0  0  2  0  0  0  0  0  0
  193.8020  176.7530  139.0830 O   0  0  0  0  0  1  0  0  0  0  0  0
  193.4060  176.2010  137.8690 C   0  0  0  0  0  0  0  0  0  0  0  0
  194.2230  176.6990  136.8520 O   0  0  0  0  0  1  0  0  0  0  0  0
  193.5370  174.8120  137.9380 O   0  0  0  0  0  1  0  0  0  0  0  0
  189.6650  177.9550  144.7070 C   0  0  0  0  0  2  0  0  0  0  0  0
  191.1560  176.7100  148.0190 C   0  0  0  0  0  2  0  0  0  0  0  0
  192.4310  176.4440  147.4820 O   0  0  0  0  0  0  0  0  0  0  0  0
  190.2350  176.9730  145.7220 C   0  0  0  0  0  3  0  0  0  0  0  0
  191.5820  176.4430  145.2330 C   0  0  0  0  0  2  0  0  0  0  0  0
  190.3860  177.6470  147.0870 C   0  0  0  0  0  2  0  0  0  0  0  0
  192.2290  175.6270  146.3530 C   0  0  0  0  0  2  0  0  0  0  0  0
  1  6  1  0  0  0  0
  2  5  1  0  0  0  0
  2 14  1  0  0  0  0
  3  8  1  0  0  0  0
  3  2  1  0  0  0  0
  4  1  1  0  0  0  0
  4  3  1  0  0  0  0
  5 14  1  0  0  0  0
  6  2  1  0  0  0  0
  6 27  1  0  0  0  0
  7 13  1  0  0  0  0
  7 15  1  0  0  0  0
  8 10  1  0  0  0  0
  9 16  1  0  0  0  0
  9  8  1  0  0  0  0
 10  5  1  0  0  0  0
 11  9  1  0  0  0  0
 12 13  2  0  0  0  0
 12 11  1  0  0  0  0
 13  4  1  0  0  0  0
 15  1  1  0  0  0  0
 17 15  1  0  0  0  0
 17 18  1  0  0  0  0
 19 17  1  0  0  0  0
 20 21  1  0  0  0  0
 21 19  1  0  0  0  0
 22 24  1  0  0  0  0
 22 21  1  0  0  0  0
 24 26  1  0  0  0  0
 24 23  1  0  0  0  0
 25 24  1  0  0  0  0
 27 30  1  0  0  0  0
 29 28  1  0  0  0  0
 30 32  1  0  0  0  0
 31 30  1  0  0  0  0
 31 33  1  0  0  0  0
 32 28  1  0  0  0  0
 33 29  1  0  0  0  0
M  END
>  <MODEL>
5

>  <REMARK>
 VINA RESULT:      -8.5      2.610      7.878
  Name = 
  7 active torsions:
  status: ('A' for Active; 'I' for Inactive)
    1  A    between atoms: C_3  and  C_15
    2  A    between atoms: C_6  and  C_31
    3  A    between atoms: C_6  and  C_32
    4  A    between atoms: C_10  and  C_15
    5  A    between atoms: C_10  and  C_31
    6  A    between atoms: C_11  and  C_12
    7  A    between atoms: C_11  and  C_18
                            x       y       z     vdW  Elec       q    Type
                         _______ _______ _______ _____ _____    ______ ____

>  <TORSDO>
F 7

$$$$
=
 OpenBabel11032420303D

 33 38  0  0  1  0  0  0  0  0999 V2000
  186.8780  177.6880  142.3930 C   0  0  1  0  0  3  0  0  0  0  0  0
  189.0850  177.8990  143.3080 C   0  0  2  0  0  0  0  0  0  0  0  0
  189.1490  178.1100  141.8920 C   0  0  2  0  0  3  0  0  0  0  0  0
  187.9380  177.9020  141.4030 C   0  0  2  0  0  3  0  0  0  0  0  0
  189.9640  176.6650  143.4440 C   0  0  1  0  0  3  0  0  0  0  0  0
  187.6120  177.8210  143.7400 C   0  0  2  0  0  3  0  0  0  0  0  0
  185.7520  178.7380  140.1560 S   0  0  0  0  0  0  0  0  0  0  0  0
  190.3600  177.4940  141.3250 C   0  0  2  0  0  3  0  0  0  0  0  0
  190.1350  176.8350  139.9530 C   0  0  1  0  0  3  0  0  0  0  0  0
  190.8070  176.5620  142.2950 O   0  0  0  0  0  0  0  0  0  0  0  0
  189.6930  177.8930  138.9340 C   0  0  0  0  0  2  0  0  0  0  0  0
  188.2180  178.2270  138.9780 C   0  0  0  0  0  3  0  0  0  0  0  0
  187.4740  178.2520  140.0900 C   0  0  0  0  0  0  0  0  0  0  0  0
  190.2790  177.9250  144.2440 C   0  0  0  0  0  2  0  0  0  0  0  0
  185.8320  178.7350  142.0130 C   0  0  1  0  0  3  0  0  0  0  0  0
  191.3310  176.2620  139.5240 O   0  0  0  0  0  1  0  0  0  0  0  0
  184.4640  178.4270  142.6310 C   0  0  1  0  0  3  0  0  0  0  0  0
  183.9750  179.5390  143.3220 O   0  0  0  0  0  1  0  0  0  0  0  0
  183.4360  177.9760  141.5840 C   0  0  0  0  0  2  0  0  0  0  0  0
  182.2060  179.3680  140.0840 O   0  0  0  0  0  1  0  0  0  0  0  0
  182.2640  178.9430  141.4110 C   0  0  1  0  0  3  0  0  0  0  0  0
  180.9370  178.2960  141.8110 C   0  0  0  0  0  2  0  0  0  0  0  0
  180.9250  178.6270  144.1650 O   0  0  0  0  0  1  0  0  0  0  0  0
  180.2730  178.9980  142.9930 C   0  0  0  0  0  0  0  0  0  0  0  0
  178.9310  178.6230  143.0790 O   0  0  0  0  0  1  0  0  0  0  0  0
  180.3630  180.3840  142.8420 O   0  0  0  0  0  1  0  0  0  0  0  0
  187.2650  176.7200  144.7570 C   0  0  0  0  0  2  0  0  0  0  0  0
  185.9420  179.2180  147.3550 C   0  0  0  0  0  2  0  0  0  0  0  0
  187.1820  179.3820  148.0040 O   0  0  0  0  0  0  0  0  0  0  0  0
  186.8400  177.2540  146.1180 C   0  0  0  0  0  3  0  0  0  0  0  0
  188.0560  177.3610  147.0380 C   0  0  0  0  0  2  0  0  0  0  0  0
  186.1590  178.6150  145.9660 C   0  0  0  0  0  2  0  0  0  0  0  0
  187.6460  178.0900  148.3190 C   0  0  0  0  0  2  0  0  0  0  0  0
  1  6  1  0  0  0  0
  2  5  1  0  0  0  0
  2  6  1  0  0  0  0
  2 14  1  0  0  0  0
  3  2  1  0  0  0  0
  4  3  1  0  0  0  0
  4  1  1  0  0  0  0
  5 14  1  0  0  0  0
  6 27  1  0  0  0  0
  7 15  1  0  0  0  0
  8  3  1  0  0  0  0
  8 10  1  0  0  0  0
  9  8  1  0  0  0  0
 10  5  1  0  0  0  0
 11 12  1  0  0  0  0
 11  9  1  0  0  0  0
 12 13  2  0  0  0  0
 13  7  1  0  0  0  0
 13  4  1  0  0  0  0
 15  1  1  0  0  0  0
 15 17  1  0  0  0  0
 16  9  1  0  0  0  0
 17 18  1  0  0  0  0
 19 17  1  0  0  0  0
 20 21  1  0  0  0  0
 21 19  1  0  0  0  0
 21 22  1  0  0  0  0
 22 24  1  0  0  0  0
 24 25  1  0  0  0  0
 24 23  1  0  0  0  0
 26 24  1  0  0  0  0
 27 30  1  0  0  0  0
 28 29  1  0  0  0  0
 29 33  1  0  0  0  0
 30 31  1  0  0  0  0
 31 33  1  0  0  0  0
 32 30  1  0  0  0  0
 32 28  1  0  0  0  0
M  END
>  <MODEL>
6

>  <REMARK>
 VINA RESULT:      -8.4      1.645      5.364
  Name = 
  7 active torsions:
  status: ('A' for Active; 'I' for Inactive)
    1  A    between atoms: C_3  and  C_15
    2  A    between atoms: C_6  and  C_31
    3  A    between atoms: C_6  and  C_32
    4  A    between atoms: C_10  and  C_15
    5  A    between atoms: C_10  and  C_31
    6  A    between atoms: C_11  and  C_12
    7  A    between atoms: C_11  and  C_18
                            x       y       z     vdW  Elec       q    Type
                         _______ _______ _______ _____ _____    ______ ____

>  <TORSDO>
F 7

$$$$
=
 OpenBabel11032420303D

 33 38  0  0  1  0  0  0  0  0999 V2000
  188.1120  177.5060  142.9150 C   0  0  1  0  0  3  0  0  0  0  0  0
  187.3050  178.3930  144.9920 C   0  0  2  0  0  0  0  0  0  0  0  0
  188.7010  178.0990  145.1250 C   0  0  2  0  0  3  0  0  0  0  0  0
  189.0990  177.5320  143.9990 C   0  0  2  0  0  3  0  0  0  0  0  0
  186.7220  177.4520  146.0350 C   0  0  1  0  0  3  0  0  0  0  0  0
  186.8940  178.2270  143.5200 C   0  0  2  0  0  3  0  0  0  0  0  0
  190.5920  177.4950  141.8080 S   0  0  0  0  0  0  0  0  0  0  0  0
  188.9930  177.5350  146.4540 C   0  0  2  0  0  3  0  0  0  0  0  0
  190.0380  176.4070  146.4320 C   0  0  1  0  0  3  0  0  0  0  0  0
  187.7460  177.0940  146.9660 O   0  0  0  0  0  0  0  0  0  0  0  0
  191.3750  176.9470  145.9090 C   0  0  0  0  0  2  0  0  0  0  0  0
  191.4740  177.0230  144.4020 C   0  0  0  0  0  3  0  0  0  0  0  0
  190.4560  177.3130  143.5830 C   0  0  0  0  0  0  0  0  0  0  0  0
  186.4250  178.9480  146.0970 C   0  0  0  0  0  2  0  0  0  0  0  0
  188.8570  178.1600  141.7530 C   0  0  1  0  0  3  0  0  0  0  0  0
  190.2160  175.9280  147.7290 O   0  0  0  0  0  1  0  0  0  0  0  0
  188.1880  177.8660  140.4050 C   0  0  1  0  0  3  0  0  0  0  0  0
  187.0450  178.6530  140.2400 O   0  0  0  0  0  1  0  0  0  0  0  0
  189.1390  178.0790  139.2200 C   0  0  0  0  0  2  0  0  0  0  0  0
  187.9250  177.0120  137.4630 O   0  0  0  0  0  1  0  0  0  0  0  0
  189.1120  176.9460  138.1930 C   0  0  1  0  0  3  0  0  0  0  0  0
  190.3120  177.0150  137.2480 C   0  0  0  0  0  2  0  0  0  0  0  0
  192.2260  175.7820  136.5660 O   0  0  0  0  0  1  0  0  0  0  0  0
  191.4540  176.0990  137.6790 C   0  0  0  0  0  0  0  0  0  0  0  0
  190.9420  174.9220  138.2300 O   0  0  0  0  0  1  0  0  0  0  0  0
  192.2590  176.7440  138.6210 O   0  0  0  0  0  1  0  0  0  0  0  0
  185.5520  177.5130  143.2720 C   0  0  0  0  0  2  0  0  0  0  0  0
  182.1990  179.3810  143.3690 C   0  0  0  0  0  2  0  0  0  0  0  0
  181.6270  178.6520  142.3080 O   0  0  0  0  0  0  0  0  0  0  0  0
  184.4380  178.4450  142.8150 C   0  0  0  0  0  3  0  0  0  0  0  0
  183.7780  177.8870  141.5550 C   0  0  0  0  0  2  0  0  0  0  0  0
  183.4050  178.6240  143.9290 C   0  0  0  0  0  2  0  0  0  0  0  0
  182.5360  178.7210  141.2350 C   0  0  0  0  0  2  0  0  0  0  0  0
  1  6  1  0  0  0  0
  1  4  1  0  0  0  0
  2  3  1  0  0  0  0
  2  5  1  0  0  0  0
  2 14  1  0  0  0  0
  3  8  1  0  0  0  0
  4  3  1  0  0  0  0
  5 14  1  0  0  0  0
  5 10  1  0  0  0  0
  6  2  1  0  0  0  0
  7 13  1  0  0  0  0
  8 10  1  0  0  0  0
  9  8  1  0  0  0  0
  9 16  1  0  0  0  0
 11  9  1  0  0  0  0
 12 11  1  0  0  0  0
 13  4  1  0  0  0  0
 13 12  2  0  0  0  0
 15  7  1  0  0  0  0
 15  1  1  0  0  0  0
 17 15  1  0  0  0  0
 18 17  1  0  0  0  0
 19 17  1  0  0  0  0
 20 21  1  0  0  0  0
 21 19  1  0  0  0  0
 22 24  1  0  0  0  0
 22 21  1  0  0  0  0
 23 24  1  0  0  0  0
 24 25  1  0  0  0  0
 24 26  1  0  0  0  0
 27  6  1  0  0  0  0
 28 32  1  0  0  0  0
 29 28  1  0  0  0  0
 30 27  1  0  0  0  0
 30 32  1  0  0  0  0
 31 30  1  0  0  0  0
 33 31  1  0  0  0  0
 33 29  1  0  0  0  0
M  END
>  <MODEL>
7

>  <REMARK>
 VINA RESULT:      -8.3      2.026      6.797
  Name = 
  7 active torsions:
  status: ('A' for Active; 'I' for Inactive)
    1  A    between atoms: C_3  and  C_15
    2  A    between atoms: C_6  and  C_31
    3  A    between atoms: C_6  and  C_32
    4  A    between atoms: C_10  and  C_15
    5  A    between atoms: C_10  and  C_31
    6  A    between atoms: C_11  and  C_12
    7  A    between atoms: C_11  and  C_18
                            x       y       z     vdW  Elec       q    Type
                         _______ _______ _______ _____ _____    ______ ____

>  <TORSDO>
F 7

$$$$
=
 OpenBabel11032420303D

 33 38  0  0  1  0  0  0  0  0999 V2000
  187.5660  177.6630  142.9210 C   0  0  1  0  0  3  0  0  0  0  0  0
  186.4290  178.6540  144.7860 C   0  0  2  0  0  0  0  0  0  0  0  0
  187.7820  178.3710  145.1650 C   0  0  2  0  0  3  0  0  0  0  0  0
  188.3590  177.7480  144.1520 C   0  0  2  0  0  3  0  0  0  0  0  0
  185.6760  177.7670  145.7650 C   0  0  1  0  0  3  0  0  0  0  0  0
  186.2680  178.4110  143.2770 C   0  0  2  0  0  3  0  0  0  0  0  0
  190.1950  177.6020  142.2450 S   0  0  0  0  0  0  0  0  0  0  0  0
  187.8450  177.8770  146.5520 C   0  0  2  0  0  3  0  0  0  0  0  0
  188.8730  176.7530  146.7620 C   0  0  1  0  0  3  0  0  0  0  0  0
  186.5280  177.4600  146.8700 O   0  0  0  0  0  0  0  0  0  0  0  0
  190.2820  177.2690  146.4420 C   0  0  0  0  0  2  0  0  0  0  0  0
  190.6310  177.2670  144.9700 C   0  0  0  0  0  3  0  0  0  0  0  0
  189.7640  177.5110  143.9800 C   0  0  0  0  0  0  0  0  0  0  0  0
  185.3810  179.2630  145.6990 C   0  0  0  0  0  2  0  0  0  0  0  0
  188.4980  178.2590  141.8670 C   0  0  1  0  0  3  0  0  0  0  0  0
  188.8300  176.3420  148.0940 O   0  0  0  0  0  1  0  0  0  0  0  0
  188.0610  177.8930  140.4440 C   0  0  1  0  0  3  0  0  0  0  0  0
  186.9330  178.6280  140.0710 O   0  0  0  0  0  1  0  0  0  0  0  0
  189.1800  178.1050  139.4150 C   0  0  0  0  0  2  0  0  0  0  0  0
  189.0550  179.6630  137.6110 O   0  0  0  0  0  1  0  0  0  0  0  0
  188.6730  178.3790  137.9990 C   0  0  1  0  0  3  0  0  0  0  0  0
  189.2080  177.3510  137.0010 C   0  0  0  0  0  2  0  0  0  0  0  0
  188.5780  175.0630  137.1230 O   0  0  0  0  0  1  0  0  0  0  0  0
  188.1690  176.2970  136.6270 C   0  0  0  0  0  0  0  0  0  0  0  0
  188.0500  176.2140  135.2380 O   0  0  0  0  0  1  0  0  0  0  0  0
  186.9310  176.6230  137.1850 O   0  0  0  0  0  1  0  0  0  0  0  0
  184.9830  177.6820  142.8460 C   0  0  0  0  0  2  0  0  0  0  0  0
  181.5480  179.3980  142.8430 C   0  0  0  0  0  2  0  0  0  0  0  0
  181.1060  178.7760  141.6580 O   0  0  0  0  0  0  0  0  0  0  0  0
  183.8690  178.6170  142.3960 C   0  0  0  0  0  3  0  0  0  0  0  0
  183.3490  178.1850  141.0250 C   0  0  0  0  0  2  0  0  0  0  0  0
  182.7350  178.6260  143.4220 C   0  0  0  0  0  2  0  0  0  0  0  0
  182.1010  179.0030  140.6880 C   0  0  0  0  0  2  0  0  0  0  0  0
  1  6  1  0  0  0  0
  1  4  1  0  0  0  0
  2  3  1  0  0  0  0
  2 14  1  0  0  0  0
  2  5  1  0  0  0  0
  3  8  1  0  0  0  0
  4  3  1  0  0  0  0
  5 10  1  0  0  0  0
  6  2  1  0  0  0  0
  7 13  1  0  0  0  0
  8  9  1  0  0  0  0
  8 10  1  0  0  0  0
  9 16  1  0  0  0  0
 11  9  1  0  0  0  0
 12 11  1  0  0  0  0
 13  4  1  0  0  0  0
 13 12  2  0  0  0  0
 14  5  1  0  0  0  0
 15  7  1  0  0  0  0
 15  1  1  0  0  0  0
 17 15  1  0  0  0  0
 18 17  1  0  0  0  0
 19 17  1  0  0  0  0
 20 21  1  0  0  0  0
 21 19  1  0  0  0  0
 22 21  1  0  0  0  0
 24 22  1  0  0  0  0
 24 23  1  0  0  0  0
 24 26  1  0  0  0  0
 25 24  1  0  0  0  0
 27  6  1  0  0  0  0
 28 32  1  0  0  0  0
 29 28  1  0  0  0  0
 30 27  1  0  0  0  0
 30 32  1  0  0  0  0
 31 30  1  0  0  0  0
 33 31  1  0  0  0  0
 33 29  1  0  0  0  0
M  END
>  <MODEL>
8

>  <REMARK>
 VINA RESULT:      -8.1      1.916      6.199
  Name = 
  7 active torsions:
  status: ('A' for Active; 'I' for Inactive)
    1  A    between atoms: C_3  and  C_15
    2  A    between atoms: C_6  and  C_31
    3  A    between atoms: C_6  and  C_32
    4  A    between atoms: C_10  and  C_15
    5  A    between atoms: C_10  and  C_31
    6  A    between atoms: C_11  and  C_12
    7  A    between atoms: C_11  and  C_18
                            x       y       z     vdW  Elec       q    Type
                         _______ _______ _______ _____ _____    ______ ____

>  <TORSDO>
F 7

$$$$
=
 OpenBabel11032420303D

 33 38  0  0  1  0  0  0  0  0999 V2000
  187.3240  177.8050  141.7360 C   0  0  1  0  0  3  0  0  0  0  0  0
  189.6220  177.9580  142.4050 C   0  0  2  0  0  0  0  0  0  0  0  0
  189.5550  177.9680  140.9740 C   0  0  2  0  0  3  0  0  0  0  0  0
  188.2890  177.7950  140.6320 C   0  0  2  0  0  3  0  0  0  0  0  0
  190.4240  176.6870  142.6360 C   0  0  1  0  0  3  0  0  0  0  0  0
  188.1990  178.0600  142.9770 C   0  0  2  0  0  3  0  0  0  0  0  0
  186.0490  178.6280  139.4840 S   0  0  0  0  0  0  0  0  0  0  0  0
  190.6580  177.1840  140.3920 C   0  0  2  0  0  3  0  0  0  0  0  0
  190.2500  176.3650  139.1560 C   0  0  1  0  0  3  0  0  0  0  0  0
  191.1370  176.3600  141.4410 O   0  0  0  0  0  0  0  0  0  0  0  0
  189.7780  177.3060  138.0400 C   0  0  0  0  0  2  0  0  0  0  0  0
  188.3410  177.7620  138.1710 C   0  0  0  0  0  3  0  0  0  0  0  0
  187.7180  177.9990  139.3310 C   0  0  0  0  0  0  0  0  0  0  0  0
  190.9050  178.0150  143.2150 C   0  0  0  0  0  2  0  0  0  0  0  0
  186.3180  178.8710  141.3070 C   0  0  1  0  0  3  0  0  0  0  0  0
  191.3540  175.6430  138.7060 O   0  0  0  0  0  1  0  0  0  0  0  0
  185.0020  178.7640  142.0850 C   0  0  1  0  0  3  0  0  0  0  0  0
  185.0290  179.5860  143.2150 O   0  0  0  0  0  1  0  0  0  0  0  0
  183.7810  179.1100  141.2220 C   0  0  0  0  0  2  0  0  0  0  0  0
  181.9000  178.7490  142.6480 O   0  0  0  0  0  1  0  0  0  0  0  0
  182.5510  178.2510  141.5190 C   0  0  1  0  0  3  0  0  0  0  0  0
  181.5880  178.2190  140.3320 C   0  0  0  0  0  2  0  0  0  0  0  0
  180.6970  176.0180  140.2170 O   0  0  0  0  0  1  0  0  0  0  0  0
  181.6000  176.8790  139.6000 C   0  0  0  0  0  0  0  0  0  0  0  0
  182.8770  176.3160  139.6530 O   0  0  0  0  0  1  0  0  0  0  0  0
  181.2210  177.0550  138.2670 O   0  0  0  0  0  1  0  0  0  0  0  0
  187.8840  177.1400  144.1700 C   0  0  0  0  0  2  0  0  0  0  0  0
  189.1660  177.6830  147.7480 C   0  0  0  0  0  2  0  0  0  0  0  0
  187.9240  177.4240  148.3590 O   0  0  0  0  0  0  0  0  0  0  0  0
  188.0540  177.8120  145.5250 C   0  0  0  0  0  3  0  0  0  0  0  0
  186.7360  177.7660  146.2970 C   0  0  0  0  0  2  0  0  0  0  0  0
  189.1680  177.1310  146.3210 C   0  0  0  0  0  2  0  0  0  0  0  0
  186.9810  178.2560  147.7250 C   0  0  0  0  0  2  0  0  0  0  0  0
  1  6  1  0  0  0  0
  2  5  1  0  0  0  0
  2  6  1  0  0  0  0
  2 14  1  0  0  0  0
  3  2  1  0  0  0  0
  4  3  1  0  0  0  0
  4  1  1  0  0  0  0
  5 14  1  0  0  0  0
  6 27  1  0  0  0  0
  7 15  1  0  0  0  0
  8  3  1  0  0  0  0
  8 10  1  0  0  0  0
  9  8  1  0  0  0  0
 10  5  1  0  0  0  0
 11 12  1  0  0  0  0
 11  9  1  0  0  0  0
 12 13  2  0  0  0  0
 13  7  1  0  0  0  0
 13  4  1  0  0  0  0
 15  1  1  0  0  0  0
 15 17  1  0  0  0  0
 16  9  1  0  0  0  0
 17 18  1  0  0  0  0
 19 21  1  0  0  0  0
 19 17  1  0  0  0  0
 21 20  1  0  0  0  0
 22 21  1  0  0  0  0
 24 25  1  0  0  0  0
 24 23  1  0  0  0  0
 24 22  1  0  0  0  0
 26 24  1  0  0  0  0
 27 30  1  0  0  0  0
 28 29  1  0  0  0  0
 30 31  1  0  0  0  0
 30 32  1  0  0  0  0
 31 33  1  0  0  0  0
 32 28  1  0  0  0  0
 33 29  1  0  0  0  0
M  END
>  <MODEL>
9

>  <REMARK>
 VINA RESULT:      -7.7      1.846      5.703
  Name = 
  7 active torsions:
  status: ('A' for Active; 'I' for Inactive)
    1  A    between atoms: C_3  and  C_15
    2  A    between atoms: C_6  and  C_31
    3  A    between atoms: C_6  and  C_32
    4  A    between atoms: C_10  and  C_15
    5  A    between atoms: C_10  and  C_31
    6  A    between atoms: C_11  and  C_12
    7  A    between atoms: C_11  and  C_18
                            x       y       z     vdW  Elec       q    Type
                         _______ _______ _______ _____ _____    ______ ____

>  <TORSDO>
F 7

$$$$
