=
 OpenBabel11042412193D

 44 49  0  0  1  0  0  0  0  0999 V2000
  183.2320  178.2760  139.7140 C   0  0  1  0  0  0  0  0  0  0  0  0
  179.1200  181.3390  138.8340 N   0  0  0  0  0  0  0  0  0  0  0  0
  179.1640  180.1410  139.6690 C   0  0  0  0  0  2  0  0  0  0  0  0
  183.7250  177.9850  138.2430 C   0  0  1  0  0  3  0  0  0  0  0  0
  181.1090  180.4730  138.5850 C   0  0  0  0  0  0  0  0  0  0  0  0
  184.7910  176.8980  138.1440 C   0  0  0  0  0  1  0  0  0  0  0  0
  180.5400  179.6400  139.4010 C   0  0  0  0  0  0  0  0  0  0  0  0
  182.5660  180.5930  138.7980 C   0  0  0  0  0  2  0  0  0  0  0  0
  179.6830  174.8840  138.8350 C   0  0  0  0  0  3  0  0  0  0  0  0
  180.2800  175.8350  139.6700 C   0  0  0  0  0  3  0  0  0  0  0  0
  181.5040  179.0360  140.3620 C   0  0  2  0  0  3  0  0  0  0  0  0
  180.0540  174.7880  137.4820 C   0  0  0  0  0  0  0  0  0  0  0  0
  181.0220  175.6630  136.9700 C   0  0  0  0  0  3  0  0  0  0  0  0
  182.5890  177.6300  137.2550 C   0  0  0  0  0  2  0  0  0  0  0  0
  182.8210  179.6960  140.0280 C   0  0  1  0  0  3  0  0  0  0  0  0
  181.9010  177.6730  139.9340 N   0  0  0  0  0  0  0  0  0  0  0  0
  181.2550  176.6830  139.1460 C   0  0  0  0  0  0  0  0  0  0  0  0
  180.2310  181.5280  138.2450 N   0  0  0  0  0  0  0  0  0  0  0  0
  181.6320  176.6020  137.8050 C   0  0  0  0  0  0  0  0  0  0  0  0
  180.2820  171.8560  137.5650 O   0  0  0  0  0  0  0  0  0  0  0  0
  179.4600  173.8280  136.5980 N   0  0  0  0  0  2  0  0  0  0  0  0
  179.5850  172.3980  136.6680 C   0  0  0  0  0  0  0  0  0  0  0  0
  178.9370  171.5890  135.7340 O   0  0  0  0  0  0  0  0  0  0  0  0
  179.2260  170.2030  135.5910 C   0  0  0  0  0  2  0  0  0  0  0  0
  180.3550  169.9910  134.5970 C   0  0  0  0  0  2  0  0  0  0  0  0
  181.5450  169.6390  135.2880 O   0  0  0  0  0  0  0  0  0  0  0  0
  182.5670  171.6730  134.8920 O   0  0  0  0  0  0  0  0  0  0  0  0
  183.6930  170.1860  136.2210 O   0  0  0  0  0  1  0  0  0  0  0  0
  182.5980  170.5400  135.4440 C   0  0  0  0  0  0  0  0  0  0  0  0
  184.1870  177.7870  140.7790 C   0  0  0  0  0  3  0  0  0  0  0  0
  185.0040  178.6120  141.4250 C   0  0  0  0  0  3  0  0  0  0  0  0
  186.6440  177.6700  143.2670 C   0  0  0  0  0  0  0  0  0  0  0  0
  185.8940  178.1010  142.4260 C   0  0  0  0  0  0  0  0  0  0  0  0
  187.5860  178.0490  145.4360 N   0  0  0  0  0  0  0  0  0  0  0  0
  187.5560  177.1460  144.2890 C   0  0  2  0  0  3  0  0  0  0  0  0
  188.8510  177.0050  143.7410 O   0  0  0  0  0  0  0  0  0  0  0  0
  189.6910  177.8160  144.5170 C   0  0  1  0  0  3  0  0  0  0  0  0
  186.7170  177.5100  146.4800 C   0  0  0  0  0  1  0  0  0  0  0  0
  188.9870  178.0660  145.8290 C   0  0  2  0  0  3  0  0  0  0  0  0
  191.3390  175.9720  144.1050 O   0  0  0  0  0  0  0  0  0  0  0  0
  191.9470  177.8340  145.2940 O   0  0  0  0  0  1  0  0  0  0  0  0
  191.0580  177.2190  144.6520 C   0  0  0  0  0  0  0  0  0  0  0  0
  189.2840  177.0450  146.7500 O   0  0  0  0  0  0  0  0  0  0  0  0
  189.6790  177.6800  147.8340 O   0  0  0  0  0  1  0  0  0  0  0  0
  1 16  1  0  0  0  0
  1 15  1  0  0  0  0
  1 30  1  1  0  0  0
  2  3  1  0  0  0  0
  4  6  1  1  0  0  0
  4  1  1  0  0  0  0
  5  8  1  0  0  0  0
  5  7  2  0  0  0  0
  7  3  1  0  0  0  0
  9 10  1  0  0  0  0
 11  7  1  6  0  0  0
 12  9  2  0  0  0  0
 13 12  1  0  0  0  0
 13 19  2  0  0  0  0
 14 19  1  0  0  0  0
 14  4  1  0  0  0  0
 15  8  1  6  0  0  0
 15 11  1  0  0  0  0
 16 11  1  0  0  0  0
 17 10  2  0  0  0  0
 17 16  1  0  0  0  0
 18  5  1  0  0  0  0
 18  2  2  0  0  0  0
 19 17  1  0  0  0  0
 21 22  1  0  0  0  0
 21 12  1  0  0  0  0
 22 20  2  0  0  0  0
 23 22  1  0  0  0  0
 24 23  1  0  0  0  0
 25 26  1  0  0  0  0
 25 24  1  0  0  0  0
 26 29  1  0  0  0  0
 27 29  2  0  0  0  0
 29 28  1  0  0  0  0
 30 31  2  0  0  0  0
 31 33  1  0  0  0  0
 33 32  3  0  0  0  0
 34 39  1  0  0  0  0
 34 38  1  0  0  0  0
 35 32  1  6  0  0  0
 35 34  1  0  0  0  0
 36 35  1  0  0  0  0
 36 37  1  0  0  0  0
 37 42  1  1  0  0  0
 37 39  1  0  0  0  0
 39 43  1  1  0  0  0
 40 42  2  0  0  0  0
 42 41  1  0  0  0  0
 43 44  1  0  0  0  0
M  END
>  <MODEL>
1

>  <REMARK>
 VINA RESULT:      -6.2      0.000      0.000
  Name = 
  11 active torsions:
  status: ('A' for Active; 'I' for Inactive)
    1  A    between atoms: C_2  and  C_12
    2  A    between atoms: O_5  and  C_38
    3  A    between atoms: C_8  and  O_24
    4  A    between atoms: C_8  and  C_36
    5  A    between atoms: C_10  and  C_39
    6  A    between atoms: O_16  and  C_36
    7  A    between atoms: O_16  and  C_42
    8  A    between atoms: C_18  and  C_29
    9  A    between atoms: O_24  and  C_44
   10  A    between atoms: N_25  and  C_26
   11  A    between atoms: C_35  and  C_40
                            x       y       z     vdW  Elec       q    Type
                         _______ _______ _______ _____ _____    ______ ____

>  <TORSDO>
F 11

$$$$
=
 OpenBabel11042412193D

 44 49  0  0  1  0  0  0  0  0999 V2000
  183.1940  178.3220  139.9370 C   0  0  1  0  0  0  0  0  0  0  0  0
  178.9550  180.4440  137.7920 N   0  0  0  0  0  0  0  0  0  0  0  0
  179.0220  179.2180  138.5830 C   0  0  0  0  0  2  0  0  0  0  0  0
  184.1790  178.2800  138.7040 C   0  0  1  0  0  3  0  0  0  0  0  0
  181.0690  180.0740  138.1970 C   0  0  0  0  0  0  0  0  0  0  0  0
  185.4510  177.4750  138.9480 C   0  0  0  0  0  1  0  0  0  0  0  0
  180.4910  179.0660  138.7750 C   0  0  0  0  0  0  0  0  0  0  0  0
  182.3100  180.5000  138.8750 C   0  0  0  0  0  2  0  0  0  0  0  0
  181.0320  174.3070  137.9150 C   0  0  0  0  0  3  0  0  0  0  0  0
  181.0870  175.2920  138.9080 C   0  0  0  0  0  3  0  0  0  0  0  0
  181.2200  178.6130  139.9920 C   0  0  2  0  0  3  0  0  0  0  0  0
  181.8210  174.4160  136.7570 C   0  0  0  0  0  0  0  0  0  0  0  0
  182.6590  175.5290  136.5960 C   0  0  0  0  0  3  0  0  0  0  0  0
  183.5330  177.7660  137.3960 C   0  0  0  0  0  2  0  0  0  0  0  0
  182.3740  179.5800  140.1120 C   0  0  1  0  0  3  0  0  0  0  0  0
  182.0480  177.4180  139.7040 N   0  0  0  0  0  0  0  0  0  0  0  0
  181.9420  176.3810  138.7390 C   0  0  0  0  0  0  0  0  0  0  0  0
  180.1140  180.9300  137.5990 N   0  0  0  0  0  0  0  0  0  0  0  0
  182.7290  176.5040  137.5940 C   0  0  0  0  0  0  0  0  0  0  0  0
  182.3790  171.5350  136.9690 O   0  0  0  0  0  0  0  0  0  0  0  0
  181.7860  173.4280  135.7180 N   0  0  0  0  0  2  0  0  0  0  0  0
  182.0580  172.0240  135.8550 C   0  0  0  0  0  0  0  0  0  0  0  0
  181.9750  171.1810  134.7450 O   0  0  0  0  0  0  0  0  0  0  0  0
  182.8030  170.0340  134.5940 C   0  0  0  0  0  2  0  0  0  0  0  0
  183.9710  170.0850  135.5640 C   0  0  0  0  0  2  0  0  0  0  0  0
  185.1960  170.0280  134.8450 O   0  0  0  0  0  0  0  0  0  0  0  0
  185.7560  172.2670  134.9680 O   0  0  0  0  0  1  0  0  0  0  0  0
  187.4840  170.7660  134.8880 O   0  0  0  0  0  0  0  0  0  0  0  0
  186.1280  171.0650  134.9010 C   0  0  0  0  0  0  0  0  0  0  0  0
  183.8530  177.9700  141.2500 C   0  0  0  0  0  3  0  0  0  0  0  0
  184.9690  178.5620  141.6590 C   0  0  0  0  0  3  0  0  0  0  0  0
  186.0560  177.8800  143.9670 C   0  0  0  0  0  0  0  0  0  0  0  0
  185.5600  178.1920  142.9120 C   0  0  0  0  0  0  0  0  0  0  0  0
  186.7040  178.6570  146.1380 N   0  0  0  0  0  0  0  0  0  0  0  0
  186.6570  177.4990  145.2480 C   0  0  2  0  0  3  0  0  0  0  0  0
  187.9590  176.9950  145.0300 O   0  0  0  0  0  0  0  0  0  0  0  0
  188.8240  177.8250  145.7560 C   0  0  1  0  0  3  0  0  0  0  0  0
  185.5840  178.5750  147.0730 C   0  0  0  0  0  1  0  0  0  0  0  0
  187.9950  178.5350  146.7990 C   0  0  2  0  0  3  0  0  0  0  0  0
  191.2860  177.3880  145.9370 O   0  0  0  0  0  0  0  0  0  0  0  0
  189.7840  176.0880  147.0800 O   0  0  0  0  0  1  0  0  0  0  0  0
  189.9870  177.0590  146.3060 C   0  0  0  0  0  0  0  0  0  0  0  0
  187.9110  177.7630  147.9710 O   0  0  0  0  0  0  0  0  0  0  0  0
  188.2230  178.5960  148.9420 O   0  0  0  0  0  1  0  0  0  0  0  0
  1 15  1  0  0  0  0
  1 30  1  1  0  0  0
  2  3  1  0  0  0  0
  3  7  1  0  0  0  0
  4  6  1  1  0  0  0
  4  1  1  0  0  0  0
  5  7  2  0  0  0  0
  5  8  1  0  0  0  0
  9 10  1  0  0  0  0
 11  7  1  6  0  0  0
 11 15  1  0  0  0  0
 12  9  2  0  0  0  0
 13 12  1  0  0  0  0
 13 19  2  0  0  0  0
 14 19  1  0  0  0  0
 14  4  1  0  0  0  0
 15  8  1  6  0  0  0
 16  1  1  0  0  0  0
 16 11  1  0  0  0  0
 17 10  2  0  0  0  0
 17 16  1  0  0  0  0
 18  2  2  0  0  0  0
 18  5  1  0  0  0  0
 19 17  1  0  0  0  0
 21 22  1  0  0  0  0
 21 12  1  0  0  0  0
 22 20  2  0  0  0  0
 23 22  1  0  0  0  0
 24 23  1  0  0  0  0
 24 25  1  0  0  0  0
 26 29  1  0  0  0  0
 26 25  1  0  0  0  0
 28 29  2  0  0  0  0
 29 27  1  0  0  0  0
 30 31  2  0  0  0  0
 31 33  1  0  0  0  0
 33 32  3  0  0  0  0
 34 39  1  0  0  0  0
 34 38  1  0  0  0  0
 35 32  1  6  0  0  0
 35 34  1  0  0  0  0
 36 35  1  0  0  0  0
 36 37  1  0  0  0  0
 37 42  1  1  0  0  0
 37 39  1  0  0  0  0
 39 43  1  1  0  0  0
 40 42  2  0  0  0  0
 42 41  1  0  0  0  0
 43 44  1  0  0  0  0
M  END
>  <MODEL>
2

>  <REMARK>
 VINA RESULT:      -4.3      1.539      1.999
  Name = 
  11 active torsions:
  status: ('A' for Active; 'I' for Inactive)
    1  A    between atoms: C_2  and  C_12
    2  A    between atoms: O_5  and  C_38
    3  A    between atoms: C_8  and  O_24
    4  A    between atoms: C_8  and  C_36
    5  A    between atoms: C_10  and  C_39
    6  A    between atoms: O_16  and  C_36
    7  A    between atoms: O_16  and  C_42
    8  A    between atoms: C_18  and  C_29
    9  A    between atoms: O_24  and  C_44
   10  A    between atoms: N_25  and  C_26
   11  A    between atoms: C_35  and  C_40
                            x       y       z     vdW  Elec       q    Type
                         _______ _______ _______ _____ _____    ______ ____

>  <TORSDO>
F 11

$$$$
