=
 OpenBabel11042411033D

 39 43  0  0  1  0  0  0  0  0999 V2000
  188.9950  178.1960  140.7930 C   0  0  1  0  0  3  0  0  0  0  0  0
  189.2960  176.9730  142.9020 N   0  0  0  0  0  2  0  0  0  0  0  0
  187.4730  178.1680  140.8370 C   0  0  0  0  0  2  0  0  0  0  0  0
  189.5810  176.9610  141.4740 C   0  0  0  0  0  2  0  0  0  0  0  0
  187.9920  176.3490  143.0800 C   0  0  0  0  0  2  0  0  0  0  0  0
  186.8780  177.3960  143.2000 C   0  0  2  0  0  3  0  0  0  0  0  0
  186.9860  178.5780  142.2230 C   0  0  2  0  0  3  0  0  0  0  0  0
  187.2160  178.0810  146.8110 N   0  0  0  0  0  0  0  0  0  0  0  0
  187.5410  177.4370  145.5910 C   0  0  0  0  0  3  0  0  0  0  0  0
  185.7340  178.8850  145.1100 C   0  0  1  0  0  3  0  0  0  0  0  0
  186.1210  178.9360  146.5450 C   0  0  0  0  0  0  0  0  0  0  0  0
  185.5580  179.6430  147.4220 O   0  0  0  0  0  0  0  0  0  0  0  0
  186.7470  177.8760  144.6150 C   0  0  0  0  0  0  0  0  0  0  0  0
  184.3240  178.3320  144.9840 C   0  0  0  0  0  1  0  0  0  0  0  0
  187.6290  177.6850  148.0390 O   0  0  0  0  0  0  0  0  0  0  0  0
  189.0010  177.4590  147.9080 C   0  0  0  0  0  1  0  0  0  0  0  0
  189.4460  178.2530  139.3430 C   0  0  0  0  0  2  0  0  0  0  0  0
  190.2350  176.5810  136.5460 C   0  0  0  0  0  0  0  0  0  0  0  0
  190.9550  176.4980  135.5170 O   0  0  0  0  0  0  0  0  0  0  0  0
  189.7020  176.8560  138.7960 C   0  0  1  0  0  3  0  0  0  0  0  0
  188.4580  176.3270  138.0630 C   0  0  0  0  0  2  0  0  0  0  0  0
  188.7800  176.2920  136.5690 C   0  0  1  0  0  3  0  0  0  0  0  0
  190.7650  176.9120  137.8110 N   0  0  0  0  0  2  0  0  0  0  0  0
  187.9320  177.3480  135.8440 C   0  0  1  0  0  3  0  0  0  0  0  0
  187.4740  176.9140  134.5950 O   0  0  0  0  0  1  0  0  0  0  0  0
  185.4310  177.4220  136.2570 C   0  0  0  0  0  1  0  0  0  0  0  0
  186.7990  177.9080  136.7010 C   0  0  0  0  0  2  0  0  0  0  0  0
  185.6950  179.2410  142.1130 N   0  0  0  0  0  2  0  0  0  0  0  0
  183.5290  178.7440  139.2640 C   0  0  0  0  0  3  0  0  0  0  0  0
  184.5640  179.3530  139.8210 C   0  0  0  0  0  3  0  0  0  0  0  0
  184.7040  178.8300  141.1690 C   0  0  0  0  0  0  0  0  0  0  0  0
  182.9190  177.7680  140.2270 C   0  0  1  0  0  3  0  0  0  0  0  0
  183.7790  177.9290  141.4380 C   0  0  0  0  0  3  0  0  0  0  0  0
  181.4980  178.1270  140.5310 C   0  0  0  0  0  0  0  0  0  0  0  0
  181.1360  178.4500  141.8740 N   0  0  0  0  0  2  0  0  0  0  0  0
  180.6330  178.1560  139.6130 O   0  0  0  0  0  0  0  0  0  0  0  0
  179.6560  178.8380  143.7480 C   0  0  0  0  0  2  0  0  0  0  0  0
  179.7740  178.8050  142.2380 C   0  0  0  0  0  3  0  0  0  0  0  0
  179.7870  180.1300  142.9730 C   0  0  0  0  0  2  0  0  0  0  0  0
  1 17  1  6  0  0  0
  1  3  1  0  0  0  0
  1  4  1  0  0  0  0
  2  5  1  0  0  0  0
  3  7  1  0  0  0  0
  4  2  1  0  0  0  0
  5  6  1  0  0  0  0
  6 13  1  1  0  0  0
  7 28  1  6  0  0  0
  7  6  1  0  0  0  0
  8 15  1  0  0  0  0
  9  8  1  0  0  0  0
 10 14  1  1  0  0  0
 10 11  1  0  0  0  0
 11  8  1  0  0  0  0
 11 12  2  0  0  0  0
 13 10  1  0  0  0  0
 13  9  2  0  0  0  0
 16 15  1  0  0  0  0
 18 22  1  0  0  0  0
 18 23  1  0  0  0  0
 19 18  2  0  0  0  0
 20 17  1  6  0  0  0
 21 20  1  0  0  0  0
 22 24  1  6  0  0  0
 22 21  1  0  0  0  0
 23 20  1  0  0  0  0
 24 25  1  6  0  0  0
 24 27  1  0  0  0  0
 26 27  1  0  0  0  0
 29 30  2  0  0  0  0
 29 32  1  0  0  0  0
 30 31  1  0  0  0  0
 31 33  2  0  0  0  0
 31 28  1  0  0  0  0
 32 34  1  1  0  0  0
 32 33  1  0  0  0  0
 34 35  1  0  0  0  0
 35 38  1  0  0  0  0
 36 34  2  0  0  0  0
 38 39  1  0  0  0  0
 38 37  1  0  0  0  0
 39 37  1  0  0  0  0
M  END
>  <MODEL>
1

>  <REMARK>
 VINA RESULT:      -8.2      0.000      0.000
  Name = 
  10 active torsions:
  status: ('A' for Active; 'I' for Inactive)
    1  A    between atoms: N_1  and  O_6
    2  A    between atoms: C_2  and  C_24
    3  A    between atoms: C_5  and  C_23
    4  A    between atoms: C_7  and  N_33
    5  A    between atoms: C_12  and  C_27
    6  A    between atoms: C_12  and  C_37
    7  A    between atoms: C_13  and  C_24
    8  A    between atoms: C_19  and  N_32
    9  A    between atoms: C_28  and  C_36
   10  A    between atoms: C_30  and  N_32
                            x       y       z     vdW  Elec       q    Type
                         _______ _______ _______ _____ _____    ______ ____

>  <TORSDO>
F 10

$$$$
=
 OpenBabel11042411033D

 39 43  0  0  1  0  0  0  0  0999 V2000
  189.1130  178.1760  141.0690 C   0  0  1  0  0  3  0  0  0  0  0  0
  191.0480  177.5080  142.4260 N   0  0  0  0  0  2  0  0  0  0  0  0
  188.1210  177.2760  141.7950 C   0  0  0  0  0  2  0  0  0  0  0  0
  190.5100  177.5600  141.0730 C   0  0  0  0  0  2  0  0  0  0  0  0
  190.5870  176.2600  143.0190 C   0  0  0  0  0  2  0  0  0  0  0  0
  189.3450  176.4760  143.8920 C   0  0  2  0  0  3  0  0  0  0  0  0
  188.2910  177.4280  143.3030 C   0  0  2  0  0  3  0  0  0  0  0  0
  191.0500  177.2050  147.0830 N   0  0  0  0  0  0  0  0  0  0  0  0
  190.9550  176.6820  145.7690 C   0  0  0  0  0  3  0  0  0  0  0  0
  188.8280  177.5820  146.2760 C   0  0  1  0  0  3  0  0  0  0  0  0
  189.7780  177.7280  147.4100 C   0  0  0  0  0  0  0  0  0  0  0  0
  189.5030  178.2490  148.5230 O   0  0  0  0  0  0  0  0  0  0  0  0
  189.7340  176.8930  145.2790 C   0  0  0  0  0  0  0  0  0  0  0  0
  187.6870  176.6640  146.6840 C   0  0  0  0  0  1  0  0  0  0  0  0
  192.0420  176.9300  147.9650 O   0  0  0  0  0  0  0  0  0  0  0  0
  192.4520  175.6300  147.6590 C   0  0  0  0  0  1  0  0  0  0  0  0
  188.6390  178.3780  139.6390 C   0  0  0  0  0  2  0  0  0  0  0  0
  189.0440  177.5150  136.4240 C   0  0  0  0  0  0  0  0  0  0  0  0
  189.4220  177.8420  135.2690 O   0  0  0  0  0  0  0  0  0  0  0  0
  189.1350  177.2560  138.7370 C   0  0  1  0  0  3  0  0  0  0  0  0
  187.9520  176.4320  138.2010 C   0  0  0  0  0  2  0  0  0  0  0  0
  187.8180  176.7290  136.7070 C   0  0  1  0  0  3  0  0  0  0  0  0
  189.7950  177.8270  137.5780 N   0  0  0  0  0  2  0  0  0  0  0  0
  186.5180  177.5090  136.4610 C   0  0  1  0  0  3  0  0  0  0  0  0
  186.0730  177.4200  135.1370 O   0  0  0  0  0  1  0  0  0  0  0  0
  185.0300  178.3480  138.3360 C   0  0  0  0  0  1  0  0  0  0  0  0
  185.4110  177.1690  137.4560 C   0  0  0  0  0  2  0  0  0  0  0  0
  187.0130  177.2120  143.9660 N   0  0  0  0  0  2  0  0  0  0  0  0
  184.3270  179.5760  144.4700 C   0  0  0  0  0  3  0  0  0  0  0  0
  185.2940  178.8200  144.9680 C   0  0  0  0  0  3  0  0  0  0  0  0
  185.9300  178.1380  143.8540 C   0  0  0  0  0  0  0  0  0  0  0  0
  184.2710  179.4340  142.9780 C   0  0  1  0  0  3  0  0  0  0  0  0
  185.3690  178.4590  142.7050 C   0  0  0  0  0  3  0  0  0  0  0  0
  182.9490  178.8860  142.5380 C   0  0  0  0  0  0  0  0  0  0  0  0
  181.7910  179.1440  143.3300 N   0  0  0  0  0  2  0  0  0  0  0  0
  182.8570  178.2120  141.4740 O   0  0  0  0  0  0  0  0  0  0  0  0
  179.6770  178.3720  144.2170 C   0  0  0  0  0  2  0  0  0  0  0  0
  180.4780  178.6400  142.9610 C   0  0  0  0  0  3  0  0  0  0  0  0
  179.4220  179.6270  143.4130 C   0  0  0  0  0  2  0  0  0  0  0  0
  1 17  1  6  0  0  0
  1  4  1  0  0  0  0
  1  3  1  0  0  0  0
  2  5  1  0  0  0  0
  3  7  1  0  0  0  0
  4  2  1  0  0  0  0
  5  6  1  0  0  0  0
  6 13  1  1  0  0  0
  7  6  1  0  0  0  0
  7 28  1  1  0  0  0
  8 11  1  0  0  0  0
  8 15  1  0  0  0  0
  9  8  1  0  0  0  0
 10 14  1  1  0  0  0
 10 11  1  0  0  0  0
 11 12  2  0  0  0  0
 13  9  2  0  0  0  0
 13 10  1  0  0  0  0
 16 15  1  0  0  0  0
 18 22  1  0  0  0  0
 18 23  1  0  0  0  0
 19 18  2  0  0  0  0
 20 17  1  1  0  0  0
 21 20  1  0  0  0  0
 22 24  1  1  0  0  0
 22 21  1  0  0  0  0
 23 20  1  0  0  0  0
 24 25  1  6  0  0  0
 24 27  1  0  0  0  0
 27 26  1  0  0  0  0
 29 30  2  0  0  0  0
 31 28  1  0  0  0  0
 31 30  1  0  0  0  0
 32 34  1  1  0  0  0
 32 29  1  0  0  0  0
 33 32  1  0  0  0  0
 33 31  2  0  0  0  0
 34 35  1  0  0  0  0
 36 34  2  0  0  0  0
 38 35  1  0  0  0  0
 38 39  1  0  0  0  0
 38 37  1  0  0  0  0
 39 37  1  0  0  0  0
M  END
>  <MODEL>
2

>  <REMARK>
 VINA RESULT:      -8.1      1.892      2.766
  Name = 
  10 active torsions:
  status: ('A' for Active; 'I' for Inactive)
    1  A    between atoms: N_1  and  O_6
    2  A    between atoms: C_2  and  C_24
    3  A    between atoms: C_5  and  C_23
    4  A    between atoms: C_7  and  N_33
    5  A    between atoms: C_12  and  C_27
    6  A    between atoms: C_12  and  C_37
    7  A    between atoms: C_13  and  C_24
    8  A    between atoms: C_19  and  N_32
    9  A    between atoms: C_28  and  C_36
   10  A    between atoms: C_30  and  N_32
                            x       y       z     vdW  Elec       q    Type
                         _______ _______ _______ _____ _____    ______ ____

>  <TORSDO>
F 10

$$$$
=
 OpenBabel11042411033D

 39 43  0  0  1  0  0  0  0  0999 V2000
  188.4880  177.3460  140.6910 C   0  0  1  0  0  3  0  0  0  0  0  0
  187.5860  176.9620  138.4390 N   0  0  0  0  0  2  0  0  0  0  0  0
  187.7220  178.6420  140.9250 C   0  0  0  0  0  2  0  0  0  0  0  0
  188.8060  177.1620  139.2090 C   0  0  0  0  0  2  0  0  0  0  0  0
  187.0890  178.2840  138.0820 C   0  0  0  0  0  2  0  0  0  0  0  0
  185.9910  178.7520  139.0460 C   0  0  2  0  0  3  0  0  0  0  0  0
  186.2590  178.4580  140.5310 C   0  0  2  0  0  3  0  0  0  0  0  0
  183.1490  176.9620  137.5170 N   0  0  0  0  0  0  0  0  0  0  0  0
  184.5180  177.2900  137.6860 C   0  0  0  0  0  3  0  0  0  0  0  0
  183.3180  178.6700  139.1860 C   0  0  1  0  0  3  0  0  0  0  0  0
  182.4150  177.7960  138.3920 C   0  0  0  0  0  0  0  0  0  0  0  0
  181.1580  177.7850  138.4770 O   0  0  0  0  0  0  0  0  0  0  0  0
  184.6510  178.2260  138.6250 C   0  0  0  0  0  0  0  0  0  0  0  0
  183.0500  180.1250  138.8380 C   0  0  0  0  0  1  0  0  0  0  0  0
  182.6350  176.2630  136.4760 O   0  0  0  0  0  0  0  0  0  0  0  0
  182.6790  177.1390  135.3900 C   0  0  0  0  0  1  0  0  0  0  0  0
  189.7750  177.3820  141.4990 C   0  0  0  0  0  2  0  0  0  0  0  0
  191.4160  178.5200  144.1920 C   0  0  0  0  0  0  0  0  0  0  0  0
  192.4720  179.0070  144.6740 O   0  0  0  0  0  0  0  0  0  0  0  0
  189.6230  178.2680  142.7270 C   0  0  1  0  0  3  0  0  0  0  0  0
  189.3530  177.4160  143.9770 C   0  0  0  0  0  2  0  0  0  0  0  0
  190.6010  177.4760  144.8600 C   0  0  1  0  0  3  0  0  0  0  0  0
  190.8700  178.9690  142.9710 N   0  0  0  0  0  2  0  0  0  0  0  0
  191.2710  176.0940  144.8830 C   0  0  1  0  0  3  0  0  0  0  0  0
  191.9450  175.7970  143.6930 O   0  0  0  0  0  1  0  0  0  0  0  0
  191.4210  176.1160  147.4150 C   0  0  0  0  0  1  0  0  0  0  0  0
  192.1550  175.8720  146.1080 C   0  0  0  0  0  2  0  0  0  0  0  0
  185.4180  179.3110  141.3570 N   0  0  0  0  0  2  0  0  0  0  0  0
  183.6430  178.7050  144.4460 C   0  0  0  0  0  3  0  0  0  0  0  0
  183.6730  179.2190  143.2260 C   0  0  0  0  0  3  0  0  0  0  0  0
  184.9750  178.9170  142.6580 C   0  0  0  0  0  0  0  0  0  0  0  0
  184.9420  178.0230  144.7560 C   0  0  1  0  0  3  0  0  0  0  0  0
  185.7280  178.2410  143.5040 C   0  0  0  0  0  3  0  0  0  0  0  0
  185.6200  178.6600  145.9280 C   0  0  0  0  0  0  0  0  0  0  0  0
  186.5690  177.9020  146.6780 N   0  0  0  0  0  2  0  0  0  0  0  0
  185.3660  179.8550  146.2440 O   0  0  0  0  0  0  0  0  0  0  0  0
  187.9670  177.3450  148.5720 C   0  0  0  0  0  2  0  0  0  0  0  0
  187.2620  178.4600  147.8280 C   0  0  0  0  0  3  0  0  0  0  0  0
  188.7530  178.2560  147.6550 C   0  0  0  0  0  2  0  0  0  0  0  0
  1  3  1  0  0  0  0
  1 17  1  1  0  0  0
  2  4  1  0  0  0  0
  4  1  1  0  0  0  0
  5  2  1  0  0  0  0
  5  6  1  0  0  0  0
  6 13  1  6  0  0  0
  6  7  1  0  0  0  0
  7  3  1  0  0  0  0
  7 28  1  1  0  0  0
  8  9  1  0  0  0  0
  8 11  1  0  0  0  0
  9 13  2  0  0  0  0
 10 14  1  6  0  0  0
 11 12  2  0  0  0  0
 11 10  1  0  0  0  0
 13 10  1  0  0  0  0
 15  8  1  0  0  0  0
 16 15  1  0  0  0  0
 18 19  2  0  0  0  0
 18 22  1  0  0  0  0
 20 17  1  6  0  0  0
 20 23  1  0  0  0  0
 20 21  1  0  0  0  0
 21 22  1  0  0  0  0
 22 24  1  6  0  0  0
 23 18  1  0  0  0  0
 24 25  1  6  0  0  0
 24 27  1  0  0  0  0
 27 26  1  0  0  0  0
 28 31  1  0  0  0  0
 29 32  1  0  0  0  0
 30 29  2  0  0  0  0
 31 30  1  0  0  0  0
 31 33  2  0  0  0  0
 32 34  1  1  0  0  0
 33 32  1  0  0  0  0
 34 36  2  0  0  0  0
 34 35  1  0  0  0  0
 35 38  1  0  0  0  0
 38 37  1  0  0  0  0
 39 38  1  0  0  0  0
 39 37  1  0  0  0  0
M  END
>  <MODEL>
3

>  <REMARK>
 VINA RESULT:      -8.1      2.621      7.609
  Name = 
  10 active torsions:
  status: ('A' for Active; 'I' for Inactive)
    1  A    between atoms: N_1  and  O_6
    2  A    between atoms: C_2  and  C_24
    3  A    between atoms: C_5  and  C_23
    4  A    between atoms: C_7  and  N_33
    5  A    between atoms: C_12  and  C_27
    6  A    between atoms: C_12  and  C_37
    7  A    between atoms: C_13  and  C_24
    8  A    between atoms: C_19  and  N_32
    9  A    between atoms: C_28  and  C_36
   10  A    between atoms: C_30  and  N_32
                            x       y       z     vdW  Elec       q    Type
                         _______ _______ _______ _____ _____    ______ ____

>  <TORSDO>
F 10

$$$$
=
 OpenBabel11042411033D

 39 43  0  0  1  0  0  0  0  0999 V2000
  188.5140  177.6000  141.5870 C   0  0  1  0  0  3  0  0  0  0  0  0
  190.5660  176.4570  140.8690 N   0  0  0  0  0  2  0  0  0  0  0  0
  188.3980  178.4650  140.3390 C   0  0  0  0  0  2  0  0  0  0  0  0
  189.9770  177.2970  141.9040 C   0  0  0  0  0  2  0  0  0  0  0  0
  191.0640  177.3490  139.8310 C   0  0  0  0  0  2  0  0  0  0  0  0
  190.0660  177.4760  138.6730 C   0  0  2  0  0  3  0  0  0  0  0  0
  188.5930  177.6070  139.0930 C   0  0  2  0  0  3  0  0  0  0  0  0
  189.8670  174.3980  136.6460 N   0  0  0  0  0  0  0  0  0  0  0  0
  189.4980  175.2610  137.7090 C   0  0  0  0  0  3  0  0  0  0  0  0
  191.2730  176.3340  136.5720 C   0  0  1  0  0  3  0  0  0  0  0  0
  190.9440  175.0160  135.9690 C   0  0  0  0  0  0  0  0  0  0  0  0
  191.5350  174.5030  134.9830 O   0  0  0  0  0  0  0  0  0  0  0  0
  190.2490  176.3620  137.6860 C   0  0  0  0  0  0  0  0  0  0  0  0
  192.6820  176.2940  137.1430 C   0  0  0  0  0  1  0  0  0  0  0  0
  189.5070  173.0960  136.5350 O   0  0  0  0  0  0  0  0  0  0  0  0
  188.1780  173.0480  136.9620 C   0  0  0  0  0  1  0  0  0  0  0  0
  187.8710  178.3310  142.7540 C   0  0  0  0  0  2  0  0  0  0  0  0
  185.5840  178.3230  145.2050 C   0  0  0  0  0  0  0  0  0  0  0  0
  184.7040  178.9530  145.8490 O   0  0  0  0  0  0  0  0  0  0  0  0
  186.7420  177.5080  143.3570 C   0  0  1  0  0  3  0  0  0  0  0  0
  187.2290  176.7550  144.6060 C   0  0  0  0  0  2  0  0  0  0  0  0
  186.5680  177.4020  145.8250 C   0  0  1  0  0  3  0  0  0  0  0  0
  185.6830  178.3950  143.8000 N   0  0  0  0  0  2  0  0  0  0  0  0
  187.6390  178.1200  146.6600 C   0  0  1  0  0  3  0  0  0  0  0  0
  187.3950  178.0450  148.0360 O   0  0  0  0  0  1  0  0  0  0  0  0
  189.6660  176.7570  147.3440 C   0  0  0  0  0  1  0  0  0  0  0  0
  189.0640  177.6940  146.3120 C   0  0  0  0  0  2  0  0  0  0  0  0
  187.8180  178.1580  137.9910 N   0  0  0  0  0  2  0  0  0  0  0  0
  184.2160  177.8720  137.9650 C   0  0  0  0  0  3  0  0  0  0  0  0
  185.3130  178.4780  138.3960 C   0  0  0  0  0  3  0  0  0  0  0  0
  186.4470  177.8160  137.7750 C   0  0  0  0  0  0  0  0  0  0  0  0
  184.5710  176.7610  137.0220 C   0  0  1  0  0  3  0  0  0  0  0  0
  186.0630  176.8290  136.9910 C   0  0  0  0  0  3  0  0  0  0  0  0
  184.1080  175.4380  137.5480 C   0  0  0  0  0  0  0  0  0  0  0  0
  184.7540  174.2470  137.0970 N   0  0  0  0  0  2  0  0  0  0  0  0
  183.1680  175.3750  138.3870 O   0  0  0  0  0  0  0  0  0  0  0  0
  183.2330  172.4110  136.6910 C   0  0  0  0  0  2  0  0  0  0  0  0
  184.3540  172.9310  137.5660 C   0  0  0  0  0  3  0  0  0  0  0  0
  184.6450  171.9090  136.4860 C   0  0  0  0  0  2  0  0  0  0  0  0
  1  4  1  0  0  0  0
  1 17  1  1  0  0  0
  2  4  1  0  0  0  0
  3  1  1  0  0  0  0
  5  2  1  0  0  0  0
  6 13  1  6  0  0  0
  6  7  1  0  0  0  0
  6  5  1  0  0  0  0
  7 28  1  6  0  0  0
  7  3  1  0  0  0  0
  8  9  1  0  0  0  0
 10 14  1  1  0  0  0
 10 13  1  0  0  0  0
 11 10  1  0  0  0  0
 11  8  1  0  0  0  0
 12 11  2  0  0  0  0
 13  9  2  0  0  0  0
 15  8  1  0  0  0  0
 15 16  1  0  0  0  0
 18 22  1  0  0  0  0
 18 19  2  0  0  0  0
 20 17  1  1  0  0  0
 20 23  1  0  0  0  0
 20 21  1  0  0  0  0
 21 22  1  0  0  0  0
 22 24  1  6  0  0  0
 23 18  1  0  0  0  0
 24 25  1  1  0  0  0
 27 24  1  0  0  0  0
 27 26  1  0  0  0  0
 29 30  2  0  0  0  0
 31 28  1  0  0  0  0
 31 30  1  0  0  0  0
 32 34  1  1  0  0  0
 32 29  1  0  0  0  0
 33 32  1  0  0  0  0
 33 31  2  0  0  0  0
 34 36  2  0  0  0  0
 35 34  1  0  0  0  0
 35 38  1  0  0  0  0
 37 38  1  0  0  0  0
 39 37  1  0  0  0  0
 39 38  1  0  0  0  0
M  END
>  <MODEL>
4

>  <REMARK>
 VINA RESULT:      -7.9      2.757      8.422
  Name = 
  10 active torsions:
  status: ('A' for Active; 'I' for Inactive)
    1  A    between atoms: N_1  and  O_6
    2  A    between atoms: C_2  and  C_24
    3  A    between atoms: C_5  and  C_23
    4  A    between atoms: C_7  and  N_33
    5  A    between atoms: C_12  and  C_27
    6  A    between atoms: C_12  and  C_37
    7  A    between atoms: C_13  and  C_24
    8  A    between atoms: C_19  and  N_32
    9  A    between atoms: C_28  and  C_36
   10  A    between atoms: C_30  and  N_32
                            x       y       z     vdW  Elec       q    Type
                         _______ _______ _______ _____ _____    ______ ____

>  <TORSDO>
F 10

$$$$
=
 OpenBabel11042411033D

 39 43  0  0  1  0  0  0  0  0999 V2000
  189.4420  177.7400  141.0310 C   0  0  1  0  0  3  0  0  0  0  0  0
  189.4620  176.6050  143.2090 N   0  0  0  0  0  2  0  0  0  0  0  0
  187.9260  177.8690  140.9600 C   0  0  0  0  0  2  0  0  0  0  0  0
  189.8450  176.4890  141.8090 C   0  0  0  0  0  2  0  0  0  0  0  0
  188.0900  176.1260  143.3150 C   0  0  0  0  0  2  0  0  0  0  0  0
  187.0870  177.2860  143.3030 C   0  0  2  0  0  3  0  0  0  0  0  0
  187.3880  178.3990  142.2850 C   0  0  2  0  0  3  0  0  0  0  0  0
  187.3170  178.2110  146.8690 N   0  0  0  0  0  0  0  0  0  0  0  0
  187.6920  177.5010  145.7000 C   0  0  0  0  0  3  0  0  0  0  0  0
  185.8510  178.8540  145.0890 C   0  0  1  0  0  3  0  0  0  0  0  0
  186.2020  179.0090  146.5260 C   0  0  0  0  0  0  0  0  0  0  0  0
  185.5960  179.7510  147.3430 O   0  0  0  0  0  0  0  0  0  0  0  0
  186.9080  177.8500  144.6820 C   0  0  0  0  0  0  0  0  0  0  0  0
  184.4630  178.2460  144.9680 C   0  0  0  0  0  1  0  0  0  0  0  0
  187.7140  177.9080  148.1290 O   0  0  0  0  0  0  0  0  0  0  0  0
  188.7680  177.0060  147.9730 C   0  0  0  0  0  1  0  0  0  0  0  0
  189.9980  177.6740  139.6180 C   0  0  0  0  0  2  0  0  0  0  0  0
  192.5540  176.5240  137.7790 C   0  0  0  0  0  0  0  0  0  0  0  0
  193.6620  176.7520  137.2270 O   0  0  0  0  0  0  0  0  0  0  0  0
  190.9400  176.4900  139.4570 C   0  0  1  0  0  3  0  0  0  0  0  0
  190.4690  175.5780  138.3120 C   0  0  0  0  0  2  0  0  0  0  0  0
  191.4650  175.7270  137.1610 C   0  0  1  0  0  3  0  0  0  0  0  0
  192.2570  176.9700  139.0830 N   0  0  0  0  0  2  0  0  0  0  0  0
  190.7770  176.4340  135.9840 C   0  0  1  0  0  3  0  0  0  0  0  0
  191.0780  175.8510  134.7480 O   0  0  0  0  0  1  0  0  0  0  0  0
  188.7390  177.8730  135.5260 C   0  0  0  0  0  1  0  0  0  0  0  0
  189.2730  176.6090  136.1790 C   0  0  0  0  0  2  0  0  0  0  0  0
  186.1840  179.1820  142.0490 N   0  0  0  0  0  2  0  0  0  0  0  0
  183.2830  177.7330  140.4550 C   0  0  0  0  0  3  0  0  0  0  0  0
  183.9990  177.9500  141.5480 C   0  0  0  0  0  3  0  0  0  0  0  0
  185.1510  178.7460  141.1630 C   0  0  0  0  0  0  0  0  0  0  0  0
  183.9310  178.3850  139.2700 C   0  0  1  0  0  3  0  0  0  0  0  0
  185.1490  179.0080  139.8700 C   0  0  0  0  0  3  0  0  0  0  0  0
  184.3060  177.3710  138.2350 C   0  0  0  0  0  0  0  0  0  0  0  0
  183.3750  176.3410  137.9030 N   0  0  0  0  0  2  0  0  0  0  0  0
  185.4240  177.4320  137.6540 O   0  0  0  0  0  0  0  0  0  0  0  0
  184.3030  174.1290  137.5940 C   0  0  0  0  0  2  0  0  0  0  0  0
  183.6770  175.3240  136.9080 C   0  0  0  0  0  3  0  0  0  0  0  0
  182.8450  174.0900  137.1920 C   0  0  0  0  0  2  0  0  0  0  0  0
  1 17  1  6  0  0  0
  1  4  1  0  0  0  0
  2  5  1  0  0  0  0
  3  1  1  0  0  0  0
  3  7  1  0  0  0  0
  4  2  1  0  0  0  0
  6  5  1  0  0  0  0
  6 13  1  1  0  0  0
  7 28  1  6  0  0  0
  7  6  1  0  0  0  0
  8 15  1  0  0  0  0
  9  8  1  0  0  0  0
 10 14  1  1  0  0  0
 10 11  1  0  0  0  0
 11  8  1  0  0  0  0
 11 12  2  0  0  0  0
 13 10  1  0  0  0  0
 13  9  2  0  0  0  0
 16 15  1  0  0  0  0
 18 23  1  0  0  0  0
 19 18  2  0  0  0  0
 20 17  1  6  0  0  0
 21 20  1  0  0  0  0
 22 24  1  6  0  0  0
 22 18  1  0  0  0  0
 22 21  1  0  0  0  0
 23 20  1  0  0  0  0
 24 25  1  6  0  0  0
 24 27  1  0  0  0  0
 26 27  1  0  0  0  0
 29 30  2  0  0  0  0
 31 30  1  0  0  0  0
 31 28  1  0  0  0  0
 32 34  1  6  0  0  0
 32 33  1  0  0  0  0
 32 29  1  0  0  0  0
 33 31  2  0  0  0  0
 35 34  1  0  0  0  0
 36 34  2  0  0  0  0
 38 39  1  0  0  0  0
 38 37  1  0  0  0  0
 38 35  1  0  0  0  0
 39 37  1  0  0  0  0
M  END
>  <MODEL>
5

>  <REMARK>
 VINA RESULT:      -7.8      2.043      3.124
  Name = 
  10 active torsions:
  status: ('A' for Active; 'I' for Inactive)
    1  A    between atoms: N_1  and  O_6
    2  A    between atoms: C_2  and  C_24
    3  A    between atoms: C_5  and  C_23
    4  A    between atoms: C_7  and  N_33
    5  A    between atoms: C_12  and  C_27
    6  A    between atoms: C_12  and  C_37
    7  A    between atoms: C_13  and  C_24
    8  A    between atoms: C_19  and  N_32
    9  A    between atoms: C_28  and  C_36
   10  A    between atoms: C_30  and  N_32
                            x       y       z     vdW  Elec       q    Type
                         _______ _______ _______ _____ _____    ______ ____

>  <TORSDO>
F 10

$$$$
=
 OpenBabel11042411033D

 39 43  0  0  1  0  0  0  0  0999 V2000
  186.7450  178.3100  140.3870 C   0  0  1  0  0  3  0  0  0  0  0  0
  184.8970  177.9940  138.8000 N   0  0  0  0  0  2  0  0  0  0  0  0
  185.9850  179.2730  141.2900 C   0  0  0  0  0  2  0  0  0  0  0  0
  186.2770  178.4390  138.9390 C   0  0  0  0  0  2  0  0  0  0  0  0
  184.0500  179.1440  139.0880 C   0  0  0  0  0  2  0  0  0  0  0  0
  183.5460  179.1230  140.5360 C   0  0  2  0  0  3  0  0  0  0  0  0
  184.5950  178.7180  141.5850 C   0  0  2  0  0  3  0  0  0  0  0  0
  180.9110  176.5480  140.3250 N   0  0  0  0  0  0  0  0  0  0  0  0
  182.1560  177.1400  139.9950 C   0  0  0  0  0  3  0  0  0  0  0  0
  181.1070  178.6140  141.5180 C   0  0  1  0  0  3  0  0  0  0  0  0
  180.2600  177.4290  141.2200 C   0  0  0  0  0  0  0  0  0  0  0  0
  179.1130  177.2210  141.6940 O   0  0  0  0  0  0  0  0  0  0  0  0
  182.3080  178.2860  140.6590 C   0  0  0  0  0  0  0  0  0  0  0  0
  180.4170  179.8710  141.0140 C   0  0  0  0  0  1  0  0  0  0  0  0
  180.3200  175.5370  139.6430 O   0  0  0  0  0  0  0  0  0  0  0  0
  181.0000  175.4720  138.4250 C   0  0  0  0  0  1  0  0  0  0  0  0
  188.2310  178.6160  140.4820 C   0  0  0  0  0  2  0  0  0  0  0  0
  191.2840  177.2320  140.4180 C   0  0  0  0  0  0  0  0  0  0  0  0
  192.5260  177.3740  140.5680 O   0  0  0  0  0  0  0  0  0  0  0  0
  189.0140  177.3850  140.9140 C   0  0  1  0  0  3  0  0  0  0  0  0
  189.1890  176.4140  139.7340 C   0  0  0  0  0  2  0  0  0  0  0  0
  190.6640  176.4390  139.3280 C   0  0  1  0  0  3  0  0  0  0  0  0
  190.3490  177.7820  141.3200 N   0  0  0  0  0  2  0  0  0  0  0  0
  190.7960  177.0900  137.9430 C   0  0  1  0  0  3  0  0  0  0  0  0
  191.7660  176.4730  137.1430 O   0  0  0  0  0  1  0  0  0  0  0  0
  189.1370  178.6730  136.8590 C   0  0  0  0  0  1  0  0  0  0  0  0
  189.4630  177.2320  137.2110 C   0  0  0  0  0  2  0  0  0  0  0  0
  184.1610  179.1560  142.9040 N   0  0  0  0  0  0  0  0  0  0  0  0
  185.0330  178.2670  146.2960 C   0  0  0  0  0  3  0  0  0  0  0  0
  184.2620  178.9350  145.4500 C   0  0  0  0  0  3  0  0  0  0  0  0
  184.7190  178.6240  144.1070 C   0  0  0  0  0  0  0  0  0  0  0  0
  186.0550  177.4650  145.5470 C   0  0  1  0  0  3  0  0  0  0  0  0
  185.7440  177.7940  144.1230 C   0  0  0  0  0  2  0  0  0  0  0  0
  187.4440  177.8960  145.9010 C   0  0  0  0  0  0  0  0  0  0  0  0
  188.4990  177.6820  144.9620 N   0  0  0  0  0  2  0  0  0  0  0  0
  187.6800  178.4500  147.0100 O   0  0  0  0  0  0  0  0  0  0  0  0
  190.5200  177.0190  146.1130 C   0  0  0  0  0  2  0  0  0  0  0  0
  189.8700  178.0750  145.2440 C   0  0  0  0  0  3  0  0  0  0  0  0
  190.8120  177.0610  144.6290 C   0  0  0  0  0  2  0  0  0  0  0  0
  1 17  1  6  0  0  0
  1  3  1  0  0  0  0
  2  4  1  0  0  0  0
  2  5  1  0  0  0  0
  3  7  1  0  0  0  0
  4  1  1  0  0  0  0
  5  6  1  0  0  0  0
  6 13  1  6  0  0  0
  6  7  1  0  0  0  0
  7 28  1  1  0  0  0
  8 11  1  0  0  0  0
  9  8  1  0  0  0  0
  9 13  2  0  0  0  0
 10 14  1  6  0  0  0
 11 10  1  0  0  0  0
 11 12  2  0  0  0  0
 13 10  1  0  0  0  0
 15  8  1  0  0  0  0
 16 15  1  0  0  0  0
 18 19  2  0  0  0  0
 18 23  1  0  0  0  0
 20 17  1  6  0  0  0
 20 23  1  0  0  0  0
 21 20  1  0  0  0  0
 22 24  1  6  0  0  0
 22 21  1  0  0  0  0
 22 18  1  0  0  0  0
 24 25  1  6  0  0  0
 26 27  1  0  0  0  0
 27 24  1  0  0  0  0
 28 31  2  0  0  0  0
 30 29  2  0  0  0  0
 31 33  1  0  0  0  0
 31 30  1  0  0  0  0
 32 34  1  1  0  0  0
 32 29  1  0  0  0  0
 33 32  1  0  0  0  0
 34 36  2  0  0  0  0
 35 38  1  0  0  0  0
 35 34  1  0  0  0  0
 38 37  1  0  0  0  0
 39 38  1  0  0  0  0
 39 37  1  0  0  0  0
M  END
>  <MODEL>
6

>  <REMARK>
 VINA RESULT:      -7.8      1.991      6.610
  Name = 
  10 active torsions:
  status: ('A' for Active; 'I' for Inactive)
    1  A    between atoms: N_1  and  O_6
    2  A    between atoms: C_2  and  C_24
    3  A    between atoms: C_5  and  C_23
    4  A    between atoms: C_7  and  N_33
    5  A    between atoms: C_12  and  C_27
    6  A    between atoms: C_12  and  C_37
    7  A    between atoms: C_13  and  C_24
    8  A    between atoms: C_19  and  N_32
    9  A    between atoms: C_28  and  C_36
   10  A    between atoms: C_30  and  N_32
                            x       y       z     vdW  Elec       q    Type
                         _______ _______ _______ _____ _____    ______ ____

>  <TORSDO>
F 10

$$$$
=
 OpenBabel11042411033D

 39 43  0  0  1  0  0  0  0  0999 V2000
  184.8690  179.0840  141.9810 C   0  0  1  0  0  3  0  0  0  0  0  0
  182.5040  178.6480  141.4780 N   0  0  0  0  0  2  0  0  0  0  0  0
  185.3870  178.5830  140.6390 C   0  0  0  0  0  2  0  0  0  0  0  0
  183.6000  178.3370  142.3870 C   0  0  0  0  0  2  0  0  0  0  0  0
  182.5980  177.7130  140.3650 C   0  0  0  0  0  2  0  0  0  0  0  0
  183.3140  178.3400  139.1630 C   0  0  2  0  0  3  0  0  0  0  0  0
  184.5550  179.1800  139.5070 C   0  0  2  0  0  3  0  0  0  0  0  0
  181.0810  180.8590  137.6490 N   0  0  0  0  0  0  0  0  0  0  0  0
  181.9590  180.3530  138.6400 C   0  0  0  0  0  3  0  0  0  0  0  0
  181.7210  178.6360  137.0310 C   0  0  1  0  0  3  0  0  0  0  0  0
  180.9100  179.8340  136.6890 C   0  0  0  0  0  0  0  0  0  0  0  0
  180.1640  179.9410  135.6800 O   0  0  0  0  0  0  0  0  0  0  0  0
  182.3530  179.1210  138.3170 C   0  0  0  0  0  0  0  0  0  0  0  0
  180.7970  177.4590  137.3000 C   0  0  0  0  0  1  0  0  0  0  0  0
  180.2900  181.9510  137.7880 O   0  0  0  0  0  0  0  0  0  0  0  0
  181.1390  183.0430  137.5910 C   0  0  0  0  0  1  0  0  0  0  0  0
  185.9480  178.8820  143.0320 C   0  0  0  0  0  2  0  0  0  0  0  0
  186.0500  178.7840  146.3820 C   0  0  0  0  0  0  0  0  0  0  0  0
  186.0230  179.4140  147.4710 O   0  0  0  0  0  0  0  0  0  0  0  0
  185.4000  178.1380  144.2410 C   0  0  1  0  0  3  0  0  0  0  0  0
  186.4310  177.1230  144.7630 C   0  0  0  0  0  2  0  0  0  0  0  0
  186.9540  177.6410  146.1040 C   0  0  1  0  0  3  0  0  0  0  0  0
  185.1680  179.0790  145.3210 N   0  0  0  0  0  2  0  0  0  0  0  0
  188.4280  178.0470  145.9490 C   0  0  1  0  0  3  0  0  0  0  0  0
  189.1990  177.7320  147.0730 O   0  0  0  0  0  1  0  0  0  0  0  0
  190.5690  177.3560  144.7780 C   0  0  0  0  0  1  0  0  0  0  0  0
  189.0650  177.5330  144.6600 C   0  0  0  0  0  2  0  0  0  0  0  0
  185.3830  179.3380  138.3210 N   0  0  0  0  0  2  0  0  0  0  0  0
  186.4480  176.1990  136.8820 C   0  0  0  0  0  3  0  0  0  0  0  0
  185.4910  176.9530  137.4010 C   0  0  0  0  0  3  0  0  0  0  0  0
  186.0790  178.2410  137.7240 C   0  0  0  0  0  0  0  0  0  0  0  0
  187.7400  176.9590  136.8290 C   0  0  1  0  0  3  0  0  0  0  0  0
  187.3610  178.2800  137.4170 C   0  0  0  0  0  3  0  0  0  0  0  0
  188.7930  176.2910  137.6560 C   0  0  0  0  0  0  0  0  0  0  0  0
  189.3370  176.9830  138.7800 N   0  0  0  0  0  2  0  0  0  0  0  0
  189.1890  175.1270  137.3720 O   0  0  0  0  0  0  0  0  0  0  0  0
  191.1920  177.4970  140.2450 C   0  0  0  0  0  2  0  0  0  0  0  0
  190.3630  176.3920  139.6240 C   0  0  0  0  0  3  0  0  0  0  0  0
  190.1220  176.8050  141.0610 C   0  0  0  0  0  2  0  0  0  0  0  0
  1  4  1  0  0  0  0
  1 17  1  1  0  0  0
  2  4  1  0  0  0  0
  3  1  1  0  0  0  0
  5  2  1  0  0  0  0
  6 13  1  1  0  0  0
  6  7  1  0  0  0  0
  6  5  1  0  0  0  0
  7 28  1  6  0  0  0
  7  3  1  0  0  0  0
  8 15  1  0  0  0  0
  8  9  1  0  0  0  0
 10 14  1  1  0  0  0
 10 13  1  0  0  0  0
 11 10  1  0  0  0  0
 11  8  1  0  0  0  0
 12 11  2  0  0  0  0
 13  9  2  0  0  0  0
 16 15  1  0  0  0  0
 18 19  2  0  0  0  0
 20 17  1  6  0  0  0
 20 21  1  0  0  0  0
 20 23  1  0  0  0  0
 21 22  1  0  0  0  0
 22 24  1  6  0  0  0
 22 18  1  0  0  0  0
 23 18  1  0  0  0  0
 24 25  1  1  0  0  0
 27 26  1  0  0  0  0
 27 24  1  0  0  0  0
 29 30  2  0  0  0  0
 30 31  1  0  0  0  0
 31 28  1  0  0  0  0
 32 29  1  0  0  0  0
 32 33  1  0  0  0  0
 32 34  1  1  0  0  0
 33 31  2  0  0  0  0
 34 35  1  0  0  0  0
 35 38  1  0  0  0  0
 36 34  2  0  0  0  0
 37 39  1  0  0  0  0
 38 37  1  0  0  0  0
 38 39  1  0  0  0  0
M  END
>  <MODEL>
7

>  <REMARK>
 VINA RESULT:      -7.7      2.295      8.894
  Name = 
  10 active torsions:
  status: ('A' for Active; 'I' for Inactive)
    1  A    between atoms: N_1  and  O_6
    2  A    between atoms: C_2  and  C_24
    3  A    between atoms: C_5  and  C_23
    4  A    between atoms: C_7  and  N_33
    5  A    between atoms: C_12  and  C_27
    6  A    between atoms: C_12  and  C_37
    7  A    between atoms: C_13  and  C_24
    8  A    between atoms: C_19  and  N_32
    9  A    between atoms: C_28  and  C_36
   10  A    between atoms: C_30  and  N_32
                            x       y       z     vdW  Elec       q    Type
                         _______ _______ _______ _____ _____    ______ ____

>  <TORSDO>
F 10

$$$$
=
 OpenBabel11042411033D

 39 43  0  0  1  0  0  0  0  0999 V2000
  189.2620  178.0070  140.5290 C   0  0  1  0  0  3  0  0  0  0  0  0
  190.1770  176.6660  142.3720 N   0  0  0  0  0  2  0  0  0  0  0  0
  187.8050  177.8090  140.9280 C   0  0  0  0  0  2  0  0  0  0  0  0
  190.1030  176.7950  140.9230 C   0  0  0  0  0  2  0  0  0  0  0  0
  189.0160  175.8910  142.7890 C   0  0  0  0  0  2  0  0  0  0  0  0
  187.8790  176.7980  143.2750 C   0  0  2  0  0  3  0  0  0  0  0  0
  187.6390  178.0560  142.4240 C   0  0  2  0  0  3  0  0  0  0  0  0
  187.4890  177.7530  146.8180 N   0  0  0  0  0  0  0  0  0  0  0  0
  187.0360  177.5110  145.4970 C   0  0  0  0  0  3  0  0  0  0  0  0
  189.3720  177.1470  145.4700 C   0  0  1  0  0  3  0  0  0  0  0  0
  188.8900  177.5610  146.8140 C   0  0  0  0  0  0  0  0  0  0  0  0
  189.6200  177.7220  147.8280 O   0  0  0  0  0  0  0  0  0  0  0  0
  188.0570  177.1510  144.7210 C   0  0  0  0  0  0  0  0  0  0  0  0
  190.3050  178.2110  144.9160 C   0  0  0  0  0  1  0  0  0  0  0  0
  186.7820  178.3890  147.7840 O   0  0  0  0  0  0  0  0  0  0  0  0
  185.5600  178.7120  147.1890 C   0  0  0  0  0  1  0  0  0  0  0  0
  189.3360  178.2240  139.0260 C   0  0  0  0  0  2  0  0  0  0  0  0
  189.6870  176.8860  135.9730 C   0  0  0  0  0  0  0  0  0  0  0  0
  190.1800  176.9730  134.8170 O   0  0  0  0  0  0  0  0  0  0  0  0
  189.6140  176.9160  138.3000 C   0  0  1  0  0  3  0  0  0  0  0  0
  188.3060  176.2970  137.7800 C   0  0  0  0  0  2  0  0  0  0  0  0
  188.3080  176.4200  136.2560 C   0  0  1  0  0  3  0  0  0  0  0  0
  190.4350  177.1800  137.1320 N   0  0  0  0  0  2  0  0  0  0  0  0
  187.2220  177.4180  135.8270 C   0  0  1  0  0  3  0  0  0  0  0  0
  186.6030  177.0630  134.6230 O   0  0  0  0  0  1  0  0  0  0  0  0
  184.9680  176.8310  136.8330 C   0  0  0  0  0  1  0  0  0  0  0  0
  186.2020  177.7120  136.9260 C   0  0  0  0  0  2  0  0  0  0  0  0
  186.3070  178.5790  142.6900 N   0  0  0  0  0  2  0  0  0  0  0  0
  184.1520  178.9050  139.8080 C   0  0  0  0  0  3  0  0  0  0  0  0
  185.3080  179.1530  140.4060 C   0  0  0  0  0  3  0  0  0  0  0  0
  185.2600  178.5320  141.7190 C   0  0  0  0  0  0  0  0  0  0  0  0
  183.2650  178.0940  140.7050 C   0  0  1  0  0  3  0  0  0  0  0  0
  184.1080  177.9250  141.9260 C   0  0  0  0  0  3  0  0  0  0  0  0
  182.0030  178.8330  141.0270 C   0  0  0  0  0  0  0  0  0  0  0  0
  181.5840  178.9320  142.3880 N   0  0  0  0  0  2  0  0  0  0  0  0
  181.3240  179.3720  140.1100 O   0  0  0  0  0  0  0  0  0  0  0  0
  179.1970  178.6780  142.6840 C   0  0  0  0  0  2  0  0  0  0  0  0
  180.3700  179.6330  142.7700 C   0  0  0  0  0  3  0  0  0  0  0  0
  179.8090  179.0050  144.0290 C   0  0  0  0  0  2  0  0  0  0  0  0
  1 17  1  6  0  0  0
  1  4  1  0  0  0  0
  1  3  1  0  0  0  0
  2  5  1  0  0  0  0
  3  7  1  0  0  0  0
  4  2  1  0  0  0  0
  5  6  1  0  0  0  0
  6 13  1  1  0  0  0
  7 28  1  6  0  0  0
  7  6  1  0  0  0  0
  8 15  1  0  0  0  0
  9  8  1  0  0  0  0
 10 14  1  6  0  0  0
 10 11  1  0  0  0  0
 11  8  1  0  0  0  0
 11 12  2  0  0  0  0
 13 10  1  0  0  0  0
 13  9  2  0  0  0  0
 16 15  1  0  0  0  0
 18 22  1  0  0  0  0
 18 23  1  0  0  0  0
 19 18  2  0  0  0  0
 20 17  1  6  0  0  0
 21 20  1  0  0  0  0
 22 24  1  1  0  0  0
 22 21  1  0  0  0  0
 23 20  1  0  0  0  0
 24 25  1  6  0  0  0
 24 27  1  0  0  0  0
 26 27  1  0  0  0  0
 29 30  2  0  0  0  0
 29 32  1  0  0  0  0
 30 31  1  0  0  0  0
 31 33  2  0  0  0  0
 31 28  1  0  0  0  0
 32 34  1  1  0  0  0
 32 33  1  0  0  0  0
 34 35  1  0  0  0  0
 35 38  1  0  0  0  0
 36 34  2  0  0  0  0
 37 38  1  0  0  0  0
 37 39  1  0  0  0  0
 38 39  1  0  0  0  0
M  END
>  <MODEL>
8

>  <REMARK>
 VINA RESULT:      -7.7      1.023      1.791
  Name = 
  10 active torsions:
  status: ('A' for Active; 'I' for Inactive)
    1  A    between atoms: N_1  and  O_6
    2  A    between atoms: C_2  and  C_24
    3  A    between atoms: C_5  and  C_23
    4  A    between atoms: C_7  and  N_33
    5  A    between atoms: C_12  and  C_27
    6  A    between atoms: C_12  and  C_37
    7  A    between atoms: C_13  and  C_24
    8  A    between atoms: C_19  and  N_32
    9  A    between atoms: C_28  and  C_36
   10  A    between atoms: C_30  and  N_32
                            x       y       z     vdW  Elec       q    Type
                         _______ _______ _______ _____ _____    ______ ____

>  <TORSDO>
F 10

$$$$
=
 OpenBabel11042411033D

 39 43  0  0  1  0  0  0  0  0999 V2000
  186.1150  178.1750  139.5590 C   0  0  1  0  0  3  0  0  0  0  0  0
  183.9310  178.4050  138.4610 N   0  0  0  0  0  2  0  0  0  0  0  0
  185.7600  179.0520  140.7530 C   0  0  0  0  0  2  0  0  0  0  0  0
  185.3620  178.6260  138.3090 C   0  0  0  0  0  2  0  0  0  0  0  0
  183.3850  179.5870  139.1140 C   0  0  0  0  0  2  0  0  0  0  0  0
  183.2270  179.3730  140.6240 C   0  0  2  0  0  3  0  0  0  0  0  0
  184.3970  178.6460  141.3070 C   0  0  2  0  0  3  0  0  0  0  0  0
  180.0030  178.2560  142.0300 N   0  0  0  0  0  0  0  0  0  0  0  0
  181.1980  179.0180  142.0080 C   0  0  0  0  0  3  0  0  0  0  0  0
  181.2710  177.6200  140.1020 C   0  0  1  0  0  3  0  0  0  0  0  0
  180.0410  177.3970  140.9070 C   0  0  0  0  0  0  0  0  0  0  0  0
  179.1410  176.5580  140.6380 O   0  0  0  0  0  0  0  0  0  0  0  0
  181.9210  178.7030  140.9340 C   0  0  0  0  0  0  0  0  0  0  0  0
  182.1190  176.3580  140.1110 C   0  0  0  0  0  1  0  0  0  0  0  0
  179.1800  178.1210  143.0990 O   0  0  0  0  0  0  0  0  0  0  0  0
  180.0030  178.2850  144.2160 C   0  0  0  0  0  1  0  0  0  0  0  0
  187.6140  178.2540  139.3190 C   0  0  0  0  0  2  0  0  0  0  0  0
  188.5700  175.7930  137.2530 C   0  0  0  0  0  0  0  0  0  0  0  0
  188.4320  174.6000  136.8750 O   0  0  0  0  0  0  0  0  0  0  0  0
  187.9500  177.9520  137.8660 C   0  0  1  0  0  3  0  0  0  0  0  0
  189.4740  177.9240  137.6590 C   0  0  0  0  0  2  0  0  0  0  0  0
  189.8800  176.4720  137.4020 C   0  0  1  0  0  3  0  0  0  0  0  0
  187.4650  176.6280  137.5250 N   0  0  0  0  0  2  0  0  0  0  0  0
  190.7060  175.9590  138.5910 C   0  0  1  0  0  3  0  0  0  0  0  0
  191.5740  174.9180  138.2420 O   0  0  0  0  0  1  0  0  0  0  0  0
  191.0360  177.1310  140.8170 C   0  0  0  0  0  1  0  0  0  0  0  0
  191.4280  177.0710  139.3500 C   0  0  0  0  0  2  0  0  0  0  0  0
  184.3560  178.8940  142.7400 N   0  0  0  0  0  0  0  0  0  0  0  0
  186.4070  177.9120  145.5490 C   0  0  0  0  0  3  0  0  0  0  0  0
  185.3870  178.6040  145.0640 C   0  0  0  0  0  3  0  0  0  0  0  0
  185.3120  178.3280  143.6390 C   0  0  0  0  0  0  0  0  0  0  0  0
  187.0710  177.1270  144.4570 C   0  0  1  0  0  3  0  0  0  0  0  0
  186.2600  177.4950  143.2570 C   0  0  0  0  0  2  0  0  0  0  0  0
  188.4980  177.5450  144.2840 C   0  0  0  0  0  0  0  0  0  0  0  0
  189.4650  177.1290  145.2490 N   0  0  0  0  0  2  0  0  0  0  0  0
  188.8450  178.2450  143.2930 O   0  0  0  0  0  0  0  0  0  0  0  0
  191.6640  176.7320  146.1740 C   0  0  0  0  0  2  0  0  0  0  0  0
  190.8660  177.5000  145.1410 C   0  0  0  0  0  3  0  0  0  0  0  0
  191.6710  176.2850  144.7290 C   0  0  0  0  0  2  0  0  0  0  0  0
  1 17  1  6  0  0  0
  1  3  1  0  0  0  0
  2  5  1  0  0  0  0
  3  7  1  0  0  0  0
  4  2  1  0  0  0  0
  4  1  1  0  0  0  0
  5  6  1  0  0  0  0
  6 13  1  6  0  0  0
  6  7  1  0  0  0  0
  7 28  1  1  0  0  0
  8 15  1  0  0  0  0
  9  8  1  0  0  0  0
 10 14  1  1  0  0  0
 10 11  1  0  0  0  0
 10 13  1  0  0  0  0
 11  8  1  0  0  0  0
 12 11  2  0  0  0  0
 13  9  2  0  0  0  0
 15 16  1  0  0  0  0
 18 22  1  0  0  0  0
 18 23  1  0  0  0  0
 19 18  2  0  0  0  0
 20 17  1  1  0  0  0
 21 20  1  0  0  0  0
 22 21  1  0  0  0  0
 22 24  1  1  0  0  0
 23 20  1  0  0  0  0
 24 25  1  6  0  0  0
 24 27  1  0  0  0  0
 27 26  1  0  0  0  0
 28 31  2  0  0  0  0
 30 29  2  0  0  0  0
 31 30  1  0  0  0  0
 32 34  1  6  0  0  0
 32 29  1  0  0  0  0
 33 31  1  0  0  0  0
 33 32  1  0  0  0  0
 34 35  1  0  0  0  0
 36 34  2  0  0  0  0
 38 35  1  0  0  0  0
 38 37  1  0  0  0  0
 39 38  1  0  0  0  0
 39 37  1  0  0  0  0
M  END
>  <MODEL>
9

>  <REMARK>
 VINA RESULT:      -7.4      2.185      6.715
  Name = 
  10 active torsions:
  status: ('A' for Active; 'I' for Inactive)
    1  A    between atoms: N_1  and  O_6
    2  A    between atoms: C_2  and  C_24
    3  A    between atoms: C_5  and  C_23
    4  A    between atoms: C_7  and  N_33
    5  A    between atoms: C_12  and  C_27
    6  A    between atoms: C_12  and  C_37
    7  A    between atoms: C_13  and  C_24
    8  A    between atoms: C_19  and  N_32
    9  A    between atoms: C_28  and  C_36
   10  A    between atoms: C_30  and  N_32
                            x       y       z     vdW  Elec       q    Type
                         _______ _______ _______ _____ _____    ______ ____

>  <TORSDO>
F 10

$$$$
