=
 OpenBabel11042413183D

 61 67  0  0  1  0  0  0  0  0999 V2000
  190.2300  176.2630  142.3430 C   0  0  0  0  0  0  0  0  0  0  0  0
  189.3220  176.5600  139.9120 C   0  0  0  0  0  3  0  0  0  0  0  0
  190.1930  174.9660  142.9290 N   0  0  0  0  0  1  0  0  0  0  0  0
  189.7940  176.4240  141.1230 C   0  0  0  0  0  0  0  0  0  0  0  0
  190.1540  176.4270  138.6980 C   0  0  0  0  0  0  0  0  0  0  0  0
  191.7110  176.1440  136.3670 C   0  0  0  0  0  0  0  0  0  0  0  0
  191.8300  175.2160  137.4090 C   0  0  0  0  0  3  0  0  0  0  0  0
  191.0540  175.3560  138.5630 C   0  0  0  0  0  3  0  0  0  0  0  0
  190.8100  177.2070  136.4900 C   0  0  0  0  0  3  0  0  0  0  0  0
  190.0290  177.3630  137.6480 C   0  0  0  0  0  0  0  0  0  0  0  0
  189.0630  178.4800  137.7540 C   0  0  0  0  0  3  0  0  0  0  0  0
  186.8470  178.5890  136.3740 C   0  0  0  0  0  3  0  0  0  0  0  0
  187.9650  178.5400  137.0470 C   0  0  0  0  0  0  0  0  0  0  0  0
  187.1940  176.1840  135.8520 C   0  0  0  0  0  2  0  0  0  0  0  0
  186.3510  177.4170  135.5900 C   0  0  1  0  0  3  0  0  0  0  0  0
  185.8730  176.3560  136.5780 C   0  0  1  0  0  3  0  0  0  0  0  0
  184.8480  175.5070  135.9620 N   0  0  2  0  0  0  0  0  0  0  0  0
  182.4040  175.2380  135.9530 C   0  0  0  0  0  0  0  0  0  0  0  0
  183.5660  176.0690  136.4090 C   0  0  0  0  0  2  0  0  0  0  0  0
  182.9010  170.9860  136.4000 C   0  0  0  0  0  3  0  0  0  0  0  0
  181.4430  172.9100  135.6050 C   0  0  0  0  0  2  0  0  0  0  0  0
  183.9790  171.7860  136.3290 C   0  0  0  0  0  3  0  0  0  0  0  0
  182.4880  173.7800  136.2980 C   0  0  1  0  0  3  0  0  0  0  0  0
  184.9930  174.1240  136.4740 C   0  0  1  0  0  3  0  0  0  0  0  0
  181.2150  175.8380  135.8850 C   0  0  0  0  0  2  0  0  0  0  0  0
  181.4900  171.4970  136.1880 C   0  0  0  0  0  2  0  0  0  0  0  0
  183.8630  173.2360  135.9190 C   0  0  1  0  0  3  0  0  0  0  0  0
  186.3350  173.5230  136.0540 C   0  0  0  0  0  2  0  0  0  0  0  0
  186.9840  172.9150  137.2120 N   0  0  0  0  0  2  0  0  0  0  0  0
  188.1540  172.1250  136.8030 C   0  0  0  0  0  3  0  0  0  0  0  0
  189.2430  172.9960  136.2080 C   0  0  0  0  0  1  0  0  0  0  0  0
  187.7820  170.9960  135.8650 C   0  0  0  0  0  1  0  0  0  0  0  0
  193.7930  176.4300  135.1670 N   0  0  0  0  0  1  0  0  0  0  0  0
  192.4760  176.0310  135.2040 O   0  0  0  0  0  0  0  0  0  0  0  0
  190.4420  177.4340  143.1980 C   0  0  0  0  0  0  0  0  0  0  0  0
  191.5680  178.0060  143.1680 O   0  0  0  0  0  0  0  0  0  0  0  0
  188.8600  177.5230  146.4070 C   0  0  0  0  0  3  0  0  0  0  0  0
  189.3550  177.9830  144.0380 C   0  0  0  0  0  0  0  0  0  0  0  0
  187.5260  177.5160  146.4510 C   0  0  0  0  0  3  0  0  0  0  0  0
  186.6290  178.2740  145.5440 C   0  0  0  0  0  0  0  0  0  0  0  0
  189.6310  178.3730  145.4570 C   0  0  0  0  0  2  0  0  0  0  0  0
  186.9110  178.5170  144.2530 C   0  0  0  0  0  3  0  0  0  0  0  0
  188.1300  178.1250  143.5170 C   0  0  0  0  0  3  0  0  0  0  0  0
  184.9440  178.3270  147.2120 O   0  0  0  0  0  0  0  0  0  0  0  0
  185.2890  178.6370  146.0400 C   0  0  0  0  0  0  0  0  0  0  0  0
  184.3910  179.3030  145.1970 O   0  0  0  0  0  0  0  0  0  0  0  0
  183.1000  178.7890  144.8900 C   0  0  0  0  0  2  0  0  0  0  0  0
  181.3890  178.4110  143.0810 C   0  0  2  0  0  3  0  0  0  0  0  0
  182.7000  179.1210  143.4540 C   0  0  2  0  0  3  0  0  0  0  0  0
  184.6040  178.5490  140.1790 C   0  0  0  0  0  1  0  0  0  0  0  0
  180.4860  179.9790  141.2220 C   0  0  0  0  0  2  0  0  0  0  0  0
  181.6820  178.9710  139.3330 C   0  0  2  0  0  3  0  0  0  0  0  0
  183.4620  178.9890  141.0740 C   0  0  1  0  0  3  0  0  0  0  0  0
  181.0020  178.6000  141.5970 C   0  0  1  0  0  3  0  0  0  0  0  0
  180.9830  178.0360  138.5700 O   0  0  0  0  0  1  0  0  0  0  0  0
  182.1470  178.3210  140.6280 C   0  0  1  0  0  3  0  0  0  0  0  0
  183.8050  178.6490  142.5180 C   0  0  0  0  0  2  0  0  0  0  0  0
  180.7380  180.1060  139.7280 C   0  0  0  0  0  2  0  0  0  0  0  0
  179.2060  179.6480  143.5750 C   0  0  0  0  0  1  0  0  0  0  0  0
  180.2370  178.6510  144.0750 C   0  0  1  0  0  3  0  0  0  0  0  0
  179.6170  177.4450  144.4090 O   0  0  0  0  0  1  0  0  0  0  0  0
  1  3  1  0  0  0  0
  1 35  1  0  0  0  0
  2  4  2  0  0  0  0
  4  1  2  0  0  0  0
  5  2  1  0  0  0  0
  6  9  2  0  0  0  0
  6  7  1  0  0  0  0
  7  8  2  0  0  0  0
  8  5  1  0  0  0  0
  9 10  1  0  0  0  0
 10 11  1  0  0  0  0
 10  5  2  0  0  0  0
 12 13  2  0  0  0  0
 13 11  2  0  0  0  0
 15 14  1  0  0  0  0
 15 12  1  1  0  0  0
 15 16  1  0  0  0  0
 16 14  1  6  0  0  0
 17 19  1  1  0  0  0
 17 24  1  0  0  0  0
 17 16  1  0  0  0  0
 18 23  1  0  0  0  0
 18 19  1  0  0  0  0
 21 26  1  0  0  0  0
 22 20  2  0  0  0  0
 23 21  1  6  0  0  0
 24 28  1  6  0  0  0
 25 18  2  0  0  0  0
 26 20  1  0  0  0  0
 27 23  1  0  0  0  0
 27 22  1  1  0  0  0
 27 24  1  0  0  0  0
 28 29  1  0  0  0  0
 30 29  1  0  0  0  0
 31 30  1  0  0  0  0
 32 30  1  0  0  0  0
 33 34  1  0  0  0  0
 34  6  1  0  0  0  0
 35 38  1  0  0  0  0
 36 35  2  0  0  0  0
 37 39  2  0  0  0  0
 38 41  1  0  0  0  0
 40 45  1  0  0  0  0
 40 39  1  0  0  0  0
 41 37  1  0  0  0  0
 42 40  2  0  0  0  0
 43 38  2  0  0  0  0
 43 42  1  0  0  0  0
 45 44  2  0  0  0  0
 46 45  1  0  0  0  0
 47 46  1  0  0  0  0
 48 49  1  0  0  0  0
 48 60  1  1  0  0  0
 49 47  1  1  0  0  0
 52 55  1  6  0  0  0
 52 58  1  0  0  0  0
 52 56  1  0  0  0  0
 53 50  1  6  0  0  0
 53 57  1  0  0  0  0
 54 51  1  1  0  0  0
 54 48  1  0  0  0  0
 56 53  1  0  0  0  0
 56 54  1  0  0  0  0
 57 49  1  0  0  0  0
 58 51  1  0  0  0  0
 59 60  1  0  0  0  0
 60 61  1  0  0  0  0
M  END
>  <MODEL>
1

>  <REMARK>
 VINA RESULT:      -8.3      0.000      0.000
  Name = 
  15 active torsions:
  status: ('A' for Active; 'I' for Inactive)
    1  A    between atoms: N_1  and  C_28
    2  A    between atoms: C_2  and  C_47
    3  A    between atoms: C_3  and  C_59
    4  A    between atoms: C_4  and  C_54
    5  A    between atoms: C_9  and  C_49
    6  A    between atoms: C_10  and  C_16
    7  A    between atoms: C_15  and  C_49
    8  A    between atoms: C_20  and  N_23
    9  A    between atoms: C_21  and  C_24
   10  A    between atoms: N_23  and  C_27
   11  A    between atoms: C_24  and  O_42
   12  A    between atoms: C_25  and  C_31
   13  A    between atoms: C_26  and  O_33
   14  A    between atoms: C_27  and  C_39
   15  A    between atoms: O_42  and  C_59
                            x       y       z     vdW  Elec       q    Type
                         _______ _______ _______ _____ _____    ______ ____

>  <TORSDO>
F 15

$$$$
=
 OpenBabel11042413183D

 61 67  0  0  1  0  0  0  0  0999 V2000
  185.6860  178.5010  145.7800 C   0  0  0  0  0  0  0  0  0  0  0  0
  184.2460  179.6070  143.9030 C   0  0  0  0  0  3  0  0  0  0  0  0
  185.5030  178.9350  147.1230 N   0  0  0  0  0  1  0  0  0  0  0  0
  184.9620  179.0330  144.8340 C   0  0  0  0  0  0  0  0  0  0  0  0
  182.9300  179.0970  143.4640 C   0  0  0  0  0  0  0  0  0  0  0  0
  180.4080  178.1670  142.6180 C   0  0  0  0  0  0  0  0  0  0  0  0
  180.5850  178.6260  143.9290 C   0  0  0  0  0  3  0  0  0  0  0  0
  181.8360  179.0910  144.3460 C   0  0  0  0  0  3  0  0  0  0  0  0
  181.4900  178.1800  141.7320 C   0  0  0  0  0  3  0  0  0  0  0  0
  182.7550  178.6370  142.1400 C   0  0  0  0  0  0  0  0  0  0  0  0
  183.8840  178.6660  141.1830 C   0  0  0  0  0  3  0  0  0  0  0  0
  183.7320  177.6980  138.7610 C   0  0  0  0  0  3  0  0  0  0  0  0
  183.8100  178.1630  139.9790 C   0  0  0  0  0  0  0  0  0  0  0  0
  182.2230  177.9120  136.7980 C   0  0  0  0  0  2  0  0  0  0  0  0
  182.4280  177.2820  138.1620 C   0  0  1  0  0  3  0  0  0  0  0  0
  182.7220  176.4830  136.8950 C   0  0  1  0  0  3  0  0  0  0  0  0
  181.6290  175.5490  136.6120 N   0  0  2  0  0  0  0  0  0  0  0  0
  179.8840  174.2980  137.8120 C   0  0  0  0  0  0  0  0  0  0  0  0
  180.9680  175.3290  137.9070 C   0  0  0  0  0  2  0  0  0  0  0  0
  180.8920  170.7790  135.5490 C   0  0  0  0  0  3  0  0  0  0  0  0
  179.1390  172.0550  136.8740 C   0  0  0  0  0  2  0  0  0  0  0  0
  181.5550  171.9280  135.3360 C   0  0  0  0  0  3  0  0  0  0  0  0
  180.2990  172.9900  137.2070 C   0  0  1  0  0  3  0  0  0  0  0  0
  182.1970  174.2710  136.1200 C   0  0  1  0  0  3  0  0  0  0  0  0
  178.9320  174.3260  138.7450 C   0  0  0  0  0  2  0  0  0  0  0  0
  179.6890  170.6870  136.4650 C   0  0  0  0  0  2  0  0  0  0  0  0
  181.0730  173.2390  135.9130 C   0  0  1  0  0  3  0  0  0  0  0  0
  182.9230  174.4740  134.7890 C   0  0  0  0  0  2  0  0  0  0  0  0
  184.2280  173.8210  134.8380 N   0  0  0  0  0  2  0  0  0  0  0  0
  184.6690  173.6330  136.2270 C   0  0  0  0  0  3  0  0  0  0  0  0
  185.6510  174.7030  136.6580 C   0  0  0  0  0  1  0  0  0  0  0  0
  185.2300  172.2460  136.4650 C   0  0  0  0  0  1  0  0  0  0  0  0
  179.0750  176.7430  141.1860 N   0  0  0  0  0  1  0  0  0  0  0  0
  179.1710  177.6950  142.1760 O   0  0  0  0  0  0  0  0  0  0  0  0
  186.8780  177.7210  145.4310 C   0  0  0  0  0  0  0  0  0  0  0  0
  187.5840  177.2500  146.3660 O   0  0  0  0  0  0  0  0  0  0  0  0
  189.0880  176.0840  143.1420 C   0  0  0  0  0  3  0  0  0  0  0  0
  187.2250  177.4340  144.0230 C   0  0  0  0  0  0  0  0  0  0  0  0
  189.4630  176.7470  142.0460 C   0  0  0  0  0  3  0  0  0  0  0  0
  188.5810  177.5970  141.2090 C   0  0  0  0  0  0  0  0  0  0  0  0
  187.6810  176.0620  143.6300 C   0  0  0  0  0  2  0  0  0  0  0  0
  187.5690  178.3290  141.7020 C   0  0  0  0  0  3  0  0  0  0  0  0
  187.1270  178.4070  143.1090 C   0  0  0  0  0  3  0  0  0  0  0  0
  188.6630  178.8560  139.2000 O   0  0  0  0  0  0  0  0  0  0  0  0
  188.9350  177.7750  139.7880 C   0  0  0  0  0  0  0  0  0  0  0  0
  189.5520  176.7310  139.0880 O   0  0  0  0  0  0  0  0  0  0  0  0
  189.3280  176.4980  137.7020 C   0  0  0  0  0  2  0  0  0  0  0  0
  190.2590  174.3230  136.8400 C   0  0  2  0  0  3  0  0  0  0  0  0
  190.5320  175.8200  137.0540 C   0  0  2  0  0  3  0  0  0  0  0  0
  194.1570  175.5670  138.2660 C   0  0  0  0  0  1  0  0  0  0  0  0
  191.8450  173.8060  134.8540 C   0  0  0  0  0  2  0  0  0  0  0  0
  193.8700  173.3490  136.1600 C   0  0  2  0  0  3  0  0  0  0  0  0
  192.9710  175.3450  137.3480 C   0  0  1  0  0  3  0  0  0  0  0  0
  191.4900  173.5550  136.3100 C   0  0  1  0  0  3  0  0  0  0  0  0
  194.1520  172.0120  136.4410 O   0  0  0  0  0  1  0  0  0  0  0  0
  192.7700  173.8390  137.0910 C   0  0  1  0  0  3  0  0  0  0  0  0
  191.7360  175.9800  137.9720 C   0  0  0  0  0  2  0  0  0  0  0  0
  193.3220  173.4610  134.7390 C   0  0  0  0  0  2  0  0  0  0  0  0
  188.8970  174.6260  134.6970 C   0  0  0  0  0  1  0  0  0  0  0  0
  188.9490  174.0220  136.0890 C   0  0  1  0  0  3  0  0  0  0  0  0
  188.7260  172.6440  136.0230 O   0  0  0  0  0  1  0  0  0  0  0  0
  1  3  1  0  0  0  0
  2  4  2  0  0  0  0
  4  1  2  0  0  0  0
  5  2  1  0  0  0  0
  5  8  1  0  0  0  0
  6  7  1  0  0  0  0
  7  8  2  0  0  0  0
  9 10  1  0  0  0  0
  9  6  2  0  0  0  0
 10  5  2  0  0  0  0
 11 10  1  0  0  0  0
 12 13  2  0  0  0  0
 13 11  2  0  0  0  0
 14 15  1  0  0  0  0
 15 12  1  1  0  0  0
 16 14  1  6  0  0  0
 16 15  1  0  0  0  0
 17 16  1  0  0  0  0
 17 19  1  1  0  0  0
 18 19  1  0  0  0  0
 18 25  2  0  0  0  0
 20 26  1  0  0  0  0
 22 20  2  0  0  0  0
 23 21  1  6  0  0  0
 23 18  1  0  0  0  0
 24 28  1  6  0  0  0
 24 17  1  0  0  0  0
 26 21  1  0  0  0  0
 27 22  1  1  0  0  0
 27 24  1  0  0  0  0
 27 23  1  0  0  0  0
 28 29  1  0  0  0  0
 29 30  1  0  0  0  0
 30 32  1  0  0  0  0
 30 31  1  0  0  0  0
 33 34  1  0  0  0  0
 34  6  1  0  0  0  0
 35  1  1  0  0  0  0
 35 36  2  0  0  0  0
 37 41  1  0  0  0  0
 38 35  1  0  0  0  0
 39 37  2  0  0  0  0
 40 42  2  0  0  0  0
 40 39  1  0  0  0  0
 41 38  1  0  0  0  0
 42 43  1  0  0  0  0
 43 38  2  0  0  0  0
 44 45  2  0  0  0  0
 45 40  1  0  0  0  0
 46 45  1  0  0  0  0
 47 46  1  0  0  0  0
 48 60  1  6  0  0  0
 48 49  1  0  0  0  0
 49 47  1  1  0  0  0
 49 57  1  0  0  0  0
 52 55  1  1  0  0  0
 52 56  1  0  0  0  0
 53 57  1  0  0  0  0
 53 50  1  1  0  0  0
 54 51  1  6  0  0  0
 54 48  1  0  0  0  0
 54 56  1  0  0  0  0
 56 53  1  0  0  0  0
 58 51  1  0  0  0  0
 58 52  1  0  0  0  0
 59 60  1  0  0  0  0
 61 60  1  0  0  0  0
M  END
>  <MODEL>
2

>  <REMARK>
 VINA RESULT:      -8.2      2.555      8.490
  Name = 
  15 active torsions:
  status: ('A' for Active; 'I' for Inactive)
    1  A    between atoms: N_1  and  C_28
    2  A    between atoms: C_2  and  C_47
    3  A    between atoms: C_3  and  C_59
    4  A    between atoms: C_4  and  C_54
    5  A    between atoms: C_9  and  C_49
    6  A    between atoms: C_10  and  C_16
    7  A    between atoms: C_15  and  C_49
    8  A    between atoms: C_20  and  N_23
    9  A    between atoms: C_21  and  C_24
   10  A    between atoms: N_23  and  C_27
   11  A    between atoms: C_24  and  O_42
   12  A    between atoms: C_25  and  C_31
   13  A    between atoms: C_26  and  O_33
   14  A    between atoms: C_27  and  C_39
   15  A    between atoms: O_42  and  C_59
                            x       y       z     vdW  Elec       q    Type
                         _______ _______ _______ _____ _____    ______ ____

>  <TORSDO>
F 15

$$$$
=
 OpenBabel11042413183D

 61 67  0  0  1  0  0  0  0  0999 V2000
  188.0540  177.1470  142.8240 C   0  0  0  0  0  0  0  0  0  0  0  0
  186.4610  178.5700  144.3270 C   0  0  0  0  0  3  0  0  0  0  0  0
  188.2790  175.7850  143.1700 N   0  0  0  0  0  1  0  0  0  0  0  0
  187.2480  177.8660  143.5570 C   0  0  0  0  0  0  0  0  0  0  0  0
  185.0050  178.6920  144.1050 C   0  0  0  0  0  0  0  0  0  0  0  0
  182.2320  178.9670  143.6910 C   0  0  0  0  0  0  0  0  0  0  0  0
  182.7340  178.7760  144.9840 C   0  0  0  0  0  3  0  0  0  0  0  0
  184.1110  178.6440  145.1880 C   0  0  0  0  0  3  0  0  0  0  0  0
  183.1170  179.0250  142.6100 C   0  0  0  0  0  3  0  0  0  0  0  0
  184.5020  178.8860  142.7990 C   0  0  0  0  0  0  0  0  0  0  0  0
  185.4280  178.9740  141.6470 C   0  0  0  0  0  3  0  0  0  0  0  0
  184.7490  178.3070  139.2130 C   0  0  0  0  0  3  0  0  0  0  0  0
  185.0900  178.6210  140.4350 C   0  0  0  0  0  0  0  0  0  0  0  0
  182.9550  178.7090  137.5410 C   0  0  0  0  0  2  0  0  0  0  0  0
  183.3290  178.0260  138.8430 C   0  0  1  0  0  3  0  0  0  0  0  0
  183.3270  177.2380  137.5360 C   0  0  1  0  0  3  0  0  0  0  0  0
  182.1190  176.4150  137.4360 N   0  0  2  0  0  0  0  0  0  0  0  0
  180.6250  175.1060  138.8860 C   0  0  0  0  0  0  0  0  0  0  0  0
  181.7860  176.0520  138.8210 C   0  0  0  0  0  2  0  0  0  0  0  0
  180.7140  171.8910  136.0260 C   0  0  0  0  0  3  0  0  0  0  0  0
  179.4700  173.0630  137.9070 C   0  0  0  0  0  2  0  0  0  0  0  0
  181.4040  173.0200  135.7900 C   0  0  0  0  0  3  0  0  0  0  0  0
  180.7560  173.8750  138.0380 C   0  0  1  0  0  3  0  0  0  0  0  0
  182.4280  175.1900  136.6610 C   0  0  1  0  0  3  0  0  0  0  0  0
  179.9430  175.0550  140.0310 C   0  0  0  0  0  2  0  0  0  0  0  0
  179.7750  171.7380  137.2060 C   0  0  0  0  0  2  0  0  0  0  0  0
  181.2000  174.2610  136.6290 C   0  0  1  0  0  3  0  0  0  0  0  0
  182.8130  175.5380  135.2220 C   0  0  0  0  0  2  0  0  0  0  0  0
  184.1460  175.0150  134.9300 N   0  0  0  0  0  2  0  0  0  0  0  0
  184.7060  174.3260  136.1010 C   0  0  0  0  0  3  0  0  0  0  0  0
  185.9420  175.0260  136.6300 C   0  0  0  0  0  1  0  0  0  0  0  0
  184.9820  172.8630  135.8250 C   0  0  0  0  0  1  0  0  0  0  0  0
  180.3210  180.2720  142.9820 N   0  0  0  0  0  1  0  0  0  0  0  0
  180.8610  179.0980  143.4580 O   0  0  0  0  0  0  0  0  0  0  0  0
  188.9520  177.8060  141.8720 C   0  0  0  0  0  0  0  0  0  0  0  0
  189.6940  178.7390  142.2900 O   0  0  0  0  0  0  0  0  0  0  0  0
  191.0620  176.9650  139.1060 C   0  0  0  0  0  3  0  0  0  0  0  0
  189.0450  177.3600  140.4650 C   0  0  0  0  0  0  0  0  0  0  0  0
  190.7090  177.3950  137.8920 C   0  0  0  0  0  3  0  0  0  0  0  0
  189.3290  177.4080  137.3500 C   0  0  0  0  0  0  0  0  0  0  0  0
  190.0910  176.3650  140.0630 C   0  0  0  0  0  2  0  0  0  0  0  0
  188.2370  177.6270  138.1020 C   0  0  0  0  0  3  0  0  0  0  0  0
  188.1900  177.8530  139.5610 C   0  0  0  0  0  3  0  0  0  0  0  0
  188.0430  177.6190  135.3680 O   0  0  0  0  0  0  0  0  0  0  0  0
  189.1580  177.3430  135.8870 C   0  0  0  0  0  0  0  0  0  0  0  0
  190.2310  176.9490  135.0780 O   0  0  0  0  0  0  0  0  0  0  0  0
  190.4570  175.5930  134.7090 C   0  0  0  0  0  2  0  0  0  0  0  0
  191.9370  174.5290  136.4480 C   0  0  2  0  0  3  0  0  0  0  0  0
  191.8810  175.1580  135.0470 C   0  0  2  0  0  3  0  0  0  0  0  0
  195.1030  177.2220  135.2250 C   0  0  0  0  0  1  0  0  0  0  0  0
  194.0130  172.9910  136.2220 C   0  0  0  0  0  2  0  0  0  0  0  0
  195.7200  174.6560  136.7960 C   0  0  2  0  0  3  0  0  0  0  0  0
  194.2260  175.9890  135.3140 C   0  0  1  0  0  3  0  0  0  0  0  0
  193.3750  174.1910  136.9010 C   0  0  1  0  0  3  0  0  0  0  0  0
  196.1600  174.6780  138.1190 O   0  0  0  0  0  1  0  0  0  0  0  0
  194.3610  175.3380  136.7040 C   0  0  1  0  0  3  0  0  0  0  0  0
  192.7860  176.3820  135.0140 C   0  0  0  0  0  2  0  0  0  0  0  0
  195.5120  173.2070  136.3570 C   0  0  0  0  0  2  0  0  0  0  0  0
  189.5850  173.8870  137.2210 C   0  0  0  0  0  1  0  0  0  0  0  0
  190.9150  173.3990  136.6730 C   0  0  1  0  0  3  0  0  0  0  0  0
  190.7130  172.6770  135.4940 O   0  0  0  0  0  1  0  0  0  0  0  0
  1  3  1  0  0  0  0
  1  4  2  0  0  0  0
  4  2  2  0  0  0  0
  5  2  1  0  0  0  0
  5  8  1  0  0  0  0
  6  7  1  0  0  0  0
  7  8  2  0  0  0  0
  9 10  1  0  0  0  0
  9  6  2  0  0  0  0
 10  5  2  0  0  0  0
 11 10  1  0  0  0  0
 12 13  2  0  0  0  0
 13 11  2  0  0  0  0
 14 15  1  0  0  0  0
 15 12  1  6  0  0  0
 16 14  1  6  0  0  0
 16 15  1  0  0  0  0
 17 16  1  0  0  0  0
 17 19  1  1  0  0  0
 18 25  2  0  0  0  0
 19 18  1  0  0  0  0
 20 26  1  0  0  0  0
 22 20  2  0  0  0  0
 23 21  1  6  0  0  0
 23 18  1  0  0  0  0
 24 28  1  6  0  0  0
 24 17  1  0  0  0  0
 26 21  1  0  0  0  0
 27 22  1  6  0  0  0
 27 24  1  0  0  0  0
 27 23  1  0  0  0  0
 29 28  1  0  0  0  0
 29 30  1  0  0  0  0
 30 31  1  0  0  0  0
 32 30  1  0  0  0  0
 33 34  1  0  0  0  0
 34  6  1  0  0  0  0
 35 36  2  0  0  0  0
 35  1  1  0  0  0  0
 37 41  1  0  0  0  0
 38 35  1  0  0  0  0
 39 37  2  0  0  0  0
 40 39  1  0  0  0  0
 40 42  2  0  0  0  0
 41 38  1  0  0  0  0
 42 43  1  0  0  0  0
 43 38  2  0  0  0  0
 44 45  2  0  0  0  0
 45 40  1  0  0  0  0
 46 45  1  0  0  0  0
 47 46  1  0  0  0  0
 48 60  1  6  0  0  0
 48 54  1  0  0  0  0
 49 47  1  1  0  0  0
 49 48  1  0  0  0  0
 51 58  1  0  0  0  0
 52 55  1  1  0  0  0
 53 50  1  1  0  0  0
 53 56  1  0  0  0  0
 54 51  1  6  0  0  0
 56 52  1  0  0  0  0
 56 54  1  0  0  0  0
 57 49  1  0  0  0  0
 57 53  1  0  0  0  0
 58 52  1  0  0  0  0
 60 59  1  0  0  0  0
 61 60  1  0  0  0  0
M  END
>  <MODEL>
3

>  <REMARK>
 VINA RESULT:      -7.9      2.499      9.148
  Name = 
  15 active torsions:
  status: ('A' for Active; 'I' for Inactive)
    1  A    between atoms: N_1  and  C_28
    2  A    between atoms: C_2  and  C_47
    3  A    between atoms: C_3  and  C_59
    4  A    between atoms: C_4  and  C_54
    5  A    between atoms: C_9  and  C_49
    6  A    between atoms: C_10  and  C_16
    7  A    between atoms: C_15  and  C_49
    8  A    between atoms: C_20  and  N_23
    9  A    between atoms: C_21  and  C_24
   10  A    between atoms: N_23  and  C_27
   11  A    between atoms: C_24  and  O_42
   12  A    between atoms: C_25  and  C_31
   13  A    between atoms: C_26  and  O_33
   14  A    between atoms: C_27  and  C_39
   15  A    between atoms: O_42  and  C_59
                            x       y       z     vdW  Elec       q    Type
                         _______ _______ _______ _____ _____    ______ ____

>  <TORSDO>
F 15

$$$$
=
 OpenBabel11042413183D

 61 67  0  0  1  0  0  0  0  0999 V2000
  186.4180  178.3560  145.6390 C   0  0  0  0  0  0  0  0  0  0  0  0
  184.8790  179.6270  143.9540 C   0  0  0  0  0  3  0  0  0  0  0  0
  186.2780  178.6310  147.0280 N   0  0  0  0  0  1  0  0  0  0  0  0
  185.6450  178.9720  144.7860 C   0  0  0  0  0  0  0  0  0  0  0  0
  183.5590  179.1350  143.5080 C   0  0  0  0  0  0  0  0  0  0  0  0
  181.0270  178.2400  142.6560 C   0  0  0  0  0  0  0  0  0  0  0  0
  181.2370  178.5800  143.9980 C   0  0  0  0  0  3  0  0  0  0  0  0
  182.4930  179.0280  144.4180 C   0  0  0  0  0  3  0  0  0  0  0  0
  182.0800  178.3530  141.7430 C   0  0  0  0  0  3  0  0  0  0  0  0
  183.3500  178.7950  142.1540 C   0  0  0  0  0  0  0  0  0  0  0  0
  184.4480  178.9320  141.1710 C   0  0  0  0  0  3  0  0  0  0  0  0
  184.3730  177.8700  138.7850 C   0  0  0  0  0  3  0  0  0  0  0  0
  184.4150  178.3830  139.9850 C   0  0  0  0  0  0  0  0  0  0  0  0
  182.4860  178.1860  137.1990 C   0  0  0  0  0  2  0  0  0  0  0  0
  183.1210  177.2730  138.2300 C   0  0  1  0  0  3  0  0  0  0  0  0
  183.3380  177.0170  136.7410 C   0  0  1  0  0  3  0  0  0  0  0  0
  182.4800  175.9220  136.2780 N   0  0  2  0  0  0  0  0  0  0  0  0
  180.6150  174.5410  137.0910 C   0  0  0  0  0  0  0  0  0  0  0  0
  181.5060  175.7150  137.3600 C   0  0  0  0  0  2  0  0  0  0  0  0
  182.6070  171.0280  135.6020 C   0  0  0  0  0  3  0  0  0  0  0  0
  180.4200  172.1500  136.2460 C   0  0  0  0  0  2  0  0  0  0  0  0
  183.1730  172.2380  135.4490 C   0  0  0  0  0  3  0  0  0  0  0  0
  181.3270  173.2590  136.7740 C   0  0  1  0  0  3  0  0  0  0  0  0
  183.3020  174.7010  136.1070 C   0  0  1  0  0  3  0  0  0  0  0  0
  179.4400  174.5100  137.7200 C   0  0  0  0  0  2  0  0  0  0  0  0
  181.2110  170.8430  136.1600 C   0  0  0  0  0  2  0  0  0  0  0  0
  182.4040  173.5100  135.7210 C   0  0  1  0  0  3  0  0  0  0  0  0
  184.3500  174.8970  135.0110 C   0  0  0  0  0  2  0  0  0  0  0  0
  185.5730  174.1830  135.3670 N   0  0  0  0  0  2  0  0  0  0  0  0
  185.8540  174.3090  136.8040 C   0  0  0  0  0  3  0  0  0  0  0  0
  186.6500  175.5600  137.1160 C   0  0  0  0  0  1  0  0  0  0  0  0
  186.5310  173.0750  137.3640 C   0  0  0  0  0  1  0  0  0  0  0  0
  179.6300  176.5350  141.6570 N   0  0  0  0  0  1  0  0  0  0  0  0
  179.7840  177.7860  142.2090 O   0  0  0  0  0  0  0  0  0  0  0  0
  187.6110  177.6530  145.1600 C   0  0  0  0  0  0  0  0  0  0  0  0
  188.4460  177.2340  146.0110 O   0  0  0  0  0  0  0  0  0  0  0  0
  189.6110  176.0750  142.6470 C   0  0  0  0  0  3  0  0  0  0  0  0
  187.8190  177.3790  143.7220 C   0  0  0  0  0  0  0  0  0  0  0  0
  189.8570  176.7500  141.5220 C   0  0  0  0  0  3  0  0  0  0  0  0
  188.8760  177.5830  140.7850 C   0  0  0  0  0  0  0  0  0  0  0  0
  188.2620  176.0190  143.2760 C   0  0  0  0  0  2  0  0  0  0  0  0
  187.9040  178.2910  141.3830 C   0  0  0  0  0  3  0  0  0  0  0  0
  187.6060  178.3530  142.8290 C   0  0  0  0  0  3  0  0  0  0  0  0
  188.9650  178.9230  138.8300 O   0  0  0  0  0  0  0  0  0  0  0  0
  189.0790  177.7740  139.3370 C   0  0  0  0  0  0  0  0  0  0  0  0
  189.3740  176.6740  138.5240 O   0  0  0  0  0  0  0  0  0  0  0  0
  190.3050  176.7410  137.4490 C   0  0  0  0  0  2  0  0  0  0  0  0
  192.4210  175.6360  136.6460 C   0  0  2  0  0  3  0  0  0  0  0  0
  191.0320  175.4110  137.2640 C   0  0  2  0  0  3  0  0  0  0  0  0
  190.0130  172.3140  135.2520 C   0  0  0  0  0  1  0  0  0  0  0  0
  193.6910  173.5420  137.5000 C   0  0  0  0  0  2  0  0  0  0  0  0
  193.0350  172.0050  135.7050 C   0  0  2  0  0  3  0  0  0  0  0  0
  190.8830  173.1780  136.1430 C   0  0  1  0  0  3  0  0  0  0  0  0
  193.1520  174.3170  136.3090 C   0  0  1  0  0  3  0  0  0  0  0  0
  193.9350  171.8430  134.6510 O   0  0  0  0  0  1  0  0  0  0  0  0
  192.2910  173.3230  135.5360 C   0  0  1  0  0  3  0  0  0  0  0  0
  190.2100  174.5310  136.3320 C   0  0  0  0  0  2  0  0  0  0  0  0
  193.8090  172.1040  137.0180 C   0  0  0  0  0  2  0  0  0  0  0  0
  193.0370  176.6930  138.8910 C   0  0  0  0  0  1  0  0  0  0  0  0
  193.2830  176.6700  137.3920 C   0  0  1  0  0  3  0  0  0  0  0  0
  194.6390  176.4590  137.1320 O   0  0  0  0  0  1  0  0  0  0  0  0
  1  3  1  0  0  0  0
  2  4  2  0  0  0  0
  4  1  2  0  0  0  0
  5  2  1  0  0  0  0
  5  8  1  0  0  0  0
  6  7  1  0  0  0  0
  7  8  2  0  0  0  0
  9 10  1  0  0  0  0
  9  6  2  0  0  0  0
 10  5  2  0  0  0  0
 11 10  1  0  0  0  0
 12 13  2  0  0  0  0
 13 11  2  0  0  0  0
 14 15  1  0  0  0  0
 15 12  1  1  0  0  0
 16 14  1  6  0  0  0
 16 15  1  0  0  0  0
 17 16  1  0  0  0  0
 17 19  1  1  0  0  0
 18 19  1  0  0  0  0
 18 25  2  0  0  0  0
 20 26  1  0  0  0  0
 22 20  2  0  0  0  0
 23 21  1  6  0  0  0
 23 18  1  0  0  0  0
 24 28  1  6  0  0  0
 24 17  1  0  0  0  0
 26 21  1  0  0  0  0
 27 22  1  1  0  0  0
 27 24  1  0  0  0  0
 27 23  1  0  0  0  0
 28 29  1  0  0  0  0
 29 30  1  0  0  0  0
 30 31  1  0  0  0  0
 30 32  1  0  0  0  0
 33 34  1  0  0  0  0
 34  6  1  0  0  0  0
 35  1  1  0  0  0  0
 35 36  2  0  0  0  0
 37 41  1  0  0  0  0
 38 35  1  0  0  0  0
 39 37  2  0  0  0  0
 40 42  2  0  0  0  0
 40 39  1  0  0  0  0
 41 38  1  0  0  0  0
 42 43  1  0  0  0  0
 43 38  2  0  0  0  0
 44 45  2  0  0  0  0
 45 40  1  0  0  0  0
 46 45  1  0  0  0  0
 47 46  1  0  0  0  0
 48 49  1  0  0  0  0
 48 60  1  1  0  0  0
 49 47  1  6  0  0  0
 52 55  1  6  0  0  0
 52 58  1  0  0  0  0
 53 50  1  6  0  0  0
 53 57  1  0  0  0  0
 54 48  1  0  0  0  0
 54 51  1  1  0  0  0
 56 52  1  0  0  0  0
 56 53  1  0  0  0  0
 56 54  1  0  0  0  0
 57 49  1  0  0  0  0
 58 51  1  0  0  0  0
 60 59  1  0  0  0  0
 61 60  1  0  0  0  0
M  END
>  <MODEL>
4

>  <REMARK>
 VINA RESULT:      -7.8      2.387      8.608
  Name = 
  15 active torsions:
  status: ('A' for Active; 'I' for Inactive)
    1  A    between atoms: N_1  and  C_28
    2  A    between atoms: C_2  and  C_47
    3  A    between atoms: C_3  and  C_59
    4  A    between atoms: C_4  and  C_54
    5  A    between atoms: C_9  and  C_49
    6  A    between atoms: C_10  and  C_16
    7  A    between atoms: C_15  and  C_49
    8  A    between atoms: C_20  and  N_23
    9  A    between atoms: C_21  and  C_24
   10  A    between atoms: N_23  and  C_27
   11  A    between atoms: C_24  and  O_42
   12  A    between atoms: C_25  and  C_31
   13  A    between atoms: C_26  and  O_33
   14  A    between atoms: C_27  and  C_39
   15  A    between atoms: O_42  and  C_59
                            x       y       z     vdW  Elec       q    Type
                         _______ _______ _______ _____ _____    ______ ____

>  <TORSDO>
F 15

$$$$
=
 OpenBabel11042413183D

 61 67  0  0  1  0  0  0  0  0999 V2000
  187.1130  177.9460  145.9920 C   0  0  0  0  0  0  0  0  0  0  0  0
  185.3680  179.6500  145.0600 C   0  0  0  0  0  3  0  0  0  0  0  0
  186.9150  177.4130  147.2970 N   0  0  0  0  0  1  0  0  0  0  0  0
  186.2410  178.7860  145.5070 C   0  0  0  0  0  0  0  0  0  0  0  0
  184.1710  179.2650  144.2840 C   0  0  0  0  0  0  0  0  0  0  0  0
  181.8740  178.5730  142.8050 C   0  0  0  0  0  0  0  0  0  0  0  0
  181.8100  178.6650  144.2010 C   0  0  0  0  0  3  0  0  0  0  0  0
  182.9500  179.0120  144.9330 C   0  0  0  0  0  3  0  0  0  0  0  0
  183.0840  178.8320  142.1520 C   0  0  0  0  0  3  0  0  0  0  0  0
  184.2390  179.1750  142.8760 C   0  0  0  0  0  0  0  0  0  0  0  0
  185.5050  179.4700  142.1690 C   0  0  0  0  0  3  0  0  0  0  0  0
  186.0270  178.6170  139.7540 C   0  0  0  0  0  3  0  0  0  0  0  0
  185.7710  179.0250  140.9680 C   0  0  0  0  0  0  0  0  0  0  0  0
  184.1620  179.0420  138.1680 C   0  0  0  0  0  2  0  0  0  0  0  0
  184.9750  177.9900  138.8980 C   0  0  1  0  0  3  0  0  0  0  0  0
  185.2870  178.3270  137.4430 C   0  0  1  0  0  3  0  0  0  0  0  0
  184.7370  177.3020  136.5510 N   0  0  2  0  0  0  0  0  0  0  0  0
  182.8190  175.7670  136.4280 C   0  0  0  0  0  0  0  0  0  0  0  0
  183.4620  176.9020  137.1650 C   0  0  0  0  0  2  0  0  0  0  0  0
  185.4790  172.5840  135.2790 C   0  0  0  0  0  3  0  0  0  0  0  0
  183.1240  173.5400  135.2400 C   0  0  0  0  0  2  0  0  0  0  0  0
  185.9650  173.8150  135.5140 C   0  0  0  0  0  3  0  0  0  0  0  0
  183.6960  174.5680  136.2120 C   0  0  1  0  0  3  0  0  0  0  0  0
  185.6590  176.1420  136.5170 C   0  0  1  0  0  3  0  0  0  0  0  0
  181.5030  175.6100  136.5780 C   0  0  0  0  0  2  0  0  0  0  0  0
  183.9940  172.2810  135.2610 C   0  0  0  0  0  2  0  0  0  0  0  0
  185.0520  175.0100  135.6670 C   0  0  1  0  0  3  0  0  0  0  0  0
  187.0080  176.5350  135.9140 C   0  0  0  0  0  2  0  0  0  0  0  0
  188.0860  176.1150  136.8060 N   0  0  0  0  0  2  0  0  0  0  0  0
  189.2000  175.5330  136.0450 C   0  0  0  0  0  3  0  0  0  0  0  0
  189.2680  176.0810  134.6330 C   0  0  0  0  0  1  0  0  0  0  0  0
  189.1630  174.0190  136.0440 C   0  0  0  0  0  1  0  0  0  0  0  0
  180.6840  178.4900  140.7000 N   0  0  0  0  0  1  0  0  0  0  0  0
  180.7530  178.2250  142.0490 O   0  0  0  0  0  0  0  0  0  0  0  0
  188.4240  177.8080  145.3500 C   0  0  0  0  0  0  0  0  0  0  0  0
  189.4590  177.8800  146.0710 O   0  0  0  0  0  0  0  0  0  0  0  0
  189.6250  175.6170  142.7880 C   0  0  0  0  0  3  0  0  0  0  0  0
  188.5470  177.5310  143.9020 C   0  0  0  0  0  0  0  0  0  0  0  0
  190.1880  176.1610  141.7070 C   0  0  0  0  0  3  0  0  0  0  0  0
  189.7030  177.3720  141.0000 C   0  0  0  0  0  0  0  0  0  0  0  0
  188.3650  176.1360  143.3900 C   0  0  0  0  0  2  0  0  0  0  0  0
  189.1180  178.4100  141.6200 C   0  0  0  0  0  3  0  0  0  0  0  0
  188.8210  178.5360  143.0620 C   0  0  0  0  0  3  0  0  0  0  0  0
  189.5700  178.4880  138.9120 O   0  0  0  0  0  0  0  0  0  0  0  0
  190.0280  177.5140  139.5690 C   0  0  0  0  0  0  0  0  0  0  0  0
  190.8240  176.5530  138.9360 O   0  0  0  0  0  0  0  0  0  0  0  0
  192.2400  176.6670  138.8460 C   0  0  0  0  0  2  0  0  0  0  0  0
  194.3820  175.4030  138.4520 C   0  0  2  0  0  3  0  0  0  0  0  0
  192.8590  175.4070  138.2470 C   0  0  2  0  0  3  0  0  0  0  0  0
  192.7710  174.0970  134.6480 C   0  0  0  0  0  1  0  0  0  0  0  0
  194.8860  172.8590  138.4000 C   0  0  0  0  0  2  0  0  0  0  0  0
  195.1160  172.6190  135.9700 C   0  0  2  0  0  3  0  0  0  0  0  0
  193.1320  174.1160  136.1200 C   0  0  1  0  0  3  0  0  0  0  0  0
  195.0830  174.2180  137.7510 C   0  0  1  0  0  3  0  0  0  0  0  0
  196.4100  172.6570  135.4520 O   0  0  0  0  0  1  0  0  0  0  0  0
  194.6600  174.0350  136.2960 C   0  0  1  0  0  3  0  0  0  0  0  0
  192.5580  175.3770  136.7550 C   0  0  0  0  0  2  0  0  0  0  0  0
  195.1230  171.8480  137.2890 C   0  0  0  0  0  2  0  0  0  0  0  0
  196.2580  175.2120  140.1800 C   0  0  0  0  0  1  0  0  0  0  0  0
  194.8230  175.6300  139.9110 C   0  0  1  0  0  3  0  0  0  0  0  0
  194.6340  176.9640  140.2790 O   0  0  0  0  0  1  0  0  0  0  0  0
  1  3  1  0  0  0  0
  2  4  2  0  0  0  0
  4  1  2  0  0  0  0
  5  8  1  0  0  0  0
  5  2  1  0  0  0  0
  6  7  1  0  0  0  0
  7  8  2  0  0  0  0
  9  6  2  0  0  0  0
  9 10  1  0  0  0  0
 10  5  2  0  0  0  0
 11 10  1  0  0  0  0
 12 13  2  0  0  0  0
 13 11  2  0  0  0  0
 14 15  1  0  0  0  0
 15 12  1  1  0  0  0
 16 14  1  6  0  0  0
 16 15  1  0  0  0  0
 17 19  1  1  0  0  0
 17 16  1  0  0  0  0
 18 25  2  0  0  0  0
 18 19  1  0  0  0  0
 20 22  2  0  0  0  0
 21 26  1  0  0  0  0
 23 21  1  6  0  0  0
 23 18  1  0  0  0  0
 24 28  1  6  0  0  0
 24 17  1  0  0  0  0
 26 20  1  0  0  0  0
 27 22  1  1  0  0  0
 27 23  1  0  0  0  0
 27 24  1  0  0  0  0
 28 29  1  0  0  0  0
 30 29  1  0  0  0  0
 31 30  1  0  0  0  0
 32 30  1  0  0  0  0
 33 34  1  0  0  0  0
 34  6  1  0  0  0  0
 35  1  1  0  0  0  0
 35 36  2  0  0  0  0
 37 41  1  0  0  0  0
 38 35  1  0  0  0  0
 39 37  2  0  0  0  0
 40 42  2  0  0  0  0
 40 39  1  0  0  0  0
 41 38  1  0  0  0  0
 42 43  1  0  0  0  0
 43 38  2  0  0  0  0
 44 45  2  0  0  0  0
 45 40  1  0  0  0  0
 46 45  1  0  0  0  0
 47 46  1  0  0  0  0
 48 60  1  1  0  0  0
 49 48  1  0  0  0  0
 49 47  1  6  0  0  0
 52 55  1  1  0  0  0
 52 56  1  0  0  0  0
 52 58  1  0  0  0  0
 53 50  1  6  0  0  0
 53 56  1  0  0  0  0
 53 57  1  0  0  0  0
 54 51  1  1  0  0  0
 54 48  1  0  0  0  0
 56 54  1  0  0  0  0
 57 49  1  0  0  0  0
 58 51  1  0  0  0  0
 60 59  1  0  0  0  0
 60 61  1  0  0  0  0
M  END
>  <MODEL>
5

>  <REMARK>
 VINA RESULT:      -7.4      2.619      8.978
  Name = 
  15 active torsions:
  status: ('A' for Active; 'I' for Inactive)
    1  A    between atoms: N_1  and  C_28
    2  A    between atoms: C_2  and  C_47
    3  A    between atoms: C_3  and  C_59
    4  A    between atoms: C_4  and  C_54
    5  A    between atoms: C_9  and  C_49
    6  A    between atoms: C_10  and  C_16
    7  A    between atoms: C_15  and  C_49
    8  A    between atoms: C_20  and  N_23
    9  A    between atoms: C_21  and  C_24
   10  A    between atoms: N_23  and  C_27
   11  A    between atoms: C_24  and  O_42
   12  A    between atoms: C_25  and  C_31
   13  A    between atoms: C_26  and  O_33
   14  A    between atoms: C_27  and  C_39
   15  A    between atoms: O_42  and  C_59
                            x       y       z     vdW  Elec       q    Type
                         _______ _______ _______ _____ _____    ______ ____

>  <TORSDO>
F 15

$$$$
=
 OpenBabel11042413183D

 61 67  0  0  1  0  0  0  0  0999 V2000
  191.2280  176.5570  143.5890 C   0  0  0  0  0  0  0  0  0  0  0  0
  190.5230  177.3380  145.9800 C   0  0  0  0  0  3  0  0  0  0  0  0
  191.2670  175.1620  143.3130 N   0  0  0  0  0  1  0  0  0  0  0  0
  190.8630  176.9630  144.7740 C   0  0  0  0  0  0  0  0  0  0  0  0
  189.1300  177.6290  146.3750 C   0  0  0  0  0  0  0  0  0  0  0  0
  186.4820  178.2280  147.1320 C   0  0  0  0  0  0  0  0  0  0  0  0
  187.4850  178.1260  148.1040 C   0  0  0  0  0  3  0  0  0  0  0  0
  188.7990  177.8330  147.7260 C   0  0  0  0  0  3  0  0  0  0  0  0
  186.8060  178.0360  145.7850 C   0  0  0  0  0  3  0  0  0  0  0  0
  188.1210  177.7330  145.3920 C   0  0  0  0  0  0  0  0  0  0  0  0
  188.4530  177.5560  143.9610 C   0  0  0  0  0  3  0  0  0  0  0  0
  186.6510  177.5370  142.0670 C   0  0  0  0  0  3  0  0  0  0  0  0
  187.5470  177.5270  143.0180 C   0  0  0  0  0  0  0  0  0  0  0  0
  185.1520  179.3430  142.8830 C   0  0  0  0  0  2  0  0  0  0  0  0
  185.2350  177.9340  142.3270 C   0  0  1  0  0  3  0  0  0  0  0  0
  184.8940  179.1030  141.4070 C   0  0  1  0  0  3  0  0  0  0  0  0
  183.4540  179.1390  141.1360 N   0  0  2  0  0  0  0  0  0  0  0  0
  181.3240  178.7680  142.3080 C   0  0  0  0  0  0  0  0  0  0  0  0
  182.8140  178.8770  142.4330 C   0  0  0  0  0  2  0  0  0  0  0  0
  179.9300  176.4350  138.9700 C   0  0  0  0  0  3  0  0  0  0  0  0
  179.3470  177.8830  140.9760 C   0  0  0  0  0  2  0  0  0  0  0  0
  181.1570  176.9830  138.9420 C   0  0  0  0  0  3  0  0  0  0  0  0
  180.8410  177.7900  141.2770 C   0  0  1  0  0  3  0  0  0  0  0  0
  183.1110  178.0570  140.1830 C   0  0  1  0  0  3  0  0  0  0  0  0
  180.6010  178.9860  143.4070 C   0  0  0  0  0  2  0  0  0  0  0  0
  178.9350  176.7130  140.0790 C   0  0  0  0  0  2  0  0  0  0  0  0
  181.5880  178.0110  139.9630 C   0  0  1  0  0  3  0  0  0  0  0  0
  183.7920  178.2830  138.8320 C   0  0  0  0  0  2  0  0  0  0  0  0
  184.0080  176.9990  138.1710 N   0  0  0  0  0  2  0  0  0  0  0  0
  185.3720  176.9100  137.6320 C   0  0  0  0  0  3  0  0  0  0  0  0
  186.0810  178.2490  137.6620 C   0  0  0  0  0  1  0  0  0  0  0  0
  185.3990  176.3060  136.2430 C   0  0  0  0  0  1  0  0  0  0  0  0
  184.1830  178.6760  146.5260 N   0  0  0  0  0  1  0  0  0  0  0  0
  185.1620  178.5170  147.4800 O   0  0  0  0  0  0  0  0  0  0  0  0
  191.8940  177.4910  142.6760 C   0  0  0  0  0  0  0  0  0  0  0  0
  192.7830  178.2580  143.1400 O   0  0  0  0  0  0  0  0  0  0  0  0
  189.5400  176.7450  140.0850 C   0  0  0  0  0  3  0  0  0  0  0  0
  191.5850  177.5060  141.2290 C   0  0  0  0  0  0  0  0  0  0  0  0
  189.9980  176.2010  138.9560 C   0  0  0  0  0  3  0  0  0  0  0  0
  191.2490  176.5890  138.2580 C   0  0  0  0  0  0  0  0  0  0  0  0
  190.2140  177.8890  140.7620 C   0  0  0  0  0  2  0  0  0  0  0  0
  192.3580  177.0000  138.8940 C   0  0  0  0  0  3  0  0  0  0  0  0
  192.5380  177.1760  140.3500 C   0  0  0  0  0  3  0  0  0  0  0  0
  190.4830  176.8710  136.0310 O   0  0  0  0  0  0  0  0  0  0  0  0
  191.3320  176.3530  136.8050 C   0  0  0  0  0  0  0  0  0  0  0  0
  192.3420  175.5320  136.2890 O   0  0  0  0  0  0  0  0  0  0  0  0
  192.4330  174.1440  136.5920 C   0  0  0  0  0  2  0  0  0  0  0  0
  193.9050  172.1120  136.3800 C   0  0  2  0  0  3  0  0  0  0  0  0
  193.8710  173.6450  136.4730 C   0  0  2  0  0  3  0  0  0  0  0  0
  196.8440  174.1330  138.8390 C   0  0  0  0  0  1  0  0  0  0  0  0
  196.1400  171.7390  135.1160 C   0  0  0  0  0  2  0  0  0  0  0  0
  197.6260  171.7490  137.0670 C   0  0  2  0  0  3  0  0  0  0  0  0
  196.0970  173.6360  137.6180 C   0  0  1  0  0  3  0  0  0  0  0  0
  195.3400  171.5380  136.3920 C   0  0  1  0  0  3  0  0  0  0  0  0
  197.9800  170.5090  137.5980 O   0  0  0  0  0  1  0  0  0  0  0  0
  196.2130  172.1030  137.5090 C   0  0  1  0  0  3  0  0  0  0  0  0
  194.6440  174.0850  137.7090 C   0  0  0  0  0  2  0  0  0  0  0  0
  197.5970  171.6560  135.5430 C   0  0  0  0  0  2  0  0  0  0  0  0
  192.8750  170.0130  135.3430 C   0  0  0  0  0  1  0  0  0  0  0  0
  192.9950  171.5270  135.2840 C   0  0  1  0  0  3  0  0  0  0  0  0
  191.7270  172.1110  135.3350 O   0  0  0  0  0  1  0  0  0  0  0  0
  1  4  2  0  0  0  0
  2  5  1  0  0  0  0
  3  1  1  0  0  0  0
  4  2  2  0  0  0  0
  5  8  1  0  0  0  0
  6 34  1  0  0  0  0
  6  7  1  0  0  0  0
  8  7  2  0  0  0  0
  9  6  2  0  0  0  0
 10  9  1  0  0  0  0
 10  5  2  0  0  0  0
 11 10  1  0  0  0  0
 12 13  2  0  0  0  0
 13 11  2  0  0  0  0
 15 12  1  6  0  0  0
 15 14  1  0  0  0  0
 16 15  1  0  0  0  0
 16 14  1  1  0  0  0
 17 16  1  0  0  0  0
 17 19  1  1  0  0  0
 18 19  1  0  0  0  0
 18 25  2  0  0  0  0
 20 26  1  0  0  0  0
 22 20  2  0  0  0  0
 23 21  1  6  0  0  0
 23 18  1  0  0  0  0
 24 28  1  6  0  0  0
 24 17  1  0  0  0  0
 26 21  1  0  0  0  0
 27 22  1  6  0  0  0
 27 24  1  0  0  0  0
 27 23  1  0  0  0  0
 29 28  1  0  0  0  0
 30 31  1  0  0  0  0
 30 29  1  0  0  0  0
 32 30  1  0  0  0  0
 33 34  1  0  0  0  0
 35 36  2  0  0  0  0
 35  1  1  0  0  0  0
 37 41  1  0  0  0  0
 38 35  1  0  0  0  0
 39 37  2  0  0  0  0
 40 42  2  0  0  0  0
 40 39  1  0  0  0  0
 41 38  1  0  0  0  0
 42 43  1  0  0  0  0
 43 38  2  0  0  0  0
 44 45  2  0  0  0  0
 45 40  1  0  0  0  0
 46 47  1  0  0  0  0
 46 45  1  0  0  0  0
 48 60  1  6  0  0  0
 48 54  1  0  0  0  0
 48 49  1  0  0  0  0
 49 47  1  1  0  0  0
 49 57  1  0  0  0  0
 51 58  1  0  0  0  0
 52 56  1  0  0  0  0
 52 55  1  1  0  0  0
 53 57  1  0  0  0  0
 53 50  1  1  0  0  0
 54 51  1  6  0  0  0
 54 56  1  0  0  0  0
 56 53  1  0  0  0  0
 58 52  1  0  0  0  0
 60 61  1  0  0  0  0
 60 59  1  0  0  0  0
M  END
>  <MODEL>
6

>  <REMARK>
 VINA RESULT:      -6.9      3.156     10.531
  Name = 
  15 active torsions:
  status: ('A' for Active; 'I' for Inactive)
    1  A    between atoms: N_1  and  C_28
    2  A    between atoms: C_2  and  C_47
    3  A    between atoms: C_3  and  C_59
    4  A    between atoms: C_4  and  C_54
    5  A    between atoms: C_9  and  C_49
    6  A    between atoms: C_10  and  C_16
    7  A    between atoms: C_15  and  C_49
    8  A    between atoms: C_20  and  N_23
    9  A    between atoms: C_21  and  C_24
   10  A    between atoms: N_23  and  C_27
   11  A    between atoms: C_24  and  O_42
   12  A    between atoms: C_25  and  C_31
   13  A    between atoms: C_26  and  O_33
   14  A    between atoms: C_27  and  C_39
   15  A    between atoms: O_42  and  C_59
                            x       y       z     vdW  Elec       q    Type
                         _______ _______ _______ _____ _____    ______ ____

>  <TORSDO>
F 15

$$$$
=
 OpenBabel11042413183D

 61 67  0  0  1  0  0  0  0  0999 V2000
  187.4480  177.4800  142.8630 C   0  0  0  0  0  0  0  0  0  0  0  0
  185.5830  178.8590  144.0620 C   0  0  0  0  0  3  0  0  0  0  0  0
  187.7650  176.1850  143.3620 N   0  0  0  0  0  1  0  0  0  0  0  0
  186.5080  178.1750  143.4420 C   0  0  0  0  0  0  0  0  0  0  0  0
  184.1530  178.8080  143.6950 C   0  0  0  0  0  0  0  0  0  0  0  0
  181.4210  178.7540  143.0050 C   0  0  0  0  0  0  0  0  0  0  0  0
  181.8100  178.6390  144.3450 C   0  0  0  0  0  3  0  0  0  0  0  0
  183.1660  178.6700  144.6860 C   0  0  0  0  0  3  0  0  0  0  0  0
  182.3980  178.9020  142.0140 C   0  0  0  0  0  3  0  0  0  0  0  0
  183.7650  178.9270  142.3420 C   0  0  0  0  0  0  0  0  0  0  0  0
  184.7850  179.1080  141.2850 C   0  0  0  0  0  3  0  0  0  0  0  0
  184.5070  178.1830  138.8570 C   0  0  0  0  0  3  0  0  0  0  0  0
  184.6510  178.6270  140.0770 C   0  0  0  0  0  0  0  0  0  0  0  0
  182.5670  178.5530  137.3490 C   0  0  0  0  0  2  0  0  0  0  0  0
  183.2070  177.6320  138.3700 C   0  0  1  0  0  3  0  0  0  0  0  0
  183.3450  177.3380  136.8790 C   0  0  1  0  0  3  0  0  0  0  0  0
  182.4200  176.2740  136.4780 N   0  0  2  0  0  0  0  0  0  0  0  0
  180.2260  175.3680  137.1190 C   0  0  0  0  0  0  0  0  0  0  0  0
  181.2340  176.4580  137.3270 C   0  0  0  0  0  2  0  0  0  0  0  0
  181.8430  171.3850  136.9120 C   0  0  0  0  0  3  0  0  0  0  0  0
  179.7950  172.8850  136.7830 C   0  0  0  0  0  2  0  0  0  0  0  0
  182.6250  172.4440  136.6370 C   0  0  0  0  0  3  0  0  0  0  0  0
  180.7580  173.9720  137.2550 C   0  0  1  0  0  3  0  0  0  0  0  0
  183.0400  174.9590  136.7650 C   0  0  1  0  0  3  0  0  0  0  0  0
  178.9630  175.6340  137.4540 C   0  0  0  0  0  2  0  0  0  0  0  0
  180.3540  171.5120  137.1620 C   0  0  0  0  0  2  0  0  0  0  0  0
  182.0460  173.8270  136.4470 C   0  0  1  0  0  3  0  0  0  0  0  0
  184.2990  174.7530  135.9210 C   0  0  0  0  0  2  0  0  0  0  0  0
  185.4470  174.5340  136.7970 N   0  0  0  0  0  2  0  0  0  0  0  0
  186.7060  174.6300  136.0460 C   0  0  0  0  0  3  0  0  0  0  0  0
  187.8560  173.9740  136.7840 C   0  0  0  0  0  1  0  0  0  0  0  0
  187.0400  176.0590  135.6710 C   0  0  0  0  0  1  0  0  0  0  0  0
  179.0730  178.6120  143.5720 N   0  0  0  0  0  1  0  0  0  0  0  0
  180.0760  178.7240  142.6350 O   0  0  0  0  0  0  0  0  0  0  0  0
  188.3730  178.1410  141.9370 C   0  0  0  0  0  0  0  0  0  0  0  0
  188.5900  179.3770  142.0810 O   0  0  0  0  0  0  0  0  0  0  0  0
  191.5200  177.1290  140.5650 C   0  0  0  0  0  3  0  0  0  0  0  0
  189.0910  177.3800  140.8910 C   0  0  0  0  0  0  0  0  0  0  0  0
  191.6580  177.1350  139.2370 C   0  0  0  0  0  3  0  0  0  0  0  0
  190.6360  176.6840  138.2620 C   0  0  0  0  0  0  0  0  0  0  0  0
  190.3110  176.5880  141.2470 C   0  0  0  0  0  2  0  0  0  0  0  0
  189.3140  176.8290  138.4510 C   0  0  0  0  0  3  0  0  0  0  0  0
  188.6400  177.4080  139.6310 C   0  0  0  0  0  3  0  0  0  0  0  0
  190.4720  176.5280  135.9010 O   0  0  0  0  0  0  0  0  0  0  0  0
  191.0970  176.2050  136.9460 C   0  0  0  0  0  0  0  0  0  0  0  0
  192.2170  175.3680  136.8630 O   0  0  0  0  0  0  0  0  0  0  0  0
  192.8060  174.9940  135.6230 C   0  0  0  0  0  2  0  0  0  0  0  0
  193.2860  172.5530  136.0190 C   0  0  2  0  0  3  0  0  0  0  0  0
  193.9000  173.9490  135.8230 C   0  0  2  0  0  3  0  0  0  0  0  0
  196.6380  173.7390  138.4940 C   0  0  0  0  0  1  0  0  0  0  0  0
  195.2280  171.0360  135.2090 C   0  0  0  0  0  2  0  0  0  0  0  0
  196.4470  170.9020  137.3330 C   0  0  2  0  0  3  0  0  0  0  0  0
  195.8310  173.3140  137.2840 C   0  0  1  0  0  3  0  0  0  0  0  0
  194.3370  171.4740  136.3600 C   0  0  1  0  0  3  0  0  0  0  0  0
  196.2050  169.7840  138.1310 O   0  0  0  0  0  1  0  0  0  0  0  0
  195.2930  171.8840  137.4760 C   0  0  1  0  0  3  0  0  0  0  0  0
  194.7050  174.3150  137.0630 C   0  0  0  0  0  2  0  0  0  0  0  0
  196.4800  170.4780  135.8660 C   0  0  0  0  0  2  0  0  0  0  0  0
  192.2050  170.6440  134.7060 C   0  0  0  0  0  1  0  0  0  0  0  0
  192.2860  172.1450  134.9210 C   0  0  1  0  0  3  0  0  0  0  0  0
  191.0170  172.6610  135.1940 O   0  0  0  0  0  1  0  0  0  0  0  0
  1  3  1  0  0  0  0
  1  4  2  0  0  0  0
  4  2  2  0  0  0  0
  5  2  1  0  0  0  0
  5  8  1  0  0  0  0
  6  7  1  0  0  0  0
  7  8  2  0  0  0  0
  9 10  1  0  0  0  0
  9  6  2  0  0  0  0
 10  5  2  0  0  0  0
 11 10  1  0  0  0  0
 12 13  2  0  0  0  0
 13 11  2  0  0  0  0
 14 15  1  0  0  0  0
 15 12  1  6  0  0  0
 16 14  1  6  0  0  0
 16 15  1  0  0  0  0
 17 24  1  0  0  0  0
 17 16  1  0  0  0  0
 17 19  1  1  0  0  0
 18 23  1  0  0  0  0
 18 19  1  0  0  0  0
 18 25  2  0  0  0  0
 20 26  1  0  0  0  0
 21 26  1  0  0  0  0
 22 20  2  0  0  0  0
 23 21  1  6  0  0  0
 24 28  1  6  0  0  0
 27 22  1  1  0  0  0
 27 24  1  0  0  0  0
 27 23  1  0  0  0  0
 28 29  1  0  0  0  0
 30 31  1  0  0  0  0
 30 29  1  0  0  0  0
 32 30  1  0  0  0  0
 34  6  1  0  0  0  0
 34 33  1  0  0  0  0
 35 36  2  0  0  0  0
 35  1  1  0  0  0  0
 37 41  1  0  0  0  0
 38 41  1  0  0  0  0
 38 35  1  0  0  0  0
 39 37  2  0  0  0  0
 40 42  2  0  0  0  0
 40 39  1  0  0  0  0
 42 43  1  0  0  0  0
 43 38  2  0  0  0  0
 44 45  2  0  0  0  0
 45 40  1  0  0  0  0
 46 45  1  0  0  0  0
 47 46  1  0  0  0  0
 48 60  1  6  0  0  0
 48 54  1  0  0  0  0
 49 47  1  1  0  0  0
 49 48  1  0  0  0  0
 49 57  1  0  0  0  0
 51 58  1  0  0  0  0
 52 56  1  0  0  0  0
 52 55  1  1  0  0  0
 53 56  1  0  0  0  0
 53 50  1  1  0  0  0
 54 51  1  6  0  0  0
 54 56  1  0  0  0  0
 57 53  1  0  0  0  0
 58 52  1  0  0  0  0
 59 60  1  0  0  0  0
 60 61  1  0  0  0  0
M  END
>  <MODEL>
7

>  <REMARK>
 VINA RESULT:      -6.8      3.031      9.870
  Name = 
  15 active torsions:
  status: ('A' for Active; 'I' for Inactive)
    1  A    between atoms: N_1  and  C_28
    2  A    between atoms: C_2  and  C_47
    3  A    between atoms: C_3  and  C_59
    4  A    between atoms: C_4  and  C_54
    5  A    between atoms: C_9  and  C_49
    6  A    between atoms: C_10  and  C_16
    7  A    between atoms: C_15  and  C_49
    8  A    between atoms: C_20  and  N_23
    9  A    between atoms: C_21  and  C_24
   10  A    between atoms: N_23  and  C_27
   11  A    between atoms: C_24  and  O_42
   12  A    between atoms: C_25  and  C_31
   13  A    between atoms: C_26  and  O_33
   14  A    between atoms: C_27  and  C_39
   15  A    between atoms: O_42  and  C_59
                            x       y       z     vdW  Elec       q    Type
                         _______ _______ _______ _____ _____    ______ ____

>  <TORSDO>
F 15

$$$$
=
 OpenBabel11042413183D

 61 67  0  0  1  0  0  0  0  0999 V2000
  190.5710  176.3050  143.1000 C   0  0  0  0  0  0  0  0  0  0  0  0
  189.7970  177.6470  145.2030 C   0  0  0  0  0  3  0  0  0  0  0  0
  190.7640  174.9000  143.2230 N   0  0  0  0  0  1  0  0  0  0  0  0
  190.1690  176.9870  144.1380 C   0  0  0  0  0  0  0  0  0  0  0  0
  188.3820  177.8890  145.5530 C   0  0  0  0  0  0  0  0  0  0  0  0
  185.6950  178.3920  146.2360 C   0  0  0  0  0  0  0  0  0  0  0  0
  186.6000  177.9630  147.2140 C   0  0  0  0  0  3  0  0  0  0  0  0
  187.9340  177.7180  146.8740 C   0  0  0  0  0  3  0  0  0  0  0  0
  186.1360  178.5740  144.9210 C   0  0  0  0  0  3  0  0  0  0  0  0
  187.4720  178.3240  144.5640 C   0  0  0  0  0  0  0  0  0  0  0  0
  187.9290  178.5440  143.1740 C   0  0  0  0  0  3  0  0  0  0  0  0
  186.3700  178.2680  141.0950 C   0  0  0  0  0  3  0  0  0  0  0  0
  187.1510  178.3860  142.1350 C   0  0  0  0  0  0  0  0  0  0  0  0
  184.2510  179.3450  141.8210 C   0  0  0  0  0  2  0  0  0  0  0  0
  184.8920  178.1000  141.2390 C   0  0  1  0  0  3  0  0  0  0  0  0
  184.2090  179.1120  140.3220 C   0  0  1  0  0  3  0  0  0  0  0  0
  182.8820  178.6310  139.9270 N   0  0  2  0  0  0  0  0  0  0  0  0
  181.7400  176.5160  139.4110 C   0  0  0  0  0  0  0  0  0  0  0  0
  182.9940  177.1660  139.9110 C   0  0  0  0  0  2  0  0  0  0  0  0
  179.9850  178.3450  135.9330 C   0  0  0  0  0  3  0  0  0  0  0  0
  179.8400  176.5450  137.7210 C   0  0  0  0  0  2  0  0  0  0  0  0
  180.8000  179.0580  136.7290 C   0  0  0  0  0  3  0  0  0  0  0  0
  181.2450  177.0180  138.0870 C   0  0  1  0  0  3  0  0  0  0  0  0
  182.5750  179.1220  138.5620 C   0  0  1  0  0  3  0  0  0  0  0  0
  181.5290  175.2460  139.7620 C   0  0  0  0  0  2  0  0  0  0  0  0
  179.5310  176.9410  136.2750 C   0  0  0  0  0  2  0  0  0  0  0  0
  181.2300  178.5450  138.0840 C   0  0  1  0  0  3  0  0  0  0  0  0
  182.4860  180.6490  138.5380 C   0  0  0  0  0  2  0  0  0  0  0  0
  181.1770  181.0560  138.0360 N   0  0  0  0  0  2  0  0  0  0  0  0
  180.4610  181.8640  139.0330 C   0  0  0  0  0  3  0  0  0  0  0  0
  179.5290  181.0210  139.8810 C   0  0  0  0  0  1  0  0  0  0  0  0
  179.7250  183.0290  138.4030 C   0  0  0  0  0  1  0  0  0  0  0  0
  183.4250  178.8940  145.5650 N   0  0  0  0  0  1  0  0  0  0  0  0
  184.3570  178.6410  146.5460 O   0  0  0  0  0  0  0  0  0  0  0  0
  191.1230  177.0090  141.9390 C   0  0  0  0  0  0  0  0  0  0  0  0
  191.9970  177.9000  142.1330 O   0  0  0  0  0  0  0  0  0  0  0  0
  192.0470  176.7830  138.4890 C   0  0  0  0  0  3  0  0  0  0  0  0
  190.7200  176.6550  140.5600 C   0  0  0  0  0  0  0  0  0  0  0  0
  191.1580  177.1720  137.5720 C   0  0  0  0  0  3  0  0  0  0  0  0
  189.7010  176.8950  137.6130 C   0  0  0  0  0  0  0  0  0  0  0  0
  191.6810  175.9390  139.6610 C   0  0  0  0  0  2  0  0  0  0  0  0
  188.9890  176.8300  138.7500 C   0  0  0  0  0  3  0  0  0  0  0  0
  189.4950  176.9780  140.1300 C   0  0  0  0  0  3  0  0  0  0  0  0
  189.2830  177.6390  135.4000 O   0  0  0  0  0  0  0  0  0  0  0  0
  188.9680  176.8540  136.3340 C   0  0  0  0  0  0  0  0  0  0  0  0
  187.9050  175.9580  136.1690 O   0  0  0  0  0  0  0  0  0  0  0  0
  187.0160  176.0170  135.0590 C   0  0  0  0  0  2  0  0  0  0  0  0
  185.0670  175.1380  136.3890 C   0  0  2  0  0  3  0  0  0  0  0  0
  185.9480  174.9300  135.1470 C   0  0  2  0  0  3  0  0  0  0  0  0
  186.3280  171.1240  135.3540 C   0  0  0  0  0  1  0  0  0  0  0  0
  182.8750  173.9660  135.6450 C   0  0  0  0  0  2  0  0  0  0  0  0
  183.4710  171.6880  136.3310 C   0  0  2  0  0  3  0  0  0  0  0  0
  185.6060  172.4560  135.3050 C   0  0  1  0  0  3  0  0  0  0  0  0
  184.0520  173.9930  136.6060 C   0  0  1  0  0  3  0  0  0  0  0  0
  183.0100  171.2630  137.5770 O   0  0  0  0  0  1  0  0  0  0  0  0
  184.6730  172.6020  136.5220 C   0  0  1  0  0  3  0  0  0  0  0  0
  186.6370  173.5750  135.2470 C   0  0  0  0  0  2  0  0  0  0  0  0
  182.3890  172.5250  135.6520 C   0  0  0  0  0  2  0  0  0  0  0  0
  185.3600  177.5240  137.2600 C   0  0  0  0  0  1  0  0  0  0  0  0
  184.4680  176.5520  136.5070 C   0  0  1  0  0  3  0  0  0  0  0  0
  184.1590  177.0620  135.2440 O   0  0  0  0  0  1  0  0  0  0  0  0
  1  3  1  0  0  0  0
  1  4  2  0  0  0  0
  2  5  1  0  0  0  0
  4  2  2  0  0  0  0
  5  8  1  0  0  0  0
  6 34  1  0  0  0  0
  6  7  1  0  0  0  0
  8  7  2  0  0  0  0
  9  6  2  0  0  0  0
 10  9  1  0  0  0  0
 10  5  2  0  0  0  0
 11 10  1  0  0  0  0
 12 13  2  0  0  0  0
 13 11  2  0  0  0  0
 15 12  1  6  0  0  0
 15 14  1  0  0  0  0
 16 15  1  0  0  0  0
 16 14  1  1  0  0  0
 17 19  1  6  0  0  0
 17 16  1  0  0  0  0
 18 25  2  0  0  0  0
 18 19  1  0  0  0  0
 20 26  1  0  0  0  0
 20 22  2  0  0  0  0
 23 21  1  1  0  0  0
 23 18  1  0  0  0  0
 24 28  1  1  0  0  0
 24 17  1  0  0  0  0
 26 21  1  0  0  0  0
 27 22  1  6  0  0  0
 27 23  1  0  0  0  0
 27 24  1  0  0  0  0
 29 28  1  0  0  0  0
 29 30  1  0  0  0  0
 30 31  1  0  0  0  0
 32 30  1  0  0  0  0
 33 34  1  0  0  0  0
 35 36  2  0  0  0  0
 35  1  1  0  0  0  0
 37 41  1  0  0  0  0
 38 35  1  0  0  0  0
 39 40  1  0  0  0  0
 39 37  2  0  0  0  0
 40 42  2  0  0  0  0
 41 38  1  0  0  0  0
 42 43  1  0  0  0  0
 43 38  2  0  0  0  0
 44 45  2  0  0  0  0
 45 40  1  0  0  0  0
 46 45  1  0  0  0  0
 47 46  1  0  0  0  0
 48 60  1  6  0  0  0
 48 54  1  0  0  0  0
 49 47  1  1  0  0  0
 49 57  1  0  0  0  0
 49 48  1  0  0  0  0
 51 58  1  0  0  0  0
 52 56  1  0  0  0  0
 52 55  1  1  0  0  0
 53 50  1  1  0  0  0
 53 56  1  0  0  0  0
 54 51  1  6  0  0  0
 56 54  1  0  0  0  0
 57 53  1  0  0  0  0
 58 52  1  0  0  0  0
 60 59  1  0  0  0  0
 61 60  1  0  0  0  0
M  END
>  <MODEL>
8

>  <REMARK>
 VINA RESULT:      -6.5      2.499      8.281
  Name = 
  15 active torsions:
  status: ('A' for Active; 'I' for Inactive)
    1  A    between atoms: N_1  and  C_28
    2  A    between atoms: C_2  and  C_47
    3  A    between atoms: C_3  and  C_59
    4  A    between atoms: C_4  and  C_54
    5  A    between atoms: C_9  and  C_49
    6  A    between atoms: C_10  and  C_16
    7  A    between atoms: C_15  and  C_49
    8  A    between atoms: C_20  and  N_23
    9  A    between atoms: C_21  and  C_24
   10  A    between atoms: N_23  and  C_27
   11  A    between atoms: C_24  and  O_42
   12  A    between atoms: C_25  and  C_31
   13  A    between atoms: C_26  and  O_33
   14  A    between atoms: C_27  and  C_39
   15  A    between atoms: O_42  and  C_59
                            x       y       z     vdW  Elec       q    Type
                         _______ _______ _______ _____ _____    ______ ____

>  <TORSDO>
F 15

$$$$
=
 OpenBabel11042413183D

 61 67  0  0  1  0  0  0  0  0999 V2000
  186.7510  177.9360  144.9970 C   0  0  0  0  0  0  0  0  0  0  0  0
  187.5940  176.6460  142.8880 C   0  0  0  0  0  3  0  0  0  0  0  0
  187.1320  177.4610  146.2830 N   0  0  0  0  0  1  0  0  0  0  0  0
  187.1770  177.3120  143.9330 C   0  0  0  0  0  0  0  0  0  0  0  0
  188.8560  176.9510  142.1840 C   0  0  0  0  0  0  0  0  0  0  0  0
  191.2650  177.4900  140.8240 C   0  0  0  0  0  0  0  0  0  0  0  0
  191.2880  176.8470  142.0680 C   0  0  0  0  0  3  0  0  0  0  0  0
  190.0920  176.5770  142.7390 C   0  0  0  0  0  3  0  0  0  0  0  0
  190.0380  177.8560  140.2610 C   0  0  0  0  0  3  0  0  0  0  0  0
  188.8290  177.5980  140.9280 C   0  0  0  0  0  0  0  0  0  0  0  0
  187.5370  177.9700  140.3080 C   0  0  0  0  0  3  0  0  0  0  0  0
  186.6010  176.8230  138.1550 C   0  0  0  0  0  3  0  0  0  0  0  0
  187.0820  177.4070  139.2190 C   0  0  0  0  0  0  0  0  0  0  0  0
  186.1700  174.6590  137.0110 C   0  0  0  0  0  2  0  0  0  0  0  0
  187.2210  175.5850  137.5910 C   0  0  1  0  0  3  0  0  0  0  0  0
  186.9600  175.5680  136.0870 C   0  0  1  0  0  3  0  0  0  0  0  0
  188.0000  174.8000  135.3960 N   0  0  2  0  0  0  0  0  0  0  0  0
  188.9040  172.5140  135.3370 C   0  0  0  0  0  0  0  0  0  0  0  0
  187.8340  173.4180  135.8690 C   0  0  0  0  0  2  0  0  0  0  0  0
  192.8950  174.1220  135.4620 C   0  0  0  0  0  3  0  0  0  0  0  0
  191.3700  172.2000  134.7990 C   0  0  0  0  0  2  0  0  0  0  0  0
  191.8350  174.9500  135.4660 C   0  0  0  0  0  3  0  0  0  0  0  0
  190.3100  172.9830  135.5700 C   0  0  1  0  0  3  0  0  0  0  0  0
  189.3310  175.3090  135.8020 C   0  0  1  0  0  3  0  0  0  0  0  0
  188.6370  171.2080  135.3000 C   0  0  0  0  0  2  0  0  0  0  0  0
  192.7610  172.6250  135.2740 C   0  0  0  0  0  2  0  0  0  0  0  0
  190.4410  174.4510  135.1670 C   0  0  1  0  0  3  0  0  0  0  0  0
  189.5200  176.7590  135.3530 C   0  0  0  0  0  2  0  0  0  0  0  0
  189.6970  177.6160  136.5230 N   0  0  0  0  0  2  0  0  0  0  0  0
  189.0570  178.9230  136.3170 C   0  0  0  0  0  3  0  0  0  0  0  0
  189.0550  179.7560  137.5830 C   0  0  0  0  0  1  0  0  0  0  0  0
  187.6610  178.7920  135.7440 C   0  0  0  0  0  1  0  0  0  0  0  0
  193.5670  176.9920  140.2710 N   0  0  0  0  0  1  0  0  0  0  0  0
  192.4440  177.7750  140.1330 O   0  0  0  0  0  0  0  0  0  0  0  0
  185.6500  178.8970  144.8810 C   0  0  0  0  0  0  0  0  0  0  0  0
  185.7920  180.0420  145.3950 O   0  0  0  0  0  0  0  0  0  0  0  0
  183.9970  178.7430  141.7110 C   0  0  0  0  0  3  0  0  0  0  0  0
  184.4170  178.5690  144.1320 C   0  0  0  0  0  0  0  0  0  0  0  0
  182.7270  179.1480  141.6430 C   0  0  0  0  0  3  0  0  0  0  0  0
  181.6770  178.8660  142.6530 C   0  0  0  0  0  0  0  0  0  0  0  0
  184.5100  177.8750  142.8080 C   0  0  0  0  0  2  0  0  0  0  0  0
  181.9200  178.7750  143.9710 C   0  0  0  0  0  3  0  0  0  0  0  0
  183.2270  178.8980  144.6480 C   0  0  0  0  0  3  0  0  0  0  0  0
  179.4020  178.2340  142.8790 O   0  0  0  0  0  0  0  0  0  0  0  0
  180.2720  178.8480  142.2050 C   0  0  0  0  0  0  0  0  0  0  0  0
  179.9120  179.4940  141.0170 O   0  0  0  0  0  0  0  0  0  0  0  0
  179.2750  178.8190  139.9380 C   0  0  0  0  0  2  0  0  0  0  0  0
  180.3680  177.7070  137.9610 C   0  0  2  0  0  3  0  0  0  0  0  0
  180.0990  177.6220  139.4710 C   0  0  2  0  0  3  0  0  0  0  0  0
  179.3350  173.8750  139.7000 C   0  0  0  0  0  1  0  0  0  0  0  0
  182.5530  176.3220  137.7650 C   0  0  0  0  0  2  0  0  0  0  0  0
  181.5210  174.1070  137.5550 C   0  0  2  0  0  3  0  0  0  0  0  0
  180.1200  175.1220  139.3460 C   0  0  1  0  0  3  0  0  0  0  0  0
  181.0830  176.4550  137.4040 C   0  0  1  0  0  3  0  0  0  0  0  0
  181.3560  173.6080  136.2630 O   0  0  0  0  0  1  0  0  0  0  0  0
  180.4410  175.1420  137.8390 C   0  0  1  0  0  3  0  0  0  0  0  0
  179.3200  176.3470  139.7670 C   0  0  0  0  0  2  0  0  0  0  0  0
  182.8600  174.8380  137.6450 C   0  0  0  0  0  2  0  0  0  0  0  0
  182.2730  179.3930  138.2140 C   0  0  0  0  0  1  0  0  0  0  0  0
  180.9770  179.0450  137.5030 C   0  0  1  0  0  3  0  0  0  0  0  0
  181.1720  179.0480  136.1200 O   0  0  0  0  0  1  0  0  0  0  0  0
  1  3  1  0  0  0  0
  2  4  2  0  0  0  0
  4  1  2  0  0  0  0
  5  8  1  0  0  0  0
  5  2  1  0  0  0  0
  6  7  1  0  0  0  0
  7  8  2  0  0  0  0
  9  6  2  0  0  0  0
  9 10  1  0  0  0  0
 10  5  2  0  0  0  0
 11 10  1  0  0  0  0
 12 13  2  0  0  0  0
 13 11  2  0  0  0  0
 14 15  1  0  0  0  0
 15 12  1  1  0  0  0
 16 14  1  1  0  0  0
 16 15  1  0  0  0  0
 17 24  1  0  0  0  0
 17 19  1  1  0  0  0
 17 16  1  0  0  0  0
 18 23  1  0  0  0  0
 18 19  1  0  0  0  0
 20 22  2  0  0  0  0
 21 26  1  0  0  0  0
 23 21  1  6  0  0  0
 24 28  1  6  0  0  0
 25 18  2  0  0  0  0
 26 20  1  0  0  0  0
 27 22  1  1  0  0  0
 27 23  1  0  0  0  0
 27 24  1  0  0  0  0
 28 29  1  0  0  0  0
 30 29  1  0  0  0  0
 30 31  1  0  0  0  0
 32 30  1  0  0  0  0
 34 33  1  0  0  0  0
 34  6  1  0  0  0  0
 35  1  1  0  0  0  0
 35 36  2  0  0  0  0
 37 41  1  0  0  0  0
 38 43  2  0  0  0  0
 38 35  1  0  0  0  0
 39 37  2  0  0  0  0
 39 40  1  0  0  0  0
 40 42  2  0  0  0  0
 41 38  1  0  0  0  0
 42 43  1  0  0  0  0
 45 40  1  0  0  0  0
 45 44  2  0  0  0  0
 46 45  1  0  0  0  0
 47 46  1  0  0  0  0
 48 60  1  1  0  0  0
 48 49  1  0  0  0  0
 49 57  1  0  0  0  0
 49 47  1  6  0  0  0
 52 55  1  6  0  0  0
 52 58  1  0  0  0  0
 52 56  1  0  0  0  0
 53 50  1  6  0  0  0
 53 57  1  0  0  0  0
 54 51  1  1  0  0  0
 54 56  1  0  0  0  0
 54 48  1  0  0  0  0
 56 53  1  0  0  0  0
 58 51  1  0  0  0  0
 60 59  1  0  0  0  0
 61 60  1  0  0  0  0
M  END
>  <MODEL>
9

>  <REMARK>
 VINA RESULT:      -6.3      2.270      5.925
  Name = 
  15 active torsions:
  status: ('A' for Active; 'I' for Inactive)
    1  A    between atoms: N_1  and  C_28
    2  A    between atoms: C_2  and  C_47
    3  A    between atoms: C_3  and  C_59
    4  A    between atoms: C_4  and  C_54
    5  A    between atoms: C_9  and  C_49
    6  A    between atoms: C_10  and  C_16
    7  A    between atoms: C_15  and  C_49
    8  A    between atoms: C_20  and  N_23
    9  A    between atoms: C_21  and  C_24
   10  A    between atoms: N_23  and  C_27
   11  A    between atoms: C_24  and  O_42
   12  A    between atoms: C_25  and  C_31
   13  A    between atoms: C_26  and  O_33
   14  A    between atoms: C_27  and  C_39
   15  A    between atoms: O_42  and  C_59
                            x       y       z     vdW  Elec       q    Type
                         _______ _______ _______ _____ _____    ______ ____

>  <TORSDO>
F 15

$$$$
