=
 OpenBabel11042410133D

 32 36  0  0  1  0  0  0  0  0999 V2000
  187.5830  178.2450  140.5800 C   0  0  0  0  0  2  0  0  0  0  0  0
  188.9560  177.7610  143.0460 O   0  0  0  0  0  0  0  0  0  0  0  0
  186.9490  178.5370  141.9400 C   0  0  2  0  0  3  0  0  0  0  0  0
  189.4690  177.2450  141.8430 C   0  0  0  0  0  2  0  0  0  0  0  0
  187.5580  177.5970  142.9950 C   0  0  2  0  0  3  0  0  0  0  0  0
  189.1030  178.1760  140.6870 C   0  0  1  0  0  3  0  0  0  0  0  0
  186.8340  178.0000  146.6240 C   0  0  0  0  0  0  0  0  0  0  0  0
  187.6700  177.6630  145.6030 C   0  0  0  0  0  0  0  0  0  0  0  0
  189.3900  177.1930  147.1170 C   0  0  0  0  0  0  0  0  0  0  0  0
  185.5100  178.4270  146.0980 C   0  0  0  0  0  2  0  0  0  0  0  0
  187.2500  177.9490  147.9130 N   0  0  0  0  0  0  0  0  0  0  0  0
  185.7410  178.2860  144.6080 C   0  0  0  0  0  3  0  0  0  0  0  0
  186.9760  177.8430  144.3530 C   0  0  0  0  0  0  0  0  0  0  0  0
  191.0300  176.6810  147.4500 Cl  0  0  0  0  0  0  0  0  0  0  0  0
  188.5300  177.5480  148.1780 C   0  0  0  0  0  3  0  0  0  0  0  0
  188.9460  177.2620  145.8280 N   0  0  0  0  0  0  0  0  0  0  0  0
  184.7630  178.8980  140.7840 C   0  0  0  0  0  0  0  0  0  0  0  0
  184.6960  179.6880  139.6170 N   0  0  0  0  0  0  0  0  0  0  0  0
  183.5880  179.0680  140.1180 C   0  0  1  0  0  3  0  0  0  0  0  0
  185.5120  178.3320  141.8540 N   0  0  0  0  0  2  0  0  0  0  0  0
  183.2690  177.8350  139.3290 C   0  0  0  0  0  0  0  0  0  0  0  0
  182.7530  176.6790  139.8730 C   0  0  0  0  0  3  0  0  0  0  0  0
  183.4300  177.7010  138.0340 O   0  0  0  0  0  0  0  0  0  0  0  0
  183.0460  176.4980  137.6800 C   0  0  0  0  0  3  0  0  0  0  0  0
  182.6090  175.8140  138.8020 C   0  0  0  0  0  3  0  0  0  0  0  0
  189.6640  177.6460  139.3790 C   0  0  0  0  0  2  0  0  0  0  0  0
  191.0680  177.1030  139.5740 C   0  0  0  0  0  2  0  0  0  0  0  0
  190.6890  175.0360  138.1840 N   0  0  0  0  0  2  0  0  0  0  0  0
  191.4320  176.2330  138.4230 C   0  0  0  0  0  0  0  0  0  0  0  0
  192.4220  176.5290  137.7040 O   0  0  0  0  0  0  0  0  0  0  0  0
  189.7350  173.4200  136.6320 C   0  0  0  0  0  1  0  0  0  0  0  0
  190.9950  174.1270  137.0900 C   0  0  0  0  0  2  0  0  0  0  0  0
  1  6  1  0  0  0  0
  1  3  1  0  0  0  0
  3 20  1  6  0  0  0
  3  5  1  0  0  0  0
  4  2  1  0  0  0  0
  5  2  1  0  0  0  0
  5 13  1  1  0  0  0
  6 26  1  6  0  0  0
  6  4  1  0  0  0  0
  7 11  1  0  0  0  0
  8 16  1  0  0  0  0
  8  7  2  0  0  0  0
  9 14  1  0  0  0  0
  9 15  1  0  0  0  0
 10  7  1  0  0  0  0
 11 15  2  0  0  0  0
 12 10  1  0  0  0  0
 13 12  2  0  0  0  0
 13  8  1  0  0  0  0
 16  9  2  0  0  0  0
 17 20  1  0  0  0  0
 18 19  1  0  0  0  0
 18 17  2  0  0  0  0
 19 21  1  6  0  0  0
 19 17  1  0  0  0  0
 21 22  2  0  0  0  0
 23 21  1  0  0  0  0
 24 23  1  0  0  0  0
 24 25  2  0  0  0  0
 25 22  1  0  0  0  0
 26 27  1  0  0  0  0
 28 29  1  0  0  0  0
 29 27  1  0  0  0  0
 30 29  2  0  0  0  0
 31 32  1  0  0  0  0
 32 28  1  0  0  0  0
M  END
>  <MODEL>
1

>  <REMARK>
 VINA RESULT:      -9.0      0.000      0.000
  Name = 
  7 active torsions:
  status: ('A' for Active; 'I' for Inactive)
    1  A    between atoms: N_4  and  C_18
    2  A    between atoms: C_7  and  C_23
    3  A    between atoms: C_7  and  C_30
    4  A    between atoms: C_10  and  N_26
    5  A    between atoms: C_16  and  C_21
    6  A    between atoms: C_17  and  C_22
    7  A    between atoms: C_23  and  C_25
                            x       y       z     vdW  Elec       q    Type
                         _______ _______ _______ _____ _____    ______ ____

>  <TORSDO>
F 7

$$$$
=
 OpenBabel11042410133D

 32 36  0  0  1  0  0  0  0  0999 V2000
  187.4240  178.2390  140.5470 C   0  0  0  0  0  2  0  0  0  0  0  0
  188.8640  177.6390  142.9480 O   0  0  0  0  0  0  0  0  0  0  0  0
  186.8630  178.5460  141.9360 C   0  0  2  0  0  3  0  0  0  0  0  0
  189.2980  177.1130  141.7190 C   0  0  0  0  0  2  0  0  0  0  0  0
  187.4580  177.5560  142.9520 C   0  0  2  0  0  3  0  0  0  0  0  0
  188.9410  178.0820  140.5900 C   0  0  1  0  0  3  0  0  0  0  0  0
  186.9160  177.9780  146.6100 C   0  0  0  0  0  0  0  0  0  0  0  0
  187.6960  177.6260  145.5520 C   0  0  0  0  0  0  0  0  0  0  0  0
  189.4800  177.1330  146.9830 C   0  0  0  0  0  0  0  0  0  0  0  0
  185.5750  178.4230  146.1480 C   0  0  0  0  0  2  0  0  0  0  0  0
  187.3930  177.9230  147.8780 N   0  0  0  0  0  0  0  0  0  0  0  0
  185.7310  178.2760  144.6490 C   0  0  0  0  0  3  0  0  0  0  0  0
  186.9470  177.8130  144.3360 C   0  0  0  0  0  0  0  0  0  0  0  0
  191.1270  176.5970  147.2370 Cl  0  0  0  0  0  0  0  0  0  0  0  0
  188.6770  177.5030  148.0830 C   0  0  0  0  0  3  0  0  0  0  0  0
  188.9760  177.2060  145.7160 N   0  0  0  0  0  0  0  0  0  0  0  0
  184.6640  178.9740  140.8270 C   0  0  0  0  0  0  0  0  0  0  0  0
  184.6040  179.7010  139.6190 N   0  0  0  0  0  0  0  0  0  0  0  0
  183.4790  179.1780  140.1890 C   0  0  1  0  0  3  0  0  0  0  0  0
  185.4140  178.4240  141.9050 N   0  0  0  0  0  2  0  0  0  0  0  0
  183.0610  177.9250  139.4830 C   0  0  0  0  0  0  0  0  0  0  0  0
  182.6810  177.8690  138.1610 C   0  0  0  0  0  3  0  0  0  0  0  0
  183.0100  176.7310  140.0260 O   0  0  0  0  0  0  0  0  0  0  0  0
  182.6070  175.8700  139.1220 C   0  0  0  0  0  3  0  0  0  0  0  0
  182.3880  176.5360  137.9290 C   0  0  0  0  0  3  0  0  0  0  0  0
  189.4170  177.5410  139.2540 C   0  0  0  0  0  2  0  0  0  0  0  0
  189.3720  178.6210  138.1880 C   0  0  0  0  0  2  0  0  0  0  0  0
  188.1090  177.0070  136.7230 N   0  0  0  0  0  2  0  0  0  0  0  0
  188.2720  178.3330  137.2290 C   0  0  0  0  0  0  0  0  0  0  0  0
  187.5280  179.2680  136.8320 O   0  0  0  0  0  0  0  0  0  0  0  0
  185.8080  176.2380  136.5070 C   0  0  0  0  0  1  0  0  0  0  0  0
  187.0680  176.6520  135.7710 C   0  0  0  0  0  2  0  0  0  0  0  0
  1  6  1  0  0  0  0
  1  3  1  0  0  0  0
  2  5  1  0  0  0  0
  3 20  1  6  0  0  0
  3  5  1  0  0  0  0
  4  2  1  0  0  0  0
  5 13  1  1  0  0  0
  6 26  1  6  0  0  0
  6  4  1  0  0  0  0
  7 11  1  0  0  0  0
  8 16  1  0  0  0  0
  8  7  2  0  0  0  0
  9 14  1  0  0  0  0
  9 15  1  0  0  0  0
 10  7  1  0  0  0  0
 11 15  2  0  0  0  0
 12 10  1  0  0  0  0
 13 12  2  0  0  0  0
 13  8  1  0  0  0  0
 16  9  2  0  0  0  0
 17 20  1  0  0  0  0
 18 19  1  0  0  0  0
 18 17  2  0  0  0  0
 19 21  1  6  0  0  0
 19 17  1  0  0  0  0
 21 23  1  0  0  0  0
 22 21  2  0  0  0  0
 24 23  1  0  0  0  0
 25 22  1  0  0  0  0
 25 24  2  0  0  0  0
 27 26  1  0  0  0  0
 28 29  1  0  0  0  0
 29 27  1  0  0  0  0
 30 29  2  0  0  0  0
 32 31  1  0  0  0  0
 32 28  1  0  0  0  0
M  END
>  <MODEL>
2

>  <REMARK>
 VINA RESULT:      -8.9      1.759      2.006
  Name = 
  7 active torsions:
  status: ('A' for Active; 'I' for Inactive)
    1  A    between atoms: N_4  and  C_18
    2  A    between atoms: C_7  and  C_23
    3  A    between atoms: C_7  and  C_30
    4  A    between atoms: C_10  and  N_26
    5  A    between atoms: C_16  and  C_21
    6  A    between atoms: C_17  and  C_22
    7  A    between atoms: C_23  and  C_25
                            x       y       z     vdW  Elec       q    Type
                         _______ _______ _______ _____ _____    ______ ____

>  <TORSDO>
F 7

$$$$
=
 OpenBabel11042410133D

 32 36  0  0  1  0  0  0  0  0999 V2000
  187.2270  178.3220  142.4040 C   0  0  0  0  0  2  0  0  0  0  0  0
  187.1470  178.5200  139.5480 O   0  0  0  0  0  0  0  0  0  0  0  0
  188.4300  177.9770  141.5250 C   0  0  2  0  0  3  0  0  0  0  0  0
  185.9560  178.5980  140.2910 C   0  0  0  0  0  2  0  0  0  0  0  0
  187.9330  177.5160  140.1440 C   0  0  2  0  0  3  0  0  0  0  0  0
  186.2430  179.2190  141.6590 C   0  0  1  0  0  3  0  0  0  0  0  0
  190.2040  176.3020  137.4560 C   0  0  0  0  0  0  0  0  0  0  0  0
  188.9710  176.3970  138.0250 C   0  0  0  0  0  0  0  0  0  0  0  0
  188.0270  175.1700  136.2710 C   0  0  0  0  0  0  0  0  0  0  0  0
  191.2170  177.0170  138.2770 C   0  0  0  0  0  3  0  0  0  0  0  0
  190.3840  175.6470  136.2830 N   0  0  0  0  0  0  0  0  0  0  0  0
  190.3470  177.5430  139.4000 C   0  0  0  0  0  3  0  0  0  0  0  0
  189.0740  177.1690  139.2360 C   0  0  0  0  0  0  0  0  0  0  0  0
  186.6370  174.4420  135.4950 Cl  0  0  0  0  0  0  0  0  0  0  0  0
  189.3020  175.0750  135.6740 C   0  0  0  0  0  3  0  0  0  0  0  0
  187.8750  175.8430  137.4490 N   0  0  0  0  0  2  0  0  0  0  0  0
  190.4820  177.1930  142.7180 C   0  0  0  0  0  0  0  0  0  0  0  0
  191.5410  178.0890  142.9790 N   0  0  0  0  0  0  0  0  0  0  0  0
  191.5870  176.7940  143.4040 C   0  0  1  0  0  3  0  0  0  0  0  0
  189.2010  176.9210  142.1610 N   0  0  0  0  0  2  0  0  0  0  0  0
  191.2720  176.7030  144.8660 C   0  0  0  0  0  0  0  0  0  0  0  0
  190.1270  177.2050  145.4450 C   0  0  0  0  0  3  0  0  0  0  0  0
  192.0320  176.1340  145.7710 O   0  0  0  0  0  0  0  0  0  0  0  0
  191.4470  176.2340  146.9410 C   0  0  0  0  0  3  0  0  0  0  0  0
  190.2430  176.8990  146.7890 C   0  0  0  0  0  3  0  0  0  0  0  0
  184.9660  179.3280  142.4720 C   0  0  0  0  0  2  0  0  0  0  0  0
  184.8250  178.1490  143.4190 C   0  0  0  0  0  2  0  0  0  0  0  0
  185.8110  178.3240  145.7310 N   0  0  0  0  0  2  0  0  0  0  0  0
  184.7550  178.6390  144.8220 C   0  0  0  0  0  0  0  0  0  0  0  0
  183.7430  179.2810  145.2100 O   0  0  0  0  0  0  0  0  0  0  0  0
  187.1680  178.5200  147.7440 C   0  0  0  0  0  1  0  0  0  0  0  0
  185.8050  178.7530  147.1210 C   0  0  0  0  0  2  0  0  0  0  0  0
  2  5  1  0  0  0  0
  2  4  1  0  0  0  0
  3 20  1  1  0  0  0
  3  1  1  0  0  0  0
  4  6  1  0  0  0  0
  5 13  1  6  0  0  0
  5  3  1  0  0  0  0
  6  1  1  0  0  0  0
  6 26  1  1  0  0  0
  7  8  1  0  0  0  0
  7 10  1  0  0  0  0
  8 13  2  0  0  0  0
  9 16  1  0  0  0  0
 10 12  2  0  0  0  0
 11  7  2  0  0  0  0
 13 12  1  0  0  0  0
 14  9  1  0  0  0  0
 15  9  2  0  0  0  0
 15 11  1  0  0  0  0
 16  8  1  0  0  0  0
 17 18  2  0  0  0  0
 17 19  1  0  0  0  0
 18 19  1  0  0  0  0
 19 21  1  1  0  0  0
 20 17  1  0  0  0  0
 21 22  2  0  0  0  0
 21 23  1  0  0  0  0
 22 25  1  0  0  0  0
 23 24  1  0  0  0  0
 25 24  2  0  0  0  0
 26 27  1  0  0  0  0
 27 29  1  0  0  0  0
 28 32  1  0  0  0  0
 29 30  2  0  0  0  0
 29 28  1  0  0  0  0
 32 31  1  0  0  0  0
M  END
>  <MODEL>
3

>  <REMARK>
 VINA RESULT:      -8.8      3.567      8.978
  Name = 
  7 active torsions:
  status: ('A' for Active; 'I' for Inactive)
    1  A    between atoms: N_4  and  C_18
    2  A    between atoms: C_7  and  C_23
    3  A    between atoms: C_7  and  C_30
    4  A    between atoms: C_10  and  N_26
    5  A    between atoms: C_16  and  C_21
    6  A    between atoms: C_17  and  C_22
    7  A    between atoms: C_23  and  C_25
                            x       y       z     vdW  Elec       q    Type
                         _______ _______ _______ _____ _____    ______ ____

>  <TORSDO>
F 7

$$$$
=
 OpenBabel11042410133D

 32 36  0  0  1  0  0  0  0  0999 V2000
  184.0560  178.6150  142.9010 C   0  0  0  0  0  2  0  0  0  0  0  0
  181.2830  179.2990  142.6900 O   0  0  0  0  0  0  0  0  0  0  0  0
  183.3630  178.8120  141.5530 C   0  0  2  0  0  3  0  0  0  0  0  0
  181.8120  178.8810  143.9240 C   0  0  0  0  0  2  0  0  0  0  0  0
  181.8660  178.4830  141.7010 C   0  0  2  0  0  3  0  0  0  0  0  0
  183.2800  179.2980  144.0230 C   0  0  1  0  0  3  0  0  0  0  0  0
  179.9090  178.1560  138.5520 C   0  0  0  0  0  0  0  0  0  0  0  0
  180.4870  177.6170  139.6600 C   0  0  0  0  0  0  0  0  0  0  0  0
  179.6940  175.4920  139.0840 C   0  0  0  0  0  0  0  0  0  0  0  0
  180.1470  179.6230  138.4970 C   0  0  0  0  0  3  0  0  0  0  0  0
  179.2070  177.3860  137.6850 N   0  0  0  0  0  0  0  0  0  0  0  0
  180.9470  179.8250  139.7680 C   0  0  0  0  0  3  0  0  0  0  0  0
  181.1330  178.6650  140.4070 C   0  0  0  0  0  0  0  0  0  0  0  0
  179.5440  173.7800  139.4160 Cl  0  0  0  0  0  0  0  0  0  0  0  0
  179.0880  176.0480  137.9380 C   0  0  0  0  0  3  0  0  0  0  0  0
  180.3890  176.2940  139.9440 N   0  0  0  0  0  2  0  0  0  0  0  0
  184.5980  178.4750  139.4070 C   0  0  0  0  0  0  0  0  0  0  0  0
  184.9500  179.5820  138.6050 N   0  0  0  0  0  0  0  0  0  0  0  0
  185.3090  178.3120  138.2570 C   0  0  1  0  0  3  0  0  0  0  0  0
  183.9740  177.9350  140.5670 N   0  0  0  0  0  2  0  0  0  0  0  0
  186.7490  178.0590  138.5830 C   0  0  0  0  0  0  0  0  0  0  0  0
  187.5930  177.2870  137.8160 C   0  0  0  0  0  3  0  0  0  0  0  0
  187.3860  178.5410  139.6230 O   0  0  0  0  0  0  0  0  0  0  0  0
  188.6280  178.1220  139.5930 C   0  0  0  0  0  3  0  0  0  0  0  0
  188.8110  177.3300  138.4720 C   0  0  0  0  0  3  0  0  0  0  0  0
  183.8650  178.8710  145.3560 C   0  0  0  0  0  2  0  0  0  0  0  0
  185.3110  178.4350  145.1970 C   0  0  0  0  0  2  0  0  0  0  0  0
  187.1600  177.8240  146.7970 N   0  0  0  0  0  2  0  0  0  0  0  0
  186.0450  178.6580  146.4710 C   0  0  0  0  0  0  0  0  0  0  0  0
  185.6470  179.5410  147.2750 O   0  0  0  0  0  0  0  0  0  0  0  0
  189.3470  177.5170  147.8210 C   0  0  0  0  0  1  0  0  0  0  0  0
  187.9160  177.9710  148.0310 C   0  0  0  0  0  2  0  0  0  0  0  0
  1  6  1  0  0  0  0
  2  4  1  0  0  0  0
  3 20  1  6  0  0  0
  3  5  1  0  0  0  0
  3  1  1  0  0  0  0
  4  6  1  0  0  0  0
  5 13  1  6  0  0  0
  5  2  1  0  0  0  0
  6 26  1  1  0  0  0
  7  8  1  0  0  0  0
  8 16  1  0  0  0  0
  8 13  2  0  0  0  0
  9 14  1  0  0  0  0
  9 16  1  0  0  0  0
 10  7  1  0  0  0  0
 10 12  2  0  0  0  0
 11 15  1  0  0  0  0
 11  7  2  0  0  0  0
 12 13  1  0  0  0  0
 15  9  2  0  0  0  0
 17 20  1  0  0  0  0
 18 17  2  0  0  0  0
 19 21  1  1  0  0  0
 19 18  1  0  0  0  0
 19 17  1  0  0  0  0
 21 23  1  0  0  0  0
 22 25  1  0  0  0  0
 22 21  2  0  0  0  0
 24 23  1  0  0  0  0
 25 24  2  0  0  0  0
 27 26  1  0  0  0  0
 27 29  1  0  0  0  0
 28 32  1  0  0  0  0
 29 28  1  0  0  0  0
 29 30  2  0  0  0  0
 31 32  1  0  0  0  0
M  END
>  <MODEL>
4

>  <REMARK>
 VINA RESULT:      -8.6      3.906      8.631
  Name = 
  7 active torsions:
  status: ('A' for Active; 'I' for Inactive)
    1  A    between atoms: N_4  and  C_18
    2  A    between atoms: C_7  and  C_23
    3  A    between atoms: C_7  and  C_30
    4  A    between atoms: C_10  and  N_26
    5  A    between atoms: C_16  and  C_21
    6  A    between atoms: C_17  and  C_22
    7  A    between atoms: C_23  and  C_25
                            x       y       z     vdW  Elec       q    Type
                         _______ _______ _______ _____ _____    ______ ____

>  <TORSDO>
F 7

$$$$
=
 OpenBabel11042410133D

 32 36  0  0  1  0  0  0  0  0999 V2000
  187.8220  178.1790  141.7410 C   0  0  0  0  0  2  0  0  0  0  0  0
  188.3310  177.9660  138.9310 O   0  0  0  0  0  0  0  0  0  0  0  0
  189.1950  177.7980  141.1850 C   0  0  2  0  0  3  0  0  0  0  0  0
  187.0100  178.0660  139.4000 C   0  0  0  0  0  2  0  0  0  0  0  0
  189.0140  177.1130  139.8190 C   0  0  2  0  0  3  0  0  0  0  0  0
  186.9810  178.8920  140.6870 C   0  0  1  0  0  3  0  0  0  0  0  0
  191.8550  175.5960  137.9520 C   0  0  0  0  0  0  0  0  0  0  0  0
  190.5370  175.6420  138.2900 C   0  0  0  0  0  0  0  0  0  0  0  0
  190.0710  173.8470  136.8640 C   0  0  0  0  0  0  0  0  0  0  0  0
  192.6150  176.6620  138.6570 C   0  0  0  0  0  3  0  0  0  0  0  0
  192.3160  174.6840  137.0620 N   0  0  0  0  0  0  0  0  0  0  0  0
  191.5030  177.3270  139.4420 C   0  0  0  0  0  3  0  0  0  0  0  0
  190.3310  176.7210  139.2210 C   0  0  0  0  0  0  0  0  0  0  0  0
  188.9360  172.7190  136.1540 Cl  0  0  0  0  0  0  0  0  0  0  0  0
  191.4350  173.8000  136.5050 C   0  0  0  0  0  3  0  0  0  0  0  0
  189.6330  174.7820  137.7580 N   0  0  0  0  0  2  0  0  0  0  0  0
  190.8260  177.3900  143.0340 C   0  0  0  0  0  0  0  0  0  0  0  0
  191.5960  178.4530  143.5530 N   0  0  0  0  0  0  0  0  0  0  0  0
  191.6880  177.1930  144.0690 C   0  0  1  0  0  3  0  0  0  0  0  0
  189.8560  176.8980  142.1150 N   0  0  0  0  0  2  0  0  0  0  0  0
  190.9220  177.0890  145.3520 C   0  0  0  0  0  0  0  0  0  0  0  0
  189.6260  177.5240  145.5200 C   0  0  0  0  0  3  0  0  0  0  0  0
  191.3790  176.5700  146.4670 O   0  0  0  0  0  0  0  0  0  0  0  0
  190.4440  176.6400  147.3840 C   0  0  0  0  0  3  0  0  0  0  0  0
  189.3180  177.2310  146.8370 C   0  0  0  0  0  3  0  0  0  0  0  0
  185.5600  179.0270  141.2020 C   0  0  0  0  0  2  0  0  0  0  0  0
  185.2180  177.8910  142.1490 C   0  0  0  0  0  2  0  0  0  0  0  0
  185.5210  178.6090  144.5450 N   0  0  0  0  0  2  0  0  0  0  0  0
  184.6630  178.4430  143.4140 C   0  0  0  0  0  0  0  0  0  0  0  0
  183.4350  178.7100  143.4940 O   0  0  0  0  0  0  0  0  0  0  0  0
  185.8030  178.4740  146.9600 C   0  0  0  0  0  1  0  0  0  0  0  0
  185.0480  179.1280  145.8200 C   0  0  0  0  0  2  0  0  0  0  0  0
  2  4  1  0  0  0  0
  2  5  1  0  0  0  0
  3  1  1  0  0  0  0
  3 20  1  1  0  0  0
  4  6  1  0  0  0  0
  5 13  1  6  0  0  0
  5  3  1  0  0  0  0
  6 26  1  1  0  0  0
  6  1  1  0  0  0  0
  7  8  1  0  0  0  0
  7 10  1  0  0  0  0
  8 13  2  0  0  0  0
  9 16  1  0  0  0  0
 10 12  2  0  0  0  0
 11  7  2  0  0  0  0
 13 12  1  0  0  0  0
 14  9  1  0  0  0  0
 15  9  2  0  0  0  0
 15 11  1  0  0  0  0
 16  8  1  0  0  0  0
 17 18  2  0  0  0  0
 17 19  1  0  0  0  0
 18 19  1  0  0  0  0
 19 21  1  1  0  0  0
 20 17  1  0  0  0  0
 21 22  2  0  0  0  0
 21 23  1  0  0  0  0
 22 25  1  0  0  0  0
 23 24  1  0  0  0  0
 25 24  2  0  0  0  0
 26 27  1  0  0  0  0
 27 29  1  0  0  0  0
 28 32  1  0  0  0  0
 29 30  2  0  0  0  0
 29 28  1  0  0  0  0
 32 31  1  0  0  0  0
M  END
>  <MODEL>
5

>  <REMARK>
 VINA RESULT:      -8.6      3.407      8.826
  Name = 
  7 active torsions:
  status: ('A' for Active; 'I' for Inactive)
    1  A    between atoms: N_4  and  C_18
    2  A    between atoms: C_7  and  C_23
    3  A    between atoms: C_7  and  C_30
    4  A    between atoms: C_10  and  N_26
    5  A    between atoms: C_16  and  C_21
    6  A    between atoms: C_17  and  C_22
    7  A    between atoms: C_23  and  C_25
                            x       y       z     vdW  Elec       q    Type
                         _______ _______ _______ _____ _____    ______ ____

>  <TORSDO>
F 7

$$$$
=
 OpenBabel11042410133D

 32 36  0  0  1  0  0  0  0  0999 V2000
  190.1290  176.3930  144.1710 C   0  0  0  0  0  2  0  0  0  0  0  0
  190.8490  177.9880  141.9030 O   0  0  0  0  0  0  0  0  0  0  0  0
  189.3140  176.3920  142.8770 C   0  0  2  0  0  3  0  0  0  0  0  0
  191.4690  178.2120  143.1450 C   0  0  0  0  0  2  0  0  0  0  0  0
  189.4870  177.7460  142.1680 C   0  0  2  0  0  3  0  0  0  0  0  0
  191.5470  176.8980  143.9250 C   0  0  1  0  0  3  0  0  0  0  0  0
  188.1450  177.4180  138.7110 C   0  0  0  0  0  0  0  0  0  0  0  0
  189.0990  177.1710  139.6500 C   0  0  0  0  0  0  0  0  0  0  0  0
  190.3280  175.8980  138.1200 C   0  0  0  0  0  0  0  0  0  0  0  0
  187.0500  178.2460  139.2820 C   0  0  0  0  0  3  0  0  0  0  0  0
  188.2510  176.9120  137.4580 N   0  0  0  0  0  0  0  0  0  0  0  0
  187.5390  178.4160  140.7050 C   0  0  0  0  0  3  0  0  0  0  0  0
  188.7120  177.8000  140.8870 C   0  0  0  0  0  0  0  0  0  0  0  0
  191.7230  174.9160  137.7260 Cl  0  0  0  0  0  0  0  0  0  0  0  0
  189.3380  176.1460  137.1450 C   0  0  0  0  0  3  0  0  0  0  0  0
  190.1910  176.4140  139.3760 N   0  0  0  0  0  2  0  0  0  0  0  0
  187.2840  176.8840  144.2510 C   0  0  0  0  0  0  0  0  0  0  0  0
  187.3490  177.8140  145.3100 N   0  0  0  0  0  0  0  0  0  0  0  0
  186.1780  177.1950  144.9800 C   0  0  1  0  0  3  0  0  0  0  0  0
  187.9130  176.1660  143.1940 N   0  0  0  0  0  2  0  0  0  0  0  0
  185.2950  178.1150  144.1950 C   0  0  0  0  0  0  0  0  0  0  0  0
  184.6780  179.2310  144.7160 C   0  0  0  0  0  3  0  0  0  0  0  0
  185.0050  177.9830  142.9220 O   0  0  0  0  0  0  0  0  0  0  0  0
  184.2120  178.9640  142.5620 C   0  0  0  0  0  3  0  0  0  0  0  0
  183.9770  179.7800  143.6560 C   0  0  0  0  0  3  0  0  0  0  0  0
  192.2310  177.1130  145.2630 C   0  0  0  0  0  2  0  0  0  0  0  0
  191.6980  176.1440  146.3040 C   0  0  0  0  0  2  0  0  0  0  0  0
  189.9200  177.4830  147.4850 N   0  0  0  0  0  2  0  0  0  0  0  0
  191.2240  176.9000  147.4940 C   0  0  0  0  0  0  0  0  0  0  0  0
  191.9940  177.0640  148.4770 O   0  0  0  0  0  0  0  0  0  0  0  0
  187.9460  177.8720  148.8570 C   0  0  0  0  0  1  0  0  0  0  0  0
  189.3930  178.2490  148.6040 C   0  0  0  0  0  2  0  0  0  0  0  0
  2  5  1  0  0  0  0
  2  4  1  0  0  0  0
  3 20  1  1  0  0  0
  3  1  1  0  0  0  0
  4  6  1  0  0  0  0
  5 13  1  6  0  0  0
  5  3  1  0  0  0  0
  6  1  1  0  0  0  0
  6 26  1  1  0  0  0
  7 10  1  0  0  0  0
  7  8  1  0  0  0  0
  8 13  2  0  0  0  0
  9 16  1  0  0  0  0
 10 12  2  0  0  0  0
 11  7  2  0  0  0  0
 12 13  1  0  0  0  0
 14  9  1  0  0  0  0
 15 11  1  0  0  0  0
 15  9  2  0  0  0  0
 16  8  1  0  0  0  0
 17 19  1  0  0  0  0
 17 18  2  0  0  0  0
 19 21  1  6  0  0  0
 19 18  1  0  0  0  0
 20 17  1  0  0  0  0
 21 22  2  0  0  0  0
 23 21  1  0  0  0  0
 24 23  1  0  0  0  0
 24 25  2  0  0  0  0
 25 22  1  0  0  0  0
 26 27  1  0  0  0  0
 27 29  1  0  0  0  0
 28 29  1  0  0  0  0
 28 32  1  0  0  0  0
 29 30  2  0  0  0  0
 32 31  1  0  0  0  0
M  END
>  <MODEL>
6

>  <REMARK>
 VINA RESULT:      -8.5      3.189      7.269
  Name = 
  7 active torsions:
  status: ('A' for Active; 'I' for Inactive)
    1  A    between atoms: N_4  and  C_18
    2  A    between atoms: C_7  and  C_23
    3  A    between atoms: C_7  and  C_30
    4  A    between atoms: C_10  and  N_26
    5  A    between atoms: C_16  and  C_21
    6  A    between atoms: C_17  and  C_22
    7  A    between atoms: C_23  and  C_25
                            x       y       z     vdW  Elec       q    Type
                         _______ _______ _______ _____ _____    ______ ____

>  <TORSDO>
F 7

$$$$
=
 OpenBabel11042410133D

 32 36  0  0  1  0  0  0  0  0999 V2000
  187.3550  178.2430  142.3680 C   0  0  0  0  0  2  0  0  0  0  0  0
  187.5500  178.3950  139.5150 O   0  0  0  0  0  0  0  0  0  0  0  0
  188.6470  177.9160  141.6180 C   0  0  2  0  0  3  0  0  0  0  0  0
  186.2910  178.4530  140.1370 C   0  0  0  0  0  2  0  0  0  0  0  0
  188.2990  177.4210  140.2030 C   0  0  2  0  0  3  0  0  0  0  0  0
  186.4270  179.1020  141.5150 C   0  0  1  0  0  3  0  0  0  0  0  0
  190.8460  176.2690  137.7460 C   0  0  0  0  0  0  0  0  0  0  0  0
  189.5580  176.3610  138.1760 C   0  0  0  0  0  0  0  0  0  0  0  0
  188.8050  175.2080  136.2840 C   0  0  0  0  0  0  0  0  0  0  0  0
  191.7670  176.9410  138.7010 C   0  0  0  0  0  3  0  0  0  0  0  0
  191.1500  175.6520  136.5780 N   0  0  0  0  0  0  0  0  0  0  0  0
  190.7810  177.4400  139.7360 C   0  0  0  0  0  3  0  0  0  0  0  0
  189.5310  177.0900  139.4180 C   0  0  0  0  0  0  0  0  0  0  0  0
  187.5050  174.5260  135.3320 Cl  0  0  0  0  0  0  0  0  0  0  0  0
  190.1390  175.1160  135.8310 C   0  0  0  0  0  3  0  0  0  0  0  0
  188.5280  175.8420  137.4610 N   0  0  0  0  0  2  0  0  0  0  0  0
  190.5970  177.2020  143.0090 C   0  0  0  0  0  0  0  0  0  0  0  0
  191.6100  178.1250  143.3430 N   0  0  0  0  0  0  0  0  0  0  0  0
  191.6430  176.8400  143.8000 C   0  0  1  0  0  3  0  0  0  0  0  0
  189.3760  176.8900  142.3450 N   0  0  0  0  0  2  0  0  0  0  0  0
  191.1980  176.7740  145.2290 C   0  0  0  0  0  0  0  0  0  0  0  0
  190.0210  177.3110  145.7010 C   0  0  0  0  0  3  0  0  0  0  0  0
  191.8610  176.1960  146.2030 O   0  0  0  0  0  0  0  0  0  0  0  0
  191.1790  176.3240  147.3160 C   0  0  0  0  0  3  0  0  0  0  0  0
  190.0100  177.0180  147.0530 C   0  0  0  0  0  3  0  0  0  0  0  0
  185.0740  179.1910  142.1980 C   0  0  0  0  0  2  0  0  0  0  0  0
  185.1790  178.7930  143.6590 C   0  0  0  0  0  2  0  0  0  0  0  0
  182.6670  178.7230  143.4830 N   0  0  0  0  0  2  0  0  0  0  0  0
  183.8350  178.8590  144.2940 C   0  0  0  0  0  0  0  0  0  0  0  0
  183.7380  179.0860  145.5290 O   0  0  0  0  0  0  0  0  0  0  0  0
  180.3210  179.0470  142.9170 C   0  0  0  0  0  1  0  0  0  0  0  0
  181.3200  178.7930  144.0280 C   0  0  0  0  0  2  0  0  0  0  0  0
  2  4  1  0  0  0  0
  2  5  1  0  0  0  0
  3 20  1  1  0  0  0
  3  1  1  0  0  0  0
  4  6  1  0  0  0  0
  5 13  1  6  0  0  0
  5  3  1  0  0  0  0
  6 26  1  1  0  0  0
  6  1  1  0  0  0  0
  7  8  1  0  0  0  0
  7 10  1  0  0  0  0
  8 13  2  0  0  0  0
  9 16  1  0  0  0  0
 10 12  2  0  0  0  0
 11  7  2  0  0  0  0
 13 12  1  0  0  0  0
 14  9  1  0  0  0  0
 15  9  2  0  0  0  0
 15 11  1  0  0  0  0
 16  8  1  0  0  0  0
 17 18  2  0  0  0  0
 17 19  1  0  0  0  0
 18 19  1  0  0  0  0
 19 21  1  1  0  0  0
 20 17  1  0  0  0  0
 21 22  2  0  0  0  0
 21 23  1  0  0  0  0
 22 25  1  0  0  0  0
 23 24  1  0  0  0  0
 25 24  2  0  0  0  0
 26 27  1  0  0  0  0
 27 29  1  0  0  0  0
 28 32  1  0  0  0  0
 28 29  1  0  0  0  0
 29 30  2  0  0  0  0
 31 32  1  0  0  0  0
M  END
>  <MODEL>
7

>  <REMARK>
 VINA RESULT:      -8.5      3.689      9.065
  Name = 
  7 active torsions:
  status: ('A' for Active; 'I' for Inactive)
    1  A    between atoms: N_4  and  C_18
    2  A    between atoms: C_7  and  C_23
    3  A    between atoms: C_7  and  C_30
    4  A    between atoms: C_10  and  N_26
    5  A    between atoms: C_16  and  C_21
    6  A    between atoms: C_17  and  C_22
    7  A    between atoms: C_23  and  C_25
                            x       y       z     vdW  Elec       q    Type
                         _______ _______ _______ _____ _____    ______ ____

>  <TORSDO>
F 7

$$$$
=
 OpenBabel11042410133D

 32 36  0  0  1  0  0  0  0  0999 V2000
  190.9210  176.4280  141.4360 C   0  0  0  0  0  2  0  0  0  0  0  0
  188.6480  178.0660  140.8400 O   0  0  0  0  0  0  0  0  0  0  0  0
  190.6220  176.9300  140.0230 C   0  0  2  0  0  3  0  0  0  0  0  0
  188.7420  177.4220  142.0860 C   0  0  0  0  0  2  0  0  0  0  0  0
  189.1060  177.1490  139.8740 C   0  0  2  0  0  3  0  0  0  0  0  0
  190.2130  177.2820  142.4830 C   0  0  1  0  0  3  0  0  0  0  0  0
  187.8680  177.6900  136.4060 C   0  0  0  0  0  0  0  0  0  0  0  0
  188.0100  176.9150  137.5150 C   0  0  0  0  0  0  0  0  0  0  0  0
  186.7770  175.1960  136.5170 C   0  0  0  0  0  0  0  0  0  0  0  0
  188.5280  179.0090  136.5990 C   0  0  0  0  0  3  0  0  0  0  0  0
  187.1770  177.2470  135.3270 N   0  0  0  0  0  0  0  0  0  0  0  0
  189.0570  178.8540  138.0090 C   0  0  0  0  0  3  0  0  0  0  0  0
  188.7550  177.6490  138.5060 C   0  0  0  0  0  0  0  0  0  0  0  0
  186.0670  173.5970  136.5750 Cl  0  0  0  0  0  0  0  0  0  0  0  0
  186.6220  175.9980  135.3660 C   0  0  0  0  0  3  0  0  0  0  0  0
  187.4720  175.6720  137.5910 N   0  0  0  0  0  2  0  0  0  0  0  0
  192.2170  176.2150  138.2360 C   0  0  0  0  0  0  0  0  0  0  0  0
  193.2440  177.0840  137.8090 N   0  0  0  0  0  0  0  0  0  0  0  0
  193.1200  175.8260  137.2960 C   0  0  1  0  0  3  0  0  0  0  0  0
  191.0850  175.9470  139.0570 N   0  0  0  0  0  2  0  0  0  0  0  0
  194.1250  174.9010  137.9100 C   0  0  0  0  0  0  0  0  0  0  0  0
  194.2190  173.5560  137.6240 C   0  0  0  0  0  3  0  0  0  0  0  0
  195.0400  175.2480  138.7840 O   0  0  0  0  0  0  0  0  0  0  0  0
  195.7470  174.1910  139.1040 C   0  0  0  0  0  3  0  0  0  0  0  0
  195.2710  173.0990  138.3980 C   0  0  0  0  0  3  0  0  0  0  0  0
  190.3370  176.6050  143.8360 C   0  0  0  0  0  2  0  0  0  0  0  0
  190.5100  177.6320  144.9410 C   0  0  0  0  0  2  0  0  0  0  0  0
  188.0940  177.8810  145.6130 N   0  0  0  0  0  2  0  0  0  0  0  0
  189.4240  177.4740  145.9450 C   0  0  0  0  0  0  0  0  0  0  0  0
  189.6930  177.0360  147.0940 O   0  0  0  0  0  0  0  0  0  0  0  0
  185.8120  178.6020  146.0590 C   0  0  0  0  0  1  0  0  0  0  0  0
  186.9840  177.7730  146.5470 C   0  0  0  0  0  2  0  0  0  0  0  0
  1  6  1  0  0  0  0
  2  4  1  0  0  0  0
  3 20  1  6  0  0  0
  3  1  1  0  0  0  0
  4  6  1  0  0  0  0
  5 13  1  6  0  0  0
  5  3  1  0  0  0  0
  5  2  1  0  0  0  0
  6 26  1  1  0  0  0
  7 10  1  0  0  0  0
  7  8  1  0  0  0  0
  8 16  1  0  0  0  0
  8 13  2  0  0  0  0
  9 14  1  0  0  0  0
  9 16  1  0  0  0  0
 10 12  2  0  0  0  0
 11 15  1  0  0  0  0
 11  7  2  0  0  0  0
 12 13  1  0  0  0  0
 15  9  2  0  0  0  0
 17 20  1  0  0  0  0
 18 17  2  0  0  0  0
 19 18  1  0  0  0  0
 19 21  1  1  0  0  0
 19 17  1  0  0  0  0
 21 23  1  0  0  0  0
 22 21  2  0  0  0  0
 22 25  1  0  0  0  0
 23 24  1  0  0  0  0
 25 24  2  0  0  0  0
 26 27  1  0  0  0  0
 27 29  1  0  0  0  0
 28 29  1  0  0  0  0
 28 32  1  0  0  0  0
 29 30  2  0  0  0  0
 31 32  1  0  0  0  0
M  END
>  <MODEL>
8

>  <REMARK>
 VINA RESULT:      -8.5      3.776      9.163
  Name = 
  7 active torsions:
  status: ('A' for Active; 'I' for Inactive)
    1  A    between atoms: N_4  and  C_18
    2  A    between atoms: C_7  and  C_23
    3  A    between atoms: C_7  and  C_30
    4  A    between atoms: C_10  and  N_26
    5  A    between atoms: C_16  and  C_21
    6  A    between atoms: C_17  and  C_22
    7  A    between atoms: C_23  and  C_25
                            x       y       z     vdW  Elec       q    Type
                         _______ _______ _______ _____ _____    ______ ____

>  <TORSDO>
F 7

$$$$
=
 OpenBabel11042410133D

 32 36  0  0  1  0  0  0  0  0999 V2000
  186.1470  178.3800  141.8120 C   0  0  0  0  0  2  0  0  0  0  0  0
  186.7640  177.3740  144.4220 O   0  0  0  0  0  0  0  0  0  0  0  0
  187.4910  177.7300  142.1420 C   0  0  2  0  0  3  0  0  0  0  0  0
  185.6310  178.1850  144.2310 C   0  0  0  0  0  2  0  0  0  0  0  0
  187.7950  177.9260  143.6370 C   0  0  2  0  0  3  0  0  0  0  0  0
  185.0780  177.9720  142.8210 C   0  0  1  0  0  3  0  0  0  0  0  0
  190.8500  176.6210  145.3160 C   0  0  0  0  0  0  0  0  0  0  0  0
  189.6670  177.2920  145.3450 C   0  0  1  0  0  3  0  0  0  0  0  0
  189.8820  177.6480  147.6470 C   0  0  0  0  0  0  0  0  0  0  0  0
  191.1470  176.1400  143.9400 C   0  0  0  0  0  3  0  0  0  0  0  0
  191.5780  176.4390  146.4450 N   0  0  0  0  0  0  0  0  0  0  0  0
  189.9260  176.6430  143.1980 C   0  0  0  0  0  3  0  0  0  0  0  0
  189.1020  177.3020  144.0200 C   0  0  0  0  0  0  0  0  0  0  0  0
  189.2710  178.2990  149.1530 Cl  0  0  0  0  0  0  0  0  0  0  0  0
  191.1070  176.9470  147.6230 C   0  0  0  0  0  3  0  0  0  0  0  0
  189.1670  177.8080  146.4960 N   0  0  0  0  0  0  0  0  0  0  0  0
  189.2910  177.5630  140.4150 C   0  0  0  0  0  0  0  0  0  0  0  0
  189.6040  176.3170  139.8300 N   0  0  0  0  0  0  0  0  0  0  0  0
  190.2370  177.4620  139.4420 C   0  0  1  0  0  3  0  0  0  0  0  0
  188.5320  178.3430  141.3330 N   0  0  0  0  0  2  0  0  0  0  0  0
  189.6840  177.9590  138.1420 C   0  0  0  0  0  0  0  0  0  0  0  0
  189.7810  177.2810  136.9470 C   0  0  0  0  0  3  0  0  0  0  0  0
  189.0360  179.0880  137.9780 O   0  0  0  0  0  0  0  0  0  0  0  0
  188.6940  179.2020  136.7170 C   0  0  0  0  0  3  0  0  0  0  0  0
  189.1380  178.0880  136.0250 C   0  0  0  0  0  3  0  0  0  0  0  0
  183.8430  178.8250  142.6000 C   0  0  0  0  0  2  0  0  0  0  0  0
  182.9750  178.8540  143.8460 C   0  0  0  0  0  2  0  0  0  0  0  0
  181.1780  179.3160  142.1410 N   0  0  0  0  0  2  0  0  0  0  0  0
  181.5400  178.8900  143.4560 C   0  0  0  0  0  0  0  0  0  0  0  0
  180.6550  178.5960  144.3020 O   0  0  0  0  0  0  0  0  0  0  0  0
  179.2910  180.8190  141.8040 C   0  0  0  0  0  1  0  0  0  0  0  0
  179.7960  179.3930  141.6920 C   0  0  0  0  0  2  0  0  0  0  0  0
  1  3  1  0  0  0  0
  1  6  1  0  0  0  0
  3 20  1  6  0  0  0
  3  5  1  0  0  0  0
  4  2  1  0  0  0  0
  5 13  1  1  0  0  0
  5  2  1  0  0  0  0
  6 26  1  6  0  0  0
  6  4  1  0  0  0  0
  7  8  1  0  0  0  0
  7 11  1  0  0  0  0
  8 13  1  1  0  0  0
  8 16  1  0  0  0  0
  9 14  1  0  0  0  0
 10  7  2  0  0  0  0
 11 15  2  0  0  0  0
 12 10  1  0  0  0  0
 12 13  2  0  0  0  0
 15  9  1  0  0  0  0
 16  9  2  0  0  0  0
 17 20  1  0  0  0  0
 18 17  2  0  0  0  0
 19 21  1  6  0  0  0
 19 18  1  0  0  0  0
 19 17  1  0  0  0  0
 22 21  2  0  0  0  0
 23 21  1  0  0  0  0
 24 23  1  0  0  0  0
 25 24  2  0  0  0  0
 25 22  1  0  0  0  0
 26 27  1  0  0  0  0
 28 29  1  0  0  0  0
 29 27  1  0  0  0  0
 29 30  2  0  0  0  0
 32 31  1  0  0  0  0
 32 28  1  0  0  0  0
M  END
>  <MODEL>
9

>  <REMARK>
 VINA RESULT:      -8.2      2.835      6.778
  Name = 
  7 active torsions:
  status: ('A' for Active; 'I' for Inactive)
    1  A    between atoms: N_4  and  C_18
    2  A    between atoms: C_7  and  C_23
    3  A    between atoms: C_7  and  C_30
    4  A    between atoms: C_10  and  N_26
    5  A    between atoms: C_16  and  C_21
    6  A    between atoms: C_17  and  C_22
    7  A    between atoms: C_23  and  C_25
                            x       y       z     vdW  Elec       q    Type
                         _______ _______ _______ _____ _____    ______ ____

>  <TORSDO>
F 7

$$$$
