=
 OpenBabel11032420423D

 45 48  0  0  1  0  0  0  0  0999 V2000
  186.4020  177.9470  137.4580 C   0  0  0  0  0  3  0  0  0  0  0  0
  187.6400  177.8150  137.8480 C   0  0  0  0  0  0  0  0  0  0  0  0
  188.8790  177.6850  138.2440 C   0  0  0  0  0  0  0  0  0  0  0  0
  188.3190  177.8130  140.6910 C   0  0  0  0  0  2  0  0  0  0  0  0
  190.6760  177.6570  139.9990 C   0  0  0  0  0  2  0  0  0  0  0  0
  189.3100  178.1900  139.5930 C   0  0  1  0  0  3  0  0  0  0  0  0
  191.5410  176.9660  142.1550 N   0  0  0  0  0  0  0  0  0  0  0  0
  189.1370  177.5220  141.9360 C   0  0  0  0  0  2  0  0  0  0  0  0
  190.5260  177.3480  141.4360 C   0  0  0  0  0  0  0  0  0  0  0  0
  191.7020  175.4100  143.9560 N   0  0  0  0  0  2  0  0  0  0  0  0
  191.5440  176.6280  143.5510 C   0  0  0  0  0  0  0  0  0  0  0  0
  191.5010  177.7230  144.5580 C   0  0  0  0  0  2  0  0  0  0  0  0
  190.1890  177.6640  145.3300 C   0  0  0  0  0  2  0  0  0  0  0  0
  190.3160  176.8460  146.6120 C   0  0  1  0  0  3  0  0  0  0  0  0
  191.5130  177.1440  147.2670 O   0  0  0  0  0  1  0  0  0  0  0  0
  188.9140  177.1270  147.7150 S   0  0  1  0  0  0  0  0  0  0  0  0
  189.3120  178.3770  148.4860 O   0  0  0  0  0  0  0  0  0  0  0  0
  187.6210  177.7210  146.6130 C   0  0  0  0  0  1  0  0  0  0  0  0
  186.1790  177.2730  135.0720 O   0  0  0  0  0  1  0  0  0  0  0  0
  185.8120  175.6000  136.7690 C   0  0  0  0  0  2  0  0  0  0  0  0
  184.4880  176.3380  136.6080 C   0  0  2  0  0  3  0  0  0  0  0  0
  185.8110  177.0620  136.4010 C   0  0  1  0  0  0  0  0  0  0  0  0
  183.8850  176.5960  137.9830 C   0  0  0  0  0  2  0  0  0  0  0  0
  182.6220  177.4290  137.8560 C   0  0  0  0  0  2  0  0  0  0  0  0
  182.8650  178.8360  138.3750 C   0  0  0  0  0  2  0  0  0  0  0  0
  183.8440  179.1050  142.0840 N   0  0  0  0  0  0  0  0  0  0  0  0
  185.0620  179.3410  142.8670 C   0  0  0  0  0  2  0  0  0  0  0  0
  185.0460  179.4090  140.1000 O   0  0  0  0  0  0  0  0  0  0  0  0
  182.8030  178.8470  139.8290 N   0  0  0  0  0  2  0  0  0  0  0  0
  181.4920  179.2060  142.1660 O   0  0  0  0  0  0  0  0  0  0  0  0
  185.0190  178.6050  144.2030 C   0  0  0  0  0  2  0  0  0  0  0  0
  183.7680  179.0200  144.9590 C   0  0  0  0  0  2  0  0  0  0  0  0
  182.5290  178.5590  144.2040 C   0  0  0  0  0  2  0  0  0  0  0  0
  183.9420  179.1390  140.6460 C   0  0  0  0  0  0  0  0  0  0  0  0
  182.5770  178.9900  142.7680 C   0  0  0  0  0  0  0  0  0  0  0  0
  189.8340  177.1050  137.3530 N   0  0  0  0  0  2  0  0  0  0  0  0
  189.4490  176.2790  136.2860 N   0  0  0  0  0  2  0  0  0  0  0  0
  193.1280  174.1330  136.2980 C   0  0  0  0  0  0  0  0  0  0  0  0
  189.6200  173.5370  137.2890 N   0  0  0  0  0  1  0  0  0  0  0  0
  190.7680  174.4180  137.1590 C   0  0  2  0  0  3  0  0  0  0  0  0
  191.8330  176.2050  135.7970 C   0  0  0  0  0  2  0  0  0  0  0  0
  190.5620  175.3850  135.9930 C   0  0  2  0  0  3  0  0  0  0  0  0
  194.2010  173.4170  136.2460 N   0  0  0  0  0  2  0  0  0  0  0  0
  192.9890  175.3040  135.3740 C   0  0  0  0  0  2  0  0  0  0  0  0
  191.9740  173.6170  136.9680 N   0  0  0  0  0  2  0  0  0  0  0  0
  1  2  2  0  0  0  0
  2  3  2  0  0  0  0
  4  8  1  0  0  0  0
  5  9  1  0  0  0  0
  6  3  1  6  0  0  0
  6  5  1  0  0  0  0
  6  4  1  0  0  0  0
  7 11  1  0  0  0  0
  9  8  1  0  0  0  0
  9  7  2  0  0  0  0
 11 10  2  0  0  0  0
 11 12  1  0  0  0  0
 12 13  1  0  0  0  0
 13 14  1  0  0  0  0
 14 15  1  1  0  0  0
 14 16  1  0  0  0  0
 16 18  1  6  0  0  0
 16 17  2  0  0  0  0
 21 20  1  0  0  0  0
 21 23  1  1  0  0  0
 22 19  1  6  0  0  0
 22 21  1  0  0  0  0
 22 20  1  0  0  0  0
 22  1  1  0  0  0  0
 24 23  1  0  0  0  0
 24 25  1  0  0  0  0
 25 29  1  0  0  0  0
 26 35  1  0  0  0  0
 26 27  1  0  0  0  0
 27 31  1  0  0  0  0
 28 34  2  0  0  0  0
 29 34  1  0  0  0  0
 30 35  2  0  0  0  0
 31 32  1  0  0  0  0
 33 32  1  0  0  0  0
 34 26  1  0  0  0  0
 35 33  1  0  0  0  0
 36  3  1  0  0  0  0
 37 36  1  0  0  0  0
 38 45  1  0  0  0  0
 40 39  1  6  0  0  0
 41 42  1  0  0  0  0
 42 37  1  1  0  0  0
 42 40  1  0  0  0  0
 43 38  2  0  0  0  0
 44 41  1  0  0  0  0
 44 38  1  0  0  0  0
 45 40  1  0  0  0  0
M  END
>  <MODEL>
1

>  <REMARK>
 VINA RESULT:      -8.1      0.000      0.000
  Name = 
  14 active torsions:
  status: ('A' for Active; 'I' for Inactive)
    1  A    between atoms: S_3  and  C_14
    2  A    between atoms: C_6  and  C_23
    3  A    between atoms: C_6  and  C_33
    4  A    between atoms: N_8  and  N_15
    5  A    between atoms: N_8  and  C_25
    6  A    between atoms: C_10  and  C_42
    7  A    between atoms: C_14  and  C_45
    8  A    between atoms: N_15  and  C_43
    9  A    between atoms: C_17  and  C_37
   10  A    between atoms: C_17  and  C_45
   11  A    between atoms: C_18  and  N_21
   12  A    between atoms: C_18  and  C_23
   13  A    between atoms: C_24  and  C_43
   14  A    between atoms: N_27  and  C_37
                            x       y       z     vdW  Elec       q    Type
                         _______ _______ _______ _____ _____    ______ ____

>  <TORSDO>
F 14

$$$$
=
 OpenBabel11032420423D

 45 48  0  0  1  0  0  0  0  0999 V2000
  185.2990  178.3940  142.7110 C   0  0  0  0  0  3  0  0  0  0  0  0
  186.5820  178.1940  142.5760 C   0  0  0  0  0  0  0  0  0  0  0  0
  187.8660  177.9960  142.4340 C   0  0  0  0  0  0  0  0  0  0  0  0
  189.9010  177.6010  141.0120 C   0  0  0  0  0  2  0  0  0  0  0  0
  187.7110  177.9020  139.9300 C   0  0  0  0  0  2  0  0  0  0  0  0
  188.5510  178.3040  141.1320 C   0  0  1  0  0  3  0  0  0  0  0  0
  188.3420  176.9600  137.7870 N   0  0  0  0  0  0  0  0  0  0  0  0
  190.0590  177.2070  139.5550 C   0  0  0  0  0  2  0  0  0  0  0  0
  188.6900  177.3210  138.9880 C   0  0  0  0  0  0  0  0  0  0  0  0
  189.6920  177.0900  135.8240 N   0  0  0  0  0  2  0  0  0  0  0  0
  189.1770  176.3780  136.7730 C   0  0  0  0  0  0  0  0  0  0  0  0
  189.5700  174.9480  136.8970 C   0  0  0  0  0  2  0  0  0  0  0  0
  190.9740  174.7480  136.3410 C   0  0  0  0  0  2  0  0  0  0  0  0
  192.0410  174.8550  137.4260 C   0  0  1  0  0  3  0  0  0  0  0  0
  192.6980  173.6340  137.5890 O   0  0  0  0  0  1  0  0  0  0  0  0
  193.2320  176.1610  137.0560 S   0  0  1  0  0  0  0  0  0  0  0  0
  194.5360  175.6260  137.6320 O   0  0  0  0  0  0  0  0  0  0  0  0
  193.4800  176.0160  135.2800 C   0  0  0  0  0  1  0  0  0  0  0  0
  185.2880  178.0110  145.1710 O   0  0  0  0  0  1  0  0  0  0  0  0
  184.2260  180.0010  144.3210 C   0  0  0  0  0  2  0  0  0  0  0  0
  183.1880  178.8900  144.2180 C   0  0  2  0  0  3  0  0  0  0  0  0
  184.6710  178.5850  144.0590 C   0  0  1  0  0  0  0  0  0  0  0  0
  182.4650  179.0000  142.8810 C   0  0  0  0  0  2  0  0  0  0  0  0
  180.9820  178.7250  143.0610 C   0  0  0  0  0  2  0  0  0  0  0  0
  180.3710  178.2560  141.7520 C   0  0  0  0  0  2  0  0  0  0  0  0
  182.5570  176.9790  138.8570 N   0  0  0  0  0  0  0  0  0  0  0  0
  182.6500  175.7780  138.0200 C   0  0  0  0  0  2  0  0  0  0  0  0
  180.6630  176.1060  139.9190 O   0  0  0  0  0  0  0  0  0  0  0  0
  181.4010  178.1620  140.7280 N   0  0  0  0  0  2  0  0  0  0  0  0
  183.1260  179.2630  138.9610 O   0  0  0  0  0  0  0  0  0  0  0  0
  184.0900  175.4970  137.6030 C   0  0  0  0  0  2  0  0  0  0  0  0
  184.6530  176.7220  136.9030 C   0  0  0  0  0  2  0  0  0  0  0  0
  184.7350  177.8870  137.8810 C   0  0  0  0  0  2  0  0  0  0  0  0
  181.5000  177.0470  139.8350 C   0  0  0  0  0  0  0  0  0  0  0  0
  183.4260  178.0990  138.5820 C   0  0  0  0  0  0  0  0  0  0  0  0
  188.6030  177.4280  143.5190 N   0  0  0  0  0  2  0  0  0  0  0  0
  188.4480  177.8790  144.8390 N   0  0  0  0  0  2  0  0  0  0  0  0
  191.6560  176.5660  147.3150 C   0  0  0  0  0  0  0  0  0  0  0  0
  188.1450  177.6320  147.7380 N   0  0  0  0  0  1  0  0  0  0  0  0
  189.4310  177.7420  147.0700 C   0  0  2  0  0  3  0  0  0  0  0  0
  190.7530  177.1230  145.0570 C   0  0  0  0  0  2  0  0  0  0  0  0
  189.3590  177.1130  145.6790 C   0  0  2  0  0  3  0  0  0  0  0  0
  192.5720  176.0960  148.0940 N   0  0  0  0  0  2  0  0  0  0  0  0
  191.6990  176.2320  145.8550 C   0  0  0  0  0  2  0  0  0  0  0  0
  190.4550  177.0950  147.8860 N   0  0  0  0  0  2  0  0  0  0  0  0
  1 22  1  0  0  0  0
  2  1  2  0  0  0  0
  3  2  2  0  0  0  0
  3 36  1  0  0  0  0
  4  6  1  0  0  0  0
  5  6  1  0  0  0  0
  6  3  1  1  0  0  0
  7  9  2  0  0  0  0
  8  4  1  0  0  0  0
  9  8  1  0  0  0  0
  9  5  1  0  0  0  0
 10 11  2  0  0  0  0
 11 12  1  0  0  0  0
 11  7  1  0  0  0  0
 13 12  1  0  0  0  0
 13 14  1  0  0  0  0
 14 15  1  6  0  0  0
 16 18  1  6  0  0  0
 16 14  1  0  0  0  0
 16 17  2  0  0  0  0
 21 23  1  6  0  0  0
 21 20  1  0  0  0  0
 22 21  1  0  0  0  0
 22 20  1  0  0  0  0
 22 19  1  1  0  0  0
 23 24  1  0  0  0  0
 25 24  1  0  0  0  0
 26 34  1  0  0  0  0
 27 26  1  0  0  0  0
 29 25  1  0  0  0  0
 31 27  1  0  0  0  0
 32 31  1  0  0  0  0
 32 33  1  0  0  0  0
 33 35  1  0  0  0  0
 34 28  2  0  0  0  0
 34 29  1  0  0  0  0
 35 26  1  0  0  0  0
 35 30  2  0  0  0  0
 36 37  1  0  0  0  0
 38 45  1  0  0  0  0
 38 43  2  0  0  0  0
 40 39  1  1  0  0  0
 40 45  1  0  0  0  0
 41 42  1  0  0  0  0
 41 44  1  0  0  0  0
 42 37  1  6  0  0  0
 42 40  1  0  0  0  0
 44 38  1  0  0  0  0
M  END
>  <MODEL>
2

>  <REMARK>
 VINA RESULT:      -8.0      3.268      7.931
  Name = 
  14 active torsions:
  status: ('A' for Active; 'I' for Inactive)
    1  A    between atoms: S_3  and  C_14
    2  A    between atoms: C_6  and  C_23
    3  A    between atoms: C_6  and  C_33
    4  A    between atoms: N_8  and  N_15
    5  A    between atoms: N_8  and  C_25
    6  A    between atoms: C_10  and  C_42
    7  A    between atoms: C_14  and  C_45
    8  A    between atoms: N_15  and  C_43
    9  A    between atoms: C_17  and  C_37
   10  A    between atoms: C_17  and  C_45
   11  A    between atoms: C_18  and  N_21
   12  A    between atoms: C_18  and  C_23
   13  A    between atoms: C_24  and  C_43
   14  A    between atoms: N_27  and  C_37
                            x       y       z     vdW  Elec       q    Type
                         _______ _______ _______ _____ _____    ______ ____

>  <TORSDO>
F 14

$$$$
=
 OpenBabel11032420423D

 45 48  0  0  1  0  0  0  0  0999 V2000
  183.8600  179.0110  141.0250 C   0  0  0  0  0  3  0  0  0  0  0  0
  184.9940  178.6380  141.5510 C   0  0  0  0  0  0  0  0  0  0  0  0
  186.1280  178.2620  142.0820 C   0  0  0  0  0  0  0  0  0  0  0  0
  187.4090  176.6630  143.5380 C   0  0  0  0  0  2  0  0  0  0  0  0
  186.0840  178.4530  144.5860 C   0  0  0  0  0  2  0  0  0  0  0  0
  186.1540  177.5180  143.3880 C   0  0  1  0  0  3  0  0  0  0  0  0
  187.1670  178.3520  146.7520 N   0  0  0  0  0  0  0  0  0  0  0  0
  187.8010  176.7160  145.0040 C   0  0  0  0  0  2  0  0  0  0  0  0
  187.0400  177.8690  145.5500 C   0  0  0  0  0  0  0  0  0  0  0  0
  187.6250  177.2110  148.7970 N   0  0  0  0  0  2  0  0  0  0  0  0
  188.0530  177.8950  147.7870 C   0  0  0  0  0  0  0  0  0  0  0  0
  189.5190  178.0970  147.6210 C   0  0  0  0  0  2  0  0  0  0  0  0
  190.1920  176.7670  147.3110 C   0  0  0  0  0  2  0  0  0  0  0  0
  191.4340  176.9420  146.4440 C   0  0  1  0  0  3  0  0  0  0  0  0
  192.2020  175.7750  146.4460 O   0  0  0  0  0  1  0  0  0  0  0  0
  190.9990  177.3990  144.7510 S   0  0  1  0  0  0  0  0  0  0  0  0
  191.9960  178.4990  144.4130 O   0  0  0  0  0  0  0  0  0  0  0  0
  191.5820  176.0050  143.7740 C   0  0  0  0  0  1  0  0  0  0  0  0
  184.1480  180.5270  139.0720 O   0  0  0  0  0  1  0  0  0  0  0  0
  184.1810  178.1480  138.6840 C   0  0  0  0  0  2  0  0  0  0  0  0
  182.7120  178.5560  138.6900 C   0  0  2  0  0  3  0  0  0  0  0  0
  183.7260  179.2890  139.5580 C   0  0  1  0  0  0  0  0  0  0  0  0
  181.9070  177.5250  139.4720 C   0  0  0  0  0  2  0  0  0  0  0  0
  180.5130  177.3920  138.8860 C   0  0  0  0  0  2  0  0  0  0  0  0
  180.5870  176.8640  137.4630 C   0  0  0  0  0  2  0  0  0  0  0  0
  182.3800  173.5600  136.6500 N   0  0  0  0  0  0  0  0  0  0  0  0
  182.0590  172.2890  135.9920 C   0  0  0  0  0  2  0  0  0  0  0  0
  180.2550  174.3840  136.1190 O   0  0  0  0  0  0  0  0  0  0  0  0
  181.5950  175.8180  137.3740 N   0  0  0  0  0  2  0  0  0  0  0  0
  184.1600  174.9660  137.2860 O   0  0  0  0  0  0  0  0  0  0  0  0
  182.8310  171.1280  136.6120 C   0  0  0  0  0  2  0  0  0  0  0  0
  184.3180  171.4350  136.5600 C   0  0  0  0  0  2  0  0  0  0  0  0
  184.6290  172.6410  137.4370 C   0  0  0  0  0  2  0  0  0  0  0  0
  181.3650  174.5840  136.6850 C   0  0  0  0  0  0  0  0  0  0  0  0
  183.7290  173.7960  137.1100 C   0  0  0  0  0  0  0  0  0  0  0  0
  187.3500  178.6180  141.4320 N   0  0  0  0  0  2  0  0  0  0  0  0
  187.4350  178.7630  140.0380 N   0  0  0  0  0  2  0  0  0  0  0  0
  190.9510  176.7790  138.6820 C   0  0  0  0  0  0  0  0  0  0  0  0
  188.4660  179.1530  137.3290 N   0  0  0  0  0  1  0  0  0  0  0  0
  188.8060  178.0120  138.1630 C   0  0  2  0  0  3  0  0  0  0  0  0
  189.2800  177.2360  140.4770 C   0  0  0  0  0  2  0  0  0  0  0  0
  188.7900  178.4130  139.6380 C   0  0  2  0  0  3  0  0  0  0  0  0
  192.0550  176.2640  138.2550 N   0  0  0  0  0  2  0  0  0  0  0  0
  190.7380  176.9240  140.1590 C   0  0  0  0  0  2  0  0  0  0  0  0
  190.1170  177.5020  137.7720 N   0  0  0  0  0  2  0  0  0  0  0  0
  1  2  2  0  0  0  0
  2  3  2  0  0  0  0
  4  8  1  0  0  0  0
  5  9  1  0  0  0  0
  6  3  1  6  0  0  0
  6  4  1  0  0  0  0
  6  5  1  0  0  0  0
  7 11  1  0  0  0  0
  8  9  1  0  0  0  0
  9  7  2  0  0  0  0
 11 10  2  0  0  0  0
 12 11  1  0  0  0  0
 13 12  1  0  0  0  0
 14 15  1  6  0  0  0
 14 13  1  0  0  0  0
 16 18  1  6  0  0  0
 16 14  1  0  0  0  0
 17 16  2  0  0  0  0
 20 21  1  0  0  0  0
 20 22  1  0  0  0  0
 21 23  1  1  0  0  0
 21 22  1  0  0  0  0
 22 19  1  6  0  0  0
 22  1  1  0  0  0  0
 24 23  1  0  0  0  0
 25 24  1  0  0  0  0
 26 34  1  0  0  0  0
 26 35  1  0  0  0  0
 27 31  1  0  0  0  0
 27 26  1  0  0  0  0
 28 34  2  0  0  0  0
 29 25  1  0  0  0  0
 32 31  1  0  0  0  0
 32 33  1  0  0  0  0
 34 29  1  0  0  0  0
 35 30  2  0  0  0  0
 35 33  1  0  0  0  0
 36  3  1  0  0  0  0
 37 36  1  0  0  0  0
 38 44  1  0  0  0  0
 40 39  1  6  0  0  0
 40 42  1  0  0  0  0
 42 37  1  1  0  0  0
 42 41  1  0  0  0  0
 43 38  2  0  0  0  0
 44 41  1  0  0  0  0
 45 40  1  0  0  0  0
 45 38  1  0  0  0  0
M  END
>  <MODEL>
3

>  <REMARK>
 VINA RESULT:      -8.0      3.025      5.690
  Name = 
  14 active torsions:
  status: ('A' for Active; 'I' for Inactive)
    1  A    between atoms: S_3  and  C_14
    2  A    between atoms: C_6  and  C_23
    3  A    between atoms: C_6  and  C_33
    4  A    between atoms: N_8  and  N_15
    5  A    between atoms: N_8  and  C_25
    6  A    between atoms: C_10  and  C_42
    7  A    between atoms: C_14  and  C_45
    8  A    between atoms: N_15  and  C_43
    9  A    between atoms: C_17  and  C_37
   10  A    between atoms: C_17  and  C_45
   11  A    between atoms: C_18  and  N_21
   12  A    between atoms: C_18  and  C_23
   13  A    between atoms: C_24  and  C_43
   14  A    between atoms: N_27  and  C_37
                            x       y       z     vdW  Elec       q    Type
                         _______ _______ _______ _____ _____    ______ ____

>  <TORSDO>
F 14

$$$$
=
 OpenBabel11032420423D

 45 48  0  0  1  0  0  0  0  0999 V2000
  185.5900  178.2490  137.9800 C   0  0  0  0  0  3  0  0  0  0  0  0
  186.8770  178.0570  138.0840 C   0  0  0  0  0  0  0  0  0  0  0  0
  188.1650  177.8660  138.1950 C   0  0  0  0  0  0  0  0  0  0  0  0
  188.0380  178.3990  140.6480 C   0  0  0  0  0  2  0  0  0  0  0  0
  190.1370  177.5180  139.7110 C   0  0  0  0  0  2  0  0  0  0  0  0
  188.9140  178.3670  139.3980 C   0  0  1  0  0  3  0  0  0  0  0  0
  191.1070  176.8390  141.8270 N   0  0  0  0  0  0  0  0  0  0  0  0
  188.9300  178.0210  141.8170 C   0  0  0  0  0  2  0  0  0  0  0  0
  190.1310  177.4140  141.1860 C   0  0  0  0  0  0  0  0  0  0  0  0
  191.6320  175.5420  143.7590 N   0  0  0  0  0  2  0  0  0  0  0  0
  191.2330  176.6600  143.2470 C   0  0  0  0  0  0  0  0  0  0  0  0
  191.0300  177.8320  144.1410 C   0  0  0  0  0  2  0  0  0  0  0  0
  190.5820  177.3590  145.5180 C   0  0  0  0  0  2  0  0  0  0  0  0
  189.1130  177.6750  145.7820 C   0  0  1  0  0  3  0  0  0  0  0  0
  188.2930  176.9620  144.9050 O   0  0  0  0  0  1  0  0  0  0  0  0
  188.6570  177.3190  147.4930 S   0  0  1  0  0  0  0  0  0  0  0  0
  189.6220  178.1740  148.3030 O   0  0  0  0  0  0  0  0  0  0  0  0
  187.0860  178.1710  147.6980 C   0  0  0  0  0  1  0  0  0  0  0  0
  185.3150  176.7720  135.9950 O   0  0  0  0  0  1  0  0  0  0  0  0
  183.8480  176.4380  137.8780 C   0  0  0  0  0  2  0  0  0  0  0  0
  183.2210  177.5500  137.0440 C   0  0  2  0  0  3  0  0  0  0  0  0
  184.7340  177.3820  137.1070 C   0  0  1  0  0  0  0  0  0  0  0  0
  182.7140  178.6480  137.9710 C   0  0  0  0  0  2  0  0  0  0  0  0
  181.2050  178.5600  138.1140 C   0  0  0  0  0  2  0  0  0  0  0  0
  180.7810  179.0020  139.5040 C   0  0  0  0  0  2  0  0  0  0  0  0
  182.8300  178.6800  142.7420 N   0  0  0  0  0  0  0  0  0  0  0  0
  182.5820  178.7180  144.1880 C   0  0  0  0  0  2  0  0  0  0  0  0
  180.5370  178.8960  142.3310 O   0  0  0  0  0  0  0  0  0  0  0  0
  181.8880  178.8440  140.4350 N   0  0  0  0  0  2  0  0  0  0  0  0
  184.3440  177.9300  141.1000 O   0  0  0  0  0  0  0  0  0  0  0  0
  183.7760  179.2910  144.9450 C   0  0  0  0  0  2  0  0  0  0  0  0
  185.0170  178.4830  144.6020 C   0  0  0  0  0  2  0  0  0  0  0  0
  185.3550  178.6520  143.1270 C   0  0  0  0  0  2  0  0  0  0  0  0
  181.7010  178.8040  141.8540 C   0  0  0  0  0  0  0  0  0  0  0  0
  184.1590  178.3810  142.2620 C   0  0  0  0  0  0  0  0  0  0  0  0
  188.8650  177.2240  137.1270 N   0  0  0  0  0  2  0  0  0  0  0  0
  188.5320  175.9310  136.6930 N   0  0  0  0  0  2  0  0  0  0  0  0
  192.5060  174.5040  136.1350 C   0  0  0  0  0  0  0  0  0  0  0  0
  189.2520  173.1490  137.2390 N   0  0  0  0  0  1  0  0  0  0  0  0
  190.2180  174.2330  137.1770 C   0  0  2  0  0  3  0  0  0  0  0  0
  190.8410  176.3590  136.0490 C   0  0  0  0  0  2  0  0  0  0  0  0
  189.7480  175.3040  136.1940 C   0  0  2  0  0  3  0  0  0  0  0  0
  193.6750  174.0080  135.9050 N   0  0  0  0  0  2  0  0  0  0  0  0
  192.0890  175.7520  135.4180 C   0  0  0  0  0  2  0  0  0  0  0  0
  191.5200  173.6980  136.7870 N   0  0  0  0  0  2  0  0  0  0  0  0
  1  2  2  0  0  0  0
  2  3  2  0  0  0  0
  4  8  1  0  0  0  0
  5  9  1  0  0  0  0
  6  3  1  6  0  0  0
  6  5  1  0  0  0  0
  6  4  1  0  0  0  0
  7 11  1  0  0  0  0
  9  8  1  0  0  0  0
  9  7  2  0  0  0  0
 11 10  2  0  0  0  0
 11 12  1  0  0  0  0
 12 13  1  0  0  0  0
 13 14  1  0  0  0  0
 14 15  1  6  0  0  0
 14 16  1  0  0  0  0
 16 18  1  6  0  0  0
 16 17  2  0  0  0  0
 21 22  1  0  0  0  0
 21 20  1  0  0  0  0
 21 23  1  1  0  0  0
 22 19  1  6  0  0  0
 22 20  1  0  0  0  0
 22  1  1  0  0  0  0
 23 24  1  0  0  0  0
 24 25  1  0  0  0  0
 25 29  1  0  0  0  0
 26 27  1  0  0  0  0
 27 31  1  0  0  0  0
 29 34  1  0  0  0  0
 30 35  2  0  0  0  0
 32 31  1  0  0  0  0
 33 32  1  0  0  0  0
 34 28  2  0  0  0  0
 34 26  1  0  0  0  0
 35 26  1  0  0  0  0
 35 33  1  0  0  0  0
 36  3  1  0  0  0  0
 37 36  1  0  0  0  0
 38 45  1  0  0  0  0
 40 39  1  6  0  0  0
 41 42  1  0  0  0  0
 42 37  1  1  0  0  0
 42 40  1  0  0  0  0
 43 38  2  0  0  0  0
 44 41  1  0  0  0  0
 44 38  1  0  0  0  0
 45 40  1  0  0  0  0
M  END
>  <MODEL>
4

>  <REMARK>
 VINA RESULT:      -7.9      1.114      1.708
  Name = 
  14 active torsions:
  status: ('A' for Active; 'I' for Inactive)
    1  A    between atoms: S_3  and  C_14
    2  A    between atoms: C_6  and  C_23
    3  A    between atoms: C_6  and  C_33
    4  A    between atoms: N_8  and  N_15
    5  A    between atoms: N_8  and  C_25
    6  A    between atoms: C_10  and  C_42
    7  A    between atoms: C_14  and  C_45
    8  A    between atoms: N_15  and  C_43
    9  A    between atoms: C_17  and  C_37
   10  A    between atoms: C_17  and  C_45
   11  A    between atoms: C_18  and  N_21
   12  A    between atoms: C_18  and  C_23
   13  A    between atoms: C_24  and  C_43
   14  A    between atoms: N_27  and  C_37
                            x       y       z     vdW  Elec       q    Type
                         _______ _______ _______ _____ _____    ______ ____

>  <TORSDO>
F 14

$$$$
=
 OpenBabel11032420423D

 45 48  0  0  1  0  0  0  0  0999 V2000
  183.4190  177.0740  138.8940 C   0  0  0  0  0  3  0  0  0  0  0  0
  182.7250  177.5260  139.9020 C   0  0  0  0  0  0  0  0  0  0  0  0
  182.0340  177.9820  140.9140 C   0  0  0  0  0  0  0  0  0  0  0  0
  182.0220  178.7120  143.3190 C   0  0  0  0  0  2  0  0  0  0  0  0
  184.1620  178.5650  142.1130 C   0  0  0  0  0  2  0  0  0  0  0  0
  182.6790  178.8600  141.9490 C   0  0  1  0  0  3  0  0  0  0  0  0
  185.5750  178.5430  144.0820 N   0  0  0  0  0  0  0  0  0  0  0  0
  183.1300  178.8290  144.3500 C   0  0  0  0  0  2  0  0  0  0  0  0
  184.3820  178.6380  143.5730 C   0  0  0  0  0  0  0  0  0  0  0  0
  185.4590  179.4860  146.2710 N   0  0  0  0  0  2  0  0  0  0  0  0
  185.9380  178.5900  145.4720 C   0  0  0  0  0  0  0  0  0  0  0  0
  186.7780  177.4970  146.0340 C   0  0  0  0  0  2  0  0  0  0  0  0
  188.0420  177.3360  145.2000 C   0  0  0  0  0  2  0  0  0  0  0  0
  189.3060  177.5480  146.0280 C   0  0  1  0  0  3  0  0  0  0  0  0
  189.1900  176.9160  147.2680 O   0  0  0  0  0  1  0  0  0  0  0  0
  190.7730  176.9540  145.1580 S   0  0  1  0  0  0  0  0  0  0  0  0
  191.4710  178.2350  144.7240 O   0  0  0  0  0  0  0  0  0  0  0  0
  191.8290  176.3420  146.4810 C   0  0  0  0  0  1  0  0  0  0  0  0
  181.4420  176.1920  137.6660 O   0  0  0  0  0  1  0  0  0  0  0  0
  183.0060  177.5780  136.4640 C   0  0  0  0  0  2  0  0  0  0  0  0
  183.5720  176.1630  136.4190 C   0  0  2  0  0  3  0  0  0  0  0  0
  182.7620  176.6390  137.6180 C   0  0  1  0  0  0  0  0  0  0  0  0
  185.0740  176.2140  136.6670 C   0  0  0  0  0  2  0  0  0  0  0  0
  185.8090  176.5400  135.3800 C   0  0  0  0  0  2  0  0  0  0  0  0
  187.2870  176.7550  135.6570 C   0  0  0  0  0  2  0  0  0  0  0  0
  188.8980  177.4630  139.0760 N   0  0  0  0  0  0  0  0  0  0  0  0
  190.2170  177.3170  139.7020 C   0  0  0  0  0  2  0  0  0  0  0  0
  189.7660  176.7030  137.0410 O   0  0  0  0  0  0  0  0  0  0  0  0
  187.4800  177.1490  137.0440 N   0  0  0  0  0  2  0  0  0  0  0  0
  186.8490  178.6160  139.2260 O   0  0  0  0  0  0  0  0  0  0  0  0
  190.0980  177.0300  141.1960 C   0  0  0  0  0  2  0  0  0  0  0  0
  189.2780  178.1290  141.8500 C   0  0  0  0  0  2  0  0  0  0  0  0
  187.8510  178.0980  141.3180 C   0  0  0  0  0  2  0  0  0  0  0  0
  188.7580  177.0950  137.6900 C   0  0  0  0  0  0  0  0  0  0  0  0
  187.8310  178.0950  139.8180 C   0  0  0  0  0  0  0  0  0  0  0  0
  180.6680  177.5870  141.0540 N   0  0  0  0  0  2  0  0  0  0  0  0
  179.6090  178.4280  140.6770 N   0  0  0  0  0  2  0  0  0  0  0  0
  180.2630  181.7040  138.0370 C   0  0  0  0  0  0  0  0  0  0  0  0
  179.6530  181.1880  141.6430 N   0  0  0  0  0  1  0  0  0  0  0  0
  179.4250  180.8250  140.2540 C   0  0  2  0  0  3  0  0  0  0  0  0
  180.0230  179.2520  138.4240 C   0  0  0  0  0  2  0  0  0  0  0  0
  180.1710  179.5350  139.9160 C   0  0  2  0  0  3  0  0  0  0  0  0
  180.5380  182.7210  137.2890 N   0  0  0  0  0  2  0  0  0  0  0  0
  180.7090  180.3410  137.6040 C   0  0  0  0  0  2  0  0  0  0  0  0
  179.8570  181.9220  139.3910 N   0  0  0  0  0  2  0  0  0  0  0  0
  1  2  2  0  0  0  0
  2  3  2  0  0  0  0
  3 36  1  0  0  0  0
  4  8  1  0  0  0  0
  5  9  1  0  0  0  0
  6  3  1  6  0  0  0
  6  5  1  0  0  0  0
  6  4  1  0  0  0  0
  7 11  1  0  0  0  0
  9  7  2  0  0  0  0
  9  8  1  0  0  0  0
 11 12  1  0  0  0  0
 11 10  2  0  0  0  0
 13 14  1  0  0  0  0
 13 12  1  0  0  0  0
 14 15  1  1  0  0  0
 16 14  1  0  0  0  0
 16 18  1  1  0  0  0
 17 16  2  0  0  0  0
 20 22  1  0  0  0  0
 21 20  1  0  0  0  0
 21 23  1  1  0  0  0
 21 22  1  0  0  0  0
 22 19  1  1  0  0  0
 22  1  1  0  0  0  0
 24 25  1  0  0  0  0
 24 23  1  0  0  0  0
 25 29  1  0  0  0  0
 26 27  1  0  0  0  0
 26 35  1  0  0  0  0
 27 31  1  0  0  0  0
 28 34  2  0  0  0  0
 29 34  1  0  0  0  0
 30 35  2  0  0  0  0
 31 32  1  0  0  0  0
 33 32  1  0  0  0  0
 34 26  1  0  0  0  0
 35 33  1  0  0  0  0
 37 36  1  0  0  0  0
 38 45  1  0  0  0  0
 40 39  1  1  0  0  0
 41 42  1  0  0  0  0
 42 40  1  0  0  0  0
 42 37  1  1  0  0  0
 43 38  2  0  0  0  0
 44 38  1  0  0  0  0
 44 41  1  0  0  0  0
 45 40  1  0  0  0  0
M  END
>  <MODEL>
5

>  <REMARK>
 VINA RESULT:      -7.7      2.908      7.900
  Name = 
  14 active torsions:
  status: ('A' for Active; 'I' for Inactive)
    1  A    between atoms: S_3  and  C_14
    2  A    between atoms: C_6  and  C_23
    3  A    between atoms: C_6  and  C_33
    4  A    between atoms: N_8  and  N_15
    5  A    between atoms: N_8  and  C_25
    6  A    between atoms: C_10  and  C_42
    7  A    between atoms: C_14  and  C_45
    8  A    between atoms: N_15  and  C_43
    9  A    between atoms: C_17  and  C_37
   10  A    between atoms: C_17  and  C_45
   11  A    between atoms: C_18  and  N_21
   12  A    between atoms: C_18  and  C_23
   13  A    between atoms: C_24  and  C_43
   14  A    between atoms: N_27  and  C_37
                            x       y       z     vdW  Elec       q    Type
                         _______ _______ _______ _____ _____    ______ ____

>  <TORSDO>
F 14

$$$$
=
 OpenBabel11032420423D

 45 48  0  0  1  0  0  0  0  0999 V2000
  186.1310  179.3500  141.8580 C   0  0  0  0  0  3  0  0  0  0  0  0
  186.7150  178.9860  140.7490 C   0  0  0  0  0  0  0  0  0  0  0  0
  187.3060  178.6210  139.6420 C   0  0  0  0  0  0  0  0  0  0  0  0
  189.3240  177.5090  140.6460 C   0  0  0  0  0  2  0  0  0  0  0  0
  189.2780  177.9700  138.2290 C   0  0  0  0  0  2  0  0  0  0  0  0
  188.8010  178.4710  139.5830 C   0  0  1  0  0  3  0  0  0  0  0  0
  191.0630  176.4430  137.6320 N   0  0  0  0  0  0  0  0  0  0  0  0
  190.4860  176.7570  140.0200 C   0  0  0  0  0  2  0  0  0  0  0  0
  190.3430  177.0010  138.5610 C   0  0  0  0  0  0  0  0  0  0  0  0
  191.9380  174.2240  137.5890 N   0  0  0  0  0  2  0  0  0  0  0  0
  192.1210  175.4850  137.8040 C   0  0  0  0  0  0  0  0  0  0  0  0
  193.4940  175.9750  138.1040 C   0  0  0  0  0  2  0  0  0  0  0  0
  194.5090  174.8760  137.8170 C   0  0  0  0  0  2  0  0  0  0  0  0
  195.1870  175.0630  136.4640 C   0  0  1  0  0  3  0  0  0  0  0  0
  195.1720  176.4080  136.0890 O   0  0  0  0  0  1  0  0  0  0  0  0
  196.8820  174.4390  136.4830 S   0  0  1  0  0  0  0  0  0  0  0  0
  197.7010  175.6500  136.9080 O   0  0  0  0  0  0  0  0  0  0  0  0
  196.9280  173.3840  137.9410 C   0  0  0  0  0  1  0  0  0  0  0  0
  183.7450  179.3670  141.1490 O   0  0  0  0  0  1  0  0  0  0  0  0
  184.4610  177.6690  142.7020 C   0  0  0  0  0  2  0  0  0  0  0  0
  184.1440  178.9030  143.5400 C   0  0  2  0  0  3  0  0  0  0  0  0
  184.6880  179.0420  142.1240 C   0  0  1  0  0  0  0  0  0  0  0  0
  185.2210  179.0790  144.6020 C   0  0  0  0  0  2  0  0  0  0  0  0
  184.6090  179.0000  145.9900 C   0  0  0  0  0  2  0  0  0  0  0  0
  185.5880  178.3640  146.9620 C   0  0  0  0  0  2  0  0  0  0  0  0
  189.1480  177.1240  146.2040 N   0  0  0  0  0  0  0  0  0  0  0  0
  190.3360  176.7140  146.9620 C   0  0  0  0  0  2  0  0  0  0  0  0
  187.9550  177.3970  148.1980 O   0  0  0  0  0  0  0  0  0  0  0  0
  186.7950  177.9590  146.2580 N   0  0  0  0  0  2  0  0  0  0  0  0
  188.0870  176.9480  144.1080 O   0  0  0  0  0  0  0  0  0  0  0  0
  191.6210  177.0590  146.2170 C   0  0  0  0  0  2  0  0  0  0  0  0
  191.5820  176.4260  144.8360 C   0  0  0  0  0  2  0  0  0  0  0  0
  190.4600  177.0450  144.0140 C   0  0  0  0  0  2  0  0  0  0  0  0
  187.9620  177.4840  146.9390 C   0  0  0  0  0  0  0  0  0  0  0  0
  189.1600  177.0190  144.7630 C   0  0  0  0  0  0  0  0  0  0  0  0
  186.5160  178.4210  138.4680 N   0  0  0  0  0  2  0  0  0  0  0  0
  185.1380  178.1590  138.5360 N   0  0  0  0  0  2  0  0  0  0  0  0
  184.1640  175.2850  135.5470 C   0  0  0  0  0  0  0  0  0  0  0  0
  182.3640  177.5850  137.8090 N   0  0  0  0  0  1  0  0  0  0  0  0
  183.4700  176.6820  137.5380 C   0  0  2  0  0  3  0  0  0  0  0  0
  185.8660  176.5150  136.8940 C   0  0  0  0  0  2  0  0  0  0  0  0
  184.7560  177.4760  137.3080 C   0  0  2  0  0  3  0  0  0  0  0  0
  183.8240  174.4840  134.5940 N   0  0  0  0  0  2  0  0  0  0  0  0
  185.5420  175.8730  135.5490 C   0  0  0  0  0  2  0  0  0  0  0  0
  183.1480  175.8590  136.3750 N   0  0  0  0  0  2  0  0  0  0  0  0
  1 22  1  0  0  0  0
  2  1  2  0  0  0  0
  3  2  2  0  0  0  0
  5  9  1  0  0  0  0
  5  6  1  0  0  0  0
  6  3  1  6  0  0  0
  6  4  1  0  0  0  0
  7 11  1  0  0  0  0
  7  9  2  0  0  0  0
  8  4  1  0  0  0  0
  9  8  1  0  0  0  0
 10 11  2  0  0  0  0
 11 12  1  0  0  0  0
 13 12  1  0  0  0  0
 14 15  1  1  0  0  0
 14 16  1  0  0  0  0
 14 13  1  0  0  0  0
 16 17  2  0  0  0  0
 16 18  1  1  0  0  0
 20 21  1  0  0  0  0
 21 23  1  1  0  0  0
 22 19  1  6  0  0  0
 22 20  1  0  0  0  0
 22 21  1  0  0  0  0
 23 24  1  0  0  0  0
 24 25  1  0  0  0  0
 26 34  1  0  0  0  0
 26 27  1  0  0  0  0
 29 34  1  0  0  0  0
 29 25  1  0  0  0  0
 30 35  2  0  0  0  0
 31 27  1  0  0  0  0
 32 31  1  0  0  0  0
 33 35  1  0  0  0  0
 33 32  1  0  0  0  0
 34 28  2  0  0  0  0
 35 26  1  0  0  0  0
 36 37  1  0  0  0  0
 36  3  1  0  0  0  0
 38 44  1  0  0  0  0
 38 45  1  0  0  0  0
 40 39  1  6  0  0  0
 41 42  1  0  0  0  0
 42 40  1  0  0  0  0
 42 37  1  1  0  0  0
 43 38  2  0  0  0  0
 44 41  1  0  0  0  0
 45 40  1  0  0  0  0
M  END
>  <MODEL>
6

>  <REMARK>
 VINA RESULT:      -7.7      3.814      7.736
  Name = 
  14 active torsions:
  status: ('A' for Active; 'I' for Inactive)
    1  A    between atoms: S_3  and  C_14
    2  A    between atoms: C_6  and  C_23
    3  A    between atoms: C_6  and  C_33
    4  A    between atoms: N_8  and  N_15
    5  A    between atoms: N_8  and  C_25
    6  A    between atoms: C_10  and  C_42
    7  A    between atoms: C_14  and  C_45
    8  A    between atoms: N_15  and  C_43
    9  A    between atoms: C_17  and  C_37
   10  A    between atoms: C_17  and  C_45
   11  A    between atoms: C_18  and  N_21
   12  A    between atoms: C_18  and  C_23
   13  A    between atoms: C_24  and  C_43
   14  A    between atoms: N_27  and  C_37
                            x       y       z     vdW  Elec       q    Type
                         _______ _______ _______ _____ _____    ______ ____

>  <TORSDO>
F 14

$$$$
=
 OpenBabel11032420423D

 45 48  0  0  1  0  0  0  0  0999 V2000
  183.9890  178.9870  140.8640 C   0  0  0  0  0  3  0  0  0  0  0  0
  185.1260  178.6250  141.3930 C   0  0  0  0  0  0  0  0  0  0  0  0
  186.2620  178.2600  141.9280 C   0  0  0  0  0  0  0  0  0  0  0  0
  187.5380  176.6370  143.3610 C   0  0  0  0  0  2  0  0  0  0  0  0
  186.2380  178.4310  144.4330 C   0  0  0  0  0  2  0  0  0  0  0  0
  186.2900  177.5050  143.2280 C   0  0  1  0  0  3  0  0  0  0  0  0
  187.3360  178.3030  146.5900 N   0  0  0  0  0  0  0  0  0  0  0  0
  187.9410  176.6750  144.8250 C   0  0  0  0  0  2  0  0  0  0  0  0
  187.1950  177.8310  145.3850 C   0  0  0  0  0  0  0  0  0  0  0  0
  188.1240  178.2270  148.8410 N   0  0  0  0  0  2  0  0  0  0  0  0
  188.2260  177.8300  147.6150 C   0  0  0  0  0  0  0  0  0  0  0  0
  189.1990  176.7550  147.2830 C   0  0  0  0  0  2  0  0  0  0  0  0
  190.6000  177.1770  147.7070 C   0  0  0  0  0  2  0  0  0  0  0  0
  191.6550  176.7720  146.6830 C   0  0  1  0  0  3  0  0  0  0  0  0
  192.0460  175.4460  146.8800 O   0  0  0  0  0  1  0  0  0  0  0  0
  191.0590  177.0020  144.9940 S   0  0  1  0  0  0  0  0  0  0  0  0
  191.8190  178.2310  144.5130 O   0  0  0  0  0  0  0  0  0  0  0  0
  191.8380  175.6590  144.0840 C   0  0  0  0  0  1  0  0  0  0  0  0
  183.6910  180.5990  138.9900 O   0  0  0  0  0  1  0  0  0  0  0  0
  184.8640  178.5400  138.5480 C   0  0  0  0  0  2  0  0  0  0  0  0
  183.3800  178.2200  138.4110 C   0  0  2  0  0  3  0  0  0  0  0  0
  183.8600  179.2750  139.3980 C   0  0  1  0  0  0  0  0  0  0  0  0
  183.0910  176.8810  139.0780 C   0  0  0  0  0  2  0  0  0  0  0  0
  182.1700  176.0470  138.2050 C   0  0  0  0  0  2  0  0  0  0  0  0
  180.7620  176.6170  138.2280 C   0  0  0  0  0  2  0  0  0  0  0  0
  179.6660  178.7690  141.2200 N   0  0  0  0  0  0  0  0  0  0  0  0
  179.2640  180.1580  141.4650 C   0  0  0  0  0  2  0  0  0  0  0  0
  179.8220  179.2040  138.9270 O   0  0  0  0  0  0  0  0  0  0  0  0
  180.4230  177.0490  139.5750 N   0  0  0  0  0  2  0  0  0  0  0  0
  179.5400  176.5820  142.0880 O   0  0  0  0  0  0  0  0  0  0  0  0
  179.6790  180.6250  142.8560 C   0  0  0  0  0  2  0  0  0  0  0  0
  179.1000  179.6760  143.8920 C   0  0  0  0  0  2  0  0  0  0  0  0
  179.7150  178.2920  143.7290 C   0  0  0  0  0  2  0  0  0  0  0  0
  179.9590  178.3720  139.8660 C   0  0  0  0  0  0  0  0  0  0  0  0
  179.6190  177.8200  142.3090 C   0  0  0  0  0  0  0  0  0  0  0  0
  187.4820  178.6370  141.2870 N   0  0  0  0  0  2  0  0  0  0  0  0
  187.6190  178.6380  139.8900 N   0  0  0  0  0  2  0  0  0  0  0  0
  191.2460  176.7380  138.7180 C   0  0  0  0  0  0  0  0  0  0  0  0
  188.8560  179.1670  137.2930 N   0  0  0  0  0  1  0  0  0  0  0  0
  189.1380  177.9870  138.0930 C   0  0  2  0  0  3  0  0  0  0  0  0
  189.4360  177.0970  140.3960 C   0  0  0  0  0  2  0  0  0  0  0  0
  189.0050  178.3130  139.5810 C   0  0  2  0  0  3  0  0  0  0  0  0
  192.3840  176.2500  138.3540 N   0  0  0  0  0  2  0  0  0  0  0  0
  190.9170  176.8070  140.1780 C   0  0  0  0  0  2  0  0  0  0  0  0
  190.4800  177.5020  137.7820 N   0  0  0  0  0  2  0  0  0  0  0  0
  1  2  2  0  0  0  0
  2  3  2  0  0  0  0
  4  8  1  0  0  0  0
  5  9  1  0  0  0  0
  6  3  1  6  0  0  0
  6  4  1  0  0  0  0
  6  5  1  0  0  0  0
  7 11  1  0  0  0  0
  8  9  1  0  0  0  0
  9  7  2  0  0  0  0
 11 10  2  0  0  0  0
 12 11  1  0  0  0  0
 12 13  1  0  0  0  0
 14 15  1  6  0  0  0
 14 13  1  0  0  0  0
 16 18  1  6  0  0  0
 16 14  1  0  0  0  0
 17 16  2  0  0  0  0
 20 22  1  0  0  0  0
 21 20  1  0  0  0  0
 21 23  1  1  0  0  0
 21 22  1  0  0  0  0
 22 19  1  6  0  0  0
 22  1  1  0  0  0  0
 24 25  1  0  0  0  0
 24 23  1  0  0  0  0
 25 29  1  0  0  0  0
 26 27  1  0  0  0  0
 26 35  1  0  0  0  0
 27 31  1  0  0  0  0
 28 34  2  0  0  0  0
 29 34  1  0  0  0  0
 30 35  2  0  0  0  0
 31 32  1  0  0  0  0
 33 32  1  0  0  0  0
 34 26  1  0  0  0  0
 35 33  1  0  0  0  0
 36  3  1  0  0  0  0
 37 36  1  0  0  0  0
 38 44  1  0  0  0  0
 40 39  1  6  0  0  0
 40 42  1  0  0  0  0
 42 37  1  6  0  0  0
 42 41  1  0  0  0  0
 43 38  2  0  0  0  0
 44 41  1  0  0  0  0
 45 40  1  0  0  0  0
 45 38  1  0  0  0  0
M  END
>  <MODEL>
7

>  <REMARK>
 VINA RESULT:      -7.6      2.763      4.407
  Name = 
  14 active torsions:
  status: ('A' for Active; 'I' for Inactive)
    1  A    between atoms: S_3  and  C_14
    2  A    between atoms: C_6  and  C_23
    3  A    between atoms: C_6  and  C_33
    4  A    between atoms: N_8  and  N_15
    5  A    between atoms: N_8  and  C_25
    6  A    between atoms: C_10  and  C_42
    7  A    between atoms: C_14  and  C_45
    8  A    between atoms: N_15  and  C_43
    9  A    between atoms: C_17  and  C_37
   10  A    between atoms: C_17  and  C_45
   11  A    between atoms: C_18  and  N_21
   12  A    between atoms: C_18  and  C_23
   13  A    between atoms: C_24  and  C_43
   14  A    between atoms: N_27  and  C_37
                            x       y       z     vdW  Elec       q    Type
                         _______ _______ _______ _____ _____    ______ ____

>  <TORSDO>
F 14

$$$$
=
 OpenBabel11032420423D

 45 48  0  0  1  0  0  0  0  0999 V2000
  189.0440  177.4350  137.1040 C   0  0  0  0  0  3  0  0  0  0  0  0
  189.8510  177.1980  138.1020 C   0  0  0  0  0  0  0  0  0  0  0  0
  190.6560  176.9640  139.1050 C   0  0  0  0  0  0  0  0  0  0  0  0
  189.2020  177.1200  141.1500 C   0  0  0  0  0  2  0  0  0  0  0  0
  191.6300  177.4570  141.3670 C   0  0  0  0  0  2  0  0  0  0  0  0
  190.4450  177.6400  140.4320 C   0  0  1  0  0  3  0  0  0  0  0  0
  191.7320  177.1200  143.7650 N   0  0  0  0  0  0  0  0  0  0  0  0
  189.5290  177.1030  142.6320 C   0  0  0  0  0  2  0  0  0  0  0  0
  191.0100  177.2150  142.6860 C   0  0  0  0  0  0  0  0  0  0  0  0
  191.8520  176.0280  145.8830 N   0  0  0  0  0  2  0  0  0  0  0  0
  191.2710  176.8820  145.1050 C   0  0  0  0  0  0  0  0  0  0  0  0
  190.1860  177.7380  145.6570 C   0  0  0  0  0  2  0  0  0  0  0  0
  189.8460  177.2940  147.0730 C   0  0  0  0  0  2  0  0  0  0  0  0
  188.3470  177.0870  147.2650 C   0  0  1  0  0  3  0  0  0  0  0  0
  187.9620  177.4600  148.5540 O   0  0  0  0  0  1  0  0  0  0  0  0
  187.3910  178.0040  146.0370 S   0  0  1  0  0  0  0  0  0  0  0  0
  186.8180  176.9110  145.1450 O   0  0  0  0  0  0  0  0  0  0  0  0
  185.9550  178.5730  146.9590 C   0  0  0  0  0  1  0  0  0  0  0  0
  189.5430  176.7390  134.7670 O   0  0  0  0  0  1  0  0  0  0  0  0
  189.0350  175.0240  136.3840 C   0  0  0  0  0  2  0  0  0  0  0  0
  187.6930  175.5320  135.8670 C   0  0  2  0  0  3  0  0  0  0  0  0
  188.8910  176.4660  135.9700 C   0  0  1  0  0  0  0  0  0  0  0  0
  186.7290  175.6830  137.0370 C   0  0  0  0  0  2  0  0  0  0  0  0
  185.4290  176.3140  136.5700 C   0  0  0  0  0  2  0  0  0  0  0  0
  185.4280  177.8030  136.8740 C   0  0  0  0  0  2  0  0  0  0  0  0
  184.6600  178.6890  140.5360 N   0  0  0  0  0  0  0  0  0  0  0  0
  185.4120  179.0600  141.7400 C   0  0  0  0  0  2  0  0  0  0  0  0
  186.6410  178.6700  139.2910 O   0  0  0  0  0  0  0  0  0  0  0  0
  184.7230  178.0530  138.1220 N   0  0  0  0  0  2  0  0  0  0  0  0
  182.5330  178.7860  139.5290 O   0  0  0  0  0  0  0  0  0  0  0  0
  184.7270  178.5560  143.0060 C   0  0  0  0  0  2  0  0  0  0  0  0
  183.3010  179.0810  143.0420 C   0  0  0  0  0  2  0  0  0  0  0  0
  182.5020  178.4920  141.8870 C   0  0  0  0  0  2  0  0  0  0  0  0
  185.3930  178.4850  139.3120 C   0  0  0  0  0  0  0  0  0  0  0  0
  183.2170  178.6800  140.5820 C   0  0  0  0  0  0  0  0  0  0  0  0
  191.7760  176.0990  138.9070 N   0  0  0  0  0  2  0  0  0  0  0  0
  192.7230  176.3280  137.8960 N   0  0  0  0  0  2  0  0  0  0  0  0
  194.3460  173.1430  135.5810 C   0  0  0  0  0  0  0  0  0  0  0  0
  195.2160  175.0000  138.6530 N   0  0  0  0  0  1  0  0  0  0  0  0
  194.6590  174.9600  137.3120 C   0  0  2  0  0  3  0  0  0  0  0  0
  192.5710  174.8540  135.9640 C   0  0  0  0  0  2  0  0  0  0  0  0
  193.1330  175.0330  137.3720 C   0  0  2  0  0  3  0  0  0  0  0  0
  194.8320  172.1230  134.9570 N   0  0  0  0  0  2  0  0  0  0  0  0
  192.8880  173.4580  135.4370 C   0  0  0  0  0  2  0  0  0  0  0  0
  195.0990  173.7390  136.6420 N   0  0  0  0  0  2  0  0  0  0  0  0
  1  2  2  0  0  0  0
  2  3  2  0  0  0  0
  4  8  1  0  0  0  0
  5  9  1  0  0  0  0
  6  3  1  6  0  0  0
  6  4  1  0  0  0  0
  6  5  1  0  0  0  0
  7 11  1  0  0  0  0
  8  9  1  0  0  0  0
  9  7  2  0  0  0  0
 11 12  1  0  0  0  0
 11 10  2  0  0  0  0
 12 13  1  0  0  0  0
 13 14  1  0  0  0  0
 14 15  1  1  0  0  0
 16 18  1  1  0  0  0
 16 14  1  0  0  0  0
 17 16  2  0  0  0  0
 21 22  1  0  0  0  0
 21 20  1  0  0  0  0
 21 23  1  1  0  0  0
 22 19  1  6  0  0  0
 22 20  1  0  0  0  0
 22  1  1  0  0  0  0
 24 25  1  0  0  0  0
 24 23  1  0  0  0  0
 25 29  1  0  0  0  0
 26 35  1  0  0  0  0
 26 27  1  0  0  0  0
 27 31  1  0  0  0  0
 28 34  2  0  0  0  0
 29 34  1  0  0  0  0
 30 35  2  0  0  0  0
 31 32  1  0  0  0  0
 33 32  1  0  0  0  0
 34 26  1  0  0  0  0
 35 33  1  0  0  0  0
 36  3  1  0  0  0  0
 37 36  1  0  0  0  0
 38 45  1  0  0  0  0
 40 42  1  0  0  0  0
 40 39  1  1  0  0  0
 41 42  1  0  0  0  0
 42 37  1  6  0  0  0
 43 38  2  0  0  0  0
 44 38  1  0  0  0  0
 44 41  1  0  0  0  0
 45 40  1  0  0  0  0
M  END
>  <MODEL>
8

>  <REMARK>
 VINA RESULT:      -7.6      1.882      2.628
  Name = 
  14 active torsions:
  status: ('A' for Active; 'I' for Inactive)
    1  A    between atoms: S_3  and  C_14
    2  A    between atoms: C_6  and  C_23
    3  A    between atoms: C_6  and  C_33
    4  A    between atoms: N_8  and  N_15
    5  A    between atoms: N_8  and  C_25
    6  A    between atoms: C_10  and  C_42
    7  A    between atoms: C_14  and  C_45
    8  A    between atoms: N_15  and  C_43
    9  A    between atoms: C_17  and  C_37
   10  A    between atoms: C_17  and  C_45
   11  A    between atoms: C_18  and  N_21
   12  A    between atoms: C_18  and  C_23
   13  A    between atoms: C_24  and  C_43
   14  A    between atoms: N_27  and  C_37
                            x       y       z     vdW  Elec       q    Type
                         _______ _______ _______ _____ _____    ______ ____

>  <TORSDO>
F 14

$$$$
=
 OpenBabel11032420423D

 45 48  0  0  1  0  0  0  0  0999 V2000
  185.1680  178.4510  142.6630 C   0  0  0  0  0  3  0  0  0  0  0  0
  186.4500  178.2590  142.5150 C   0  0  0  0  0  0  0  0  0  0  0  0
  187.7340  178.0690  142.3620 C   0  0  0  0  0  0  0  0  0  0  0  0
  189.7090  177.6750  140.8580 C   0  0  0  0  0  2  0  0  0  0  0  0
  187.5320  178.2520  139.8650 C   0  0  0  0  0  2  0  0  0  0  0  0
  188.4200  178.4610  141.0830 C   0  0  1  0  0  3  0  0  0  0  0  0
  188.0540  177.4970  137.6220 N   0  0  0  0  0  0  0  0  0  0  0  0
  189.8130  177.4260  139.3640 C   0  0  0  0  0  2  0  0  0  0  0  0
  188.4480  177.7020  138.8450 C   0  0  0  0  0  0  0  0  0  0  0  0
  189.3490  177.7300  135.6310 N   0  0  0  0  0  2  0  0  0  0  0  0
  188.8260  176.9650  136.5330 C   0  0  0  0  0  0  0  0  0  0  0  0
  189.1450  175.5110  136.5200 C   0  0  0  0  0  2  0  0  0  0  0  0
  190.5660  175.2990  136.0130 C   0  0  0  0  0  2  0  0  0  0  0  0
  191.6060  175.5470  137.1010 C   0  0  1  0  0  3  0  0  0  0  0  0
  191.6920  174.4460  137.9560 O   0  0  0  0  0  1  0  0  0  0  0  0
  193.2260  175.9170  136.3950 S   0  0  1  0  0  0  0  0  0  0  0  0
  194.0490  174.6800  136.7260 O   0  0  0  0  0  0  0  0  0  0  0  0
  192.9580  175.7680  134.6220 C   0  0  0  0  0  1  0  0  0  0  0  0
  185.1650  177.9250  145.0960 O   0  0  0  0  0  1  0  0  0  0  0  0
  184.0750  179.9470  144.3650 C   0  0  0  0  0  2  0  0  0  0  0  0
  183.0510  178.8290  144.1980 C   0  0  2  0  0  3  0  0  0  0  0  0
  184.5390  178.5550  144.0200 C   0  0  1  0  0  0  0  0  0  0  0  0
  182.3250  179.0070  142.8710 C   0  0  0  0  0  2  0  0  0  0  0  0
  180.8660  178.6130  143.0130 C   0  0  0  0  0  2  0  0  0  0  0  0
  180.3420  178.0500  141.7030 C   0  0  0  0  0  2  0  0  0  0  0  0
  180.2110  179.8300  138.2970 N   0  0  0  0  0  0  0  0  0  0  0  0
  180.0240  179.4610  136.8890 C   0  0  0  0  0  2  0  0  0  0  0  0
  179.8670  177.6070  138.9380 O   0  0  0  0  0  0  0  0  0  0  0  0
  180.3760  179.0760  140.6720 N   0  0  0  0  0  2  0  0  0  0  0  0
  180.0660  181.6230  139.8190 O   0  0  0  0  0  0  0  0  0  0  0  0
  180.8010  180.3880  135.9600 C   0  0  0  0  0  2  0  0  0  0  0  0
  180.3870  181.8250  136.2300 C   0  0  0  0  0  2  0  0  0  0  0  0
  180.7990  182.2270  137.6400 C   0  0  0  0  0  2  0  0  0  0  0  0
  180.1330  178.7890  139.2900 C   0  0  0  0  0  0  0  0  0  0  0  0
  180.3230  181.2260  138.6510 C   0  0  0  0  0  0  0  0  0  0  0  0
  188.4700  177.4300  143.4070 N   0  0  0  0  0  2  0  0  0  0  0  0
  188.3450  177.8210  144.7500 N   0  0  0  0  0  2  0  0  0  0  0  0
  191.6420  176.4950  147.0960 C   0  0  0  0  0  0  0  0  0  0  0  0
  188.0970  177.3850  147.6310 N   0  0  0  0  0  1  0  0  0  0  0  0
  189.3670  177.5890  146.9550 C   0  0  2  0  0  3  0  0  0  0  0  0
  190.6820  177.1510  144.8900 C   0  0  0  0  0  2  0  0  0  0  0  0
  189.3000  177.0450  145.5280 C   0  0  2  0  0  3  0  0  0  0  0  0
  192.5890  176.0170  147.8330 N   0  0  0  0  0  2  0  0  0  0  0  0
  191.6760  176.2530  145.6180 C   0  0  0  0  0  2  0  0  0  0  0  0
  190.4300  176.9370  147.7150 N   0  0  0  0  0  2  0  0  0  0  0  0
  1 22  1  0  0  0  0
  2  1  2  0  0  0  0
  3  2  2  0  0  0  0
  3 36  1  0  0  0  0
  4  6  1  0  0  0  0
  5  6  1  0  0  0  0
  6  3  1  1  0  0  0
  7  9  2  0  0  0  0
  8  4  1  0  0  0  0
  9  8  1  0  0  0  0
  9  5  1  0  0  0  0
 10 11  2  0  0  0  0
 11  7  1  0  0  0  0
 12 11  1  0  0  0  0
 13 12  1  0  0  0  0
 13 14  1  0  0  0  0
 14 15  1  1  0  0  0
 16 18  1  6  0  0  0
 16 17  2  0  0  0  0
 16 14  1  0  0  0  0
 21 23  1  6  0  0  0
 21 20  1  0  0  0  0
 22 21  1  0  0  0  0
 22 20  1  0  0  0  0
 22 19  1  1  0  0  0
 23 24  1  0  0  0  0
 25 24  1  0  0  0  0
 26 35  1  0  0  0  0
 26 34  1  0  0  0  0
 27 26  1  0  0  0  0
 28 34  2  0  0  0  0
 29 25  1  0  0  0  0
 31 32  1  0  0  0  0
 31 27  1  0  0  0  0
 32 33  1  0  0  0  0
 33 35  1  0  0  0  0
 34 29  1  0  0  0  0
 35 30  2  0  0  0  0
 36 37  1  0  0  0  0
 38 45  1  0  0  0  0
 38 43  2  0  0  0  0
 40 39  1  1  0  0  0
 40 45  1  0  0  0  0
 41 42  1  0  0  0  0
 41 44  1  0  0  0  0
 42 37  1  6  0  0  0
 42 40  1  0  0  0  0
 44 38  1  0  0  0  0
M  END
>  <MODEL>
9

>  <REMARK>
 VINA RESULT:      -7.6      3.553      8.135
  Name = 
  14 active torsions:
  status: ('A' for Active; 'I' for Inactive)
    1  A    between atoms: S_3  and  C_14
    2  A    between atoms: C_6  and  C_23
    3  A    between atoms: C_6  and  C_33
    4  A    between atoms: N_8  and  N_15
    5  A    between atoms: N_8  and  C_25
    6  A    between atoms: C_10  and  C_42
    7  A    between atoms: C_14  and  C_45
    8  A    between atoms: N_15  and  C_43
    9  A    between atoms: C_17  and  C_37
   10  A    between atoms: C_17  and  C_45
   11  A    between atoms: C_18  and  N_21
   12  A    between atoms: C_18  and  C_23
   13  A    between atoms: C_24  and  C_43
   14  A    between atoms: N_27  and  C_37
                            x       y       z     vdW  Elec       q    Type
                         _______ _______ _______ _____ _____    ______ ____

>  <TORSDO>
F 14

$$$$
