=
 OpenBabel11032419243D

 51 58  0  0  1  0  0  0  0  0999 V2000
  189.2380  173.4480  137.3040 C   0  0  0  0  0  1  0  0  0  0  0  0
  187.6750  176.5850  136.7840 C   0  0  0  0  0  2  0  0  0  0  0  0
  187.6360  175.1490  136.5700 N   0  0  0  0  0  0  0  0  0  0  0  0
  188.9640  174.5870  136.3410 C   0  0  0  0  0  0  0  0  0  0  0  0
  189.9300  175.7360  136.6510 C   0  0  2  0  0  3  0  0  0  0  0  0
  189.0770  174.0910  134.9040 C   0  0  0  0  0  1  0  0  0  0  0  0
  189.1120  177.0120  136.5370 C   0  0  2  0  0  3  0  0  0  0  0  0
  184.0080  172.9400  136.6630 C   0  0  0  0  0  3  0  0  0  0  0  0
  185.2200  174.9900  137.0750 C   0  0  0  0  0  3  0  0  0  0  0  0
  184.0180  174.2680  137.1110 C   0  0  0  0  0  0  0  0  0  0  0  0
  185.1810  172.3390  136.2000 C   0  0  0  0  0  3  0  0  0  0  0  0
  186.3750  173.0660  136.1770 C   0  0  0  0  0  3  0  0  0  0  0  0
  186.4040  174.4010  136.6070 C   0  0  0  0  0  0  0  0  0  0  0  0
  181.1250  177.9030  138.7600 C   0  0  2  0  0  3  0  0  0  0  0  0
  182.6800  178.1000  140.7330 S   0  0  0  0  0  0  0  0  0  0  0  0
  182.8200  174.8760  137.6150 N   0  0  0  0  0  0  0  0  0  0  0  0
  180.2130  179.5790  140.2880 C   0  0  1  0  0  3  0  0  0  0  0  0
  181.5200  176.4660  138.5660 C   0  0  1  0  0  0  0  0  0  0  0  0
  178.9310  180.1190  140.9370 C   0  0  0  0  0  2  0  0  0  0  0  0
  182.8450  176.2090  138.0620 N   0  0  0  0  0  2  0  0  0  0  0  0
  181.4760  177.0090  139.9630 C   0  0  2  0  0  3  0  0  0  0  0  0
  180.3070  175.2130  138.1600 S   0  0  0  0  0  0  0  0  0  0  0  0
  181.6210  174.1310  137.6740 N   0  0  0  0  0  2  0  0  0  0  0  0
  179.7130  179.6020  143.2790 C   0  0  0  0  0  2  0  0  0  0  0  0
  179.1980  180.6920  142.3270 C   0  0  0  0  0  2  0  0  0  0  0  0
  180.6700  178.6010  142.6150 C   0  0  0  0  0  2  0  0  0  0  0  0
  181.3040  179.1800  141.3490 C   0  0  1  0  0  3  0  0  0  0  0  0
  179.8310  178.4530  139.3020 C   0  0  0  0  0  2  0  0  0  0  0  0
  192.4130  175.5250  136.2510 C   0  0  0  0  0  0  0  0  0  0  0  0
  191.0910  175.7780  135.7690 N   0  0  0  0  0  2  0  0  0  0  0  0
  192.6270  175.3750  137.4860 O   0  0  0  0  0  0  0  0  0  0  0  0
  196.2330  174.0800  135.3040 O   0  0  0  0  0  0  0  0  0  0  0  0
  195.9480  175.0110  136.3140 C   0  0  0  0  0  2  0  0  0  0  0  0
  194.8700  175.9370  135.8270 C   0  0  0  0  0  0  0  0  0  0  0  0
  195.4930  172.9120  135.5980 C   0  0  0  0  0  2  0  0  0  0  0  0
  193.9750  173.1460  135.5530 C   0  0  0  0  0  2  0  0  0  0  0  0
  193.5600  175.4040  135.2930 C   0  0  1  0  0  3  0  0  0  0  0  0
  193.6440  174.1550  134.6230 O   0  0  0  0  0  0  0  0  0  0  0  0
  195.0390  177.1430  135.9030 O   0  0  0  0  0  0  0  0  0  0  0  0
  189.5820  178.0150  137.5850 C   0  0  0  0  0  2  0  0  0  0  0  0
  188.6800  175.8830  143.1640 O   0  0  0  0  0  0  0  0  0  0  0  0
  188.2330  178.5340  140.0670 N   0  0  0  0  0  2  0  0  0  0  0  0
  187.4120  178.6520  141.2260 C   0  0  0  0  0  0  0  0  0  0  0  0
  186.5130  179.5340  141.2770 O   0  0  0  0  0  0  0  0  0  0  0  0
  189.7500  176.8740  141.2690 C   0  0  2  0  0  3  0  0  0  0  0  0
  187.5870  177.7450  142.3120 N   0  0  0  0  0  2  0  0  0  0  0  0
  189.2990  177.5800  140.0170 C   0  0  0  0  0  0  0  0  0  0  0  0
  188.6490  176.7870  142.2910 C   0  0  0  0  0  0  0  0  0  0  0  0
  189.9390  177.3370  138.8720 C   0  0  0  0  0  3  0  0  0  0  0  0
  190.9560  177.6000  141.8550 C   0  0  0  0  0  2  0  0  0  0  0  0
  191.6370  176.7620  142.7400 O   0  0  0  0  0  1  0  0  0  0  0  0
  3 13  1  0  0  0  0
  3  2  1  0  0  0  0
  4  3  1  0  0  0  0
  4  5  1  0  0  0  0
  4  1  1  0  0  0  0
  5 30  1  6  0  0  0
  6  4  1  0  0  0  0
  7  5  1  0  0  0  0
  7  2  1  0  0  0  0
  7 40  1  1  0  0  0
  8 10  1  0  0  0  0
  9 10  2  0  0  0  0
 10 16  1  0  0  0  0
 11  8  2  0  0  0  0
 12 11  1  0  0  0  0
 12 13  2  0  0  0  0
 13  9  1  0  0  0  0
 14 28  1  1  0  0  0
 14 21  1  0  0  0  0
 15 27  1  0  0  0  0
 16 23  1  0  0  0  0
 16 20  1  0  0  0  0
 17 28  1  1  0  0  0
 17 19  1  0  0  0  0
 17 27  1  0  0  0  0
 18 20  1  6  0  0  0
 18 14  1  0  0  0  0
 18 21  1  0  0  0  0
 19 25  1  0  0  0  0
 21 15  1  6  0  0  0
 22 18  1  0  0  0  0
 23 22  1  0  0  0  0
 25 24  1  0  0  0  0
 26 24  1  0  0  0  0
 27 26  1  1  0  0  0
 29 31  2  0  0  0  0
 30 29  1  0  0  0  0
 32 35  1  0  0  0  0
 32 33  1  0  0  0  0
 34 39  2  0  0  0  0
 34 33  1  0  0  0  0
 36 35  1  0  0  0  0
 37 34  1  0  0  0  0
 37 29  1  1  0  0  0
 38 37  1  0  0  0  0
 38 36  1  0  0  0  0
 40 49  1  0  0  0  0
 42 43  1  0  0  0  0
 43 44  2  0  0  0  0
 43 46  1  0  0  0  0
 45 50  1  1  0  0  0
 45 48  1  0  0  0  0
 47 42  1  0  0  0  0
 47 45  1  0  0  0  0
 48 46  1  0  0  0  0
 48 41  2  0  0  0  0
 49 47  2  0  0  0  0
 50 51  1  0  0  0  0
M  END
>  <MODEL>
1

>  <REMARK>
 VINA RESULT:      -8.2      0.000      0.000
  Name = 
  7 active torsions:
  status: ('A' for Active; 'I' for Inactive)
    1  A    between atoms: C_1  and  C_35
    2  A    between atoms: N_9  and  C_20
    3  A    between atoms: N_12  and  C_51
    4  A    between atoms: N_19  and  C_27
    5  A    between atoms: C_31  and  C_33
    6  A    between atoms: C_42  and  C_45
    7  A    between atoms: C_42  and  C_49
                            x       y       z     vdW  Elec       q    Type
                         _______ _______ _______ _____ _____    ______ ____

>  <TORSDO>
F 7

$$$$
=
 OpenBabel11032419243D

 51 58  0  0  1  0  0  0  0  0999 V2000
  182.8170  177.3100  136.5280 C   0  0  0  0  0  1  0  0  0  0  0  0
  181.7390  176.0470  139.6580 C   0  0  0  0  0  2  0  0  0  0  0  0
  181.9260  175.8010  138.2390 N   0  0  0  0  0  0  0  0  0  0  0  0
  181.6420  176.9820  137.4300 C   0  0  0  0  0  0  0  0  0  0  0  0
  181.4710  178.1160  138.4460 C   0  0  2  0  0  3  0  0  0  0  0  0
  180.3920  176.7470  136.5900 C   0  0  0  0  0  1  0  0  0  0  0  0
  181.1540  177.4450  139.7730 C   0  0  2  0  0  3  0  0  0  0  0  0
  183.2040  172.0270  136.7630 C   0  0  0  0  0  3  0  0  0  0  0  0
  183.7140  174.2930  137.4330 C   0  0  0  0  0  3  0  0  0  0  0  0
  184.1440  173.0510  136.9430 C   0  0  0  0  0  0  0  0  0  0  0  0
  181.8550  172.2440  137.0540 C   0  0  0  0  0  3  0  0  0  0  0  0
  181.4360  173.4890  137.5320 C   0  0  0  0  0  3  0  0  0  0  0  0
  182.3630  174.5230  137.7340 C   0  0  0  0  0  0  0  0  0  0  0  0
  189.0220  173.7220  137.2010 C   0  0  2  0  0  3  0  0  0  0  0  0
  188.6360  176.0610  136.3450 S   0  0  0  0  0  0  0  0  0  0  0  0
  185.5250  172.8380  136.6160 N   0  0  0  0  0  0  0  0  0  0  0  0
  191.1980  174.7890  136.8860 C   0  0  1  0  0  3  0  0  0  0  0  0
  187.7490  173.2530  136.5530 C   0  0  1  0  0  0  0  0  0  0  0  0
  192.6360  174.5840  136.3870 C   0  0  0  0  0  2  0  0  0  0  0  0
  186.5090  173.6970  137.1370 N   0  0  0  0  0  2  0  0  0  0  0  0
  188.5400  174.3290  135.8700 C   0  0  2  0  0  3  0  0  0  0  0  0
  187.6600  171.6750  135.7110 S   0  0  0  0  0  0  0  0  0  0  0  0
  185.8920  171.7750  135.7610 N   0  0  0  0  0  2  0  0  0  0  0  0
  192.4310  176.3450  134.5940 C   0  0  0  0  0  2  0  0  0  0  0  0
  193.2270  175.8710  135.8190 C   0  0  0  0  0  2  0  0  0  0  0  0
  190.9150  176.1340  134.7200 C   0  0  0  0  0  2  0  0  0  0  0  0
  190.4830  176.0000  136.1820 C   0  0  1  0  0  3  0  0  0  0  0  0
  190.4420  173.4460  136.7830 C   0  0  0  0  0  2  0  0  0  0  0  0
  180.6910  180.4790  138.0240 C   0  0  0  0  0  0  0  0  0  0  0  0
  180.4320  179.0740  138.0840 N   0  0  0  0  0  2  0  0  0  0  0  0
  181.8020  180.9430  138.4000 O   0  0  0  0  0  0  0  0  0  0  0  0
  179.6570  184.1450  136.2730 O   0  0  0  0  0  0  0  0  0  0  0  0
  180.2010  183.9870  137.5560 C   0  0  0  0  0  2  0  0  0  0  0  0
  179.6080  182.7570  138.1830 C   0  0  0  0  0  0  0  0  0  0  0  0
  180.5790  183.5850  135.3610 C   0  0  0  0  0  2  0  0  0  0  0  0
  180.7690  182.0730  135.5660 C   0  0  0  0  0  2  0  0  0  0  0  0
  179.6550  181.4190  137.4810 C   0  0  1  0  0  3  0  0  0  0  0  0
  179.5910  181.4760  136.0640 O   0  0  0  0  0  0  0  0  0  0  0  0
  179.1160  182.8310  139.2970 O   0  0  0  0  0  0  0  0  0  0  0  0
  181.8040  178.2280  140.9080 C   0  0  0  0  0  2  0  0  0  0  0  0
  187.1310  177.0740  143.5110 O   0  0  0  0  0  0  0  0  0  0  0  0
  183.3910  178.7370  143.2480 N   0  0  0  0  0  2  0  0  0  0  0  0
  184.1090  178.7960  144.4780 C   0  0  0  0  0  0  0  0  0  0  0  0
  183.5740  179.3070  145.4980 O   0  0  0  0  0  0  0  0  0  0  0  0
  185.4920  177.9720  142.0200 C   0  0  2  0  0  3  0  0  0  0  0  0
  185.4190  178.2390  144.5600 N   0  0  0  0  0  2  0  0  0  0  0  0
  184.0060  178.2170  142.0650 C   0  0  0  0  0  0  0  0  0  0  0  0
  186.0590  177.7190  143.3910 C   0  0  0  0  0  0  0  0  0  0  0  0
  183.2810  177.9850  140.9680 C   0  0  0  0  0  3  0  0  0  0  0  0
  186.1850  179.1690  141.3780 C   0  0  0  0  0  2  0  0  0  0  0  0
  186.2810  178.9850  139.9970 O   0  0  0  0  0  1  0  0  0  0  0  0
  1  4  1  0  0  0  0
  2  7  1  0  0  0  0
  3  2  1  0  0  0  0
  4  3  1  0  0  0  0
  4  5  1  0  0  0  0
  5 30  1  6  0  0  0
  5  7  1  0  0  0  0
  6  4  1  0  0  0  0
  7 40  1  1  0  0  0
  8 10  2  0  0  0  0
  8 11  1  0  0  0  0
  9 13  2  0  0  0  0
 10  9  1  0  0  0  0
 11 12  2  0  0  0  0
 12 13  1  0  0  0  0
 13  3  1  0  0  0  0
 14 28  1  6  0  0  0
 16 10  1  0  0  0  0
 16 20  1  0  0  0  0
 17 19  1  6  0  0  0
 18 22  1  6  0  0  0
 18 20  1  0  0  0  0
 18 14  1  0  0  0  0
 21 15  1  1  0  0  0
 21 18  1  0  0  0  0
 21 14  1  0  0  0  0
 22 23  1  0  0  0  0
 23 16  1  0  0  0  0
 24 26  1  0  0  0  0
 24 25  1  0  0  0  0
 25 19  1  0  0  0  0
 27 26  1  6  0  0  0
 27 15  1  0  0  0  0
 27 17  1  0  0  0  0
 28 17  1  0  0  0  0
 29 30  1  0  0  0  0
 29 31  2  0  0  0  0
 32 33  1  0  0  0  0
 33 34  1  0  0  0  0
 34 39  2  0  0  0  0
 35 36  1  0  0  0  0
 35 32  1  0  0  0  0
 36 38  1  0  0  0  0
 37 29  1  6  0  0  0
 37 34  1  0  0  0  0
 38 37  1  0  0  0  0
 40 49  1  0  0  0  0
 42 43  1  0  0  0  0
 43 46  1  0  0  0  0
 43 44  2  0  0  0  0
 45 50  1  1  0  0  0
 45 47  1  0  0  0  0
 45 48  1  0  0  0  0
 47 42  1  0  0  0  0
 48 41  2  0  0  0  0
 48 46  1  0  0  0  0
 49 47  2  0  0  0  0
 51 50  1  0  0  0  0
M  END
>  <MODEL>
2

>  <REMARK>
 VINA RESULT:      -8.0      4.038     10.288
  Name = 
  7 active torsions:
  status: ('A' for Active; 'I' for Inactive)
    1  A    between atoms: C_1  and  C_35
    2  A    between atoms: N_9  and  C_20
    3  A    between atoms: N_12  and  C_51
    4  A    between atoms: N_19  and  C_27
    5  A    between atoms: C_31  and  C_33
    6  A    between atoms: C_42  and  C_45
    7  A    between atoms: C_42  and  C_49
                            x       y       z     vdW  Elec       q    Type
                         _______ _______ _______ _____ _____    ______ ____

>  <TORSDO>
F 7

$$$$
=
 OpenBabel11032419243D

 51 58  0  0  1  0  0  0  0  0999 V2000
  190.1080  174.5820  136.3910 C   0  0  0  0  0  1  0  0  0  0  0  0
  189.6840  177.4580  138.4180 C   0  0  0  0  0  2  0  0  0  0  0  0
  189.3680  176.7830  137.1720 N   0  0  0  0  0  0  0  0  0  0  0  0
  190.5010  176.0240  136.6500 C   0  0  0  0  0  0  0  0  0  0  0  0
  191.5400  176.0570  137.7750 C   0  0  2  0  0  3  0  0  0  0  0  0
  191.0040  176.6640  135.3610 C   0  0  0  0  0  1  0  0  0  0  0  0
  191.1700  177.2410  138.6540 C   0  0  2  0  0  3  0  0  0  0  0  0
  185.5270  177.0430  135.3740 C   0  0  0  0  0  3  0  0  0  0  0  0
  186.9010  176.6770  137.3280 C   0  0  0  0  0  3  0  0  0  0  0  0
  185.6300  176.7590  136.7430 C   0  0  0  0  0  0  0  0  0  0  0  0
  186.6750  177.2280  134.6010 C   0  0  0  0  0  3  0  0  0  0  0  0
  187.9380  177.1340  135.1930 C   0  0  0  0  0  3  0  0  0  0  0  0
  188.0630  176.8660  136.5640 C   0  0  0  0  0  0  0  0  0  0  0  0
  181.6050  177.9710  139.3190 C   0  0  2  0  0  3  0  0  0  0  0  0
  183.1350  179.1030  140.9700 S   0  0  0  0  0  0  0  0  0  0  0  0
  184.4510  176.5380  137.5320 N   0  0  0  0  0  0  0  0  0  0  0  0
  180.2480  178.7990  141.1750 C   0  0  1  0  0  3  0  0  0  0  0  0
  182.7150  177.0530  138.8890 C   0  0  1  0  0  0  0  0  0  0  0  0
  179.0750  178.4770  142.1140 C   0  0  0  0  0  2  0  0  0  0  0  0
  183.7850  177.6290  138.1170 N   0  0  0  0  0  2  0  0  0  0  0  0
  182.6700  177.4920  140.3230 C   0  0  2  0  0  3  0  0  0  0  0  0
  182.4180  175.3140  138.5790 S   0  0  0  0  0  0  0  0  0  0  0  0
  183.9700  175.2250  137.7300 N   0  0  0  0  0  2  0  0  0  0  0  0
  180.5050  178.5830  144.1890 C   0  0  0  0  0  2  0  0  0  0  0  0
  179.2530  179.1260  143.4840 C   0  0  0  0  0  2  0  0  0  0  0  0
  181.6920  178.3400  143.2450 C   0  0  0  0  0  2  0  0  0  0  0  0
  181.5650  179.1570  141.9560 C   0  0  1  0  0  3  0  0  0  0  0  0
  180.3950  177.6480  140.1560 C   0  0  0  0  0  2  0  0  0  0  0  0
  193.8100  175.0540  137.3120 C   0  0  0  0  0  0  0  0  0  0  0  0
  192.9140  176.1690  137.2990 N   0  0  0  0  0  2  0  0  0  0  0  0
  193.4690  173.9650  137.8510 O   0  0  0  0  0  0  0  0  0  0  0  0
  197.1030  173.2410  135.4560 O   0  0  0  0  0  0  0  0  0  0  0  0
  196.7210  173.0480  136.7920 C   0  0  0  0  0  2  0  0  0  0  0  0
  196.2390  174.3580  137.3500 C   0  0  0  0  0  0  0  0  0  0  0  0
  196.0070  172.8530  134.6520 C   0  0  0  0  0  2  0  0  0  0  0  0
  194.7680  173.7340  134.8770 C   0  0  0  0  0  2  0  0  0  0  0  0
  195.1560  175.1540  136.6580 C   0  0  1  0  0  3  0  0  0  0  0  0
  195.1370  175.0470  135.2420 O   0  0  0  0  0  0  0  0  0  0  0  0
  196.7020  174.7660  138.4020 O   0  0  0  0  0  0  0  0  0  0  0  0
  191.4580  176.9040  140.1120 C   0  0  0  0  0  2  0  0  0  0  0  0
  188.9520  178.5480  145.3560 O   0  0  0  0  0  0  0  0  0  0  0  0
  191.2900  176.2390  142.9020 N   0  0  0  0  0  2  0  0  0  0  0  0
  191.3570  176.0650  144.3150 C   0  0  0  0  0  0  0  0  0  0  0  0
  192.1720  175.2430  144.8120 O   0  0  0  0  0  0  0  0  0  0  0  0
  189.1950  177.6750  143.1440 C   0  0  2  0  0  3  0  0  0  0  0  0
  190.5240  176.8510  145.1650 N   0  0  0  0  0  2  0  0  0  0  0  0
  190.3270  177.1220  142.3160 C   0  0  0  0  0  0  0  0  0  0  0  0
  189.5490  177.7360  144.6060 C   0  0  0  0  0  0  0  0  0  0  0  0
  190.3890  177.4310  141.0190 C   0  0  0  0  0  3  0  0  0  0  0  0
  187.9510  176.8190  142.9390 C   0  0  0  0  0  2  0  0  0  0  0  0
  186.9660  177.5530  142.2760 O   0  0  0  0  0  1  0  0  0  0  0  0
  1  4  1  0  0  0  0
  2  7  1  0  0  0  0
  3  2  1  0  0  0  0
  4  3  1  0  0  0  0
  4  5  1  0  0  0  0
  5 30  1  6  0  0  0
  5  7  1  0  0  0  0
  6  4  1  0  0  0  0
  7 40  1  1  0  0  0
  8 10  1  0  0  0  0
 10  9  2  0  0  0  0
 10 16  1  0  0  0  0
 11 12  1  0  0  0  0
 11  8  2  0  0  0  0
 12 13  2  0  0  0  0
 13  3  1  0  0  0  0
 13  9  1  0  0  0  0
 14 28  1  1  0  0  0
 14 21  1  0  0  0  0
 15 27  1  0  0  0  0
 16 23  1  0  0  0  0
 16 20  1  0  0  0  0
 17 28  1  6  0  0  0
 17 27  1  0  0  0  0
 17 19  1  0  0  0  0
 18 20  1  6  0  0  0
 18 14  1  0  0  0  0
 18 21  1  0  0  0  0
 19 25  1  0  0  0  0
 21 15  1  6  0  0  0
 22 18  1  0  0  0  0
 23 22  1  0  0  0  0
 25 24  1  0  0  0  0
 26 24  1  0  0  0  0
 27 26  1  1  0  0  0
 29 31  2  0  0  0  0
 30 29  1  0  0  0  0
 32 33  1  0  0  0  0
 33 34  1  0  0  0  0
 34 39  2  0  0  0  0
 35 36  1  0  0  0  0
 35 32  1  0  0  0  0
 36 38  1  0  0  0  0
 37 29  1  1  0  0  0
 37 34  1  0  0  0  0
 38 37  1  0  0  0  0
 40 49  1  0  0  0  0
 42 43  1  0  0  0  0
 43 44  2  0  0  0  0
 43 46  1  0  0  0  0
 45 50  1  1  0  0  0
 45 48  1  0  0  0  0
 47 42  1  0  0  0  0
 47 45  1  0  0  0  0
 48 46  1  0  0  0  0
 48 41  2  0  0  0  0
 49 47  2  0  0  0  0
 51 50  1  0  0  0  0
M  END
>  <MODEL>
3

>  <REMARK>
 VINA RESULT:      -7.7      2.027      2.944
  Name = 
  7 active torsions:
  status: ('A' for Active; 'I' for Inactive)
    1  A    between atoms: C_1  and  C_35
    2  A    between atoms: N_9  and  C_20
    3  A    between atoms: N_12  and  C_51
    4  A    between atoms: N_19  and  C_27
    5  A    between atoms: C_31  and  C_33
    6  A    between atoms: C_42  and  C_45
    7  A    between atoms: C_42  and  C_49
                            x       y       z     vdW  Elec       q    Type
                         _______ _______ _______ _____ _____    ______ ____

>  <TORSDO>
F 7

$$$$
=
 OpenBabel11032419243D

 51 58  0  0  1  0  0  0  0  0999 V2000
  188.9500  178.8820  139.0140 C   0  0  0  0  0  1  0  0  0  0  0  0
  189.9350  176.0160  137.1790 C   0  0  0  0  0  2  0  0  0  0  0  0
  188.8450  176.8570  137.6410 N   0  0  0  0  0  0  0  0  0  0  0  0
  189.0740  177.3710  138.9880 C   0  0  0  0  0  0  0  0  0  0  0  0
  190.5240  176.9910  139.3060 C   0  0  2  0  0  3  0  0  0  0  0  0
  188.0740  176.7510  139.9570 C   0  0  0  0  0  1  0  0  0  0  0  0
  190.8750  175.8530  138.3610 C   0  0  2  0  0  3  0  0  0  0  0  0
  185.4640  177.7070  135.2110 C   0  0  0  0  0  3  0  0  0  0  0  0
  186.4100  177.2100  137.3790 C   0  0  0  0  0  3  0  0  0  0  0  0
  185.2890  177.4880  136.5850 C   0  0  0  0  0  0  0  0  0  0  0  0
  186.7360  177.6350  134.6390 C   0  0  0  0  0  3  0  0  0  0  0  0
  187.8460  177.3480  135.4390 C   0  0  0  0  0  3  0  0  0  0  0  0
  187.6940  177.1410  136.8190 C   0  0  0  0  0  0  0  0  0  0  0  0
  181.6230  179.2400  139.3770 C   0  0  2  0  0  3  0  0  0  0  0  0
  183.0720  178.7720  141.3840 S   0  0  0  0  0  0  0  0  0  0  0  0
  183.9780  177.5310  137.1680 N   0  0  0  0  0  0  0  0  0  0  0  0
  180.3360  179.7640  141.3870 C   0  0  1  0  0  3  0  0  0  0  0  0
  182.3390  178.1810  138.5870 C   0  0  1  0  0  0  0  0  0  0  0  0
  178.9580  179.6640  142.0570 C   0  0  0  0  0  2  0  0  0  0  0  0
  183.6920  178.4630  138.1810 N   0  0  0  0  0  2  0  0  0  0  0  0
  182.1580  177.9690  140.0610 C   0  0  2  0  0  3  0  0  0  0  0  0
  181.4490  177.0640  137.5070 S   0  0  0  0  0  0  0  0  0  0  0  0
  182.9820  176.6290  136.7320 N   0  0  0  0  0  2  0  0  0  0  0  0
  179.8150  178.2550  143.9660 C   0  0  0  0  0  2  0  0  0  0  0  0
  179.0730  179.5420  143.5740 C   0  0  0  0  0  2  0  0  0  0  0  0
  180.9830  177.9040  143.0320 C   0  0  0  0  0  2  0  0  0  0  0  0
  181.4790  179.1310  142.2630 C   0  0  1  0  0  3  0  0  0  0  0  0
  180.2320  179.1970  139.9550 C   0  0  0  0  0  2  0  0  0  0  0  0
  191.5250  177.3900  141.5890 C   0  0  0  0  0  0  0  0  0  0  0  0
  190.7340  176.6010  140.6960 N   0  0  0  0  0  2  0  0  0  0  0  0
  192.1640  178.3920  141.1630 O   0  0  0  0  0  0  0  0  0  0  0  0
  189.7870  177.4380  145.4030 O   0  0  0  0  0  0  0  0  0  0  0  0
  190.1890  178.5730  144.6840 C   0  0  0  0  0  2  0  0  0  0  0  0
  191.4680  178.2590  143.9610 C   0  0  0  0  0  0  0  0  0  0  0  0
  188.8370  176.7590  144.6080 C   0  0  0  0  0  2  0  0  0  0  0  0
  189.4300  176.2440  143.2870 C   0  0  0  0  0  2  0  0  0  0  0  0
  191.5800  177.0570  143.0500 C   0  0  1  0  0  3  0  0  0  0  0  0
  190.8000  175.9340  143.4320 O   0  0  0  0  0  0  0  0  0  0  0  0
  192.4220  179.0110  144.0790 O   0  0  0  0  0  0  0  0  0  0  0  0
  192.3330  175.9770  137.9330 C   0  0  0  0  0  2  0  0  0  0  0  0
  195.7670  171.0110  137.7640 O   0  0  0  0  0  0  0  0  0  0  0  0
  194.9520  174.9570  138.5290 N   0  0  0  0  0  2  0  0  0  0  0  0
  196.1610  174.3760  139.0100 C   0  0  0  0  0  0  0  0  0  0  0  0
  196.9530  175.0570  139.7150 O   0  0  0  0  0  0  0  0  0  0  0  0
  194.5240  172.9240  137.0480 C   0  0  2  0  0  3  0  0  0  0  0  0
  196.4540  173.0110  138.7200 N   0  0  0  0  0  2  0  0  0  0  0  0
  194.0720  174.2180  137.6750 C   0  0  0  0  0  0  0  0  0  0  0  0
  195.5960  172.2520  137.8640 C   0  0  0  0  0  0  0  0  0  0  0  0
  192.8570  174.6860  137.3840 C   0  0  0  0  0  3  0  0  0  0  0  0
  195.0300  173.1940  135.6360 C   0  0  0  0  0  2  0  0  0  0  0  0
  194.3750  172.3630  134.7250 O   0  0  0  0  0  1  0  0  0  0  0  0
  2  3  1  0  0  0  0
  2  7  1  0  0  0  0
  3  4  1  0  0  0  0
  4  1  1  0  0  0  0
  4  5  1  0  0  0  0
  4  6  1  0  0  0  0
  5 30  1  1  0  0  0
  7 40  1  6  0  0  0
  7  5  1  0  0  0  0
  8 10  1  0  0  0  0
 10 16  1  0  0  0  0
 10  9  2  0  0  0  0
 11  8  2  0  0  0  0
 11 12  1  0  0  0  0
 12 13  2  0  0  0  0
 13  9  1  0  0  0  0
 13  3  1  0  0  0  0
 14 28  1  6  0  0  0
 14 21  1  0  0  0  0
 15 27  1  0  0  0  0
 16 20  1  0  0  0  0
 17 28  1  6  0  0  0
 17 19  1  0  0  0  0
 17 27  1  0  0  0  0
 18 22  1  6  0  0  0
 18 14  1  0  0  0  0
 18 21  1  0  0  0  0
 19 25  1  0  0  0  0
 20 18  1  0  0  0  0
 21 15  1  1  0  0  0
 23 16  1  0  0  0  0
 23 22  1  0  0  0  0
 25 24  1  0  0  0  0
 26 24  1  0  0  0  0
 27 26  1  6  0  0  0
 30 29  1  0  0  0  0
 31 29  2  0  0  0  0
 33 32  1  0  0  0  0
 34 39  2  0  0  0  0
 34 33  1  0  0  0  0
 35 32  1  0  0  0  0
 36 38  1  0  0  0  0
 36 35  1  0  0  0  0
 37 29  1  6  0  0  0
 37 38  1  0  0  0  0
 37 34  1  0  0  0  0
 41 48  2  0  0  0  0
 42 43  1  0  0  0  0
 43 44  2  0  0  0  0
 45 50  1  6  0  0  0
 45 47  1  0  0  0  0
 45 48  1  0  0  0  0
 46 43  1  0  0  0  0
 47 42  1  0  0  0  0
 48 46  1  0  0  0  0
 49 47  2  0  0  0  0
 49 40  1  0  0  0  0
 51 50  1  0  0  0  0
M  END
>  <MODEL>
4

>  <REMARK>
 VINA RESULT:      -6.7      2.496      6.342
  Name = 
  7 active torsions:
  status: ('A' for Active; 'I' for Inactive)
    1  A    between atoms: C_1  and  C_35
    2  A    between atoms: N_9  and  C_20
    3  A    between atoms: N_12  and  C_51
    4  A    between atoms: N_19  and  C_27
    5  A    between atoms: C_31  and  C_33
    6  A    between atoms: C_42  and  C_45
    7  A    between atoms: C_42  and  C_49
                            x       y       z     vdW  Elec       q    Type
                         _______ _______ _______ _____ _____    ______ ____

>  <TORSDO>
F 7

$$$$
=
 OpenBabel11032419243D

 51 58  0  0  1  0  0  0  0  0999 V2000
  184.7750  178.0620  136.5430 C   0  0  0  0  0  1  0  0  0  0  0  0
  183.3820  175.1470  137.9970 C   0  0  0  0  0  2  0  0  0  0  0  0
  184.1850  175.7170  136.9300 N   0  0  0  0  0  0  0  0  0  0  0  0
  183.6810  177.0140  136.4890 C   0  0  0  0  0  0  0  0  0  0  0  0
  182.6000  177.3770  137.5120 C   0  0  2  0  0  3  0  0  0  0  0  0
  183.1380  176.9030  135.0680 C   0  0  0  0  0  1  0  0  0  0  0  0
  182.1860  176.0690  138.1670 C   0  0  2  0  0  3  0  0  0  0  0  0
  187.6190  173.7350  135.4010 C   0  0  0  0  0  3  0  0  0  0  0  0
  186.6420  175.4650  136.7770 C   0  0  0  0  0  3  0  0  0  0  0  0
  187.7800  174.8180  136.2760 C   0  0  0  0  0  0  0  0  0  0  0  0
  186.3420  173.3140  135.0230 C   0  0  0  0  0  3  0  0  0  0  0  0
  185.2140  173.9730  135.5210 C   0  0  0  0  0  3  0  0  0  0  0  0
  185.3530  175.0500  136.4100 C   0  0  0  0  0  0  0  0  0  0  0  0
  192.6640  175.3670  135.8740 C   0  0  2  0  0  3  0  0  0  0  0  0
  192.8610  172.8750  136.1940 S   0  0  0  0  0  0  0  0  0  0  0  0
  189.0930  175.2700  136.6410 N   0  0  0  0  0  0  0  0  0  0  0  0
  195.0370  174.7910  135.9450 C   0  0  1  0  0  3  0  0  0  0  0  0
  191.3530  175.3780  136.6100 C   0  0  1  0  0  0  0  0  0  0  0  0
  196.4160  175.2120  136.4760 C   0  0  0  0  0  2  0  0  0  0  0  0
  190.2170  174.7950  135.9440 N   0  0  0  0  0  2  0  0  0  0  0  0
  192.4010  174.3940  137.0380 C   0  0  2  0  0  3  0  0  0  0  0  0
  190.9530  176.6740  137.7790 S   0  0  0  0  0  0  0  0  0  0  0  0
  189.2530  176.1810  137.7090 N   0  0  0  0  0  2  0  0  0  0  0  0
  196.7060  173.1100  137.8380 C   0  0  0  0  0  2  0  0  0  0  0  0
  197.3110  174.0060  136.7460 C   0  0  0  0  0  2  0  0  0  0  0  0
  195.1770  172.9850  137.7620 C   0  0  0  0  0  2  0  0  0  0  0  0
  194.6520  173.3250  136.3650 C   0  0  1  0  0  3  0  0  0  0  0  0
  194.0050  175.8680  136.3420 C   0  0  0  0  0  2  0  0  0  0  0  0
  180.9900  179.3200  137.4200 C   0  0  0  0  0  0  0  0  0  0  0  0
  181.4480  178.0570  136.9290 N   0  0  0  0  0  2  0  0  0  0  0  0
  181.5010  179.8270  138.4560 O   0  0  0  0  0  0  0  0  0  0  0  0
  179.6980  182.7240  135.3430 O   0  0  0  0  0  0  0  0  0  0  0  0
  180.0720  182.6950  136.6950 C   0  0  0  0  0  2  0  0  0  0  0  0
  179.5800  181.4130  137.3050 C   0  0  0  0  0  0  0  0  0  0  0  0
  180.8100  182.2750  134.5960 C   0  0  0  0  0  2  0  0  0  0  0  0
  181.1840  180.8180  134.9090 C   0  0  0  0  0  2  0  0  0  0  0  0
  179.9170  180.0730  136.6920 C   0  0  1  0  0  3  0  0  0  0  0  0
  180.0450  180.0690  135.2780 O   0  0  0  0  0  0  0  0  0  0  0  0
  178.9310  181.4530  138.3370 O   0  0  0  0  0  0  0  0  0  0  0  0
  181.8770  176.3130  139.6400 C   0  0  0  0  0  2  0  0  0  0  0  0
  184.9060  178.8690  144.1970 O   0  0  0  0  0  0  0  0  0  0  0  0
  181.7280  178.3520  141.6580 N   0  0  0  0  0  2  0  0  0  0  0  0
  181.5970  179.2020  142.7940 C   0  0  0  0  0  0  0  0  0  0  0  0
  180.4910  179.7500  143.0500 O   0  0  0  0  0  0  0  0  0  0  0  0
  184.2560  178.2530  141.9800 C   0  0  2  0  0  3  0  0  0  0  0  0
  182.7110  179.4000  143.6610 N   0  0  0  0  0  2  0  0  0  0  0  0
  182.9910  177.7720  141.3180 C   0  0  0  0  0  0  0  0  0  0  0  0
  183.9870  178.8380  143.3410 C   0  0  0  0  0  0  0  0  0  0  0  0
  183.0740  176.8300  140.3750 C   0  0  0  0  0  3  0  0  0  0  0  0
  184.9350  179.2860  141.0890 C   0  0  0  0  0  2  0  0  0  0  0  0
  186.2140  178.8500  140.7370 O   0  0  0  0  0  1  0  0  0  0  0  0
  2  7  1  0  0  0  0
  3  2  1  0  0  0  0
  4  1  1  0  0  0  0
  4  3  1  0  0  0  0
  4  5  1  0  0  0  0
  5 30  1  6  0  0  0
  5  7  1  0  0  0  0
  6  4  1  0  0  0  0
  7 40  1  1  0  0  0
  8 10  1  0  0  0  0
 10 16  1  0  0  0  0
 10  9  2  0  0  0  0
 11  8  2  0  0  0  0
 11 12  1  0  0  0  0
 12 13  2  0  0  0  0
 13  9  1  0  0  0  0
 13  3  1  0  0  0  0
 14 28  1  1  0  0  0
 14 18  1  0  0  0  0
 14 21  1  0  0  0  0
 15 27  1  0  0  0  0
 16 23  1  0  0  0  0
 17 28  1  1  0  0  0
 17 27  1  0  0  0  0
 17 19  1  0  0  0  0
 18 20  1  6  0  0  0
 18 21  1  0  0  0  0
 18 22  1  0  0  0  0
 19 25  1  0  0  0  0
 20 16  1  0  0  0  0
 21 15  1  6  0  0  0
 23 22  1  0  0  0  0
 25 24  1  0  0  0  0
 26 24  1  0  0  0  0
 27 26  1  1  0  0  0
 29 31  2  0  0  0  0
 30 29  1  0  0  0  0
 32 33  1  0  0  0  0
 33 34  1  0  0  0  0
 34 39  2  0  0  0  0
 35 36  1  0  0  0  0
 35 32  1  0  0  0  0
 36 38  1  0  0  0  0
 37 34  1  0  0  0  0
 37 29  1  1  0  0  0
 38 37  1  0  0  0  0
 40 49  1  0  0  0  0
 42 43  1  0  0  0  0
 43 44  2  0  0  0  0
 43 46  1  0  0  0  0
 45 50  1  6  0  0  0
 45 48  1  0  0  0  0
 47 42  1  0  0  0  0
 47 45  1  0  0  0  0
 48 46  1  0  0  0  0
 48 41  2  0  0  0  0
 49 47  2  0  0  0  0
 51 50  1  0  0  0  0
M  END
>  <MODEL>
5

>  <REMARK>
 VINA RESULT:      -6.4      4.342     11.059
  Name = 
  7 active torsions:
  status: ('A' for Active; 'I' for Inactive)
    1  A    between atoms: C_1  and  C_35
    2  A    between atoms: N_9  and  C_20
    3  A    between atoms: N_12  and  C_51
    4  A    between atoms: N_19  and  C_27
    5  A    between atoms: C_31  and  C_33
    6  A    between atoms: C_42  and  C_45
    7  A    between atoms: C_42  and  C_49
                            x       y       z     vdW  Elec       q    Type
                         _______ _______ _______ _____ _____    ______ ____

>  <TORSDO>
F 7

$$$$
=
 OpenBabel11032419243D

 51 58  0  0  1  0  0  0  0  0999 V2000
  184.5700  177.1650  139.4880 C   0  0  0  0  0  1  0  0  0  0  0  0
  184.9970  176.8920  135.9800 C   0  0  0  0  0  2  0  0  0  0  0  0
  185.5690  177.2890  137.2550 N   0  0  0  0  0  0  0  0  0  0  0  0
  184.5770  177.8780  138.1480 C   0  0  0  0  0  0  0  0  0  0  0  0
  183.2340  177.6320  137.4530 C   0  0  2  0  0  3  0  0  0  0  0  0
  184.8750  179.3590  138.3510 C   0  0  0  0  0  1  0  0  0  0  0  0
  183.5600  177.3870  135.9880 C   0  0  2  0  0  3  0  0  0  0  0  0
  189.6750  176.6760  138.1610 C   0  0  0  0  0  3  0  0  0  0  0  0
  187.4520  177.3160  138.8600 C   0  0  0  0  0  3  0  0  0  0  0  0
  188.8050  177.1180  139.1670 C   0  0  0  0  0  0  0  0  0  0  0  0
  189.2030  176.4480  136.8660 C   0  0  0  0  0  3  0  0  0  0  0  0
  187.8530  176.6580  136.5690 C   0  0  0  0  0  3  0  0  0  0  0  0
  186.9630  177.0860  137.5650 C   0  0  0  0  0  0  0  0  0  0  0  0
  189.1790  176.5870  144.0550 C   0  0  2  0  0  3  0  0  0  0  0  0
  186.7930  177.3800  144.2150 S   0  0  0  0  0  0  0  0  0  0  0  0
  189.2960  177.3810  140.4900 N   0  0  0  0  0  0  0  0  0  0  0  0
  188.5870  176.7530  146.4190 C   0  0  1  0  0  3  0  0  0  0  0  0
  189.3560  177.3160  142.7510 C   0  0  1  0  0  0  0  0  0  0  0  0
  189.0780  177.1840  147.8090 C   0  0  0  0  0  2  0  0  0  0  0  0
  188.6760  176.7820  141.6000 N   0  0  0  0  0  2  0  0  0  0  0  0
  188.4540  177.9190  143.7870 C   0  0  2  0  0  3  0  0  0  0  0  0
  190.8600  178.2160  142.3840 S   0  0  0  0  0  0  0  0  0  0  0  0
  190.3920  178.2530  140.6760 N   0  0  0  0  0  2  0  0  0  0  0  0
  187.2720  178.9230  148.0790 C   0  0  0  0  0  2  0  0  0  0  0  0
  187.9310  177.6760  148.6870 C   0  0  0  0  0  2  0  0  0  0  0  0
  187.1620  178.8830  146.5480 C   0  0  0  0  0  2  0  0  0  0  0  0
  187.2360  177.4500  146.0140 C   0  0  1  0  0  3  0  0  0  0  0  0
  189.7380  176.9410  145.4080 C   0  0  0  0  0  2  0  0  0  0  0  0
  180.9010  178.5030  137.8640 C   0  0  0  0  0  0  0  0  0  0  0  0
  182.2880  178.7320  137.6020 N   0  0  0  0  0  2  0  0  0  0  0  0
  180.4320  177.3320  137.8570 O   0  0  0  0  0  0  0  0  0  0  0  0
  179.9770  182.5870  137.6600 O   0  0  0  0  0  0  0  0  0  0  0  0
  181.0720  182.0390  138.3440 C   0  0  0  0  0  2  0  0  0  0  0  0
  180.6430  180.7510  138.9890 C   0  0  0  0  0  0  0  0  0  0  0  0
  180.0990  182.2010  136.3060 C   0  0  0  0  0  2  0  0  0  0  0  0
  180.0100  180.6790  136.1150 C   0  0  0  0  0  2  0  0  0  0  0  0
  179.9900  179.6510  138.1840 C   0  0  1  0  0  3  0  0  0  0  0  0
  179.1860  180.0910  137.0990 O   0  0  0  0  0  0  0  0  0  0  0  0
  180.8650  180.5740  140.1750 O   0  0  0  0  0  0  0  0  0  0  0  0
  182.6080  176.3390  135.4220 C   0  0  0  0  0  2  0  0  0  0  0  0
  182.6740  170.3480  136.1900 O   0  0  0  0  0  0  0  0  0  0  0  0
  181.4940  174.1960  136.9780 N   0  0  0  0  0  2  0  0  0  0  0  0
  180.8050  173.1050  137.5820 C   0  0  0  0  0  0  0  0  0  0  0  0
  179.8010  173.3180  138.3130 O   0  0  0  0  0  0  0  0  0  0  0  0
  183.3640  172.6370  136.2160 C   0  0  2  0  0  3  0  0  0  0  0  0
  181.2330  171.7690  137.3270 N   0  0  0  0  0  2  0  0  0  0  0  0
  182.6730  173.9770  136.1970 C   0  0  0  0  0  0  0  0  0  0  0  0
  182.4120  171.5220  136.5550 C   0  0  0  0  0  0  0  0  0  0  0  0
  183.2050  174.9670  135.4770 C   0  0  0  0  0  3  0  0  0  0  0  0
  184.5120  172.6720  137.2190 C   0  0  0  0  0  2  0  0  0  0  0  0
  185.7240  172.4300  136.5700 O   0  0  0  0  0  1  0  0  0  0  0  0
  2  7  1  0  0  0  0
  2  3  1  0  0  0  0
  3 13  1  0  0  0  0
  3  4  1  0  0  0  0
  4  6  1  0  0  0  0
  4  1  1  0  0  0  0
  5 30  1  6  0  0  0
  5  4  1  0  0  0  0
  7 40  1  1  0  0  0
  7  5  1  0  0  0  0
  8 10  1  0  0  0  0
  9 10  2  0  0  0  0
 10 16  1  0  0  0  0
 11  8  2  0  0  0  0
 12 11  1  0  0  0  0
 12 13  2  0  0  0  0
 13  9  1  0  0  0  0
 14 28  1  1  0  0  0
 15 27  1  0  0  0  0
 16 23  1  0  0  0  0
 16 20  1  0  0  0  0
 17 28  1  6  0  0  0
 17 19  1  0  0  0  0
 18 20  1  6  0  0  0
 18 21  1  0  0  0  0
 18 14  1  0  0  0  0
 19 25  1  0  0  0  0
 21 14  1  0  0  0  0
 21 15  1  6  0  0  0
 22 18  1  0  0  0  0
 23 22  1  0  0  0  0
 24 25  1  0  0  0  0
 26 24  1  0  0  0  0
 27 17  1  0  0  0  0
 27 26  1  6  0  0  0
 30 29  1  0  0  0  0
 31 29  2  0  0  0  0
 32 33  1  0  0  0  0
 33 34  1  0  0  0  0
 34 39  2  0  0  0  0
 35 32  1  0  0  0  0
 36 35  1  0  0  0  0
 36 38  1  0  0  0  0
 37 29  1  6  0  0  0
 37 34  1  0  0  0  0
 38 37  1  0  0  0  0
 40 49  1  0  0  0  0
 41 48  2  0  0  0  0
 42 43  1  0  0  0  0
 43 44  2  0  0  0  0
 45 48  1  0  0  0  0
 45 50  1  1  0  0  0
 46 43  1  0  0  0  0
 47 45  1  0  0  0  0
 47 42  1  0  0  0  0
 48 46  1  0  0  0  0
 49 47  2  0  0  0  0
 51 50  1  0  0  0  0
M  END
>  <MODEL>
6

>  <REMARK>
 VINA RESULT:      -6.0      4.557     10.157
  Name = 
  7 active torsions:
  status: ('A' for Active; 'I' for Inactive)
    1  A    between atoms: C_1  and  C_35
    2  A    between atoms: N_9  and  C_20
    3  A    between atoms: N_12  and  C_51
    4  A    between atoms: N_19  and  C_27
    5  A    between atoms: C_31  and  C_33
    6  A    between atoms: C_42  and  C_45
    7  A    between atoms: C_42  and  C_49
                            x       y       z     vdW  Elec       q    Type
                         _______ _______ _______ _____ _____    ______ ____

>  <TORSDO>
F 7

$$$$
=
 OpenBabel11032419243D

 51 58  0  0  1  0  0  0  0  0999 V2000
  187.2580  177.4040  134.8150 C   0  0  0  0  0  1  0  0  0  0  0  0
  188.1810  176.2020  138.0180 C   0  0  0  0  0  2  0  0  0  0  0  0
  187.6790  175.8880  136.6920 N   0  0  0  0  0  0  0  0  0  0  0  0
  186.7900  176.9250  136.1760 C   0  0  0  0  0  0  0  0  0  0  0  0
  186.9200  178.0790  137.1750 C   0  0  2  0  0  3  0  0  0  0  0  0
  185.3670  176.3860  136.0760 C   0  0  0  0  0  1  0  0  0  0  0  0
  187.4580  177.4640  138.4580 C   0  0  2  0  0  3  0  0  0  0  0  0
  188.7810  172.3330  134.6420 C   0  0  0  0  0  3  0  0  0  0  0  0
  189.3810  174.2190  136.0290 C   0  0  0  0  0  3  0  0  0  0  0  0
  189.7540  173.0480  135.3540 C   0  0  0  0  0  0  0  0  0  0  0  0
  187.4610  172.7880  134.5940 C   0  0  0  0  0  3  0  0  0  0  0  0
  187.1030  173.9610  135.2620 C   0  0  0  0  0  3  0  0  0  0  0  0
  188.0580  174.6840  135.9940 C   0  0  0  0  0  0  0  0  0  0  0  0
  194.4390  172.8520  136.8780 C   0  0  2  0  0  3  0  0  0  0  0  0
  194.6880  175.2250  136.0690 S   0  0  0  0  0  0  0  0  0  0  0  0
  191.1160  172.5980  135.3790 N   0  0  0  0  0  0  0  0  0  0  0  0
  196.7690  173.5220  137.1800 C   0  0  1  0  0  3  0  0  0  0  0  0
  193.3170  172.6160  135.9040 C   0  0  1  0  0  0  0  0  0  0  0  0
  198.2320  173.0690  137.0540 C   0  0  0  0  0  2  0  0  0  0  0  0
  192.0620  173.2680  136.1750 N   0  0  0  0  0  2  0  0  0  0  0  0
  194.4280  173.5400  135.5000 C   0  0  2  0  0  3  0  0  0  0  0  0
  193.1850  171.0820  134.9900 S   0  0  0  0  0  0  0  0  0  0  0  0
  191.5080  171.4900  134.5940 N   0  0  0  0  0  2  0  0  0  0  0  0
  198.7980  174.8470  135.3570 C   0  0  0  0  0  2  0  0  0  0  0  0
  199.1580  174.2350  136.7200 C   0  0  0  0  0  2  0  0  0  0  0  0
  197.2880  174.9050  135.0830 C   0  0  0  0  0  2  0  0  0  0  0  0
  196.4760  174.8430  136.3790 C   0  0  1  0  0  3  0  0  0  0  0  0
  195.8510  172.3330  136.8220 C   0  0  0  0  0  2  0  0  0  0  0  0
  184.6730  178.2720  138.3090 C   0  0  0  0  0  0  0  0  0  0  0  0
  185.6680  178.7850  137.4190 N   0  0  0  0  0  2  0  0  0  0  0  0
  184.8020  177.1270  138.8210 O   0  0  0  0  0  0  0  0  0  0  0  0
  181.2530  178.9100  140.6480 O   0  0  0  0  0  0  0  0  0  0  0  0
  181.4240  177.8580  139.7350 C   0  0  0  0  0  2  0  0  0  0  0  0
  182.1580  178.3790  138.5320 C   0  0  0  0  0  0  0  0  0  0  0  0
  182.2960  178.8080  141.5960 C   0  0  0  0  0  2  0  0  0  0  0  0
  183.6860  179.0020  140.9700 C   0  0  0  0  0  2  0  0  0  0  0  0
  183.4780  179.1030  138.6710 C   0  0  1  0  0  3  0  0  0  0  0  0
  183.6250  179.8690  139.8580 O   0  0  0  0  0  0  0  0  0  0  0  0
  181.7020  178.1760  137.4180 O   0  0  0  0  0  0  0  0  0  0  0  0
  188.4110  178.4440  139.1330 C   0  0  0  0  0  2  0  0  0  0  0  0
  190.3970  178.5040  144.8370 O   0  0  0  0  0  0  0  0  0  0  0  0
  190.5950  177.6640  140.8270 N   0  0  0  0  0  2  0  0  0  0  0  0
  191.7470  177.4830  141.6480 C   0  0  0  0  0  0  0  0  0  0  0  0
  192.8380  177.1200  141.1340 O   0  0  0  0  0  0  0  0  0  0  0  0
  189.1250  177.9390  142.8930 C   0  0  2  0  0  3  0  0  0  0  0  0
  191.6680  177.7520  143.0460 N   0  0  0  0  0  2  0  0  0  0  0  0
  189.3330  178.0160  141.4030 C   0  0  0  0  0  0  0  0  0  0  0  0
  190.4170  178.0980  143.6480 C   0  0  0  0  0  0  0  0  0  0  0  0
  188.3070  178.3700  140.6250 C   0  0  0  0  0  3  0  0  0  0  0  0
  188.4700  176.6080  143.2470 C   0  0  0  0  0  2  0  0  0  0  0  0
  187.7050  176.7430  144.4070 O   0  0  0  0  0  1  0  0  0  0  0  0
  1  4  1  0  0  0  0
  2  7  1  0  0  0  0
  3  2  1  0  0  0  0
  4  3  1  0  0  0  0
  4  5  1  0  0  0  0
  5 30  1  1  0  0  0
  5  7  1  0  0  0  0
  6  4  1  0  0  0  0
  7 40  1  6  0  0  0
  8 10  1  0  0  0  0
 10 16  1  0  0  0  0
 10  9  2  0  0  0  0
 11  8  2  0  0  0  0
 11 12  1  0  0  0  0
 12 13  2  0  0  0  0
 13  9  1  0  0  0  0
 13  3  1  0  0  0  0
 14 28  1  6  0  0  0
 15 27  1  0  0  0  0
 16 20  1  0  0  0  0
 17 28  1  6  0  0  0
 18 22  1  6  0  0  0
 18 20  1  0  0  0  0
 18 14  1  0  0  0  0
 19 17  1  0  0  0  0
 21 18  1  0  0  0  0
 21 15  1  1  0  0  0
 21 14  1  0  0  0  0
 23 22  1  0  0  0  0
 23 16  1  0  0  0  0
 24 25  1  0  0  0  0
 25 19  1  0  0  0  0
 26 24  1  0  0  0  0
 27 26  1  6  0  0  0
 27 17  1  0  0  0  0
 29 31  2  0  0  0  0
 30 29  1  0  0  0  0
 32 35  1  0  0  0  0
 33 32  1  0  0  0  0
 34 37  1  0  0  0  0
 34 33  1  0  0  0  0
 36 35  1  0  0  0  0
 37 29  1  1  0  0  0
 37 38  1  0  0  0  0
 38 36  1  0  0  0  0
 39 34  2  0  0  0  0
 40 49  1  0  0  0  0
 42 47  1  0  0  0  0
 42 43  1  0  0  0  0
 43 46  1  0  0  0  0
 44 43  2  0  0  0  0
 45 50  1  6  0  0  0
 45 48  1  0  0  0  0
 46 48  1  0  0  0  0
 47 45  1  0  0  0  0
 48 41  2  0  0  0  0
 49 47  2  0  0  0  0
 50 51  1  0  0  0  0
M  END
>  <MODEL>
7

>  <REMARK>
 VINA RESULT:      -5.8      3.904     10.755
  Name = 
  7 active torsions:
  status: ('A' for Active; 'I' for Inactive)
    1  A    between atoms: C_1  and  C_35
    2  A    between atoms: N_9  and  C_20
    3  A    between atoms: N_12  and  C_51
    4  A    between atoms: N_19  and  C_27
    5  A    between atoms: C_31  and  C_33
    6  A    between atoms: C_42  and  C_45
    7  A    between atoms: C_42  and  C_49
                            x       y       z     vdW  Elec       q    Type
                         _______ _______ _______ _____ _____    ______ ____

>  <TORSDO>
F 7

$$$$
=
 OpenBabel11032419243D

 51 58  0  0  1  0  0  0  0  0999 V2000
  184.2670  177.7920  140.1220 C   0  0  0  0  0  1  0  0  0  0  0  0
  184.9250  177.2150  136.6880 C   0  0  0  0  0  2  0  0  0  0  0  0
  185.3950  177.7630  137.9470 N   0  0  0  0  0  0  0  0  0  0  0  0
  184.3190  178.3740  138.7220 C   0  0  0  0  0  0  0  0  0  0  0  0
  183.0370  177.9850  137.9790 C   0  0  2  0  0  3  0  0  0  0  0  0
  184.5240  179.8830  138.7950 C   0  0  0  0  0  1  0  0  0  0  0  0
  183.4650  177.6220  136.5660 C   0  0  2  0  0  3  0  0  0  0  0  0
  189.4630  177.5170  139.1510 C   0  0  0  0  0  3  0  0  0  0  0  0
  187.7180  177.0070  137.5580 C   0  0  0  0  0  3  0  0  0  0  0  0
  189.0620  176.9190  137.9480 C   0  0  0  0  0  0  0  0  0  0  0  0
  188.5330  178.1800  139.9570 C   0  0  0  0  0  3  0  0  0  0  0  0
  187.1950  178.2530  139.5620 C   0  0  0  0  0  3  0  0  0  0  0  0
  186.7750  177.6740  138.3550 C   0  0  0  0  0  0  0  0  0  0  0  0
  192.7100  173.7570  136.9450 C   0  0  2  0  0  3  0  0  0  0  0  0
  194.2100  175.2100  138.3540 S   0  0  0  0  0  0  0  0  0  0  0  0
  190.0100  176.2120  137.1350 N   0  0  0  0  0  0  0  0  0  0  0  0
  194.9760  172.8500  136.8330 C   0  0  1  0  0  3  0  0  0  0  0  0
  191.8110  174.9280  136.6580 C   0  0  1  0  0  0  0  0  0  0  0  0
  196.0360  172.2320  135.9090 C   0  0  0  0  0  2  0  0  0  0  0  0
  190.9980  175.4160  137.7410 N   0  0  0  0  0  2  0  0  0  0  0  0
  193.2810  175.1810  136.8150 C   0  0  2  0  0  3  0  0  0  0  0  0
  191.1270  175.1990  135.0250 S   0  0  0  0  0  0  0  0  0  0  0  0
  189.9570  176.3260  135.7280 N   0  0  0  0  0  2  0  0  0  0  0  0
  197.6850  174.1010  136.2940 C   0  0  0  0  0  2  0  0  0  0  0  0
  197.4520  172.5840  136.3580 C   0  0  0  0  0  2  0  0  0  0  0  0
  196.4670  174.9340  136.7210 C   0  0  0  0  0  2  0  0  0  0  0  0
  195.5040  174.1230  137.5910 C   0  0  1  0  0  3  0  0  0  0  0  0
  193.6820  173.0750  136.0200 C   0  0  0  0  0  2  0  0  0  0  0  0
  180.6480  178.7610  138.2330 C   0  0  0  0  0  0  0  0  0  0  0  0
  182.0260  179.0360  137.9660 N   0  0  0  0  0  2  0  0  0  0  0  0
  180.2480  177.5720  138.3730 O   0  0  0  0  0  0  0  0  0  0  0  0
  179.5810  182.7720  137.6450 O   0  0  0  0  0  0  0  0  0  0  0  0
  180.6300  182.3260  138.4640 C   0  0  0  0  0  2  0  0  0  0  0  0
  180.1960  181.0670  139.1610 C   0  0  0  0  0  0  0  0  0  0  0  0
  179.8450  182.2980  136.3400 C   0  0  0  0  0  2  0  0  0  0  0  0
  179.8360  180.7640  136.2540 C   0  0  0  0  0  2  0  0  0  0  0  0
  179.6660  179.8830  138.3840 C   0  0  1  0  0  3  0  0  0  0  0  0
  178.9490  180.2080  137.2010 O   0  0  0  0  0  0  0  0  0  0  0  0
  180.3120  180.9840  140.3720 O   0  0  0  0  0  0  0  0  0  0  0  0
  182.6080  176.4710  136.0520 C   0  0  0  0  0  2  0  0  0  0  0  0
  183.4100  170.4850  136.1140 O   0  0  0  0  0  0  0  0  0  0  0  0
  181.6470  174.0230  137.2070 N   0  0  0  0  0  2  0  0  0  0  0  0
  181.0560  172.7860  137.5960 C   0  0  0  0  0  0  0  0  0  0  0  0
  179.9650  172.7780  138.2270 O   0  0  0  0  0  0  0  0  0  0  0  0
  183.7770  172.8180  136.4870 C   0  0  2  0  0  3  0  0  0  0  0  0
  181.6840  171.5580  137.2360 N   0  0  0  0  0  2  0  0  0  0  0  0
  182.9160  174.0540  136.5460 C   0  0  0  0  0  0  0  0  0  0  0  0
  182.9560  171.5590  136.5820 C   0  0  0  0  0  0  0  0  0  0  0  0
  183.3770  175.1870  136.0140 C   0  0  0  0  0  3  0  0  0  0  0  0
  184.8050  172.8610  137.6120 C   0  0  0  0  0  2  0  0  0  0  0  0
  186.0620  172.4930  137.1280 O   0  0  0  0  0  1  0  0  0  0  0  0
  2  3  1  0  0  0  0
  3 13  1  0  0  0  0
  3  4  1  0  0  0  0
  4  6  1  0  0  0  0
  4  1  1  0  0  0  0
  5 30  1  6  0  0  0
  5  4  1  0  0  0  0
  7 40  1  1  0  0  0
  7  2  1  0  0  0  0
  7  5  1  0  0  0  0
  8 11  1  0  0  0  0
  9 10  1  0  0  0  0
  9 13  2  0  0  0  0
 10  8  2  0  0  0  0
 12 11  2  0  0  0  0
 13 12  1  0  0  0  0
 14 28  1  6  0  0  0
 16 20  1  0  0  0  0
 16 10  1  0  0  0  0
 17 19  1  6  0  0  0
 17 27  1  0  0  0  0
 18 22  1  6  0  0  0
 18 21  1  0  0  0  0
 18 14  1  0  0  0  0
 18 20  1  0  0  0  0
 19 25  1  0  0  0  0
 21 14  1  0  0  0  0
 21 15  1  1  0  0  0
 22 23  1  0  0  0  0
 23 16  1  0  0  0  0
 24 25  1  0  0  0  0
 24 26  1  0  0  0  0
 27 26  1  6  0  0  0
 27 15  1  0  0  0  0
 28 17  1  0  0  0  0
 29 31  2  0  0  0  0
 30 29  1  0  0  0  0
 32 33  1  0  0  0  0
 33 34  1  0  0  0  0
 34 39  2  0  0  0  0
 35 32  1  0  0  0  0
 36 35  1  0  0  0  0
 36 38  1  0  0  0  0
 37 29  1  6  0  0  0
 37 34  1  0  0  0  0
 38 37  1  0  0  0  0
 41 48  2  0  0  0  0
 42 43  1  0  0  0  0
 43 44  2  0  0  0  0
 45 47  1  0  0  0  0
 45 48  1  0  0  0  0
 45 50  1  1  0  0  0
 46 43  1  0  0  0  0
 47 42  1  0  0  0  0
 48 46  1  0  0  0  0
 49 40  1  0  0  0  0
 49 47  2  0  0  0  0
 51 50  1  0  0  0  0
M  END
>  <MODEL>
8

>  <REMARK>
 VINA RESULT:      -5.7      4.373     11.916
  Name = 
  7 active torsions:
  status: ('A' for Active; 'I' for Inactive)
    1  A    between atoms: C_1  and  C_35
    2  A    between atoms: N_9  and  C_20
    3  A    between atoms: N_12  and  C_51
    4  A    between atoms: N_19  and  C_27
    5  A    between atoms: C_31  and  C_33
    6  A    between atoms: C_42  and  C_45
    7  A    between atoms: C_42  and  C_49
                            x       y       z     vdW  Elec       q    Type
                         _______ _______ _______ _____ _____    ______ ____

>  <TORSDO>
F 7

$$$$
=
 OpenBabel11032419243D

 51 58  0  0  1  0  0  0  0  0999 V2000
  182.4960  175.1450  138.8310 C   0  0  0  0  0  1  0  0  0  0  0  0
  184.3560  177.2950  136.7150 C   0  0  0  0  0  2  0  0  0  0  0  0
  183.2350  177.1460  137.6270 N   0  0  0  0  0  0  0  0  0  0  0  0
  182.5780  175.8490  137.4900 C   0  0  0  0  0  0  0  0  0  0  0  0
  183.4990  175.0440  136.5680 C   0  0  2  0  0  3  0  0  0  0  0  0
  181.1790  176.0340  136.9140 C   0  0  0  0  0  1  0  0  0  0  0  0
  184.3430  176.0660  135.8220 C   0  0  2  0  0  3  0  0  0  0  0  0
  182.1390  180.2110  140.3580 C   0  0  0  0  0  3  0  0  0  0  0  0
  183.1660  178.0670  139.9220 C   0  0  0  0  0  3  0  0  0  0  0  0
  182.8060  179.0720  140.8300 C   0  0  0  0  0  0  0  0  0  0  0  0
  181.8240  180.3360  139.0030 C   0  0  0  0  0  3  0  0  0  0  0  0
  182.1790  179.3230  138.1080 C   0  0  0  0  0  3  0  0  0  0  0  0
  182.8610  178.1820  138.5570 C   0  0  0  0  0  0  0  0  0  0  0  0
  185.4710  179.4430  144.9620 C   0  0  2  0  0  3  0  0  0  0  0  0
  187.1210  177.8550  143.9110 S   0  0  0  0  0  0  0  0  0  0  0  0
  183.1030  178.9290  142.2270 N   0  0  0  0  0  0  0  0  0  0  0  0
  187.2140  178.9560  146.6040 C   0  0  1  0  0  3  0  0  0  0  0  0
  184.3650  178.8930  144.1050 C   0  0  1  0  0  0  0  0  0  0  0  0
  187.4950  178.6530  148.0830 C   0  0  0  0  0  2  0  0  0  0  0  0
  184.3950  179.2140  142.7020 N   0  0  0  0  0  2  0  0  0  0  0  0
  185.4470  177.9580  144.5580 C   0  0  2  0  0  3  0  0  0  0  0  0
  182.7290  178.6000  144.7730 S   0  0  0  0  0  0  0  0  0  0  0  0
  182.1000  178.4900  143.1210 N   0  0  0  0  0  2  0  0  0  0  0  0
  188.4670  176.3770  147.5920 C   0  0  0  0  0  2  0  0  0  0  0  0
  188.7090  177.7430  148.2530 C   0  0  0  0  0  2  0  0  0  0  0  0
  187.6920  176.4580  146.2690 C   0  0  0  0  0  2  0  0  0  0  0  0
  187.7870  177.8510  145.6420 C   0  0  1  0  0  3  0  0  0  0  0  0
  185.7050  179.2380  146.4350 C   0  0  0  0  0  2  0  0  0  0  0  0
  183.0500  172.7750  135.5560 C   0  0  0  0  0  0  0  0  0  0  0  0
  182.7840  174.1770  135.6380 N   0  0  0  0  0  2  0  0  0  0  0  0
  184.0020  172.2650  136.2090 O   0  0  0  0  0  0  0  0  0  0  0  0
  180.0820  169.8310  135.2430 O   0  0  0  0  0  0  0  0  0  0  0  0
  181.3520  169.6420  135.8070 C   0  0  0  0  0  2  0  0  0  0  0  0
  182.3590  170.4100  134.9980 C   0  0  0  0  0  0  0  0  0  0  0  0
  179.4550  170.8660  135.9730 C   0  0  0  0  0  2  0  0  0  0  0  0
  180.1890  172.2100  135.8440 C   0  0  0  0  0  2  0  0  0  0  0  0
  182.1810  171.8850  134.7190 C   0  0  1  0  0  3  0  0  0  0  0  0
  180.8350  172.3180  134.5940 O   0  0  0  0  0  0  0  0  0  0  0  0
  183.3600  169.8410  134.5940 O   0  0  0  0  0  0  0  0  0  0  0  0
  185.7490  175.5130  135.6160 C   0  0  0  0  0  2  0  0  0  0  0  0
  191.2690  177.2160  137.3800 O   0  0  0  0  0  0  0  0  0  0  0  0
  188.1830  174.5740  136.8160 N   0  0  0  0  0  2  0  0  0  0  0  0
  189.4670  174.0930  137.2080 C   0  0  0  0  0  0  0  0  0  0  0  0
  189.6680  172.8540  137.3260 O   0  0  0  0  0  0  0  0  0  0  0  0
  188.8910  176.9720  137.3190 C   0  0  2  0  0  3  0  0  0  0  0  0
  190.5310  175.0160  137.4280 N   0  0  0  0  0  2  0  0  0  0  0  0
  187.9190  175.9780  136.7370 C   0  0  0  0  0  0  0  0  0  0  0  0
  190.2930  176.4250  137.3620 C   0  0  0  0  0  0  0  0  0  0  0  0
  186.7870  176.4270  136.1900 C   0  0  0  0  0  3  0  0  0  0  0  0
  188.4370  177.3660  138.7200 C   0  0  0  0  0  2  0  0  0  0  0  0
  188.1230  178.7250  138.7590 O   0  0  0  0  0  1  0  0  0  0  0  0
  2  3  1  0  0  0  0
  3 13  1  0  0  0  0
  4  3  1  0  0  0  0
  4  1  1  0  0  0  0
  5 30  1  6  0  0  0
  5  4  1  0  0  0  0
  6  4  1  0  0  0  0
  7 40  1  1  0  0  0
  7  5  1  0  0  0  0
  7  2  1  0  0  0  0
  8 10  1  0  0  0  0
  9 10  2  0  0  0  0
 10 16  1  0  0  0  0
 11  8  2  0  0  0  0
 12 13  2  0  0  0  0
 12 11  1  0  0  0  0
 13  9  1  0  0  0  0
 14 28  1  1  0  0  0
 15 27  1  0  0  0  0
 16 20  1  0  0  0  0
 16 23  1  0  0  0  0
 17 28  1  1  0  0  0
 17 19  1  0  0  0  0
 18 20  1  6  0  0  0
 18 21  1  0  0  0  0
 18 22  1  0  0  0  0
 18 14  1  0  0  0  0
 19 25  1  0  0  0  0
 21 15  1  6  0  0  0
 21 14  1  0  0  0  0
 23 22  1  0  0  0  0
 24 25  1  0  0  0  0
 26 24  1  0  0  0  0
 27 26  1  1  0  0  0
 27 17  1  0  0  0  0
 29 30  1  0  0  0  0
 29 31  2  0  0  0  0
 32 33  1  0  0  0  0
 32 35  1  0  0  0  0
 34 33  1  0  0  0  0
 36 35  1  0  0  0  0
 37 34  1  0  0  0  0
 37 29  1  1  0  0  0
 38 37  1  0  0  0  0
 38 36  1  0  0  0  0
 39 34  2  0  0  0  0
 40 49  1  0  0  0  0
 42 43  1  0  0  0  0
 43 44  2  0  0  0  0
 43 46  1  0  0  0  0
 45 48  1  0  0  0  0
 45 50  1  1  0  0  0
 47 42  1  0  0  0  0
 47 45  1  0  0  0  0
 48 41  2  0  0  0  0
 48 46  1  0  0  0  0
 49 47  2  0  0  0  0
 50 51  1  0  0  0  0
M  END
>  <MODEL>
9

>  <REMARK>
 VINA RESULT:      -5.3      4.494      8.722
  Name = 
  7 active torsions:
  status: ('A' for Active; 'I' for Inactive)
    1  A    between atoms: C_1  and  C_35
    2  A    between atoms: N_9  and  C_20
    3  A    between atoms: N_12  and  C_51
    4  A    between atoms: N_19  and  C_27
    5  A    between atoms: C_31  and  C_33
    6  A    between atoms: C_42  and  C_45
    7  A    between atoms: C_42  and  C_49
                            x       y       z     vdW  Elec       q    Type
                         _______ _______ _______ _____ _____    ______ ____

>  <TORSDO>
F 7

$$$$
