=
 OpenBabel11032420553D

 47 54  0  0  1  0  0  0  0  0999 V2000
  183.0650  178.5570  140.2980 C   0  0  0  0  0  0  0  0  0  0  0  0
  182.9250  178.7630  141.7480 C   0  0  0  0  0  0  0  0  0  0  0  0
  184.5950  178.4430  138.4160 O   0  0  0  0  0  0  0  0  0  0  0  0
  182.1250  178.8970  143.7310 C   0  0  0  0  0  3  0  0  0  0  0  0
  182.6370  177.4420  137.4250 C   0  0  0  0  0  3  0  0  0  0  0  0
  183.9550  177.6250  137.4770 C   0  0  0  0  0  0  0  0  0  0  0  0
  181.8170  178.4800  139.5280 C   0  0  0  0  0  3  0  0  0  0  0  0
  183.4780  179.1920  143.8170 C   0  0  0  0  0  0  0  0  0  0  0  0
  185.3370  179.3780  142.0020 C   0  0  0  0  0  2  0  0  0  0  0  0
  181.8300  178.6540  142.4670 O   0  0  0  0  0  0  0  0  0  0  0  0
  181.6010  178.0050  138.3060 C   0  0  0  0  0  0  0  0  0  0  0  0
  185.5410  178.6070  140.6860 C   0  0  0  0  0  2  0  0  0  0  0  0
  183.9790  179.0900  142.5430 C   0  0  0  0  0  0  0  0  0  0  0  0
  184.3160  178.5440  139.7780 C   0  0  0  0  0  0  0  0  0  0  0  0
  184.8940  174.8950  137.4360 O   0  0  0  0  0  0  0  0  0  0  0  0
  184.7450  177.0130  136.4530 N   0  0  0  0  0  2  0  0  0  0  0  0
  185.3040  175.7010  136.5530 C   0  0  0  0  0  0  0  0  0  0  0  0
  186.3140  175.3200  135.6710 O   0  0  0  0  0  0  0  0  0  0  0  0
  187.6500  175.1030  136.1080 C   0  0  2  0  0  3  0  0  0  0  0  0
  187.8120  178.1440  135.4780 O   0  0  0  0  0  1  0  0  0  0  0  0
  188.6350  177.7040  138.7030 C   0  0  2  0  0  3  0  0  0  0  0  0
  189.1900  178.3380  137.4380 C   0  0  1  0  0  0  0  0  0  0  0  0
  190.1420  177.8040  138.4880 C   0  0  0  0  0  2  0  0  0  0  0  0
  188.1330  176.2890  136.8980 C   0  0  0  0  0  0  0  0  0  0  0  0
  188.7620  177.4720  136.2530 C   0  0  1  0  0  3  0  0  0  0  0  0
  188.9590  179.7120  137.4160 O   0  0  0  0  0  1  0  0  0  0  0  0
  188.0940  176.3970  138.2240 C   0  0  0  0  0  3  0  0  0  0  0  0
  188.5310  174.7600  134.9460 C   0  0  0  0  0  3  0  0  0  0  0  0
  189.6730  174.1050  135.1370 C   0  0  0  0  0  2  0  0  0  0  0  0
  180.2790  178.0050  137.8620 O   0  0  0  0  0  0  0  0  0  0  0  0
  179.2910  178.5130  138.6180 O   0  0  0  0  0  1  0  0  0  0  0  0
  184.2490  179.4230  145.0710 C   0  0  0  0  0  2  0  0  0  0  0  0
  184.5740  178.0860  145.7150 C   0  0  0  0  0  2  0  0  0  0  0  0
  187.0060  178.2790  146.2250 C   0  0  0  0  0  3  0  0  0  0  0  0
  185.7370  178.2100  146.6490 C   0  0  0  0  0  3  0  0  0  0  0  0
  189.3730  176.7270  145.6380 C   0  0  0  0  0  2  0  0  0  0  0  0
  191.5270  177.4670  144.4840 C   0  0  1  0  0  3  0  0  0  0  0  0
  189.4130  177.6540  143.1590 C   0  0  1  0  0  0  0  0  0  0  0  0
  191.8590  176.1190  143.8260 C   0  0  0  0  0  2  0  0  0  0  0  0
  190.7270  178.3480  143.5200 C   0  0  0  0  0  2  0  0  0  0  0  0
  187.2370  176.8100  144.2630 C   0  0  0  0  0  2  0  0  0  0  0  0
  189.7470  176.3380  142.4320 C   0  0  0  0  0  2  0  0  0  0  0  0
  187.3800  178.2400  144.7710 C   0  0  2  0  0  3  0  0  0  0  0  0
  190.6140  175.4020  143.2820 C   0  0  0  0  0  2  0  0  0  0  0  0
  188.6210  177.3940  144.4740 C   0  0  1  0  0  0  0  0  0  0  0  0
  190.7760  177.3220  145.8140 C   0  0  0  0  0  2  0  0  0  0  0  0
  188.6690  178.5560  142.1790 C   0  0  0  0  0  1  0  0  0  0  0  0
  1  2  1  0  0  0  0
  2 10  1  0  0  0  0
  2 13  2  0  0  0  0
  3 14  1  0  0  0  0
  4  8  2  0  0  0  0
  5  6  2  0  0  0  0
  5 11  1  0  0  0  0
  6  3  1  0  0  0  0
  7  1  1  0  0  0  0
  8 32  1  0  0  0  0
  9 13  1  0  0  0  0
 10  4  1  0  0  0  0
 11  7  2  0  0  0  0
 12  9  1  0  0  0  0
 13  8  1  0  0  0  0
 14  1  2  0  0  0  0
 14 12  1  0  0  0  0
 16 17  1  0  0  0  0
 16  6  1  0  0  0  0
 17 15  2  0  0  0  0
 18 19  1  0  0  0  0
 18 17  1  0  0  0  0
 19 28  1  6  0  0  0
 19 24  1  0  0  0  0
 21 27  1  6  0  0  0
 22 26  1  6  0  0  0
 22 23  1  0  0  0  0
 22 21  1  0  0  0  0
 23 21  1  0  0  0  0
 24 27  2  0  0  0  0
 25 20  1  6  0  0  0
 25 24  1  0  0  0  0
 25 22  1  0  0  0  0
 28 29  2  0  0  0  0
 30 11  1  0  0  0  0
 30 31  1  0  0  0  0
 32 33  1  0  0  0  0
 33 35  1  0  0  0  0
 34 35  2  0  0  0  0
 36 46  1  0  0  0  0
 37 40  1  6  0  0  0
 37 46  1  0  0  0  0
 38 47  1  6  0  0  0
 38 40  1  0  0  0  0
 38 45  1  0  0  0  0
 39 37  1  0  0  0  0
 41 43  1  0  0  0  0
 42 38  1  0  0  0  0
 42 44  1  0  0  0  0
 43 34  1  1  0  0  0
 44 39  1  0  0  0  0
 45 41  1  6  0  0  0
 45 43  1  0  0  0  0
 45 36  1  0  0  0  0
M  END
>  <MODEL>
1

>  <REMARK>
 VINA RESULT:      -9.3      0.000      0.000
  Name = 
  10 active torsions:
  status: ('A' for Active; 'I' for Inactive)
    1  A    between atoms: C_2  and  C_16
    2  A    between atoms: C_2  and  C_32
    3  A    between atoms: C_3  and  C_25
    4  A    between atoms: O_13  and  C_40
    5  A    between atoms: C_16  and  C_26
    6  A    between atoms: C_20  and  C_36
    7  A    between atoms: O_23  and  C_36
    8  A    between atoms: O_23  and  C_39
    9  A    between atoms: C_27  and  C_36
   10  A    between atoms: N_28  and  C_29
                            x       y       z     vdW  Elec       q    Type
                         _______ _______ _______ _____ _____    ______ ____

>  <TORSDO>
F 10

$$$$
=
 OpenBabel11032420553D

 47 54  0  0  1  0  0  0  0  0999 V2000
  183.8820  178.4510  139.6310 C   0  0  0  0  0  0  0  0  0  0  0  0
  183.2140  178.5780  140.9350 C   0  0  0  0  0  0  0  0  0  0  0  0
  185.9870  178.5470  138.4250 O   0  0  0  0  0  0  0  0  0  0  0  0
  181.7480  178.5550  142.4990 C   0  0  0  0  0  3  0  0  0  0  0  0
  184.6140  177.4380  136.7820 C   0  0  0  0  0  3  0  0  0  0  0  0
  185.8030  177.7240  137.3080 C   0  0  0  0  0  0  0  0  0  0  0  0
  183.0040  178.3090  138.4620 C   0  0  0  0  0  3  0  0  0  0  0  0
  182.9480  178.9540  143.0700 C   0  0  0  0  0  0  0  0  0  0  0  0
  185.3080  179.3710  142.0510 C   0  0  0  0  0  2  0  0  0  0  0  0
  181.9490  178.3490  141.2100 O   0  0  0  0  0  0  0  0  0  0  0  0
  183.2840  177.8750  137.2370 C   0  0  0  0  0  0  0  0  0  0  0  0
  186.0380  178.6810  140.8860 C   0  0  0  0  0  2  0  0  0  0  0  0
  183.8790  178.9510  142.0620 C   0  0  0  0  0  0  0  0  0  0  0  0
  185.2310  178.5620  139.5970 C   0  0  0  0  0  0  0  0  0  0  0  0
  186.9380  175.0810  137.5670 O   0  0  0  0  0  0  0  0  0  0  0  0
  186.9590  177.2250  136.6280 N   0  0  0  0  0  2  0  0  0  0  0  0
  187.5620  175.9580  136.9040 C   0  0  0  0  0  0  0  0  0  0  0  0
  188.8520  175.7000  136.4400 O   0  0  0  0  0  0  0  0  0  0  0  0
  189.6090  174.5920  136.9090 C   0  0  2  0  0  3  0  0  0  0  0  0
  190.6920  176.4940  139.1170 O   0  0  0  0  0  1  0  0  0  0  0  0
  193.3190  175.0370  137.6200 C   0  0  2  0  0  3  0  0  0  0  0  0
  192.7970  176.4240  137.9560 C   0  0  1  0  0  0  0  0  0  0  0  0
  193.6670  176.2280  136.7320 C   0  0  0  0  0  2  0  0  0  0  0  0
  190.9960  175.0380  137.2880 C   0  0  0  0  0  0  0  0  0  0  0  0
  191.2710  176.3870  137.8490 C   0  0  1  0  0  3  0  0  0  0  0  0
  193.4020  176.9290  139.1050 O   0  0  0  0  0  1  0  0  0  0  0  0
  192.1050  174.3190  137.1310 C   0  0  0  0  0  3  0  0  0  0  0  0
  189.5930  173.4840  135.8990 C   0  0  0  0  0  3  0  0  0  0  0  0
  188.6680  172.5310  135.9610 C   0  0  0  0  0  2  0  0  0  0  0  0
  182.2150  177.7900  136.3470 O   0  0  0  0  0  0  0  0  0  0  0  0
  181.0290  178.3580  136.6260 O   0  0  0  0  0  1  0  0  0  0  0  0
  183.1950  179.1880  144.5220 C   0  0  0  0  0  2  0  0  0  0  0  0
  184.6670  179.4930  144.7390 C   0  0  0  0  0  2  0  0  0  0  0  0
  186.3630  177.8530  145.5440 C   0  0  0  0  0  3  0  0  0  0  0  0
  185.2570  178.5770  145.7650 C   0  0  0  0  0  3  0  0  0  0  0  0
  189.0090  176.6930  145.6510 C   0  0  0  0  0  2  0  0  0  0  0  0
  191.2540  177.7740  145.0920 C   0  0  1  0  0  3  0  0  0  0  0  0
  189.5680  177.6540  143.2480 C   0  0  1  0  0  0  0  0  0  0  0  0
  191.9520  176.5030  144.5830 C   0  0  0  0  0  2  0  0  0  0  0  0
  190.6160  178.5360  143.9270 C   0  0  0  0  0  2  0  0  0  0  0  0
  187.3310  176.4680  143.7540 C   0  0  0  0  0  2  0  0  0  0  0  0
  190.2810  176.4160  142.6710 C   0  0  0  0  0  2  0  0  0  0  0  0
  187.1140  177.8940  144.2440 C   0  0  2  0  0  3  0  0  0  0  0  0
  191.0220  175.6120  143.7460 C   0  0  0  0  0  2  0  0  0  0  0  0
  188.5030  177.2540  144.3110 C   0  0  1  0  0  0  0  0  0  0  0  0
  190.2060  177.4940  146.1780 C   0  0  0  0  0  2  0  0  0  0  0  0
  188.9840  178.4450  142.0820 C   0  0  0  0  0  1  0  0  0  0  0  0
  1  2  1  0  0  0  0
  2 10  1  0  0  0  0
  2 13  2  0  0  0  0
  3 14  1  0  0  0  0
  4  8  2  0  0  0  0
  5 11  1  0  0  0  0
  5  6  2  0  0  0  0
  6  3  1  0  0  0  0
  7  1  1  0  0  0  0
  8 32  1  0  0  0  0
  9 13  1  0  0  0  0
 10  4  1  0  0  0  0
 11  7  2  0  0  0  0
 12  9  1  0  0  0  0
 13  8  1  0  0  0  0
 14  1  2  0  0  0  0
 14 12  1  0  0  0  0
 16 17  1  0  0  0  0
 16  6  1  0  0  0  0
 17 15  2  0  0  0  0
 18 17  1  0  0  0  0
 18 19  1  0  0  0  0
 19 28  1  6  0  0  0
 19 24  1  0  0  0  0
 21 23  1  6  0  0  0
 21 22  1  0  0  0  0
 22 26  1  1  0  0  0
 23 22  1  0  0  0  0
 24 25  1  0  0  0  0
 25 22  1  0  0  0  0
 25 20  1  1  0  0  0
 27 24  2  0  0  0  0
 27 21  1  0  0  0  0
 28 29  2  0  0  0  0
 30 31  1  0  0  0  0
 30 11  1  0  0  0  0
 32 33  1  0  0  0  0
 33 35  1  0  0  0  0
 34 35  2  0  0  0  0
 36 46  1  0  0  0  0
 37 40  1  6  0  0  0
 37 46  1  0  0  0  0
 38 47  1  6  0  0  0
 38 40  1  0  0  0  0
 38 45  1  0  0  0  0
 39 37  1  0  0  0  0
 41 43  1  0  0  0  0
 42 38  1  0  0  0  0
 42 44  1  0  0  0  0
 43 45  1  0  0  0  0
 43 34  1  1  0  0  0
 44 39  1  0  0  0  0
 45 41  1  6  0  0  0
 45 36  1  0  0  0  0
M  END
>  <MODEL>
2

>  <REMARK>
 VINA RESULT:      -9.1      1.894      2.275
  Name = 
  10 active torsions:
  status: ('A' for Active; 'I' for Inactive)
    1  A    between atoms: C_2  and  C_16
    2  A    between atoms: C_2  and  C_32
    3  A    between atoms: C_3  and  C_25
    4  A    between atoms: O_13  and  C_40
    5  A    between atoms: C_16  and  C_26
    6  A    between atoms: C_20  and  C_36
    7  A    between atoms: O_23  and  C_36
    8  A    between atoms: O_23  and  C_39
    9  A    between atoms: C_27  and  C_36
   10  A    between atoms: N_28  and  C_29
                            x       y       z     vdW  Elec       q    Type
                         _______ _______ _______ _____ _____    ______ ____

>  <TORSDO>
F 10

$$$$
=
 OpenBabel11032420553D

 47 54  0  0  1  0  0  0  0  0999 V2000
  188.3320  177.3940  144.1280 C   0  0  0  0  0  0  0  0  0  0  0  0
  187.2340  177.8790  144.9780 C   0  0  0  0  0  0  0  0  0  0  0  0
  189.0210  176.7640  141.8870 O   0  0  0  0  0  0  0  0  0  0  0  0
  186.1000  178.6120  146.6420 C   0  0  0  0  0  3  0  0  0  0  0  0
  191.1780  176.9820  142.9410 C   0  0  0  0  0  3  0  0  0  0  0  0
  190.4040  176.9780  141.8590 C   0  0  0  0  0  0  0  0  0  0  0  0
  189.5570  176.9760  144.8240 C   0  0  0  0  0  3  0  0  0  0  0  0
  185.2320  178.5280  145.5630 C   0  0  0  0  0  0  0  0  0  0  0  0
  185.5720  177.7000  143.1170 C   0  0  0  0  0  2  0  0  0  0  0  0
  187.2930  178.2020  146.2510 O   0  0  0  0  0  0  0  0  0  0  0  0
  190.7850  176.7970  144.3480 C   0  0  0  0  0  0  0  0  0  0  0  0
  186.7950  177.7800  142.1870 C   0  0  0  0  0  2  0  0  0  0  0  0
  185.9740  178.0710  144.5020 C   0  0  0  0  0  0  0  0  0  0  0  0
  188.1040  177.2860  142.7980 C   0  0  0  0  0  0  0  0  0  0  0  0
  189.2940  178.2060  139.4920 O   0  0  0  0  0  0  0  0  0  0  0  0
  191.0490  177.1140  140.5880 N   0  0  0  0  0  2  0  0  0  0  0  0
  190.4000  177.5990  139.4110 C   0  0  0  0  0  0  0  0  0  0  0  0
  190.9950  177.3900  138.1680 O   0  0  0  0  0  0  0  0  0  0  0  0
  190.4970  176.4230  137.2510 C   0  0  2  0  0  3  0  0  0  0  0  0
  189.3990  177.7060  134.6390 O   0  0  0  0  0  1  0  0  0  0  0  0
  186.7800  176.8070  136.5370 C   0  0  2  0  0  3  0  0  0  0  0  0
  187.3350  178.0310  135.8270 C   0  0  1  0  0  0  0  0  0  0  0  0
  186.5000  178.2050  137.0790 C   0  0  0  0  0  2  0  0  0  0  0  0
  189.1130  176.8060  136.8000 C   0  0  0  0  0  0  0  0  0  0  0  0
  188.8610  177.9650  135.9030 C   0  0  1  0  0  3  0  0  0  0  0  0
  186.7070  178.2340  134.6000 O   0  0  0  0  0  1  0  0  0  0  0  0
  187.9880  176.1990  137.1700 C   0  0  0  0  0  3  0  0  0  0  0  0
  190.5730  175.0500  137.8470 C   0  0  0  0  0  3  0  0  0  0  0  0
  190.9440  174.0130  137.1010 C   0  0  0  0  0  2  0  0  0  0  0  0
  191.7690  176.4570  145.2750 O   0  0  0  0  0  0  0  0  0  0  0  0
  191.7810  176.9950  146.5060 O   0  0  0  0  0  1  0  0  0  0  0  0
  183.8160  178.9910  145.5360 C   0  0  0  0  0  2  0  0  0  0  0  0
  183.3890  179.2220  144.0970 C   0  0  0  0  0  2  0  0  0  0  0  0
  181.4380  178.6790  142.6440 C   0  0  0  0  0  3  0  0  0  0  0  0
  182.0130  178.6850  143.8540 C   0  0  0  0  0  3  0  0  0  0  0  0
  180.9380  177.1570  140.2370 C   0  0  0  0  0  2  0  0  0  0  0  0
  182.6180  176.0250  138.6810 C   0  0  1  0  0  3  0  0  0  0  0  0
  182.8170  178.5050  138.9490 C   0  0  1  0  0  0  0  0  0  0  0  0
  181.8140  176.1960  137.3830 C   0  0  0  0  0  2  0  0  0  0  0  0
  183.5940  177.1910  138.8620 C   0  0  0  0  0  2  0  0  0  0  0  0
  181.0640  179.6880  140.4290 C   0  0  0  0  0  2  0  0  0  0  0  0
  182.0720  178.7120  137.6170 C   0  0  0  0  0  2  0  0  0  0  0  0
  182.1210  179.2110  141.4170 C   0  0  2  0  0  3  0  0  0  0  0  0
  181.1120  177.5600  137.2950 C   0  0  0  0  0  2  0  0  0  0  0  0
  181.8270  178.4080  140.1470 C   0  0  1  0  0  0  0  0  0  0  0  0
  181.7310  175.8810  139.9260 C   0  0  0  0  0  2  0  0  0  0  0  0
  183.8330  179.6330  139.0990 C   0  0  0  0  0  1  0  0  0  0  0  0
  1  7  1  0  0  0  0
  1  2  1  0  0  0  0
  2 10  1  0  0  0  0
  3 14  1  0  0  0  0
  5 11  1  0  0  0  0
  6  3  1  0  0  0  0
  6  5  2  0  0  0  0
  8  4  2  0  0  0  0
  9 13  1  0  0  0  0
 10  4  1  0  0  0  0
 11  7  2  0  0  0  0
 11 30  1  0  0  0  0
 12 14  1  0  0  0  0
 12  9  1  0  0  0  0
 13  2  2  0  0  0  0
 13  8  1  0  0  0  0
 14  1  2  0  0  0  0
 16  6  1  0  0  0  0
 17 15  2  0  0  0  0
 17 16  1  0  0  0  0
 18 17  1  0  0  0  0
 19 28  1  1  0  0  0
 19 18  1  0  0  0  0
 21 23  1  1  0  0  0
 21 27  1  0  0  0  0
 22 26  1  6  0  0  0
 22 25  1  0  0  0  0
 22 21  1  0  0  0  0
 22 23  1  0  0  0  0
 24 27  2  0  0  0  0
 24 19  1  0  0  0  0
 25 20  1  6  0  0  0
 25 24  1  0  0  0  0
 29 28  2  0  0  0  0
 30 31  1  0  0  0  0
 32  8  1  0  0  0  0
 33 32  1  0  0  0  0
 34 35  2  0  0  0  0
 35 33  1  0  0  0  0
 37 39  1  6  0  0  0
 37 40  1  0  0  0  0
 37 46  1  0  0  0  0
 38 47  1  1  0  0  0
 38 45  1  0  0  0  0
 40 38  1  0  0  0  0
 41 43  1  0  0  0  0
 42 38  1  0  0  0  0
 43 34  1  1  0  0  0
 44 39  1  0  0  0  0
 44 42  1  0  0  0  0
 45 36  1  1  0  0  0
 45 41  1  0  0  0  0
 45 43  1  0  0  0  0
 46 36  1  0  0  0  0
M  END
>  <MODEL>
3

>  <REMARK>
 VINA RESULT:      -9.0      2.953      7.085
  Name = 
  10 active torsions:
  status: ('A' for Active; 'I' for Inactive)
    1  A    between atoms: C_2  and  C_16
    2  A    between atoms: C_2  and  C_32
    3  A    between atoms: C_3  and  C_25
    4  A    between atoms: O_13  and  C_40
    5  A    between atoms: C_16  and  C_26
    6  A    between atoms: C_20  and  C_36
    7  A    between atoms: O_23  and  C_36
    8  A    between atoms: O_23  and  C_39
    9  A    between atoms: C_27  and  C_36
   10  A    between atoms: N_28  and  C_29
                            x       y       z     vdW  Elec       q    Type
                         _______ _______ _______ _____ _____    ______ ____

>  <TORSDO>
F 10

$$$$
=
 OpenBabel11032420553D

 47 54  0  0  1  0  0  0  0  0999 V2000
  188.3160  177.4130  144.2900 C   0  0  0  0  0  0  0  0  0  0  0  0
  187.1990  177.8830  145.1230 C   0  0  0  0  0  0  0  0  0  0  0  0
  189.0480  176.7950  142.0590 O   0  0  0  0  0  0  0  0  0  0  0  0
  186.0300  178.5990  146.7700 C   0  0  0  0  0  3  0  0  0  0  0  0
  191.1860  177.0390  143.1480 C   0  0  0  0  0  3  0  0  0  0  0  0
  190.4280  177.0260  142.0530 C   0  0  0  0  0  0  0  0  0  0  0  0
  189.5350  177.0090  145.0040 C   0  0  0  0  0  3  0  0  0  0  0  0
  185.1800  178.5060  145.6770 C   0  0  0  0  0  0  0  0  0  0  0  0
  185.5690  177.6860  143.2360 C   0  0  0  0  0  2  0  0  0  0  0  0
  187.2340  178.2050  146.3970 O   0  0  0  0  0  0  0  0  0  0  0  0
  190.7730  176.8470  144.5470 C   0  0  0  0  0  0  0  0  0  0  0  0
  186.8050  177.7820  142.3250 C   0  0  0  0  0  2  0  0  0  0  0  0
  185.9440  178.0600  144.6280 C   0  0  0  0  0  0  0  0  0  0  0  0
  188.1100  177.3040  142.9560 C   0  0  0  0  0  0  0  0  0  0  0  0
  189.2660  178.0280  139.6060 O   0  0  0  0  0  0  0  0  0  0  0  0
  191.0920  177.1710  140.7930 N   0  0  0  0  0  2  0  0  0  0  0  0
  190.4300  177.5350  139.5790 C   0  0  0  0  0  0  0  0  0  0  0  0
  191.0780  177.3330  138.3610 O   0  0  0  0  0  0  0  0  0  0  0  0
  190.8700  176.1590  137.5860 C   0  0  2  0  0  3  0  0  0  0  0  0
  193.7430  176.6400  138.6740 O   0  0  0  0  0  1  0  0  0  0  0  0
  193.7110  173.6790  137.0930 C   0  0  2  0  0  3  0  0  0  0  0  0
  194.4750  174.9930  137.0830 C   0  0  1  0  0  0  0  0  0  0  0  0
  194.3520  174.1890  135.8060 C   0  0  0  0  0  2  0  0  0  0  0  0
  192.1690  175.4190  137.4130 C   0  0  0  0  0  0  0  0  0  0  0  0
  193.4840  176.1130  137.4060 C   0  0  1  0  0  3  0  0  0  0  0  0
  195.6680  174.8920  137.7970 O   0  0  0  0  0  1  0  0  0  0  0  0
  192.2870  174.1090  137.2100 C   0  0  0  0  0  3  0  0  0  0  0  0
  190.1990  176.5000  136.2910 C   0  0  0  0  0  3  0  0  0  0  0  0
  188.9120  176.8370  136.2670 C   0  0  0  0  0  2  0  0  0  0  0  0
  191.7460  176.5170  145.4890 O   0  0  0  0  0  0  0  0  0  0  0  0
  191.7290  177.0490  146.7230 O   0  0  0  0  0  1  0  0  0  0  0  0
  183.7590  178.9520  145.6290 C   0  0  0  0  0  2  0  0  0  0  0  0
  183.3840  179.2820  144.1940 C   0  0  0  0  0  2  0  0  0  0  0  0
  181.5080  178.6390  142.6840 C   0  0  0  0  0  3  0  0  0  0  0  0
  181.9600  178.9140  143.9150 C   0  0  0  0  0  3  0  0  0  0  0  0
  180.3880  177.3480  140.3520 C   0  0  0  0  0  2  0  0  0  0  0  0
  181.3500  175.4270  138.9700 C   0  0  1  0  0  3  0  0  0  0  0  0
  182.7110  177.5230  139.0930 C   0  0  1  0  0  0  0  0  0  0  0  0
  180.7550  175.8530  137.6190 C   0  0  0  0  0  2  0  0  0  0  0  0
  182.7630  175.9950  139.1340 C   0  0  0  0  0  2  0  0  0  0  0  0
  181.7120  179.5180  140.3920 C   0  0  0  0  0  2  0  0  0  0  0  0
  182.1860  177.9500  137.7100 C   0  0  0  0  0  2  0  0  0  0  0  0
  182.3890  178.6770  141.4680 C   0  0  2  0  0  3  0  0  0  0  0  0
  180.7980  177.3740  137.4060 C   0  0  0  0  0  2  0  0  0  0  0  0
  181.7720  178.0100  140.2350 C   0  0  1  0  0  0  0  0  0  0  0  0
  180.4770  175.8270  140.1670 C   0  0  0  0  0  2  0  0  0  0  0  0
  184.1410  178.0370  139.2320 C   0  0  0  0  0  1  0  0  0  0  0  0
  1  7  1  0  0  0  0
  1  2  1  0  0  0  0
  2 10  1  0  0  0  0
  3 14  1  0  0  0  0
  5 11  1  0  0  0  0
  6  3  1  0  0  0  0
  6  5  2  0  0  0  0
  8  4  2  0  0  0  0
  9 13  1  0  0  0  0
 10  4  1  0  0  0  0
 11  7  2  0  0  0  0
 11 30  1  0  0  0  0
 12 14  1  0  0  0  0
 12  9  1  0  0  0  0
 13  2  2  0  0  0  0
 13  8  1  0  0  0  0
 14  1  2  0  0  0  0
 16  6  1  0  0  0  0
 17 15  2  0  0  0  0
 17 16  1  0  0  0  0
 18 17  1  0  0  0  0
 19 28  1  6  0  0  0
 19 18  1  0  0  0  0
 21 23  1  6  0  0  0
 21 27  1  0  0  0  0
 22 21  1  0  0  0  0
 22 25  1  0  0  0  0
 22 26  1  1  0  0  0
 23 22  1  0  0  0  0
 24 19  1  0  0  0  0
 25 24  1  0  0  0  0
 25 20  1  1  0  0  0
 27 24  2  0  0  0  0
 29 28  2  0  0  0  0
 30 31  1  0  0  0  0
 32  8  1  0  0  0  0
 33 32  1  0  0  0  0
 34 35  2  0  0  0  0
 35 33  1  0  0  0  0
 37 39  1  6  0  0  0
 37 40  1  0  0  0  0
 37 46  1  0  0  0  0
 38 40  1  0  0  0  0
 38 47  1  1  0  0  0
 38 45  1  0  0  0  0
 41 43  1  0  0  0  0
 42 38  1  0  0  0  0
 43 34  1  1  0  0  0
 44 39  1  0  0  0  0
 44 42  1  0  0  0  0
 45 36  1  1  0  0  0
 45 41  1  0  0  0  0
 45 43  1  0  0  0  0
 46 36  1  0  0  0  0
M  END
>  <MODEL>
4

>  <REMARK>
 VINA RESULT:      -9.0      3.619      7.583
  Name = 
  10 active torsions:
  status: ('A' for Active; 'I' for Inactive)
    1  A    between atoms: C_2  and  C_16
    2  A    between atoms: C_2  and  C_32
    3  A    between atoms: C_3  and  C_25
    4  A    between atoms: O_13  and  C_40
    5  A    between atoms: C_16  and  C_26
    6  A    between atoms: C_20  and  C_36
    7  A    between atoms: O_23  and  C_36
    8  A    between atoms: O_23  and  C_39
    9  A    between atoms: C_27  and  C_36
   10  A    between atoms: N_28  and  C_29
                            x       y       z     vdW  Elec       q    Type
                         _______ _______ _______ _____ _____    ______ ____

>  <TORSDO>
F 10

$$$$
=
 OpenBabel11032420553D

 47 54  0  0  1  0  0  0  0  0999 V2000
  188.7380  177.1390  138.0580 C   0  0  0  0  0  0  0  0  0  0  0  0
  187.7590  176.7090  137.0470 C   0  0  0  0  0  0  0  0  0  0  0  0
  189.1150  178.4260  140.0820 O   0  0  0  0  0  0  0  0  0  0  0  0
  186.8200  175.7280  135.3890 C   0  0  0  0  0  3  0  0  0  0  0  0
  191.1270  177.0970  140.0500 C   0  0  0  0  0  3  0  0  0  0  0  0
  190.2150  177.8180  140.6980 C   0  0  0  0  0  0  0  0  0  0  0  0
  190.1410  176.7990  137.7890 C   0  0  0  0  0  3  0  0  0  0  0  0
  185.8630  176.5450  135.9750 C   0  0  0  0  0  0  0  0  0  0  0  0
  185.9790  178.1980  137.9840 C   0  0  0  0  0  2  0  0  0  0  0  0
  187.9500  175.8650  136.0590 O   0  0  0  0  0  0  0  0  0  0  0  0
  191.1810  176.7660  138.6170 C   0  0  0  0  0  0  0  0  0  0  0  0
  186.7990  178.1470  139.2850 C   0  0  0  0  0  2  0  0  0  0  0  0
  186.4730  177.1550  137.0420 C   0  0  0  0  0  0  0  0  0  0  0  0
  188.2900  177.8810  139.0980 C   0  0  0  0  0  0  0  0  0  0  0  0
  189.1220  176.2810  142.8850 O   0  0  0  0  0  0  0  0  0  0  0  0
  190.4320  178.0510  142.0940 N   0  0  0  0  0  2  0  0  0  0  0  0
  189.7490  177.3500  143.1350 C   0  0  0  0  0  0  0  0  0  0  0  0
  189.7760  177.8590  144.4330 O   0  0  0  0  0  0  0  0  0  0  0  0
  189.3920  177.0750  145.5550 C   0  0  2  0  0  3  0  0  0  0  0  0
  186.4390  177.1210  144.5800 O   0  0  0  0  0  1  0  0  0  0  0  0
  186.5130  178.2840  147.7280 C   0  0  2  0  0  3  0  0  0  0  0  0
  186.0210  178.6940  146.3490 C   0  0  1  0  0  0  0  0  0  0  0  0
  186.4310  179.7590  147.3450 C   0  0  0  0  0  2  0  0  0  0  0  0
  188.1220  177.6190  146.1540 C   0  0  0  0  0  0  0  0  0  0  0  0
  187.0170  178.1570  145.3190 C   0  0  1  0  0  3  0  0  0  0  0  0
  184.6590  178.4390  146.2000 O   0  0  0  0  0  1  0  0  0  0  0  0
  187.8670  177.7170  147.4560 C   0  0  0  0  0  3  0  0  0  0  0  0
  190.5210  176.9770  146.5350 C   0  0  0  0  0  3  0  0  0  0  0  0
  191.6740  176.4180  146.1790 C   0  0  0  0  0  2  0  0  0  0  0  0
  192.3930  176.3370  138.0780 O   0  0  0  0  0  0  0  0  0  0  0  0
  193.5570  176.5800  138.7030 O   0  0  0  0  0  1  0  0  0  0  0  0
  184.4220  176.6160  135.6010 C   0  0  0  0  0  2  0  0  0  0  0  0
  183.7140  175.3620  136.0850 C   0  0  0  0  0  2  0  0  0  0  0  0
  181.4070  175.9150  136.8490 C   0  0  0  0  0  3  0  0  0  0  0  0
  182.2340  175.4740  135.8920 C   0  0  0  0  0  3  0  0  0  0  0  0
  180.4550  178.5070  137.7050 C   0  0  0  0  0  2  0  0  0  0  0  0
  181.8070  180.5620  138.3920 C   0  0  1  0  0  3  0  0  0  0  0  0
  182.1310  178.4880  139.7540 C   0  0  1  0  0  0  0  0  0  0  0  0
  180.8000  181.1150  139.4130 C   0  0  0  0  0  2  0  0  0  0  0  0
  182.8380  179.6700  139.0900 C   0  0  0  0  0  2  0  0  0  0  0  0
  180.6950  176.4290  139.1490 C   0  0  0  0  0  2  0  0  0  0  0  0
  181.1770  179.0410  140.8300 C   0  0  0  0  0  2  0  0  0  0  0  0
  181.8890  176.3380  138.2070 C   0  0  2  0  0  3  0  0  0  0  0  0
  180.1390  180.0110  140.2520 C   0  0  0  0  0  2  0  0  0  0  0  0
  181.3560  177.7020  138.6560 C   0  0  1  0  0  0  0  0  0  0  0  0
  181.1410  179.7980  137.2390 C   0  0  0  0  0  2  0  0  0  0  0  0
  183.1930  177.6490  140.4560 C   0  0  0  0  0  1  0  0  0  0  0  0
  1 14  2  0  0  0  0
  2  1  1  0  0  0  0
  3  6  1  0  0  0  0
  4  8  2  0  0  0  0
  4 10  1  0  0  0  0
  5  6  2  0  0  0  0
  6 16  1  0  0  0  0
  7  1  1  0  0  0  0
  7 11  2  0  0  0  0
  8 13  1  0  0  0  0
  9 12  1  0  0  0  0
 10  2  1  0  0  0  0
 11  5  1  0  0  0  0
 13  2  2  0  0  0  0
 13  9  1  0  0  0  0
 14 12  1  0  0  0  0
 14  3  1  0  0  0  0
 15 17  2  0  0  0  0
 16 17  1  0  0  0  0
 17 18  1  0  0  0  0
 18 19  1  0  0  0  0
 19 24  1  0  0  0  0
 19 28  1  1  0  0  0
 21 23  1  1  0  0  0
 22 26  1  6  0  0  0
 22 23  1  0  0  0  0
 22 21  1  0  0  0  0
 24 27  2  0  0  0  0
 25 20  1  1  0  0  0
 25 24  1  0  0  0  0
 25 22  1  0  0  0  0
 27 21  1  0  0  0  0
 29 28  2  0  0  0  0
 30 11  1  0  0  0  0
 30 31  1  0  0  0  0
 32  8  1  0  0  0  0
 32 33  1  0  0  0  0
 35 33  1  0  0  0  0
 35 34  2  0  0  0  0
 37 46  1  6  0  0  0
 37 40  1  0  0  0  0
 37 39  1  0  0  0  0
 38 47  1  1  0  0  0
 38 42  1  0  0  0  0
 39 44  1  0  0  0  0
 40 38  1  0  0  0  0
 43 34  1  6  0  0  0
 43 45  1  0  0  0  0
 43 41  1  0  0  0  0
 44 42  1  0  0  0  0
 45 36  1  6  0  0  0
 45 41  1  0  0  0  0
 45 38  1  0  0  0  0
 46 36  1  0  0  0  0
M  END
>  <MODEL>
5

>  <REMARK>
 VINA RESULT:      -8.5      2.963      9.444
  Name = 
  10 active torsions:
  status: ('A' for Active; 'I' for Inactive)
    1  A    between atoms: C_2  and  C_16
    2  A    between atoms: C_2  and  C_32
    3  A    between atoms: C_3  and  C_25
    4  A    between atoms: O_13  and  C_40
    5  A    between atoms: C_16  and  C_26
    6  A    between atoms: C_20  and  C_36
    7  A    between atoms: O_23  and  C_36
    8  A    between atoms: O_23  and  C_39
    9  A    between atoms: C_27  and  C_36
   10  A    between atoms: N_28  and  C_29
                            x       y       z     vdW  Elec       q    Type
                         _______ _______ _______ _____ _____    ______ ____

>  <TORSDO>
F 10

$$$$
=
 OpenBabel11032420553D

 47 54  0  0  1  0  0  0  0  0999 V2000
  186.3670  178.3430  143.3670 C   0  0  0  0  0  0  0  0  0  0  0  0
  187.7370  177.8140  143.4470 C   0  0  0  0  0  0  0  0  0  0  0  0
  184.6630  179.3240  141.9430 O   0  0  0  0  0  0  0  0  0  0  0  0
  189.5400  176.8890  144.1430 C   0  0  0  0  0  3  0  0  0  0  0  0
  183.3110  178.6900  143.8360 C   0  0  0  0  0  3  0  0  0  0  0  0
  183.4460  178.9830  142.5440 C   0  0  0  0  0  0  0  0  0  0  0  0
  185.6530  178.4930  144.6420 C   0  0  0  0  0  3  0  0  0  0  0  0
  189.7590  177.2670  142.8260 C   0  0  0  0  0  0  0  0  0  0  0  0
  188.2580  178.5160  141.1030 C   0  0  0  0  0  2  0  0  0  0  0  0
  188.3140  177.2460  144.4810 O   0  0  0  0  0  0  0  0  0  0  0  0
  184.3520  178.6370  144.8750 C   0  0  0  0  0  0  0  0  0  0  0  0
  186.7340  178.4970  140.8930 C   0  0  0  0  0  2  0  0  0  0  0  0
  188.5930  177.8450  142.3890 C   0  0  0  0  0  0  0  0  0  0  0  0
  185.9060  178.7290  142.1540 C   0  0  0  0  0  0  0  0  0  0  0  0
  182.9670  177.5700  140.0720 O   0  0  0  0  0  0  0  0  0  0  0  0
  182.2540  179.0320  141.7540 N   0  0  0  0  0  2  0  0  0  0  0  0
  182.1260  178.4280  140.4640 C   0  0  0  0  0  0  0  0  0  0  0  0
  181.0660  178.8000  139.6390 O   0  0  0  0  0  0  0  0  0  0  0  0
  181.1930  178.8270  138.2220 C   0  0  2  0  0  3  0  0  0  0  0  0
  182.7150  181.4890  138.7380 O   0  0  0  0  0  1  0  0  0  0  0  0
  180.4550  182.0350  136.3160 C   0  0  2  0  0  3  0  0  0  0  0  0
  180.8680  182.5950  137.6680 C   0  0  1  0  0  0  0  0  0  0  0  0
  179.4250  182.7050  137.2200 C   0  0  0  0  0  2  0  0  0  0  0  0
  181.0030  180.2310  137.7140 C   0  0  0  0  0  0  0  0  0  0  0  0
  181.3330  181.4250  138.5370 C   0  0  1  0  0  3  0  0  0  0  0  0
  181.6760  183.7210  137.5250 O   0  0  0  0  0  1  0  0  0  0  0  0
  180.4970  180.5570  136.5280 C   0  0  0  0  0  3  0  0  0  0  0  0
  180.2610  177.8340  137.5960 C   0  0  0  0  0  3  0  0  0  0  0  0
  180.7140  176.6540  137.1820 C   0  0  0  0  0  2  0  0  0  0  0  0
  183.9610  178.6910  146.2120 O   0  0  0  0  0  0  0  0  0  0  0  0
  184.8380  178.4560  147.2040 O   0  0  0  0  0  1  0  0  0  0  0  0
  190.9710  176.9620  142.0140 C   0  0  0  0  0  2  0  0  0  0  0  0
  190.5510  176.6120  140.5970 C   0  0  0  0  0  2  0  0  0  0  0  0
  191.6110  176.5670  138.3410 C   0  0  0  0  0  3  0  0  0  0  0  0
  191.6220  176.9770  139.6170 C   0  0  0  0  0  3  0  0  0  0  0  0
  189.7040  177.9700  136.6830 C   0  0  0  0  0  2  0  0  0  0  0  0
  187.1700  178.1450  136.9550 C   0  0  1  0  0  3  0  0  0  0  0  0
  188.1190  175.8500  136.6460 C   0  0  1  0  0  0  0  0  0  0  0  0
  186.8280  178.2410  135.4600 C   0  0  0  0  0  2  0  0  0  0  0  0
  187.1040  176.6890  137.4250 C   0  0  0  0  0  2  0  0  0  0  0  0
  190.6640  175.6550  136.2600 C   0  0  0  0  0  2  0  0  0  0  0  0
  187.7300  175.8860  135.1570 C   0  0  0  0  0  2  0  0  0  0  0  0
  190.5220  175.7010  137.7760 C   0  0  2  0  0  3  0  0  0  0  0  0
  187.6920  177.3110  134.5940 C   0  0  0  0  0  2  0  0  0  0  0  0
  189.5340  176.4540  136.8810 C   0  0  1  0  0  0  0  0  0  0  0  0
  188.5370  178.7510  137.3020 C   0  0  0  0  0  2  0  0  0  0  0  0
  187.9940  174.4090  137.1300 C   0  0  0  0  0  1  0  0  0  0  0  0
  1  2  1  0  0  0  0
  1  7  1  0  0  0  0
  2 10  1  0  0  0  0
  3 14  1  0  0  0  0
  3  6  1  0  0  0  0
  4 10  1  0  0  0  0
  5 11  1  0  0  0  0
  6  5  2  0  0  0  0
  7 11  2  0  0  0  0
  8  4  2  0  0  0  0
  9 13  1  0  0  0  0
 11 30  1  0  0  0  0
 12  9  1  0  0  0  0
 12 14  1  0  0  0  0
 13  8  1  0  0  0  0
 13  2  2  0  0  0  0
 14  1  2  0  0  0  0
 15 17  2  0  0  0  0
 16  6  1  0  0  0  0
 17 16  1  0  0  0  0
 18 17  1  0  0  0  0
 19 28  1  6  0  0  0
 19 18  1  0  0  0  0
 21 27  1  1  0  0  0
 21 23  1  0  0  0  0
 21 22  1  0  0  0  0
 22 26  1  1  0  0  0
 22 25  1  0  0  0  0
 23 22  1  0  0  0  0
 24 19  1  0  0  0  0
 24 25  1  0  0  0  0
 25 20  1  6  0  0  0
 27 24  2  0  0  0  0
 29 28  2  0  0  0  0
 30 31  1  0  0  0  0
 32  8  1  0  0  0  0
 33 32  1  0  0  0  0
 34 35  2  0  0  0  0
 35 33  1  0  0  0  0
 36 45  1  0  0  0  0
 36 46  1  0  0  0  0
 37 39  1  6  0  0  0
 37 46  1  0  0  0  0
 37 40  1  0  0  0  0
 38 45  1  0  0  0  0
 38 47  1  1  0  0  0
 38 40  1  0  0  0  0
 41 43  1  0  0  0  0
 42 38  1  0  0  0  0
 43 34  1  1  0  0  0
 44 42  1  0  0  0  0
 44 39  1  0  0  0  0
 45 41  1  6  0  0  0
 45 43  1  0  0  0  0
M  END
>  <MODEL>
6

>  <REMARK>
 VINA RESULT:      -8.5      2.794      7.673
  Name = 
  10 active torsions:
  status: ('A' for Active; 'I' for Inactive)
    1  A    between atoms: C_2  and  C_16
    2  A    between atoms: C_2  and  C_32
    3  A    between atoms: C_3  and  C_25
    4  A    between atoms: O_13  and  C_40
    5  A    between atoms: C_16  and  C_26
    6  A    between atoms: C_20  and  C_36
    7  A    between atoms: O_23  and  C_36
    8  A    between atoms: O_23  and  C_39
    9  A    between atoms: C_27  and  C_36
   10  A    between atoms: N_28  and  C_29
                            x       y       z     vdW  Elec       q    Type
                         _______ _______ _______ _____ _____    ______ ____

>  <TORSDO>
F 10

$$$$
=
 OpenBabel11032420553D

 47 54  0  0  1  0  0  0  0  0999 V2000
  186.7040  178.1420  138.6200 C   0  0  0  0  0  0  0  0  0  0  0  0
  185.7350  178.3980  139.6960 C   0  0  0  0  0  0  0  0  0  0  0  0
  189.0490  177.9650  138.0170 O   0  0  0  0  0  0  0  0  0  0  0  0
  183.9170  178.5980  140.8130 C   0  0  0  0  0  3  0  0  0  0  0  0
  188.0420  176.9290  136.0870 C   0  0  0  0  0  3  0  0  0  0  0  0
  189.0760  177.1160  136.9060 C   0  0  0  0  0  0  0  0  0  0  0  0
  186.1550  178.0380  137.2620 C   0  0  0  0  0  3  0  0  0  0  0  0
  184.9600  178.8970  141.6770 C   0  0  0  0  0  0  0  0  0  0  0  0
  187.5370  179.0220  141.3160 C   0  0  0  0  0  2  0  0  0  0  0  0
  184.4250  178.3130  139.6280 O   0  0  0  0  0  0  0  0  0  0  0  0
  186.6970  177.5220  136.1630 C   0  0  0  0  0  0  0  0  0  0  0  0
  188.4660  178.2070  140.4000 C   0  0  0  0  0  2  0  0  0  0  0  0
  186.1180  178.7520  140.9530 C   0  0  0  0  0  0  0  0  0  0  0  0
  188.0190  178.1130  138.9440 C   0  0  0  0  0  0  0  0  0  0  0  0
  190.7370  175.5540  138.6780 O   0  0  0  0  0  0  0  0  0  0  0  0
  190.3070  176.4690  136.5670 N   0  0  0  0  0  2  0  0  0  0  0  0
  191.1620  175.8320  137.5200 C   0  0  0  0  0  0  0  0  0  0  0  0
  192.4740  175.5250  137.1620 O   0  0  0  0  0  0  0  0  0  0  0  0
  193.0080  174.2170  137.3200 C   0  0  2  0  0  3  0  0  0  0  0  0
  195.2150  176.1180  136.2330 O   0  0  0  0  0  1  0  0  0  0  0  0
  196.6060  174.1280  138.5500 C   0  0  2  0  0  3  0  0  0  0  0  0
  196.8100  174.5440  137.1030 C   0  0  1  0  0  0  0  0  0  0  0  0
  197.2530  173.1680  137.5560 C   0  0  0  0  0  2  0  0  0  0  0  0
  194.4960  174.2900  137.5360 C   0  0  0  0  0  0  0  0  0  0  0  0
  195.4300  174.7590  136.4790 C   0  0  1  0  0  3  0  0  0  0  0  0
  197.7860  175.5320  136.9920 O   0  0  0  0  0  1  0  0  0  0  0  0
  195.1310  173.9160  138.6440 C   0  0  0  0  0  3  0  0  0  0  0  0
  192.6140  173.3480  136.1640 C   0  0  0  0  0  3  0  0  0  0  0  0
  193.0520  172.0950  136.0840 C   0  0  0  0  0  2  0  0  0  0  0  0
  185.8970  177.5060  135.0220 O   0  0  0  0  0  0  0  0  0  0  0  0
  184.5560  177.4870  135.1120 O   0  0  0  0  0  1  0  0  0  0  0  0
  184.8410  179.1710  143.1370 C   0  0  0  0  0  2  0  0  0  0  0  0
  185.0340  177.8770  143.9090 C   0  0  0  0  0  2  0  0  0  0  0  0
  186.7590  178.2980  145.6580 C   0  0  0  0  0  3  0  0  0  0  0  0
  185.4720  178.1510  145.3130 C   0  0  0  0  0  3  0  0  0  0  0  0
  189.0010  176.7000  146.5400 C   0  0  0  0  0  2  0  0  0  0  0  0
  191.4530  177.3750  146.7750 C   0  0  1  0  0  3  0  0  0  0  0  0
  190.4510  177.5330  144.4880 C   0  0  1  0  0  0  0  0  0  0  0  0
  192.0570  176.0000  146.4510 C   0  0  0  0  0  2  0  0  0  0  0  0
  191.3570  178.2270  145.5060 C   0  0  0  0  0  2  0  0  0  0  0  0
  188.0060  176.7530  144.2020 C   0  0  0  0  0  2  0  0  0  0  0  0
  191.0960  176.1880  144.1080 C   0  0  0  0  0  2  0  0  0  0  0  0
  187.8820  178.1990  144.6660 C   0  0  2  0  0  3  0  0  0  0  0  0
  191.3100  175.2750  145.3210 C   0  0  0  0  0  2  0  0  0  0  0  0
  189.0510  177.3300  145.1380 C   0  0  1  0  0  0  0  0  0  0  0  0
  190.0820  177.2870  147.4580 C   0  0  0  0  0  2  0  0  0  0  0  0
  190.4100  178.4050  143.2370 C   0  0  0  0  0  1  0  0  0  0  0  0
  1 14  2  0  0  0  0
  1  2  1  0  0  0  0
  2 13  2  0  0  0  0
  3 14  1  0  0  0  0
  4  8  2  0  0  0  0
  5 11  1  0  0  0  0
  5  6  2  0  0  0  0
  6  3  1  0  0  0  0
  7  1  1  0  0  0  0
  8 32  1  0  0  0  0
 10  2  1  0  0  0  0
 10  4  1  0  0  0  0
 11  7  2  0  0  0  0
 12  9  1  0  0  0  0
 13  9  1  0  0  0  0
 13  8  1  0  0  0  0
 14 12  1  0  0  0  0
 16  6  1  0  0  0  0
 16 17  1  0  0  0  0
 17 15  2  0  0  0  0
 18 19  1  0  0  0  0
 18 17  1  0  0  0  0
 19 28  1  6  0  0  0
 19 24  1  0  0  0  0
 21 23  1  6  0  0  0
 21 27  1  0  0  0  0
 22 26  1  6  0  0  0
 22 23  1  0  0  0  0
 22 21  1  0  0  0  0
 24 27  2  0  0  0  0
 25 20  1  1  0  0  0
 25 22  1  0  0  0  0
 25 24  1  0  0  0  0
 29 28  2  0  0  0  0
 30 31  1  0  0  0  0
 30 11  1  0  0  0  0
 32 33  1  0  0  0  0
 33 35  1  0  0  0  0
 35 34  2  0  0  0  0
 36 46  1  0  0  0  0
 37 40  1  6  0  0  0
 37 46  1  0  0  0  0
 38 47  1  6  0  0  0
 38 45  1  0  0  0  0
 38 40  1  0  0  0  0
 39 37  1  0  0  0  0
 41 43  1  0  0  0  0
 42 38  1  0  0  0  0
 42 44  1  0  0  0  0
 43 45  1  0  0  0  0
 43 34  1  1  0  0  0
 44 39  1  0  0  0  0
 45 41  1  6  0  0  0
 45 36  1  0  0  0  0
M  END
>  <MODEL>
7

>  <REMARK>
 VINA RESULT:      -8.2      3.640      4.839
  Name = 
  10 active torsions:
  status: ('A' for Active; 'I' for Inactive)
    1  A    between atoms: C_2  and  C_16
    2  A    between atoms: C_2  and  C_32
    3  A    between atoms: C_3  and  C_25
    4  A    between atoms: O_13  and  C_40
    5  A    between atoms: C_16  and  C_26
    6  A    between atoms: C_20  and  C_36
    7  A    between atoms: O_23  and  C_36
    8  A    between atoms: O_23  and  C_39
    9  A    between atoms: C_27  and  C_36
   10  A    between atoms: N_28  and  C_29
                            x       y       z     vdW  Elec       q    Type
                         _______ _______ _______ _____ _____    ______ ____

>  <TORSDO>
F 10

$$$$
=
 OpenBabel11032420553D

 47 54  0  0  1  0  0  0  0  0999 V2000
  183.6500  178.8460  141.2330 C   0  0  0  0  0  0  0  0  0  0  0  0
  183.6530  178.9870  142.6970 C   0  0  0  0  0  0  0  0  0  0  0  0
  184.9780  178.8820  139.2000 O   0  0  0  0  0  0  0  0  0  0  0  0
  183.0590  179.0010  144.7560 C   0  0  0  0  0  3  0  0  0  0  0  0
  182.9750  177.8270  138.3720 C   0  0  0  0  0  3  0  0  0  0  0  0
  184.2810  178.0720  138.2970 C   0  0  0  0  0  0  0  0  0  0  0  0
  182.3330  178.7380  140.5920 C   0  0  0  0  0  3  0  0  0  0  0  0
  184.3990  179.3590  144.7160 C   0  0  0  0  0  0  0  0  0  0  0  0
  186.0480  179.7080  142.7300 C   0  0  0  0  0  2  0  0  0  0  0  0
  182.6450  178.7960  143.5190 O   0  0  0  0  0  0  0  0  0  0  0  0
  182.0120  178.3030  139.3780 C   0  0  0  0  0  0  0  0  0  0  0  0
  186.1480  179.0010  141.3670 C   0  0  0  0  0  2  0  0  0  0  0  0
  184.7690  179.3320  143.3940 C   0  0  0  0  0  0  0  0  0  0  0  0
  184.8390  178.9150  140.5870 C   0  0  0  0  0  0  0  0  0  0  0  0
  184.7050  175.2790  137.7000 O   0  0  0  0  0  0  0  0  0  0  0  0
  184.9860  177.5410  137.1700 N   0  0  0  0  0  2  0  0  0  0  0  0
  185.2910  176.1540  137.0020 C   0  0  0  0  0  0  0  0  0  0  0  0
  186.2490  175.7750  136.0620 O   0  0  0  0  0  0  0  0  0  0  0  0
  187.5020  175.2240  136.4480 C   0  0  2  0  0  3  0  0  0  0  0  0
  190.1330  175.1070  138.1010 O   0  0  0  0  0  1  0  0  0  0  0  0
  189.4160  178.3330  137.5140 C   0  0  2  0  0  3  0  0  0  0  0  0
  189.7130  177.4020  138.6780 C   0  0  1  0  0  0  0  0  0  0  0  0
  188.8220  178.6080  138.8920 C   0  0  0  0  0  2  0  0  0  0  0  0
  188.3540  176.2820  137.0960 C   0  0  0  0  0  0  0  0  0  0  0  0
  189.1160  176.0330  138.3470 C   0  0  1  0  0  3  0  0  0  0  0  0
  191.0430  177.5030  139.0810 O   0  0  0  0  0  1  0  0  0  0  0  0
  188.4870  177.5330  136.6620 C   0  0  0  0  0  3  0  0  0  0  0  0
  188.1620  174.5570  135.2800 C   0  0  0  0  0  3  0  0  0  0  0  0
  188.8760  173.4480  135.4530 C   0  0  0  0  0  2  0  0  0  0  0  0
  180.6520  178.2560  139.0720 O   0  0  0  0  0  0  0  0  0  0  0  0
  179.7330  178.0130  140.0220 O   0  0  0  0  0  1  0  0  0  0  0  0
  185.2860  179.5770  145.8930 C   0  0  0  0  0  2  0  0  0  0  0  0
  185.6930  178.2320  146.4720 C   0  0  0  0  0  2  0  0  0  0  0  0
  186.9490  176.6500  145.0130 C   0  0  0  0  0  3  0  0  0  0  0  0
  185.7880  177.1940  145.3980 C   0  0  0  0  0  3  0  0  0  0  0  0
  189.0490  177.1830  143.0990 C   0  0  0  0  0  2  0  0  0  0  0  0
  191.3370  176.0680  142.8810 C   0  0  1  0  0  3  0  0  0  0  0  0
  190.8520  177.2420  145.0370 C   0  0  1  0  0  0  0  0  0  0  0  0
  192.0920  177.2940  142.3440 C   0  0  0  0  0  2  0  0  0  0  0  0
  191.4620  175.9900  144.4050 C   0  0  0  0  0  2  0  0  0  0  0  0
  188.5910  178.4710  145.2420 C   0  0  0  0  0  2  0  0  0  0  0  0
  191.6580  178.4640  144.5560 C   0  0  0  0  0  2  0  0  0  0  0  0
  188.2670  177.0320  145.6240 C   0  0  2  0  0  3  0  0  0  0  0  0
  191.6640  178.6010  143.0290 C   0  0  0  0  0  2  0  0  0  0  0  0
  189.3620  177.3340  144.5970 C   0  0  1  0  0  0  0  0  0  0  0  0
  189.8590  176.0410  142.4690 C   0  0  0  0  0  2  0  0  0  0  0  0
  191.0270  177.1290  146.5470 C   0  0  0  0  0  1  0  0  0  0  0  0
  1  2  1  0  0  0  0
  2 13  2  0  0  0  0
  2 10  1  0  0  0  0
  3 14  1  0  0  0  0
  5 11  1  0  0  0  0
  6  5  2  0  0  0  0
  6  3  1  0  0  0  0
  7  1  1  0  0  0  0
  8  4  2  0  0  0  0
  8 32  1  0  0  0  0
  9 13  1  0  0  0  0
 10  4  1  0  0  0  0
 11  7  2  0  0  0  0
 12  9  1  0  0  0  0
 13  8  1  0  0  0  0
 14  1  2  0  0  0  0
 14 12  1  0  0  0  0
 16  6  1  0  0  0  0
 17 16  1  0  0  0  0
 17 15  2  0  0  0  0
 18 19  1  0  0  0  0
 18 17  1  0  0  0  0
 19 28  1  6  0  0  0
 19 24  1  0  0  0  0
 21 27  1  6  0  0  0
 21 22  1  0  0  0  0
 21 23  1  0  0  0  0
 22 23  1  0  0  0  0
 22 26  1  1  0  0  0
 24 25  1  0  0  0  0
 25 20  1  6  0  0  0
 25 22  1  0  0  0  0
 27 24  2  0  0  0  0
 28 29  2  0  0  0  0
 30 11  1  0  0  0  0
 30 31  1  0  0  0  0
 32 33  1  0  0  0  0
 34 35  2  0  0  0  0
 35 33  1  0  0  0  0
 37 39  1  1  0  0  0
 37 40  1  0  0  0  0
 38 47  1  1  0  0  0
 39 44  1  0  0  0  0
 40 38  1  0  0  0  0
 41 43  1  0  0  0  0
 42 38  1  0  0  0  0
 43 34  1  6  0  0  0
 44 42  1  0  0  0  0
 45 36  1  6  0  0  0
 45 38  1  0  0  0  0
 45 41  1  0  0  0  0
 45 43  1  0  0  0  0
 46 37  1  0  0  0  0
 46 36  1  0  0  0  0
M  END
>  <MODEL>
8

>  <REMARK>
 VINA RESULT:      -8.2      1.243      2.008
  Name = 
  10 active torsions:
  status: ('A' for Active; 'I' for Inactive)
    1  A    between atoms: C_2  and  C_16
    2  A    between atoms: C_2  and  C_32
    3  A    between atoms: C_3  and  C_25
    4  A    between atoms: O_13  and  C_40
    5  A    between atoms: C_16  and  C_26
    6  A    between atoms: C_20  and  C_36
    7  A    between atoms: O_23  and  C_36
    8  A    between atoms: O_23  and  C_39
    9  A    between atoms: C_27  and  C_36
   10  A    between atoms: N_28  and  C_29
                            x       y       z     vdW  Elec       q    Type
                         _______ _______ _______ _____ _____    ______ ____

>  <TORSDO>
F 10

$$$$
=
 OpenBabel11032420553D

 47 54  0  0  1  0  0  0  0  0999 V2000
  182.7910  178.5020  140.7330 C   0  0  0  0  0  0  0  0  0  0  0  0
  182.8820  178.7240  142.1840 C   0  0  0  0  0  0  0  0  0  0  0  0
  184.0000  178.3900  138.6300 O   0  0  0  0  0  0  0  0  0  0  0  0
  182.4090  178.8690  144.2690 C   0  0  0  0  0  3  0  0  0  0  0  0
  181.9280  177.3430  137.9780 C   0  0  0  0  0  3  0  0  0  0  0  0
  183.2330  177.5500  137.8150 C   0  0  0  0  0  0  0  0  0  0  0  0
  181.4370  178.3930  140.1750 C   0  0  0  0  0  3  0  0  0  0  0  0
  183.7520  179.1880  144.1330 C   0  0  0  0  0  0  0  0  0  0  0  0
  185.2910  179.3820  142.0410 C   0  0  0  0  0  2  0  0  0  0  0  0
  181.9190  178.6050  143.0710 O   0  0  0  0  0  0  0  0  0  0  0  0
  181.0360  177.9000  139.0080 C   0  0  0  0  0  0  0  0  0  0  0  0
  185.2950  178.5990  140.7170 C   0  0  0  0  0  2  0  0  0  0  0  0
  184.0440  179.0780  142.7970 C   0  0  0  0  0  0  0  0  0  0  0  0
  183.9420  178.5040  140.0190 C   0  0  0  0  0  0  0  0  0  0  0  0
  184.0030  174.7770  137.5690 O   0  0  0  0  0  0  0  0  0  0  0  0
  183.8590  176.9380  136.6830 N   0  0  0  0  0  2  0  0  0  0  0  0
  184.3510  175.5960  136.6710 C   0  0  0  0  0  0  0  0  0  0  0  0
  185.2250  175.1970  135.6610 O   0  0  0  0  0  0  0  0  0  0  0  0
  186.6350  175.3190  135.7990 C   0  0  2  0  0  3  0  0  0  0  0  0
  189.3410  174.2480  134.7010 O   0  0  0  0  0  1  0  0  0  0  0  0
  187.8740  171.7810  136.4420 C   0  0  2  0  0  3  0  0  0  0  0  0
  188.4590  172.0410  135.0640 C   0  0  1  0  0  0  0  0  0  0  0  0
  187.3380  171.0360  135.2240 C   0  0  0  0  0  2  0  0  0  0  0  0
  187.2730  173.9560  135.7960 C   0  0  0  0  0  0  0  0  0  0  0  0
  188.1630  173.4970  134.6970 C   0  0  1  0  0  3  0  0  0  0  0  0
  189.7590  171.5490  134.9630 O   0  0  0  0  0  1  0  0  0  0  0  0
  187.0890  173.0190  136.7230 C   0  0  0  0  0  3  0  0  0  0  0  0
  186.9740  176.1350  137.0090 C   0  0  0  0  0  3  0  0  0  0  0  0
  188.0290  176.9450  137.0020 C   0  0  0  0  0  2  0  0  0  0  0  0
  179.6600  177.8720  138.7820 O   0  0  0  0  0  0  0  0  0  0  0  0
  179.1120  178.5270  137.7450 O   0  0  0  0  0  1  0  0  0  0  0  0
  184.7100  179.4480  145.2450 C   0  0  0  0  0  2  0  0  0  0  0  0
  184.7340  178.2490  146.1780 C   0  0  0  0  0  2  0  0  0  0  0  0
  187.2070  178.2190  146.4900 C   0  0  0  0  0  3  0  0  0  0  0  0
  185.9740  178.2470  147.0150 C   0  0  0  0  0  3  0  0  0  0  0  0
  189.5680  176.7460  145.7070 C   0  0  0  0  0  2  0  0  0  0  0  0
  191.5900  177.5550  144.3720 C   0  0  1  0  0  3  0  0  0  0  0  0
  189.3650  177.6640  143.2310 C   0  0  1  0  0  0  0  0  0  0  0  0
  191.9120  176.2160  143.6900 C   0  0  0  0  0  2  0  0  0  0  0  0
  190.6800  178.4040  143.4790 C   0  0  0  0  0  2  0  0  0  0  0  0
  187.3210  176.7500  144.5170 C   0  0  0  0  0  2  0  0  0  0  0  0
  189.6830  176.3570  142.4810 C   0  0  0  0  0  2  0  0  0  0  0  0
  187.4570  178.1860  145.0100 C   0  0  2  0  0  3  0  0  0  0  0  0
  190.6500  175.4550  143.2550 C   0  0  0  0  0  2  0  0  0  0  0  0
  188.6970  177.3820  144.6090 C   0  0  1  0  0  0  0  0  0  0  0  0
  190.9600  177.3900  145.7620 C   0  0  0  0  0  2  0  0  0  0  0  0
  188.5100  178.5350  142.3170 C   0  0  0  0  0  1  0  0  0  0  0  0
  1  2  1  0  0  0  0
  2 13  2  0  0  0  0
  2 10  1  0  0  0  0
  3 14  1  0  0  0  0
  5 11  1  0  0  0  0
  6  5  2  0  0  0  0
  6  3  1  0  0  0  0
  7  1  1  0  0  0  0
  8  4  2  0  0  0  0
  8 32  1  0  0  0  0
  9 13  1  0  0  0  0
 10  4  1  0  0  0  0
 11  7  2  0  0  0  0
 12  9  1  0  0  0  0
 13  8  1  0  0  0  0
 14 12  1  0  0  0  0
 14  1  2  0  0  0  0
 16  6  1  0  0  0  0
 17 16  1  0  0  0  0
 17 15  2  0  0  0  0
 18 19  1  0  0  0  0
 18 17  1  0  0  0  0
 19 28  1  1  0  0  0
 21 23  1  6  0  0  0
 21 27  1  0  0  0  0
 22 26  1  6  0  0  0
 22 23  1  0  0  0  0
 22 21  1  0  0  0  0
 24 19  1  0  0  0  0
 24 27  2  0  0  0  0
 25 20  1  1  0  0  0
 25 22  1  0  0  0  0
 25 24  1  0  0  0  0
 29 28  2  0  0  0  0
 30 11  1  0  0  0  0
 31 30  1  0  0  0  0
 32 33  1  0  0  0  0
 33 35  1  0  0  0  0
 34 35  2  0  0  0  0
 36 46  1  0  0  0  0
 37 40  1  6  0  0  0
 37 46  1  0  0  0  0
 38 47  1  6  0  0  0
 38 40  1  0  0  0  0
 38 45  1  0  0  0  0
 39 37  1  0  0  0  0
 41 43  1  0  0  0  0
 42 38  1  0  0  0  0
 42 44  1  0  0  0  0
 43 34  1  1  0  0  0
 44 39  1  0  0  0  0
 45 41  1  6  0  0  0
 45 43  1  0  0  0  0
 45 36  1  0  0  0  0
M  END
>  <MODEL>
9

>  <REMARK>
 VINA RESULT:      -7.9      1.393      2.605
  Name = 
  10 active torsions:
  status: ('A' for Active; 'I' for Inactive)
    1  A    between atoms: C_2  and  C_16
    2  A    between atoms: C_2  and  C_32
    3  A    between atoms: C_3  and  C_25
    4  A    between atoms: O_13  and  C_40
    5  A    between atoms: C_16  and  C_26
    6  A    between atoms: C_20  and  C_36
    7  A    between atoms: O_23  and  C_36
    8  A    between atoms: O_23  and  C_39
    9  A    between atoms: C_27  and  C_36
   10  A    between atoms: N_28  and  C_29
                            x       y       z     vdW  Elec       q    Type
                         _______ _______ _______ _____ _____    ______ ____

>  <TORSDO>
F 10

$$$$
