=
 OpenBabel11042413233D

 50 53  0  0  1  0  0  0  0  0999 V2000
  182.8820  176.7460  135.2070 O   0  0  0  0  0  0  0  0  0  0  0  0
  182.2390  178.1510  139.5240 C   0  0  0  0  0  0  0  0  0  0  0  0
  181.3360  177.0270  137.7460 C   0  0  0  0  0  0  0  0  0  0  0  0
  186.4500  177.5310  139.1640 C   0  0  0  0  0  2  0  0  0  0  0  0
  182.5970  177.3660  137.5100 C   0  0  0  0  0  0  0  0  0  0  0  0
  180.9450  177.5190  139.1060 C   0  0  2  0  0  3  0  0  0  0  0  0
  186.8480  178.5290  140.2020 C   0  0  1  0  0  3  0  0  0  0  0  0
  182.4390  178.9690  140.7630 C   0  0  0  0  0  2  0  0  0  0  0  0
  183.1460  178.0720  138.6130 N   0  0  0  0  0  0  0  0  0  0  0  0
  183.2790  178.2640  141.8340 C   0  0  1  0  0  3  0  0  0  0  0  0
  179.9590  178.4970  138.9830 O   0  0  0  0  0  1  0  0  0  0  0  0
  184.7810  177.4830  136.3520 N   0  0  0  0  0  0  0  0  0  0  0  0
  183.3980  177.1380  136.2870 C   0  0  0  0  0  0  0  0  0  0  0  0
  180.4390  176.2790  136.8190 C   0  0  0  0  0  1  0  0  0  0  0  0
  186.6290  177.5910  137.8420 C   0  0  1  0  0  3  0  0  0  0  0  0
  185.5800  176.8290  137.1370 C   0  0  0  0  0  0  0  0  0  0  0  0
  184.6880  177.8500  141.3930 C   0  0  0  0  0  2  0  0  0  0  0  0
  185.5900  179.0140  140.9480 C   0  0  0  0  0  2  0  0  0  0  0  0
  183.3150  179.0610  143.0980 C   0  0  0  0  0  0  0  0  0  0  0  0
  184.3760  179.6460  143.4350 O   0  0  0  0  0  0  0  0  0  0  0  0
  182.1770  179.1880  143.8850 O   0  0  0  0  0  1  0  0  0  0  0  0
  188.9310  177.3320  140.6060 C   0  0  0  0  0  3  0  0  0  0  0  0
  187.8810  177.9710  141.1390 C   0  0  0  0  0  0  0  0  0  0  0  0
  187.2460  177.0600  143.2400 O   0  0  0  0  0  1  0  0  0  0  0  0
  187.7650  178.1980  142.6220 C   0  0  0  0  0  2  0  0  0  0  0  0
  190.0470  176.7680  141.4270 C   0  0  0  0  0  2  0  0  0  0  0  0
  191.1550  177.7080  141.4590 N   0  0  0  0  0  2  0  0  0  0  0  0
  191.7990  177.5760  142.7580 C   0  0  0  0  0  2  0  0  0  0  0  0
  191.1890  176.4210  143.5360 C   0  0  0  0  0  2  0  0  0  0  0  0
  191.0470  176.7910  145.0030 C   0  0  0  0  0  2  0  0  0  0  0  0
  189.5890  176.7100  145.4220 C   0  0  0  0  0  2  0  0  0  0  0  0
  189.7840  177.5350  147.6020 C   0  0  0  0  0  2  0  0  0  0  0  0
  187.4840  178.1360  147.8900 C   0  0  0  0  0  2  0  0  0  0  0  0
  187.8030  177.8370  146.4390 C   0  0  0  0  0  2  0  0  0  0  0  0
  188.8050  178.0760  148.6160 C   0  0  0  0  0  2  0  0  0  0  0  0
  189.2500  177.8340  146.2820 N   0  0  0  0  0  0  0  0  0  0  0  0
  187.3480  178.7480  137.1810 C   0  0  2  0  0  3  0  0  0  0  0  0
  187.5160  178.5010  135.6880 C   0  0  0  0  0  1  0  0  0  0  0  0
  189.4420  178.0190  137.0910 C   0  0  0  0  0  1  0  0  0  0  0  0
  188.6140  178.9320  137.7470 O   0  0  0  0  0  0  0  0  0  0  0  0
  185.2470  175.5190  137.5240 O   0  0  0  0  0  0  0  0  0  0  0  0
  186.2450  174.4400  135.5890 C   0  0  0  0  0  2  0  0  0  0  0  0
  183.8540  173.0140  136.7400 C   0  0  1  0  0  3  0  0  0  0  0  0
  185.3350  173.5390  134.7470 C   0  0  0  0  0  2  0  0  0  0  0  0
  185.9680  174.3660  137.1010 C   0  0  2  0  0  3  0  0  0  0  0  0
  185.1940  173.1050  137.4850 C   0  0  0  0  0  2  0  0  0  0  0  0
  183.9100  173.5370  135.2950 C   0  0  0  0  0  2  0  0  0  0  0  0
  183.3290  171.6180  136.7850 C   0  0  0  0  0  0  0  0  0  0  0  0
  182.0790  171.3720  137.3330 O   0  0  0  0  0  1  0  0  0  0  0  0
  184.0210  170.6580  136.3490 O   0  0  0  0  0  0  0  0  0  0  0  0
  1 13  2  0  0  0  0
  2  8  1  0  0  0  0
  3  6  1  0  0  0  0
  4  7  1  0  0  0  0
  5  3  2  0  0  0  0
  5  9  1  0  0  0  0
  6 11  1  6  0  0  0
  6  2  1  0  0  0  0
  7 18  1  0  0  0  0
  7 23  1  1  0  0  0
  8 10  1  0  0  0  0
  9  2  2  0  0  0  0
 10 19  1  1  0  0  0
 12 16  2  0  0  0  0
 13 12  1  0  0  0  0
 13  5  1  0  0  0  0
 14  3  1  0  0  0  0
 15 37  1  6  0  0  0
 15  4  1  0  0  0  0
 16 41  1  0  0  0  0
 16 15  1  0  0  0  0
 17 10  1  0  0  0  0
 18 17  1  0  0  0  0
 19 20  2  0  0  0  0
 19 21  1  0  0  0  0
 22 23  2  0  0  0  0
 22 26  1  0  0  0  0
 23 25  1  0  0  0  0
 25 24  1  0  0  0  0
 26 27  1  0  0  0  0
 27 28  1  0  0  0  0
 28 29  1  0  0  0  0
 29 30  1  0  0  0  0
 30 31  1  0  0  0  0
 31 36  1  0  0  0  0
 32 35  1  0  0  0  0
 33 35  1  0  0  0  0
 34 33  1  0  0  0  0
 36 34  1  0  0  0  0
 36 32  1  0  0  0  0
 37 38  1  6  0  0  0
 37 40  1  0  0  0  0
 39 40  1  0  0  0  0
 42 45  1  0  0  0  0
 43 48  1  6  0  0  0
 43 46  1  0  0  0  0
 44 47  1  0  0  0  0
 44 42  1  0  0  0  0
 45 46  1  0  0  0  0
 45 41  1  6  0  0  0
 47 43  1  0  0  0  0
 48 49  1  0  0  0  0
 50 48  2  0  0  0  0
M  END
>  <MODEL>
1

>  <REMARK>
 VINA RESULT:      -6.7      0.000      0.000
  Name = 
  15 active torsions:
  status: ('A' for Active; 'I' for Inactive)
    1  A    between atoms: N_1  and  C_5
    2  A    between atoms: N_1  and  C_15
    3  A    between atoms: C_2  and  C_25
    4  A    between atoms: C_5  and  C_26
    5  A    between atoms: C_7  and  C_30
    6  A    between atoms: C_7  and  C_48
    7  A    between atoms: C_8  and  C_17
    8  A    between atoms: C_15  and  C_48
    9  A    between atoms: C_19  and  C_47
   10  A    between atoms: C_22  and  O_46
   11  A    between atoms: C_29  and  C_39
   12  A    between atoms: C_29  and  O_45
   13  A    between atoms: C_30  and  N_44
   14  A    between atoms: C_35  and  C_47
   15  A    between atoms: C_41  and  O_46
                            x       y       z     vdW  Elec       q    Type
                         _______ _______ _______ _____ _____    ______ ____

>  <TORSDO>
F 15

$$$$
=
 OpenBabel11042413233D

 50 53  0  0  1  0  0  0  0  0999 V2000
  182.1630  176.9170  134.5950 O   0  0  0  0  0  0  0  0  0  0  0  0
  181.7700  178.1410  138.9960 C   0  0  0  0  0  0  0  0  0  0  0  0
  180.7730  177.0760  137.2320 C   0  0  0  0  0  0  0  0  0  0  0  0
  185.9590  177.5960  138.3550 C   0  0  0  0  0  2  0  0  0  0  0  0
  182.0130  177.4410  136.9330 C   0  0  0  0  0  0  0  0  0  0  0  0
  180.4610  177.5080  138.6320 C   0  0  2  0  0  3  0  0  0  0  0  0
  186.4070  178.5580  139.4060 C   0  0  1  0  0  3  0  0  0  0  0  0
  182.0370  178.9130  140.2520 C   0  0  0  0  0  2  0  0  0  0  0  0
  182.6210  178.1110  138.0290 N   0  0  0  0  0  0  0  0  0  0  0  0
  182.9490  178.1780  141.2410 C   0  0  1  0  0  3  0  0  0  0  0  0
  179.4570  178.4760  138.6090 O   0  0  0  0  0  1  0  0  0  0  0  0
  184.1200  177.6350  135.6500 N   0  0  0  0  0  0  0  0  0  0  0  0
  182.7400  177.2740  135.6560 C   0  0  0  0  0  0  0  0  0  0  0  0
  179.8300  176.3520  136.3320 C   0  0  0  0  0  1  0  0  0  0  0  0
  186.0550  177.7110  137.0280 C   0  0  1  0  0  3  0  0  0  0  0  0
  184.9730  176.9630  136.3590 C   0  0  0  0  0  0  0  0  0  0  0  0
  184.3330  177.8020  140.6980 C   0  0  0  0  0  2  0  0  0  0  0  0
  185.1920  178.9950  140.2460 C   0  0  0  0  0  2  0  0  0  0  0  0
  183.0530  178.9250  142.5310 C   0  0  0  0  0  0  0  0  0  0  0  0
  182.1150  179.6840  142.8880 O   0  0  0  0  0  0  0  0  0  0  0  0
  184.1610  178.7640  143.3540 O   0  0  0  0  0  1  0  0  0  0  0  0
  187.4110  178.1250  141.5830 C   0  0  0  0  0  3  0  0  0  0  0  0
  187.5020  177.9780  140.2550 C   0  0  0  0  0  0  0  0  0  0  0  0
  189.7420  178.0060  139.4620 O   0  0  0  0  0  1  0  0  0  0  0  0
  188.6200  177.1920  139.6240 C   0  0  0  0  0  2  0  0  0  0  0  0
  188.4130  177.5600  142.5400 C   0  0  0  0  0  2  0  0  0  0  0  0
  189.4770  178.5240  142.7630 N   0  0  0  0  0  2  0  0  0  0  0  0
  190.7160  177.7770  142.9070 C   0  0  0  0  0  2  0  0  0  0  0  0
  191.6200  178.4430  143.9330 C   0  0  0  0  0  2  0  0  0  0  0  0
  191.0710  178.2320  145.3340 C   0  0  0  0  0  2  0  0  0  0  0  0
  190.6970  176.7730  145.5320 C   0  0  0  0  0  2  0  0  0  0  0  0
  188.5090  177.3630  146.1090 C   0  0  0  0  0  2  0  0  0  0  0  0
  188.9960  178.1650  148.3110 C   0  0  0  0  0  2  0  0  0  0  0  0
  190.1650  177.3970  147.7280 C   0  0  0  0  0  2  0  0  0  0  0  0
  187.8750  178.0190  147.3130 C   0  0  0  0  0  2  0  0  0  0  0  0
  189.6880  176.6490  146.5730 N   0  0  0  0  0  0  0  0  0  0  0  0
  186.7180  178.9030  136.3710 C   0  0  2  0  0  3  0  0  0  0  0  0
  186.9510  178.6460  134.8890 C   0  0  0  0  0  1  0  0  0  0  0  0
  188.8770  178.4010  136.2780 C   0  0  0  0  0  1  0  0  0  0  0  0
  187.9500  179.1780  136.9750 O   0  0  0  0  0  0  0  0  0  0  0  0
  184.6810  175.6340  136.7120 O   0  0  0  0  0  0  0  0  0  0  0  0
  183.8070  173.4220  136.2110 C   0  0  0  0  0  2  0  0  0  0  0  0
  186.6770  173.4710  137.1250 C   0  0  1  0  0  3  0  0  0  0  0  0
  184.4710  172.2340  136.9170 C   0  0  0  0  0  2  0  0  0  0  0  0
  184.7890  174.5360  135.8100 C   0  0  2  0  0  3  0  0  0  0  0  0
  186.2360  174.0440  135.7700 C   0  0  0  0  0  2  0  0  0  0  0  0
  185.5680  172.7070  137.8670 C   0  0  0  0  0  2  0  0  0  0  0  0
  187.8930  172.6230  136.9580 C   0  0  0  0  0  0  0  0  0  0  0  0
  189.1340  173.1230  137.3270 O   0  0  0  0  0  1  0  0  0  0  0  0
  187.8060  171.4660  136.4650 O   0  0  0  0  0  0  0  0  0  0  0  0
  1 13  2  0  0  0  0
  2  8  1  0  0  0  0
  3  6  1  0  0  0  0
  4  7  1  0  0  0  0
  5  3  2  0  0  0  0
  5  9  1  0  0  0  0
  6 11  1  6  0  0  0
  6  2  1  0  0  0  0
  7 18  1  0  0  0  0
  7 23  1  1  0  0  0
  8 10  1  0  0  0  0
  9  2  2  0  0  0  0
 10 19  1  1  0  0  0
 12 13  1  0  0  0  0
 12 16  2  0  0  0  0
 13  5  1  0  0  0  0
 14  3  1  0  0  0  0
 15 37  1  1  0  0  0
 15  4  1  0  0  0  0
 16 41  1  0  0  0  0
 16 15  1  0  0  0  0
 17 10  1  0  0  0  0
 18 17  1  0  0  0  0
 19 20  2  0  0  0  0
 19 21  1  0  0  0  0
 22 26  1  0  0  0  0
 23 22  2  0  0  0  0
 24 25  1  0  0  0  0
 25 23  1  0  0  0  0
 26 27  1  0  0  0  0
 27 28  1  0  0  0  0
 28 29  1  0  0  0  0
 29 30  1  0  0  0  0
 30 31  1  0  0  0  0
 31 36  1  0  0  0  0
 32 36  1  0  0  0  0
 32 35  1  0  0  0  0
 34 33  1  0  0  0  0
 35 33  1  0  0  0  0
 36 34  1  0  0  0  0
 37 38  1  6  0  0  0
 37 40  1  0  0  0  0
 39 40  1  0  0  0  0
 42 44  1  0  0  0  0
 43 48  1  6  0  0  0
 43 47  1  0  0  0  0
 44 47  1  0  0  0  0
 45 42  1  0  0  0  0
 45 41  1  1  0  0  0
 46 45  1  0  0  0  0
 46 43  1  0  0  0  0
 48 49  1  0  0  0  0
 50 48  2  0  0  0  0
M  END
>  <MODEL>
2

>  <REMARK>
 VINA RESULT:      -6.1      1.410      2.156
  Name = 
  15 active torsions:
  status: ('A' for Active; 'I' for Inactive)
    1  A    between atoms: N_1  and  C_5
    2  A    between atoms: N_1  and  C_15
    3  A    between atoms: C_2  and  C_25
    4  A    between atoms: C_5  and  C_26
    5  A    between atoms: C_7  and  C_30
    6  A    between atoms: C_7  and  C_48
    7  A    between atoms: C_8  and  C_17
    8  A    between atoms: C_15  and  C_48
    9  A    between atoms: C_19  and  C_47
   10  A    between atoms: C_22  and  O_46
   11  A    between atoms: C_29  and  C_39
   12  A    between atoms: C_29  and  O_45
   13  A    between atoms: C_30  and  N_44
   14  A    between atoms: C_35  and  C_47
   15  A    between atoms: C_41  and  O_46
                            x       y       z     vdW  Elec       q    Type
                         _______ _______ _______ _____ _____    ______ ____

>  <TORSDO>
F 15

$$$$
=
 OpenBabel11042413233D

 50 53  0  0  1  0  0  0  0  0999 V2000
  183.2780  179.5150  139.3300 O   0  0  0  0  0  0  0  0  0  0  0  0
  186.8860  178.4170  141.9360 C   0  0  0  0  0  0  0  0  0  0  0  0
  184.6210  178.7470  141.8820 C   0  0  0  0  0  0  0  0  0  0  0  0
  187.8630  177.0120  138.0220 C   0  0  0  0  0  2  0  0  0  0  0  0
  185.1450  178.8110  140.6650 C   0  0  0  0  0  0  0  0  0  0  0  0
  185.7160  178.4900  142.8710 C   0  0  2  0  0  3  0  0  0  0  0  0
  189.3440  177.1230  138.1780 C   0  0  1  0  0  3  0  0  0  0  0  0
  188.3220  178.3280  142.3540 C   0  0  0  0  0  2  0  0  0  0  0  0
  186.5510  178.6170  140.7080 N   0  0  0  0  0  0  0  0  0  0  0  0
  188.9550  176.9580  142.0870 C   0  0  1  0  0  3  0  0  0  0  0  0
  185.8530  179.5920  143.7150 O   0  0  0  0  0  1  0  0  0  0  0  0
  185.2460  178.9650  138.1970 N   0  0  0  0  0  0  0  0  0  0  0  0
  184.4630  179.0940  139.3830 C   0  0  0  0  0  0  0  0  0  0  0  0
  183.1790  178.9030  142.2270 C   0  0  0  0  0  1  0  0  0  0  0  0
  187.0510  177.7400  137.2530 C   0  0  1  0  0  3  0  0  0  0  0  0
  185.6960  177.8040  137.8360 C   0  0  0  0  0  0  0  0  0  0  0  0
  188.9330  176.5010  140.6240 C   0  0  0  0  0  2  0  0  0  0  0  0
  189.6780  177.4290  139.6500 C   0  0  0  0  0  2  0  0  0  0  0  0
  190.3320  176.8820  142.6620 C   0  0  0  0  0  0  0  0  0  0  0  0
  190.7780  175.7780  143.0700 O   0  0  0  0  0  1  0  0  0  0  0  0
  191.1360  178.0140  142.7220 O   0  0  0  0  0  0  0  0  0  0  0  0
  189.3050  174.8100  137.4170 C   0  0  0  0  0  3  0  0  0  0  0  0
  190.0470  175.8920  137.6820 C   0  0  0  0  0  0  0  0  0  0  0  0
  192.2010  175.2230  138.4310 O   0  0  0  0  0  1  0  0  0  0  0  0
  191.5300  175.9150  137.4220 C   0  0  0  0  0  2  0  0  0  0  0  0
  189.8780  173.5360  136.8790 C   0  0  0  0  0  2  0  0  0  0  0  0
  188.8020  172.6170  136.5460 N   0  0  0  0  0  2  0  0  0  0  0  0
  187.5910  173.4070  136.3870 C   0  0  0  0  0  2  0  0  0  0  0  0
  186.4300  172.7490  137.1160 C   0  0  0  0  0  2  0  0  0  0  0  0
  185.3830  172.2780  136.1200 C   0  0  0  0  0  2  0  0  0  0  0  0
  184.1480  171.7860  136.8570 C   0  0  0  0  0  2  0  0  0  0  0  0
  183.2200  172.7800  134.9550 C   0  0  0  0  0  2  0  0  0  0  0  0
  181.0180  173.0960  135.8380 C   0  0  0  0  0  2  0  0  0  0  0  0
  181.8400  172.1730  136.7140 C   0  0  0  0  0  2  0  0  0  0  0  0
  181.8710  173.3740  134.6260 C   0  0  0  0  0  2  0  0  0  0  0  0
  183.0080  171.7460  135.9550 N   0  0  0  0  0  0  0  0  0  0  0  0
  187.5720  178.8300  136.3410 C   0  0  2  0  0  3  0  0  0  0  0  0
  186.7620  178.8950  135.0540 C   0  0  0  0  0  1  0  0  0  0  0  0
  188.8770  177.9160  134.7960 C   0  0  0  0  0  1  0  0  0  0  0  0
  188.9130  178.6000  136.0130 O   0  0  0  0  0  0  0  0  0  0  0  0
  185.0370  176.6410  138.2750 O   0  0  0  0  0  0  0  0  0  0  0  0
  184.1650  176.3620  136.0240 C   0  0  0  0  0  2  0  0  0  0  0  0
  182.0850  176.3100  138.2030 C   0  0  1  0  0  3  0  0  0  0  0  0
  182.7070  176.7710  135.7860 C   0  0  0  0  0  2  0  0  0  0  0  0
  184.4130  175.7110  137.3960 C   0  0  2  0  0  3  0  0  0  0  0  0
  183.1220  175.1900  138.0290 C   0  0  0  0  0  2  0  0  0  0  0  0
  182.0840  177.3380  137.0600 C   0  0  0  0  0  2  0  0  0  0  0  0
  180.7250  175.7300  138.4040 C   0  0  0  0  0  0  0  0  0  0  0  0
  180.5270  174.7690  139.3850 O   0  0  0  0  0  1  0  0  0  0  0  0
  179.7600  176.0890  137.6770 O   0  0  0  0  0  0  0  0  0  0  0  0
  1 13  2  0  0  0  0
  2  8  1  0  0  0  0
  2  6  1  0  0  0  0
  3 14  1  0  0  0  0
  3  6  1  0  0  0  0
  4  7  1  0  0  0  0
  5  9  1  0  0  0  0
  5  3  2  0  0  0  0
  6 11  1  1  0  0  0
  7 23  1  1  0  0  0
  7 18  1  0  0  0  0
  9  2  2  0  0  0  0
 10  8  1  0  0  0  0
 10 19  1  6  0  0  0
 12 13  1  0  0  0  0
 13  5  1  0  0  0  0
 15 37  1  1  0  0  0
 15 16  1  0  0  0  0
 15  4  1  0  0  0  0
 16 12  2  0  0  0  0
 16 41  1  0  0  0  0
 17 10  1  0  0  0  0
 18 17  1  0  0  0  0
 19 21  2  0  0  0  0
 19 20  1  0  0  0  0
 22 23  2  0  0  0  0
 25 23  1  0  0  0  0
 25 24  1  0  0  0  0
 26 22  1  0  0  0  0
 27 26  1  0  0  0  0
 28 27  1  0  0  0  0
 28 29  1  0  0  0  0
 30 31  1  0  0  0  0
 30 29  1  0  0  0  0
 32 36  1  0  0  0  0
 33 34  1  0  0  0  0
 35 32  1  0  0  0  0
 35 33  1  0  0  0  0
 36 34  1  0  0  0  0
 36 31  1  0  0  0  0
 37 38  1  6  0  0  0
 39 40  1  0  0  0  0
 40 37  1  0  0  0  0
 42 45  1  0  0  0  0
 43 48  1  6  0  0  0
 44 42  1  0  0  0  0
 44 47  1  0  0  0  0
 45 46  1  0  0  0  0
 45 41  1  1  0  0  0
 46 43  1  0  0  0  0
 47 43  1  0  0  0  0
 48 49  1  0  0  0  0
 50 48  2  0  0  0  0
M  END
>  <MODEL>
3

>  <REMARK>
 VINA RESULT:      -5.9      2.679      7.026
  Name = 
  15 active torsions:
  status: ('A' for Active; 'I' for Inactive)
    1  A    between atoms: N_1  and  C_5
    2  A    between atoms: N_1  and  C_15
    3  A    between atoms: C_2  and  C_25
    4  A    between atoms: C_5  and  C_26
    5  A    between atoms: C_7  and  C_30
    6  A    between atoms: C_7  and  C_48
    7  A    between atoms: C_8  and  C_17
    8  A    between atoms: C_15  and  C_48
    9  A    between atoms: C_19  and  C_47
   10  A    between atoms: C_22  and  O_46
   11  A    between atoms: C_29  and  C_39
   12  A    between atoms: C_29  and  O_45
   13  A    between atoms: C_30  and  N_44
   14  A    between atoms: C_35  and  C_47
   15  A    between atoms: C_41  and  O_46
                            x       y       z     vdW  Elec       q    Type
                         _______ _______ _______ _____ _____    ______ ____

>  <TORSDO>
F 15

$$$$
=
 OpenBabel11042413233D

 50 53  0  0  1  0  0  0  0  0999 V2000
  181.8190  176.6470  136.1560 O   0  0  0  0  0  0  0  0  0  0  0  0
  182.4820  178.1300  140.4440 C   0  0  0  0  0  0  0  0  0  0  0  0
  181.0970  176.9750  139.0340 C   0  0  0  0  0  0  0  0  0  0  0  0
  186.3990  177.5010  138.8580 C   0  0  0  0  0  2  0  0  0  0  0  0
  182.2290  177.3080  138.4280 C   0  0  0  0  0  0  0  0  0  0  0  0
  181.1260  177.4910  140.4400 C   0  0  2  0  0  3  0  0  0  0  0  0
  187.0830  178.5170  139.7140 C   0  0  1  0  0  3  0  0  0  0  0  0
  183.0380  178.9700  141.5520 C   0  0  0  0  0  2  0  0  0  0  0  0
  183.0780  178.0340  139.3050 N   0  0  0  0  0  0  0  0  0  0  0  0
  184.1620  178.2830  142.3370 C   0  0  1  0  0  3  0  0  0  0  0  0
  180.1430  178.4680  140.5990 O   0  0  0  0  0  1  0  0  0  0  0  0
  183.9700  177.4030  136.6710 N   0  0  0  0  0  0  0  0  0  0  0  0
  182.6320  177.0580  137.0260 C   0  0  0  0  0  0  0  0  0  0  0  0
  179.9690  176.2110  138.4290 C   0  0  0  0  0  1  0  0  0  0  0  0
  186.1770  177.5370  137.5430 C   0  0  1  0  0  3  0  0  0  0  0  0
  184.9690  176.7630  137.1950 C   0  0  0  0  0  0  0  0  0  0  0  0
  185.3780  177.8610  141.5040 C   0  0  0  0  0  2  0  0  0  0  0  0
  186.1010  179.0160  140.7910 C   0  0  0  0  0  2  0  0  0  0  0  0
  184.5680  179.1030  143.5190 C   0  0  0  0  0  0  0  0  0  0  0  0
  183.7810  179.9750  143.9730 O   0  0  0  0  0  0  0  0  0  0  0  0
  185.7920  178.8900  144.1410 O   0  0  0  0  0  1  0  0  0  0  0  0
  189.2020  177.3360  139.4990 C   0  0  0  0  0  3  0  0  0  0  0  0
  188.3500  177.9750  140.3110 C   0  0  0  0  0  0  0  0  0  0  0  0
  188.4700  177.0500  142.4970 O   0  0  0  0  0  1  0  0  0  0  0  0
  188.6730  178.2180  141.7600 C   0  0  0  0  0  2  0  0  0  0  0  0
  190.5160  176.7880  139.9600 C   0  0  0  0  0  2  0  0  0  0  0  0
  191.0940  175.9580  138.9170 N   0  0  0  0  0  2  0  0  0  0  0  0
  192.4460  176.4400  138.6790 C   0  0  0  0  0  2  0  0  0  0  0  0
  192.7140  176.5520  137.1860 C   0  0  0  0  0  2  0  0  0  0  0  0
  193.6410  175.4350  136.7340 C   0  0  0  0  0  2  0  0  0  0  0  0
  194.6250  175.0940  137.8400 C   0  0  0  0  0  2  0  0  0  0  0  0
  195.8110  173.9040  136.2140 C   0  0  0  0  0  2  0  0  0  0  0  0
  197.5670  173.1310  137.6440 C   0  0  0  0  0  2  0  0  0  0  0  0
  196.7480  174.2180  138.3090 C   0  0  0  0  0  2  0  0  0  0  0  0
  197.0420  173.0310  136.2340 C   0  0  0  0  0  2  0  0  0  0  0  0
  195.9510  174.8790  137.2840 N   0  0  0  0  0  0  0  0  0  0  0  0
  186.6610  178.6810  136.6770 C   0  0  2  0  0  3  0  0  0  0  0  0
  186.7270  178.2650  135.2140 C   0  0  0  0  0  1  0  0  0  0  0  0
  188.8120  178.5320  136.1550 C   0  0  0  0  0  1  0  0  0  0  0  0
  187.9330  179.1000  137.0790 O   0  0  0  0  0  0  0  0  0  0  0  0
  184.7720  175.4600  137.6860 O   0  0  0  0  0  0  0  0  0  0  0  0
  185.6170  174.4500  135.6440 C   0  0  0  0  0  2  0  0  0  0  0  0
  183.2770  173.0180  136.8900 C   0  0  1  0  0  3  0  0  0  0  0  0
  184.6340  173.6040  134.8270 C   0  0  0  0  0  2  0  0  0  0  0  0
  185.4390  174.3140  137.1660 C   0  0  2  0  0  3  0  0  0  0  0  0
  184.6660  173.0510  137.5460 C   0  0  0  0  0  2  0  0  0  0  0  0
  183.2490  173.6040  135.4690 C   0  0  0  0  0  2  0  0  0  0  0  0
  182.7280  171.6310  136.9110 C   0  0  0  0  0  0  0  0  0  0  0  0
  181.4040  171.4230  137.2690 O   0  0  0  0  0  1  0  0  0  0  0  0
  183.4600  170.6460  136.6250 O   0  0  0  0  0  0  0  0  0  0  0  0
  1 13  2  0  0  0  0
  2  8  1  0  0  0  0
  3  6  1  0  0  0  0
  4  7  1  0  0  0  0
  5  3  2  0  0  0  0
  5  9  1  0  0  0  0
  6  2  1  0  0  0  0
  6 11  1  6  0  0  0
  7 23  1  1  0  0  0
  7 18  1  0  0  0  0
  8 10  1  0  0  0  0
  9  2  2  0  0  0  0
 10 19  1  1  0  0  0
 12 13  1  0  0  0  0
 12 16  2  0  0  0  0
 13  5  1  0  0  0  0
 14  3  1  0  0  0  0
 15 37  1  1  0  0  0
 15  4  1  0  0  0  0
 16 15  1  0  0  0  0
 16 41  1  0  0  0  0
 17 10  1  0  0  0  0
 18 17  1  0  0  0  0
 19 20  2  0  0  0  0
 19 21  1  0  0  0  0
 22 26  1  0  0  0  0
 22 23  2  0  0  0  0
 23 25  1  0  0  0  0
 25 24  1  0  0  0  0
 27 26  1  0  0  0  0
 28 27  1  0  0  0  0
 29 28  1  0  0  0  0
 30 29  1  0  0  0  0
 30 31  1  0  0  0  0
 32 35  1  0  0  0  0
 32 36  1  0  0  0  0
 33 34  1  0  0  0  0
 35 33  1  0  0  0  0
 36 31  1  0  0  0  0
 36 34  1  0  0  0  0
 37 38  1  6  0  0  0
 37 40  1  0  0  0  0
 39 40  1  0  0  0  0
 42 45  1  0  0  0  0
 43 48  1  6  0  0  0
 43 46  1  0  0  0  0
 44 47  1  0  0  0  0
 44 42  1  0  0  0  0
 45 46  1  0  0  0  0
 45 41  1  6  0  0  0
 47 43  1  0  0  0  0
 48 49  1  0  0  0  0
 50 48  2  0  0  0  0
M  END
>  <MODEL>
4

>  <REMARK>
 VINA RESULT:      -5.4      3.029      4.970
  Name = 
  15 active torsions:
  status: ('A' for Active; 'I' for Inactive)
    1  A    between atoms: N_1  and  C_5
    2  A    between atoms: N_1  and  C_15
    3  A    between atoms: C_2  and  C_25
    4  A    between atoms: C_5  and  C_26
    5  A    between atoms: C_7  and  C_30
    6  A    between atoms: C_7  and  C_48
    7  A    between atoms: C_8  and  C_17
    8  A    between atoms: C_15  and  C_48
    9  A    between atoms: C_19  and  C_47
   10  A    between atoms: C_22  and  O_46
   11  A    between atoms: C_29  and  C_39
   12  A    between atoms: C_29  and  O_45
   13  A    between atoms: C_30  and  N_44
   14  A    between atoms: C_35  and  C_47
   15  A    between atoms: C_41  and  O_46
                            x       y       z     vdW  Elec       q    Type
                         _______ _______ _______ _____ _____    ______ ____

>  <TORSDO>
F 15

$$$$
=
 OpenBabel11042413233D

 50 53  0  0  1  0  0  0  0  0999 V2000
  178.9350  174.1500  138.0970 O   0  0  0  0  0  0  0  0  0  0  0  0
  182.7430  172.4590  136.1850 C   0  0  0  0  0  0  0  0  0  0  0  0
  180.4570  172.3610  136.2550 C   0  0  0  0  0  0  0  0  0  0  0  0
  183.6770  176.5160  137.1420 C   0  0  0  0  0  2  0  0  0  0  0  0
  180.9180  173.3570  137.0000 C   0  0  0  0  0  0  0  0  0  0  0  0
  181.6140  171.6390  135.6360 C   0  0  2  0  0  3  0  0  0  0  0  0
  185.1470  176.3060  137.3110 C   0  0  1  0  0  3  0  0  0  0  0  0
  184.1980  172.1310  136.0430 C   0  0  0  0  0  2  0  0  0  0  0  0
  182.3370  173.4040  136.9610 N   0  0  0  0  0  0  0  0  0  0  0  0
  184.9470  173.0680  135.0890 C   0  0  1  0  0  3  0  0  0  0  0  0
  181.6810  170.3420  136.1430 O   0  0  0  0  0  1  0  0  0  0  0  0
  180.8940  175.3780  138.4300 N   0  0  0  0  0  0  0  0  0  0  0  0
  180.1560  174.3100  137.8370 C   0  0  0  0  0  0  0  0  0  0  0  0
  179.0230  172.0040  136.0560 C   0  0  0  0  0  1  0  0  0  0  0  0
  182.7660  176.8000  138.0750 C   0  0  1  0  0  3  0  0  0  0  0  0
  181.4380  176.2880  137.6820 C   0  0  0  0  0  0  0  0  0  0  0  0
  184.9050  174.5540  135.4640 C   0  0  0  0  0  2  0  0  0  0  0  0
  185.5140  174.8870  136.8360 C   0  0  0  0  0  2  0  0  0  0  0  0
  186.3490  172.5990  134.8700 C   0  0  0  0  0  0  0  0  0  0  0  0
  187.2510  173.4360  134.6010 O   0  0  0  0  0  0  0  0  0  0  0  0
  186.6720  171.2540  134.9920 O   0  0  0  0  0  1  0  0  0  0  0  0
  186.6800  178.1980  137.3470 C   0  0  0  0  0  3  0  0  0  0  0  0
  185.9420  177.3640  136.6020 C   0  0  0  0  0  0  0  0  0  0  0  0
  187.0940  176.7730  134.6090 O   0  0  0  0  0  1  0  0  0  0  0  0
  185.9600  177.4240  135.0990 C   0  0  0  0  0  2  0  0  0  0  0  0
  187.5490  179.2670  136.7610 C   0  0  0  0  0  2  0  0  0  0  0  0
  188.7670  179.3920  137.5430 N   0  0  0  0  0  2  0  0  0  0  0  0
  188.6560  178.4760  138.6680 C   0  0  0  0  0  2  0  0  0  0  0  0
  189.7950  177.4690  138.6460 C   0  0  0  0  0  2  0  0  0  0  0  0
  189.7430  176.5880  139.8830 C   0  0  0  0  0  2  0  0  0  0  0  0
  190.1850  177.3770  141.1030 C   0  0  0  0  0  2  0  0  0  0  0  0
  188.2050  177.4800  142.3420 C   0  0  0  0  0  2  0  0  0  0  0  0
  189.2190  177.8350  144.4810 C   0  0  0  0  0  2  0  0  0  0  0  0
  190.2390  177.4050  143.4470 C   0  0  0  0  0  2  0  0  0  0  0  0
  187.8800  177.7450  143.7930 C   0  0  0  0  0  2  0  0  0  0  0  0
  189.5240  176.8710  142.2960 N   0  0  0  0  0  0  0  0  0  0  0  0
  183.1390  177.0000  139.5290 C   0  0  2  0  0  3  0  0  0  0  0  0
  181.9510  177.5130  140.3290 C   0  0  0  0  0  1  0  0  0  0  0  0
  184.2090  178.2710  140.9990 C   0  0  0  0  0  1  0  0  0  0  0  0
  184.1880  177.9180  139.6480 O   0  0  0  0  0  0  0  0  0  0  0  0
  180.9140  176.5310  136.4010 O   0  0  0  0  0  0  0  0  0  0  0  0
  179.8000  177.9010  134.7310 C   0  0  0  0  0  2  0  0  0  0  0  0
  180.8450  179.4150  137.1160 C   0  0  1  0  0  3  0  0  0  0  0  0
  180.2000  179.3790  134.6620 C   0  0  0  0  0  2  0  0  0  0  0  0
  179.7610  177.3320  136.1600 C   0  0  2  0  0  3  0  0  0  0  0  0
  179.6690  178.4330  137.2160 C   0  0  0  0  0  2  0  0  0  0  0  0
  181.2990  179.6950  135.6730 C   0  0  0  0  0  2  0  0  0  0  0  0
  180.5250  180.6840  137.8330 C   0  0  0  0  0  0  0  0  0  0  0  0
  180.1910  180.6450  139.1790 O   0  0  0  0  0  1  0  0  0  0  0  0
  180.5330  181.7860  137.2220 O   0  0  0  0  0  0  0  0  0  0  0  0
  2  9  2  0  0  0  0
  3  5  2  0  0  0  0
  4  7  1  0  0  0  0
  4 15  1  0  0  0  0
  5 13  1  0  0  0  0
  6 11  1  1  0  0  0
  6  2  1  0  0  0  0
  6  3  1  0  0  0  0
  7 23  1  6  0  0  0
  8  2  1  0  0  0  0
  9  5  1  0  0  0  0
 10 19  1  1  0  0  0
 10 17  1  0  0  0  0
 10  8  1  0  0  0  0
 13  1  2  0  0  0  0
 13 12  1  0  0  0  0
 14  3  1  0  0  0  0
 15 37  1  1  0  0  0
 16 15  1  0  0  0  0
 16 12  2  0  0  0  0
 17 18  1  0  0  0  0
 18  7  1  0  0  0  0
 19 21  1  0  0  0  0
 20 19  2  0  0  0  0
 23 22  2  0  0  0  0
 24 25  1  0  0  0  0
 25 23  1  0  0  0  0
 26 22  1  0  0  0  0
 26 27  1  0  0  0  0
 27 28  1  0  0  0  0
 29 28  1  0  0  0  0
 29 30  1  0  0  0  0
 30 31  1  0  0  0  0
 31 36  1  0  0  0  0
 32 35  1  0  0  0  0
 34 33  1  0  0  0  0
 35 33  1  0  0  0  0
 36 32  1  0  0  0  0
 36 34  1  0  0  0  0
 37 40  1  0  0  0  0
 37 38  1  1  0  0  0
 40 39  1  0  0  0  0
 41 16  1  0  0  0  0
 42 45  1  0  0  0  0
 43 46  1  0  0  0  0
 43 48  1  6  0  0  0
 44 42  1  0  0  0  0
 44 47  1  0  0  0  0
 45 41  1  1  0  0  0
 45 46  1  0  0  0  0
 47 43  1  0  0  0  0
 48 49  1  0  0  0  0
 50 48  2  0  0  0  0
M  END
>  <MODEL>
5

>  <REMARK>
 VINA RESULT:      -4.9      2.429      6.741
  Name = 
  15 active torsions:
  status: ('A' for Active; 'I' for Inactive)
    1  A    between atoms: N_1  and  C_5
    2  A    between atoms: N_1  and  C_15
    3  A    between atoms: C_2  and  C_25
    4  A    between atoms: C_5  and  C_26
    5  A    between atoms: C_7  and  C_30
    6  A    between atoms: C_7  and  C_48
    7  A    between atoms: C_8  and  C_17
    8  A    between atoms: C_15  and  C_48
    9  A    between atoms: C_19  and  C_47
   10  A    between atoms: C_22  and  O_46
   11  A    between atoms: C_29  and  C_39
   12  A    between atoms: C_29  and  O_45
   13  A    between atoms: C_30  and  N_44
   14  A    between atoms: C_35  and  C_47
   15  A    between atoms: C_41  and  O_46
                            x       y       z     vdW  Elec       q    Type
                         _______ _______ _______ _____ _____    ______ ____

>  <TORSDO>
F 15

$$$$
=
 OpenBabel11042413233D

 50 53  0  0  1  0  0  0  0  0999 V2000
  182.7020  176.9530  135.7310 O   0  0  0  0  0  0  0  0  0  0  0  0
  182.2260  178.2930  140.0900 C   0  0  0  0  0  0  0  0  0  0  0  0
  181.2520  177.2040  138.3270 C   0  0  0  0  0  0  0  0  0  0  0  0
  186.4170  177.6490  139.5670 C   0  0  0  0  0  2  0  0  0  0  0  0
  182.5060  177.5370  138.0510 C   0  0  0  0  0  0  0  0  0  0  0  0
  180.9140  177.6770  139.7080 C   0  0  2  0  0  3  0  0  0  0  0  0
  186.8600  178.6270  140.6060 C   0  0  1  0  0  3  0  0  0  0  0  0
  182.4780  179.0900  141.3330 C   0  0  0  0  0  2  0  0  0  0  0  0
  183.1000  178.2220  139.1450 N   0  0  0  0  0  0  0  0  0  0  0  0
  183.3510  178.3620  142.3620 C   0  0  1  0  0  3  0  0  0  0  0  0
  179.9310  178.6640  139.6370 O   0  0  0  0  0  1  0  0  0  0  0  0
  184.6480  177.6570  136.8170 N   0  0  0  0  0  0  0  0  0  0  0  0
  183.2610  177.3240  136.7970 C   0  0  0  0  0  0  0  0  0  0  0  0
  180.3160  176.4770  137.4220 C   0  0  0  0  0  1  0  0  0  0  0  0
  186.5490  177.7290  138.2410 C   0  0  1  0  0  3  0  0  0  0  0  0
  185.4690  176.9860  137.5630 C   0  0  0  0  0  0  0  0  0  0  0  0
  184.7400  177.9450  141.8630 C   0  0  0  0  0  2  0  0  0  0  0  0
  185.6330  179.1090  141.4040 C   0  0  0  0  0  2  0  0  0  0  0  0
  183.4380  179.1390  143.6350 C   0  0  0  0  0  0  0  0  0  0  0  0
  182.5060  179.0620  144.4770 O   0  0  0  0  0  1  0  0  0  0  0  0
  184.5530  179.9190  143.9120 O   0  0  0  0  0  0  0  0  0  0  0  0
  189.1140  177.7720  140.9520 C   0  0  0  0  0  3  0  0  0  0  0  0
  187.9210  178.0470  141.4960 C   0  0  0  0  0  0  0  0  0  0  0  0
  187.6690  176.5010  143.2830 O   0  0  0  0  0  1  0  0  0  0  0  0
  187.6630  177.8600  142.9670 C   0  0  0  0  0  2  0  0  0  0  0  0
  190.2670  177.2310  141.7380 C   0  0  0  0  0  2  0  0  0  0  0  0
  191.1510  176.4840  140.8600 N   0  0  0  0  0  2  0  0  0  0  0  0
  191.0600  177.0860  139.5390 C   0  0  0  0  0  2  0  0  0  0  0  0
  191.9380  176.3340  138.5520 C   0  0  0  0  0  2  0  0  0  0  0  0
  191.2250  176.1860  137.2180 C   0  0  0  0  0  2  0  0  0  0  0  0
  192.2390  176.0020  136.1020 C   0  0  0  0  0  2  0  0  0  0  0  0
  190.3500  175.2370  134.9570 C   0  0  0  0  0  2  0  0  0  0  0  0
  190.6090  172.9170  135.4880 C   0  0  0  0  0  2  0  0  0  0  0  0
  191.8590  173.7060  135.8210 C   0  0  0  0  0  2  0  0  0  0  0  0
  189.6860  173.8890  134.7980 C   0  0  0  0  0  2  0  0  0  0  0  0
  191.7700  175.0000  135.1580 N   0  0  0  0  0  0  0  0  0  0  0  0
  187.2530  178.8910  137.5720 C   0  0  2  0  0  3  0  0  0  0  0  0
  187.3090  178.6960  136.0640 C   0  0  0  0  0  1  0  0  0  0  0  0
  189.2920  179.5330  136.9820 C   0  0  0  0  0  1  0  0  0  0  0  0
  188.5590  179.0210  138.0540 O   0  0  0  0  0  0  0  0  0  0  0  0
  185.1410  175.6720  137.9410 O   0  0  0  0  0  0  0  0  0  0  0  0
  186.6790  174.8110  136.2690 C   0  0  0  0  0  2  0  0  0  0  0  0
  183.9770  173.4790  136.3080 C   0  0  1  0  0  3  0  0  0  0  0  0
  186.0630  174.1530  135.0290 C   0  0  0  0  0  2  0  0  0  0  0  0
  185.9080  174.5300  137.5700 C   0  0  2  0  0  3  0  0  0  0  0  0
  184.9930  173.3120  137.4480 C   0  0  0  0  0  2  0  0  0  0  0  0
  184.5390  174.2130  135.0790 C   0  0  0  0  0  2  0  0  0  0  0  0
  183.4040  172.1550  135.9260 C   0  0  0  0  0  0  0  0  0  0  0  0
  183.0980  171.2300  136.9140 O   0  0  0  0  0  1  0  0  0  0  0  0
  183.2160  171.8620  134.7150 O   0  0  0  0  0  0  0  0  0  0  0  0
  1 13  2  0  0  0  0
  2  8  1  0  0  0  0
  3  6  1  0  0  0  0
  4  7  1  0  0  0  0
  5  3  2  0  0  0  0
  5  9  1  0  0  0  0
  6 11  1  6  0  0  0
  6  2  1  0  0  0  0
  7 18  1  0  0  0  0
  7 23  1  1  0  0  0
  8 10  1  0  0  0  0
  9  2  2  0  0  0  0
 10 19  1  1  0  0  0
 12 16  2  0  0  0  0
 13 12  1  0  0  0  0
 13  5  1  0  0  0  0
 14  3  1  0  0  0  0
 15 37  1  6  0  0  0
 15  4  1  0  0  0  0
 16 41  1  0  0  0  0
 16 15  1  0  0  0  0
 17 10  1  0  0  0  0
 18 17  1  0  0  0  0
 19 21  2  0  0  0  0
 19 20  1  0  0  0  0
 22 23  2  0  0  0  0
 22 26  1  0  0  0  0
 23 25  1  0  0  0  0
 25 24  1  0  0  0  0
 27 26  1  0  0  0  0
 28 27  1  0  0  0  0
 29 28  1  0  0  0  0
 30 29  1  0  0  0  0
 31 30  1  0  0  0  0
 32 36  1  0  0  0  0
 33 34  1  0  0  0  0
 35 32  1  0  0  0  0
 35 33  1  0  0  0  0
 36 34  1  0  0  0  0
 36 31  1  0  0  0  0
 37 38  1  6  0  0  0
 37 40  1  0  0  0  0
 39 40  1  0  0  0  0
 42 45  1  0  0  0  0
 43 48  1  6  0  0  0
 43 46  1  0  0  0  0
 44 47  1  0  0  0  0
 44 42  1  0  0  0  0
 45 41  1  6  0  0  0
 46 45  1  0  0  0  0
 47 43  1  0  0  0  0
 48 49  1  0  0  0  0
 50 48  2  0  0  0  0
M  END
>  <MODEL>
6

>  <REMARK>
 VINA RESULT:      -4.5      1.904      4.638
  Name = 
  15 active torsions:
  status: ('A' for Active; 'I' for Inactive)
    1  A    between atoms: N_1  and  C_5
    2  A    between atoms: N_1  and  C_15
    3  A    between atoms: C_2  and  C_25
    4  A    between atoms: C_5  and  C_26
    5  A    between atoms: C_7  and  C_30
    6  A    between atoms: C_7  and  C_48
    7  A    between atoms: C_8  and  C_17
    8  A    between atoms: C_15  and  C_48
    9  A    between atoms: C_19  and  C_47
   10  A    between atoms: C_22  and  O_46
   11  A    between atoms: C_29  and  C_39
   12  A    between atoms: C_29  and  O_45
   13  A    between atoms: C_30  and  N_44
   14  A    between atoms: C_35  and  C_47
   15  A    between atoms: C_41  and  O_46
                            x       y       z     vdW  Elec       q    Type
                         _______ _______ _______ _____ _____    ______ ____

>  <TORSDO>
F 15

$$$$
=
 OpenBabel11042413233D

 50 53  0  0  1  0  0  0  0  0999 V2000
  193.2580  177.1280  138.2580 O   0  0  0  0  0  0  0  0  0  0  0  0
  191.2890  173.4690  136.3180 C   0  0  0  0  0  0  0  0  0  0  0  0
  193.0740  174.2390  137.5280 C   0  0  0  0  0  0  0  0  0  0  0  0
  188.0510  176.0240  137.4330 C   0  0  0  0  0  2  0  0  0  0  0  0
  192.1630  175.1890  137.3580 C   0  0  0  0  0  0  0  0  0  0  0  0
  192.6070  172.9890  136.8470 C   0  0  2  0  0  3  0  0  0  0  0  0
  187.1060  175.5540  136.3760 C   0  0  1  0  0  3  0  0  0  0  0  0
  190.3970  172.6990  135.3940 C   0  0  0  0  0  2  0  0  0  0  0  0
  191.0650  174.7070  136.5980 N   0  0  0  0  0  0  0  0  0  0  0  0
  189.1160  172.1880  136.0630 C   0  0  1  0  0  3  0  0  0  0  0  0
  193.4610  172.6880  135.7860 O   0  0  0  0  0  1  0  0  0  0  0  0
  191.0260  177.3720  137.6120 N   0  0  0  0  0  0  0  0  0  0  0  0
  192.2080  176.5980  137.8070 C   0  0  0  0  0  0  0  0  0  0  0  0
  194.3590  174.3770  138.2710 C   0  0  0  0  0  1  0  0  0  0  0  0
  188.6560  177.2090  137.5420 C   0  0  1  0  0  3  0  0  0  0  0  0
  189.9400  177.0780  138.2580 C   0  0  0  0  0  0  0  0  0  0  0  0
  188.2210  173.2720  136.6760 C   0  0  0  0  0  2  0  0  0  0  0  0
  187.7020  174.3180  135.6760 C   0  0  0  0  0  2  0  0  0  0  0  0
  188.3450  171.3020  135.1380 C   0  0  0  0  0  0  0  0  0  0  0  0
  188.9170  170.3220  134.5950 O   0  0  0  0  0  0  0  0  0  0  0  0
  186.9960  171.5330  134.8990 O   0  0  0  0  0  1  0  0  0  0  0  0
  185.0360  176.3230  137.4030 C   0  0  0  0  0  3  0  0  0  0  0  0
  185.7400  175.2830  136.9360 C   0  0  0  0  0  0  0  0  0  0  0  0
  184.2910  173.7080  137.9700 O   0  0  0  0  0  1  0  0  0  0  0  0
  185.1620  173.8940  136.8950 C   0  0  0  0  0  2  0  0  0  0  0  0
  183.6480  176.1920  137.9480 C   0  0  0  0  0  2  0  0  0  0  0  0
  183.0210  177.5020  138.0090 N   0  0  0  0  0  2  0  0  0  0  0  0
  182.3760  177.6140  139.3080 C   0  0  0  0  0  2  0  0  0  0  0  0
  182.8760  178.8470  140.0440 C   0  0  0  0  0  2  0  0  0  0  0  0
  182.6470  178.6970  141.5380 C   0  0  0  0  0  2  0  0  0  0  0  0
  183.9160  178.2060  142.2140 C   0  0  0  0  0  2  0  0  0  0  0  0
  185.6010  178.7250  143.7500 C   0  0  0  0  0  2  0  0  0  0  0  0
  184.2380  178.6280  145.7170 C   0  0  0  0  0  2  0  0  0  0  0  0
  183.3960  178.6420  144.4580 C   0  0  0  0  0  2  0  0  0  0  0  0
  185.6610  178.8240  145.2560 C   0  0  0  0  0  2  0  0  0  0  0  0
  184.2430  179.0570  143.3470 N   0  0  0  0  0  0  0  0  0  0  0  0
  188.4100  178.3290  136.5520 C   0  0  2  0  0  3  0  0  0  0  0  0
  187.2260  179.1830  136.9810 C   0  0  0  0  0  1  0  0  0  0  0  0
  189.4060  177.5310  134.7380 C   0  0  0  0  0  1  0  0  0  0  0  0
  188.1500  177.8140  135.2780 O   0  0  0  0  0  0  0  0  0  0  0  0
  190.0280  176.3750  139.4720 O   0  0  0  0  0  0  0  0  0  0  0  0
  188.8530  178.0870  140.7340 C   0  0  0  0  0  2  0  0  0  0  0  0
  191.0450  176.6800  142.2480 C   0  0  1  0  0  3  0  0  0  0  0  0
  189.6130  178.7450  141.8910 C   0  0  0  0  0  2  0  0  0  0  0  0
  189.1460  176.5860  140.5700 C   0  0  2  0  0  3  0  0  0  0  0  0
  189.7440  175.9730  141.8370 C   0  0  0  0  0  2  0  0  0  0  0  0
  191.0340  178.1960  141.9930 C   0  0  0  0  0  2  0  0  0  0  0  0
  191.3710  176.3780  143.6720 C   0  0  0  0  0  0  0  0  0  0  0  0
  190.9430  177.2400  144.6710 O   0  0  0  0  0  1  0  0  0  0  0  0
  192.0490  175.3590  143.9730 O   0  0  0  0  0  0  0  0  0  0  0  0
  2  9  2  0  0  0  0
  2  6  1  0  0  0  0
  3 14  1  0  0  0  0
  4 15  1  0  0  0  0
  5  3  2  0  0  0  0
  5 13  1  0  0  0  0
  6 11  1  6  0  0  0
  6  3  1  0  0  0  0
  7 23  1  1  0  0  0
  7  4  1  0  0  0  0
  8 10  1  0  0  0  0
  8  2  1  0  0  0  0
  9  5  1  0  0  0  0
 10 19  1  6  0  0  0
 10 17  1  0  0  0  0
 12 13  1  0  0  0  0
 12 16  2  0  0  0  0
 13  1  2  0  0  0  0
 15 37  1  6  0  0  0
 15 16  1  0  0  0  0
 16 41  1  0  0  0  0
 18  7  1  0  0  0  0
 18 17  1  0  0  0  0
 20 19  2  0  0  0  0
 21 19  1  0  0  0  0
 22 26  1  0  0  0  0
 23 22  2  0  0  0  0
 25 23  1  0  0  0  0
 25 24  1  0  0  0  0
 26 27  1  0  0  0  0
 27 28  1  0  0  0  0
 28 29  1  0  0  0  0
 29 30  1  0  0  0  0
 30 31  1  0  0  0  0
 31 36  1  0  0  0  0
 32 35  1  0  0  0  0
 34 33  1  0  0  0  0
 35 33  1  0  0  0  0
 36 32  1  0  0  0  0
 36 34  1  0  0  0  0
 37 38  1  1  0  0  0
 39 40  1  0  0  0  0
 40 37  1  0  0  0  0
 42 44  1  0  0  0  0
 43 48  1  1  0  0  0
 44 47  1  0  0  0  0
 45 41  1  6  0  0  0
 45 42  1  0  0  0  0
 45 46  1  0  0  0  0
 46 43  1  0  0  0  0
 47 43  1  0  0  0  0
 48 50  2  0  0  0  0
 48 49  1  0  0  0  0
M  END
>  <MODEL>
7

>  <REMARK>
 VINA RESULT:      -4.4      3.259      8.743
  Name = 
  15 active torsions:
  status: ('A' for Active; 'I' for Inactive)
    1  A    between atoms: N_1  and  C_5
    2  A    between atoms: N_1  and  C_15
    3  A    between atoms: C_2  and  C_25
    4  A    between atoms: C_5  and  C_26
    5  A    between atoms: C_7  and  C_30
    6  A    between atoms: C_7  and  C_48
    7  A    between atoms: C_8  and  C_17
    8  A    between atoms: C_15  and  C_48
    9  A    between atoms: C_19  and  C_47
   10  A    between atoms: C_22  and  O_46
   11  A    between atoms: C_29  and  C_39
   12  A    between atoms: C_29  and  O_45
   13  A    between atoms: C_30  and  N_44
   14  A    between atoms: C_35  and  C_47
   15  A    between atoms: C_41  and  O_46
                            x       y       z     vdW  Elec       q    Type
                         _______ _______ _______ _____ _____    ______ ____

>  <TORSDO>
F 15

$$$$
=
 OpenBabel11042413233D

 50 53  0  0  1  0  0  0  0  0999 V2000
  192.0120  176.9140  137.3330 O   0  0  0  0  0  0  0  0  0  0  0  0
  188.8560  173.6940  136.4990 C   0  0  0  0  0  0  0  0  0  0  0  0
  191.0100  174.1080  137.1560 C   0  0  0  0  0  0  0  0  0  0  0  0
  186.6520  177.1050  137.8250 C   0  0  0  0  0  2  0  0  0  0  0  0
  190.3230  175.2350  137.0250 C   0  0  0  0  0  0  0  0  0  0  0  0
  190.1210  172.9520  136.8110 C   0  0  2  0  0  3  0  0  0  0  0  0
  185.3960  176.7810  137.0850 C   0  0  1  0  0  3  0  0  0  0  0  0
  187.6140  173.0820  135.9270 C   0  0  0  0  0  2  0  0  0  0  0  0
  188.9920  174.9710  136.6060 N   0  0  0  0  0  0  0  0  0  0  0  0
  186.4560  172.9970  136.9290 C   0  0  1  0  0  3  0  0  0  0  0  0
  190.5970  172.3240  135.6600 O   0  0  0  0  0  1  0  0  0  0  0  0
  189.8040  177.6520  137.1410 N   0  0  0  0  0  0  0  0  0  0  0  0
  190.7920  176.6260  137.2100 C   0  0  0  0  0  0  0  0  0  0  0  0
  192.4350  173.9910  137.5780 C   0  0  0  0  0  1  0  0  0  0  0  0
  187.5150  178.0990  137.6010 C   0  0  1  0  0  3  0  0  0  0  0  0
  188.8730  177.7220  138.0410 C   0  0  0  0  0  0  0  0  0  0  0  0
  186.0070  174.3370  137.5240 C   0  0  0  0  0  2  0  0  0  0  0  0
  185.5070  175.3630  136.4940 C   0  0  0  0  0  2  0  0  0  0  0  0
  185.3030  172.2420  136.3510 C   0  0  0  0  0  0  0  0  0  0  0  0
  185.2890  171.9720  135.1220 O   0  0  0  0  0  0  0  0  0  0  0  0
  184.2630  171.8090  137.1640 O   0  0  0  0  0  1  0  0  0  0  0  0
  184.2190  177.8670  138.9200 C   0  0  0  0  0  3  0  0  0  0  0  0
  184.1840  176.9360  137.9590 C   0  0  0  0  0  0  0  0  0  0  0  0
  182.8330  175.1100  138.6590 O   0  0  0  0  0  1  0  0  0  0  0  0
  182.9480  176.1170  137.6990 C   0  0  0  0  0  2  0  0  0  0  0  0
  183.0640  178.1490  139.8290 C   0  0  0  0  0  2  0  0  0  0  0  0
  182.4830  179.4390  139.4970 N   0  0  0  0  0  2  0  0  0  0  0  0
  181.0390  179.2630  139.4430 C   0  0  0  0  0  2  0  0  0  0  0  0
  180.3480  180.6050  139.2580 C   0  0  0  0  0  2  0  0  0  0  0  0
  181.1080  181.4540  138.2520 C   0  0  0  0  0  2  0  0  0  0  0  0
  180.3730  181.4670  136.9220 C   0  0  0  0  0  2  0  0  0  0  0  0
  180.4800  183.1970  135.3520 C   0  0  0  0  0  2  0  0  0  0  0  0
  180.9260  184.9670  136.9010 C   0  0  0  0  0  2  0  0  0  0  0  0
  180.4820  183.7050  137.6120 C   0  0  0  0  0  2  0  0  0  0  0  0
  180.7880  184.6730  135.4290 C   0  0  0  0  0  2  0  0  0  0  0  0
  179.8950  182.8080  136.6260 N   0  0  0  0  0  0  0  0  0  0  0  0
  187.2920  179.1260  136.5110 C   0  0  2  0  0  3  0  0  0  0  0  0
  186.4240  180.2710  137.0130 C   0  0  0  0  0  1  0  0  0  0  0  0
  187.7090  178.0910  134.5940 C   0  0  0  0  0  1  0  0  0  0  0  0
  186.6660  178.5440  135.4040 O   0  0  0  0  0  0  0  0  0  0  0  0
  189.0970  177.1600  139.3100 O   0  0  0  0  0  0  0  0  0  0  0  0
  190.8010  176.8690  141.0180 C   0  0  0  0  0  2  0  0  0  0  0  0
  188.0120  177.2920  142.0740 C   0  0  1  0  0  3  0  0  0  0  0  0
  190.3410  176.3310  142.3770 C   0  0  0  0  0  2  0  0  0  0  0  0
  189.7970  177.8290  140.3550 C   0  0  2  0  0  3  0  0  0  0  0  0
  188.7980  178.4020  141.3600 C   0  0  0  0  0  2  0  0  0  0  0  0
  188.8440  176.0330  142.3680 C   0  0  0  0  0  2  0  0  0  0  0  0
  187.3820  177.8210  143.3180 C   0  0  0  0  0  0  0  0  0  0  0  0
  188.1230  177.8860  144.4890 O   0  0  0  0  0  1  0  0  0  0  0  0
  186.1760  178.1900  143.3210 O   0  0  0  0  0  0  0  0  0  0  0  0
  2  9  2  0  0  0  0
  2  6  1  0  0  0  0
  3 14  1  0  0  0  0
  5  3  2  0  0  0  0
  5 13  1  0  0  0  0
  6 11  1  6  0  0  0
  6  3  1  0  0  0  0
  7  4  1  0  0  0  0
  7 23  1  1  0  0  0
  8  2  1  0  0  0  0
  8 10  1  0  0  0  0
  9  5  1  0  0  0  0
 10 19  1  6  0  0  0
 10 17  1  0  0  0  0
 12 13  1  0  0  0  0
 12 16  2  0  0  0  0
 13  1  2  0  0  0  0
 15 37  1  6  0  0  0
 15  4  1  0  0  0  0
 15 16  1  0  0  0  0
 16 41  1  0  0  0  0
 18  7  1  0  0  0  0
 18 17  1  0  0  0  0
 19 21  1  0  0  0  0
 20 19  2  0  0  0  0
 22 26  1  0  0  0  0
 23 22  2  0  0  0  0
 25 23  1  0  0  0  0
 25 24  1  0  0  0  0
 27 26  1  0  0  0  0
 28 27  1  0  0  0  0
 29 28  1  0  0  0  0
 30 29  1  0  0  0  0
 31 30  1  0  0  0  0
 32 35  1  0  0  0  0
 32 36  1  0  0  0  0
 33 34  1  0  0  0  0
 35 33  1  0  0  0  0
 36 31  1  0  0  0  0
 36 34  1  0  0  0  0
 37 38  1  1  0  0  0
 39 40  1  0  0  0  0
 40 37  1  0  0  0  0
 42 44  1  0  0  0  0
 43 47  1  0  0  0  0
 43 48  1  1  0  0  0
 45 41  1  6  0  0  0
 45 42  1  0  0  0  0
 45 46  1  0  0  0  0
 46 43  1  0  0  0  0
 47 44  1  0  0  0  0
 48 50  2  0  0  0  0
 48 49  1  0  0  0  0
M  END
>  <MODEL>
8

>  <REMARK>
 VINA RESULT:      -4.3      3.272      9.229
  Name = 
  15 active torsions:
  status: ('A' for Active; 'I' for Inactive)
    1  A    between atoms: N_1  and  C_5
    2  A    between atoms: N_1  and  C_15
    3  A    between atoms: C_2  and  C_25
    4  A    between atoms: C_5  and  C_26
    5  A    between atoms: C_7  and  C_30
    6  A    between atoms: C_7  and  C_48
    7  A    between atoms: C_8  and  C_17
    8  A    between atoms: C_15  and  C_48
    9  A    between atoms: C_19  and  C_47
   10  A    between atoms: C_22  and  O_46
   11  A    between atoms: C_29  and  C_39
   12  A    between atoms: C_29  and  O_45
   13  A    between atoms: C_30  and  N_44
   14  A    between atoms: C_35  and  C_47
   15  A    between atoms: C_41  and  O_46
                            x       y       z     vdW  Elec       q    Type
                         _______ _______ _______ _____ _____    ______ ____

>  <TORSDO>
F 15

$$$$
=
 OpenBabel11042413233D

 50 53  0  0  1  0  0  0  0  0999 V2000
  192.4990  177.4570  137.9540 O   0  0  0  0  0  0  0  0  0  0  0  0
  190.5240  173.5610  136.5610 C   0  0  0  0  0  0  0  0  0  0  0  0
  192.3730  174.5060  137.5260 C   0  0  0  0  0  0  0  0  0  0  0  0
  187.2910  176.1080  137.7080 C   0  0  0  0  0  2  0  0  0  0  0  0
  191.4130  175.4040  137.3470 C   0  0  0  0  0  0  0  0  0  0  0  0
  191.9010  173.1800  137.0140 C   0  0  2  0  0  3  0  0  0  0  0  0
  186.2790  175.5050  136.7900 C   0  0  1  0  0  3  0  0  0  0  0  0
  189.5880  172.6740  135.7990 C   0  0  0  0  0  2  0  0  0  0  0  0
  190.2740  174.8130  136.7380 N   0  0  0  0  0  0  0  0  0  0  0  0
  188.3910  172.1910  136.6260 C   0  0  1  0  0  3  0  0  0  0  0  0
  192.6730  172.8020  135.9150 O   0  0  0  0  0  1  0  0  0  0  0  0
  190.2120  177.5640  137.4890 N   0  0  0  0  0  0  0  0  0  0  0  0
  191.4370  176.8510  137.6520 C   0  0  0  0  0  0  0  0  0  0  0  0
  193.7100  174.7590  138.1350 C   0  0  0  0  0  1  0  0  0  0  0  0
  187.8530  177.3170  137.6470 C   0  0  1  0  0  3  0  0  0  0  0  0
  189.1980  177.3000  138.2540 C   0  0  0  0  0  0  0  0  0  0  0  0
  187.5080  173.3010  137.2080 C   0  0  0  0  0  2  0  0  0  0  0  0
  186.8630  174.2250  136.1620 C   0  0  0  0  0  2  0  0  0  0  0  0
  187.5820  171.1920  135.8640 C   0  0  0  0  0  0  0  0  0  0  0  0
  188.1380  170.1640  135.3990 O   0  0  0  0  0  0  0  0  0  0  0  0
  186.2150  171.3740  135.6930 O   0  0  0  0  0  1  0  0  0  0  0  0
  184.2320  176.3040  137.8400 C   0  0  0  0  0  3  0  0  0  0  0  0
  184.9780  175.2470  137.4930 C   0  0  0  0  0  0  0  0  0  0  0  0
  183.6700  173.4380  136.6780 O   0  0  0  0  0  1  0  0  0  0  0  0
  184.5030  173.8370  137.7230 C   0  0  0  0  0  2  0  0  0  0  0  0
  182.8980  176.1810  138.5070 C   0  0  0  0  0  2  0  0  0  0  0  0
  181.8430  176.2570  137.5110 N   0  0  0  0  0  2  0  0  0  0  0  0
  180.6790  176.8430  138.1570 C   0  0  0  0  0  2  0  0  0  0  0  0
  181.0750  177.5010  139.4690 C   0  0  0  0  0  2  0  0  0  0  0  0
  180.8480  179.0020  139.3950 C   0  0  0  0  0  2  0  0  0  0  0  0
  180.8140  179.5930  140.7940 C   0  0  0  0  0  2  0  0  0  0  0  0
  179.7650  178.5620  142.6120 C   0  0  0  0  0  2  0  0  0  0  0  0
  181.6440  178.6130  144.0960 C   0  0  0  0  0  2  0  0  0  0  0  0
  182.0510  178.9330  142.6720 C   0  0  0  0  0  2  0  0  0  0  0  0
  180.1850  178.2350  144.0250 C   0  0  0  0  0  2  0  0  0  0  0  0
  180.9630  178.5410  141.7870 N   0  0  0  0  0  0  0  0  0  0  0  0
  187.4780  178.3240  136.5790 C   0  0  2  0  0  3  0  0  0  0  0  0
  186.3070  179.1840  137.0320 C   0  0  0  0  0  1  0  0  0  0  0  0
  188.2670  177.7260  134.5940 C   0  0  0  0  0  1  0  0  0  0  0  0
  187.1230  177.6750  135.3920 O   0  0  0  0  0  0  0  0  0  0  0  0
  189.4190  176.7250  139.5180 O   0  0  0  0  0  0  0  0  0  0  0  0
  190.8560  176.4050  141.4520 C   0  0  0  0  0  2  0  0  0  0  0  0
  188.0320  177.2330  142.0970 C   0  0  1  0  0  3  0  0  0  0  0  0
  190.1720  176.0490  142.7770 C   0  0  0  0  0  2  0  0  0  0  0  0
  190.0640  177.4050  140.5910 C   0  0  2  0  0  3  0  0  0  0  0  0
  189.0290  178.1770  141.4090 C   0  0  0  0  0  2  0  0  0  0  0  0
  188.6610  175.9210  142.5940 C   0  0  0  0  0  2  0  0  0  0  0  0
  187.3250  177.9430  143.2030 C   0  0  0  0  0  0  0  0  0  0  0  0
  186.0280  178.3940  143.0100 O   0  0  0  0  0  0  0  0  0  0  0  0
  187.9040  178.1540  144.3030 O   0  0  0  0  0  1  0  0  0  0  0  0
  2  9  2  0  0  0  0
  2  6  1  0  0  0  0
  3 14  1  0  0  0  0
  5  3  2  0  0  0  0
  5 13  1  0  0  0  0
  6 11  1  6  0  0  0
  6  3  1  0  0  0  0
  7 23  1  1  0  0  0
  7  4  1  0  0  0  0
  8  2  1  0  0  0  0
  8 10  1  0  0  0  0
  9  5  1  0  0  0  0
 10 19  1  6  0  0  0
 10 17  1  0  0  0  0
 12 13  1  0  0  0  0
 12 16  2  0  0  0  0
 13  1  2  0  0  0  0
 15 37  1  6  0  0  0
 15  4  1  0  0  0  0
 15 16  1  0  0  0  0
 16 41  1  0  0  0  0
 18  7  1  0  0  0  0
 18 17  1  0  0  0  0
 20 19  2  0  0  0  0
 21 19  1  0  0  0  0
 22 26  1  0  0  0  0
 23 25  1  0  0  0  0
 23 22  2  0  0  0  0
 24 25  1  0  0  0  0
 27 28  1  0  0  0  0
 27 26  1  0  0  0  0
 28 29  1  0  0  0  0
 30 29  1  0  0  0  0
 30 31  1  0  0  0  0
 31 36  1  0  0  0  0
 32 35  1  0  0  0  0
 34 33  1  0  0  0  0
 35 33  1  0  0  0  0
 36 32  1  0  0  0  0
 36 34  1  0  0  0  0
 37 38  1  1  0  0  0
 39 40  1  0  0  0  0
 40 37  1  0  0  0  0
 42 44  1  0  0  0  0
 43 47  1  0  0  0  0
 43 48  1  1  0  0  0
 45 41  1  6  0  0  0
 45 46  1  0  0  0  0
 45 42  1  0  0  0  0
 46 43  1  0  0  0  0
 47 44  1  0  0  0  0
 48 50  1  0  0  0  0
 49 48  2  0  0  0  0
M  END
>  <MODEL>
9

>  <REMARK>
 VINA RESULT:      -4.3      2.900      8.853
  Name = 
  15 active torsions:
  status: ('A' for Active; 'I' for Inactive)
    1  A    between atoms: N_1  and  C_5
    2  A    between atoms: N_1  and  C_15
    3  A    between atoms: C_2  and  C_25
    4  A    between atoms: C_5  and  C_26
    5  A    between atoms: C_7  and  C_30
    6  A    between atoms: C_7  and  C_48
    7  A    between atoms: C_8  and  C_17
    8  A    between atoms: C_15  and  C_48
    9  A    between atoms: C_19  and  C_47
   10  A    between atoms: C_22  and  O_46
   11  A    between atoms: C_29  and  C_39
   12  A    between atoms: C_29  and  O_45
   13  A    between atoms: C_30  and  N_44
   14  A    between atoms: C_35  and  C_47
   15  A    between atoms: C_41  and  O_46
                            x       y       z     vdW  Elec       q    Type
                         _______ _______ _______ _____ _____    ______ ____

>  <TORSDO>
F 15

$$$$
