=
 OpenBabel11032420263D

 39 42  0  0  1  0  0  0  0  0999 V2000
  189.7360  177.5240  140.0010 C   0  0  1  0  0  3  0  0  0  0  0  0
  188.0690  177.4040  143.9390 C   0  0  0  0  0  0  0  0  0  0  0  0
  190.0010  177.3400  142.4840 C   0  0  0  0  0  3  0  0  0  0  0  0
  190.0020  177.1970  145.0020 C   0  0  0  0  0  0  0  0  0  0  0  0
  189.1400  177.4700  141.3780 C   0  0  0  0  0  0  0  0  0  0  0  0
  191.4560  177.0730  145.3120 C   0  0  0  0  0  1  0  0  0  0  0  0
  188.9470  177.2260  145.9070 C   0  0  0  0  0  0  0  0  0  0  0  0
  187.7670  177.3540  145.2520 N   0  0  0  0  0  0  0  0  0  0  0  0
  187.1900  177.5410  142.8640 C   0  0  0  0  0  3  0  0  0  0  0  0
  189.0820  177.1430  147.3930 C   0  0  0  0  0  1  0  0  0  0  0  0
  189.4270  177.3110  143.7530 C   0  0  0  0  0  0  0  0  0  0  0  0
  187.7420  177.5760  141.5710 C   0  0  0  0  0  3  0  0  0  0  0  0
  186.4340  177.4000  145.8470 C   0  0  0  0  0  2  0  0  0  0  0  0
  185.8980  178.8280  145.8590 C   0  0  0  0  0  2  0  0  0  0  0  0
  183.9190  179.2550  144.3960 C   0  0  0  0  0  1  0  0  0  0  0  0
  184.3790  178.8530  145.7850 C   0  0  0  0  0  2  0  0  0  0  0  0
  189.2970  178.7230  139.3000 N   0  0  0  0  0  2  0  0  0  0  0  0
  189.0130  178.3460  137.9230 C   0  0  0  0  0  2  0  0  0  0  0  0
  187.5360  178.5550  137.6100 C   0  0  0  0  0  2  0  0  0  0  0  0
  186.7580  177.2470  137.6910 C   0  0  0  0  0  2  0  0  0  0  0  0
  185.5520  177.2500  136.7590 C   0  0  0  0  0  2  0  0  0  0  0  0
  183.9700  175.8530  137.8510 O   0  0  0  0  0  0  0  0  0  0  0  0
  184.2730  177.0270  137.5080 C   0  0  0  0  0  0  0  0  0  0  0  0
  183.3250  178.0820  137.7210 N   0  0  0  0  0  0  0  0  0  0  0  0
  183.2670  178.9240  138.7130 C   0  0  0  0  0  3  0  0  0  0  0  0
  185.1410  179.5510  140.0510 O   0  0  0  0  0  0  0  0  0  0  0  0
  183.7080  177.9270  141.0190 C   0  0  0  0  0  1  0  0  0  0  0  0
  184.0850  178.8760  139.9370 C   0  0  0  0  0  0  0  0  0  0  0  0
  191.2600  177.4870  140.0510 C   0  0  0  0  0  2  0  0  0  0  0  0
  190.2800  173.1390  136.1490 C   0  0  0  0  0  3  0  0  0  0  0  0
  193.1450  176.6810  138.7580 N   0  0  0  0  0  0  0  0  0  0  0  0
  190.9110  175.7200  138.4310 N   0  0  0  0  0  2  0  0  0  0  0  0
  193.9670  176.0400  137.9340 N   0  0  0  0  0  2  0  0  0  0  0  0
  191.8050  176.5780  139.0010 C   0  0  0  0  0  0  0  0  0  0  0  0
  189.8290  174.0260  137.1150 C   0  0  0  0  0  2  0  0  0  0  0  0
  191.6030  173.2950  135.9350 N   0  0  0  0  0  0  0  0  0  0  0  0
  191.9900  174.2780  136.7610 C   0  0  0  0  0  0  0  0  0  0  0  0
  193.5700  174.8190  136.8660 S   0  0  0  0  0  0  0  0  0  0  0  0
  190.9430  174.7450  137.4920 C   0  0  0  0  0  0  0  0  0  0  0  0
  1 29  1  1  0  0  0
  1  5  1  0  0  0  0
  2  8  1  0  0  0  0
  3 11  2  0  0  0  0
  4  6  1  0  0  0  0
  4  7  2  0  0  0  0
  5 12  2  0  0  0  0
  5  3  1  0  0  0  0
  7 10  1  0  0  0  0
  8 13  1  0  0  0  0
  8  7  1  0  0  0  0
  9  2  2  0  0  0  0
 11  2  1  0  0  0  0
 11  4  1  0  0  0  0
 12  9  1  0  0  0  0
 13 14  1  0  0  0  0
 15 16  1  0  0  0  0
 16 14  1  0  0  0  0
 17  1  1  0  0  0  0
 18 17  1  0  0  0  0
 19 20  1  0  0  0  0
 19 18  1  0  0  0  0
 21 23  1  0  0  0  0
 21 20  1  0  0  0  0
 23 24  1  0  0  0  0
 23 22  2  0  0  0  0
 24 25  2  0  0  0  0
 25 28  1  0  0  0  0
 28 26  2  0  0  0  0
 28 27  1  0  0  0  0
 30 35  1  0  0  0  0
 31 34  2  0  0  0  0
 32 34  1  0  0  0  0
 33 31  1  0  0  0  0
 34 29  1  0  0  0  0
 35 39  1  0  0  0  0
 36 30  2  0  0  0  0
 36 37  1  0  0  0  0
 37 38  1  0  0  0  0
 37 39  2  0  0  0  0
 38 33  1  0  0  0  0
 39 32  1  0  0  0  0
M  END
>  <MODEL>
1

>  <REMARK>
 VINA RESULT:      -8.0      0.000      0.000
  Name = 
  14 active torsions:
  status: ('A' for Active; 'I' for Inactive)
    1  A    between atoms: N_1  and  C_11
    2  A    between atoms: N_1  and  C_24
    3  A    between atoms: C_3  and  C_4
    4  A    between atoms: C_3  and  N_29
    5  A    between atoms: C_4  and  C_22
    6  A    between atoms: N_6  and  C_33
    7  A    between atoms: C_7  and  C_24
    8  A    between atoms: C_7  and  C_34
    9  A    between atoms: C_11  and  C_23
   10  A    between atoms: C_11  and  C_39
   11  A    between atoms: C_12  and  C_39
   12  A    between atoms: C_15  and  C_27
   13  A    between atoms: C_33  and  C_37
   14  A    between atoms: C_34  and  C_37
                            x       y       z     vdW  Elec       q    Type
                         _______ _______ _______ _____ _____    ______ ____

>  <TORSDO>
F 14

$$$$
=
 OpenBabel11032420263D

 39 42  0  0  1  0  0  0  0  0999 V2000
  184.7730  179.1440  140.0650 C   0  0  1  0  0  3  0  0  0  0  0  0
  187.2290  177.9660  143.3640 C   0  0  0  0  0  0  0  0  0  0  0  0
  185.1100  178.7720  142.5180 C   0  0  0  0  0  3  0  0  0  0  0  0
  185.6930  178.2980  144.9250 C   0  0  0  0  0  0  0  0  0  0  0  0
  185.6460  178.7410  141.2170 C   0  0  0  0  0  0  0  0  0  0  0  0
  184.4240  178.6360  145.6310 C   0  0  0  0  0  1  0  0  0  0  0  0
  186.8760  177.8360  145.4930 C   0  0  0  0  0  0  0  0  0  0  0  0
  187.8120  177.6340  144.5330 N   0  0  0  0  0  0  0  0  0  0  0  0
  187.7880  177.9180  142.0860 C   0  0  0  0  0  3  0  0  0  0  0  0
  187.0930  177.5830  146.9490 C   0  0  0  0  0  1  0  0  0  0  0  0
  185.9340  178.3750  143.5690 C   0  0  0  0  0  0  0  0  0  0  0  0
  186.9790  178.3100  141.0050 C   0  0  0  0  0  3  0  0  0  0  0  0
  189.1840  177.1750  144.7300 C   0  0  0  0  0  2  0  0  0  0  0  0
  190.1370  178.3610  144.8450 C   0  0  0  0  0  2  0  0  0  0  0  0
  191.4500  177.0740  143.1550 C   0  0  0  0  0  1  0  0  0  0  0  0
  191.0550  178.4570  143.6350 C   0  0  0  0  0  2  0  0  0  0  0  0
  185.5150  179.0830  138.8140 N   0  0  0  0  0  2  0  0  0  0  0  0
  184.9360  178.0150  138.0120 C   0  0  0  0  0  2  0  0  0  0  0  0
  185.9270  177.5520  136.9510 C   0  0  0  0  0  2  0  0  0  0  0  0
  187.1080  176.8160  137.5730 C   0  0  0  0  0  2  0  0  0  0  0  0
  188.4360  177.2920  136.9960 C   0  0  0  0  0  2  0  0  0  0  0  0
  189.0890  179.5450  137.3750 O   0  0  0  0  0  0  0  0  0  0  0  0
  189.0480  178.3720  137.8350 C   0  0  0  0  0  0  0  0  0  0  0  0
  189.7100  178.0860  139.0750 N   0  0  0  0  0  0  0  0  0  0  0  0
  190.6430  177.2070  139.3060 C   0  0  0  0  0  3  0  0  0  0  0  0
  190.6280  175.0310  138.3250 O   0  0  0  0  0  0  0  0  0  0  0  0
  192.2930  176.5010  137.4940 C   0  0  0  0  0  1  0  0  0  0  0  0
  191.1240  176.1870  138.3580 C   0  0  0  0  0  0  0  0  0  0  0  0
  183.5320  178.2620  139.9710 C   0  0  0  0  0  2  0  0  0  0  0  0
  179.8390  182.5090  138.1200 C   0  0  0  0  0  3  0  0  0  0  0  0
  181.6330  178.8010  141.3760 N   0  0  0  0  0  0  0  0  0  0  0  0
  181.9820  179.9800  139.2530 N   0  0  0  0  0  2  0  0  0  0  0  0
  180.5370  179.3120  141.9280 N   0  0  0  0  0  2  0  0  0  0  0  0
  182.2930  179.0580  140.2090 C   0  0  0  0  0  0  0  0  0  0  0  0
  180.9660  181.7190  137.9440 C   0  0  0  0  0  3  0  0  0  0  0  0
  179.2160  182.2020  139.2770 N   0  0  0  0  0  2  0  0  0  0  0  0
  179.9430  181.2210  139.8320 C   0  0  0  0  0  0  0  0  0  0  0  0
  179.5660  180.5190  141.3030 S   0  0  0  0  0  0  0  0  0  0  0  0
  181.0110  180.9030  139.0530 C   0  0  0  0  0  0  0  0  0  0  0  0
  1 29  1  6  0  0  0
  1  5  1  0  0  0  0
  2 11  1  0  0  0  0
  2  8  1  0  0  0  0
  3 11  2  0  0  0  0
  4  7  2  0  0  0  0
  4  6  1  0  0  0  0
  5  3  1  0  0  0  0
  7 10  1  0  0  0  0
  8 13  1  0  0  0  0
  8  7  1  0  0  0  0
  9  2  2  0  0  0  0
 11  4  1  0  0  0  0
 12  5  2  0  0  0  0
 12  9  1  0  0  0  0
 13 14  1  0  0  0  0
 15 16  1  0  0  0  0
 16 14  1  0  0  0  0
 17  1  1  0  0  0  0
 18 17  1  0  0  0  0
 19 20  1  0  0  0  0
 19 18  1  0  0  0  0
 21 20  1  0  0  0  0
 21 23  1  0  0  0  0
 22 23  2  0  0  0  0
 23 24  1  0  0  0  0
 24 25  2  0  0  0  0
 26 28  2  0  0  0  0
 27 28  1  0  0  0  0
 28 25  1  0  0  0  0
 29 34  1  0  0  0  0
 30 36  1  0  0  0  0
 31 33  1  0  0  0  0
 32 34  1  0  0  0  0
 34 31  2  0  0  0  0
 35 30  2  0  0  0  0
 35 39  1  0  0  0  0
 36 37  1  0  0  0  0
 37 38  1  0  0  0  0
 38 33  1  0  0  0  0
 39 32  1  0  0  0  0
 39 37  2  0  0  0  0
M  END
>  <MODEL>
2

>  <REMARK>
 VINA RESULT:      -7.9      3.641      8.002
  Name = 
  14 active torsions:
  status: ('A' for Active; 'I' for Inactive)
    1  A    between atoms: N_1  and  C_11
    2  A    between atoms: N_1  and  C_24
    3  A    between atoms: C_3  and  C_4
    4  A    between atoms: C_3  and  N_29
    5  A    between atoms: C_4  and  C_22
    6  A    between atoms: N_6  and  C_33
    7  A    between atoms: C_7  and  C_24
    8  A    between atoms: C_7  and  C_34
    9  A    between atoms: C_11  and  C_23
   10  A    between atoms: C_11  and  C_39
   11  A    between atoms: C_12  and  C_39
   12  A    between atoms: C_15  and  C_27
   13  A    between atoms: C_33  and  C_37
   14  A    between atoms: C_34  and  C_37
                            x       y       z     vdW  Elec       q    Type
                         _______ _______ _______ _____ _____    ______ ____

>  <TORSDO>
F 14

$$$$
=
 OpenBabel11032420263D

 39 42  0  0  1  0  0  0  0  0999 V2000
  184.8370  179.0720  140.3410 C   0  0  1  0  0  3  0  0  0  0  0  0
  187.4910  177.8820  143.4770 C   0  0  0  0  0  0  0  0  0  0  0  0
  185.3190  178.6720  142.7650 C   0  0  0  0  0  3  0  0  0  0  0  0
  186.0440  178.1760  145.1290 C   0  0  0  0  0  0  0  0  0  0  0  0
  185.7800  178.6650  141.4350 C   0  0  0  0  0  0  0  0  0  0  0  0
  184.8130  178.4890  145.9110 C   0  0  0  0  0  1  0  0  0  0  0  0
  187.2630  177.7220  145.6210 C   0  0  0  0  0  0  0  0  0  0  0  0
  188.1450  177.5430  144.6070 N   0  0  0  0  0  0  0  0  0  0  0  0
  187.9770  177.8580  142.1690 C   0  0  0  0  0  3  0  0  0  0  0  0
  187.5660  177.4540  147.0590 C   0  0  0  0  0  1  0  0  0  0  0  0
  186.2060  178.2730  143.7620 C   0  0  0  0  0  0  0  0  0  0  0  0
  187.1030  178.2530  141.1420 C   0  0  0  0  0  3  0  0  0  0  0  0
  189.5310  177.1000  144.7190 C   0  0  0  0  0  2  0  0  0  0  0  0
  190.4700  178.2940  144.8550 C   0  0  0  0  0  2  0  0  0  0  0  0
  191.5070  177.0370  142.9640 C   0  0  0  0  0  1  0  0  0  0  0  0
  191.4560  178.3630  143.6990 C   0  0  0  0  0  2  0  0  0  0  0  0
  185.5200  179.0850  139.0550 N   0  0  0  0  0  2  0  0  0  0  0  0
  184.9850  177.9890  138.2620 C   0  0  0  0  0  2  0  0  0  0  0  0
  185.8990  177.6950  137.0780 C   0  0  0  0  0  2  0  0  0  0  0  0
  186.7230  176.4330  137.3080 C   0  0  0  0  0  2  0  0  0  0  0  0
  187.0220  175.7090  136.0000 C   0  0  0  0  0  2  0  0  0  0  0  0
  188.7090  174.0460  136.1790 O   0  0  0  0  0  0  0  0  0  0  0  0
  188.4480  175.2530  135.9340 C   0  0  0  0  0  0  0  0  0  0  0  0
  189.5300  176.1750  135.7400 N   0  0  0  0  0  0  0  0  0  0  0  0
  190.4540  176.5230  136.5900 C   0  0  0  0  0  3  0  0  0  0  0  0
  190.9200  175.0300  138.3930 O   0  0  0  0  0  0  0  0  0  0  0  0
  189.9390  177.0970  139.0210 C   0  0  0  0  0  1  0  0  0  0  0  0
  190.5000  176.1550  138.0150 C   0  0  0  0  0  0  0  0  0  0  0  0
  183.6290  178.1420  140.2710 C   0  0  0  0  0  2  0  0  0  0  0  0
  179.4000  179.1780  144.2880 C   0  0  0  0  0  3  0  0  0  0  0  0
  181.8490  179.6730  139.6700 N   0  0  0  0  0  0  0  0  0  0  0  0
  181.8830  178.6120  141.8820 N   0  0  0  0  0  2  0  0  0  0  0  0
  180.7630  180.4380  139.6230 N   0  0  0  0  0  2  0  0  0  0  0  0
  182.3780  178.8670  140.6380 C   0  0  0  0  0  0  0  0  0  0  0  0
  180.5750  178.5530  143.8970 C   0  0  0  0  0  2  0  0  0  0  0  0
  178.9310  179.9740  143.3050 N   0  0  0  0  0  0  0  0  0  0  0  0
  179.8060  179.8570  142.2940 C   0  0  0  0  0  0  0  0  0  0  0  0
  179.6330  180.6540  140.8340 S   0  0  0  0  0  0  0  0  0  0  0  0
  180.8140  179.0030  142.6170 C   0  0  0  0  0  0  0  0  0  0  0  0
  1 29  1  6  0  0  0
  1  5  1  0  0  0  0
  2 11  1  0  0  0  0
  2  8  1  0  0  0  0
  3 11  2  0  0  0  0
  4  7  2  0  0  0  0
  4  6  1  0  0  0  0
  5  3  1  0  0  0  0
  7 10  1  0  0  0  0
  8 13  1  0  0  0  0
  8  7  1  0  0  0  0
  9  2  2  0  0  0  0
 11  4  1  0  0  0  0
 12  5  2  0  0  0  0
 12  9  1  0  0  0  0
 13 14  1  0  0  0  0
 15 16  1  0  0  0  0
 16 14  1  0  0  0  0
 17  1  1  0  0  0  0
 18 17  1  0  0  0  0
 19 20  1  0  0  0  0
 19 18  1  0  0  0  0
 21 20  1  0  0  0  0
 23 21  1  0  0  0  0
 23 22  2  0  0  0  0
 24 23  1  0  0  0  0
 24 25  2  0  0  0  0
 25 28  1  0  0  0  0
 28 26  2  0  0  0  0
 28 27  1  0  0  0  0
 29 34  1  0  0  0  0
 31 34  2  0  0  0  0
 32 39  1  0  0  0  0
 33 31  1  0  0  0  0
 33 38  1  0  0  0  0
 34 32  1  0  0  0  0
 35 30  1  0  0  0  0
 36 30  2  0  0  0  0
 37 39  2  0  0  0  0
 37 36  1  0  0  0  0
 38 37  1  0  0  0  0
 39 35  1  0  0  0  0
M  END
>  <MODEL>
3

>  <REMARK>
 VINA RESULT:      -7.6      3.773      7.969
  Name = 
  14 active torsions:
  status: ('A' for Active; 'I' for Inactive)
    1  A    between atoms: N_1  and  C_11
    2  A    between atoms: N_1  and  C_24
    3  A    between atoms: C_3  and  C_4
    4  A    between atoms: C_3  and  N_29
    5  A    between atoms: C_4  and  C_22
    6  A    between atoms: N_6  and  C_33
    7  A    between atoms: C_7  and  C_24
    8  A    between atoms: C_7  and  C_34
    9  A    between atoms: C_11  and  C_23
   10  A    between atoms: C_11  and  C_39
   11  A    between atoms: C_12  and  C_39
   12  A    between atoms: C_15  and  C_27
   13  A    between atoms: C_33  and  C_37
   14  A    between atoms: C_34  and  C_37
                            x       y       z     vdW  Elec       q    Type
                         _______ _______ _______ _____ _____    ______ ____

>  <TORSDO>
F 14

$$$$
=
 OpenBabel11032420263D

 39 42  0  0  1  0  0  0  0  0999 V2000
  188.0640  177.6310  141.4550 C   0  0  1  0  0  3  0  0  0  0  0  0
  191.0300  176.7300  138.5070 C   0  0  0  0  0  0  0  0  0  0  0  0
  188.7130  177.0970  139.0960 C   0  0  0  0  0  3  0  0  0  0  0  0
  189.6220  176.5700  136.8040 C   0  0  0  0  0  0  0  0  0  0  0  0
  189.1110  177.3030  140.4310 C   0  0  0  0  0  0  0  0  0  0  0  0
  188.3860  176.5560  135.9690 C   0  0  0  0  0  1  0  0  0  0  0  0
  190.9270  176.3470  136.3810 C   0  0  0  0  0  0  0  0  0  0  0  0
  191.7850  176.4470  137.4270 N   0  0  0  0  0  0  0  0  0  0  0  0
  191.4580  176.9360  139.8190 C   0  0  0  0  0  3  0  0  0  0  0  0
  191.3410  176.0500  134.9770 C   0  0  0  0  0  1  0  0  0  0  0  0
  189.7040  176.8120  138.1600 C   0  0  0  0  0  0  0  0  0  0  0  0
  190.4800  177.2280  140.7860 C   0  0  0  0  0  3  0  0  0  0  0  0
  193.2330  176.2580  137.3940 C   0  0  0  0  0  2  0  0  0  0  0  0
  193.5900  174.7910  137.6120 C   0  0  0  0  0  2  0  0  0  0  0  0
  195.7120  173.4760  137.6590 C   0  0  0  0  0  1  0  0  0  0  0  0
  194.9540  174.6410  138.2680 C   0  0  0  0  0  2  0  0  0  0  0  0
  188.6180  177.5400  142.8000 N   0  0  0  0  0  2  0  0  0  0  0  0
  187.8620  176.5240  143.5170 C   0  0  0  0  0  2  0  0  0  0  0  0
  187.0800  177.1550  144.6630 C   0  0  0  0  0  2  0  0  0  0  0  0
  188.0080  177.8010  145.6850 C   0  0  0  0  0  2  0  0  0  0  0  0
  188.4420  176.8080  146.7580 C   0  0  0  0  0  2  0  0  0  0  0  0
  189.5760  178.4360  148.0640 O   0  0  0  0  0  0  0  0  0  0  0  0
  189.6340  177.3020  147.5190 C   0  0  0  0  0  0  0  0  0  0  0  0
  190.8790  176.5880  147.5260 N   0  0  0  0  0  0  0  0  0  0  0  0
  191.7480  176.4760  146.5620 C   0  0  0  0  0  3  0  0  0  0  0  0
  191.3770  178.1540  144.9050 O   0  0  0  0  0  0  0  0  0  0  0  0
  191.5010  175.9330  144.0830 C   0  0  0  0  0  1  0  0  0  0  0  0
  191.5670  176.9390  145.1760 C   0  0  0  0  0  0  0  0  0  0  0  0
  187.4830  179.0240  141.2330 C   0  0  0  0  0  2  0  0  0  0  0  0
  182.2340  178.8400  143.9720 C   0  0  0  0  0  3  0  0  0  0  0  0
  185.4930  178.8910  139.8560 N   0  0  0  0  0  0  0  0  0  0  0  0
  185.3100  178.9610  142.3020 N   0  0  0  0  0  2  0  0  0  0  0  0
  184.2560  178.8060  139.3770 N   0  0  0  0  0  2  0  0  0  0  0  0
  185.9960  178.9690  141.1230 C   0  0  0  0  0  0  0  0  0  0  0  0
  183.6180  178.9150  144.0070 C   0  0  0  0  0  2  0  0  0  0  0  0
  181.7890  178.7840  142.6990 N   0  0  0  0  0  0  0  0  0  0  0  0
  182.8860  178.8260  141.9290 C   0  0  0  0  0  0  0  0  0  0  0  0
  182.8370  178.7640  140.2580 S   0  0  0  0  0  0  0  0  0  0  0  0
  184.0130  178.9040  142.6870 C   0  0  0  0  0  0  0  0  0  0  0  0
  1 29  1  6  0  0  0
  1 17  1  0  0  0  0
  2  9  1  0  0  0  0
  3  5  2  0  0  0  0
  4 11  1  0  0  0  0
  5 12  1  0  0  0  0
  5  1  1  0  0  0  0
  6  4  1  0  0  0  0
  7  4  2  0  0  0  0
  7  8  1  0  0  0  0
  8  2  1  0  0  0  0
  9 12  2  0  0  0  0
 10  7  1  0  0  0  0
 11  2  2  0  0  0  0
 11  3  1  0  0  0  0
 13  8  1  0  0  0  0
 13 14  1  0  0  0  0
 14 16  1  0  0  0  0
 15 16  1  0  0  0  0
 17 18  1  0  0  0  0
 18 19  1  0  0  0  0
 19 20  1  0  0  0  0
 20 21  1  0  0  0  0
 21 23  1  0  0  0  0
 23 24  1  0  0  0  0
 23 22  2  0  0  0  0
 25 24  2  0  0  0  0
 26 28  2  0  0  0  0
 27 28  1  0  0  0  0
 28 25  1  0  0  0  0
 30 35  1  0  0  0  0
 31 34  2  0  0  0  0
 32 39  1  0  0  0  0
 33 31  1  0  0  0  0
 33 38  1  0  0  0  0
 34 29  1  0  0  0  0
 34 32  1  0  0  0  0
 36 30  2  0  0  0  0
 37 39  2  0  0  0  0
 37 36  1  0  0  0  0
 38 37  1  0  0  0  0
 39 35  1  0  0  0  0
M  END
>  <MODEL>
4

>  <REMARK>
 VINA RESULT:      -7.5      3.502      9.408
  Name = 
  14 active torsions:
  status: ('A' for Active; 'I' for Inactive)
    1  A    between atoms: N_1  and  C_11
    2  A    between atoms: N_1  and  C_24
    3  A    between atoms: C_3  and  C_4
    4  A    between atoms: C_3  and  N_29
    5  A    between atoms: C_4  and  C_22
    6  A    between atoms: N_6  and  C_33
    7  A    between atoms: C_7  and  C_24
    8  A    between atoms: C_7  and  C_34
    9  A    between atoms: C_11  and  C_23
   10  A    between atoms: C_11  and  C_39
   11  A    between atoms: C_12  and  C_39
   12  A    between atoms: C_15  and  C_27
   13  A    between atoms: C_33  and  C_37
   14  A    between atoms: C_34  and  C_37
                            x       y       z     vdW  Elec       q    Type
                         _______ _______ _______ _____ _____    ______ ____

>  <TORSDO>
F 14

$$$$
=
 OpenBabel11032420263D

 39 42  0  0  1  0  0  0  0  0999 V2000
  189.6860  177.7770  140.0480 C   0  0  1  0  0  3  0  0  0  0  0  0
  188.0540  177.5010  143.9920 C   0  0  0  0  0  0  0  0  0  0  0  0
  189.9730  177.4960  142.5190 C   0  0  0  0  0  3  0  0  0  0  0  0
  189.9960  177.2550  145.0290 C   0  0  0  0  0  0  0  0  0  0  0  0
  189.1020  177.6680  141.4270 C   0  0  0  0  0  0  0  0  0  0  0  0
  191.4520  177.1210  145.3220 C   0  0  0  0  0  1  0  0  0  0  0  0
  188.9490  177.2470  145.9440 C   0  0  0  0  0  0  0  0  0  0  0  0
  187.7620  177.3990  145.3050 N   0  0  0  0  0  0  0  0  0  0  0  0
  187.1650  177.6780  142.9310 C   0  0  0  0  0  3  0  0  0  0  0  0
  189.0960  177.1060  147.4240 C   0  0  0  0  0  1  0  0  0  0  0  0
  189.4090  177.4170  143.7910 C   0  0  0  0  0  0  0  0  0  0  0  0
  187.7050  177.7640  141.6360 C   0  0  0  0  0  3  0  0  0  0  0  0
  186.4350  177.4190  145.9130 C   0  0  0  0  0  2  0  0  0  0  0  0
  185.8430  178.8250  145.8680 C   0  0  0  0  0  2  0  0  0  0  0  0
  184.3560  179.7480  144.0880 C   0  0  0  0  0  1  0  0  0  0  0  0
  184.4390  178.8200  145.2850 C   0  0  0  0  0  2  0  0  0  0  0  0
  189.4770  176.5410  139.3050 N   0  0  0  0  0  2  0  0  0  0  0  0
  190.7830  176.0580  138.8830 C   0  0  0  0  0  2  0  0  0  0  0  0
  190.6420  175.1320  137.6800 C   0  0  0  0  0  2  0  0  0  0  0  0
  191.6120  175.5120  136.5660 C   0  0  0  0  0  2  0  0  0  0  0  0
  192.8920  174.6870  136.6270 C   0  0  0  0  0  2  0  0  0  0  0  0
  193.8840  176.6960  137.4170 O   0  0  0  0  0  0  0  0  0  0  0  0
  194.0790  175.5320  136.9760 C   0  0  0  0  0  0  0  0  0  0  0  0
  195.4200  175.1090  136.6940 N   0  0  0  0  0  0  0  0  0  0  0  0
  196.2070  174.3800  137.4330 C   0  0  0  0  0  3  0  0  0  0  0  0
  195.2490  172.9340  139.0730 O   0  0  0  0  0  0  0  0  0  0  0  0
  196.4180  174.8070  139.9390 C   0  0  0  0  0  1  0  0  0  0  0  0
  195.9430  173.9530  138.8180 C   0  0  0  0  0  0  0  0  0  0  0  0
  189.0830  178.9470  139.2770 C   0  0  0  0  0  2  0  0  0  0  0  0
  184.0890  177.0800  136.6930 C   0  0  0  0  0  3  0  0  0  0  0  0
  189.1820  178.3350  136.9350 N   0  0  0  0  0  0  0  0  0  0  0  0
  187.0660  178.1910  138.1680 N   0  0  0  0  0  2  0  0  0  0  0  0
  188.9360  177.9270  135.6940 N   0  0  0  0  0  2  0  0  0  0  0  0
  188.3940  178.4720  138.0420 C   0  0  0  0  0  0  0  0  0  0  0  0
  184.7800  177.5500  137.8010 C   0  0  0  0  0  2  0  0  0  0  0  0
  184.9080  176.9810  135.6250 N   0  0  0  0  0  0  0  0  0  0  0  0
  186.1130  177.3860  136.0530 C   0  0  0  0  0  0  0  0  0  0  0  0
  187.4690  177.4210  135.0740 S   0  0  0  0  0  0  0  0  0  0  0  0
  186.0730  177.7380  137.3660 C   0  0  0  0  0  0  0  0  0  0  0  0
  1 29  1  6  0  0  0
  1  5  1  0  0  0  0
  2  8  1  0  0  0  0
  3 11  2  0  0  0  0
  4  6  1  0  0  0  0
  4  7  2  0  0  0  0
  5 12  2  0  0  0  0
  5  3  1  0  0  0  0
  7 10  1  0  0  0  0
  8 13  1  0  0  0  0
  8  7  1  0  0  0  0
  9  2  2  0  0  0  0
 11  2  1  0  0  0  0
 11  4  1  0  0  0  0
 12  9  1  0  0  0  0
 14 13  1  0  0  0  0
 15 16  1  0  0  0  0
 16 14  1  0  0  0  0
 17  1  1  0  0  0  0
 18 17  1  0  0  0  0
 19 18  1  0  0  0  0
 20 21  1  0  0  0  0
 20 19  1  0  0  0  0
 21 23  1  0  0  0  0
 23 22  2  0  0  0  0
 24 23  1  0  0  0  0
 24 25  2  0  0  0  0
 25 28  1  0  0  0  0
 28 26  2  0  0  0  0
 28 27  1  0  0  0  0
 30 35  1  0  0  0  0
 31 34  2  0  0  0  0
 33 31  1  0  0  0  0
 34 32  1  0  0  0  0
 34 29  1  0  0  0  0
 36 37  1  0  0  0  0
 36 30  2  0  0  0  0
 37 39  2  0  0  0  0
 38 33  1  0  0  0  0
 38 37  1  0  0  0  0
 39 35  1  0  0  0  0
 39 32  1  0  0  0  0
M  END
>  <MODEL>
5

>  <REMARK>
 VINA RESULT:      -7.3      3.197      6.263
  Name = 
  14 active torsions:
  status: ('A' for Active; 'I' for Inactive)
    1  A    between atoms: N_1  and  C_11
    2  A    between atoms: N_1  and  C_24
    3  A    between atoms: C_3  and  C_4
    4  A    between atoms: C_3  and  N_29
    5  A    between atoms: C_4  and  C_22
    6  A    between atoms: N_6  and  C_33
    7  A    between atoms: C_7  and  C_24
    8  A    between atoms: C_7  and  C_34
    9  A    between atoms: C_11  and  C_23
   10  A    between atoms: C_11  and  C_39
   11  A    between atoms: C_12  and  C_39
   12  A    between atoms: C_15  and  C_27
   13  A    between atoms: C_33  and  C_37
   14  A    between atoms: C_34  and  C_37
                            x       y       z     vdW  Elec       q    Type
                         _______ _______ _______ _____ _____    ______ ____

>  <TORSDO>
F 14

$$$$
=
 OpenBabel11032420263D

 39 42  0  0  1  0  0  0  0  0999 V2000
  188.1830  178.3260  139.7660 C   0  0  1  0  0  3  0  0  0  0  0  0
  184.0430  178.7510  140.7540 C   0  0  0  0  0  0  0  0  0  0  0  0
  186.3440  178.5050  141.4560 C   0  0  0  0  0  3  0  0  0  0  0  0
  184.3260  178.7260  142.9510 C   0  0  0  0  0  0  0  0  0  0  0  0
  186.7260  178.4620  140.1020 C   0  0  0  0  0  0  0  0  0  0  0  0
  184.9310  178.6680  144.3120 C   0  0  0  0  0  1  0  0  0  0  0  0
  182.9800  178.8710  142.6330 C   0  0  0  0  0  0  0  0  0  0  0  0
  182.8120  178.8860  141.2870 N   0  0  0  0  0  0  0  0  0  0  0  0
  184.3890  178.7190  139.4030 C   0  0  0  0  0  3  0  0  0  0  0  0
  181.8680  179.0040  143.6220 C   0  0  0  0  0  1  0  0  0  0  0  0
  184.9890  178.6510  141.7440 C   0  0  0  0  0  0  0  0  0  0  0  0
  185.7500  178.5750  139.0820 C   0  0  0  0  0  3  0  0  0  0  0  0
  181.5490  178.9990  140.5630 C   0  0  0  0  0  2  0  0  0  0  0  0
  180.8860  177.6320  140.4200 C   0  0  0  0  0  2  0  0  0  0  0  0
  182.1370  175.6910  139.4720 C   0  0  0  0  0  1  0  0  0  0  0  0
  181.3250  176.9300  139.1450 C   0  0  0  0  0  2  0  0  0  0  0  0
  188.7440  177.1380  140.3950 N   0  0  0  0  0  2  0  0  0  0  0  0
  189.6250  177.5830  141.4650 C   0  0  0  0  0  2  0  0  0  0  0  0
  189.9610  176.4210  142.3920 C   0  0  0  0  0  2  0  0  0  0  0  0
  188.7540  176.0010  143.2230 C   0  0  0  0  0  2  0  0  0  0  0  0
  188.1480  177.1810  143.9730 C   0  0  0  0  0  2  0  0  0  0  0  0
  188.3420  177.1290  146.3410 O   0  0  0  0  0  0  0  0  0  0  0  0
  188.8800  177.4590  145.2500 C   0  0  0  0  0  0  0  0  0  0  0  0
  190.1030  178.2090  145.2750 N   0  0  0  0  0  0  0  0  0  0  0  0
  191.3140  177.7680  145.4640 C   0  0  0  0  0  3  0  0  0  0  0  0
  191.9760  175.5230  145.0000 O   0  0  0  0  0  0  0  0  0  0  0  0
  191.6090  176.0130  147.2910 C   0  0  0  0  0  1  0  0  0  0  0  0
  191.6840  176.3980  145.8560 C   0  0  0  0  0  0  0  0  0  0  0  0
  188.4030  178.2610  138.2580 C   0  0  0  0  0  2  0  0  0  0  0  0
  193.4540  175.2280  137.6260 C   0  0  0  0  0  3  0  0  0  0  0  0
  188.2640  175.9960  137.4070 N   0  0  0  0  0  0  0  0  0  0  0  0
  190.4380  176.9710  137.9940 N   0  0  0  0  0  2  0  0  0  0  0  0
  188.4990  174.7660  136.9620 N   0  0  0  0  0  2  0  0  0  0  0  0
  189.0790  176.9870  137.8740 C   0  0  0  0  0  0  0  0  0  0  0  0
  192.7650  176.3760  137.9910 C   0  0  0  0  0  2  0  0  0  0  0  0
  192.6010  174.2770  137.1910 N   0  0  0  0  0  0  0  0  0  0  0  0
  191.3770  174.8170  137.2810 C   0  0  0  0  0  0  0  0  0  0  0  0
  189.9830  174.0100  136.8300 S   0  0  0  0  0  0  0  0  0  0  0  0
  191.4380  176.0880  137.7600 C   0  0  0  0  0  0  0  0  0  0  0  0
  1 29  1  6  0  0  0
  1  5  1  0  0  0  0
  1 17  1  0  0  0  0
  2  8  1  0  0  0  0
  2 11  1  0  0  0  0
  3 11  2  0  0  0  0
  4  6  1  0  0  0  0
  5  3  1  0  0  0  0
  7  4  2  0  0  0  0
  7 10  1  0  0  0  0
  8  7  1  0  0  0  0
  9  2  2  0  0  0  0
 11  4  1  0  0  0  0
 12  9  1  0  0  0  0
 12  5  2  0  0  0  0
 13  8  1  0  0  0  0
 14 13  1  0  0  0  0
 16 15  1  0  0  0  0
 16 14  1  0  0  0  0
 17 18  1  0  0  0  0
 18 19  1  0  0  0  0
 19 20  1  0  0  0  0
 20 21  1  0  0  0  0
 21 23  1  0  0  0  0
 23 24  1  0  0  0  0
 23 22  2  0  0  0  0
 24 25  2  0  0  0  0
 25 28  1  0  0  0  0
 26 28  2  0  0  0  0
 28 27  1  0  0  0  0
 30 35  1  0  0  0  0
 31 34  2  0  0  0  0
 33 31  1  0  0  0  0
 34 32  1  0  0  0  0
 34 29  1  0  0  0  0
 36 37  1  0  0  0  0
 36 30  2  0  0  0  0
 37 39  2  0  0  0  0
 38 33  1  0  0  0  0
 38 37  1  0  0  0  0
 39 35  1  0  0  0  0
 39 32  1  0  0  0  0
M  END
>  <MODEL>
6

>  <REMARK>
 VINA RESULT:      -7.1      2.708      6.257
  Name = 
  14 active torsions:
  status: ('A' for Active; 'I' for Inactive)
    1  A    between atoms: N_1  and  C_11
    2  A    between atoms: N_1  and  C_24
    3  A    between atoms: C_3  and  C_4
    4  A    between atoms: C_3  and  N_29
    5  A    between atoms: C_4  and  C_22
    6  A    between atoms: N_6  and  C_33
    7  A    between atoms: C_7  and  C_24
    8  A    between atoms: C_7  and  C_34
    9  A    between atoms: C_11  and  C_23
   10  A    between atoms: C_11  and  C_39
   11  A    between atoms: C_12  and  C_39
   12  A    between atoms: C_15  and  C_27
   13  A    between atoms: C_33  and  C_37
   14  A    between atoms: C_34  and  C_37
                            x       y       z     vdW  Elec       q    Type
                         _______ _______ _______ _____ _____    ______ ____

>  <TORSDO>
F 14

$$$$
=
 OpenBabel11032420263D

 39 42  0  0  1  0  0  0  0  0999 V2000
  184.9280  178.9050  141.3170 C   0  0  1  0  0  3  0  0  0  0  0  0
  187.6260  177.5690  144.3550 C   0  0  0  0  0  0  0  0  0  0  0  0
  187.2140  178.2020  142.0570 C   0  0  0  0  0  3  0  0  0  0  0  0
  189.4160  177.4820  143.0530 C   0  0  0  0  0  0  0  0  0  0  0  0
  185.8640  178.4240  142.3870 C   0  0  0  0  0  0  0  0  0  0  0  0
  190.3340  177.5590  141.8810 C   0  0  0  0  0  1  0  0  0  0  0  0
  189.7380  177.1040  144.3520 C   0  0  0  0  0  0  0  0  0  0  0  0
  188.6390  177.1610  145.1450 N   0  0  0  0  0  0  0  0  0  0  0  0
  186.2960  177.7860  144.7160 C   0  0  0  0  0  3  0  0  0  0  0  0
  191.0980  176.7050  144.8230 C   0  0  0  0  0  1  0  0  0  0  0  0
  188.0670  177.7740  143.0710 C   0  0  0  0  0  0  0  0  0  0  0  0
  185.4110  178.2220  143.7140 C   0  0  0  0  0  3  0  0  0  0  0  0
  188.5640  176.8200  146.5630 C   0  0  0  0  0  2  0  0  0  0  0  0
  189.7900  177.3380  147.3080 C   0  0  0  0  0  2  0  0  0  0  0  0
  187.9600  177.9840  148.8780 C   0  0  0  0  0  1  0  0  0  0  0  0
  189.3980  178.2390  148.4690 C   0  0  0  0  0  2  0  0  0  0  0  0
  185.6320  179.0540  140.0500 N   0  0  0  0  0  2  0  0  0  0  0  0
  185.2330  177.9470  139.1940 C   0  0  0  0  0  2  0  0  0  0  0  0
  185.1860  178.3930  137.7370 C   0  0  0  0  0  2  0  0  0  0  0  0
  186.4330  177.9510  136.9780 C   0  0  0  0  0  2  0  0  0  0  0  0
  187.4330  177.2540  137.8930 C   0  0  0  0  0  2  0  0  0  0  0  0
  188.8300  178.9480  138.7990 O   0  0  0  0  0  0  0  0  0  0  0  0
  188.7270  178.0040  137.9720 C   0  0  0  0  0  0  0  0  0  0  0  0
  189.7950  177.7720  137.0420 N   0  0  0  0  0  0  0  0  0  0  0  0
  190.4650  176.6720  136.8430 C   0  0  0  0  0  3  0  0  0  0  0  0
  190.9310  175.3560  138.7780 O   0  0  0  0  0  0  0  0  0  0  0  0
  189.6950  174.2530  137.0810 C   0  0  0  0  0  1  0  0  0  0  0  0
  190.3740  175.4460  137.6530 C   0  0  0  0  0  0  0  0  0  0  0  0
  183.7470  177.9550  141.1400 C   0  0  0  0  0  2  0  0  0  0  0  0
  179.3850  181.1590  138.7320 C   0  0  0  0  0  3  0  0  0  0  0  0
  181.9590  178.7050  142.5940 N   0  0  0  0  0  0  0  0  0  0  0  0
  181.9310  179.2560  140.2030 N   0  0  0  0  0  2  0  0  0  0  0  0
  180.8750  179.2540  143.1310 N   0  0  0  0  0  2  0  0  0  0  0  0
  182.4530  178.6750  141.3210 C   0  0  0  0  0  0  0  0  0  0  0  0
  180.5740  180.4530  138.6230 C   0  0  0  0  0  3  0  0  0  0  0  0
  178.9320  181.1410  140.0030 N   0  0  0  0  0  2  0  0  0  0  0  0
  179.8290  180.4260  140.6980 C   0  0  0  0  0  0  0  0  0  0  0  0
  179.7020  180.1440  142.3420 S   0  0  0  0  0  0  0  0  0  0  0  0
  180.8380  179.9950  139.8950 C   0  0  0  0  0  0  0  0  0  0  0  0
  1 29  1  6  0  0  0
  1  5  1  0  0  0  0
  2  9  1  0  0  0  0
  2  8  1  0  0  0  0
  3  5  2  0  0  0  0
  3 11  1  0  0  0  0
  4 11  1  0  0  0  0
  4  7  2  0  0  0  0
  5 12  1  0  0  0  0
  6  4  1  0  0  0  0
  7 10  1  0  0  0  0
  7  8  1  0  0  0  0
  8 13  1  0  0  0  0
 11  2  2  0  0  0  0
 12  9  2  0  0  0  0
 13 14  1  0  0  0  0
 14 16  1  0  0  0  0
 16 15  1  0  0  0  0
 17  1  1  0  0  0  0
 18 17  1  0  0  0  0
 19 18  1  0  0  0  0
 20 19  1  0  0  0  0
 20 21  1  0  0  0  0
 21 23  1  0  0  0  0
 23 22  2  0  0  0  0
 24 23  1  0  0  0  0
 25 24  2  0  0  0  0
 25 28  1  0  0  0  0
 27 28  1  0  0  0  0
 28 26  2  0  0  0  0
 29 34  1  0  0  0  0
 30 36  1  0  0  0  0
 31 33  1  0  0  0  0
 32 34  1  0  0  0  0
 34 31  2  0  0  0  0
 35 30  2  0  0  0  0
 35 39  1  0  0  0  0
 36 37  1  0  0  0  0
 37 38  1  0  0  0  0
 38 33  1  0  0  0  0
 39 32  1  0  0  0  0
 39 37  2  0  0  0  0
M  END
>  <MODEL>
7

>  <REMARK>
 VINA RESULT:      -7.0      3.699      7.707
  Name = 
  14 active torsions:
  status: ('A' for Active; 'I' for Inactive)
    1  A    between atoms: N_1  and  C_11
    2  A    between atoms: N_1  and  C_24
    3  A    between atoms: C_3  and  C_4
    4  A    between atoms: C_3  and  N_29
    5  A    between atoms: C_4  and  C_22
    6  A    between atoms: N_6  and  C_33
    7  A    between atoms: C_7  and  C_24
    8  A    between atoms: C_7  and  C_34
    9  A    between atoms: C_11  and  C_23
   10  A    between atoms: C_11  and  C_39
   11  A    between atoms: C_12  and  C_39
   12  A    between atoms: C_15  and  C_27
   13  A    between atoms: C_33  and  C_37
   14  A    between atoms: C_34  and  C_37
                            x       y       z     vdW  Elec       q    Type
                         _______ _______ _______ _____ _____    ______ ____

>  <TORSDO>
F 14

$$$$
=
 OpenBabel11032420263D

 39 42  0  0  1  0  0  0  0  0999 V2000
  184.9060  178.9460  139.4970 C   0  0  1  0  0  3  0  0  0  0  0  0
  186.2520  178.4970  143.5330 C   0  0  0  0  0  0  0  0  0  0  0  0
  184.4470  178.8190  141.9550 C   0  0  0  0  0  3  0  0  0  0  0  0
  184.2450  178.6360  144.4620 C   0  0  0  0  0  0  0  0  0  0  0  0
  185.3900  178.8010  140.9100 C   0  0  0  0  0  0  0  0  0  0  0  0
  182.7750  178.7730  144.6730 C   0  0  0  0  0  1  0  0  0  0  0  0
  185.2230  178.4530  145.4340 C   0  0  0  0  0  0  0  0  0  0  0  0
  186.4480  178.3670  144.8600 N   0  0  0  0  0  0  0  0  0  0  0  0
  187.2110  178.4680  142.5200 C   0  0  0  0  0  3  0  0  0  0  0  0
  184.9710  178.3490  146.9030 C   0  0  0  0  0  1  0  0  0  0  0  0
  184.9170  178.6630  143.2570 C   0  0  0  0  0  0  0  0  0  0  0  0
  186.7650  178.6200  141.1950 C   0  0  0  0  0  3  0  0  0  0  0  0
  187.7270  178.1970  145.5450 C   0  0  0  0  0  2  0  0  0  0  0  0
  187.8160  176.8140  146.1830 C   0  0  0  0  0  2  0  0  0  0  0  0
  188.8590  177.9860  148.1250 C   0  0  0  0  0  1  0  0  0  0  0  0
  188.9100  176.7570  147.2380 C   0  0  0  0  0  2  0  0  0  0  0  0
  186.0320  178.9860  138.5730 N   0  0  0  0  0  2  0  0  0  0  0  0
  185.9970  177.7630  137.7850 C   0  0  0  0  0  2  0  0  0  0  0  0
  187.4080  177.3480  137.3870 C   0  0  0  0  0  2  0  0  0  0  0  0
  188.2390  176.9560  138.6030 C   0  0  0  0  0  2  0  0  0  0  0  0
  189.5360  177.7530  138.6800 C   0  0  0  0  0  2  0  0  0  0  0  0
  190.6150  175.6520  138.9350 O   0  0  0  0  0  0  0  0  0  0  0  0
  190.6860  176.8970  139.1140 C   0  0  0  0  0  0  0  0  0  0  0  0
  191.7970  177.4330  139.8480 N   0  0  0  0  0  0  0  0  0  0  0  0
  191.9510  177.5000  141.1390 C   0  0  0  0  0  3  0  0  0  0  0  0
  190.2260  176.1340  142.0640 O   0  0  0  0  0  0  0  0  0  0  0  0
  190.6590  178.1480  143.2400 C   0  0  0  0  0  1  0  0  0  0  0  0
  190.9320  177.1730  142.1500 C   0  0  0  0  0  0  0  0  0  0  0  0
  183.9640  177.8100  139.1100 C   0  0  0  0  0  2  0  0  0  0  0  0
  180.0580  182.2030  138.3730 C   0  0  0  0  0  3  0  0  0  0  0  0
  181.6290  177.3320  139.5440 N   0  0  0  0  0  0  0  0  0  0  0  0
  182.3240  179.5670  138.8100 N   0  0  0  0  0  2  0  0  0  0  0  0
  180.3110  177.3720  139.7150 N   0  0  0  0  0  2  0  0  0  0  0  0
  182.5430  178.2630  139.1440 C   0  0  0  0  0  0  0  0  0  0  0  0
  181.3560  181.7150  138.3370 C   0  0  0  0  0  3  0  0  0  0  0  0
  179.1950  181.2390  138.7560 N   0  0  0  0  0  2  0  0  0  0  0  0
  179.9410  180.1440  138.9610 C   0  0  0  0  0  0  0  0  0  0  0  0
  179.3050  178.6830  139.4700 S   0  0  0  0  0  0  0  0  0  0  0  0
  181.2550  180.3950  138.7180 C   0  0  0  0  0  0  0  0  0  0  0  0
  1 29  1  6  0  0  0
  1  5  1  0  0  0  0
  2  8  1  0  0  0  0
  3 11  2  0  0  0  0
  4  6  1  0  0  0  0
  4  7  2  0  0  0  0
  5 12  2  0  0  0  0
  5  3  1  0  0  0  0
  7 10  1  0  0  0  0
  8  7  1  0  0  0  0
  8 13  1  0  0  0  0
  9  2  2  0  0  0  0
 11  2  1  0  0  0  0
 11  4  1  0  0  0  0
 12  9  1  0  0  0  0
 13 14  1  0  0  0  0
 14 16  1  0  0  0  0
 16 15  1  0  0  0  0
 17  1  1  0  0  0  0
 18 17  1  0  0  0  0
 19 18  1  0  0  0  0
 19 20  1  0  0  0  0
 20 21  1  0  0  0  0
 21 23  1  0  0  0  0
 22 23  2  0  0  0  0
 23 24  1  0  0  0  0
 24 25  2  0  0  0  0
 25 28  1  0  0  0  0
 26 28  2  0  0  0  0
 28 27  1  0  0  0  0
 29 34  1  0  0  0  0
 30 36  1  0  0  0  0
 31 33  1  0  0  0  0
 32 34  1  0  0  0  0
 34 31  2  0  0  0  0
 35 30  2  0  0  0  0
 35 39  1  0  0  0  0
 36 37  1  0  0  0  0
 37 38  1  0  0  0  0
 38 33  1  0  0  0  0
 39 32  1  0  0  0  0
 39 37  2  0  0  0  0
M  END
>  <MODEL>
8

>  <REMARK>
 VINA RESULT:      -6.9      3.526      7.877
  Name = 
  14 active torsions:
  status: ('A' for Active; 'I' for Inactive)
    1  A    between atoms: N_1  and  C_11
    2  A    between atoms: N_1  and  C_24
    3  A    between atoms: C_3  and  C_4
    4  A    between atoms: C_3  and  N_29
    5  A    between atoms: C_4  and  C_22
    6  A    between atoms: N_6  and  C_33
    7  A    between atoms: C_7  and  C_24
    8  A    between atoms: C_7  and  C_34
    9  A    between atoms: C_11  and  C_23
   10  A    between atoms: C_11  and  C_39
   11  A    between atoms: C_12  and  C_39
   12  A    between atoms: C_15  and  C_27
   13  A    between atoms: C_33  and  C_37
   14  A    between atoms: C_34  and  C_37
                            x       y       z     vdW  Elec       q    Type
                         _______ _______ _______ _____ _____    ______ ____

>  <TORSDO>
F 14

$$$$
=
 OpenBabel11032420263D

 39 42  0  0  1  0  0  0  0  0999 V2000
  184.3570  179.2660  140.0820 C   0  0  1  0  0  3  0  0  0  0  0  0
  186.2310  177.9950  143.7110 C   0  0  0  0  0  0  0  0  0  0  0  0
  186.3860  178.5460  141.3610 C   0  0  0  0  0  3  0  0  0  0  0  0
  188.2730  177.8210  142.8680 C   0  0  0  0  0  0  0  0  0  0  0  0
  185.0030  178.8080  141.3570 C   0  0  0  0  0  0  0  0  0  0  0  0
  189.4420  177.8350  141.9420 C   0  0  0  0  0  1  0  0  0  0  0  0
  188.2710  177.4890  144.2180 C   0  0  0  0  0  0  0  0  0  0  0  0
  187.0200  177.5980  144.7300 N   0  0  0  0  0  0  0  0  0  0  0  0
  184.8600  178.2530  143.7420 C   0  0  0  0  0  3  0  0  0  0  0  0
  189.4720  177.0800  145.0080 C   0  0  0  0  0  1  0  0  0  0  0  0
  186.9660  178.1410  142.5600 C   0  0  0  0  0  0  0  0  0  0  0  0
  184.2480  178.6670  142.5470 C   0  0  0  0  0  3  0  0  0  0  0  0
  186.6060  177.3140  146.1010 C   0  0  0  0  0  2  0  0  0  0  0  0
  186.5290  178.6000  146.9180 C   0  0  0  0  0  2  0  0  0  0  0  0
  188.1360  177.2370  148.2580 C   0  0  0  0  0  1  0  0  0  0  0  0
  187.5860  178.6290  148.0120 C   0  0  0  0  0  2  0  0  0  0  0  0
  185.2750  179.1150  138.9610 N   0  0  0  0  0  2  0  0  0  0  0  0
  184.8040  177.9980  138.1550 C   0  0  0  0  0  2  0  0  0  0  0  0
  185.9500  177.4140  137.3370 C   0  0  0  0  0  2  0  0  0  0  0  0
  185.6240  176.0100  136.8420 C   0  0  0  0  0  2  0  0  0  0  0  0
  184.1270  175.8230  136.6250 C   0  0  0  0  0  2  0  0  0  0  0  0
  184.4280  173.8710  137.9460 O   0  0  0  0  0  0  0  0  0  0  0  0
  183.6330  174.5510  137.2450 C   0  0  0  0  0  0  0  0  0  0  0  0
  182.3330  174.0190  136.9510 N   0  0  0  0  0  0  0  0  0  0  0  0
  181.1700  174.5120  137.2710 C   0  0  0  0  0  3  0  0  0  0  0  0
  180.8400  176.8350  137.7050 O   0  0  0  0  0  0  0  0  0  0  0  0
  180.9100  175.4490  139.6280 C   0  0  0  0  0  1  0  0  0  0  0  0
  180.9340  175.6640  138.1570 C   0  0  0  0  0  0  0  0  0  0  0  0
  183.0710  178.4950  139.8000 C   0  0  0  0  0  2  0  0  0  0  0  0
  179.9620  183.1170  137.7840 C   0  0  0  0  0  3  0  0  0  0  0  0
  181.0680  179.1250  141.0100 N   0  0  0  0  0  0  0  0  0  0  0  0
  181.7550  180.3680  139.0090 N   0  0  0  0  0  2  0  0  0  0  0  0
  179.9580  179.6990  141.4620 N   0  0  0  0  0  2  0  0  0  0  0  0
  181.8790  179.3800  139.9410 C   0  0  0  0  0  0  0  0  0  0  0  0
  181.0370  182.2450  137.6920 C   0  0  0  0  0  3  0  0  0  0  0  0
  179.1850  182.8100  138.8440 N   0  0  0  0  0  2  0  0  0  0  0  0
  179.7640  181.7460  139.4220 C   0  0  0  0  0  0  0  0  0  0  0  0
  179.1640  181.0110  140.8000 S   0  0  0  0  0  0  0  0  0  0  0  0
  180.8890  181.3780  138.7520 C   0  0  0  0  0  0  0  0  0  0  0  0
  1 29  1  6  0  0  0
  1  5  1  0  0  0  0
  2  9  1  0  0  0  0
  2  8  1  0  0  0  0
  3 11  1  0  0  0  0
  4  7  2  0  0  0  0
  5  3  2  0  0  0  0
  5 12  1  0  0  0  0
  6  4  1  0  0  0  0
  7  8  1  0  0  0  0
  7 10  1  0  0  0  0
  8 13  1  0  0  0  0
 11  4  1  0  0  0  0
 11  2  2  0  0  0  0
 12  9  2  0  0  0  0
 13 14  1  0  0  0  0
 14 16  1  0  0  0  0
 16 15  1  0  0  0  0
 17  1  1  0  0  0  0
 18 17  1  0  0  0  0
 19 18  1  0  0  0  0
 20 19  1  0  0  0  0
 21 20  1  0  0  0  0
 21 23  1  0  0  0  0
 23 22  2  0  0  0  0
 24 23  1  0  0  0  0
 24 25  2  0  0  0  0
 25 28  1  0  0  0  0
 26 28  2  0  0  0  0
 28 27  1  0  0  0  0
 29 34  1  0  0  0  0
 30 36  1  0  0  0  0
 31 33  1  0  0  0  0
 32 34  1  0  0  0  0
 34 31  2  0  0  0  0
 35 30  2  0  0  0  0
 35 39  1  0  0  0  0
 36 37  1  0  0  0  0
 37 38  1  0  0  0  0
 38 33  1  0  0  0  0
 39 32  1  0  0  0  0
 39 37  2  0  0  0  0
M  END
>  <MODEL>
9

>  <REMARK>
 VINA RESULT:      -6.9      4.520      7.589
  Name = 
  14 active torsions:
  status: ('A' for Active; 'I' for Inactive)
    1  A    between atoms: N_1  and  C_11
    2  A    between atoms: N_1  and  C_24
    3  A    between atoms: C_3  and  C_4
    4  A    between atoms: C_3  and  N_29
    5  A    between atoms: C_4  and  C_22
    6  A    between atoms: N_6  and  C_33
    7  A    between atoms: C_7  and  C_24
    8  A    between atoms: C_7  and  C_34
    9  A    between atoms: C_11  and  C_23
   10  A    between atoms: C_11  and  C_39
   11  A    between atoms: C_12  and  C_39
   12  A    between atoms: C_15  and  C_27
   13  A    between atoms: C_33  and  C_37
   14  A    between atoms: C_34  and  C_37
                            x       y       z     vdW  Elec       q    Type
                         _______ _______ _______ _____ _____    ______ ____

>  <TORSDO>
F 14

$$$$
