=
 OpenBabel11032420443D

 45 48  0  0  1  0  0  0  0  0999 V2000
  184.0400  178.6000  144.1080 C   0  0  1  0  0  3  0  0  0  0  0  0
  185.0820  179.3410  144.9410 C   0  0  0  0  0  2  0  0  0  0  0  0
  187.1130  177.4890  147.2490 C   0  0  0  0  0  3  0  0  0  0  0  0
  186.0870  178.1770  146.8180 C   0  0  0  0  0  0  0  0  0  0  0  0
  185.0780  178.8620  146.3550 C   0  0  0  0  0  3  0  0  0  0  0  0
  190.7940  176.9500  147.2770 C   0  0  0  0  0  3  0  0  0  0  0  0
  191.0300  177.5790  144.9050 C   0  0  0  0  0  0  0  0  0  0  0  0
  192.1150  177.8970  144.1560 F   0  0  0  0  0  0  0  0  0  0  0  0
  189.8790  178.2050  144.6540 C   0  0  0  0  0  3  0  0  0  0  0  0
  189.5940  177.4310  147.6060 C   0  0  0  0  0  3  0  0  0  0  0  0
  192.3950  175.9270  145.9040 F   0  0  0  0  0  0  0  0  0  0  0  0
  191.1250  176.4690  145.9050 C   0  0  1  0  0  3  0  0  0  0  0  0
  188.6130  178.0040  145.3890 C   0  0  0  0  0  3  0  0  0  0  0  0
  188.4640  177.6210  146.6720 C   0  0  0  0  0  0  0  0  0  0  0  0
  182.8080  179.3780  143.9860 N   0  0  0  0  0  2  0  0  0  0  0  0
  181.6580  179.1110  141.8470 C   0  0  0  0  0  3  0  0  0  0  0  0
  180.4960  178.4900  143.8640 C   0  0  0  0  0  3  0  0  0  0  0  0
  180.5400  178.7230  141.0990 C   0  0  0  0  0  0  0  0  0  0  0  0
  181.6460  178.9910  143.2390 C   0  0  0  0  0  0  0  0  0  0  0  0
  179.4190  178.2240  141.7640 C   0  0  0  0  0  3  0  0  0  0  0  0
  179.4180  178.1220  143.1210 N   0  0  0  0  0  0  0  0  0  0  0  0
  180.5220  178.8340  139.6720 N   0  0  0  0  0  2  0  0  0  0  0  0
  181.4170  179.7050  138.9190 C   0  0  2  0  0  3  0  0  0  0  0  0
  180.6710  180.3610  137.7680 C   0  0  0  0  0  1  0  0  0  0  0  0
  183.4910  177.2550  136.9510 C   0  0  0  0  0  0  0  0  0  0  0  0
  184.7380  177.4720  137.4430 C   0  0  0  0  0  0  0  0  0  0  0  0
  183.5450  176.2710  135.9840 O   0  0  0  0  0  0  0  0  0  0  0  0
  182.5870  178.9280  138.4080 C   0  0  0  0  0  0  0  0  0  0  0  0
  183.8900  179.1510  138.9230 C   0  0  0  0  0  3  0  0  0  0  0  0
  184.9880  178.4170  138.4370 C   0  0  0  0  0  3  0  0  0  0  0  0
  182.3810  177.9610  137.4060 C   0  0  0  0  0  3  0  0  0  0  0  0
  185.6350  176.6330  136.8120 O   0  0  0  0  0  0  0  0  0  0  0  0
  184.9100  175.8440  135.8580 C   0  0  0  0  0  2  0  0  0  0  0  0
  184.5840  178.2260  142.7360 C   0  0  0  0  0  2  0  0  0  0  0  0
  186.0940  178.0050  142.7860 C   0  0  0  0  0  2  0  0  0  0  0  0
  186.7910  178.6830  141.6130 C   0  0  0  0  0  2  0  0  0  0  0  0
  188.1380  178.0420  141.3350 C   0  0  0  0  0  2  0  0  0  0  0  0
  188.6580  178.4860  139.9800 C   0  0  0  0  0  2  0  0  0  0  0  0
  188.3860  177.4140  138.9350 C   0  0  0  0  0  2  0  0  0  0  0  0
  191.8540  176.1690  138.5230 N   0  0  0  0  0  2  0  0  0  0  0  0
  189.5440  176.5490  138.7650 N   0  0  0  0  0  0  0  0  0  0  0  0
  190.7370  177.0400  138.6830 C   0  0  0  0  0  3  0  0  0  0  0  0
  193.1610  176.6670  138.4460 N   0  0  0  0  0  0  0  0  0  0  0  0
  193.8340  176.6940  137.2450 O   0  0  0  0  0  0  0  0  0  0  0  0
  193.7150  177.1070  139.4730 O   0  0  0  0  0  0  0  0  0  0  0  0
  1 34  1  6  0  0  0
  1  2  1  0  0  0  0
  2  5  1  0  0  0  0
  4  3  2  0  0  0  0
  5  4  2  0  0  0  0
  6 10  2  0  0  0  0
  7 12  1  0  0  0  0
  8  7  1  0  0  0  0
  9  7  2  0  0  0  0
  9 13  1  0  0  0  0
 12 11  1  1  0  0  0
 12  6  1  0  0  0  0
 13 14  2  0  0  0  0
 14  3  1  0  0  0  0
 14 10  1  0  0  0  0
 15  1  1  0  0  0  0
 16 19  1  0  0  0  0
 18 20  1  0  0  0  0
 18 16  2  0  0  0  0
 19 17  2  0  0  0  0
 19 15  1  0  0  0  0
 20 21  2  0  0  0  0
 21 17  1  0  0  0  0
 22 18  1  0  0  0  0
 23 24  1  6  0  0  0
 23 22  1  0  0  0  0
 25 31  2  0  0  0  0
 25 26  1  0  0  0  0
 26 30  2  0  0  0  0
 27 25  1  0  0  0  0
 28 23  1  0  0  0  0
 28 29  2  0  0  0  0
 30 29  1  0  0  0  0
 31 28  1  0  0  0  0
 32 26  1  0  0  0  0
 33 27  1  0  0  0  0
 33 32  1  0  0  0  0
 34 35  1  0  0  0  0
 36 35  1  0  0  0  0
 37 36  1  0  0  0  0
 38 37  1  0  0  0  0
 39 38  1  0  0  0  0
 40 42  1  0  0  0  0
 41 39  1  0  0  0  0
 42 41  2  0  0  0  0
 43 40  1  0  0  0  0
 43 45  2  0  0  0  0
 44 43  2  0  0  0  0
M  END
>  <MODEL>
1

>  <REMARK>
 VINA RESULT:      -8.8      0.000      0.000
  Name = 
  16 active torsions:
  status: ('A' for Active; 'I' for Inactive)
    1  A    between atoms: C_1  and  C_44
    2  A    between atoms: C_2  and  C_31
    3  A    between atoms: C_2  and  C_39
    4  A    between atoms: C_4  and  N_8
    5  A    between atoms: C_4  and  C_21
    6  A    between atoms: C_5  and  N_25
    7  A    between atoms: C_5  and  C_34
    8  A    between atoms: N_6  and  N_11
    9  A    between atoms: C_7  and  C_27
   10  A    between atoms: C_7  and  C_34
   11  A    between atoms: N_8  and  C_26
   12  A    between atoms: C_27  and  C_39
   13  A    between atoms: C_30  and  C_42
   14  A    between atoms: C_31  and  N_37
   15  A    between atoms: C_31  and  C_42
   16  A    between atoms: C_36  and  N_37
                            x       y       z     vdW  Elec       q    Type
                         _______ _______ _______ _____ _____    ______ ____

>  <TORSDO>
F 16

$$$$
=
 OpenBabel11032420443D

 45 48  0  0  1  0  0  0  0  0999 V2000
  190.5430  176.3750  138.8470 C   0  0  1  0  0  3  0  0  0  0  0  0
  190.6060  176.5170  140.3650 C   0  0  0  0  0  2  0  0  0  0  0  0
  191.5550  178.5100  143.1950 C   0  0  0  0  0  3  0  0  0  0  0  0
  191.5960  178.0390  141.9760 C   0  0  0  0  0  0  0  0  0  0  0  0
  191.6050  177.5520  140.7650 C   0  0  0  0  0  3  0  0  0  0  0  0
  191.7420  175.8520  145.7920 C   0  0  0  0  0  3  0  0  0  0  0  0
  189.8100  176.7520  147.0310 C   0  0  0  0  0  0  0  0  0  0  0  0
  189.0330  176.2210  148.0070 F   0  0  0  0  0  0  0  0  0  0  0  0
  189.2420  177.5610  146.1360 C   0  0  0  0  0  3  0  0  0  0  0  0
  191.6380  176.4310  144.5950 C   0  0  0  0  0  3  0  0  0  0  0  0
  191.6300  175.7180  148.1300 F   0  0  0  0  0  0  0  0  0  0  0  0
  191.2870  176.5080  147.0510 C   0  0  1  0  0  3  0  0  0  0  0  0
  189.9290  178.2000  144.9940 C   0  0  0  0  0  3  0  0  0  0  0  0
  191.0100  177.7430  144.3310 C   0  0  0  0  0  0  0  0  0  0  0  0
  189.7920  177.4740  138.2420 N   0  0  0  0  0  2  0  0  0  0  0  0
  187.6130  178.1930  139.0800 C   0  0  0  0  0  3  0  0  0  0  0  0
  187.7030  176.9600  137.0110 C   0  0  0  0  0  3  0  0  0  0  0  0
  186.2210  178.2790  138.9530 C   0  0  0  0  0  0  0  0  0  0  0  0
  188.3670  177.5360  138.1030 C   0  0  0  0  0  0  0  0  0  0  0  0
  185.6040  177.6960  137.8460 C   0  0  0  0  0  3  0  0  0  0  0  0
  186.3490  177.0510  136.9080 N   0  0  0  0  0  0  0  0  0  0  0  0
  185.4220  178.9450  139.9360 N   0  0  0  0  0  2  0  0  0  0  0  0
  184.1330  178.4460  140.4010 C   0  0  2  0  0  3  0  0  0  0  0  0
  183.0000  179.1910  139.7150 C   0  0  0  0  0  1  0  0  0  0  0  0
  185.0620  178.5930  144.0480 C   0  0  0  0  0  0  0  0  0  0  0  0
  183.8640  178.8360  144.6400 C   0  0  0  0  0  0  0  0  0  0  0  0
  186.0450  178.5150  145.0150 O   0  0  0  0  0  0  0  0  0  0  0  0
  184.0280  178.5850  141.8860 C   0  0  0  0  0  0  0  0  0  0  0  0
  182.7790  178.8350  142.5070 C   0  0  0  0  0  3  0  0  0  0  0  0
  182.6880  178.9670  143.9050 C   0  0  0  0  0  3  0  0  0  0  0  0
  185.1930  178.4570  142.6680 C   0  0  0  0  0  3  0  0  0  0  0  0
  184.0360  178.9200  146.0080 O   0  0  0  0  0  0  0  0  0  0  0  0
  185.4280  178.7230  146.2940 C   0  0  0  0  0  2  0  0  0  0  0  0
  191.9350  176.2680  138.2380 C   0  0  0  0  0  2  0  0  0  0  0  0
  191.8580  175.9440  136.7480 C   0  0  0  0  0  2  0  0  0  0  0  0
  193.2420  175.9370  136.1110 C   0  0  0  0  0  2  0  0  0  0  0  0
  193.5330  174.6010  135.4540 C   0  0  0  0  0  2  0  0  0  0  0  0
  193.3470  173.4750  136.4550 C   0  0  0  0  0  2  0  0  0  0  0  0
  194.6940  173.0440  137.0170 C   0  0  0  0  0  2  0  0  0  0  0  0
  196.3850  174.7720  139.8280 N   0  0  0  0  0  2  0  0  0  0  0  0
  194.9630  173.7070  138.2840 N   0  0  0  0  0  0  0  0  0  0  0  0
  196.1510  174.1200  138.5820 C   0  0  0  0  0  3  0  0  0  0  0  0
  197.6570  175.2450  140.1750 N   0  0  0  0  0  0  0  0  0  0  0  0
  198.0990  175.1830  141.4780 O   0  0  0  0  0  0  0  0  0  0  0  0
  198.4040  175.7120  139.2920 O   0  0  0  0  0  0  0  0  0  0  0  0
  1 34  1  6  0  0  0
  1  2  1  0  0  0  0
  2  5  1  0  0  0  0
  3 14  1  0  0  0  0
  4  3  2  0  0  0  0
  5  4  2  0  0  0  0
  6 12  1  0  0  0  0
  7 12  1  0  0  0  0
  7  8  1  0  0  0  0
  9  7  2  0  0  0  0
 10  6  2  0  0  0  0
 12 11  1  1  0  0  0
 13  9  1  0  0  0  0
 14 10  1  0  0  0  0
 14 13  2  0  0  0  0
 15  1  1  0  0  0  0
 17 19  1  0  0  0  0
 18 16  1  0  0  0  0
 18 22  1  0  0  0  0
 19 15  1  0  0  0  0
 19 16  2  0  0  0  0
 20 18  2  0  0  0  0
 21 17  2  0  0  0  0
 21 20  1  0  0  0  0
 22 23  1  0  0  0  0
 23 24  1  6  0  0  0
 23 28  1  0  0  0  0
 25 26  1  0  0  0  0
 25 27  1  0  0  0  0
 26 32  1  0  0  0  0
 27 33  1  0  0  0  0
 28 29  2  0  0  0  0
 28 31  1  0  0  0  0
 29 30  1  0  0  0  0
 30 26  2  0  0  0  0
 31 25  2  0  0  0  0
 32 33  1  0  0  0  0
 35 34  1  0  0  0  0
 36 35  1  0  0  0  0
 37 36  1  0  0  0  0
 37 38  1  0  0  0  0
 38 39  1  0  0  0  0
 39 41  1  0  0  0  0
 40 43  1  0  0  0  0
 41 42  2  0  0  0  0
 42 40  1  0  0  0  0
 43 44  2  0  0  0  0
 45 43  2  0  0  0  0
M  END
>  <MODEL>
2

>  <REMARK>
 VINA RESULT:      -8.6      3.393      6.723
  Name = 
  16 active torsions:
  status: ('A' for Active; 'I' for Inactive)
    1  A    between atoms: C_1  and  C_44
    2  A    between atoms: C_2  and  C_31
    3  A    between atoms: C_2  and  C_39
    4  A    between atoms: C_4  and  N_8
    5  A    between atoms: C_4  and  C_21
    6  A    between atoms: C_5  and  N_25
    7  A    between atoms: C_5  and  C_34
    8  A    between atoms: N_6  and  N_11
    9  A    between atoms: C_7  and  C_27
   10  A    between atoms: C_7  and  C_34
   11  A    between atoms: N_8  and  C_26
   12  A    between atoms: C_27  and  C_39
   13  A    between atoms: C_30  and  C_42
   14  A    between atoms: C_31  and  N_37
   15  A    between atoms: C_31  and  C_42
   16  A    between atoms: C_36  and  N_37
                            x       y       z     vdW  Elec       q    Type
                         _______ _______ _______ _____ _____    ______ ____

>  <TORSDO>
F 16

$$$$
=
 OpenBabel11032420443D

 45 48  0  0  1  0  0  0  0  0999 V2000
  186.3810  178.2670  137.2160 C   0  0  1  0  0  3  0  0  0  0  0  0
  185.3430  177.8340  138.2470 C   0  0  0  0  0  2  0  0  0  0  0  0
  182.3380  178.7020  140.0080 C   0  0  0  0  0  3  0  0  0  0  0  0
  183.1850  178.6390  139.0130 C   0  0  0  0  0  0  0  0  0  0  0  0
  184.0510  178.5530  138.0400 C   0  0  0  0  0  3  0  0  0  0  0  0
  184.8970  178.6820  142.7080 C   0  0  0  0  0  3  0  0  0  0  0  0
  183.2150  179.0300  144.4760 C   0  0  0  0  0  0  0  0  0  0  0  0
  183.2770  178.8960  145.8240 F   0  0  0  0  0  0  0  0  0  0  0  0
  182.0750  178.7190  143.8590 C   0  0  0  0  0  3  0  0  0  0  0  0
  184.1700  178.2760  141.6660 C   0  0  0  0  0  3  0  0  0  0  0  0
  185.3920  179.9430  144.6220 F   0  0  0  0  0  0  0  0  0  0  0  0
  184.3770  179.6220  143.7410 C   0  0  1  0  0  3  0  0  0  0  0  0
  181.8430  178.7780  142.4000 C   0  0  0  0  0  3  0  0  0  0  0  0
  182.7560  178.6300  141.4200 C   0  0  0  0  0  0  0  0  0  0  0  0
  187.5520  178.8610  137.8580 N   0  0  0  0  0  2  0  0  0  0  0  0
  188.3540  177.7990  139.9070 C   0  0  0  0  0  3  0  0  0  0  0  0
  189.7770  177.7710  137.9630 C   0  0  0  0  0  3  0  0  0  0  0  0
  189.3280  177.0830  140.6140 C   0  0  0  0  0  0  0  0  0  0  0  0
  188.5700  178.1430  138.5700 C   0  0  0  0  0  0  0  0  0  0  0  0
  190.5120  176.7290  139.9660 C   0  0  0  0  0  3  0  0  0  0  0  0
  190.7130  177.0800  138.6670 N   0  0  0  0  0  0  0  0  0  0  0  0
  189.1370  176.7160  141.9840 N   0  0  0  0  0  2  0  0  0  0  0  0
  189.9850  177.1890  143.0720 C   0  0  2  0  0  3  0  0  0  0  0  0
  191.1430  176.2290  143.2940 C   0  0  0  0  0  1  0  0  0  0  0  0
  189.0800  177.7350  146.6860 C   0  0  0  0  0  0  0  0  0  0  0  0
  187.7250  177.6290  146.6630 C   0  0  0  0  0  0  0  0  0  0  0  0
  189.4970  177.9890  147.9770 O   0  0  0  0  0  0  0  0  0  0  0  0
  189.1840  177.3420  144.3250 C   0  0  0  0  0  0  0  0  0  0  0  0
  187.7700  177.2290  144.3040 C   0  0  0  0  0  3  0  0  0  0  0  0
  187.0230  177.3750  145.4870 C   0  0  0  0  0  3  0  0  0  0  0  0
  189.8530  177.5970  145.5370 C   0  0  0  0  0  3  0  0  0  0  0  0
  187.2280  177.8080  147.9390 O   0  0  0  0  0  0  0  0  0  0  0  0
  188.3360  178.0480  148.8190 C   0  0  0  0  0  2  0  0  0  0  0  0
  186.7870  177.1090  136.3120 C   0  0  0  0  0  2  0  0  0  0  0  0
  186.2850  175.7780  136.8670 C   0  0  0  0  0  2  0  0  0  0  0  0
  187.4430  174.8650  137.2470 C   0  0  0  0  0  2  0  0  0  0  0  0
  187.4570  173.6150  136.3860 C   0  0  0  0  0  2  0  0  0  0  0  0
  188.6440  173.6450  135.4410 C   0  0  0  0  0  2  0  0  0  0  0  0
  189.9410  173.4870  136.2200 C   0  0  0  0  0  2  0  0  0  0  0  0
  192.9490  175.6400  135.9630 N   0  0  0  0  0  2  0  0  0  0  0  0
  190.9530  174.4140  135.7360 N   0  0  0  0  0  0  0  0  0  0  0  0
  191.9700  174.7350  136.4670 C   0  0  0  0  0  3  0  0  0  0  0  0
  194.0710  175.9960  136.7240 N   0  0  0  0  0  0  0  0  0  0  0  0
  195.2930  176.1980  136.1230 O   0  0  0  0  0  0  0  0  0  0  0  0
  193.9570  176.1490  137.9570 O   0  0  0  0  0  0  0  0  0  0  0  0
  1 34  1  1  0  0  0
  1 15  1  0  0  0  0
  1  2  1  0  0  0  0
  3 14  1  0  0  0  0
  4  3  2  0  0  0  0
  5  2  1  0  0  0  0
  5  4  2  0  0  0  0
  6 12  1  0  0  0  0
  7  8  1  0  0  0  0
  9  7  2  0  0  0  0
 10  6  2  0  0  0  0
 12  7  1  0  0  0  0
 12 11  1  1  0  0  0
 13  9  1  0  0  0  0
 14 10  1  0  0  0  0
 14 13  2  0  0  0  0
 15 19  1  0  0  0  0
 16 18  1  0  0  0  0
 17 19  1  0  0  0  0
 17 21  2  0  0  0  0
 18 22  1  0  0  0  0
 19 16  2  0  0  0  0
 20 18  2  0  0  0  0
 21 20  1  0  0  0  0
 22 23  1  0  0  0  0
 23 24  1  1  0  0  0
 23 28  1  0  0  0  0
 25 27  1  0  0  0  0
 26 25  1  0  0  0  0
 26 32  1  0  0  0  0
 27 33  1  0  0  0  0
 28 31  1  0  0  0  0
 29 28  2  0  0  0  0
 29 30  1  0  0  0  0
 30 26  2  0  0  0  0
 31 25  2  0  0  0  0
 32 33  1  0  0  0  0
 34 35  1  0  0  0  0
 35 36  1  0  0  0  0
 37 36  1  0  0  0  0
 38 39  1  0  0  0  0
 38 37  1  0  0  0  0
 40 42  1  0  0  0  0
 40 43  1  0  0  0  0
 41 39  1  0  0  0  0
 41 42  2  0  0  0  0
 43 45  2  0  0  0  0
 44 43  2  0  0  0  0
M  END
>  <MODEL>
3

>  <REMARK>
 VINA RESULT:      -8.3      3.617      8.422
  Name = 
  16 active torsions:
  status: ('A' for Active; 'I' for Inactive)
    1  A    between atoms: C_1  and  C_44
    2  A    between atoms: C_2  and  C_31
    3  A    between atoms: C_2  and  C_39
    4  A    between atoms: C_4  and  N_8
    5  A    between atoms: C_4  and  C_21
    6  A    between atoms: C_5  and  N_25
    7  A    between atoms: C_5  and  C_34
    8  A    between atoms: N_6  and  N_11
    9  A    between atoms: C_7  and  C_27
   10  A    between atoms: C_7  and  C_34
   11  A    between atoms: N_8  and  C_26
   12  A    between atoms: C_27  and  C_39
   13  A    between atoms: C_30  and  C_42
   14  A    between atoms: C_31  and  N_37
   15  A    between atoms: C_31  and  C_42
   16  A    between atoms: C_36  and  N_37
                            x       y       z     vdW  Elec       q    Type
                         _______ _______ _______ _____ _____    ______ ____

>  <TORSDO>
F 16

$$$$
=
 OpenBabel11032420443D

 45 48  0  0  1  0  0  0  0  0999 V2000
  183.7660  178.7110  143.7460 C   0  0  1  0  0  3  0  0  0  0  0  0
  184.6580  179.6580  144.5440 C   0  0  0  0  0  2  0  0  0  0  0  0
  187.0250  177.3340  145.9140 C   0  0  0  0  0  3  0  0  0  0  0  0
  186.0380  178.1930  145.8990 C   0  0  0  0  0  0  0  0  0  0  0  0
  185.0550  179.0490  145.8470 C   0  0  0  0  0  3  0  0  0  0  0  0
  188.3500  176.8480  142.4720 C   0  0  0  0  0  3  0  0  0  0  0  0
  190.4580  178.0190  142.9830 C   0  0  0  0  0  0  0  0  0  0  0  0
  191.6430  178.0790  142.3270 F   0  0  0  0  0  0  0  0  0  0  0  0
  190.4700  178.0290  144.3170 C   0  0  0  0  0  3  0  0  0  0  0  0
  187.8550  176.5630  143.6770 C   0  0  0  0  0  3  0  0  0  0  0  0
  189.4460  178.1390  140.8500 F   0  0  0  0  0  0  0  0  0  0  0  0
  189.1810  178.0560  142.2030 C   0  0  1  0  0  3  0  0  0  0  0  0
  189.2790  177.9400  145.1880 C   0  0  0  0  0  3  0  0  0  0  0  0
  188.1050  177.3400  144.9100 C   0  0  0  0  0  0  0  0  0  0  0  0
  182.5750  179.3970  143.2470 N   0  0  0  0  0  2  0  0  0  0  0  0
  181.6390  178.5300  141.1650 C   0  0  0  0  0  3  0  0  0  0  0  0
  180.2960  178.4240  143.1630 C   0  0  0  0  0  3  0  0  0  0  0  0
  180.6020  177.9160  140.4510 C   0  0  0  0  0  0  0  0  0  0  0  0
  181.4950  178.7830  142.5310 C   0  0  0  0  0  0  0  0  0  0  0  0
  179.4290  177.5700  141.1230 C   0  0  0  0  0  3  0  0  0  0  0  0
  179.2990  177.8320  142.4520 N   0  0  0  0  0  0  0  0  0  0  0  0
  180.7190  177.6430  139.0510 N   0  0  0  0  0  2  0  0  0  0  0  0
  181.6840  178.3020  138.1790 C   0  0  2  0  0  3  0  0  0  0  0  0
  180.9660  179.1720  137.1600 C   0  0  0  0  0  1  0  0  0  0  0  0
  183.7330  175.2100  137.5310 C   0  0  0  0  0  0  0  0  0  0  0  0
  184.1240  175.3880  136.2420 C   0  0  0  0  0  0  0  0  0  0  0  0
  184.2430  174.0170  138.0030 O   0  0  0  0  0  0  0  0  0  0  0  0
  182.5390  177.2870  137.4910 C   0  0  0  0  0  0  0  0  0  0  0  0
  182.9510  177.4720  136.1470 C   0  0  0  0  0  3  0  0  0  0  0  0
  183.7540  176.5110  135.5050 C   0  0  0  0  0  3  0  0  0  0  0  0
  182.9390  176.1370  138.1990 C   0  0  0  0  0  3  0  0  0  0  0  0
  184.9010  174.3180  135.8440 O   0  0  0  0  0  0  0  0  0  0  0  0
  185.0000  173.4060  136.9470 C   0  0  0  0  0  2  0  0  0  0  0  0
  184.5300  178.0520  142.6050 C   0  0  0  0  0  2  0  0  0  0  0  0
  185.3850  179.0710  141.8560 C   0  0  0  0  0  2  0  0  0  0  0  0
  185.1480  178.9930  140.3530 C   0  0  0  0  0  2  0  0  0  0  0  0
  186.3260  178.3440  139.6490 C   0  0  0  0  0  2  0  0  0  0  0  0
  186.0440  178.2250  138.1620 C   0  0  0  0  0  2  0  0  0  0  0  0
  187.3500  178.1760  137.3820 C   0  0  0  0  0  2  0  0  0  0  0  0
  188.2500  174.6920  136.4870 N   0  0  0  0  0  2  0  0  0  0  0  0
  187.4860  176.9100  136.6770 N   0  0  0  0  0  0  0  0  0  0  0  0
  188.1390  175.9230  137.1970 C   0  0  0  0  0  3  0  0  0  0  0  0
  188.9370  173.5980  137.0290 N   0  0  0  0  0  0  0  0  0  0  0  0
  188.3580  172.3490  137.0610 O   0  0  0  0  0  0  0  0  0  0  0  0
  190.0930  173.7540  137.4710 O   0  0  0  0  0  0  0  0  0  0  0  0
  1 34  1  6  0  0  0
  1  2  1  0  0  0  0
  2  5  1  0  0  0  0
  4  3  2  0  0  0  0
  5  4  2  0  0  0  0
  6 10  2  0  0  0  0
  7  9  2  0  0  0  0
  8  7  1  0  0  0  0
  9 13  1  0  0  0  0
 10 14  1  0  0  0  0
 12 11  1  6  0  0  0
 12  6  1  0  0  0  0
 12  7  1  0  0  0  0
 14 13  2  0  0  0  0
 14  3  1  0  0  0  0
 15  1  1  0  0  0  0
 16 19  1  0  0  0  0
 18 20  1  0  0  0  0
 18 16  2  0  0  0  0
 19 17  2  0  0  0  0
 19 15  1  0  0  0  0
 20 21  2  0  0  0  0
 21 17  1  0  0  0  0
 22 18  1  0  0  0  0
 23 24  1  6  0  0  0
 23 22  1  0  0  0  0
 25 27  1  0  0  0  0
 25 31  1  0  0  0  0
 26 25  2  0  0  0  0
 28 23  1  0  0  0  0
 28 31  2  0  0  0  0
 29 28  1  0  0  0  0
 30 29  2  0  0  0  0
 30 26  1  0  0  0  0
 32 26  1  0  0  0  0
 32 33  1  0  0  0  0
 33 27  1  0  0  0  0
 35 34  1  0  0  0  0
 36 35  1  0  0  0  0
 37 36  1  0  0  0  0
 38 37  1  0  0  0  0
 39 38  1  0  0  0  0
 40 43  1  0  0  0  0
 40 42  1  0  0  0  0
 41 42  2  0  0  0  0
 41 39  1  0  0  0  0
 43 44  2  0  0  0  0
 43 45  2  0  0  0  0
M  END
>  <MODEL>
4

>  <REMARK>
 VINA RESULT:      -8.3      2.194      2.883
  Name = 
  16 active torsions:
  status: ('A' for Active; 'I' for Inactive)
    1  A    between atoms: C_1  and  C_44
    2  A    between atoms: C_2  and  C_31
    3  A    between atoms: C_2  and  C_39
    4  A    between atoms: C_4  and  N_8
    5  A    between atoms: C_4  and  C_21
    6  A    between atoms: C_5  and  N_25
    7  A    between atoms: C_5  and  C_34
    8  A    between atoms: N_6  and  N_11
    9  A    between atoms: C_7  and  C_27
   10  A    between atoms: C_7  and  C_34
   11  A    between atoms: N_8  and  C_26
   12  A    between atoms: C_27  and  C_39
   13  A    between atoms: C_30  and  C_42
   14  A    between atoms: C_31  and  N_37
   15  A    between atoms: C_31  and  C_42
   16  A    between atoms: C_36  and  N_37
                            x       y       z     vdW  Elec       q    Type
                         _______ _______ _______ _____ _____    ______ ____

>  <TORSDO>
F 16

$$$$
=
 OpenBabel11032420443D

 45 48  0  0  1  0  0  0  0  0999 V2000
  186.2490  178.1040  137.2400 C   0  0  1  0  0  3  0  0  0  0  0  0
  185.1570  177.7060  138.2280 C   0  0  0  0  0  2  0  0  0  0  0  0
  182.3700  178.9290  140.1310 C   0  0  0  0  0  3  0  0  0  0  0  0
  183.1560  178.7700  139.0980 C   0  0  0  0  0  0  0  0  0  0  0  0
  183.9590  178.5850  138.0850 C   0  0  0  0  0  3  0  0  0  0  0  0
  185.0130  178.9070  142.7480 C   0  0  0  0  0  3  0  0  0  0  0  0
  183.3710  179.0070  144.5850 C   0  0  0  0  0  0  0  0  0  0  0  0
  183.4870  178.7840  145.9170 F   0  0  0  0  0  0  0  0  0  0  0  0
  182.2350  178.6580  143.9790 C   0  0  0  0  0  3  0  0  0  0  0  0
  184.2820  178.5240  141.7010 C   0  0  0  0  0  3  0  0  0  0  0  0
  185.4810  180.0640  144.7330 F   0  0  0  0  0  0  0  0  0  0  0  0
  184.4620  179.7330  143.8610 C   0  0  1  0  0  3  0  0  0  0  0  0
  181.9510  178.8010  142.5350 C   0  0  0  0  0  3  0  0  0  0  0  0
  182.8390  178.7890  141.5220 C   0  0  0  0  0  0  0  0  0  0  0  0
  187.3610  178.7690  137.9170 N   0  0  0  0  0  2  0  0  0  0  0  0
  188.3690  177.7650  139.9020 C   0  0  0  0  0  3  0  0  0  0  0  0
  189.6430  177.8020  137.8570 C   0  0  0  0  0  3  0  0  0  0  0  0
  189.4310  177.1070  140.5370 C   0  0  0  0  0  0  0  0  0  0  0  0
  188.4660  178.1120  138.5520 C   0  0  0  0  0  0  0  0  0  0  0  0
  190.5810  176.8140  139.8030 C   0  0  0  0  0  3  0  0  0  0  0  0
  190.6650  177.1660  138.4920 N   0  0  0  0  0  0  0  0  0  0  0  0
  189.3620  176.7390  141.9180 N   0  0  0  0  0  2  0  0  0  0  0  0
  190.0760  177.4430  142.9770 C   0  0  2  0  0  3  0  0  0  0  0  0
  191.4060  176.7620  143.2590 C   0  0  0  0  0  1  0  0  0  0  0  0
  189.0680  177.7880  146.5890 C   0  0  0  0  0  0  0  0  0  0  0  0
  187.7230  177.6030  146.5310 C   0  0  0  0  0  0  0  0  0  0  0  0
  189.4440  178.0130  147.8980 O   0  0  0  0  0  0  0  0  0  0  0  0
  189.2430  177.4970  144.2160 C   0  0  0  0  0  0  0  0  0  0  0  0
  187.8390  177.3020  144.1600 C   0  0  0  0  0  3  0  0  0  0  0  0
  187.0610  177.3560  145.3310 C   0  0  0  0  0  3  0  0  0  0  0  0
  189.8720  177.7420  145.4520 C   0  0  0  0  0  3  0  0  0  0  0  0
  187.1910  177.7000  147.8020 O   0  0  0  0  0  0  0  0  0  0  0  0
  188.2650  177.9690  148.7150 C   0  0  0  0  0  2  0  0  0  0  0  0
  186.7400  176.9050  136.4380 C   0  0  0  0  0  2  0  0  0  0  0  0
  185.9450  175.6490  136.7840 C   0  0  0  0  0  2  0  0  0  0  0  0
  186.8660  174.5080  137.1960 C   0  0  0  0  0  2  0  0  0  0  0  0
  186.3870  173.1870  136.6230 C   0  0  0  0  0  2  0  0  0  0  0  0
  185.2160  172.6600  137.4330 C   0  0  0  0  0  2  0  0  0  0  0  0
  184.1710  172.0480  136.5110 C   0  0  0  0  0  2  0  0  0  0  0  0
  181.4490  174.3480  137.5340 N   0  0  0  0  0  2  0  0  0  0  0  0
  182.8630  172.6400  136.7450 N   0  0  0  0  0  0  0  0  0  0  0  0
  182.7440  173.7900  137.3230 C   0  0  0  0  0  3  0  0  0  0  0  0
  181.2860  175.5990  138.1430 N   0  0  0  0  0  0  0  0  0  0  0  0
  180.8970  176.6950  137.4060 O   0  0  0  0  0  0  0  0  0  0  0  0
  181.4790  175.7170  139.3700 O   0  0  0  0  0  0  0  0  0  0  0  0
  1 34  1  1  0  0  0
  1 15  1  0  0  0  0
  1  2  1  0  0  0  0
  3 14  1  0  0  0  0
  4  3  2  0  0  0  0
  5  2  1  0  0  0  0
  5  4  2  0  0  0  0
  6 12  1  0  0  0  0
  7  8  1  0  0  0  0
  9  7  2  0  0  0  0
 10  6  2  0  0  0  0
 12  7  1  0  0  0  0
 12 11  1  1  0  0  0
 13  9  1  0  0  0  0
 14 10  1  0  0  0  0
 14 13  2  0  0  0  0
 15 19  1  0  0  0  0
 16 18  1  0  0  0  0
 17 21  2  0  0  0  0
 17 19  1  0  0  0  0
 18 22  1  0  0  0  0
 19 16  2  0  0  0  0
 20 18  2  0  0  0  0
 21 20  1  0  0  0  0
 22 23  1  0  0  0  0
 23 24  1  1  0  0  0
 23 28  1  0  0  0  0
 25 27  1  0  0  0  0
 26 25  1  0  0  0  0
 26 32  1  0  0  0  0
 27 33  1  0  0  0  0
 28 31  1  0  0  0  0
 29 28  2  0  0  0  0
 29 30  1  0  0  0  0
 30 26  2  0  0  0  0
 31 25  2  0  0  0  0
 32 33  1  0  0  0  0
 34 35  1  0  0  0  0
 35 36  1  0  0  0  0
 37 36  1  0  0  0  0
 37 38  1  0  0  0  0
 39 41  1  0  0  0  0
 39 38  1  0  0  0  0
 40 43  1  0  0  0  0
 41 42  2  0  0  0  0
 42 40  1  0  0  0  0
 43 45  2  0  0  0  0
 44 43  2  0  0  0  0
M  END
>  <MODEL>
5

>  <REMARK>
 VINA RESULT:      -8.2      3.570      9.270
  Name = 
  16 active torsions:
  status: ('A' for Active; 'I' for Inactive)
    1  A    between atoms: C_1  and  C_44
    2  A    between atoms: C_2  and  C_31
    3  A    between atoms: C_2  and  C_39
    4  A    between atoms: C_4  and  N_8
    5  A    between atoms: C_4  and  C_21
    6  A    between atoms: C_5  and  N_25
    7  A    between atoms: C_5  and  C_34
    8  A    between atoms: N_6  and  N_11
    9  A    between atoms: C_7  and  C_27
   10  A    between atoms: C_7  and  C_34
   11  A    between atoms: N_8  and  C_26
   12  A    between atoms: C_27  and  C_39
   13  A    between atoms: C_30  and  C_42
   14  A    between atoms: C_31  and  N_37
   15  A    between atoms: C_31  and  C_42
   16  A    between atoms: C_36  and  N_37
                            x       y       z     vdW  Elec       q    Type
                         _______ _______ _______ _____ _____    ______ ____

>  <TORSDO>
F 16

$$$$
=
 OpenBabel11032420443D

 45 48  0  0  1  0  0  0  0  0999 V2000
  184.1140  178.3490  140.7400 C   0  0  1  0  0  3  0  0  0  0  0  0
  184.9910  178.4910  141.9800 C   0  0  0  0  0  2  0  0  0  0  0  0
  184.8170  178.7420  145.5560 C   0  0  0  0  0  3  0  0  0  0  0  0
  184.5410  179.0130  144.3070 C   0  0  0  0  0  0  0  0  0  0  0  0
  184.2850  179.2560  143.0500 C   0  0  0  0  0  3  0  0  0  0  0  0
  188.1120  177.1410  144.9060 C   0  0  0  0  0  3  0  0  0  0  0  0
  188.9380  177.6280  147.1780 C   0  0  0  0  0  0  0  0  0  0  0  0
  189.9990  177.1550  147.8770 F   0  0  0  0  0  0  0  0  0  0  0  0
  187.8150  177.9100  147.8410 C   0  0  0  0  0  3  0  0  0  0  0  0
  186.7920  177.2930  145.0190 C   0  0  0  0  0  3  0  0  0  0  0  0
  190.3720  177.6300  145.2980 F   0  0  0  0  0  0  0  0  0  0  0  0
  189.0890  177.9230  145.7170 C   0  0  1  0  0  3  0  0  0  0  0  0
  186.5600  178.4030  147.2370 C   0  0  0  0  0  3  0  0  0  0  0  0
  186.1120  178.1810  145.9850 C   0  0  0  0  0  0  0  0  0  0  0  0
  182.7570  178.8290  140.9920 N   0  0  0  0  0  2  0  0  0  0  0  0
  181.4770  177.0310  139.9450 C   0  0  0  0  0  3  0  0  0  0  0  0
  180.4720  178.2520  141.7620 C   0  0  0  0  0  3  0  0  0  0  0  0
  180.3250  176.2390  139.8570 C   0  0  0  0  0  0  0  0  0  0  0  0
  181.5610  178.0420  140.9060 C   0  0  0  0  0  0  0  0  0  0  0  0
  179.2680  176.4810  140.7350 C   0  0  0  0  0  3  0  0  0  0  0  0
  179.3600  177.4760  141.6590 N   0  0  0  0  0  0  0  0  0  0  0  0
  180.2090  175.1960  138.8840 N   0  0  0  0  0  2  0  0  0  0  0  0
  180.7520  175.2890  137.5330 C   0  0  2  0  0  3  0  0  0  0  0  0
  179.6680  174.9980  136.5080 C   0  0  0  0  0  1  0  0  0  0  0  0
  184.2550  173.9150  137.3790 C   0  0  0  0  0  0  0  0  0  0  0  0
  184.0380  172.6100  137.0680 C   0  0  0  0  0  0  0  0  0  0  0  0
  185.6110  174.1390  137.4980 O   0  0  0  0  0  0  0  0  0  0  0  0
  181.8970  174.3420  137.3680 C   0  0  0  0  0  0  0  0  0  0  0  0
  181.6740  172.9810  137.0400 C   0  0  0  0  0  3  0  0  0  0  0  0
  182.7570  172.0950  136.8870 C   0  0  0  0  0  3  0  0  0  0  0  0
  183.2100  174.8220  137.5390 C   0  0  0  0  0  3  0  0  0  0  0  0
  185.2500  171.9540  136.9710 O   0  0  0  0  0  0  0  0  0  0  0  0
  186.2920  172.9010  137.2460 C   0  0  0  0  0  2  0  0  0  0  0  0
  184.7260  179.0570  139.5380 C   0  0  0  0  0  2  0  0  0  0  0  0
  184.6980  178.1630  138.3010 C   0  0  0  0  0  2  0  0  0  0  0  0
  186.0940  177.6720  137.9410 C   0  0  0  0  0  2  0  0  0  0  0  0
  186.8570  178.7230  137.1560 C   0  0  0  0  0  2  0  0  0  0  0  0
  188.3500  178.4760  137.2670 C   0  0  0  0  0  2  0  0  0  0  0  0
  188.6520  176.9940  137.0970 C   0  0  0  0  0  2  0  0  0  0  0  0
  190.4330  176.3540  140.2860 N   0  0  0  0  0  2  0  0  0  0  0  0
  189.6230  176.5460  138.0850 N   0  0  0  0  0  0  0  0  0  0  0  0
  189.4690  176.8110  139.3400 C   0  0  0  0  0  3  0  0  0  0  0  0
  190.2880  176.6110  141.6560 N   0  0  0  0  0  0  0  0  0  0  0  0
  190.0850  177.8930  142.1140 O   0  0  0  0  0  0  0  0  0  0  0  0
  190.3260  175.6640  142.4670 O   0  0  0  0  0  0  0  0  0  0  0  0
  1 34  1  6  0  0  0
  1 15  1  0  0  0  0
  1  2  1  0  0  0  0
  2  5  1  0  0  0  0
  3 14  1  0  0  0  0
  4  3  2  0  0  0  0
  5  4  2  0  0  0  0
  6 10  2  0  0  0  0
  6 12  1  0  0  0  0
  7  9  2  0  0  0  0
  7  8  1  0  0  0  0
 10 14  1  0  0  0  0
 12 11  1  6  0  0  0
 12  7  1  0  0  0  0
 13  9  1  0  0  0  0
 14 13  2  0  0  0  0
 16 19  1  0  0  0  0
 18 16  2  0  0  0  0
 18 20  1  0  0  0  0
 19 15  1  0  0  0  0
 19 17  2  0  0  0  0
 20 21  2  0  0  0  0
 21 17  1  0  0  0  0
 22 18  1  0  0  0  0
 23 24  1  6  0  0  0
 23 22  1  0  0  0  0
 25 27  1  0  0  0  0
 25 31  1  0  0  0  0
 26 25  2  0  0  0  0
 28 23  1  0  0  0  0
 28 31  2  0  0  0  0
 29 28  1  0  0  0  0
 30 29  2  0  0  0  0
 30 26  1  0  0  0  0
 32 26  1  0  0  0  0
 32 33  1  0  0  0  0
 33 27  1  0  0  0  0
 35 34  1  0  0  0  0
 36 35  1  0  0  0  0
 37 38  1  0  0  0  0
 37 36  1  0  0  0  0
 39 38  1  0  0  0  0
 39 41  1  0  0  0  0
 40 43  1  0  0  0  0
 41 42  2  0  0  0  0
 42 40  1  0  0  0  0
 43 44  2  0  0  0  0
 43 45  2  0  0  0  0
M  END
>  <MODEL>
6

>  <REMARK>
 VINA RESULT:      -8.2      2.545      3.757
  Name = 
  16 active torsions:
  status: ('A' for Active; 'I' for Inactive)
    1  A    between atoms: C_1  and  C_44
    2  A    between atoms: C_2  and  C_31
    3  A    between atoms: C_2  and  C_39
    4  A    between atoms: C_4  and  N_8
    5  A    between atoms: C_4  and  C_21
    6  A    between atoms: C_5  and  N_25
    7  A    between atoms: C_5  and  C_34
    8  A    between atoms: N_6  and  N_11
    9  A    between atoms: C_7  and  C_27
   10  A    between atoms: C_7  and  C_34
   11  A    between atoms: N_8  and  C_26
   12  A    between atoms: C_27  and  C_39
   13  A    between atoms: C_30  and  C_42
   14  A    between atoms: C_31  and  N_37
   15  A    between atoms: C_31  and  C_42
   16  A    between atoms: C_36  and  N_37
                            x       y       z     vdW  Elec       q    Type
                         _______ _______ _______ _____ _____    ______ ____

>  <TORSDO>
F 16

$$$$
=
 OpenBabel11032420443D

 45 48  0  0  1  0  0  0  0  0999 V2000
  187.7080  178.0570  139.3910 C   0  0  1  0  0  3  0  0  0  0  0  0
  187.4700  178.2810  140.8810 C   0  0  0  0  0  2  0  0  0  0  0  0
  184.9310  178.5870  143.4000 C   0  0  0  0  0  3  0  0  0  0  0  0
  185.5310  178.7790  142.2540 C   0  0  0  0  0  0  0  0  0  0  0  0
  186.1550  178.9460  141.1190 C   0  0  0  0  0  3  0  0  0  0  0  0
  187.8380  177.2010  145.2630 C   0  0  0  0  0  3  0  0  0  0  0  0
  187.1310  178.2380  147.3850 C   0  0  0  0  0  0  0  0  0  0  0  0
  187.5160  178.0270  148.6680 F   0  0  0  0  0  0  0  0  0  0  0  0
  185.8560  178.5490  147.1470 C   0  0  0  0  0  3  0  0  0  0  0  0
  186.7350  177.2490  144.5140 C   0  0  0  0  0  3  0  0  0  0  0  0
  189.4120  177.9730  146.8200 F   0  0  0  0  0  0  0  0  0  0  0  0
  188.1590  178.2270  146.2960 C   0  0  1  0  0  3  0  0  0  0  0  0
  185.2620  178.7810  145.8140 C   0  0  0  0  0  3  0  0  0  0  0  0
  185.6600  178.2550  144.6380 C   0  0  0  0  0  0  0  0  0  0  0  0
  186.6280  178.6280  138.5890 N   0  0  0  0  0  2  0  0  0  0  0  0
  184.4770  177.5640  138.1350 C   0  0  0  0  0  3  0  0  0  0  0  0
  186.1720  177.5110  136.4230 C   0  0  0  0  0  3  0  0  0  0  0  0
  183.6120  176.8660  137.2820 C   0  0  0  0  0  0  0  0  0  0  0  0
  185.7640  177.8980  137.7070 C   0  0  0  0  0  0  0  0  0  0  0  0
  184.0590  176.5070  136.0100 C   0  0  0  0  0  3  0  0  0  0  0  0
  185.3190  176.8300  135.6110 N   0  0  0  0  0  0  0  0  0  0  0  0
  182.2880  176.5090  137.6910 N   0  0  0  0  0  2  0  0  0  0  0  0
  181.1730  177.4490  137.7210 C   0  0  2  0  0  3  0  0  0  0  0  0
  181.6070  178.8000  137.1770 C   0  0  0  0  0  1  0  0  0  0  0  0
  180.3300  178.9070  141.0890 C   0  0  0  0  0  0  0  0  0  0  0  0
  179.6900  177.8750  141.6980 C   0  0  0  0  0  0  0  0  0  0  0  0
  180.3790  179.9870  141.9470 O   0  0  0  0  0  0  0  0  0  0  0  0
  180.6490  177.5880  139.1140 C   0  0  0  0  0  0  0  0  0  0  0  0
  179.9840  176.5110  139.7530 C   0  0  0  0  0  3  0  0  0  0  0  0
  179.4920  176.6500  141.0640 C   0  0  0  0  0  3  0  0  0  0  0  0
  180.8300  178.8080  139.7930 C   0  0  0  0  0  3  0  0  0  0  0  0
  179.3090  178.2560  142.9690 O   0  0  0  0  0  0  0  0  0  0  0  0
  179.7290  179.6130  143.1710 C   0  0  0  0  0  2  0  0  0  0  0  0
  189.0590  178.6070  138.9520 C   0  0  0  0  0  2  0  0  0  0  0  0
  189.8360  177.5720  138.1420 C   0  0  0  0  0  2  0  0  0  0  0  0
  190.6730  176.6760  139.0470 C   0  0  0  0  0  2  0  0  0  0  0  0
  191.0930  177.4130  140.3050 C   0  0  0  0  0  2  0  0  0  0  0  0
  190.8830  176.5300  141.5220 C   0  0  0  0  0  2  0  0  0  0  0  0
  191.0870  177.3360  142.7970 C   0  0  0  0  0  2  0  0  0  0  0  0
  191.5360  175.8530  146.1660 N   0  0  0  0  0  2  0  0  0  0  0  0
  190.9650  176.4860  143.9720 N   0  0  0  0  0  0  0  0  0  0  0  0
  191.6810  176.6980  145.0270 C   0  0  0  0  0  3  0  0  0  0  0  0
  192.2850  176.0660  147.3310 N   0  0  0  0  0  0  0  0  0  0  0  0
  192.0350  177.1510  148.1410 O   0  0  0  0  0  0  0  0  0  0  0  0
  193.1780  175.2530  147.6460 O   0  0  0  0  0  0  0  0  0  0  0  0
  1 34  1  6  0  0  0
  1  2  1  0  0  0  0
  2  5  1  0  0  0  0
  3 14  1  0  0  0  0
  4  3  2  0  0  0  0
  5  4  2  0  0  0  0
  6 12  1  0  0  0  0
  7  8  1  0  0  0  0
  9  7  2  0  0  0  0
 10 14  1  0  0  0  0
 10  6  2  0  0  0  0
 12 11  1  1  0  0  0
 12  7  1  0  0  0  0
 13  9  1  0  0  0  0
 14 13  2  0  0  0  0
 15  1  1  0  0  0  0
 17 19  2  0  0  0  0
 18 22  1  0  0  0  0
 18 16  2  0  0  0  0
 19 16  1  0  0  0  0
 19 15  1  0  0  0  0
 20 18  1  0  0  0  0
 21 20  2  0  0  0  0
 21 17  1  0  0  0  0
 22 23  1  0  0  0  0
 23 24  1  1  0  0  0
 23 28  1  0  0  0  0
 25 26  1  0  0  0  0
 25 27  1  0  0  0  0
 26 32  1  0  0  0  0
 27 33  1  0  0  0  0
 28 29  2  0  0  0  0
 28 31  1  0  0  0  0
 29 30  1  0  0  0  0
 30 26  2  0  0  0  0
 31 25  2  0  0  0  0
 32 33  1  0  0  0  0
 35 34  1  0  0  0  0
 35 36  1  0  0  0  0
 36 37  1  0  0  0  0
 37 38  1  0  0  0  0
 38 39  1  0  0  0  0
 39 41  1  0  0  0  0
 40 43  1  0  0  0  0
 41 42  2  0  0  0  0
 42 40  1  0  0  0  0
 43 45  2  0  0  0  0
 43 44  2  0  0  0  0
M  END
>  <MODEL>
7

>  <REMARK>
 VINA RESULT:      -8.1      3.679      6.020
  Name = 
  16 active torsions:
  status: ('A' for Active; 'I' for Inactive)
    1  A    between atoms: C_1  and  C_44
    2  A    between atoms: C_2  and  C_31
    3  A    between atoms: C_2  and  C_39
    4  A    between atoms: C_4  and  N_8
    5  A    between atoms: C_4  and  C_21
    6  A    between atoms: C_5  and  N_25
    7  A    between atoms: C_5  and  C_34
    8  A    between atoms: N_6  and  N_11
    9  A    between atoms: C_7  and  C_27
   10  A    between atoms: C_7  and  C_34
   11  A    between atoms: N_8  and  C_26
   12  A    between atoms: C_27  and  C_39
   13  A    between atoms: C_30  and  C_42
   14  A    between atoms: C_31  and  N_37
   15  A    between atoms: C_31  and  C_42
   16  A    between atoms: C_36  and  N_37
                            x       y       z     vdW  Elec       q    Type
                         _______ _______ _______ _____ _____    ______ ____

>  <TORSDO>
F 16

$$$$
=
 OpenBabel11032420443D

 45 48  0  0  1  0  0  0  0  0999 V2000
  182.9080  177.7200  139.4550 C   0  0  1  0  0  3  0  0  0  0  0  0
  182.6820  176.2110  139.4320 C   0  0  0  0  0  2  0  0  0  0  0  0
  179.4660  177.7960  139.5880 C   0  0  0  0  0  3  0  0  0  0  0  0
  180.3420  176.8250  139.6200 C   0  0  0  0  0  0  0  0  0  0  0  0
  181.2420  175.8810  139.6500 C   0  0  0  0  0  3  0  0  0  0  0  0
  180.3550  181.3980  139.3110 C   0  0  0  0  0  3  0  0  0  0  0  0
  180.5860  181.2810  136.8590 C   0  0  0  0  0  0  0  0  0  0  0  0
  180.6560  182.2450  135.9080 F   0  0  0  0  0  0  0  0  0  0  0  0
  179.9610  180.1400  136.5620 C   0  0  0  0  0  3  0  0  0  0  0  0
  179.6660  180.2950  139.6090 C   0  0  0  0  0  3  0  0  0  0  0  0
  181.9440  182.6970  138.1780 F   0  0  0  0  0  0  0  0  0  0  0  0
  181.3000  181.4750  138.1600 C   0  0  1  0  0  3  0  0  0  0  0  0
  179.7670  179.0000  137.4830 C   0  0  0  0  0  3  0  0  0  0  0  0
  179.6790  179.0410  138.8270 C   0  0  0  0  0  0  0  0  0  0  0  0
  183.9110  178.0900  140.4520 N   0  0  0  0  0  2  0  0  0  0  0  0
  184.7120  178.6210  142.6980 C   0  0  0  0  0  3  0  0  0  0  0  0
  182.3370  178.6280  142.2910 C   0  0  0  0  0  3  0  0  0  0  0  0
  184.4720  178.9850  144.0290 C   0  0  0  0  0  0  0  0  0  0  0  0
  183.6430  178.4460  141.8160 C   0  0  0  0  0  0  0  0  0  0  0  0
  183.1560  179.1610  144.4560 C   0  0  0  0  0  3  0  0  0  0  0  0
  182.1240  178.9780  143.5890 N   0  0  0  0  0  0  0  0  0  0  0  0
  185.5460  179.1710  144.9570 N   0  0  0  0  0  2  0  0  0  0  0  0
  185.9510  178.1680  145.9340 C   0  0  2  0  0  3  0  0  0  0  0  0
  185.8450  178.7320  147.3430 C   0  0  0  0  0  1  0  0  0  0  0  0
  189.5160  177.0710  146.4500 C   0  0  0  0  0  0  0  0  0  0  0  0
  189.9380  176.8560  145.1760 C   0  0  0  0  0  0  0  0  0  0  0  0
  190.5470  176.7970  147.3260 O   0  0  0  0  0  0  0  0  0  0  0  0
  187.3460  177.7080  145.6580 C   0  0  0  0  0  0  0  0  0  0  0  0
  187.7900  177.4860  144.3300 C   0  0  0  0  0  3  0  0  0  0  0  0
  189.1040  177.0520  144.0770 C   0  0  0  0  0  3  0  0  0  0  0  0
  188.2240  177.5010  146.7390 C   0  0  0  0  0  3  0  0  0  0  0  0
  191.2550  176.4410  145.1920 O   0  0  0  0  0  0  0  0  0  0  0  0
  191.6870  176.3840  146.5590 C   0  0  0  0  0  2  0  0  0  0  0  0
  183.2890  178.2490  138.0790 C   0  0  0  0  0  2  0  0  0  0  0  0
  183.0740  177.1870  137.0030 C   0  0  0  0  0  2  0  0  0  0  0  0
  184.2970  177.0540  136.1050 C   0  0  0  0  0  2  0  0  0  0  0  0
  185.4290  176.3470  136.8270 C   0  0  0  0  0  2  0  0  0  0  0  0
  186.7290  177.1050  136.6270 C   0  0  0  0  0  2  0  0  0  0  0  0
  186.7210  178.3870  137.4480 C   0  0  0  0  0  2  0  0  0  0  0  0
  189.5150  177.5300  139.7300 N   0  0  0  0  0  2  0  0  0  0  0  0
  187.5680  178.2550  138.6240 N   0  0  0  0  0  0  0  0  0  0  0  0
  188.7030  177.6390  138.5630 C   0  0  0  0  0  3  0  0  0  0  0  0
  190.7570  176.8830  139.6950 N   0  0  0  0  0  0  0  0  0  0  0  0
  191.8600  177.4430  140.2990 O   0  0  0  0  0  0  0  0  0  0  0  0
  190.8600  175.7780  139.1240 O   0  0  0  0  0  0  0  0  0  0  0  0
  1 34  1  6  0  0  0
  1 15  1  0  0  0  0
  2  1  1  0  0  0  0
  2  5  1  0  0  0  0
  3  4  2  0  0  0  0
  4  5  2  0  0  0  0
  6 10  2  0  0  0  0
  7 12  1  0  0  0  0
  8  7  1  0  0  0  0
  9  7  2  0  0  0  0
  9 13  1  0  0  0  0
 12 11  1  6  0  0  0
 12  6  1  0  0  0  0
 13 14  2  0  0  0  0
 14  3  1  0  0  0  0
 14 10  1  0  0  0  0
 15 19  1  0  0  0  0
 16 18  1  0  0  0  0
 17 21  2  0  0  0  0
 18 20  2  0  0  0  0
 18 22  1  0  0  0  0
 19 17  1  0  0  0  0
 19 16  2  0  0  0  0
 21 20  1  0  0  0  0
 22 23  1  0  0  0  0
 23 24  1  1  0  0  0
 25 31  1  0  0  0  0
 25 27  1  0  0  0  0
 26 32  1  0  0  0  0
 26 25  2  0  0  0  0
 28 23  1  0  0  0  0
 28 31  2  0  0  0  0
 29 28  1  0  0  0  0
 30 29  2  0  0  0  0
 30 26  1  0  0  0  0
 32 33  1  0  0  0  0
 33 27  1  0  0  0  0
 35 34  1  0  0  0  0
 36 37  1  0  0  0  0
 36 35  1  0  0  0  0
 38 37  1  0  0  0  0
 38 39  1  0  0  0  0
 39 41  1  0  0  0  0
 42 41  2  0  0  0  0
 42 40  1  0  0  0  0
 43 40  1  0  0  0  0
 43 44  2  0  0  0  0
 45 43  2  0  0  0  0
M  END
>  <MODEL>
8

>  <REMARK>
 VINA RESULT:      -8.1      3.705      8.765
  Name = 
  16 active torsions:
  status: ('A' for Active; 'I' for Inactive)
    1  A    between atoms: C_1  and  C_44
    2  A    between atoms: C_2  and  C_31
    3  A    between atoms: C_2  and  C_39
    4  A    between atoms: C_4  and  N_8
    5  A    between atoms: C_4  and  C_21
    6  A    between atoms: C_5  and  N_25
    7  A    between atoms: C_5  and  C_34
    8  A    between atoms: N_6  and  N_11
    9  A    between atoms: C_7  and  C_27
   10  A    between atoms: C_7  and  C_34
   11  A    between atoms: N_8  and  C_26
   12  A    between atoms: C_27  and  C_39
   13  A    between atoms: C_30  and  C_42
   14  A    between atoms: C_31  and  N_37
   15  A    between atoms: C_31  and  C_42
   16  A    between atoms: C_36  and  N_37
                            x       y       z     vdW  Elec       q    Type
                         _______ _______ _______ _____ _____    ______ ____

>  <TORSDO>
F 16

$$$$
=
 OpenBabel11032420443D

 45 48  0  0  1  0  0  0  0  0999 V2000
  187.5580  177.9980  139.3590 C   0  0  1  0  0  3  0  0  0  0  0  0
  187.6620  178.3990  140.8280 C   0  0  0  0  0  2  0  0  0  0  0  0
  185.5570  178.2170  143.7300 C   0  0  0  0  0  3  0  0  0  0  0  0
  185.9420  178.5730  142.5320 C   0  0  0  0  0  0  0  0  0  0  0  0
  186.3530  178.9060  141.3380 C   0  0  0  0  0  3  0  0  0  0  0  0
  188.8090  176.8920  144.9580 C   0  0  0  0  0  3  0  0  0  0  0  0
  188.4290  177.7300  147.2450 C   0  0  0  0  0  0  0  0  0  0  0  0
  189.0410  177.4550  148.4240 F   0  0  0  0  0  0  0  0  0  0  0  0
  187.1180  177.9750  147.2510 C   0  0  0  0  0  3  0  0  0  0  0  0
  187.5920  176.9220  144.4120 C   0  0  0  0  0  3  0  0  0  0  0  0
  190.5880  177.6510  146.2830 F   0  0  0  0  0  0  0  0  0  0  0  0
  189.2520  177.8600  146.0010 C   0  0  1  0  0  3  0  0  0  0  0  0
  186.2910  178.2620  146.0610 C   0  0  0  0  0  3  0  0  0  0  0  0
  186.5050  177.8460  144.7970 C   0  0  0  0  0  0  0  0  0  0  0  0
  186.4680  178.7070  138.6920 N   0  0  0  0  0  2  0  0  0  0  0  0
  184.0610  178.4920  138.3410 C   0  0  0  0  0  3  0  0  0  0  0  0
  185.5420  177.1050  137.0410 C   0  0  0  0  0  3  0  0  0  0  0  0
  182.9660  177.9160  137.6830 C   0  0  0  0  0  0  0  0  0  0  0  0
  185.3600  178.0930  138.0190 C   0  0  0  0  0  0  0  0  0  0  0  0
  183.1950  176.9410  136.7120 C   0  0  0  0  0  3  0  0  0  0  0  0
  184.4660  176.5560  136.4150 N   0  0  0  0  0  0  0  0  0  0  0  0
  181.6230  178.3040  137.9900 N   0  0  0  0  0  2  0  0  0  0  0  0
  181.2800  179.5200  138.7170 C   0  0  2  0  0  3  0  0  0  0  0  0
  180.0380  179.2960  139.5650 C   0  0  0  0  0  1  0  0  0  0  0  0
  181.1170  182.9980  137.2820 C   0  0  0  0  0  0  0  0  0  0  0  0
  180.6770  182.7670  136.0180 C   0  0  0  0  0  0  0  0  0  0  0  0
  181.3010  184.3540  137.4630 O   0  0  0  0  0  0  0  0  0  0  0  0
  181.0660  180.6510  137.7630 C   0  0  0  0  0  0  0  0  0  0  0  0
  180.6050  180.4140  136.4440 C   0  0  0  0  0  3  0  0  0  0  0  0
  180.4070  181.4830  135.5510 C   0  0  0  0  0  3  0  0  0  0  0  0
  181.3250  181.9670  138.1940 C   0  0  0  0  0  3  0  0  0  0  0  0
  180.5610  183.9680  135.3450 O   0  0  0  0  0  0  0  0  0  0  0  0
  180.9580  185.0190  136.2380 C   0  0  0  0  0  2  0  0  0  0  0  0
  188.8760  178.2160  138.6270 C   0  0  0  0  0  2  0  0  0  0  0  0
  190.0610  177.7890  139.4900 C   0  0  0  0  0  2  0  0  0  0  0  0
  190.4800  176.3570  139.1850 C   0  0  0  0  0  2  0  0  0  0  0  0
  190.0550  175.9510  137.7860 C   0  0  0  0  0  2  0  0  0  0  0  0
  191.0760  175.0020  137.1850 C   0  0  0  0  0  2  0  0  0  0  0  0
  191.9160  175.7260  136.1420 C   0  0  0  0  0  2  0  0  0  0  0  0
  195.1080  175.1910  137.9500 N   0  0  0  0  0  2  0  0  0  0  0  0
  193.3130  175.7780  136.5470 N   0  0  0  0  0  0  0  0  0  0  0  0
  193.7330  175.1260  137.5810 C   0  0  0  0  0  3  0  0  0  0  0  0
  195.6000  174.4840  139.0560 N   0  0  0  0  0  0  0  0  0  0  0  0
  195.5540  173.1080  139.0880 O   0  0  0  0  0  0  0  0  0  0  0  0
  196.0990  175.1080  140.0140 O   0  0  0  0  0  0  0  0  0  0  0  0
  1 34  1  6  0  0  0
  1  2  1  0  0  0  0
  2  5  1  0  0  0  0
  3 14  1  0  0  0  0
  4  3  2  0  0  0  0
  5  4  2  0  0  0  0
  6 12  1  0  0  0  0
  7  9  2  0  0  0  0
  7  8  1  0  0  0  0
 10 14  1  0  0  0  0
 10  6  2  0  0  0  0
 12 11  1  1  0  0  0
 12  7  1  0  0  0  0
 13  9  1  0  0  0  0
 14 13  2  0  0  0  0
 15  1  1  0  0  0  0
 17 19  2  0  0  0  0
 18 22  1  0  0  0  0
 18 16  2  0  0  0  0
 19 16  1  0  0  0  0
 19 15  1  0  0  0  0
 20 18  1  0  0  0  0
 21 20  2  0  0  0  0
 21 17  1  0  0  0  0
 22 23  1  0  0  0  0
 23 24  1  6  0  0  0
 25 27  1  0  0  0  0
 25 31  1  0  0  0  0
 26 25  2  0  0  0  0
 28 31  2  0  0  0  0
 28 23  1  0  0  0  0
 29 28  1  0  0  0  0
 30 26  1  0  0  0  0
 30 29  2  0  0  0  0
 32 26  1  0  0  0  0
 32 33  1  0  0  0  0
 33 27  1  0  0  0  0
 34 35  1  0  0  0  0
 36 35  1  0  0  0  0
 37 36  1  0  0  0  0
 38 37  1  0  0  0  0
 39 41  1  0  0  0  0
 39 38  1  0  0  0  0
 40 43  1  0  0  0  0
 41 42  2  0  0  0  0
 42 40  1  0  0  0  0
 43 44  2  0  0  0  0
 43 45  2  0  0  0  0
M  END
>  <MODEL>
9

>  <REMARK>
 VINA RESULT:      -8.1      2.908      5.173
  Name = 
  16 active torsions:
  status: ('A' for Active; 'I' for Inactive)
    1  A    between atoms: C_1  and  C_44
    2  A    between atoms: C_2  and  C_31
    3  A    between atoms: C_2  and  C_39
    4  A    between atoms: C_4  and  N_8
    5  A    between atoms: C_4  and  C_21
    6  A    between atoms: C_5  and  N_25
    7  A    between atoms: C_5  and  C_34
    8  A    between atoms: N_6  and  N_11
    9  A    between atoms: C_7  and  C_27
   10  A    between atoms: C_7  and  C_34
   11  A    between atoms: N_8  and  C_26
   12  A    between atoms: C_27  and  C_39
   13  A    between atoms: C_30  and  C_42
   14  A    between atoms: C_31  and  N_37
   15  A    between atoms: C_31  and  C_42
   16  A    between atoms: C_36  and  N_37
                            x       y       z     vdW  Elec       q    Type
                         _______ _______ _______ _____ _____    ______ ____

>  <TORSDO>
F 16

$$$$
