=
 OpenBabel11032420123D

 36 38  0  0  1  0  0  0  0  0999 V2000
  191.1890  176.7890  147.0390 C   0  0  0  0  0  0  0  0  0  0  0  0
  187.9430  176.6260  148.5890 C   0  0  0  0  0  1  0  0  0  0  0  0
  188.8060  177.5820  147.7880 C   0  0  1  0  0  3  0  0  0  0  0  0
  190.4610  177.7610  146.1080 C   0  0  1  0  0  3  0  0  0  0  0  0
  187.7670  177.2720  144.7530 C   0  0  2  0  0  3  0  0  0  0  0  0
  190.3000  177.3960  144.6430 C   0  0  1  0  0  3  0  0  0  0  0  0
  187.0490  178.0400  145.8830 C   0  0  0  0  0  2  0  0  0  0  0  0
  192.2000  176.3460  147.5580 O   0  0  0  0  0  0  0  0  0  0  0  0
  188.9770  178.0070  144.1520 C   0  0  0  0  0  2  0  0  0  0  0  0
  189.6770  176.8000  146.8210 C   0  0  1  0  0  3  0  0  0  0  0  0
  187.9240  178.6000  147.0270 C   0  0  0  0  0  2  0  0  0  0  0  0
  186.7630  176.9350  143.6670 C   0  0  0  0  0  2  0  0  0  0  0  0
  186.9100  177.8900  142.4940 C   0  0  0  0  0  2  0  0  0  0  0  0
  185.7260  178.8430  142.4330 C   0  0  0  0  0  2  0  0  0  0  0  0
  184.4260  178.1320  142.7760 C   0  0  2  0  0  3  0  0  0  0  0  0
  183.8620  177.6360  141.6150 F   0  0  0  0  0  0  0  0  0  0  0  0
  183.4590  179.0980  143.4400 C   0  0  0  0  0  2  0  0  0  0  0  0
  183.5740  178.9940  144.9480 C   0  0  0  0  0  1  0  0  0  0  0  0
  191.4430  177.9780  143.8310 C   0  0  0  0  0  2  0  0  0  0  0  0
  191.8720  177.0050  142.7510 C   0  0  0  0  0  2  0  0  0  0  0  0
  191.3880  177.4970  141.4040 C   0  0  0  0  0  2  0  0  0  0  0  0
  190.1730  176.6970  140.9860 C   0  0  0  0  0  2  0  0  0  0  0  0
  189.8380  177.0060  139.5420 C   0  0  0  0  0  2  0  0  0  0  0  0
  188.9250  178.2120  139.4850 C   0  0  0  0  0  2  0  0  0  0  0  0
  189.0930  178.9090  138.1480 C   0  0  0  0  0  2  0  0  0  0  0  0
  187.8220  179.1100  137.5420 O   0  0  0  0  0  0  0  0  0  0  0  0
  185.0300  176.0860  136.6230 C   0  0  0  0  0  0  0  0  0  0  0  0
  185.6960  178.0410  137.9000 C   0  0  0  0  0  0  0  0  0  0  0  0
  187.1770  177.1260  136.1980 C   0  0  0  0  0  0  0  0  0  0  0  0
  186.9170  178.0880  137.2040 C   0  0  0  0  0  0  0  0  0  0  0  0
  184.1010  175.0940  136.3400 O   0  0  0  0  0  1  0  0  0  0  0  0
  188.3510  177.1450  135.4550 O   0  0  0  0  0  1  0  0  0  0  0  0
  184.7610  177.0360  137.6060 C   0  0  0  0  0  3  0  0  0  0  0  0
  186.2340  176.1320  135.9200 C   0  0  0  0  0  3  0  0  0  0  0  0
  185.4370  179.0000  138.8860 O   0  0  0  0  0  0  0  0  0  0  0  0
  184.1570  179.5910  139.0700 C   0  0  0  0  0  1  0  0  0  0  0  0
  1  8  2  0  0  0  0
  3  2  1  6  0  0  0
  4 10  1  0  0  0  0
  4  1  1  1  0  0  0
  5 12  1  6  0  0  0
  5  7  1  0  0  0  0
  6 19  1  6  0  0  0
  6  4  1  0  0  0  0
  7 11  1  0  0  0  0
  9  6  1  0  0  0  0
  9  5  1  0  0  0  0
 10  1  1  1  0  0  0
 10  3  1  0  0  0  0
 11  3  1  0  0  0  0
 13 12  1  0  0  0  0
 14 13  1  0  0  0  0
 14 15  1  0  0  0  0
 15 16  1  6  0  0  0
 15 17  1  0  0  0  0
 17 18  1  0  0  0  0
 20 19  1  0  0  0  0
 21 20  1  0  0  0  0
 22 21  1  0  0  0  0
 23 22  1  0  0  0  0
 24 23  1  0  0  0  0
 25 24  1  0  0  0  0
 26 25  1  0  0  0  0
 27 33  1  0  0  0  0
 28 35  1  0  0  0  0
 29 30  2  0  0  0  0
 30 26  1  0  0  0  0
 30 28  1  0  0  0  0
 31 27  1  0  0  0  0
 32 29  1  0  0  0  0
 33 28  2  0  0  0  0
 34 29  1  0  0  0  0
 34 27  2  0  0  0  0
 35 36  1  0  0  0  0
M  END
>  <MODEL>
1

>  <REMARK>
 VINA RESULT:      -7.6      0.000      0.000
  Name = 
  15 active torsions:
  status: ('A' for Active; 'I' for Inactive)
    1  A    between atoms: C_2  and  C_13
    2  A    between atoms: C_3  and  C_14
    3  A    between atoms: C_3  and  C_24
    4  A    between atoms: C_6  and  C_26
    5  A    between atoms: C_6  and  C_32
    6  A    between atoms: C_7  and  O_33
    7  A    between atoms: C_10  and  O_21
    8  A    between atoms: C_11  and  C_26
    9  A    between atoms: C_11  and  C_29
   10  A    between atoms: C_13  and  C_24
   11  A    between atoms: C_14  and  C_15
   12  A    between atoms: C_16  and  C_27
   13  A    between atoms: C_18  and  C_27
   14  A    between atoms: C_18  and  C_29
   15  A    between atoms: O_21  and  C_32
                            x       y       z     vdW  Elec       q    Type
                         _______ _______ _______ _____ _____    ______ ____

>  <TORSDO>
F 15

$$$$
=
 OpenBabel11032420123D

 36 38  0  0  1  0  0  0  0  0999 V2000
  185.5660  178.2770  146.6770 C   0  0  0  0  0  0  0  0  0  0  0  0
  188.3600  178.3030  148.9480 C   0  0  0  0  0  1  0  0  0  0  0  0
  187.7690  177.4590  147.8350 C   0  0  1  0  0  3  0  0  0  0  0  0
  186.5510  177.4930  145.8080 C   0  0  1  0  0  3  0  0  0  0  0  0
  189.4390  178.2890  145.2070 C   0  0  2  0  0  3  0  0  0  0  0  0
  187.0120  178.0940  144.4910 C   0  0  1  0  0  3  0  0  0  0  0  0
  189.9380  177.3750  146.3470 C   0  0  0  0  0  2  0  0  0  0  0  0
  184.4350  178.5960  147.0050 O   0  0  0  0  0  0  0  0  0  0  0  0
  188.4510  177.6180  144.2380 C   0  0  0  0  0  2  0  0  0  0  0  0
  187.0850  178.3550  146.8180 C   0  0  1  0  0  3  0  0  0  0  0  0
  188.8700  176.6080  147.1590 C   0  0  0  0  0  2  0  0  0  0  0  0
  190.6350  178.8320  144.4470 C   0  0  0  0  0  2  0  0  0  0  0  0
  190.4500  178.6300  142.9520 C   0  0  0  0  0  2  0  0  0  0  0  0
  191.4690  177.6350  142.4190 C   0  0  0  0  0  2  0  0  0  0  0  0
  190.7930  176.3710  141.9080 C   0  0  2  0  0  3  0  0  0  0  0  0
  189.5670  176.7040  141.3620 F   0  0  0  0  0  0  0  0  0  0  0  0
  190.5920  175.3860  143.0480 C   0  0  0  0  0  2  0  0  0  0  0  0
  191.8010  175.3980  143.9630 C   0  0  0  0  0  1  0  0  0  0  0  0
  186.1250  177.6110  143.3580 C   0  0  0  0  0  2  0  0  0  0  0  0
  185.1440  178.6940  142.9560 C   0  0  0  0  0  2  0  0  0  0  0  0
  184.1850  178.1500  141.9200 C   0  0  0  0  0  2  0  0  0  0  0  0
  184.3700  178.9030  140.6200 C   0  0  0  0  0  2  0  0  0  0  0  0
  183.5010  178.2800  139.5480 C   0  0  0  0  0  2  0  0  0  0  0  0
  184.3780  177.7630  138.4290 C   0  0  0  0  0  2  0  0  0  0  0  0
  185.6880  178.5270  138.4190 C   0  0  0  0  0  2  0  0  0  0  0  0
  186.5350  178.0290  137.3900 O   0  0  0  0  0  0  0  0  0  0  0  0
  190.0900  175.8430  137.9890 C   0  0  0  0  0  0  0  0  0  0  0  0
  187.7480  175.9510  137.3590 C   0  0  0  0  0  0  0  0  0  0  0  0
  188.9330  177.9710  138.0220 C   0  0  0  0  0  0  0  0  0  0  0  0
  187.7400  177.3360  137.5990 C   0  0  0  0  0  0  0  0  0  0  0  0
  191.2490  175.1040  138.1880 O   0  0  0  0  0  1  0  0  0  0  0  0
  188.9920  179.3420  138.2400 O   0  0  0  0  0  1  0  0  0  0  0  0
  188.9240  175.2120  137.5600 C   0  0  0  0  0  3  0  0  0  0  0  0
  190.0940  177.2180  138.2180 C   0  0  0  0  0  3  0  0  0  0  0  0
  186.5700  175.3280  136.9300 O   0  0  0  0  0  0  0  0  0  0  0  0
  186.3930  174.8430  135.6050 C   0  0  0  0  0  1  0  0  0  0  0  0
  1  8  2  0  0  0  0
  3  2  1  1  0  0  0
  4  1  1  6  0  0  0
  4 10  1  0  0  0  0
  5 12  1  6  0  0  0
  5  7  1  0  0  0  0
  6 19  1  6  0  0  0
  6  4  1  0  0  0  0
  7 11  1  0  0  0  0
  9  6  1  0  0  0  0
  9  5  1  0  0  0  0
 10  1  1  1  0  0  0
 10  3  1  0  0  0  0
 11  3  1  0  0  0  0
 13 12  1  0  0  0  0
 14 13  1  0  0  0  0
 15 16  1  1  0  0  0
 15 14  1  0  0  0  0
 15 17  1  0  0  0  0
 17 18  1  0  0  0  0
 20 19  1  0  0  0  0
 21 20  1  0  0  0  0
 22 21  1  0  0  0  0
 23 22  1  0  0  0  0
 24 23  1  0  0  0  0
 25 24  1  0  0  0  0
 26 30  1  0  0  0  0
 26 25  1  0  0  0  0
 27 31  1  0  0  0  0
 27 34  1  0  0  0  0
 28 33  1  0  0  0  0
 28 30  2  0  0  0  0
 29 34  2  0  0  0  0
 29 32  1  0  0  0  0
 30 29  1  0  0  0  0
 33 27  2  0  0  0  0
 35 28  1  0  0  0  0
 36 35  1  0  0  0  0
M  END
>  <MODEL>
2

>  <REMARK>
 VINA RESULT:      -7.5      2.279      5.023
  Name = 
  15 active torsions:
  status: ('A' for Active; 'I' for Inactive)
    1  A    between atoms: C_2  and  C_13
    2  A    between atoms: C_3  and  C_14
    3  A    between atoms: C_3  and  C_24
    4  A    between atoms: C_6  and  C_26
    5  A    between atoms: C_6  and  C_32
    6  A    between atoms: C_7  and  O_33
    7  A    between atoms: C_10  and  O_21
    8  A    between atoms: C_11  and  C_26
    9  A    between atoms: C_11  and  C_29
   10  A    between atoms: C_13  and  C_24
   11  A    between atoms: C_14  and  C_15
   12  A    between atoms: C_16  and  C_27
   13  A    between atoms: C_18  and  C_27
   14  A    between atoms: C_18  and  C_29
   15  A    between atoms: O_21  and  C_32
                            x       y       z     vdW  Elec       q    Type
                         _______ _______ _______ _____ _____    ______ ____

>  <TORSDO>
F 15

$$$$
=
 OpenBabel11032420123D

 36 38  0  0  1  0  0  0  0  0999 V2000
  191.2880  176.5680  147.0420 C   0  0  0  0  0  0  0  0  0  0  0  0
  188.0530  176.8460  148.5980 C   0  0  0  0  0  1  0  0  0  0  0  0
  188.9960  177.6430  147.7170 C   0  0  1  0  0  3  0  0  0  0  0  0
  190.6480  177.5200  146.0290 C   0  0  1  0  0  3  0  0  0  0  0  0
  187.9100  177.1690  144.7200 C   0  0  2  0  0  3  0  0  0  0  0  0
  190.4420  177.0460  144.6010 C   0  0  1  0  0  3  0  0  0  0  0  0
  187.2750  178.0970  145.7780 C   0  0  0  0  0  2  0  0  0  0  0  0
  192.2580  176.0790  147.5980 O   0  0  0  0  0  0  0  0  0  0  0  0
  189.1790  177.7330  144.0580 C   0  0  0  0  0  2  0  0  0  0  0  0
  189.7830  176.7020  146.8220 C   0  0  1  0  0  3  0  0  0  0  0  0
  188.2070  178.6690  146.8700 C   0  0  0  0  0  2  0  0  0  0  0  0
  186.8710  176.8340  143.6670 C   0  0  0  0  0  2  0  0  0  0  0  0
  186.4300  178.0930  142.9380 C   0  0  0  0  0  2  0  0  0  0  0  0
  184.9250  178.0810  142.7200 C   0  0  0  0  0  2  0  0  0  0  0  0
  184.2590  179.2710  143.3960 C   0  0  2  0  0  3  0  0  0  0  0  0
  185.2260  180.0340  144.0220 F   0  0  0  0  0  0  0  0  0  0  0  0
  183.2450  178.7910  144.4210 C   0  0  0  0  0  2  0  0  0  0  0  0
  181.8520  178.8100  143.8230 C   0  0  0  0  0  1  0  0  0  0  0  0
  191.6290  177.4450  143.7430 C   0  0  0  0  0  2  0  0  0  0  0  0
  191.1560  177.9940  142.4100 C   0  0  0  0  0  2  0  0  0  0  0  0
  192.0620  177.4920  141.3070 C   0  0  0  0  0  2  0  0  0  0  0  0
  191.2240  177.1020  140.1090 C   0  0  0  0  0  2  0  0  0  0  0  0
  189.7570  177.1500  140.4810 C   0  0  0  0  0  2  0  0  0  0  0  0
  188.9310  177.4080  139.2400 C   0  0  0  0  0  2  0  0  0  0  0  0
  187.7230  178.2500  139.6030 C   0  0  0  0  0  2  0  0  0  0  0  0
  186.9900  178.5790  138.4290 O   0  0  0  0  0  0  0  0  0  0  0  0
  183.0450  177.3580  137.5790 C   0  0  0  0  0  0  0  0  0  0  0  0
  185.4450  177.1230  137.2960 C   0  0  0  0  0  0  0  0  0  0  0  0
  184.5460  178.8450  138.7640 C   0  0  0  0  0  0  0  0  0  0  0  0
  185.6600  178.2010  138.1730 C   0  0  0  0  0  0  0  0  0  0  0  0
  181.7530  176.9450  137.2800 O   0  0  0  0  0  1  0  0  0  0  0  0
  184.7010  179.8920  139.6640 O   0  0  0  0  0  1  0  0  0  0  0  0
  184.1360  176.7110  137.0030 C   0  0  0  0  0  3  0  0  0  0  0  0
  183.2500  178.4200  138.4580 C   0  0  0  0  0  3  0  0  0  0  0  0
  186.5480  176.4820  136.7230 O   0  0  0  0  0  0  0  0  0  0  0  0
  186.4370  175.5990  135.6140 C   0  0  0  0  0  1  0  0  0  0  0  0
  1  8  2  0  0  0  0
  3  2  1  6  0  0  0
  4 10  1  0  0  0  0
  4  1  1  1  0  0  0
  5 12  1  6  0  0  0
  5  7  1  0  0  0  0
  6 19  1  6  0  0  0
  6  4  1  0  0  0  0
  7 11  1  0  0  0  0
  9  6  1  0  0  0  0
  9  5  1  0  0  0  0
 10  1  1  1  0  0  0
 10  3  1  0  0  0  0
 11  3  1  0  0  0  0
 13 12  1  0  0  0  0
 14 13  1  0  0  0  0
 14 15  1  0  0  0  0
 15 16  1  1  0  0  0
 15 17  1  0  0  0  0
 18 17  1  0  0  0  0
 20 19  1  0  0  0  0
 21 20  1  0  0  0  0
 22 23  1  0  0  0  0
 22 21  1  0  0  0  0
 24 25  1  0  0  0  0
 24 23  1  0  0  0  0
 26 25  1  0  0  0  0
 27 34  1  0  0  0  0
 28 30  2  0  0  0  0
 29 32  1  0  0  0  0
 30 26  1  0  0  0  0
 30 29  1  0  0  0  0
 31 27  1  0  0  0  0
 33 28  1  0  0  0  0
 33 27  2  0  0  0  0
 34 29  2  0  0  0  0
 35 28  1  0  0  0  0
 36 35  1  0  0  0  0
M  END
>  <MODEL>
3

>  <REMARK>
 VINA RESULT:      -7.5      1.212      2.219
  Name = 
  15 active torsions:
  status: ('A' for Active; 'I' for Inactive)
    1  A    between atoms: C_2  and  C_13
    2  A    between atoms: C_3  and  C_14
    3  A    between atoms: C_3  and  C_24
    4  A    between atoms: C_6  and  C_26
    5  A    between atoms: C_6  and  C_32
    6  A    between atoms: C_7  and  O_33
    7  A    between atoms: C_10  and  O_21
    8  A    between atoms: C_11  and  C_26
    9  A    between atoms: C_11  and  C_29
   10  A    between atoms: C_13  and  C_24
   11  A    between atoms: C_14  and  C_15
   12  A    between atoms: C_16  and  C_27
   13  A    between atoms: C_18  and  C_27
   14  A    between atoms: C_18  and  C_29
   15  A    between atoms: O_21  and  C_32
                            x       y       z     vdW  Elec       q    Type
                         _______ _______ _______ _____ _____    ______ ____

>  <TORSDO>
F 15

$$$$
=
 OpenBabel11032420123D

 36 38  0  0  1  0  0  0  0  0999 V2000
  185.8170  178.3350  146.6150 C   0  0  0  0  0  0  0  0  0  0  0  0
  188.5640  178.3600  148.9420 C   0  0  0  0  0  1  0  0  0  0  0  0
  187.9450  177.4740  147.8780 C   0  0  1  0  0  3  0  0  0  0  0  0
  186.7700  177.4350  145.8250 C   0  0  1  0  0  3  0  0  0  0  0  0
  189.7110  178.0180  145.2370 C   0  0  2  0  0  3  0  0  0  0  0  0
  187.2910  177.9140  144.4810 C   0  0  1  0  0  3  0  0  0  0  0  0
  190.1330  177.1600  146.4490 C   0  0  0  0  0  2  0  0  0  0  0  0
  184.7010  178.7410  146.8940 O   0  0  0  0  0  0  0  0  0  0  0  0
  188.7040  177.3380  144.2940 C   0  0  0  0  0  2  0  0  0  0  0  0
  187.3350  178.3340  146.7850 C   0  0  1  0  0  3  0  0  0  0  0  0
  189.0070  176.5160  147.2880 C   0  0  0  0  0  2  0  0  0  0  0  0
  190.9510  178.4350  144.4690 C   0  0  0  0  0  2  0  0  0  0  0  0
  191.5670  177.2370  143.7640 C   0  0  0  0  0  2  0  0  0  0  0  0
  191.9140  177.5870  142.3250 C   0  0  0  0  0  2  0  0  0  0  0  0
  190.7790  177.2240  141.3790 C   0  0  2  0  0  3  0  0  0  0  0  0
  190.2590  175.9970  141.7470 F   0  0  0  0  0  0  0  0  0  0  0  0
  191.2900  177.1540  139.9500 C   0  0  0  0  0  2  0  0  0  0  0  0
  190.2050  176.6200  139.0360 C   0  0  0  0  0  1  0  0  0  0  0  0
  186.3980  177.4030  143.3640 C   0  0  0  0  0  2  0  0  0  0  0  0
  186.3120  178.4250  142.2480 C   0  0  0  0  0  2  0  0  0  0  0  0
  184.9330  179.0500  142.2390 C   0  0  0  0  0  2  0  0  0  0  0  0
  183.9150  178.0100  141.8250 C   0  0  0  0  0  2  0  0  0  0  0  0
  182.5550  178.6610  141.6910 C   0  0  0  0  0  2  0  0  0  0  0  0
  181.9050  178.2050  140.4030 C   0  0  0  0  0  2  0  0  0  0  0  0
  182.6820  177.0350  139.8310 C   0  0  0  0  0  2  0  0  0  0  0  0
  183.0220  177.2930  138.4740 O   0  0  0  0  0  0  0  0  0  0  0  0
  186.9090  177.0850  136.8520 C   0  0  0  0  0  0  0  0  0  0  0  0
  184.7060  176.1280  137.2110 C   0  0  0  0  0  0  0  0  0  0  0  0
  185.2520  178.3200  138.1160 C   0  0  0  0  0  0  0  0  0  0  0  0
  184.3260  177.2630  137.9480 C   0  0  0  0  0  0  0  0  0  0  0  0
  188.1870  176.9940  136.3160 O   0  0  0  0  0  1  0  0  0  0  0  0
  184.9190  179.4810  138.8050 O   0  0  0  0  0  1  0  0  0  0  0  0
  185.9990  176.0450  136.6700 C   0  0  0  0  0  3  0  0  0  0  0  0
  186.5350  178.2190  137.5710 C   0  0  0  0  0  3  0  0  0  0  0  0
  183.7840  175.0890  137.0370 O   0  0  0  0  0  0  0  0  0  0  0  0
  184.0390  173.7540  137.4530 C   0  0  0  0  0  1  0  0  0  0  0  0
  1  8  2  0  0  0  0
  3  2  1  1  0  0  0
  4  1  1  6  0  0  0
  4 10  1  0  0  0  0
  5 12  1  6  0  0  0
  5  7  1  0  0  0  0
  6 19  1  6  0  0  0
  6  4  1  0  0  0  0
  7 11  1  0  0  0  0
  9  6  1  0  0  0  0
  9  5  1  0  0  0  0
 10  1  1  1  0  0  0
 10  3  1  0  0  0  0
 11  3  1  0  0  0  0
 13 12  1  0  0  0  0
 14 13  1  0  0  0  0
 15 16  1  1  0  0  0
 15 14  1  0  0  0  0
 17 15  1  0  0  0  0
 18 17  1  0  0  0  0
 20 19  1  0  0  0  0
 21 20  1  0  0  0  0
 22 21  1  0  0  0  0
 23 22  1  0  0  0  0
 24 23  1  0  0  0  0
 25 24  1  0  0  0  0
 26 25  1  0  0  0  0
 27 34  1  0  0  0  0
 28 30  2  0  0  0  0
 29 32  1  0  0  0  0
 30 29  1  0  0  0  0
 30 26  1  0  0  0  0
 31 27  1  0  0  0  0
 33 27  2  0  0  0  0
 33 28  1  0  0  0  0
 34 29  2  0  0  0  0
 35 28  1  0  0  0  0
 35 36  1  0  0  0  0
M  END
>  <MODEL>
4

>  <REMARK>
 VINA RESULT:      -7.5      2.148      5.158
  Name = 
  15 active torsions:
  status: ('A' for Active; 'I' for Inactive)
    1  A    between atoms: C_2  and  C_13
    2  A    between atoms: C_3  and  C_14
    3  A    between atoms: C_3  and  C_24
    4  A    between atoms: C_6  and  C_26
    5  A    between atoms: C_6  and  C_32
    6  A    between atoms: C_7  and  O_33
    7  A    between atoms: C_10  and  O_21
    8  A    between atoms: C_11  and  C_26
    9  A    between atoms: C_11  and  C_29
   10  A    between atoms: C_13  and  C_24
   11  A    between atoms: C_14  and  C_15
   12  A    between atoms: C_16  and  C_27
   13  A    between atoms: C_18  and  C_27
   14  A    between atoms: C_18  and  C_29
   15  A    between atoms: O_21  and  C_32
                            x       y       z     vdW  Elec       q    Type
                         _______ _______ _______ _____ _____    ______ ____

>  <TORSDO>
F 15

$$$$
=
 OpenBabel11032420123D

 36 38  0  0  1  0  0  0  0  0999 V2000
  189.2450  177.8910  146.6970 C   0  0  0  0  0  0  0  0  0  0  0  0
  191.8100  177.8980  144.1690 C   0  0  0  0  0  1  0  0  0  0  0  0
  190.6280  177.0650  144.6300 C   0  0  1  0  0  3  0  0  0  0  0  0
  188.4800  177.1220  145.6180 C   0  0  1  0  0  3  0  0  0  0  0  0
  188.2100  177.9350  142.6850 C   0  0  2  0  0  3  0  0  0  0  0  0
  187.2300  177.7410  145.0180 C   0  0  1  0  0  3  0  0  0  0  0  0
  189.3860  177.0080  142.3100 C   0  0  0  0  0  2  0  0  0  0  0  0
  189.4510  178.2010  147.8580 O   0  0  0  0  0  0  0  0  0  0  0  0
  187.1300  177.2730  143.5570 C   0  0  0  0  0  2  0  0  0  0  0  0
  189.5530  177.9720  145.2030 C   0  0  1  0  0  3  0  0  0  0  0  0
  190.0670  176.2280  143.4570 C   0  0  0  0  0  2  0  0  0  0  0  0
  187.5930  178.4920  141.4160 C   0  0  0  0  0  2  0  0  0  0  0  0
  188.6260  178.5410  140.3020 C   0  0  0  0  0  2  0  0  0  0  0  0
  188.1700  177.7050  139.1160 C   0  0  0  0  0  2  0  0  0  0  0  0
  189.3070  177.4800  138.1290 C   0  0  2  0  0  3  0  0  0  0  0  0
  190.5120  177.5510  138.8030 F   0  0  0  0  0  0  0  0  0  0  0  0
  189.2700  178.5370  137.0380 C   0  0  0  0  0  2  0  0  0  0  0  0
  187.8330  178.8630  136.6790 C   0  0  0  0  0  1  0  0  0  0  0  0
  186.0000  177.2690  145.7720 C   0  0  0  0  0  2  0  0  0  0  0  0
  185.2970  178.4440  146.4250 C   0  0  0  0  0  2  0  0  0  0  0  0
  184.0560  178.7940  145.6340 C   0  0  0  0  0  2  0  0  0  0  0  0
  184.4200  179.7670  144.5340 C   0  0  0  0  0  2  0  0  0  0  0  0
  184.0340  179.1810  143.1920 C   0  0  0  0  0  2  0  0  0  0  0  0
  182.5280  179.0610  143.1110 C   0  0  0  0  0  2  0  0  0  0  0  0
  182.1290  178.6470  141.7070 C   0  0  0  0  0  2  0  0  0  0  0  0
  183.0810  177.7290  141.1820 O   0  0  0  0  0  0  0  0  0  0  0  0
  184.0350  177.2520  137.1030 C   0  0  0  0  0  0  0  0  0  0  0  0
  182.8700  176.5290  139.1070 C   0  0  0  0  0  0  0  0  0  0  0  0
  184.2740  178.5170  139.1550 C   0  0  0  0  0  0  0  0  0  0  0  0
  183.4220  177.6060  139.8230 C   0  0  0  0  0  0  0  0  0  0  0  0
  184.3420  177.0730  135.7600 O   0  0  0  0  0  1  0  0  0  0  0  0
  184.8190  179.6190  139.8040 O   0  0  0  0  0  1  0  0  0  0  0  0
  183.1840  176.3580  137.7500 C   0  0  0  0  0  3  0  0  0  0  0  0
  184.5760  178.3290  137.8030 C   0  0  0  0  0  3  0  0  0  0  0  0
  182.0190  175.6370  139.7680 O   0  0  0  0  0  0  0  0  0  0  0  0
  180.6020  175.7020  139.6650 C   0  0  0  0  0  1  0  0  0  0  0  0
  1  8  2  0  0  0  0
  3  2  1  6  0  0  0
  3 10  1  0  0  0  0
  4  1  1  1  0  0  0
  5 12  1  6  0  0  0
  5  9  1  0  0  0  0
  6  4  1  0  0  0  0
  6 19  1  1  0  0  0
  7  5  1  0  0  0  0
  7 11  1  0  0  0  0
  9  6  1  0  0  0  0
 10  4  1  0  0  0  0
 10  1  1  1  0  0  0
 11  3  1  0  0  0  0
 13 12  1  0  0  0  0
 14 13  1  0  0  0  0
 15 16  1  1  0  0  0
 15 14  1  0  0  0  0
 17 15  1  0  0  0  0
 18 17  1  0  0  0  0
 19 20  1  0  0  0  0
 21 20  1  0  0  0  0
 22 21  1  0  0  0  0
 23 22  1  0  0  0  0
 24 23  1  0  0  0  0
 25 24  1  0  0  0  0
 26 25  1  0  0  0  0
 27 33  2  0  0  0  0
 27 34  1  0  0  0  0
 28 35  1  0  0  0  0
 28 30  2  0  0  0  0
 29 32  1  0  0  0  0
 29 30  1  0  0  0  0
 30 26  1  0  0  0  0
 31 27  1  0  0  0  0
 33 28  1  0  0  0  0
 34 29  2  0  0  0  0
 36 35  1  0  0  0  0
M  END
>  <MODEL>
5

>  <REMARK>
 VINA RESULT:      -7.4      2.197      5.315
  Name = 
  15 active torsions:
  status: ('A' for Active; 'I' for Inactive)
    1  A    between atoms: C_2  and  C_13
    2  A    between atoms: C_3  and  C_14
    3  A    between atoms: C_3  and  C_24
    4  A    between atoms: C_6  and  C_26
    5  A    between atoms: C_6  and  C_32
    6  A    between atoms: C_7  and  O_33
    7  A    between atoms: C_10  and  O_21
    8  A    between atoms: C_11  and  C_26
    9  A    between atoms: C_11  and  C_29
   10  A    between atoms: C_13  and  C_24
   11  A    between atoms: C_14  and  C_15
   12  A    between atoms: C_16  and  C_27
   13  A    between atoms: C_18  and  C_27
   14  A    between atoms: C_18  and  C_29
   15  A    between atoms: O_21  and  C_32
                            x       y       z     vdW  Elec       q    Type
                         _______ _______ _______ _____ _____    ______ ____

>  <TORSDO>
F 15

$$$$
=
 OpenBabel11032420123D

 36 38  0  0  1  0  0  0  0  0999 V2000
  186.0150  178.2430  146.8930 C   0  0  0  0  0  0  0  0  0  0  0  0
  189.0540  178.2500  148.8240 C   0  0  0  0  0  1  0  0  0  0  0  0
  188.3040  177.3810  147.8330 C   0  0  1  0  0  3  0  0  0  0  0  0
  186.8600  177.3740  145.9590 C   0  0  1  0  0  3  0  0  0  0  0  0
  189.6870  178.0060  144.9900 C   0  0  2  0  0  3  0  0  0  0  0  0
  187.1870  177.8890  144.5690 C   0  0  1  0  0  3  0  0  0  0  0  0
  190.2790  177.1260  146.1120 C   0  0  0  0  0  2  0  0  0  0  0  0
  184.9440  178.6290  147.3310 O   0  0  0  0  0  0  0  0  0  0  0  0
  188.5670  177.3360  144.1780 C   0  0  0  0  0  2  0  0  0  0  0  0
  187.5420  178.2580  146.8550 C   0  0  1  0  0  3  0  0  0  0  0  0
  189.2840  176.4490  147.0810 C   0  0  0  0  0  2  0  0  0  0  0  0
  190.8070  178.4560  144.0710 C   0  0  0  0  0  2  0  0  0  0  0  0
  191.3710  177.2720  143.3020 C   0  0  0  0  0  2  0  0  0  0  0  0
  191.3680  177.5580  141.8080 C   0  0  0  0  0  2  0  0  0  0  0  0
  190.2910  176.7550  141.0940 C   0  0  2  0  0  3  0  0  0  0  0  0
  190.8360  176.1660  139.9680 F   0  0  0  0  0  0  0  0  0  0  0  0
  189.1420  177.6630  140.6880 C   0  0  0  0  0  2  0  0  0  0  0  0
  189.2620  178.0280  139.2210 C   0  0  0  0  0  1  0  0  0  0  0  0
  186.1560  177.3930  143.5720 C   0  0  0  0  0  2  0  0  0  0  0  0
  185.6530  178.5400  142.7170 C   0  0  0  0  0  2  0  0  0  0  0  0
  184.7570  179.4350  143.5450 C   0  0  0  0  0  2  0  0  0  0  0  0
  183.5940  178.6250  144.0770 C   0  0  0  0  0  2  0  0  0  0  0  0
  182.3080  179.1170  143.4470 C   0  0  0  0  0  2  0  0  0  0  0  0
  182.2300  178.6280  142.0170 C   0  0  0  0  0  2  0  0  0  0  0  0
  180.8230  178.8340  141.4890 C   0  0  0  0  0  2  0  0  0  0  0  0
  180.7510  178.4310  140.1260 O   0  0  0  0  0  0  0  0  0  0  0  0
  183.9180  176.7140  137.9340 C   0  0  0  0  0  0  0  0  0  0  0  0
  181.9280  176.4980  139.3090 C   0  0  0  0  0  0  0  0  0  0  0  0
  182.7690  178.7020  138.7080 C   0  0  0  0  0  0  0  0  0  0  0  0
  181.8200  177.8980  139.3840 C   0  0  0  0  0  0  0  0  0  0  0  0
  184.9570  176.1290  137.2230 O   0  0  0  0  0  1  0  0  0  0  0  0
  182.6900  180.0890  138.7180 O   0  0  0  0  0  1  0  0  0  0  0  0
  182.9800  175.9150  138.5860 C   0  0  0  0  0  3  0  0  0  0  0  0
  183.8100  178.1030  137.9940 C   0  0  0  0  0  3  0  0  0  0  0  0
  180.9810  175.7060  139.9690 O   0  0  0  0  0  0  0  0  0  0  0  0
  179.7280  175.3620  139.3930 C   0  0  0  0  0  1  0  0  0  0  0  0
  1  8  2  0  0  0  0
  3  2  1  1  0  0  0
  4 10  1  0  0  0  0
  4  1  1  1  0  0  0
  5 12  1  6  0  0  0
  5  7  1  0  0  0  0
  6 19  1  6  0  0  0
  6  4  1  0  0  0  0
  7 11  1  0  0  0  0
  9  6  1  0  0  0  0
  9  5  1  0  0  0  0
 10  1  1  1  0  0  0
 10  3  1  0  0  0  0
 11  3  1  0  0  0  0
 13 12  1  0  0  0  0
 14 13  1  0  0  0  0
 15 16  1  6  0  0  0
 15 14  1  0  0  0  0
 17 15  1  0  0  0  0
 18 17  1  0  0  0  0
 20 21  1  0  0  0  0
 20 19  1  0  0  0  0
 21 22  1  0  0  0  0
 23 22  1  0  0  0  0
 24 23  1  0  0  0  0
 25 24  1  0  0  0  0
 26 25  1  0  0  0  0
 27 34  2  0  0  0  0
 27 33  1  0  0  0  0
 28 30  1  0  0  0  0
 28 35  1  0  0  0  0
 29 32  1  0  0  0  0
 29 30  2  0  0  0  0
 30 26  1  0  0  0  0
 31 27  1  0  0  0  0
 33 28  2  0  0  0  0
 34 29  1  0  0  0  0
 36 35  1  0  0  0  0
M  END
>  <MODEL>
6

>  <REMARK>
 VINA RESULT:      -7.2      2.701      5.488
  Name = 
  15 active torsions:
  status: ('A' for Active; 'I' for Inactive)
    1  A    between atoms: C_2  and  C_13
    2  A    between atoms: C_3  and  C_14
    3  A    between atoms: C_3  and  C_24
    4  A    between atoms: C_6  and  C_26
    5  A    between atoms: C_6  and  C_32
    6  A    between atoms: C_7  and  O_33
    7  A    between atoms: C_10  and  O_21
    8  A    between atoms: C_11  and  C_26
    9  A    between atoms: C_11  and  C_29
   10  A    between atoms: C_13  and  C_24
   11  A    between atoms: C_14  and  C_15
   12  A    between atoms: C_16  and  C_27
   13  A    between atoms: C_18  and  C_27
   14  A    between atoms: C_18  and  C_29
   15  A    between atoms: O_21  and  C_32
                            x       y       z     vdW  Elec       q    Type
                         _______ _______ _______ _____ _____    ______ ____

>  <TORSDO>
F 15

$$$$
=
 OpenBabel11032420123D

 36 38  0  0  1  0  0  0  0  0999 V2000
  186.0280  178.6520  141.9990 C   0  0  0  0  0  0  0  0  0  0  0  0
  183.6510  180.5040  143.9700 C   0  0  0  0  0  1  0  0  0  0  0  0
  184.1190  179.0790  143.7420 C   0  0  1  0  0  3  0  0  0  0  0  0
  185.9660  177.7050  143.1990 C   0  0  1  0  0  3  0  0  0  0  0  0
  186.2020  178.5120  146.1360 C   0  0  2  0  0  3  0  0  0  0  0  0
  187.2130  177.4990  144.0400 C   0  0  1  0  0  3  0  0  0  0  0  0
  184.6630  178.5410  146.2610 C   0  0  0  0  0  2  0  0  0  0  0  0
  186.2500  178.8890  140.8230 O   0  0  0  0  0  0  0  0  0  0  0  0
  186.7640  177.2360  145.4860 C   0  0  0  0  0  2  0  0  0  0  0  0
  185.5990  179.0730  143.4030 C   0  0  1  0  0  3  0  0  0  0  0  0
  183.8430  178.2120  144.9940 C   0  0  0  0  0  2  0  0  0  0  0  0
  186.8140  178.7170  147.5080 C   0  0  0  0  0  2  0  0  0  0  0  0
  187.7420  177.5640  147.8530 C   0  0  0  0  0  2  0  0  0  0  0  0
  189.0900  178.0880  148.3260 C   0  0  0  0  0  2  0  0  0  0  0  0
  190.1860  177.7860  147.3150 C   0  0  2  0  0  3  0  0  0  0  0  0
  189.7930  178.2450  146.0720 F   0  0  0  0  0  0  0  0  0  0  0  0
  190.4400  176.2900  147.2490 C   0  0  0  0  0  2  0  0  0  0  0  0
  191.9280  176.0110  147.3390 C   0  0  0  0  0  1  0  0  0  0  0  0
  187.9890  176.2940  143.5380 C   0  0  0  0  0  2  0  0  0  0  0  0
  189.4460  176.6550  143.3270 C   0  0  0  0  0  2  0  0  0  0  0  0
  189.5430  178.0460  142.7380 C   0  0  0  0  0  2  0  0  0  0  0  0
  189.5910  177.9490  141.2290 C   0  0  0  0  0  2  0  0  0  0  0  0
  190.8420  177.2060  140.8100 C   0  0  0  0  0  2  0  0  0  0  0  0
  190.5440  176.3730  139.5830 C   0  0  0  0  0  2  0  0  0  0  0  0
  191.1360  177.0460  138.3590 C   0  0  0  0  0  2  0  0  0  0  0  0
  190.2980  176.8270  137.2300 O   0  0  0  0  0  0  0  0  0  0  0  0
  186.0920  177.1150  137.1840 C   0  0  0  0  0  0  0  0  0  0  0  0
  188.1290  175.8040  137.0310 C   0  0  0  0  0  0  0  0  0  0  0  0
  188.2430  178.2050  137.4140 C   0  0  0  0  0  0  0  0  0  0  0  0
  188.8990  176.9650  137.2240 C   0  0  0  0  0  0  0  0  0  0  0  0
  184.7050  177.1900  137.1580 O   0  0  0  0  0  1  0  0  0  0  0  0
  188.9520  179.3780  137.6440 O   0  0  0  0  0  1  0  0  0  0  0  0
  186.7280  175.8880  137.0090 C   0  0  0  0  0  3  0  0  0  0  0  0
  186.8470  178.2690  137.3870 C   0  0  0  0  0  3  0  0  0  0  0  0
  188.7800  174.5770  136.8540 O   0  0  0  0  0  0  0  0  0  0  0  0
  188.9560  173.9730  135.5790 C   0  0  0  0  0  1  0  0  0  0  0  0
  3  2  1  1  0  0  0
  3 11  1  0  0  0  0
  4  1  1  6  0  0  0
  4 10  1  0  0  0  0
  4  6  1  0  0  0  0
  5  7  1  0  0  0  0
  5 12  1  1  0  0  0
  6 19  1  6  0  0  0
  6  9  1  0  0  0  0
  8  1  2  0  0  0  0
  9  5  1  0  0  0  0
 10  1  1  6  0  0  0
 10  3  1  0  0  0  0
 11  7  1  0  0  0  0
 12 13  1  0  0  0  0
 13 14  1  0  0  0  0
 15 16  1  6  0  0  0
 15 14  1  0  0  0  0
 17 15  1  0  0  0  0
 17 18  1  0  0  0  0
 20 19  1  0  0  0  0
 21 20  1  0  0  0  0
 22 21  1  0  0  0  0
 23 22  1  0  0  0  0
 24 23  1  0  0  0  0
 25 24  1  0  0  0  0
 26 25  1  0  0  0  0
 27 34  1  0  0  0  0
 28 30  2  0  0  0  0
 29 32  1  0  0  0  0
 30 26  1  0  0  0  0
 30 29  1  0  0  0  0
 31 27  1  0  0  0  0
 33 28  1  0  0  0  0
 33 27  2  0  0  0  0
 34 29  2  0  0  0  0
 35 28  1  0  0  0  0
 36 35  1  0  0  0  0
M  END
>  <MODEL>
7

>  <REMARK>
 VINA RESULT:      -7.1      2.468      5.052
  Name = 
  15 active torsions:
  status: ('A' for Active; 'I' for Inactive)
    1  A    between atoms: C_2  and  C_13
    2  A    between atoms: C_3  and  C_14
    3  A    between atoms: C_3  and  C_24
    4  A    between atoms: C_6  and  C_26
    5  A    between atoms: C_6  and  C_32
    6  A    between atoms: C_7  and  O_33
    7  A    between atoms: C_10  and  O_21
    8  A    between atoms: C_11  and  C_26
    9  A    between atoms: C_11  and  C_29
   10  A    between atoms: C_13  and  C_24
   11  A    between atoms: C_14  and  C_15
   12  A    between atoms: C_16  and  C_27
   13  A    between atoms: C_18  and  C_27
   14  A    between atoms: C_18  and  C_29
   15  A    between atoms: O_21  and  C_32
                            x       y       z     vdW  Elec       q    Type
                         _______ _______ _______ _____ _____    ______ ____

>  <TORSDO>
F 15

$$$$
=
 OpenBabel11032420123D

 36 38  0  0  1  0  0  0  0  0999 V2000
  189.3290  177.8930  146.6120 C   0  0  0  0  0  0  0  0  0  0  0  0
  192.0430  178.1520  144.2600 C   0  0  0  0  0  1  0  0  0  0  0  0
  190.8930  177.2300  144.6170 C   0  0  1  0  0  3  0  0  0  0  0  0
  188.6870  177.1150  145.4620 C   0  0  1  0  0  3  0  0  0  0  0  0
  188.5510  178.0100  142.5440 C   0  0  2  0  0  3  0  0  0  0  0  0
  187.4390  177.6730  144.8000 C   0  0  1  0  0  3  0  0  0  0  0  0
  189.8080  177.1740  142.2190 C   0  0  0  0  0  2  0  0  0  0  0  0
  189.4390  178.1760  147.7930 O   0  0  0  0  0  0  0  0  0  0  0  0
  187.4640  177.2510  143.3230 C   0  0  0  0  0  2  0  0  0  0  0  0
  189.7260  178.0460  145.1440 C   0  0  1  0  0  3  0  0  0  0  0  0
  190.4640  176.4000  143.3840 C   0  0  0  0  0  2  0  0  0  0  0  0
  187.9810  178.5700  141.2540 C   0  0  0  0  0  2  0  0  0  0  0  0
  188.3880  177.7030  140.0740 C   0  0  0  0  0  2  0  0  0  0  0  0
  189.4440  178.4060  139.2360 C   0  0  0  0  0  2  0  0  0  0  0  0
  189.1480  178.2740  137.7490 C   0  0  2  0  0  3  0  0  0  0  0  0
  188.6770  179.4840  137.2730 F   0  0  0  0  0  0  0  0  0  0  0  0
  188.1040  177.1940  137.5170 C   0  0  0  0  0  2  0  0  0  0  0  0
  186.7930  177.8230  137.0880 C   0  0  0  0  0  1  0  0  0  0  0  0
  186.1980  177.0980  145.4570 C   0  0  0  0  0  2  0  0  0  0  0  0
  185.6540  178.0610  146.4950 C   0  0  0  0  0  2  0  0  0  0  0  0
  185.1810  179.3260  145.8120 C   0  0  0  0  0  2  0  0  0  0  0  0
  183.8620  179.0580  145.1200 C   0  0  0  0  0  2  0  0  0  0  0  0
  183.9160  179.5980  143.7060 C   0  0  0  0  0  2  0  0  0  0  0  0
  183.2890  178.5970  142.7610 C   0  0  0  0  0  2  0  0  0  0  0  0
  184.2510  178.3020  141.6270 C   0  0  0  0  0  2  0  0  0  0  0  0
  183.5260  177.9750  140.4470 O   0  0  0  0  0  0  0  0  0  0  0  0
  180.5590  180.3680  138.6430 C   0  0  0  0  0  0  0  0  0  0  0  0
  181.2150  178.4330  139.9560 C   0  0  0  0  0  0  0  0  0  0  0  0
  182.9010  179.9750  139.1180 C   0  0  0  0  0  0  0  0  0  0  0  0
  182.5670  178.8000  139.8330 C   0  0  0  0  0  0  0  0  0  0  0  0
  179.5670  181.1380  138.0500 O   0  0  0  0  0  1  0  0  0  0  0  0
  184.2180  180.4050  138.9940 O   0  0  0  0  0  1  0  0  0  0  0  0
  180.2190  179.2190  139.3560 C   0  0  0  0  0  3  0  0  0  0  0  0
  181.8960  180.7450  138.5260 C   0  0  0  0  0  3  0  0  0  0  0  0
  180.8860  177.2770  140.6730 O   0  0  0  0  0  0  0  0  0  0  0  0
  179.9370  176.3250  140.2100 C   0  0  0  0  0  1  0  0  0  0  0  0
  1  8  2  0  0  0  0
  3  2  1  6  0  0  0
  3 10  1  0  0  0  0
  4  1  1  1  0  0  0
  5 12  1  6  0  0  0
  5  9  1  0  0  0  0
  6 19  1  1  0  0  0
  6  4  1  0  0  0  0
  7  5  1  0  0  0  0
  7 11  1  0  0  0  0
  9  6  1  0  0  0  0
 10  4  1  0  0  0  0
 10  1  1  1  0  0  0
 11  3  1  0  0  0  0
 13 12  1  0  0  0  0
 14 13  1  0  0  0  0
 15 16  1  1  0  0  0
 15 14  1  0  0  0  0
 17 15  1  0  0  0  0
 18 17  1  0  0  0  0
 19 20  1  0  0  0  0
 21 20  1  0  0  0  0
 22 21  1  0  0  0  0
 23 22  1  0  0  0  0
 24 23  1  0  0  0  0
 25 24  1  0  0  0  0
 26 25  1  0  0  0  0
 27 33  1  0  0  0  0
 28 35  1  0  0  0  0
 29 30  2  0  0  0  0
 30 28  1  0  0  0  0
 30 26  1  0  0  0  0
 31 27  1  0  0  0  0
 32 29  1  0  0  0  0
 33 28  2  0  0  0  0
 34 27  2  0  0  0  0
 34 29  1  0  0  0  0
 36 35  1  0  0  0  0
M  END
>  <MODEL>
8

>  <REMARK>
 VINA RESULT:      -7.0      2.617      5.639
  Name = 
  15 active torsions:
  status: ('A' for Active; 'I' for Inactive)
    1  A    between atoms: C_2  and  C_13
    2  A    between atoms: C_3  and  C_14
    3  A    between atoms: C_3  and  C_24
    4  A    between atoms: C_6  and  C_26
    5  A    between atoms: C_6  and  C_32
    6  A    between atoms: C_7  and  O_33
    7  A    between atoms: C_10  and  O_21
    8  A    between atoms: C_11  and  C_26
    9  A    between atoms: C_11  and  C_29
   10  A    between atoms: C_13  and  C_24
   11  A    between atoms: C_14  and  C_15
   12  A    between atoms: C_16  and  C_27
   13  A    between atoms: C_18  and  C_27
   14  A    between atoms: C_18  and  C_29
   15  A    between atoms: O_21  and  C_32
                            x       y       z     vdW  Elec       q    Type
                         _______ _______ _______ _____ _____    ______ ____

>  <TORSDO>
F 15

$$$$
=
 OpenBabel11032420123D

 36 38  0  0  1  0  0  0  0  0999 V2000
  186.2050  178.4330  146.7300 C   0  0  0  0  0  0  0  0  0  0  0  0
  189.1230  178.4800  148.8390 C   0  0  0  0  0  1  0  0  0  0  0  0
  188.3760  177.5510  147.9010 C   0  0  1  0  0  3  0  0  0  0  0  0
  187.0450  177.4180  145.9510 C   0  0  1  0  0  3  0  0  0  0  0  0
  189.9580  177.7750  145.1020 C   0  0  2  0  0  3  0  0  0  0  0  0
  187.4830  177.7560  144.5370 C   0  0  1  0  0  3  0  0  0  0  0  0
  190.4260  176.9930  146.3470 C   0  0  0  0  0  2  0  0  0  0  0  0
  185.1370  178.9260  147.0540 O   0  0  0  0  0  0  0  0  0  0  0  0
  188.8450  177.0840  144.2960 C   0  0  0  0  0  2  0  0  0  0  0  0
  187.7300  178.3560  146.7880 C   0  0  1  0  0  3  0  0  0  0  0  0
  189.3360  176.4870  147.3180 C   0  0  0  0  0  2  0  0  0  0  0  0
  191.1540  178.0550  144.2130 C   0  0  0  0  0  2  0  0  0  0  0  0
  191.3360  176.9370  143.1990 C   0  0  0  0  0  2  0  0  0  0  0  0
  191.5140  177.5090  141.8010 C   0  0  0  0  0  2  0  0  0  0  0  0
  190.5390  176.8790  140.8170 C   0  0  2  0  0  3  0  0  0  0  0  0
  191.1200  176.8480  139.5630 F   0  0  0  0  0  0  0  0  0  0  0  0
  189.2530  177.6870  140.7640 C   0  0  0  0  0  2  0  0  0  0  0  0
  188.7640  177.7910  139.3330 C   0  0  0  0  0  1  0  0  0  0  0  0
  186.4810  177.2120  143.5350 C   0  0  0  0  0  2  0  0  0  0  0  0
  185.7680  178.3500  142.8300 C   0  0  0  0  0  2  0  0  0  0  0  0
  184.6450  178.8630  143.7050 C   0  0  0  0  0  2  0  0  0  0  0  0
  183.3330  178.2720  143.2360 C   0  0  0  0  0  2  0  0  0  0  0  0
  182.2190  179.2700  143.4680 C   0  0  0  0  0  2  0  0  0  0  0  0
  180.8840  178.5620  143.3800 C   0  0  0  0  0  2  0  0  0  0  0  0
  180.0350  179.2160  142.3070 C   0  0  0  0  0  2  0  0  0  0  0  0
  180.8120  180.1620  141.5810 O   0  0  0  0  0  0  0  0  0  0  0  0
  180.6000  180.7970  137.4180 C   0  0  0  0  0  0  0  0  0  0  0  0
  181.5430  179.6590  139.3450 C   0  0  0  0  0  0  0  0  0  0  0  0
  179.8040  181.3360  139.6420 C   0  0  0  0  0  0  0  0  0  0  0  0
  180.7090  180.4010  140.1990 C   0  0  0  0  0  0  0  0  0  0  0  0
  180.5510  180.9960  136.0450 O   0  0  0  0  0  1  0  0  0  0  0  0
  178.9320  182.0710  140.4360 O   0  0  0  0  0  1  0  0  0  0  0  0
  181.4850  179.8650  137.9570 C   0  0  0  0  0  3  0  0  0  0  0  0
  179.7610  181.5280  138.2580 C   0  0  0  0  0  3  0  0  0  0  0  0
  182.4290  178.7280  139.8980 O   0  0  0  0  0  0  0  0  0  0  0  0
  182.1810  177.3280  139.8900 C   0  0  0  0  0  1  0  0  0  0  0  0
  1  8  2  0  0  0  0
  3  2  1  1  0  0  0
  4  1  1  6  0  0  0
  4 10  1  0  0  0  0
  5 12  1  6  0  0  0
  5  7  1  0  0  0  0
  6 19  1  6  0  0  0
  6  4  1  0  0  0  0
  7 11  1  0  0  0  0
  9  6  1  0  0  0  0
  9  5  1  0  0  0  0
 10  1  1  1  0  0  0
 10  3  1  0  0  0  0
 11  3  1  0  0  0  0
 13 12  1  0  0  0  0
 14 13  1  0  0  0  0
 15 16  1  6  0  0  0
 15 14  1  0  0  0  0
 17 15  1  0  0  0  0
 18 17  1  0  0  0  0
 20 19  1  0  0  0  0
 20 21  1  0  0  0  0
 22 23  1  0  0  0  0
 22 21  1  0  0  0  0
 24 23  1  0  0  0  0
 25 24  1  0  0  0  0
 26 25  1  0  0  0  0
 27 33  2  0  0  0  0
 27 34  1  0  0  0  0
 28 35  1  0  0  0  0
 28 30  2  0  0  0  0
 29 30  1  0  0  0  0
 29 32  1  0  0  0  0
 30 26  1  0  0  0  0
 31 27  1  0  0  0  0
 33 28  1  0  0  0  0
 34 29  2  0  0  0  0
 36 35  1  0  0  0  0
M  END
>  <MODEL>
9

>  <REMARK>
 VINA RESULT:      -6.9      3.253      6.278
  Name = 
  15 active torsions:
  status: ('A' for Active; 'I' for Inactive)
    1  A    between atoms: C_2  and  C_13
    2  A    between atoms: C_3  and  C_14
    3  A    between atoms: C_3  and  C_24
    4  A    between atoms: C_6  and  C_26
    5  A    between atoms: C_6  and  C_32
    6  A    between atoms: C_7  and  O_33
    7  A    between atoms: C_10  and  O_21
    8  A    between atoms: C_11  and  C_26
    9  A    between atoms: C_11  and  C_29
   10  A    between atoms: C_13  and  C_24
   11  A    between atoms: C_14  and  C_15
   12  A    between atoms: C_16  and  C_27
   13  A    between atoms: C_18  and  C_27
   14  A    between atoms: C_18  and  C_29
   15  A    between atoms: O_21  and  C_32
                            x       y       z     vdW  Elec       q    Type
                         _______ _______ _______ _____ _____    ______ ____

>  <TORSDO>
F 15

$$$$
