=
 OpenBabel11042411583D

 28 30  0  0  1  0  0  0  0  0999 V2000
  188.9090  177.8670  141.7880 C   0  0  2  0  0  3  0  0  0  0  0  0
  187.5740  178.6180  141.7430 C   0  0  1  0  0  3  0  0  0  0  0  0
  188.0800  177.8820  140.5180 C   0  0  1  0  0  3  0  0  0  0  0  0
  189.6250  178.0880  138.9530 C   0  0  0  0  0  1  0  0  0  0  0  0
  188.6270  178.8000  139.6210 O   0  0  0  0  0  0  0  0  0  0  0  0
  186.4750  177.8630  142.3510 N   0  0  0  0  0  2  0  0  0  0  0  0
  185.7700  178.6870  143.3420 C   0  0  1  0  0  3  0  0  0  0  0  0
  184.9860  178.2890  145.6770 C   0  0  0  0  0  3  0  0  0  0  0  0
  187.1170  177.4980  145.0980 O   0  0  0  0  0  1  0  0  0  0  0  0
  181.9650  178.8390  143.7420 C   0  0  0  0  0  3  0  0  0  0  0  0
  183.2770  178.9160  143.9920 C   0  0  0  0  0  0  0  0  0  0  0  0
  184.3300  178.9320  142.9480 C   0  0  0  0  0  0  0  0  0  0  0  0
  184.0540  179.2040  141.7470 O   0  0  0  0  0  0  0  0  0  0  0  0
  183.7110  179.0400  145.4180 C   0  0  0  0  0  2  0  0  0  0  0  0
  185.9380  178.1460  144.7490 C   0  0  0  0  0  0  0  0  0  0  0  0
  181.3720  178.7140  142.3770 C   0  0  0  0  0  2  0  0  0  0  0  0
  179.7310  180.7130  141.9460 N   0  0  0  0  0  0  0  0  0  0  0  0
  180.4560  179.8290  142.1340 C   0  0  0  0  0  0  0  0  0  0  0  0
  188.8360  176.4770  142.4140 C   0  0  0  0  0  2  0  0  0  0  0  0
  189.9910  176.2730  143.3770 C   0  0  0  0  0  2  0  0  0  0  0  0
  190.5360  177.6060  143.8620 C   0  0  1  0  0  3  0  0  0  0  0  0
  191.1380  177.4320  145.1850 N   0  0  0  0  0  0  0  0  0  0  0  0
  192.0600  176.7860  147.2180 O   0  0  0  0  0  0  0  0  0  0  0  0
  191.0240  176.9750  146.5300 C   0  0  0  0  0  0  0  0  0  0  0  0
  191.8320  177.5460  143.9700 O   0  0  0  0  0  0  0  0  0  0  0  0
  189.6800  176.7860  147.1410 C   0  0  0  0  0  2  0  0  0  0  0  0
  189.4300  177.8420  148.1060 N   0  0  0  0  0  2  0  0  0  0  0  0
  188.0360  177.7280  148.4950 C   0  0  0  0  0  1  0  0  0  0  0  0
  1 19  1  1  0  0  0
  2  1  1  0  0  0  0
  2  6  1  1  0  0  0
  3  5  1  6  0  0  0
  3  2  1  0  0  0  0
  3  1  1  0  0  0  0
  4  5  1  0  0  0  0
  7  6  1  6  0  0  0
  7 15  1  0  0  0  0
 10 11  2  0  0  0  0
 11 14  1  0  0  0  0
 12  7  1  0  0  0  0
 12 11  1  0  0  0  0
 13 12  2  0  0  0  0
 14  8  1  0  0  0  0
 15  9  1  0  0  0  0
 15  8  2  0  0  0  0
 16 10  1  0  0  0  0
 17 18  3  0  0  0  0
 18 16  1  0  0  0  0
 19 20  1  0  0  0  0
 21 20  1  6  0  0  0
 21 25  1  0  0  0  0
 21 22  1  0  0  0  0
 22 24  1  0  0  0  0
 24 26  1  0  0  0  0
 24 23  2  0  0  0  0
 25 22  1  0  0  0  0
 26 27  1  0  0  0  0
 27 28  1  0  0  0  0
M  END
>  <MODEL>
1

>  <REMARK>
 VINA RESULT:      -7.5      0.000      0.000
  Name = 
  10 active torsions:
  status: ('A' for Active; 'I' for Inactive)
    1  A    between atoms: C_1  and  N_8
    2  A    between atoms: C_4  and  C_21
    3  A    between atoms: C_5  and  C_27
    4  A    between atoms: N_8  and  C_9
    5  A    between atoms: C_10  and  C_19
    6  A    between atoms: N_11  and  C_18
    7  A    between atoms: O_17  and  C_26
    8  A    between atoms: C_18  and  C_20
    9  A    between atoms: C_19  and  C_28
   10  A    between atoms: C_21  and  C_27
                            x       y       z     vdW  Elec       q    Type
                         _______ _______ _______ _____ _____    ______ ____

>  <TORSDO>
F 10

$$$$
=
 OpenBabel11042411583D

 28 30  0  0  1  0  0  0  0  0999 V2000
  190.0980  176.6570  143.8460 C   0  0  2  0  0  3  0  0  0  0  0  0
  188.9910  176.9530  144.8630 C   0  0  1  0  0  3  0  0  0  0  0  0
  189.6620  178.0850  144.1120 C   0  0  1  0  0  3  0  0  0  0  0  0
  191.6890  178.9620  144.1200 C   0  0  0  0  0  1  0  0  0  0  0  0
  190.5930  178.7050  144.9450 O   0  0  0  0  0  0  0  0  0  0  0  0
  187.6480  176.7320  144.3220 N   0  0  0  0  0  2  0  0  0  0  0  0
  186.8380  177.9520  144.4380 C   0  0  1  0  0  3  0  0  0  0  0  0
  184.8750  178.5980  145.8360 C   0  0  0  0  0  3  0  0  0  0  0  0
  186.6090  177.4140  146.8810 O   0  0  0  0  0  1  0  0  0  0  0  0
  183.6680  178.6670  142.4140 C   0  0  0  0  0  3  0  0  0  0  0  0
  184.6000  178.6920  143.3730 C   0  0  0  0  0  0  0  0  0  0  0  0
  185.9820  178.1780  143.2120 C   0  0  0  0  0  0  0  0  0  0  0  0
  186.4750  177.9820  142.0660 O   0  0  0  0  0  0  0  0  0  0  0  0
  184.2420  179.3220  144.6810 C   0  0  0  0  0  2  0  0  0  0  0  0
  186.0650  177.9970  145.7430 C   0  0  0  0  0  0  0  0  0  0  0  0
  183.8680  178.0790  141.0560 C   0  0  0  0  0  2  0  0  0  0  0  0
  184.2120  180.0010  139.3060 N   0  0  0  0  0  0  0  0  0  0  0  0
  184.0630  179.1510  140.0790 C   0  0  0  0  0  0  0  0  0  0  0  0
  189.6000  176.2320  142.4680 C   0  0  0  0  0  2  0  0  0  0  0  0
  189.8270  177.3450  141.4610 C   0  0  0  0  0  2  0  0  0  0  0  0
  190.2570  176.7810  140.1170 C   0  0  1  0  0  3  0  0  0  0  0  0
  189.8520  177.7010  139.0530 N   0  0  0  0  0  0  0  0  0  0  0  0
  189.1390  179.4060  137.6430 O   0  0  0  0  0  0  0  0  0  0  0  0
  188.8300  178.4660  138.4200 C   0  0  0  0  0  0  0  0  0  0  0  0
  191.1490  177.5560  139.5710 O   0  0  0  0  0  0  0  0  0  0  0  0
  187.4000  178.1100  138.6240 C   0  0  0  0  0  2  0  0  0  0  0  0
  186.6300  178.4890  137.4510 N   0  0  0  0  0  2  0  0  0  0  0  0
  185.7180  177.3930  137.1810 C   0  0  0  0  0  1  0  0  0  0  0  0
  1 19  1  6  0  0  0
  1  3  1  0  0  0  0
  1  2  1  0  0  0  0
  2  6  1  6  0  0  0
  3  2  1  0  0  0  0
  3  5  1  1  0  0  0
  4  5  1  0  0  0  0
  7  6  1  6  0  0  0
  7 15  1  0  0  0  0
 10 11  2  0  0  0  0
 11 14  1  0  0  0  0
 12 11  1  0  0  0  0
 12  7  1  0  0  0  0
 13 12  2  0  0  0  0
 14  8  1  0  0  0  0
 15  8  2  0  0  0  0
 15  9  1  0  0  0  0
 16 10  1  0  0  0  0
 17 18  3  0  0  0  0
 18 16  1  0  0  0  0
 20 19  1  0  0  0  0
 21 20  1  1  0  0  0
 22 25  1  0  0  0  0
 22 21  1  0  0  0  0
 23 24  2  0  0  0  0
 24 26  1  0  0  0  0
 24 22  1  0  0  0  0
 25 21  1  0  0  0  0
 27 26  1  0  0  0  0
 28 27  1  0  0  0  0
M  END
>  <MODEL>
2

>  <REMARK>
 VINA RESULT:      -7.4      2.390      5.283
  Name = 
  10 active torsions:
  status: ('A' for Active; 'I' for Inactive)
    1  A    between atoms: C_1  and  N_8
    2  A    between atoms: C_4  and  C_21
    3  A    between atoms: C_5  and  C_27
    4  A    between atoms: N_8  and  C_9
    5  A    between atoms: C_10  and  C_19
    6  A    between atoms: N_11  and  C_18
    7  A    between atoms: O_17  and  C_26
    8  A    between atoms: C_18  and  C_20
    9  A    between atoms: C_19  and  C_28
   10  A    between atoms: C_21  and  C_27
                            x       y       z     vdW  Elec       q    Type
                         _______ _______ _______ _____ _____    ______ ____

>  <TORSDO>
F 10

$$$$
=
 OpenBabel11042411583D

 28 30  0  0  1  0  0  0  0  0999 V2000
  190.1460  176.4820  143.0670 C   0  0  2  0  0  3  0  0  0  0  0  0
  189.6490  176.6990  144.5000 C   0  0  1  0  0  3  0  0  0  0  0  0
  190.0420  177.8830  143.6390 C   0  0  1  0  0  3  0  0  0  0  0  0
  191.6250  177.5770  145.1500 C   0  0  0  0  0  1  0  0  0  0  0  0
  191.3120  178.3240  144.0130 O   0  0  0  0  0  0  0  0  0  0  0  0
  188.1890  176.6370  144.6110 N   0  0  0  0  0  2  0  0  0  0  0  0
  187.6720  177.8320  145.2900 C   0  0  1  0  0  3  0  0  0  0  0  0
  186.6720  178.2470  147.5380 C   0  0  0  0  0  3  0  0  0  0  0  0
  188.5440  176.8390  147.4270 O   0  0  0  0  0  1  0  0  0  0  0  0
  184.0300  179.0070  145.1690 C   0  0  0  0  0  3  0  0  0  0  0  0
  185.2970  178.8220  145.5560 C   0  0  0  0  0  0  0  0  0  0  0  0
  186.3760  178.3130  144.6750 C   0  0  0  0  0  0  0  0  0  0  0  0
  186.2550  178.3290  143.4190 O   0  0  0  0  0  0  0  0  0  0  0  0
  185.6620  179.1960  146.9570 C   0  0  0  0  0  2  0  0  0  0  0  0
  187.6050  177.6450  146.7940 C   0  0  0  0  0  0  0  0  0  0  0  0
  183.5070  178.6860  143.8070 C   0  0  0  0  0  2  0  0  0  0  0  0
  180.8890  178.8180  143.8080 N   0  0  0  0  0  0  0  0  0  0  0  0
  182.0460  178.7610  143.8090 C   0  0  0  0  0  0  0  0  0  0  0  0
  189.0420  176.2830  142.0330 C   0  0  0  0  0  2  0  0  0  0  0  0
  189.0670  177.4080  141.0140 C   0  0  0  0  0  2  0  0  0  0  0  0
  189.6830  176.9420  139.7060 C   0  0  1  0  0  3  0  0  0  0  0  0
  189.2000  177.7890  138.6130 N   0  0  0  0  0  0  0  0  0  0  0  0
  188.3020  179.3570  137.1520 O   0  0  0  0  0  0  0  0  0  0  0  0
  188.1080  178.3690  137.9070 C   0  0  0  0  0  0  0  0  0  0  0  0
  190.4620  177.8670  139.2240 O   0  0  0  0  0  0  0  0  0  0  0  0
  186.7510  177.7660  138.0080 C   0  0  0  0  0  2  0  0  0  0  0  0
  185.7990  178.7740  138.4410 N   0  0  0  0  0  2  0  0  0  0  0  0
  185.7620  178.7140  139.8910 C   0  0  0  0  0  1  0  0  0  0  0  0
  1 19  1  6  0  0  0
  1  3  1  0  0  0  0
  1  2  1  0  0  0  0
  2  6  1  6  0  0  0
  3  5  1  1  0  0  0
  3  2  1  0  0  0  0
  5  4  1  0  0  0  0
  7  6  1  6  0  0  0
  7 15  1  0  0  0  0
 10 11  2  0  0  0  0
 11 14  1  0  0  0  0
 12  7  1  0  0  0  0
 12 11  1  0  0  0  0
 13 12  2  0  0  0  0
 14  8  1  0  0  0  0
 15  9  1  0  0  0  0
 15  8  2  0  0  0  0
 16 18  1  0  0  0  0
 16 10  1  0  0  0  0
 17 18  3  0  0  0  0
 20 19  1  0  0  0  0
 21 20  1  1  0  0  0
 22 25  1  0  0  0  0
 22 21  1  0  0  0  0
 23 24  2  0  0  0  0
 24 26  1  0  0  0  0
 24 22  1  0  0  0  0
 25 21  1  0  0  0  0
 26 27  1  0  0  0  0
 27 28  1  0  0  0  0
M  END
>  <MODEL>
3

>  <REMARK>
 VINA RESULT:      -7.0      2.061      5.294
  Name = 
  10 active torsions:
  status: ('A' for Active; 'I' for Inactive)
    1  A    between atoms: C_1  and  N_8
    2  A    between atoms: C_4  and  C_21
    3  A    between atoms: C_5  and  C_27
    4  A    between atoms: N_8  and  C_9
    5  A    between atoms: C_10  and  C_19
    6  A    between atoms: N_11  and  C_18
    7  A    between atoms: O_17  and  C_26
    8  A    between atoms: C_18  and  C_20
    9  A    between atoms: C_19  and  C_28
   10  A    between atoms: C_21  and  C_27
                            x       y       z     vdW  Elec       q    Type
                         _______ _______ _______ _____ _____    ______ ____

>  <TORSDO>
F 10

$$$$
=
 OpenBabel11042411583D

 28 30  0  0  1  0  0  0  0  0999 V2000
  190.0580  177.0800  142.4840 C   0  0  2  0  0  3  0  0  0  0  0  0
  189.6450  176.8390  143.9400 C   0  0  1  0  0  3  0  0  0  0  0  0
  189.9730  178.2390  143.4590 C   0  0  1  0  0  3  0  0  0  0  0  0
  191.5630  177.6530  144.8770 C   0  0  0  0  0  1  0  0  0  0  0  0
  191.2580  178.5810  143.8800 O   0  0  0  0  0  0  0  0  0  0  0  0
  188.1950  176.7050  144.1050 N   0  0  0  0  0  2  0  0  0  0  0  0
  187.6510  177.8550  144.8410 C   0  0  1  0  0  3  0  0  0  0  0  0
  186.6950  178.1500  147.1260 C   0  0  0  0  0  3  0  0  0  0  0  0
  188.6140  176.8190  146.9170 O   0  0  0  0  0  1  0  0  0  0  0  0
  183.9660  178.8920  144.8510 C   0  0  0  0  0  3  0  0  0  0  0  0
  185.2480  178.7420  145.2000 C   0  0  0  0  0  0  0  0  0  0  0  0
  186.3230  178.3070  144.2750 C   0  0  0  0  0  0  0  0  0  0  0  0
  186.1690  178.3630  143.0230 O   0  0  0  0  0  0  0  0  0  0  0  0
  185.6350  179.0790  146.6040 C   0  0  0  0  0  2  0  0  0  0  0  0
  187.6290  177.6100  146.3370 C   0  0  0  0  0  0  0  0  0  0  0  0
  183.4210  178.6010  143.4910 C   0  0  0  0  0  2  0  0  0  0  0  0
  180.9310  179.4110  143.3410 N   0  0  0  0  0  0  0  0  0  0  0  0
  182.0310  179.0530  143.4100 C   0  0  0  0  0  0  0  0  0  0  0  0
  188.8950  177.1720  141.5000 C   0  0  0  0  0  2  0  0  0  0  0  0
  189.4170  177.2560  140.0760 C   0  0  0  0  0  2  0  0  0  0  0  0
  188.7820  178.4190  139.3330 C   0  0  1  0  0  3  0  0  0  0  0  0
  187.7030  177.9180  138.4790 N   0  0  0  0  0  0  0  0  0  0  0  0
  186.0320  176.8000  137.3140 O   0  0  0  0  0  0  0  0  0  0  0  0
  187.2620  177.0150  137.4700 C   0  0  0  0  0  0  0  0  0  0  0  0
  187.5460  178.5700  139.7130 O   0  0  0  0  0  0  0  0  0  0  0  0
  188.2500  176.3790  136.5550 C   0  0  0  0  0  2  0  0  0  0  0  0
  188.5500  175.0360  137.0180 N   0  0  0  0  0  2  0  0  0  0  0  0
  189.9900  174.9660  137.1830 C   0  0  0  0  0  1  0  0  0  0  0  0
  1 19  1  6  0  0  0
  1  3  1  0  0  0  0
  1  2  1  0  0  0  0
  2  6  1  6  0  0  0
  3  5  1  1  0  0  0
  3  2  1  0  0  0  0
  5  4  1  0  0  0  0
  7  6  1  6  0  0  0
  7 15  1  0  0  0  0
 10 11  2  0  0  0  0
 11 14  1  0  0  0  0
 12  7  1  0  0  0  0
 12 11  1  0  0  0  0
 13 12  2  0  0  0  0
 14  8  1  0  0  0  0
 15  9  1  0  0  0  0
 15  8  2  0  0  0  0
 16 10  1  0  0  0  0
 17 18  3  0  0  0  0
 18 16  1  0  0  0  0
 20 19  1  0  0  0  0
 21 25  1  0  0  0  0
 21 20  1  1  0  0  0
 22 21  1  0  0  0  0
 22 25  1  0  0  0  0
 23 24  2  0  0  0  0
 24 22  1  0  0  0  0
 26 27  1  0  0  0  0
 26 24  1  0  0  0  0
 27 28  1  0  0  0  0
M  END
>  <MODEL>
4

>  <REMARK>
 VINA RESULT:      -6.9      2.368      5.713
  Name = 
  10 active torsions:
  status: ('A' for Active; 'I' for Inactive)
    1  A    between atoms: C_1  and  N_8
    2  A    between atoms: C_4  and  C_21
    3  A    between atoms: C_5  and  C_27
    4  A    between atoms: N_8  and  C_9
    5  A    between atoms: C_10  and  C_19
    6  A    between atoms: N_11  and  C_18
    7  A    between atoms: O_17  and  C_26
    8  A    between atoms: C_18  and  C_20
    9  A    between atoms: C_19  and  C_28
   10  A    between atoms: C_21  and  C_27
                            x       y       z     vdW  Elec       q    Type
                         _______ _______ _______ _____ _____    ______ ____

>  <TORSDO>
F 10

$$$$
=
 OpenBabel11042411583D

 28 30  0  0  1  0  0  0  0  0999 V2000
  190.0400  176.8510  143.6180 C   0  0  2  0  0  3  0  0  0  0  0  0
  189.0470  177.1480  144.7470 C   0  0  1  0  0  3  0  0  0  0  0  0
  189.5520  178.2670  143.8590 C   0  0  1  0  0  3  0  0  0  0  0  0
  191.7390  178.5570  143.9710 C   0  0  0  0  0  1  0  0  0  0  0  0
  190.5370  178.9860  144.5370 O   0  0  0  0  0  0  0  0  0  0  0  0
  187.6640  176.8230  144.3880 N   0  0  0  0  0  2  0  0  0  0  0  0
  186.8070  178.0100  144.5070 C   0  0  1  0  0  3  0  0  0  0  0  0
  184.8300  178.5810  145.9180 C   0  0  0  0  0  3  0  0  0  0  0  0
  186.6170  177.4690  146.9530 O   0  0  0  0  0  1  0  0  0  0  0  0
  183.5970  178.5930  142.5040 C   0  0  0  0  0  3  0  0  0  0  0  0
  184.5340  178.6580  143.4570 C   0  0  0  0  0  0  0  0  0  0  0  0
  185.9340  178.1990  143.2860 C   0  0  0  0  0  0  0  0  0  0  0  0
  186.4270  178.0200  142.1380 O   0  0  0  0  0  0  0  0  0  0  0  0
  184.1600  179.2760  144.7660 C   0  0  0  0  0  2  0  0  0  0  0  0
  186.0420  178.0270  145.8170 C   0  0  0  0  0  0  0  0  0  0  0  0
  183.8110  178.0100  141.1460 C   0  0  0  0  0  2  0  0  0  0  0  0
  184.3760  179.9230  139.4450 N   0  0  0  0  0  0  0  0  0  0  0  0
  184.1290  179.0770  140.1960 C   0  0  0  0  0  0  0  0  0  0  0  0
  189.4060  176.3180  142.3370 C   0  0  0  0  0  2  0  0  0  0  0  0
  190.3500  176.5100  141.1640 C   0  0  0  0  0  2  0  0  0  0  0  0
  189.8700  177.6330  140.2600 C   0  0  1  0  0  3  0  0  0  0  0  0
  189.4380  177.0720  138.9780 N   0  0  0  0  0  0  0  0  0  0  0  0
  188.7750  175.8480  137.1170 O   0  0  0  0  0  0  0  0  0  0  0  0
  189.7170  176.2590  137.8420 C   0  0  0  0  0  0  0  0  0  0  0  0
  188.5980  177.4990  140.0190 O   0  0  0  0  0  0  0  0  0  0  0  0
  191.1270  175.9540  137.4740 C   0  0  0  0  0  2  0  0  0  0  0  0
  191.4820  174.6310  137.9580 N   0  0  0  0  0  2  0  0  0  0  0  0
  191.9360  173.8750  136.8040 C   0  0  0  0  0  1  0  0  0  0  0  0
  1 19  1  6  0  0  0
  1  3  1  0  0  0  0
  1  2  1  0  0  0  0
  2  6  1  6  0  0  0
  3  5  1  1  0  0  0
  3  2  1  0  0  0  0
  4  5  1  0  0  0  0
  7  6  1  6  0  0  0
  7 15  1  0  0  0  0
 10 11  2  0  0  0  0
 11 14  1  0  0  0  0
 12 11  1  0  0  0  0
 12  7  1  0  0  0  0
 13 12  2  0  0  0  0
 14  8  1  0  0  0  0
 15  8  2  0  0  0  0
 15  9  1  0  0  0  0
 16 10  1  0  0  0  0
 17 18  3  0  0  0  0
 18 16  1  0  0  0  0
 20 19  1  0  0  0  0
 21 20  1  1  0  0  0
 22 25  1  0  0  0  0
 22 21  1  0  0  0  0
 23 24  2  0  0  0  0
 24 22  1  0  0  0  0
 25 21  1  0  0  0  0
 26 24  1  0  0  0  0
 26 27  1  0  0  0  0
 28 27  1  0  0  0  0
M  END
>  <MODEL>
5

>  <REMARK>
 VINA RESULT:      -6.8      2.688      5.460
  Name = 
  10 active torsions:
  status: ('A' for Active; 'I' for Inactive)
    1  A    between atoms: C_1  and  N_8
    2  A    between atoms: C_4  and  C_21
    3  A    between atoms: C_5  and  C_27
    4  A    between atoms: N_8  and  C_9
    5  A    between atoms: C_10  and  C_19
    6  A    between atoms: N_11  and  C_18
    7  A    between atoms: O_17  and  C_26
    8  A    between atoms: C_18  and  C_20
    9  A    between atoms: C_19  and  C_28
   10  A    between atoms: C_21  and  C_27
                            x       y       z     vdW  Elec       q    Type
                         _______ _______ _______ _____ _____    ______ ____

>  <TORSDO>
F 10

$$$$
=
 OpenBabel11042411583D

 28 30  0  0  1  0  0  0  0  0999 V2000
  188.2840  178.1280  143.4590 C   0  0  2  0  0  3  0  0  0  0  0  0
  187.1540  178.3570  142.4500 C   0  0  1  0  0  3  0  0  0  0  0  0
  188.2140  177.3050  142.1870 C   0  0  1  0  0  3  0  0  0  0  0  0
  188.3880  178.0480  140.1140 C   0  0  0  0  0  1  0  0  0  0  0  0
  189.1370  177.8010  141.2660 O   0  0  0  0  0  0  0  0  0  0  0  0
  185.9020  177.7050  142.8410 N   0  0  0  0  0  2  0  0  0  0  0  0
  184.8010  178.6780  142.8730 C   0  0  1  0  0  3  0  0  0  0  0  0
  182.8270  179.0070  144.3620 C   0  0  0  0  0  3  0  0  0  0  0  0
  184.8770  178.4870  145.3760 O   0  0  0  0  0  1  0  0  0  0  0  0
  181.4370  178.2270  141.1010 C   0  0  0  0  0  3  0  0  0  0  0  0
  182.3860  178.6410  141.9490 C   0  0  0  0  0  0  0  0  0  0  0  0
  183.8420  178.4810  141.7200 C   0  0  0  0  0  0  0  0  0  0  0  0
  184.2990  178.2430  140.5670 O   0  0  0  0  0  0  0  0  0  0  0  0
  181.9520  179.3530  143.1900 C   0  0  0  0  0  2  0  0  0  0  0  0
  184.1270  178.7250  144.2310 C   0  0  0  0  0  0  0  0  0  0  0  0
  181.7050  177.5060  139.8210 C   0  0  0  0  0  2  0  0  0  0  0  0
  180.4380  175.2100  139.8210 N   0  0  0  0  0  0  0  0  0  0  0  0
  181.0000  176.2230  139.8220 C   0  0  0  0  0  0  0  0  0  0  0  0
  187.9090  177.2430  144.6450 C   0  0  0  0  0  2  0  0  0  0  0  0
  188.4030  177.8630  145.9400 C   0  0  0  0  0  2  0  0  0  0  0  0
  188.5130  176.8150  147.0350 C   0  0  1  0  0  3  0  0  0  0  0  0
  189.8770  176.8100  147.5670 N   0  0  0  0  0  0  0  0  0  0  0  0
  192.0860  177.1230  148.2180 O   0  0  0  0  0  0  0  0  0  0  0  0
  191.2800  176.7320  147.3350 C   0  0  0  0  0  0  0  0  0  0  0  0
  188.7530  177.3880  148.1790 O   0  0  0  0  0  0  0  0  0  0  0  0
  191.7940  176.1260  146.0760 C   0  0  0  0  0  2  0  0  0  0  0  0
  191.6610  177.0780  144.9860 N   0  0  0  0  0  2  0  0  0  0  0  0
  191.5190  176.2990  143.7700 C   0  0  0  0  0  1  0  0  0  0  0  0
  1 19  1  1  0  0  0
  2  6  1  1  0  0  0
  2  1  1  0  0  0  0
  3  5  1  6  0  0  0
  3  2  1  0  0  0  0
  3  1  1  0  0  0  0
  4  5  1  0  0  0  0
  7  6  1  1  0  0  0
  7 15  1  0  0  0  0
 10 11  2  0  0  0  0
 11 14  1  0  0  0  0
 12 11  1  0  0  0  0
 12  7  1  0  0  0  0
 13 12  2  0  0  0  0
 14  8  1  0  0  0  0
 15  8  2  0  0  0  0
 15  9  1  0  0  0  0
 16 18  1  0  0  0  0
 16 10  1  0  0  0  0
 17 18  3  0  0  0  0
 19 20  1  0  0  0  0
 21 20  1  6  0  0  0
 21 22  1  0  0  0  0
 21 25  1  0  0  0  0
 22 25  1  0  0  0  0
 24 22  1  0  0  0  0
 24 23  2  0  0  0  0
 26 24  1  0  0  0  0
 27 26  1  0  0  0  0
 28 27  1  0  0  0  0
M  END
>  <MODEL>
6

>  <REMARK>
 VINA RESULT:      -6.8      2.000      2.971
  Name = 
  10 active torsions:
  status: ('A' for Active; 'I' for Inactive)
    1  A    between atoms: C_1  and  N_8
    2  A    between atoms: C_4  and  C_21
    3  A    between atoms: C_5  and  C_27
    4  A    between atoms: N_8  and  C_9
    5  A    between atoms: C_10  and  C_19
    6  A    between atoms: N_11  and  C_18
    7  A    between atoms: O_17  and  C_26
    8  A    between atoms: C_18  and  C_20
    9  A    between atoms: C_19  and  C_28
   10  A    between atoms: C_21  and  C_27
                            x       y       z     vdW  Elec       q    Type
                         _______ _______ _______ _____ _____    ______ ____

>  <TORSDO>
F 10

$$$$
=
 OpenBabel11042411583D

 28 30  0  0  1  0  0  0  0  0999 V2000
  189.4540  177.8770  144.6940 C   0  0  2  0  0  3  0  0  0  0  0  0
  190.3230  177.8390  143.4340 C   0  0  1  0  0  3  0  0  0  0  0  0
  190.6010  176.8920  144.5830 C   0  0  1  0  0  3  0  0  0  0  0  0
  191.6260  176.6690  146.5270 C   0  0  0  0  0  1  0  0  0  0  0  0
  191.6880  177.3640  145.3190 O   0  0  0  0  0  0  0  0  0  0  0  0
  189.6970  177.1040  142.3320 N   0  0  0  0  0  2  0  0  0  0  0  0
  189.6880  177.9170  141.1080 C   0  0  1  0  0  3  0  0  0  0  0  0
  188.0380  178.2520  139.2670 C   0  0  0  0  0  3  0  0  0  0  0  0
  187.2160  178.1930  141.4630 O   0  0  0  0  0  1  0  0  0  0  0  0
  190.9260  176.7250  137.6870 C   0  0  0  0  0  3  0  0  0  0  0  0
  190.2830  177.4030  138.6440 C   0  0  0  0  0  0  0  0  0  0  0  0
  190.6640  177.3940  140.0770 C   0  0  0  0  0  0  0  0  0  0  0  0
  191.8090  177.0120  140.4460 O   0  0  0  0  0  0  0  0  0  0  0  0
  189.1320  178.2660  138.2370 C   0  0  0  0  0  2  0  0  0  0  0  0
  188.2830  178.1210  140.5750 C   0  0  0  0  0  0  0  0  0  0  0  0
  192.0930  175.8250  137.9290 C   0  0  0  0  0  2  0  0  0  0  0  0
  194.1980  176.7460  136.6650 N   0  0  0  0  0  0  0  0  0  0  0  0
  193.2680  176.3410  137.2250 C   0  0  0  0  0  0  0  0  0  0  0  0
  188.1340  177.1200  144.5800 C   0  0  0  0  0  2  0  0  0  0  0  0
  187.4000  177.1410  145.9090 C   0  0  0  0  0  2  0  0  0  0  0  0
  187.1300  178.5670  146.3580 C   0  0  1  0  0  3  0  0  0  0  0  0
  185.7140  178.8800  146.1550 N   0  0  0  0  0  0  0  0  0  0  0  0
  183.4250  179.0050  145.7740 O   0  0  0  0  0  0  0  0  0  0  0  0
  184.5830  178.9240  145.2890 C   0  0  0  0  0  0  0  0  0  0  0  0
  186.3240  178.5690  147.3800 O   0  0  0  0  0  0  0  0  0  0  0  0
  184.7750  178.9420  143.8130 C   0  0  0  0  0  2  0  0  0  0  0  0
  183.5300  178.5860  143.1540 N   0  0  0  0  0  2  0  0  0  0  0  0
  183.7430  178.7820  141.7320 C   0  0  0  0  0  1  0  0  0  0  0  0
  1 19  1  6  0  0  0
  2  6  1  6  0  0  0
  2  3  1  0  0  0  0
  2  1  1  0  0  0  0
  3  1  1  0  0  0  0
  3  5  1  1  0  0  0
  5  4  1  0  0  0  0
  7  6  1  1  0  0  0
  8 15  2  0  0  0  0
 10 16  1  0  0  0  0
 10 11  2  0  0  0  0
 11 12  1  0  0  0  0
 12 13  2  0  0  0  0
 12  7  1  0  0  0  0
 14 11  1  0  0  0  0
 14  8  1  0  0  0  0
 15  7  1  0  0  0  0
 15  9  1  0  0  0  0
 17 18  3  0  0  0  0
 18 16  1  0  0  0  0
 19 20  1  0  0  0  0
 21 20  1  6  0  0  0
 21 25  1  0  0  0  0
 22 21  1  0  0  0  0
 22 25  1  0  0  0  0
 24 23  2  0  0  0  0
 24 22  1  0  0  0  0
 26 24  1  0  0  0  0
 27 26  1  0  0  0  0
 28 27  1  0  0  0  0
M  END
>  <MODEL>
7

>  <REMARK>
 VINA RESULT:      -6.8      2.854      7.731
  Name = 
  10 active torsions:
  status: ('A' for Active; 'I' for Inactive)
    1  A    between atoms: C_1  and  N_8
    2  A    between atoms: C_4  and  C_21
    3  A    between atoms: C_5  and  C_27
    4  A    between atoms: N_8  and  C_9
    5  A    between atoms: C_10  and  C_19
    6  A    between atoms: N_11  and  C_18
    7  A    between atoms: O_17  and  C_26
    8  A    between atoms: C_18  and  C_20
    9  A    between atoms: C_19  and  C_28
   10  A    between atoms: C_21  and  C_27
                            x       y       z     vdW  Elec       q    Type
                         _______ _______ _______ _____ _____    ______ ____

>  <TORSDO>
F 10

$$$$
=
 OpenBabel11042411583D

 28 30  0  0  1  0  0  0  0  0999 V2000
  189.3820  177.4900  143.6830 C   0  0  2  0  0  3  0  0  0  0  0  0
  189.8860  177.5210  142.2360 C   0  0  1  0  0  3  0  0  0  0  0  0
  190.0960  176.2890  143.0930 C   0  0  1  0  0  3  0  0  0  0  0  0
  191.6830  177.5810  143.9230 C   0  0  0  0  0  1  0  0  0  0  0  0
  191.4130  176.2630  143.5510 O   0  0  0  0  0  0  0  0  0  0  0  0
  188.8250  177.2650  141.2590 N   0  0  0  0  0  2  0  0  0  0  0  0
  189.0980  177.9780  140.0030 C   0  0  1  0  0  3  0  0  0  0  0  0
  187.8290  178.2790  137.8760 C   0  0  0  0  0  3  0  0  0  0  0  0
  186.6330  178.4500  139.8860 O   0  0  0  0  0  1  0  0  0  0  0  0
  190.8140  176.4360  136.9480 C   0  0  0  0  0  3  0  0  0  0  0  0
  190.0710  177.2300  137.7260 C   0  0  0  0  0  0  0  0  0  0  0  0
  190.1930  177.3080  139.2020 C   0  0  0  0  0  0  0  0  0  0  0  0
  191.2210  176.8790  139.7960 O   0  0  0  0  0  0  0  0  0  0  0  0
  189.0840  178.1360  137.0620 C   0  0  0  0  0  2  0  0  0  0  0  0
  187.8290  178.2360  139.2120 C   0  0  0  0  0  0  0  0  0  0  0  0
  191.8430  175.4790  137.4550 C   0  0  0  0  0  2  0  0  0  0  0  0
  194.2350  176.3360  136.8080 N   0  0  0  0  0  0  0  0  0  0  0  0
  193.1790  175.9550  137.0920 C   0  0  0  0  0  0  0  0  0  0  0  0
  187.9000  177.1630  143.8340 C   0  0  0  0  0  2  0  0  0  0  0  0
  187.2390  178.1440  144.7870 C   0  0  0  0  0  2  0  0  0  0  0  0
  186.6950  177.4270  146.0110 C   0  0  1  0  0  3  0  0  0  0  0  0
  187.5890  177.6610  147.1470 N   0  0  0  0  0  0  0  0  0  0  0  0
  189.1670  178.2940  148.7320 O   0  0  0  0  0  0  0  0  0  0  0  0
  188.9020  177.6290  147.6970 C   0  0  0  0  0  0  0  0  0  0  0  0
  186.3550  178.2930  146.9220 O   0  0  0  0  0  0  0  0  0  0  0  0
  189.9440  176.7570  147.0870 C   0  0  0  0  0  2  0  0  0  0  0  0
  191.2320  177.0330  147.7000 N   0  0  0  0  0  2  0  0  0  0  0  0
  192.0910  175.9070  147.3840 C   0  0  0  0  0  1  0  0  0  0  0  0
  1 19  1  6  0  0  0
  2  6  1  6  0  0  0
  2  3  1  0  0  0  0
  2  1  1  0  0  0  0
  3  5  1  1  0  0  0
  3  1  1  0  0  0  0
  5  4  1  0  0  0  0
  7  6  1  1  0  0  0
  8 15  2  0  0  0  0
 10 16  1  0  0  0  0
 10 11  2  0  0  0  0
 11 12  1  0  0  0  0
 12 13  2  0  0  0  0
 12  7  1  0  0  0  0
 14 11  1  0  0  0  0
 14  8  1  0  0  0  0
 15  9  1  0  0  0  0
 15  7  1  0  0  0  0
 17 18  3  0  0  0  0
 18 16  1  0  0  0  0
 19 20  1  0  0  0  0
 21 20  1  6  0  0  0
 21 25  1  0  0  0  0
 21 22  1  0  0  0  0
 22 24  1  0  0  0  0
 24 23  2  0  0  0  0
 25 22  1  0  0  0  0
 26 24  1  0  0  0  0
 26 27  1  0  0  0  0
 28 27  1  0  0  0  0
M  END
>  <MODEL>
8

>  <REMARK>
 VINA RESULT:      -6.8      3.484      7.102
  Name = 
  10 active torsions:
  status: ('A' for Active; 'I' for Inactive)
    1  A    between atoms: C_1  and  N_8
    2  A    between atoms: C_4  and  C_21
    3  A    between atoms: C_5  and  C_27
    4  A    between atoms: N_8  and  C_9
    5  A    between atoms: C_10  and  C_19
    6  A    between atoms: N_11  and  C_18
    7  A    between atoms: O_17  and  C_26
    8  A    between atoms: C_18  and  C_20
    9  A    between atoms: C_19  and  C_28
   10  A    between atoms: C_21  and  C_27
                            x       y       z     vdW  Elec       q    Type
                         _______ _______ _______ _____ _____    ______ ____

>  <TORSDO>
F 10

$$$$
=
 OpenBabel11042411583D

 28 30  0  0  1  0  0  0  0  0999 V2000
  189.6380  177.4570  143.0090 C   0  0  2  0  0  3  0  0  0  0  0  0
  190.4810  177.1630  141.7640 C   0  0  1  0  0  3  0  0  0  0  0  0
  190.4880  176.2030  142.9360 C   0  0  1  0  0  3  0  0  0  0  0  0
  191.5230  177.6710  144.2220 C   0  0  0  0  0  1  0  0  0  0  0  0
  191.6520  176.3910  143.6810 O   0  0  0  0  0  0  0  0  0  0  0  0
  189.6970  176.5930  140.6660 N   0  0  0  0  0  2  0  0  0  0  0  0
  190.0280  177.2550  139.3970 C   0  0  1  0  0  3  0  0  0  0  0  0
  188.6930  178.5040  137.7000 C   0  0  0  0  0  3  0  0  0  0  0  0
  188.2520  178.9400  139.9610 O   0  0  0  0  0  1  0  0  0  0  0  0
  189.9250  175.5650  135.9630 C   0  0  0  0  0  3  0  0  0  0  0  0
  189.9190  176.4910  136.9280 C   0  0  0  0  0  0  0  0  0  0  0  0
  190.3830  176.2570  138.3170 C   0  0  0  0  0  0  0  0  0  0  0  0
  191.1170  175.2710  138.6020 O   0  0  0  0  0  0  0  0  0  0  0  0
  189.4580  177.8690  136.5730 C   0  0  0  0  0  2  0  0  0  0  0  0
  188.9620  178.2520  138.9840 C   0  0  0  0  0  0  0  0  0  0  0  0
  190.3580  174.1480  136.1540 C   0  0  0  0  0  2  0  0  0  0  0  0
  188.2830  172.6630  136.7590 N   0  0  0  0  0  0  0  0  0  0  0  0
  189.1990  173.3200  136.4900 C   0  0  0  0  0  0  0  0  0  0  0  0
  188.1670  177.0690  142.8870 C   0  0  0  0  0  2  0  0  0  0  0  0
  187.5930  176.7480  144.2550 C   0  0  0  0  0  2  0  0  0  0  0  0
  187.8500  177.8830  145.2310 C   0  0  1  0  0  3  0  0  0  0  0  0
  186.5800  178.3150  145.8190 N   0  0  0  0  0  0  0  0  0  0  0  0
  184.4210  178.6870  146.5950 O   0  0  0  0  0  0  0  0  0  0  0  0
  185.2370  178.7550  145.6400 C   0  0  0  0  0  0  0  0  0  0  0  0
  187.5470  177.5100  146.4410 O   0  0  0  0  0  0  0  0  0  0  0  0
  184.8170  179.3580  144.3450 C   0  0  0  0  0  2  0  0  0  0  0  0
  184.5790  178.3060  143.3710 N   0  0  0  0  0  2  0  0  0  0  0  0
  184.9680  178.8420  142.0790 C   0  0  0  0  0  1  0  0  0  0  0  0
  1 19  1  6  0  0  0
  2  6  1  6  0  0  0
  2  3  1  0  0  0  0
  2  1  1  0  0  0  0
  3  1  1  0  0  0  0
  3  5  1  1  0  0  0
  5  4  1  0  0  0  0
  7  6  1  1  0  0  0
  8 15  2  0  0  0  0
 10 16  1  0  0  0  0
 10 11  2  0  0  0  0
 11 12  1  0  0  0  0
 12 13  2  0  0  0  0
 12  7  1  0  0  0  0
 14 11  1  0  0  0  0
 14  8  1  0  0  0  0
 15  7  1  0  0  0  0
 15  9  1  0  0  0  0
 16 18  1  0  0  0  0
 18 17  3  0  0  0  0
 19 20  1  0  0  0  0
 21 20  1  6  0  0  0
 21 22  1  0  0  0  0
 21 25  1  0  0  0  0
 22 25  1  0  0  0  0
 24 22  1  0  0  0  0
 24 23  2  0  0  0  0
 26 24  1  0  0  0  0
 27 26  1  0  0  0  0
 28 27  1  0  0  0  0
M  END
>  <MODEL>
9

>  <REMARK>
 VINA RESULT:      -6.7      2.908      7.399
  Name = 
  10 active torsions:
  status: ('A' for Active; 'I' for Inactive)
    1  A    between atoms: C_1  and  N_8
    2  A    between atoms: C_4  and  C_21
    3  A    between atoms: C_5  and  C_27
    4  A    between atoms: N_8  and  C_9
    5  A    between atoms: C_10  and  C_19
    6  A    between atoms: N_11  and  C_18
    7  A    between atoms: O_17  and  C_26
    8  A    between atoms: C_18  and  C_20
    9  A    between atoms: C_19  and  C_28
   10  A    between atoms: C_21  and  C_27
                            x       y       z     vdW  Elec       q    Type
                         _______ _______ _______ _____ _____    ______ ____

>  <TORSDO>
F 10

$$$$
