=
 OpenBabel11042412403D

 43 45  0  0  1  0  0  0  0  0999 V2000
  190.7200  176.6820  144.7040 C   0  0  0  0  0  3  0  0  0  0  0  0
  190.1390  176.7810  143.4450 C   0  0  0  0  0  0  0  0  0  0  0  0
  188.8630  177.2290  143.5360 N   0  0  0  0  0  0  0  0  0  0  0  0
  186.3760  178.1410  144.3570 C   0  0  0  0  0  0  0  0  0  0  0  0
  186.6510  177.9370  142.9770 C   0  0  0  0  0  0  0  0  0  0  0  0
  187.9230  177.4770  142.5750 C   0  0  0  0  0  0  0  0  0  0  0  0
  187.3940  177.8840  145.2940 C   0  0  0  0  0  3  0  0  0  0  0  0
  185.6820  178.1890  142.0100 O   0  0  0  0  0  1  0  0  0  0  0  0
  188.6260  177.4270  144.8420 C   0  0  0  0  0  0  0  0  0  0  0  0
  189.7400  177.0990  145.5910 C   0  0  0  0  0  0  0  0  0  0  0  0
  184.9010  179.1660  146.1490 N   0  0  0  0  0  1  0  0  0  0  0  0
  185.0440  178.5970  144.8470 C   0  0  0  0  0  0  0  0  0  0  0  0
  183.9710  178.5030  144.0550 C   0  0  0  0  0  3  0  0  0  0  0  0
  182.6140  178.9750  144.4650 C   0  0  0  0  0  2  0  0  0  0  0  0
  181.6900  178.9590  143.2980 C   0  0  0  0  0  0  0  0  0  0  0  0
  179.7000  179.0580  142.0990 C   0  0  0  0  0  3  0  0  0  0  0  0
  180.6080  178.8400  141.0680 C   0  0  0  0  0  0  0  0  0  0  0  0
  180.3110  179.1250  143.3590 C   0  0  0  0  0  3  0  0  0  0  0  0
  182.1650  178.7270  141.7050 S   0  0  0  0  0  0  0  0  0  0  0  0
  180.2630  178.6890  139.6790 N   0  0  0  0  0  0  0  0  0  0  0  0
  180.2530  179.8370  138.7820 C   0  0  0  0  0  2  0  0  0  0  0  0
  181.6210  180.4900  138.7560 C   0  0  0  0  0  1  0  0  0  0  0  0
  179.7340  177.4310  139.1710 C   0  0  0  0  0  2  0  0  0  0  0  0
  180.5250  176.2630  139.7360 C   0  0  0  0  0  2  0  0  0  0  0  0
  181.4410  175.7130  138.6940 C   0  0  0  0  0  0  0  0  0  0  0  0
  180.9810  175.1880  137.6890 O   0  0  0  0  0  0  0  0  0  0  0  0
  183.5700  174.8330  138.1530 O   0  0  0  0  0  1  0  0  0  0  0  0
  182.9200  175.8270  138.8840 C   0  0  1  0  0  3  0  0  0  0  0  0
  183.4150  177.1920  138.4470 C   0  0  0  0  0  1  0  0  0  0  0  0
  190.8350  176.3790  142.1880 C   0  0  0  0  0  2  0  0  0  0  0  0
  191.7850  177.4090  141.8060 N   0  0  0  0  0  2  0  0  0  0  0  0
  193.2920  177.2490  139.9230 C   0  0  0  0  0  1  0  0  0  0  0  0
  191.8510  177.4010  140.3570 C   0  0  0  0  0  2  0  0  0  0  0  0
  188.2010  177.2450  141.1220 C   0  0  0  0  0  2  0  0  0  0  0  0
  188.4140  178.5720  140.4130 C   0  0  0  0  0  2  0  0  0  0  0  0
  189.0130  179.3600  138.2430 O   0  0  0  0  0  1  0  0  0  0  0  0
  188.2610  178.3960  138.9140 C   0  0  0  0  0  3  0  0  0  0  0  0
  186.9180  178.5360  138.5680 O   0  0  0  0  0  1  0  0  0  0  0  0
  189.9190  177.2140  147.0770 C   0  0  2  0  0  3  0  0  0  0  0  0
  192.2090  176.0800  147.8650 C   0  0  0  0  0  3  0  0  0  0  0  0
  191.1760  176.5890  147.5090 C   0  0  0  0  0  0  0  0  0  0  0  0
  188.2960  177.5310  148.6150 O   0  0  0  0  0  1  0  0  0  0  0  0
  188.7980  176.5980  147.7710 N   0  0  0  0  0  2  0  0  0  0  0  0
  1 10  1  0  0  0  0
  2  3  1  0  0  0  0
  2  1  2  0  0  0  0
  3  9  1  0  0  0  0
  4 12  1  0  0  0  0
  4  7  2  0  0  0  0
  5  4  1  0  0  0  0
  6  5  2  0  0  0  0
  6  3  1  0  0  0  0
  8  5  1  0  0  0  0
  9  7  1  0  0  0  0
  9 10  2  0  0  0  0
 10 39  1  0  0  0  0
 12 11  1  0  0  0  0
 13 14  1  0  0  0  0
 13 12  2  0  0  0  0
 15 18  2  0  0  0  0
 15 14  1  0  0  0  0
 16 18  1  0  0  0  0
 17 19  1  0  0  0  0
 17 16  2  0  0  0  0
 19 15  1  0  0  0  0
 20 17  1  0  0  0  0
 21 20  1  0  0  0  0
 22 21  1  0  0  0  0
 23 20  1  0  0  0  0
 23 24  1  0  0  0  0
 25 28  1  0  0  0  0
 25 24  1  0  0  0  0
 26 25  2  0  0  0  0
 27 28  1  0  0  0  0
 28 29  1  6  0  0  0
 30  2  1  0  0  0  0
 31 30  1  0  0  0  0
 32 33  1  0  0  0  0
 33 31  1  0  0  0  0
 34  6  1  0  0  0  0
 35 34  1  0  0  0  0
 36 37  1  0  0  0  0
 37 35  1  0  0  0  0
 38 37  1  0  0  0  0
 39 41  1  1  0  0  0
 39 43  1  0  0  0  0
 41 40  3  0  0  0  0
 43 42  1  0  0  0  0
M  END
>  <MODEL>
1

>  <REMARK>
 VINA RESULT:      -7.6      0.000      0.000
  Name = 
  18 active torsions:
  status: ('A' for Active; 'I' for Inactive)
    1  A    between atoms: C_2  and  C_34
    2  A    between atoms: C_2  and  C_39
    3  A    between atoms: C_4  and  C_5
    4  A    between atoms: C_4  and  C_41
    5  A    between atoms: C_6  and  C_28
    6  A    between atoms: C_9  and  N_17
    7  A    between atoms: C_9  and  C_42
    8  A    between atoms: C_9  and  C_43
    9  A    between atoms: C_12  and  N_23
   10  A    between atoms: C_13  and  C_14
   11  A    between atoms: C_14  and  N_19
   12  A    between atoms: N_19  and  C_37
   13  A    between atoms: C_20  and  C_21
   14  A    between atoms: N_23  and  C_29
   15  A    between atoms: N_23  and  C_30
   16  A    between atoms: C_25  and  C_34
   17  A    between atoms: C_26  and  C_28
   18  A    between atoms: C_30  and  C_41
                            x       y       z     vdW  Elec       q    Type
                         _______ _______ _______ _____ _____    ______ ____

>  <TORSDO>
F 18

$$$$
=
 OpenBabel11042412403D

 43 45  0  0  1  0  0  0  0  0999 V2000
  186.2870  177.9260  143.9560 C   0  0  0  0  0  3  0  0  0  0  0  0
  187.6070  177.4930  143.9290 C   0  0  0  0  0  0  0  0  0  0  0  0
  188.1150  177.5690  142.6740 N   0  0  0  0  0  0  0  0  0  0  0  0
  188.5570  177.9360  139.9600 C   0  0  0  0  0  0  0  0  0  0  0  0
  189.5890  177.4320  140.7990 C   0  0  0  0  0  0  0  0  0  0  0  0
  189.3500  177.2560  142.1780 C   0  0  0  0  0  0  0  0  0  0  0  0
  187.3140  178.2560  140.5370 C   0  0  0  0  0  3  0  0  0  0  0  0
  190.8400  177.1130  140.2800 O   0  0  0  0  0  1  0  0  0  0  0  0
  187.1320  178.0560  141.9000 C   0  0  0  0  0  0  0  0  0  0  0  0
  185.9930  178.2840  142.6500 C   0  0  0  0  0  0  0  0  0  0  0  0
  189.0140  179.4070  137.9460 N   0  0  0  0  0  1  0  0  0  0  0  0
  188.7390  178.1170  138.4930 C   0  0  0  0  0  0  0  0  0  0  0  0
  188.6750  177.0620  137.6740 C   0  0  0  0  0  3  0  0  0  0  0  0
  188.8860  177.1640  136.1980 C   0  0  0  0  0  2  0  0  0  0  0  0
  189.9160  176.1840  135.7580 C   0  0  0  0  0  0  0  0  0  0  0  0
  190.8760  174.4140  134.5940 C   0  0  0  0  0  3  0  0  0  0  0  0
  191.9460  174.8040  135.3940 C   0  0  0  0  0  0  0  0  0  0  0  0
  189.7290  175.1940  134.7990 C   0  0  0  0  0  3  0  0  0  0  0  0
  191.4820  176.1070  136.3580 S   0  0  0  0  0  0  0  0  0  0  0  0
  193.2340  174.1620  135.4250 N   0  0  0  0  0  0  0  0  0  0  0  0
  193.4010  172.7990  134.9380 C   0  0  0  0  0  2  0  0  0  0  0  0
  193.3910  171.8260  136.1000 C   0  0  0  0  0  1  0  0  0  0  0  0
  194.3610  174.7770  136.1110 C   0  0  0  0  0  2  0  0  0  0  0  0
  195.6080  174.6990  135.2450 C   0  0  0  0  0  2  0  0  0  0  0  0
  196.7120  175.4870  135.8670 C   0  0  0  0  0  0  0  0  0  0  0  0
  196.7440  176.7040  135.7400 O   0  0  0  0  0  0  0  0  0  0  0  0
  198.0780  175.5130  137.8000 O   0  0  0  0  0  1  0  0  0  0  0  0
  197.7650  174.7770  136.6570 C   0  0  1  0  0  3  0  0  0  0  0  0
  197.2960  173.3900  137.0530 C   0  0  0  0  0  1  0  0  0  0  0  0
  188.3210  176.9630  145.1270 C   0  0  0  0  0  2  0  0  0  0  0  0
  188.4170  178.0010  146.1370 N   0  0  0  0  0  2  0  0  0  0  0  0
  189.0500  178.1120  148.4670 C   0  0  0  0  0  1  0  0  0  0  0  0
  188.2650  177.3490  147.4240 C   0  0  0  0  0  2  0  0  0  0  0  0
  190.4330  176.7070  143.0540 C   0  0  0  0  0  2  0  0  0  0  0  0
  191.6730  177.5810  142.9600 C   0  0  0  0  0  2  0  0  0  0  0  0
  191.6730  177.5570  145.3460 O   0  0  0  0  0  1  0  0  0  0  0  0
  191.8460  178.3840  144.2360 C   0  0  0  0  0  3  0  0  0  0  0  0
  190.8990  179.4060  144.2700 O   0  0  0  0  0  1  0  0  0  0  0  0
  184.6880  178.8640  142.1910 C   0  0  2  0  0  3  0  0  0  0  0  0
  182.9410  179.0360  144.2090 C   0  0  0  0  0  3  0  0  0  0  0  0
  183.7300  178.9570  143.3010 C   0  0  0  0  0  0  0  0  0  0  0  0
  183.7900  178.9060  140.1190 O   0  0  0  0  0  1  0  0  0  0  0  0
  184.1240  178.0570  141.1200 N   0  0  0  0  0  2  0  0  0  0  0  0
  2  1  2  0  0  0  0
  2 30  1  0  0  0  0
  3  2  1  0  0  0  0
  4  7  2  0  0  0  0
  4  5  1  0  0  0  0
  5  6  2  0  0  0  0
  6  3  1  0  0  0  0
  6 34  1  0  0  0  0
  7  9  1  0  0  0  0
  8  5  1  0  0  0  0
  9 10  2  0  0  0  0
  9  3  1  0  0  0  0
 10  1  1  0  0  0  0
 11 12  1  0  0  0  0
 12  4  1  0  0  0  0
 13 12  2  0  0  0  0
 14 13  1  0  0  0  0
 15 14  1  0  0  0  0
 15 19  1  0  0  0  0
 16 18  1  0  0  0  0
 16 17  2  0  0  0  0
 17 20  1  0  0  0  0
 17 19  1  0  0  0  0
 18 15  2  0  0  0  0
 20 23  1  0  0  0  0
 21 20  1  0  0  0  0
 21 22  1  0  0  0  0
 24 25  1  0  0  0  0
 24 23  1  0  0  0  0
 25 28  1  0  0  0  0
 26 25  2  0  0  0  0
 28 29  1  1  0  0  0
 28 27  1  0  0  0  0
 30 31  1  0  0  0  0
 31 33  1  0  0  0  0
 33 32  1  0  0  0  0
 35 34  1  0  0  0  0
 35 37  1  0  0  0  0
 37 38  1  0  0  0  0
 37 36  1  0  0  0  0
 39 10  1  0  0  0  0
 39 41  1  1  0  0  0
 41 40  3  0  0  0  0
 42 43  1  0  0  0  0
 43 39  1  0  0  0  0
M  END
>  <MODEL>
2

>  <REMARK>
 VINA RESULT:      -7.2      4.520     10.064
  Name = 
  18 active torsions:
  status: ('A' for Active; 'I' for Inactive)
    1  A    between atoms: C_2  and  C_34
    2  A    between atoms: C_2  and  C_39
    3  A    between atoms: C_4  and  C_5
    4  A    between atoms: C_4  and  C_41
    5  A    between atoms: C_6  and  C_28
    6  A    between atoms: C_9  and  N_17
    7  A    between atoms: C_9  and  C_42
    8  A    between atoms: C_9  and  C_43
    9  A    between atoms: C_12  and  N_23
   10  A    between atoms: C_13  and  C_14
   11  A    between atoms: C_14  and  N_19
   12  A    between atoms: N_19  and  C_37
   13  A    between atoms: C_20  and  C_21
   14  A    between atoms: N_23  and  C_29
   15  A    between atoms: N_23  and  C_30
   16  A    between atoms: C_25  and  C_34
   17  A    between atoms: C_26  and  C_28
   18  A    between atoms: C_30  and  C_41
                            x       y       z     vdW  Elec       q    Type
                         _______ _______ _______ _____ _____    ______ ____

>  <TORSDO>
F 18

$$$$
=
 OpenBabel11042412403D

 43 45  0  0  1  0  0  0  0  0999 V2000
  188.4150  177.5390  144.6730 C   0  0  0  0  0  3  0  0  0  0  0  0
  187.2090  177.9650  144.1310 C   0  0  0  0  0  0  0  0  0  0  0  0
  187.3010  178.0890  142.7840 N   0  0  0  0  0  0  0  0  0  0  0  0
  188.1030  178.1610  140.1300 C   0  0  0  0  0  0  0  0  0  0  0  0
  186.7760  178.5180  140.4930 C   0  0  0  0  0  0  0  0  0  0  0  0
  186.3810  178.4710  141.8470 C   0  0  0  0  0  0  0  0  0  0  0  0
  188.9960  177.7590  141.1410 C   0  0  0  0  0  3  0  0  0  0  0  0
  185.8520  178.9100  139.5290 O   0  0  0  0  0  1  0  0  0  0  0  0
  188.5550  177.7370  142.4590 C   0  0  0  0  0  0  0  0  0  0  0  0
  189.2710  177.3970  143.5910 C   0  0  0  0  0  0  0  0  0  0  0  0
  189.0320  179.4490  138.1520 N   0  0  0  0  0  1  0  0  0  0  0  0
  188.5880  178.2170  138.7220 C   0  0  0  0  0  0  0  0  0  0  0  0
  188.6370  177.1030  137.9850 C   0  0  0  0  0  3  0  0  0  0  0  0
  189.1470  177.0790  136.5810 C   0  0  0  0  0  2  0  0  0  0  0  0
  190.3940  176.2690  136.5010 C   0  0  0  0  0  0  0  0  0  0  0  0
  192.2980  175.1330  137.2040 C   0  0  0  0  0  3  0  0  0  0  0  0
  192.3730  174.9310  135.8290 C   0  0  0  0  0  0  0  0  0  0  0  0
  191.1790  175.8890  137.5830 C   0  0  0  0  0  3  0  0  0  0  0  0
  191.0650  175.6840  135.0780 S   0  0  0  0  0  0  0  0  0  0  0  0
  193.4300  174.2270  135.1520 N   0  0  0  0  0  0  0  0  0  0  0  0
  193.2070  172.9000  134.5940 C   0  0  0  0  0  2  0  0  0  0  0  0
  192.7320  171.9520  135.6760 C   0  0  0  0  0  1  0  0  0  0  0  0
  194.7960  174.7300  135.1700 C   0  0  0  0  0  2  0  0  0  0  0  0
  195.6820  173.8170  136.0020 C   0  0  0  0  0  2  0  0  0  0  0  0
  196.3510  174.5990  137.0830 C   0  0  0  0  0  0  0  0  0  0  0  0
  197.0030  175.5950  136.8040 O   0  0  0  0  0  0  0  0  0  0  0  0
  195.8250  175.2440  139.2980 O   0  0  0  0  0  1  0  0  0  0  0  0
  196.2010  174.1600  138.5050 C   0  0  1  0  0  3  0  0  0  0  0  0
  195.1680  173.0550  138.6210 C   0  0  0  0  0  1  0  0  0  0  0  0
  186.0100  178.2920  144.9560 C   0  0  0  0  0  2  0  0  0  0  0  0
  186.1080  177.6300  146.2440 N   0  0  0  0  0  2  0  0  0  0  0  0
  187.5450  177.9700  148.1580 C   0  0  0  0  0  1  0  0  0  0  0  0
  186.5820  178.6210  147.1910 C   0  0  0  0  0  2  0  0  0  0  0  0
  184.9880  178.8670  142.2270 C   0  0  0  0  0  2  0  0  0  0  0  0
  183.9910  177.8620  141.6750 C   0  0  0  0  0  2  0  0  0  0  0  0
  182.1040  179.1300  142.3970 O   0  0  0  0  0  1  0  0  0  0  0  0
  182.7070  178.5640  141.2740 C   0  0  0  0  0  3  0  0  0  0  0  0
  181.8360  177.6390  140.7000 O   0  0  0  0  0  1  0  0  0  0  0  0
  190.6860  176.9050  143.6740 C   0  0  2  0  0  3  0  0  0  0  0  0
  191.4380  176.5480  146.2160 C   0  0  0  0  0  3  0  0  0  0  0  0
  191.0970  176.7070  145.0710 C   0  0  0  0  0  0  0  0  0  0  0  0
  192.2480  177.1530  142.0620 O   0  0  0  0  0  1  0  0  0  0  0  0
  191.5870  177.8420  143.0230 N   0  0  0  0  0  2  0  0  0  0  0  0
  2  1  2  0  0  0  0
  2 30  1  0  0  0  0
  3  2  1  0  0  0  0
  4  5  1  0  0  0  0
  4  7  2  0  0  0  0
  5  6  2  0  0  0  0
  6 34  1  0  0  0  0
  6  3  1  0  0  0  0
  7  9  1  0  0  0  0
  8  5  1  0  0  0  0
  9  3  1  0  0  0  0
  9 10  2  0  0  0  0
 10 39  1  0  0  0  0
 10  1  1  0  0  0  0
 11 12  1  0  0  0  0
 12  4  1  0  0  0  0
 13 12  2  0  0  0  0
 14 13  1  0  0  0  0
 15 14  1  0  0  0  0
 15 18  2  0  0  0  0
 16 18  1  0  0  0  0
 17 16  2  0  0  0  0
 19 17  1  0  0  0  0
 19 15  1  0  0  0  0
 20 23  1  0  0  0  0
 20 17  1  0  0  0  0
 21 20  1  0  0  0  0
 21 22  1  0  0  0  0
 23 24  1  0  0  0  0
 24 25  1  0  0  0  0
 25 28  1  0  0  0  0
 26 25  2  0  0  0  0
 28 29  1  6  0  0  0
 28 27  1  0  0  0  0
 30 31  1  0  0  0  0
 31 33  1  0  0  0  0
 33 32  1  0  0  0  0
 35 34  1  0  0  0  0
 37 35  1  0  0  0  0
 37 36  1  0  0  0  0
 38 37  1  0  0  0  0
 39 41  1  1  0  0  0
 41 40  3  0  0  0  0
 42 43  1  0  0  0  0
 43 39  1  0  0  0  0
M  END
>  <MODEL>
3

>  <REMARK>
 VINA RESULT:      -7.2      4.218      9.473
  Name = 
  18 active torsions:
  status: ('A' for Active; 'I' for Inactive)
    1  A    between atoms: C_2  and  C_34
    2  A    between atoms: C_2  and  C_39
    3  A    between atoms: C_4  and  C_5
    4  A    between atoms: C_4  and  C_41
    5  A    between atoms: C_6  and  C_28
    6  A    between atoms: C_9  and  N_17
    7  A    between atoms: C_9  and  C_42
    8  A    between atoms: C_9  and  C_43
    9  A    between atoms: C_12  and  N_23
   10  A    between atoms: C_13  and  C_14
   11  A    between atoms: C_14  and  N_19
   12  A    between atoms: N_19  and  C_37
   13  A    between atoms: C_20  and  C_21
   14  A    between atoms: N_23  and  C_29
   15  A    between atoms: N_23  and  C_30
   16  A    between atoms: C_25  and  C_34
   17  A    between atoms: C_26  and  C_28
   18  A    between atoms: C_30  and  C_41
                            x       y       z     vdW  Elec       q    Type
                         _______ _______ _______ _____ _____    ______ ____

>  <TORSDO>
F 18

$$$$
=
 OpenBabel11042412403D

 43 45  0  0  1  0  0  0  0  0999 V2000
  188.7790  177.4760  144.5360 C   0  0  0  0  0  3  0  0  0  0  0  0
  187.5720  177.9090  143.9990 C   0  0  0  0  0  0  0  0  0  0  0  0
  187.6530  178.0120  142.6500 N   0  0  0  0  0  0  0  0  0  0  0  0
  188.4300  178.0360  139.9880 C   0  0  0  0  0  0  0  0  0  0  0  0
  187.1100  178.4140  140.3580 C   0  0  0  0  0  0  0  0  0  0  0  0
  186.7280  178.3920  141.7170 C   0  0  0  0  0  0  0  0  0  0  0  0
  189.3270  177.6370  140.9960 C   0  0  0  0  0  3  0  0  0  0  0  0
  186.1820  178.8040  139.3980 O   0  0  0  0  0  1  0  0  0  0  0  0
  188.8990  177.6400  142.3180 C   0  0  0  0  0  0  0  0  0  0  0  0
  189.6220  177.3070  143.4480 C   0  0  0  0  0  0  0  0  0  0  0  0
  189.0420  179.3050  137.8790 N   0  0  0  0  0  1  0  0  0  0  0  0
  188.9010  178.0660  138.5740 C   0  0  0  0  0  0  0  0  0  0  0  0
  189.2240  176.9280  137.9510 C   0  0  0  0  0  3  0  0  0  0  0  0
  189.7390  176.8870  136.5490 C   0  0  0  0  0  2  0  0  0  0  0  0
  191.0410  176.1670  136.5010 C   0  0  0  0  0  0  0  0  0  0  0  0
  192.9770  175.2310  135.6140 C   0  0  0  0  0  3  0  0  0  0  0  0
  193.1290  174.9060  136.9590 C   0  0  0  0  0  0  0  0  0  0  0  0
  191.7970  175.9440  135.3560 C   0  0  0  0  0  3  0  0  0  0  0  0
  191.8100  175.4920  137.8320 S   0  0  0  0  0  0  0  0  0  0  0  0
  194.2210  174.1460  137.5090 N   0  0  0  0  0  0  0  0  0  0  0  0
  194.2650  172.6970  137.3740 C   0  0  0  0  0  2  0  0  0  0  0  0
  194.6480  172.3160  135.9580 C   0  0  0  0  0  1  0  0  0  0  0  0
  195.2100  174.7740  138.3730 C   0  0  0  0  0  2  0  0  0  0  0  0
  196.4060  173.8560  138.5560 C   0  0  0  0  0  2  0  0  0  0  0  0
  197.6300  174.4880  137.9800 C   0  0  0  0  0  0  0  0  0  0  0  0
  198.1440  175.4480  138.5390 O   0  0  0  0  0  0  0  0  0  0  0  0
  198.1270  172.5360  136.7390 O   0  0  0  0  0  1  0  0  0  0  0  0
  198.2260  173.9270  136.7290 C   0  0  1  0  0  3  0  0  0  0  0  0
  197.5260  174.4830  135.5030 C   0  0  0  0  0  1  0  0  0  0  0  0
  186.3860  178.2620  144.8310 C   0  0  0  0  0  2  0  0  0  0  0  0
  186.6390  177.9120  146.2170 N   0  0  0  0  0  2  0  0  0  0  0  0
  184.3380  178.6440  146.1020 C   0  0  0  0  0  1  0  0  0  0  0  0
  185.5440  178.4600  146.9960 C   0  0  0  0  0  2  0  0  0  0  0  0
  185.3440  178.8110  142.1050 C   0  0  0  0  0  2  0  0  0  0  0  0
  184.3480  177.7260  141.7330 C   0  0  0  0  0  2  0  0  0  0  0  0
  183.0960  179.2490  140.3910 O   0  0  0  0  0  1  0  0  0  0  0  0
  182.9910  178.3370  141.4420 C   0  0  0  0  0  3  0  0  0  0  0  0
  182.5280  178.9960  142.5790 O   0  0  0  0  0  1  0  0  0  0  0  0
  191.0320  176.7990  143.5240 C   0  0  2  0  0  3  0  0  0  0  0  0
  191.6930  176.1630  146.0360 C   0  0  0  0  0  3  0  0  0  0  0  0
  191.3940  176.4470  144.9040 C   0  0  0  0  0  0  0  0  0  0  0  0
  191.6500  178.9690  143.6120 O   0  0  0  0  0  1  0  0  0  0  0  0
  191.9580  177.7950  143.0100 N   0  0  0  0  0  2  0  0  0  0  0  0
  2  1  2  0  0  0  0
  2 30  1  0  0  0  0
  3  2  1  0  0  0  0
  4  5  1  0  0  0  0
  4  7  2  0  0  0  0
  5  6  2  0  0  0  0
  6 34  1  0  0  0  0
  6  3  1  0  0  0  0
  7  9  1  0  0  0  0
  8  5  1  0  0  0  0
  9  3  1  0  0  0  0
  9 10  2  0  0  0  0
 10 39  1  0  0  0  0
 10  1  1  0  0  0  0
 11 12  1  0  0  0  0
 12  4  1  0  0  0  0
 13 12  2  0  0  0  0
 14 13  1  0  0  0  0
 15 14  1  0  0  0  0
 15 19  1  0  0  0  0
 16 17  2  0  0  0  0
 17 20  1  0  0  0  0
 17 19  1  0  0  0  0
 18 16  1  0  0  0  0
 18 15  2  0  0  0  0
 20 23  1  0  0  0  0
 21 20  1  0  0  0  0
 22 21  1  0  0  0  0
 23 24  1  0  0  0  0
 25 26  2  0  0  0  0
 25 24  1  0  0  0  0
 28 29  1  6  0  0  0
 28 27  1  0  0  0  0
 28 25  1  0  0  0  0
 30 31  1  0  0  0  0
 31 33  1  0  0  0  0
 32 33  1  0  0  0  0
 35 34  1  0  0  0  0
 36 37  1  0  0  0  0
 37 35  1  0  0  0  0
 37 38  1  0  0  0  0
 39 41  1  1  0  0  0
 41 40  3  0  0  0  0
 43 39  1  0  0  0  0
 43 42  1  0  0  0  0
M  END
>  <MODEL>
4

>  <REMARK>
 VINA RESULT:      -7.1      4.402      9.975
  Name = 
  18 active torsions:
  status: ('A' for Active; 'I' for Inactive)
    1  A    between atoms: C_2  and  C_34
    2  A    between atoms: C_2  and  C_39
    3  A    between atoms: C_4  and  C_5
    4  A    between atoms: C_4  and  C_41
    5  A    between atoms: C_6  and  C_28
    6  A    between atoms: C_9  and  N_17
    7  A    between atoms: C_9  and  C_42
    8  A    between atoms: C_9  and  C_43
    9  A    between atoms: C_12  and  N_23
   10  A    between atoms: C_13  and  C_14
   11  A    between atoms: C_14  and  N_19
   12  A    between atoms: N_19  and  C_37
   13  A    between atoms: C_20  and  C_21
   14  A    between atoms: N_23  and  C_29
   15  A    between atoms: N_23  and  C_30
   16  A    between atoms: C_25  and  C_34
   17  A    between atoms: C_26  and  C_28
   18  A    between atoms: C_30  and  C_41
                            x       y       z     vdW  Elec       q    Type
                         _______ _______ _______ _____ _____    ______ ____

>  <TORSDO>
F 18

$$$$
=
 OpenBabel11042412403D

 43 45  0  0  1  0  0  0  0  0999 V2000
  190.8950  176.7400  142.6500 C   0  0  0  0  0  3  0  0  0  0  0  0
  190.2580  177.3090  141.5550 C   0  0  0  0  0  0  0  0  0  0  0  0
  188.9880  177.6670  141.8670 N   0  0  0  0  0  0  0  0  0  0  0  0
  186.5420  178.1490  143.0830 C   0  0  0  0  0  0  0  0  0  0  0  0
  186.7540  178.5000  141.7210 C   0  0  0  0  0  0  0  0  0  0  0  0
  188.0050  178.2530  141.1180 C   0  0  0  0  0  0  0  0  0  0  0  0
  187.6010  177.5650  143.8020 C   0  0  0  0  0  3  0  0  0  0  0  0
  185.7420  179.0920  140.9700 O   0  0  0  0  0  1  0  0  0  0  0  0
  188.8110  177.3390  143.1560 C   0  0  0  0  0  0  0  0  0  0  0  0
  189.9570  176.7640  143.6710 C   0  0  0  0  0  0  0  0  0  0  0  0
  185.1630  178.4460  145.1910 N   0  0  0  0  0  1  0  0  0  0  0  0
  185.2350  178.3580  143.7670 C   0  0  0  0  0  0  0  0  0  0  0  0
  184.1160  178.4940  143.0480 C   0  0  0  0  0  3  0  0  0  0  0  0
  182.7790  178.7450  143.6650 C   0  0  0  0  0  2  0  0  0  0  0  0
  181.7750  179.0480  142.6090 C   0  0  0  0  0  0  0  0  0  0  0  0
  179.7740  179.7380  141.6450 C   0  0  0  0  0  3  0  0  0  0  0  0
  180.4890  179.3670  140.5100 C   0  0  0  0  0  0  0  0  0  0  0  0
  180.5010  179.5590  142.8310 C   0  0  0  0  0  3  0  0  0  0  0  0
  182.0150  178.8130  140.9640 S   0  0  0  0  0  0  0  0  0  0  0  0
  179.9830  179.4060  139.1630 N   0  0  0  0  0  0  0  0  0  0  0  0
  178.9310  178.4960  138.7330 C   0  0  0  0  0  2  0  0  0  0  0  0
  179.4970  177.4500  137.7930 C   0  0  0  0  0  1  0  0  0  0  0  0
  180.6310  180.2180  138.1430 C   0  0  0  0  0  2  0  0  0  0  0  0
  180.2000  181.6700  138.2760 C   0  0  0  0  0  2  0  0  0  0  0  0
  181.3600  182.5740  138.0250 C   0  0  0  0  0  0  0  0  0  0  0  0
  182.4760  182.2630  138.4210 O   0  0  0  0  0  0  0  0  0  0  0  0
  182.2490  184.6880  137.4400 O   0  0  0  0  0  1  0  0  0  0  0  0
  181.1470  183.8490  137.2730 C   0  0  1  0  0  3  0  0  0  0  0  0
  180.9320  183.5730  135.7970 C   0  0  0  0  0  1  0  0  0  0  0  0
  190.8950  177.4380  140.2120 C   0  0  0  0  0  2  0  0  0  0  0  0
  190.9730  176.1330  139.5810 N   0  0  0  0  0  2  0  0  0  0  0  0
  192.5330  176.1060  137.7340 C   0  0  0  0  0  1  0  0  0  0  0  0
  191.1030  176.3630  138.1550 C   0  0  0  0  0  2  0  0  0  0  0  0
  188.2170  178.6070  139.6790 C   0  0  0  0  0  2  0  0  0  0  0  0
  187.7130  177.4850  138.7860 C   0  0  0  0  0  2  0  0  0  0  0  0
  188.0250  179.2270  137.1860 O   0  0  0  0  0  1  0  0  0  0  0  0
  187.3500  178.0270  137.4170 C   0  0  0  0  0  3  0  0  0  0  0  0
  185.9760  178.2530  137.3600 O   0  0  0  0  0  1  0  0  0  0  0  0
  190.2040  176.2970  145.0750 C   0  0  2  0  0  3  0  0  0  0  0  0
  189.0690  177.9380  146.8560 C   0  0  0  0  0  3  0  0  0  0  0  0
  189.5790  177.1990  146.0520 C   0  0  0  0  0  0  0  0  0  0  0  0
  191.9380  177.1770  146.2240 O   0  0  0  0  0  1  0  0  0  0  0  0
  191.6320  176.2020  145.3350 N   0  0  0  0  0  2  0  0  0  0  0  0
  1 10  1  0  0  0  0
  2  3  1  0  0  0  0
  2  1  2  0  0  0  0
  3  9  1  0  0  0  0
  4 12  1  0  0  0  0
  4  7  2  0  0  0  0
  5  4  1  0  0  0  0
  6  5  2  0  0  0  0
  6  3  1  0  0  0  0
  8  5  1  0  0  0  0
  9 10  2  0  0  0  0
  9  7  1  0  0  0  0
 10 39  1  0  0  0  0
 12 11  1  0  0  0  0
 13 14  1  0  0  0  0
 13 12  2  0  0  0  0
 15 18  2  0  0  0  0
 15 14  1  0  0  0  0
 16 18  1  0  0  0  0
 17 19  1  0  0  0  0
 17 16  2  0  0  0  0
 19 15  1  0  0  0  0
 20 17  1  0  0  0  0
 21 20  1  0  0  0  0
 22 21  1  0  0  0  0
 23 24  1  0  0  0  0
 23 20  1  0  0  0  0
 25 24  1  0  0  0  0
 25 26  2  0  0  0  0
 28 29  1  6  0  0  0
 28 27  1  0  0  0  0
 28 25  1  0  0  0  0
 30  2  1  0  0  0  0
 31 30  1  0  0  0  0
 32 33  1  0  0  0  0
 33 31  1  0  0  0  0
 34  6  1  0  0  0  0
 35 34  1  0  0  0  0
 36 37  1  0  0  0  0
 37 35  1  0  0  0  0
 38 37  1  0  0  0  0
 39 43  1  0  0  0  0
 39 41  1  1  0  0  0
 41 40  3  0  0  0  0
 43 42  1  0  0  0  0
M  END
>  <MODEL>
5

>  <REMARK>
 VINA RESULT:      -6.9      2.287      3.473
  Name = 
  18 active torsions:
  status: ('A' for Active; 'I' for Inactive)
    1  A    between atoms: C_2  and  C_34
    2  A    between atoms: C_2  and  C_39
    3  A    between atoms: C_4  and  C_5
    4  A    between atoms: C_4  and  C_41
    5  A    between atoms: C_6  and  C_28
    6  A    between atoms: C_9  and  N_17
    7  A    between atoms: C_9  and  C_42
    8  A    between atoms: C_9  and  C_43
    9  A    between atoms: C_12  and  N_23
   10  A    between atoms: C_13  and  C_14
   11  A    between atoms: C_14  and  N_19
   12  A    between atoms: N_19  and  C_37
   13  A    between atoms: C_20  and  C_21
   14  A    between atoms: N_23  and  C_29
   15  A    between atoms: N_23  and  C_30
   16  A    between atoms: C_25  and  C_34
   17  A    between atoms: C_26  and  C_28
   18  A    between atoms: C_30  and  C_41
                            x       y       z     vdW  Elec       q    Type
                         _______ _______ _______ _____ _____    ______ ____

>  <TORSDO>
F 18

$$$$
=
 OpenBabel11042412403D

 43 45  0  0  1  0  0  0  0  0999 V2000
  184.9530  178.3840  144.5340 C   0  0  0  0  0  3  0  0  0  0  0  0
  186.2420  177.9040  144.7360 C   0  0  0  0  0  0  0  0  0  0  0  0
  186.9400  177.8910  143.5740 N   0  0  0  0  0  0  0  0  0  0  0  0
  187.8120  178.0870  140.9480 C   0  0  0  0  0  0  0  0  0  0  0  0
  188.6790  177.5960  141.9620 C   0  0  0  0  0  0  0  0  0  0  0  0
  188.2220  177.5070  143.2950 C   0  0  0  0  0  0  0  0  0  0  0  0
  186.5100  178.4820  141.3050 C   0  0  0  0  0  3  0  0  0  0  0  0
  189.9810  177.2050  141.6630 O   0  0  0  0  0  1  0  0  0  0  0  0
  186.1110  178.3670  142.6310 C   0  0  0  0  0  0  0  0  0  0  0  0
  184.8810  178.6780  143.1810 C   0  0  0  0  0  0  0  0  0  0  0  0
  189.6080  178.2330  139.1640 N   0  0  0  0  0  1  0  0  0  0  0  0
  188.2270  178.1780  139.5200 C   0  0  0  0  0  0  0  0  0  0  0  0
  187.3040  178.1800  138.5520 C   0  0  0  0  0  3  0  0  0  0  0  0
  187.6490  178.2290  137.1000 C   0  0  0  0  0  2  0  0  0  0  0  0
  187.0110  177.0920  136.3810 C   0  0  0  0  0  0  0  0  0  0  0  0
  185.7560  175.9590  134.7840 C   0  0  0  0  0  3  0  0  0  0  0  0
  186.1740  174.8970  135.5810 C   0  0  0  0  0  0  0  0  0  0  0  0
  186.2290  177.1990  135.2360 C   0  0  0  0  0  3  0  0  0  0  0  0
  187.1230  175.4830  136.8450 S   0  0  0  0  0  0  0  0  0  0  0  0
  185.8110  173.5190  135.3800 N   0  0  0  0  0  0  0  0  0  0  0  0
  186.7270  172.5920  134.7280 C   0  0  0  0  0  2  0  0  0  0  0  0
  186.8100  171.3000  135.5170 C   0  0  0  0  0  1  0  0  0  0  0  0
  184.4570  173.0540  135.6480 C   0  0  0  0  0  2  0  0  0  0  0  0
  184.0390  173.4400  137.0570 C   0  0  0  0  0  2  0  0  0  0  0  0
  182.6190  173.8990  137.0620 C   0  0  0  0  0  0  0  0  0  0  0  0
  181.7370  173.1680  136.6330 O   0  0  0  0  0  0  0  0  0  0  0  0
  181.5000  175.1170  138.7550 O   0  0  0  0  0  1  0  0  0  0  0  0
  182.2870  175.2500  137.6110 C   0  0  1  0  0  3  0  0  0  0  0  0
  183.5500  176.0210  137.9440 C   0  0  0  0  0  1  0  0  0  0  0  0
  186.7380  177.4190  146.0560 C   0  0  0  0  0  2  0  0  0  0  0  0
  186.4710  178.4180  147.0750 N   0  0  0  0  0  2  0  0  0  0  0  0
  188.2210  177.0200  147.9850 C   0  0  0  0  0  1  0  0  0  0  0  0
  187.6000  178.3990  147.9870 C   0  0  0  0  0  2  0  0  0  0  0  0
  189.1320  176.9720  144.3560 C   0  0  0  0  0  2  0  0  0  0  0  0
  189.9330  178.1040  144.9760 C   0  0  0  0  0  2  0  0  0  0  0  0
  191.9660  178.6470  143.8520 O   0  0  0  0  0  1  0  0  0  0  0  0
  191.4190  177.8300  144.8420 C   0  0  0  0  0  3  0  0  0  0  0  0
  191.6120  176.4940  144.4950 O   0  0  0  0  0  1  0  0  0  0  0  0
  183.6880  179.2760  142.4940 C   0  0  2  0  0  3  0  0  0  0  0  0
  181.4340  178.7430  143.8300 C   0  0  0  0  0  3  0  0  0  0  0  0
  182.4510  178.9830  143.2300 C   0  0  0  0  0  0  0  0  0  0  0  0
  183.1980  177.4770  141.2180 O   0  0  0  0  0  1  0  0  0  0  0  0
  183.5830  178.7730  141.1330 N   0  0  0  0  0  2  0  0  0  0  0  0
  1  2  2  0  0  0  0
  2 30  1  0  0  0  0
  3  2  1  0  0  0  0
  4  7  2  0  0  0  0
  4  5  1  0  0  0  0
  5  6  2  0  0  0  0
  6  3  1  0  0  0  0
  6 34  1  0  0  0  0
  7  9  1  0  0  0  0
  8  5  1  0  0  0  0
  9 10  2  0  0  0  0
  9  3  1  0  0  0  0
 10  1  1  0  0  0  0
 11 12  1  0  0  0  0
 12  4  1  0  0  0  0
 13 12  2  0  0  0  0
 14 13  1  0  0  0  0
 15 19  1  0  0  0  0
 15 14  1  0  0  0  0
 16 18  1  0  0  0  0
 16 17  2  0  0  0  0
 17 19  1  0  0  0  0
 18 15  2  0  0  0  0
 20 17  1  0  0  0  0
 20 23  1  0  0  0  0
 21 20  1  0  0  0  0
 21 22  1  0  0  0  0
 23 24  1  0  0  0  0
 24 25  1  0  0  0  0
 25 28  1  0  0  0  0
 26 25  2  0  0  0  0
 28 29  1  1  0  0  0
 28 27  1  0  0  0  0
 30 31  1  0  0  0  0
 31 33  1  0  0  0  0
 32 33  1  0  0  0  0
 34 35  1  0  0  0  0
 36 37  1  0  0  0  0
 37 35  1  0  0  0  0
 38 37  1  0  0  0  0
 39 10  1  0  0  0  0
 39 41  1  1  0  0  0
 41 40  3  0  0  0  0
 43 42  1  0  0  0  0
 43 39  1  0  0  0  0
M  END
>  <MODEL>
6

>  <REMARK>
 VINA RESULT:      -6.9      3.411      7.026
  Name = 
  18 active torsions:
  status: ('A' for Active; 'I' for Inactive)
    1  A    between atoms: C_2  and  C_34
    2  A    between atoms: C_2  and  C_39
    3  A    between atoms: C_4  and  C_5
    4  A    between atoms: C_4  and  C_41
    5  A    between atoms: C_6  and  C_28
    6  A    between atoms: C_9  and  N_17
    7  A    between atoms: C_9  and  C_42
    8  A    between atoms: C_9  and  C_43
    9  A    between atoms: C_12  and  N_23
   10  A    between atoms: C_13  and  C_14
   11  A    between atoms: C_14  and  N_19
   12  A    between atoms: N_19  and  C_37
   13  A    between atoms: C_20  and  C_21
   14  A    between atoms: N_23  and  C_29
   15  A    between atoms: N_23  and  C_30
   16  A    between atoms: C_25  and  C_34
   17  A    between atoms: C_26  and  C_28
   18  A    between atoms: C_30  and  C_41
                            x       y       z     vdW  Elec       q    Type
                         _______ _______ _______ _____ _____    ______ ____

>  <TORSDO>
F 18

$$$$
=
 OpenBabel11042412403D

 43 45  0  0  1  0  0  0  0  0999 V2000
  187.9650  177.6440  145.2760 C   0  0  0  0  0  3  0  0  0  0  0  0
  188.6940  177.7610  144.0990 C   0  0  0  0  0  0  0  0  0  0  0  0
  187.8770  178.0120  143.0470 N   0  0  0  0  0  0  0  0  0  0  0  0
  185.7400  178.4840  141.3440 C   0  0  0  0  0  0  0  0  0  0  0  0
  187.0690  178.4370  140.8390 C   0  0  0  0  0  0  0  0  0  0  0  0
  188.1460  178.2010  141.7200 C   0  0  0  0  0  0  0  0  0  0  0  0
  185.5340  178.3000  142.7230 C   0  0  0  0  0  3  0  0  0  0  0  0
  187.3270  178.6260  139.4850 O   0  0  0  0  0  1  0  0  0  0  0  0
  186.6310  178.0650  143.5430 C   0  0  0  0  0  0  0  0  0  0  0  0
  186.6430  177.8400  144.9070 C   0  0  0  0  0  0  0  0  0  0  0  0
  184.5550  179.7530  139.4940 N   0  0  0  0  0  1  0  0  0  0  0  0
  184.5590  178.7010  140.4610 C   0  0  0  0  0  0  0  0  0  0  0  0
  183.5000  177.8910  140.5470 C   0  0  0  0  0  3  0  0  0  0  0  0
  182.2990  178.0260  139.6680 C   0  0  0  0  0  2  0  0  0  0  0  0
  182.4650  177.1980  138.4420 C   0  0  0  0  0  0  0  0  0  0  0  0
  182.4080  176.6080  136.1930 C   0  0  0  0  0  3  0  0  0  0  0  0
  182.9170  175.4390  136.7510 C   0  0  0  0  0  0  0  0  0  0  0  0
  182.1530  177.6020  137.1480 C   0  0  0  0  0  3  0  0  0  0  0  0
  183.0510  175.6250  138.4210 S   0  0  0  0  0  0  0  0  0  0  0  0
  183.2360  174.2420  136.0180 N   0  0  0  0  0  0  0  0  0  0  0  0
  182.3830  173.0640  136.1050 C   0  0  0  0  0  2  0  0  0  0  0  0
  183.2240  171.8050  136.0310 C   0  0  0  0  0  1  0  0  0  0  0  0
  184.5080  174.1050  135.3230 C   0  0  0  0  0  2  0  0  0  0  0  0
  185.6530  174.4890  136.2450 C   0  0  0  0  0  2  0  0  0  0  0  0
  186.4460  175.6000  135.6400 C   0  0  0  0  0  0  0  0  0  0  0  0
  185.9050  176.6640  135.3740 O   0  0  0  0  0  0  0  0  0  0  0  0
  188.5390  176.6390  135.2660 O   0  0  0  0  0  1  0  0  0  0  0  0
  187.9060  175.4020  135.3810 C   0  0  1  0  0  3  0  0  0  0  0  0
  188.5460  174.5990  136.4970 C   0  0  0  0  0  1  0  0  0  0  0  0
  190.1720  177.5700  144.0290 C   0  0  0  0  0  2  0  0  0  0  0  0
  190.4800  176.1520  143.9910 N   0  0  0  0  0  2  0  0  0  0  0  0
  191.5610  176.7460  146.0700 C   0  0  0  0  0  1  0  0  0  0  0  0
  191.6810  175.9620  144.7830 C   0  0  0  0  0  2  0  0  0  0  0  0
  189.5420  178.1320  141.1820 C   0  0  0  0  0  2  0  0  0  0  0  0
  189.8000  176.7640  140.5740 C   0  0  0  0  0  2  0  0  0  0  0  0
  190.1510  177.7120  138.4130 O   0  0  0  0  0  1  0  0  0  0  0  0
  190.7270  176.8870  139.3790 C   0  0  0  0  0  3  0  0  0  0  0  0
  190.9480  175.6230  138.8340 O   0  0  0  0  0  1  0  0  0  0  0  0
  185.4790  177.8560  145.8540 C   0  0  2  0  0  3  0  0  0  0  0  0
  183.4350  179.2560  144.8480 C   0  0  0  0  0  3  0  0  0  0  0  0
  184.3570  178.6270  145.3020 C   0  0  0  0  0  0  0  0  0  0  0  0
  185.6820  179.7520  147.0640 O   0  0  0  0  0  1  0  0  0  0  0  0
  185.8780  178.4140  147.1370 N   0  0  0  0  0  2  0  0  0  0  0  0
  2  1  2  0  0  0  0
  3  9  1  0  0  0  0
  3  2  1  0  0  0  0
  4  7  2  0  0  0  0
  5  4  1  0  0  0  0
  5  6  2  0  0  0  0
  6  3  1  0  0  0  0
  7  9  1  0  0  0  0
  8  5  1  0  0  0  0
  9 10  2  0  0  0  0
 10  1  1  0  0  0  0
 10 39  1  0  0  0  0
 11 12  1  0  0  0  0
 12 13  2  0  0  0  0
 12  4  1  0  0  0  0
 14 13  1  0  0  0  0
 15 14  1  0  0  0  0
 16 17  2  0  0  0  0
 16 18  1  0  0  0  0
 17 19  1  0  0  0  0
 18 15  2  0  0  0  0
 19 15  1  0  0  0  0
 20 21  1  0  0  0  0
 20 17  1  0  0  0  0
 22 21  1  0  0  0  0
 23 20  1  0  0  0  0
 23 24  1  0  0  0  0
 25 24  1  0  0  0  0
 26 25  2  0  0  0  0
 27 28  1  0  0  0  0
 28 25  1  0  0  0  0
 28 29  1  1  0  0  0
 30  2  1  0  0  0  0
 31 30  1  0  0  0  0
 31 33  1  0  0  0  0
 33 32  1  0  0  0  0
 34  6  1  0  0  0  0
 35 34  1  0  0  0  0
 36 37  1  0  0  0  0
 37 35  1  0  0  0  0
 38 37  1  0  0  0  0
 39 41  1  6  0  0  0
 39 43  1  0  0  0  0
 40 41  3  0  0  0  0
 42 43  1  0  0  0  0
M  END
>  <MODEL>
7

>  <REMARK>
 VINA RESULT:      -6.7      2.861      5.096
  Name = 
  18 active torsions:
  status: ('A' for Active; 'I' for Inactive)
    1  A    between atoms: C_2  and  C_34
    2  A    between atoms: C_2  and  C_39
    3  A    between atoms: C_4  and  C_5
    4  A    between atoms: C_4  and  C_41
    5  A    between atoms: C_6  and  C_28
    6  A    between atoms: C_9  and  N_17
    7  A    between atoms: C_9  and  C_42
    8  A    between atoms: C_9  and  C_43
    9  A    between atoms: C_12  and  N_23
   10  A    between atoms: C_13  and  C_14
   11  A    between atoms: C_14  and  N_19
   12  A    between atoms: N_19  and  C_37
   13  A    between atoms: C_20  and  C_21
   14  A    between atoms: N_23  and  C_29
   15  A    between atoms: N_23  and  C_30
   16  A    between atoms: C_25  and  C_34
   17  A    between atoms: C_26  and  C_28
   18  A    between atoms: C_30  and  C_41
                            x       y       z     vdW  Elec       q    Type
                         _______ _______ _______ _____ _____    ______ ____

>  <TORSDO>
F 18

$$$$
=
 OpenBabel11042412403D

 43 45  0  0  1  0  0  0  0  0999 V2000
  186.6300  177.9090  145.0430 C   0  0  0  0  0  3  0  0  0  0  0  0
  188.0070  177.8600  145.2210 C   0  0  0  0  0  0  0  0  0  0  0  0
  188.6450  177.7560  144.0300 N   0  0  0  0  0  0  0  0  0  0  0  0
  189.3470  177.5420  141.3550 C   0  0  0  0  0  0  0  0  0  0  0  0
  190.3480  177.5650  142.3650 C   0  0  0  0  0  0  0  0  0  0  0  0
  189.9750  177.6790  143.7210 C   0  0  0  0  0  0  0  0  0  0  0  0
  187.9970  177.6430  141.7390 C   0  0  0  0  0  3  0  0  0  0  0  0
  191.6980  177.4800  142.0360 O   0  0  0  0  0  1  0  0  0  0  0  0
  187.6870  177.7480  143.0900 C   0  0  0  0  0  0  0  0  0  0  0  0
  186.4370  177.8360  143.6720 C   0  0  0  0  0  0  0  0  0  0  0  0
  190.5420  176.3500  139.4620 N   0  0  0  0  0  1  0  0  0  0  0  0
  189.6760  177.3940  139.9090 C   0  0  0  0  0  0  0  0  0  0  0  0
  189.1380  178.2240  139.0110 C   0  0  0  0  0  3  0  0  0  0  0  0
  189.3930  178.1100  137.5430 C   0  0  0  0  0  2  0  0  0  0  0  0
  188.4300  177.1560  136.9270 C   0  0  0  0  0  0  0  0  0  0  0  0
  187.5550  175.6260  135.4100 C   0  0  0  0  0  3  0  0  0  0  0  0
  186.5090  175.7060  136.3250 C   0  0  0  0  0  0  0  0  0  0  0  0
  188.6400  176.4450  135.7510 C   0  0  0  0  0  3  0  0  0  0  0  0
  186.9170  176.7870  137.5520 S   0  0  0  0  0  0  0  0  0  0  0  0
  185.2550  175.0070  136.2120 N   0  0  0  0  0  0  0  0  0  0  0  0
  184.6870  174.6990  134.9070 C   0  0  0  0  0  2  0  0  0  0  0  0
  184.7060  173.2010  134.6700 C   0  0  0  0  0  1  0  0  0  0  0  0
  184.4300  174.7560  137.3850 C   0  0  0  0  0  2  0  0  0  0  0  0
  183.0430  175.3460  137.1860 C   0  0  0  0  0  2  0  0  0  0  0  0
  182.9600  176.6870  137.8360 C   0  0  0  0  0  0  0  0  0  0  0  0
  183.4350  176.8580  138.9510 O   0  0  0  0  0  0  0  0  0  0  0  0
  181.3720  177.3180  136.2000 O   0  0  0  0  0  1  0  0  0  0  0  0
  182.3090  177.8170  137.1050 C   0  0  1  0  0  3  0  0  0  0  0  0
  181.6300  178.7660  138.0750 C   0  0  0  0  0  1  0  0  0  0  0  0
  188.6600  177.8610  146.5630 C   0  0  0  0  0  2  0  0  0  0  0  0
  187.9730  176.9310  147.4410 N   0  0  0  0  0  2  0  0  0  0  0  0
  188.9920  178.6200  148.8380 C   0  0  0  0  0  1  0  0  0  0  0  0
  187.9290  177.5480  148.7530 C   0  0  0  0  0  2  0  0  0  0  0  0
  191.0310  177.6830  144.7830 C   0  0  0  0  0  2  0  0  0  0  0  0
  191.3780  176.2580  145.1780 C   0  0  0  0  0  2  0  0  0  0  0  0
  191.6530  175.1100  147.2510 O   0  0  0  0  0  1  0  0  0  0  0  0
  192.0520  176.2400  146.5370 C   0  0  0  0  0  3  0  0  0  0  0  0
  191.6910  177.3840  147.2460 O   0  0  0  0  0  1  0  0  0  0  0  0
  185.1030  177.9040  142.9880 C   0  0  2  0  0  3  0  0  0  0  0  0
  185.2470  179.3230  140.7250 C   0  0  0  0  0  3  0  0  0  0  0  0
  185.1840  178.6850  141.7460 C   0  0  0  0  0  0  0  0  0  0  0  0
  184.3960  179.8070  143.9780 O   0  0  0  0  0  1  0  0  0  0  0  0
  184.1080  178.4870  143.8730 N   0  0  0  0  0  2  0  0  0  0  0  0
  1  2  2  0  0  0  0
  2 30  1  0  0  0  0
  3  2  1  0  0  0  0
  4  7  2  0  0  0  0
  4  5  1  0  0  0  0
  5  6  2  0  0  0  0
  6  3  1  0  0  0  0
  6 34  1  0  0  0  0
  7  9  1  0  0  0  0
  8  5  1  0  0  0  0
  9 10  2  0  0  0  0
  9  3  1  0  0  0  0
 10  1  1  0  0  0  0
 11 12  1  0  0  0  0
 12  4  1  0  0  0  0
 13 12  2  0  0  0  0
 14 13  1  0  0  0  0
 15 14  1  0  0  0  0
 15 19  1  0  0  0  0
 16 18  1  0  0  0  0
 16 17  2  0  0  0  0
 17 19  1  0  0  0  0
 18 15  2  0  0  0  0
 20 17  1  0  0  0  0
 20 23  1  0  0  0  0
 21 20  1  0  0  0  0
 22 21  1  0  0  0  0
 24 23  1  0  0  0  0
 24 25  1  0  0  0  0
 25 26  2  0  0  0  0
 27 28  1  0  0  0  0
 28 25  1  0  0  0  0
 28 29  1  1  0  0  0
 30 31  1  0  0  0  0
 31 33  1  0  0  0  0
 33 32  1  0  0  0  0
 34 35  1  0  0  0  0
 35 37  1  0  0  0  0
 37 38  1  0  0  0  0
 37 36  1  0  0  0  0
 39 41  1  6  0  0  0
 39 10  1  0  0  0  0
 39 43  1  0  0  0  0
 40 41  3  0  0  0  0
 43 42  1  0  0  0  0
M  END
>  <MODEL>
8

>  <REMARK>
 VINA RESULT:      -6.7      2.879      6.907
  Name = 
  18 active torsions:
  status: ('A' for Active; 'I' for Inactive)
    1  A    between atoms: C_2  and  C_34
    2  A    between atoms: C_2  and  C_39
    3  A    between atoms: C_4  and  C_5
    4  A    between atoms: C_4  and  C_41
    5  A    between atoms: C_6  and  C_28
    6  A    between atoms: C_9  and  N_17
    7  A    between atoms: C_9  and  C_42
    8  A    between atoms: C_9  and  C_43
    9  A    between atoms: C_12  and  N_23
   10  A    between atoms: C_13  and  C_14
   11  A    between atoms: C_14  and  N_19
   12  A    between atoms: N_19  and  C_37
   13  A    between atoms: C_20  and  C_21
   14  A    between atoms: N_23  and  C_29
   15  A    between atoms: N_23  and  C_30
   16  A    between atoms: C_25  and  C_34
   17  A    between atoms: C_26  and  C_28
   18  A    between atoms: C_30  and  C_41
                            x       y       z     vdW  Elec       q    Type
                         _______ _______ _______ _____ _____    ______ ____

>  <TORSDO>
F 18

$$$$
=
 OpenBabel11042412403D

 43 45  0  0  1  0  0  0  0  0999 V2000
  187.7690  175.8960  135.7240 C   0  0  0  0  0  3  0  0  0  0  0  0
  186.4310  175.5240  135.6680 C   0  0  0  0  0  0  0  0  0  0  0  0
  185.7000  176.2100  136.5800 N   0  0  0  0  0  0  0  0  0  0  0  0
  184.7770  177.8750  138.5970 C   0  0  0  0  0  0  0  0  0  0  0  0
  183.8820  177.0130  137.9070 C   0  0  0  0  0  0  0  0  0  0  0  0
  184.3660  176.1750  136.8790 C   0  0  0  0  0  0  0  0  0  0  0  0
  186.1350  177.8760  138.2280 C   0  0  0  0  0  3  0  0  0  0  0  0
  182.5280  176.9850  138.2260 O   0  0  0  0  0  1  0  0  0  0  0  0
  186.5580  177.0260  137.2130 C   0  0  0  0  0  0  0  0  0  0  0  0
  187.8380  176.8600  136.7190 C   0  0  0  0  0  0  0  0  0  0  0  0
  184.0180  180.1330  139.4680 N   0  0  0  0  0  1  0  0  0  0  0  0
  184.3320  178.7610  139.7100 C   0  0  0  0  0  0  0  0  0  0  0  0
  184.1960  178.2700  140.9450 C   0  0  0  0  0  3  0  0  0  0  0  0
  183.7180  179.0900  142.0990 C   0  0  0  0  0  2  0  0  0  0  0  0
  184.5230  178.7860  143.3140 C   0  0  0  0  0  0  0  0  0  0  0  0
  185.0870  178.6240  145.5650 C   0  0  0  0  0  3  0  0  0  0  0  0
  186.2420  178.1200  144.9750 C   0  0  0  0  0  0  0  0  0  0  0  0
  184.1150  179.0010  144.6260 C   0  0  0  0  0  3  0  0  0  0  0  0
  186.0720  178.1390  143.2980 S   0  0  0  0  0  0  0  0  0  0  0  0
  187.4170  177.6930  145.6890 N   0  0  0  0  0  0  0  0  0  0  0  0
  187.5330  177.8960  147.1270 C   0  0  0  0  0  2  0  0  0  0  0  0
  188.3520  176.7820  147.7460 C   0  0  0  0  0  1  0  0  0  0  0  0
  188.5950  177.2200  144.9770 C   0  0  0  0  0  2  0  0  0  0  0  0
  189.7210  178.2340  145.0950 C   0  0  0  0  0  2  0  0  0  0  0  0
  190.3600  178.4480  143.7630 C   0  0  0  0  0  0  0  0  0  0  0  0
  191.2190  179.3080  143.6270 O   0  0  0  0  0  0  0  0  0  0  0  0
  189.0800  178.3000  141.7780 O   0  0  0  0  0  1  0  0  0  0  0  0
  189.9490  177.5920  142.6080 C   0  0  1  0  0  3  0  0  0  0  0  0
  191.1620  177.1400  141.8160 C   0  0  0  0  0  1  0  0  0  0  0  0
  185.9140  174.4620  134.7570 C   0  0  0  0  0  2  0  0  0  0  0  0
  186.7630  173.2880  134.8430 N   0  0  0  0  0  2  0  0  0  0  0  0
  185.4770  171.3220  135.4150 C   0  0  0  0  0  1  0  0  0  0  0  0
  186.2680  172.4930  135.9520 C   0  0  0  0  0  2  0  0  0  0  0  0
  183.4230  175.2550  136.1680 C   0  0  0  0  0  2  0  0  0  0  0  0
  183.1400  174.0330  137.0260 C   0  0  0  0  0  2  0  0  0  0  0  0
  180.9180  173.9040  137.8840 O   0  0  0  0  0  1  0  0  0  0  0  0
  181.7200  173.5500  136.7990 C   0  0  0  0  0  3  0  0  0  0  0  0
  181.7220  172.1630  136.6590 O   0  0  0  0  0  1  0  0  0  0  0  0
  189.0810  177.6010  137.1120 C   0  0  2  0  0  3  0  0  0  0  0  0
  191.2580  176.0900  136.7500 C   0  0  0  0  0  3  0  0  0  0  0  0
  190.2780  176.7730  136.9110 C   0  0  0  0  0  0  0  0  0  0  0  0
  189.0540  179.3770  138.5060 O   0  0  0  0  0  1  0  0  0  0  0  0
  189.0020  178.0240  138.5010 N   0  0  0  0  0  2  0  0  0  0  0  0
  1 10  1  0  0  0  0
  2  1  2  0  0  0  0
  2  3  1  0  0  0  0
  3  6  1  0  0  0  0
  3  9  1  0  0  0  0
  4 12  1  0  0  0  0
  5  8  1  0  0  0  0
  5  4  1  0  0  0  0
  6  5  2  0  0  0  0
  7  4  2  0  0  0  0
  9  7  1  0  0  0  0
 10 39  1  0  0  0  0
 10  9  2  0  0  0  0
 11 12  1  0  0  0  0
 12 13  2  0  0  0  0
 13 14  1  0  0  0  0
 14 15  1  0  0  0  0
 15 18  2  0  0  0  0
 17 16  2  0  0  0  0
 17 20  1  0  0  0  0
 18 16  1  0  0  0  0
 19 15  1  0  0  0  0
 19 17  1  0  0  0  0
 20 21  1  0  0  0  0
 21 22  1  0  0  0  0
 23 24  1  0  0  0  0
 23 20  1  0  0  0  0
 25 24  1  0  0  0  0
 26 25  2  0  0  0  0
 27 28  1  0  0  0  0
 28 29  1  6  0  0  0
 28 25  1  0  0  0  0
 30 31  1  0  0  0  0
 30  2  1  0  0  0  0
 31 33  1  0  0  0  0
 32 33  1  0  0  0  0
 34  6  1  0  0  0  0
 34 35  1  0  0  0  0
 37 35  1  0  0  0  0
 37 36  1  0  0  0  0
 38 37  1  0  0  0  0
 39 41  1  1  0  0  0
 39 43  1  0  0  0  0
 40 41  3  0  0  0  0
 43 42  1  0  0  0  0
M  END
>  <MODEL>
9

>  <REMARK>
 VINA RESULT:      -6.6      3.434      8.460
  Name = 
  18 active torsions:
  status: ('A' for Active; 'I' for Inactive)
    1  A    between atoms: C_2  and  C_34
    2  A    between atoms: C_2  and  C_39
    3  A    between atoms: C_4  and  C_5
    4  A    between atoms: C_4  and  C_41
    5  A    between atoms: C_6  and  C_28
    6  A    between atoms: C_9  and  N_17
    7  A    between atoms: C_9  and  C_42
    8  A    between atoms: C_9  and  C_43
    9  A    between atoms: C_12  and  N_23
   10  A    between atoms: C_13  and  C_14
   11  A    between atoms: C_14  and  N_19
   12  A    between atoms: N_19  and  C_37
   13  A    between atoms: C_20  and  C_21
   14  A    between atoms: N_23  and  C_29
   15  A    between atoms: N_23  and  C_30
   16  A    between atoms: C_25  and  C_34
   17  A    between atoms: C_26  and  C_28
   18  A    between atoms: C_30  and  C_41
                            x       y       z     vdW  Elec       q    Type
                         _______ _______ _______ _____ _____    ______ ____

>  <TORSDO>
F 18

$$$$
