=
 OpenBabel11032420033D

 46 50  0  0  1  0  0  0  0  0999 V2000
  182.9820  179.0940  138.5870 C   0  0  0  0  0  1  0  0  0  0  0  0
  183.9040  178.4130  139.5800 C   0  0  1  0  0  3  0  0  0  0  0  0
  184.4890  179.4140  140.4560 N   0  0  0  0  0  2  0  0  0  0  0  0
  185.7480  178.8800  140.9570 C   0  0  0  0  0  2  0  0  0  0  0  0
  184.6750  179.4660  143.2030 C   0  0  0  0  0  2  0  0  0  0  0  0
  189.5500  176.6310  141.4990 C   0  0  2  0  0  3  0  0  0  0  0  0
  187.8150  177.4930  142.8830 N   0  0  0  0  0  0  0  0  0  0  0  0
  186.2140  178.1630  144.5250 N   0  0  0  0  0  0  0  0  0  0  0  0
  188.3940  177.6170  141.5600 C   0  0  0  0  0  2  0  0  0  0  0  0
  184.3630  179.1580  145.5940 O   0  0  0  0  0  0  0  0  0  0  0  0
  188.5160  176.5340  143.7200 C   0  0  1  0  0  3  0  0  0  0  0  0
  189.5760  175.8940  142.8310 C   0  0  0  0  0  2  0  0  0  0  0  0
  185.7610  178.9120  142.4140 N   0  0  0  0  0  0  0  0  0  0  0  0
  185.0260  178.9430  144.5470 C   0  0  0  0  0  0  0  0  0  0  0  0
  186.6120  178.1650  143.2950 C   0  0  0  0  0  0  0  0  0  0  0  0
  187.9240  177.5210  148.5890 C   0  0  0  0  0  1  0  0  0  0  0  0
  188.8070  177.7540  147.3830 C   0  0  1  0  0  3  0  0  0  0  0  0
  190.2170  177.2520  147.6770 C   0  0  0  0  0  2  0  0  0  0  0  0
  189.1250  177.2130  144.9550 C   0  0  1  0  0  3  0  0  0  0  0  0
  188.2260  177.0220  146.1770 C   0  0  0  0  0  2  0  0  0  0  0  0
  190.5530  176.7370  145.2510 C   0  0  0  0  0  2  0  0  0  0  0  0
  191.1170  177.4710  146.4640 C   0  0  0  0  0  2  0  0  0  0  0  0
  191.2970  177.3070  139.8510 C   0  0  0  0  0  1  0  0  0  0  0  0
  190.8630  177.3710  141.3040 C   0  0  0  0  0  2  0  0  0  0  0  0
  183.1260  177.4050  140.4130 C   0  0  0  0  0  2  0  0  0  0  0  0
  181.8400  176.9900  139.7120 C   0  0  0  0  0  2  0  0  0  0  0  0
  181.8660  175.5660  139.4090 N   0  0  0  0  0  0  0  0  0  0  0  0
  179.9150  174.2100  139.1290 N   0  0  0  0  0  1  0  0  0  0  0  0
  182.5020  174.9290  137.3080 C   0  0  0  0  0  0  0  0  0  0  0  0
  181.2260  174.8490  137.2490 N   0  0  0  0  0  0  0  0  0  0  0  0
  182.9650  175.3460  138.5670 N   0  0  0  0  0  2  0  0  0  0  0  0
  180.7060  175.2790  138.5440 C   0  0  2  0  0  3  0  0  0  0  0  0
  183.3970  174.5200  136.1940 C   0  0  0  0  0  2  0  0  0  0  0  0
  184.4510  173.7570  136.6990 O   0  0  0  0  0  0  0  0  0  0  0  0
  185.2130  175.2610  135.1690 O   0  0  0  0  0  1  0  0  0  0  0  0
  185.5850  174.2280  136.0330 C   0  0  1  0  0  3  0  0  0  0  0  0
  189.0380  175.9870  137.6530 O   0  0  0  0  0  0  0  0  0  0  0  0
  191.5380  174.5930  137.2540 C   0  0  0  0  0  1  0  0  0  0  0  0
  187.8270  176.6880  137.9410 C   0  0  2  0  0  3  0  0  0  0  0  0
  186.7190  176.2620  136.9820 C   0  0  0  0  0  2  0  0  0  0  0  0
  186.6070  174.7400  137.0440 C   0  0  2  0  0  3  0  0  0  0  0  0
  190.2590  173.9940  136.9140 N   0  0  0  0  0  2  0  0  0  0  0  0
  189.0310  174.6840  137.1340 C   0  0  0  0  0  0  0  0  0  0  0  0
  187.9110  174.1120  136.8090 N   0  0  0  0  0  0  0  0  0  0  0  0
  188.0510  178.1950  137.9120 C   0  0  0  0  0  2  0  0  0  0  0  0
  189.1870  178.5820  136.9750 C   0  0  0  0  0  1  0  0  0  0  0  0
  2  1  1  6  0  0  0
  2 25  1  0  0  0  0
  2  3  1  0  0  0  0
  3  4  1  0  0  0  0
  4 13  1  0  0  0  0
  5 14  1  0  0  0  0
  6 24  1  1  0  0  0
  6  9  1  0  0  0  0
  6 12  1  0  0  0  0
  7 15  1  0  0  0  0
  7 11  1  0  0  0  0
  8 14  1  0  0  0  0
  9  7  1  0  0  0  0
 11 12  1  6  0  0  0
 11 19  1  0  0  0  0
 13  5  1  0  0  0  0
 13 15  1  0  0  0  0
 14 10  2  0  0  0  0
 15  8  2  0  0  0  0
 17 18  1  0  0  0  0
 17 16  1  1  0  0  0
 19 21  1  1  0  0  0
 19 20  1  0  0  0  0
 20 17  1  0  0  0  0
 21 22  1  0  0  0  0
 22 18  1  0  0  0  0
 23 24  1  0  0  0  0
 26 25  1  0  0  0  0
 27 26  1  0  0  0  0
 29 31  1  0  0  0  0
 30 29  2  0  0  0  0
 30 32  1  0  0  0  0
 31 27  1  0  0  0  0
 32 28  1  1  0  0  0
 32 27  1  0  0  0  0
 33 34  1  0  0  0  0
 33 29  1  0  0  0  0
 36 35  1  6  0  0  0
 36 34  1  0  0  0  0
 37 39  1  0  0  0  0
 39 45  1  6  0  0  0
 40 41  1  0  0  0  0
 40 39  1  0  0  0  0
 41 36  1  6  0  0  0
 42 43  1  0  0  0  0
 42 38  1  0  0  0  0
 43 37  1  0  0  0  0
 44 41  1  0  0  0  0
 44 43  2  0  0  0  0
 46 45  1  0  0  0  0
M  END
>  <MODEL>
1

>  <REMARK>
 VINA RESULT:      -8.3      0.000      0.000
  Name = 
  13 active torsions:
  status: ('A' for Active; 'I' for Inactive)
    1  A    between atoms: N_4  and  C_6
    2  A    between atoms: C_6  and  C_34
    3  A    between atoms: C_7  and  O_28
    4  A    between atoms: C_7  and  C_36
    5  A    between atoms: C_11  and  C_16
    6  A    between atoms: C_13  and  C_18
    7  A    between atoms: C_14  and  C_32
    8  A    between atoms: C_26  and  C_27
    9  A    between atoms: C_26  and  O_28
   10  A    between atoms: N_29  and  C_35
   11  A    between atoms: N_29  and  C_39
   12  A    between atoms: C_34  and  C_35
   13  A    between atoms: N_37  and  C_39
                            x       y       z     vdW  Elec       q    Type
                         _______ _______ _______ _____ _____    ______ ____

>  <TORSDO>
F 13

$$$$
=
 OpenBabel11032420033D

 46 50  0  0  1  0  0  0  0  0999 V2000
  182.8430  180.0590  138.8730 C   0  0  0  0  0  1  0  0  0  0  0  0
  184.1420  179.3950  139.2880 C   0  0  1  0  0  3  0  0  0  0  0  0
  184.1500  179.2160  140.7290 N   0  0  0  0  0  2  0  0  0  0  0  0
  185.5310  179.0100  141.1410 C   0  0  0  0  0  2  0  0  0  0  0  0
  184.5660  179.4630  143.4650 C   0  0  0  0  0  2  0  0  0  0  0  0
  189.4090  176.8390  141.3770 C   0  0  2  0  0  3  0  0  0  0  0  0
  187.7300  177.5900  142.8890 N   0  0  0  0  0  0  0  0  0  0  0  0
  186.2040  178.1420  144.6420 N   0  0  0  0  0  0  0  0  0  0  0  0
  188.2350  177.7900  141.5450 C   0  0  0  0  0  2  0  0  0  0  0  0
  184.3900  179.0380  145.8520 O   0  0  0  0  0  0  0  0  0  0  0  0
  188.4980  176.6120  143.6420 C   0  0  1  0  0  3  0  0  0  0  0  0
  189.5240  176.0420  142.6690 C   0  0  0  0  0  2  0  0  0  0  0  0
  185.6210  178.9750  142.5950 N   0  0  0  0  0  0  0  0  0  0  0  0
  185.0010  178.8890  144.7630 C   0  0  0  0  0  0  0  0  0  0  0  0
  186.5350  178.2110  143.3940 C   0  0  0  0  0  0  0  0  0  0  0  0
  188.0490  177.5260  148.5410 C   0  0  0  0  0  1  0  0  0  0  0  0
  188.9110  177.7550  147.3180 C   0  0  1  0  0  3  0  0  0  0  0  0
  190.3120  177.2060  147.5690 C   0  0  0  0  0  2  0  0  0  0  0  0
  189.1560  177.2500  144.8740 C   0  0  1  0  0  3  0  0  0  0  0  0
  188.2800  177.0630  146.1130 C   0  0  0  0  0  2  0  0  0  0  0  0
  190.5760  176.7260  145.1280 C   0  0  0  0  0  2  0  0  0  0  0  0
  191.1890  177.4210  146.3390 C   0  0  0  0  0  2  0  0  0  0  0  0
  191.8000  177.0970  142.0430 C   0  0  0  0  0  1  0  0  0  0  0  0
  190.6920  177.6210  141.1490 C   0  0  0  0  0  2  0  0  0  0  0  0
  184.2790  178.0410  138.6080 C   0  0  0  0  0  2  0  0  0  0  0  0
  183.1260  177.1200  138.9810 C   0  0  0  0  0  2  0  0  0  0  0  0
  182.7630  176.2780  137.8500 N   0  0  0  0  0  0  0  0  0  0  0  0
  182.5810  177.0530  135.5950 N   0  0  0  0  0  1  0  0  0  0  0  0
  184.3020  174.7590  137.1100 C   0  0  0  0  0  0  0  0  0  0  0  0
  184.4300  175.7160  136.2700 N   0  0  0  0  0  0  0  0  0  0  0  0
  183.3230  175.0140  138.0850 N   0  0  0  0  0  2  0  0  0  0  0  0
  183.5080  176.7730  136.6770 C   0  0  2  0  0  3  0  0  0  0  0  0
  185.0390  173.4720  136.9980 C   0  0  0  0  0  2  0  0  0  0  0  0
  186.2620  173.5760  137.6640 O   0  0  0  0  0  0  0  0  0  0  0  0
  186.5480  172.6520  135.6030 O   0  0  0  0  0  1  0  0  0  0  0  0
  187.1990  173.0460  136.7740 C   0  0  1  0  0  3  0  0  0  0  0  0
  190.0470  176.0980  137.2470 O   0  0  0  0  0  0  0  0  0  0  0  0
  189.0700  178.6990  138.0390 C   0  0  0  0  0  1  0  0  0  0  0  0
  190.5830  174.8540  136.7910 C   0  0  2  0  0  3  0  0  0  0  0  0
  189.6050  173.7150  137.0660 C   0  0  0  0  0  2  0  0  0  0  0  0
  188.2590  174.0950  136.4520 C   0  0  2  0  0  3  0  0  0  0  0  0
  188.1720  177.6240  137.6570 N   0  0  0  0  0  2  0  0  0  0  0  0
  188.6670  176.3500  137.2490 C   0  0  0  0  0  0  0  0  0  0  0  0
  187.8270  175.4150  136.9220 N   0  0  0  0  0  0  0  0  0  0  0  0
  191.9490  174.5900  137.4130 C   0  0  0  0  0  2  0  0  0  0  0  0
  192.5350  175.8430  138.0480 C   0  0  0  0  0  1  0  0  0  0  0  0
  2  1  1  6  0  0  0
  2  3  1  0  0  0  0
  3  4  1  0  0  0  0
  4 13  1  0  0  0  0
  5 14  1  0  0  0  0
  6 24  1  1  0  0  0
  6  9  1  0  0  0  0
  6 12  1  0  0  0  0
  7 15  1  0  0  0  0
  7 11  1  0  0  0  0
  8 14  1  0  0  0  0
  9  7  1  0  0  0  0
 11 12  1  6  0  0  0
 11 19  1  0  0  0  0
 13 15  1  0  0  0  0
 13  5  1  0  0  0  0
 14 10  2  0  0  0  0
 15  8  2  0  0  0  0
 17 18  1  0  0  0  0
 17 16  1  1  0  0  0
 19 21  1  1  0  0  0
 19 20  1  0  0  0  0
 20 17  1  0  0  0  0
 21 22  1  0  0  0  0
 22 18  1  0  0  0  0
 24 23  1  0  0  0  0
 25 26  1  0  0  0  0
 25  2  1  0  0  0  0
 27 31  1  0  0  0  0
 27 26  1  0  0  0  0
 29 31  1  0  0  0  0
 30 32  1  0  0  0  0
 30 29  2  0  0  0  0
 32 28  1  6  0  0  0
 32 27  1  0  0  0  0
 33 29  1  0  0  0  0
 33 34  1  0  0  0  0
 36 35  1  6  0  0  0
 36 34  1  0  0  0  0
 37 43  1  0  0  0  0
 39 40  1  0  0  0  0
 39 37  1  0  0  0  0
 39 45  1  1  0  0  0
 41 36  1  1  0  0  0
 41 44  1  0  0  0  0
 41 40  1  0  0  0  0
 42 38  1  0  0  0  0
 43 42  1  0  0  0  0
 44 43  2  0  0  0  0
 45 46  1  0  0  0  0
M  END
>  <MODEL>
2

>  <REMARK>
 VINA RESULT:      -8.1      1.356      2.210
  Name = 
  13 active torsions:
  status: ('A' for Active; 'I' for Inactive)
    1  A    between atoms: N_4  and  C_6
    2  A    between atoms: C_6  and  C_34
    3  A    between atoms: C_7  and  O_28
    4  A    between atoms: C_7  and  C_36
    5  A    between atoms: C_11  and  C_16
    6  A    between atoms: C_13  and  C_18
    7  A    between atoms: C_14  and  C_32
    8  A    between atoms: C_26  and  C_27
    9  A    between atoms: C_26  and  O_28
   10  A    between atoms: N_29  and  C_35
   11  A    between atoms: N_29  and  C_39
   12  A    between atoms: C_34  and  C_35
   13  A    between atoms: N_37  and  C_39
                            x       y       z     vdW  Elec       q    Type
                         _______ _______ _______ _____ _____    ______ ____

>  <TORSDO>
F 13

$$$$
=
 OpenBabel11032420033D

 46 50  0  0  1  0  0  0  0  0999 V2000
  189.7110  177.6870  138.0230 C   0  0  0  0  0  1  0  0  0  0  0  0
  188.4570  176.8360  138.0730 C   0  0  1  0  0  3  0  0  0  0  0  0
  187.4040  177.5710  138.7530 N   0  0  0  0  0  2  0  0  0  0  0  0
  188.0290  178.3690  139.7990 C   0  0  0  0  0  2  0  0  0  0  0  0
  185.7350  178.9630  140.7620 C   0  0  0  0  0  2  0  0  0  0  0  0
  190.7770  176.8410  142.9480 C   0  0  2  0  0  3  0  0  0  0  0  0
  188.5010  177.5190  142.7920 N   0  0  0  0  0  0  0  0  0  0  0  0
  186.1780  178.0550  142.9510 N   0  0  0  0  0  0  0  0  0  0  0  0
  189.7760  177.6210  142.1120 C   0  0  0  0  0  2  0  0  0  0  0  0
  184.0020  178.8180  142.4600 O   0  0  0  0  0  0  0  0  0  0  0  0
  188.5810  176.7680  144.0340 C   0  0  1  0  0  3  0  0  0  0  0  0
  190.0080  176.2370  144.1150 C   0  0  0  0  0  2  0  0  0  0  0  0
  187.1130  178.5300  140.9200 N   0  0  0  0  0  0  0  0  0  0  0  0
  185.1920  178.6260  142.1020 C   0  0  0  0  0  0  0  0  0  0  0  0
  187.2640  178.0160  142.2510 C   0  0  0  0  0  0  0  0  0  0  0  0
  184.9090  178.2330  147.1010 C   0  0  0  0  0  1  0  0  0  0  0  0
  186.3680  178.4210  146.7470 C   0  0  1  0  0  3  0  0  0  0  0  0
  187.2340  178.1100  147.9640 C   0  0  0  0  0  2  0  0  0  0  0  0
  188.2160  177.6450  145.2400 C   0  0  1  0  0  3  0  0  0  0  0  0
  186.7340  177.4980  145.5880 C   0  0  0  0  0  2  0  0  0  0  0  0
  189.0930  177.3610  146.4670 C   0  0  0  0  0  2  0  0  0  0  0  0
  188.7100  178.2860  147.6180 C   0  0  0  0  0  2  0  0  0  0  0  0
  191.2670  179.1190  143.8410 C   0  0  0  0  0  1  0  0  0  0  0  0
  191.8570  177.7680  143.4790 C   0  0  0  0  0  2  0  0  0  0  0  0
  188.0020  176.4900  136.6620 C   0  0  0  0  0  2  0  0  0  0  0  0
  186.5040  176.7100  136.4990 C   0  0  0  0  0  2  0  0  0  0  0  0
  185.8640  175.4950  136.0150 N   0  0  0  0  0  0  0  0  0  0  0  0
  186.8280  173.3120  136.1580 N   0  0  0  0  0  1  0  0  0  0  0  0
  184.0770  174.6870  137.1890 C   0  0  0  0  0  0  0  0  0  0  0  0
  185.0350  173.9390  137.5910 N   0  0  0  0  0  0  0  0  0  0  0  0
  184.4880  175.6400  136.2420 N   0  0  0  0  0  2  0  0  0  0  0  0
  186.2500  174.4010  136.9260 C   0  0  2  0  0  3  0  0  0  0  0  0
  182.6620  174.4910  137.6030 C   0  0  0  0  0  2  0  0  0  0  0  0
  182.3530  175.3750  138.6390 O   0  0  0  0  0  0  0  0  0  0  0  0
  180.3540  174.6470  139.4480 O   0  0  0  0  0  1  0  0  0  0  0  0
  180.9680  175.5400  138.5670 C   0  0  1  0  0  3  0  0  0  0  0  0
  181.0310  179.3180  140.4010 O   0  0  0  0  0  0  0  0  0  0  0  0
  180.3820  179.4280  143.2140 C   0  0  0  0  0  1  0  0  0  0  0  0
  181.2950  179.3380  138.9970 C   0  0  2  0  0  3  0  0  0  0  0  0
  181.6890  177.9480  138.5050 C   0  0  0  0  0  2  0  0  0  0  0  0
  180.5950  176.9720  138.9360 C   0  0  2  0  0  3  0  0  0  0  0  0
  180.2060  178.2180  142.4300 N   0  0  0  0  0  2  0  0  0  0  0  0
  180.5110  178.1820  141.0380 C   0  0  0  0  0  0  0  0  0  0  0  0
  180.3440  177.0760  140.3770 N   0  0  0  0  0  0  0  0  0  0  0  0
  182.3550  180.3790  138.6570 C   0  0  0  0  0  2  0  0  0  0  0  0
  181.7380  181.7310  138.3280 C   0  0  0  0  0  1  0  0  0  0  0  0
  2  1  1  6  0  0  0
  2  3  1  0  0  0  0
  3  4  1  0  0  0  0
  4 13  1  0  0  0  0
  5 13  1  0  0  0  0
  5 14  1  0  0  0  0
  6 24  1  1  0  0  0
  6 12  1  0  0  0  0
  7 11  1  0  0  0  0
  9  7  1  0  0  0  0
  9  6  1  0  0  0  0
 11 12  1  1  0  0  0
 11 19  1  0  0  0  0
 13 15  1  0  0  0  0
 14 10  2  0  0  0  0
 14  8  1  0  0  0  0
 15  7  1  0  0  0  0
 15  8  2  0  0  0  0
 17 16  1  1  0  0  0
 17 18  1  0  0  0  0
 19 20  1  1  0  0  0
 19 21  1  0  0  0  0
 20 17  1  0  0  0  0
 21 22  1  0  0  0  0
 22 18  1  0  0  0  0
 24 23  1  0  0  0  0
 25  2  1  0  0  0  0
 26 25  1  0  0  0  0
 27 31  1  0  0  0  0
 27 26  1  0  0  0  0
 27 32  1  0  0  0  0
 29 30  2  0  0  0  0
 29 33  1  0  0  0  0
 31 29  1  0  0  0  0
 32 28  1  6  0  0  0
 32 30  1  0  0  0  0
 33 34  1  0  0  0  0
 36 34  1  0  0  0  0
 36 35  1  1  0  0  0
 37 43  1  0  0  0  0
 39 45  1  1  0  0  0
 39 37  1  0  0  0  0
 40 41  1  0  0  0  0
 40 39  1  0  0  0  0
 41 36  1  1  0  0  0
 41 44  1  0  0  0  0
 42 38  1  0  0  0  0
 43 42  1  0  0  0  0
 44 43  2  0  0  0  0
 46 45  1  0  0  0  0
M  END
>  <MODEL>
3

>  <REMARK>
 VINA RESULT:      -8.0      2.320      5.377
  Name = 
  13 active torsions:
  status: ('A' for Active; 'I' for Inactive)
    1  A    between atoms: N_4  and  C_6
    2  A    between atoms: C_6  and  C_34
    3  A    between atoms: C_7  and  O_28
    4  A    between atoms: C_7  and  C_36
    5  A    between atoms: C_11  and  C_16
    6  A    between atoms: C_13  and  C_18
    7  A    between atoms: C_14  and  C_32
    8  A    between atoms: C_26  and  C_27
    9  A    between atoms: C_26  and  O_28
   10  A    between atoms: N_29  and  C_35
   11  A    between atoms: N_29  and  C_39
   12  A    between atoms: C_34  and  C_35
   13  A    between atoms: N_37  and  C_39
                            x       y       z     vdW  Elec       q    Type
                         _______ _______ _______ _____ _____    ______ ____

>  <TORSDO>
F 13

$$$$
=
 OpenBabel11032420033D

 46 50  0  0  1  0  0  0  0  0999 V2000
  182.3470  179.8120  139.0200 C   0  0  0  0  0  1  0  0  0  0  0  0
  181.9110  178.7450  140.0050 C   0  0  1  0  0  3  0  0  0  0  0  0
  181.7750  177.4770  139.3100 N   0  0  0  0  0  2  0  0  0  0  0  0
  182.2890  177.6570  137.9590 C   0  0  0  0  0  2  0  0  0  0  0  0
  181.3220  175.4720  137.0470 C   0  0  0  0  0  2  0  0  0  0  0  0
  186.6280  178.0300  137.0460 C   0  0  2  0  0  3  0  0  0  0  0  0
  184.8630  176.5090  136.5590 N   0  0  0  0  0  0  0  0  0  0  0  0
  183.3090  174.8450  135.8350 N   0  0  0  0  0  0  0  0  0  0  0  0
  185.2400  177.5750  137.4660 C   0  0  0  0  0  2  0  0  0  0  0  0
  181.3620  173.5430  135.5690 O   0  0  0  0  0  0  0  0  0  0  0  0
  185.9040  176.1920  135.5950 C   0  0  1  0  0  3  0  0  0  0  0  0
  187.0130  177.2140  135.8200 C   0  0  0  0  0  2  0  0  0  0  0  0
  182.4390  176.3640  137.3040 N   0  0  0  0  0  0  0  0  0  0  0  0
  181.9500  174.5230  136.0940 C   0  0  0  0  0  0  0  0  0  0  0  0
  183.5610  175.8980  136.5410 C   0  0  0  0  0  0  0  0  0  0  0  0
  189.7390  173.0490  134.9270 C   0  0  0  0  0  1  0  0  0  0  0  0
  188.3010  173.1590  135.3850 C   0  0  1  0  0  3  0  0  0  0  0  0
  188.1850  172.6790  136.8280 C   0  0  0  0  0  2  0  0  0  0  0  0
  186.4000  174.7490  135.7650 C   0  0  1  0  0  3  0  0  0  0  0  0
  187.8400  174.6080  135.2710 C   0  0  0  0  0  2  0  0  0  0  0  0
  186.2680  174.2420  137.2080 C   0  0  0  0  0  2  0  0  0  0  0  0
  186.7410  172.7940  137.3060 C   0  0  0  0  0  2  0  0  0  0  0  0
  188.9120  178.5400  137.9140 C   0  0  0  0  0  1  0  0  0  0  0  0
  187.6280  177.7700  138.1610 C   0  0  0  0  0  2  0  0  0  0  0  0
  182.9410  178.6050  141.1170 C   0  0  0  0  0  2  0  0  0  0  0  0
  184.3400  178.9310  140.6120 C   0  0  0  0  0  2  0  0  0  0  0  0
  185.1750  179.4040  141.7070 N   0  0  0  0  0  0  0  0  0  0  0  0
  184.8180  178.8610  144.0090 N   0  0  0  0  0  1  0  0  0  0  0  0
  187.2710  178.5170  141.9150 C   0  0  0  0  0  0  0  0  0  0  0  0
  186.6060  177.8660  142.7940 N   0  0  0  0  0  0  0  0  0  0  0  0
  186.4900  179.4590  141.2240 N   0  0  0  0  0  2  0  0  0  0  0  0
  185.2240  178.3310  142.7180 C   0  0  2  0  0  3  0  0  0  0  0  0
  188.7380  178.3630  141.7240 C   0  0  0  0  0  2  0  0  0  0  0  0
  189.3950  178.6360  142.9260 O   0  0  0  0  0  0  0  0  0  0  0  0
  191.5770  178.0070  143.0940 O   0  0  0  0  0  1  0  0  0  0  0  0
  190.2560  177.5520  143.1170 C   0  0  1  0  0  3  0  0  0  0  0  0
  190.2540  176.7270  147.2350 O   0  0  0  0  0  0  0  0  0  0  0  0
  192.7330  175.8020  148.3940 C   0  0  0  0  0  1  0  0  0  0  0  0
  188.9830  177.1160  146.7090 C   0  0  2  0  0  3  0  0  0  0  0  0
  189.1500  177.8090  145.3600 C   0  0  0  0  0  2  0  0  0  0  0  0
  189.9600  176.8830  144.4550 C   0  0  2  0  0  3  0  0  0  0  0  0
  192.5560  175.9330  146.9590 N   0  0  0  0  0  2  0  0  0  0  0  0
  191.3210  176.3710  146.3980 C   0  0  0  0  0  0  0  0  0  0  0  0
  191.2100  176.4790  145.1080 N   0  0  0  0  0  0  0  0  0  0  0  0
  188.2270  177.9890  147.7040 C   0  0  0  0  0  2  0  0  0  0  0  0
  186.8040  178.2710  147.2450 C   0  0  0  0  0  1  0  0  0  0  0  0
  2  1  1  6  0  0  0
  2 25  1  0  0  0  0
  3  2  1  0  0  0  0
  4  3  1  0  0  0  0
  5 13  1  0  0  0  0
  6  9  1  0  0  0  0
  6 24  1  1  0  0  0
  7  9  1  0  0  0  0
  8 14  1  0  0  0  0
  8 15  2  0  0  0  0
 10 14  2  0  0  0  0
 11 19  1  0  0  0  0
 11 12  1  1  0  0  0
 11  7  1  0  0  0  0
 12  6  1  0  0  0  0
 13  4  1  0  0  0  0
 14  5  1  0  0  0  0
 15  7  1  0  0  0  0
 15 13  1  0  0  0  0
 17 16  1  1  0  0  0
 17 18  1  0  0  0  0
 18 22  1  0  0  0  0
 19 20  1  1  0  0  0
 19 21  1  0  0  0  0
 20 17  1  0  0  0  0
 21 22  1  0  0  0  0
 23 24  1  0  0  0  0
 26 25  1  0  0  0  0
 26 27  1  0  0  0  0
 27 32  1  0  0  0  0
 29 30  2  0  0  0  0
 31 27  1  0  0  0  0
 31 29  1  0  0  0  0
 32 30  1  0  0  0  0
 32 28  1  1  0  0  0
 33 29  1  0  0  0  0
 33 34  1  0  0  0  0
 34 36  1  0  0  0  0
 36 35  1  1  0  0  0
 39 37  1  0  0  0  0
 39 45  1  1  0  0  0
 40 39  1  0  0  0  0
 41 36  1  6  0  0  0
 41 44  1  0  0  0  0
 41 40  1  0  0  0  0
 42 38  1  0  0  0  0
 43 42  1  0  0  0  0
 43 37  1  0  0  0  0
 44 43  2  0  0  0  0
 46 45  1  0  0  0  0
M  END
>  <MODEL>
4

>  <REMARK>
 VINA RESULT:      -7.8      2.548      8.586
  Name = 
  13 active torsions:
  status: ('A' for Active; 'I' for Inactive)
    1  A    between atoms: N_4  and  C_6
    2  A    between atoms: C_6  and  C_34
    3  A    between atoms: C_7  and  O_28
    4  A    between atoms: C_7  and  C_36
    5  A    between atoms: C_11  and  C_16
    6  A    between atoms: C_13  and  C_18
    7  A    between atoms: C_14  and  C_32
    8  A    between atoms: C_26  and  C_27
    9  A    between atoms: C_26  and  O_28
   10  A    between atoms: N_29  and  C_35
   11  A    between atoms: N_29  and  C_39
   12  A    between atoms: C_34  and  C_35
   13  A    between atoms: N_37  and  C_39
                            x       y       z     vdW  Elec       q    Type
                         _______ _______ _______ _____ _____    ______ ____

>  <TORSDO>
F 13

$$$$
=
 OpenBabel11032420033D

 46 50  0  0  1  0  0  0  0  0999 V2000
  189.9840  177.0070  138.5800 C   0  0  0  0  0  1  0  0  0  0  0  0
  188.5120  176.6480  138.5180 C   0  0  1  0  0  3  0  0  0  0  0  0
  187.7170  177.8330  138.7860 N   0  0  0  0  0  2  0  0  0  0  0  0
  188.3240  178.5250  139.9150 C   0  0  0  0  0  2  0  0  0  0  0  0
  185.9830  178.9950  140.8320 C   0  0  0  0  0  2  0  0  0  0  0  0
  191.0540  177.0330  143.0970 C   0  0  2  0  0  3  0  0  0  0  0  0
  188.7560  177.6180  142.8980 N   0  0  0  0  0  0  0  0  0  0  0  0
  186.4080  178.0500  143.0090 N   0  0  0  0  0  0  0  0  0  0  0  0
  190.0420  177.7920  142.2540 C   0  0  0  0  0  2  0  0  0  0  0  0
  184.2150  178.7330  142.4790 O   0  0  0  0  0  0  0  0  0  0  0  0
  188.8360  176.8380  144.1220 C   0  0  1  0  0  3  0  0  0  0  0  0
  190.2830  176.3680  144.2280 C   0  0  0  0  0  2  0  0  0  0  0  0
  187.3730  178.6180  141.0160 N   0  0  0  0  0  0  0  0  0  0  0  0
  185.4210  178.6000  142.1480 C   0  0  0  0  0  0  0  0  0  0  0  0
  187.5130  178.0760  142.3370 C   0  0  0  0  0  0  0  0  0  0  0  0
  184.9810  178.2580  146.9790 C   0  0  0  0  0  1  0  0  0  0  0  0
  186.4670  178.4220  146.7430 C   0  0  1  0  0  3  0  0  0  0  0  0
  187.2320  178.0310  148.0040 C   0  0  0  0  0  2  0  0  0  0  0  0
  188.4040  177.6670  145.3400 C   0  0  1  0  0  3  0  0  0  0  0  0
  186.8970  177.5460  145.5710 C   0  0  0  0  0  2  0  0  0  0  0  0
  189.1800  177.3030  146.6130 C   0  0  0  0  0  2  0  0  0  0  0  0
  188.7330  178.1820  147.7760 C   0  0  0  0  0  2  0  0  0  0  0  0
  191.4390  179.3330  143.9860 C   0  0  0  0  0  1  0  0  0  0  0  0
  192.0800  177.9920  143.6790 C   0  0  0  0  0  2  0  0  0  0  0  0
  188.1620  176.1050  137.1390 C   0  0  0  0  0  2  0  0  0  0  0  0
  187.2560  174.8860  137.2430 C   0  0  0  0  0  2  0  0  0  0  0  0
  186.0810  175.0550  136.4000 N   0  0  0  0  0  0  0  0  0  0  0  0
  184.3450  173.4280  136.1630 N   0  0  0  0  0  1  0  0  0  0  0  0
  184.4790  176.5370  137.0800 C   0  0  0  0  0  0  0  0  0  0  0  0
  183.9820  175.4100  137.4290 N   0  0  0  0  0  0  0  0  0  0  0  0
  185.7310  176.4120  136.4530 N   0  0  0  0  0  2  0  0  0  0  0  0
  184.9560  174.3810  137.0730 C   0  0  2  0  0  3  0  0  0  0  0  0
  183.7560  177.8270  137.2270 C   0  0  0  0  0  2  0  0  0  0  0  0
  183.1980  177.9050  138.5050 O   0  0  0  0  0  0  0  0  0  0  0  0
  181.7960  178.9200  137.0260 O   0  0  0  0  0  1  0  0  0  0  0  0
  182.1340  178.8010  138.3760 C   0  0  1  0  0  3  0  0  0  0  0  0
  179.7860  176.5620  141.0440 O   0  0  0  0  0  0  0  0  0  0  0  0
  179.3040  173.7940  140.3720 C   0  0  0  0  0  1  0  0  0  0  0  0
  179.9320  177.9390  141.3970 C   0  0  2  0  0  3  0  0  0  0  0  0
  181.1180  178.5580  140.6640 C   0  0  0  0  0  2  0  0  0  0  0  0
  180.9320  178.2980  139.1700 C   0  0  2  0  0  3  0  0  0  0  0  0
  179.9320  174.7140  139.4400 N   0  0  0  0  0  2  0  0  0  0  0  0
  180.1460  176.0840  139.7760 C   0  0  0  0  0  0  0  0  0  0  0  0
  180.7160  176.8700  138.9140 N   0  0  0  0  0  0  0  0  0  0  0  0
  180.0530  178.1030  142.9080 C   0  0  0  0  0  2  0  0  0  0  0  0
  180.8910  179.3170  143.2820 C   0  0  0  0  0  1  0  0  0  0  0  0
  2  1  1  6  0  0  0
  2  3  1  0  0  0  0
  3  4  1  0  0  0  0
  4 13  1  0  0  0  0
  5 13  1  0  0  0  0
  5 14  1  0  0  0  0
  6 24  1  1  0  0  0
  6 12  1  0  0  0  0
  7 11  1  0  0  0  0
  9  7  1  0  0  0  0
  9  6  1  0  0  0  0
 11 12  1  1  0  0  0
 11 19  1  0  0  0  0
 13 15  1  0  0  0  0
 14 10  2  0  0  0  0
 14  8  1  0  0  0  0
 15  7  1  0  0  0  0
 15  8  2  0  0  0  0
 17 16  1  1  0  0  0
 17 18  1  0  0  0  0
 19 20  1  1  0  0  0
 19 21  1  0  0  0  0
 20 17  1  0  0  0  0
 21 22  1  0  0  0  0
 22 18  1  0  0  0  0
 24 23  1  0  0  0  0
 25 26  1  0  0  0  0
 25  2  1  0  0  0  0
 27 31  1  0  0  0  0
 27 32  1  0  0  0  0
 27 26  1  0  0  0  0
 29 33  1  0  0  0  0
 29 30  2  0  0  0  0
 31 29  1  0  0  0  0
 32 28  1  6  0  0  0
 32 30  1  0  0  0  0
 33 34  1  0  0  0  0
 36 35  1  6  0  0  0
 36 34  1  0  0  0  0
 37 39  1  0  0  0  0
 39 45  1  1  0  0  0
 40 39  1  0  0  0  0
 41 36  1  6  0  0  0
 41 40  1  0  0  0  0
 42 43  1  0  0  0  0
 42 38  1  0  0  0  0
 43 37  1  0  0  0  0
 44 41  1  0  0  0  0
 44 43  2  0  0  0  0
 45 46  1  0  0  0  0
M  END
>  <MODEL>
5

>  <REMARK>
 VINA RESULT:      -7.7      2.469      5.513
  Name = 
  13 active torsions:
  status: ('A' for Active; 'I' for Inactive)
    1  A    between atoms: N_4  and  C_6
    2  A    between atoms: C_6  and  C_34
    3  A    between atoms: C_7  and  O_28
    4  A    between atoms: C_7  and  C_36
    5  A    between atoms: C_11  and  C_16
    6  A    between atoms: C_13  and  C_18
    7  A    between atoms: C_14  and  C_32
    8  A    between atoms: C_26  and  C_27
    9  A    between atoms: C_26  and  O_28
   10  A    between atoms: N_29  and  C_35
   11  A    between atoms: N_29  and  C_39
   12  A    between atoms: C_34  and  C_35
   13  A    between atoms: N_37  and  C_39
                            x       y       z     vdW  Elec       q    Type
                         _______ _______ _______ _____ _____    ______ ____

>  <TORSDO>
F 13

$$$$
=
 OpenBabel11032420033D

 46 50  0  0  1  0  0  0  0  0999 V2000
  182.2150  179.4680  139.2940 C   0  0  0  0  0  1  0  0  0  0  0  0
  181.7920  178.6890  140.5240 C   0  0  1  0  0  3  0  0  0  0  0  0
  181.5480  177.3060  140.1560 N   0  0  0  0  0  2  0  0  0  0  0  0
  181.6790  177.2050  138.7090 C   0  0  0  0  0  2  0  0  0  0  0  0
  180.7160  174.8520  138.4340 C   0  0  0  0  0  2  0  0  0  0  0  0
  185.7860  177.4950  137.0190 C   0  0  2  0  0  3  0  0  0  0  0  0
  184.0630  175.8590  137.1560 N   0  0  0  0  0  0  0  0  0  0  0  0
  182.5190  174.0380  137.0560 N   0  0  0  0  0  0  0  0  0  0  0  0
  184.5140  177.1010  137.7510 C   0  0  0  0  0  2  0  0  0  0  0  0
  180.6380  172.6570  137.3930 O   0  0  0  0  0  0  0  0  0  0  0  0
  184.9540  175.3750  136.1140 C   0  0  1  0  0  3  0  0  0  0  0  0
  186.0190  176.4510  135.9370 C   0  0  0  0  0  2  0  0  0  0  0  0
  181.8020  175.8080  138.3130 N   0  0  0  0  0  0  0  0  0  0  0  0
  181.2410  173.7420  137.6010 C   0  0  0  0  0  0  0  0  0  0  0  0
  182.8150  175.2230  137.4820 C   0  0  0  0  0  0  0  0  0  0  0  0
  185.3090  170.5440  134.8600 C   0  0  0  0  0  1  0  0  0  0  0  0
  185.6970  171.5810  135.8910 C   0  0  1  0  0  3  0  0  0  0  0  0
  187.2160  171.6420  136.0090 C   0  0  0  0  0  2  0  0  0  0  0  0
  185.5580  174.0130  136.4870 C   0  0  1  0  0  3  0  0  0  0  0  0
  185.1440  172.9420  135.4770 C   0  0  0  0  0  2  0  0  0  0  0  0
  187.0850  174.0610  136.6340 C   0  0  0  0  0  2  0  0  0  0  0  0
  187.6220  172.6920  137.0390 C   0  0  0  0  0  2  0  0  0  0  0  0
  188.1020  178.3350  137.4170 C   0  0  0  0  0  1  0  0  0  0  0  0
  186.9650  177.5020  137.9790 C   0  0  0  0  0  2  0  0  0  0  0  0
  182.8850  178.7470  141.5820 C   0  0  0  0  0  2  0  0  0  0  0  0
  184.2670  178.7010  140.9460 C   0  0  0  0  0  2  0  0  0  0  0  0
  185.2670  179.2130  141.8720 N   0  0  0  0  0  0  0  0  0  0  0  0
  185.1290  179.0200  144.2510 N   0  0  0  0  0  1  0  0  0  0  0  0
  187.2740  178.1260  141.9890 C   0  0  0  0  0  0  0  0  0  0  0  0
  186.6540  177.6760  143.0140 N   0  0  0  0  0  0  0  0  0  0  0  0
  186.5160  179.0530  141.2540 N   0  0  0  0  0  2  0  0  0  0  0  0
  185.3260  178.2830  143.0150 C   0  0  2  0  0  3  0  0  0  0  0  0
  188.6860  177.7800  141.6730 C   0  0  0  0  0  2  0  0  0  0  0  0
  189.5410  178.5290  142.4840 O   0  0  0  0  0  0  0  0  0  0  0  0
  191.7010  177.8490  142.2470 O   0  0  0  0  0  1  0  0  0  0  0  0
  190.5030  177.6170  142.9270 C   0  0  1  0  0  3  0  0  0  0  0  0
  190.2510  176.9750  147.0700 O   0  0  0  0  0  0  0  0  0  0  0  0
  187.7100  177.5160  148.3350 C   0  0  0  0  0  1  0  0  0  0  0  0
  191.5490  176.7550  146.5150 C   0  0  2  0  0  3  0  0  0  0  0  0
  191.4630  176.5730  145.0030 C   0  0  0  0  0  2  0  0  0  0  0  0
  190.7190  177.7770  144.4280 C   0  0  2  0  0  3  0  0  0  0  0  0
  187.9760  177.8820  146.9550 N   0  0  0  0  0  2  0  0  0  0  0  0
  189.2410  177.6280  146.3480 C   0  0  0  0  0  0  0  0  0  0  0  0
  189.4330  177.9670  145.1090 N   0  0  0  0  0  0  0  0  0  0  0  0
  192.2350  175.5720  147.1890 C   0  0  0  0  0  2  0  0  0  0  0  0
  192.9000  175.9710  148.4980 C   0  0  0  0  0  1  0  0  0  0  0  0
  2  1  1  6  0  0  0
  2 25  1  0  0  0  0
  3  2  1  0  0  0  0
  4  3  1  0  0  0  0
  6  9  1  0  0  0  0
  6 24  1  1  0  0  0
  7 15  1  0  0  0  0
  7  9  1  0  0  0  0
  8 15  2  0  0  0  0
  8 14  1  0  0  0  0
 10 14  2  0  0  0  0
 11 12  1  1  0  0  0
 11 19  1  0  0  0  0
 11  7  1  0  0  0  0
 12  6  1  0  0  0  0
 13  5  1  0  0  0  0
 13  4  1  0  0  0  0
 14  5  1  0  0  0  0
 15 13  1  0  0  0  0
 17 16  1  6  0  0  0
 17 18  1  0  0  0  0
 18 22  1  0  0  0  0
 19 20  1  6  0  0  0
 19 21  1  0  0  0  0
 20 17  1  0  0  0  0
 21 22  1  0  0  0  0
 23 24  1  0  0  0  0
 26 25  1  0  0  0  0
 26 27  1  0  0  0  0
 27 32  1  0  0  0  0
 29 30  2  0  0  0  0
 30 32  1  0  0  0  0
 31 27  1  0  0  0  0
 31 29  1  0  0  0  0
 32 28  1  1  0  0  0
 33 29  1  0  0  0  0
 33 34  1  0  0  0  0
 34 36  1  0  0  0  0
 36 35  1  6  0  0  0
 39 37  1  0  0  0  0
 39 45  1  1  0  0  0
 40 39  1  0  0  0  0
 41 36  1  6  0  0  0
 41 40  1  0  0  0  0
 41 44  1  0  0  0  0
 42 38  1  0  0  0  0
 43 42  1  0  0  0  0
 43 37  1  0  0  0  0
 44 43  2  0  0  0  0
 45 46  1  0  0  0  0
M  END
>  <MODEL>
6

>  <REMARK>
 VINA RESULT:      -7.7      2.455      8.805
  Name = 
  13 active torsions:
  status: ('A' for Active; 'I' for Inactive)
    1  A    between atoms: N_4  and  C_6
    2  A    between atoms: C_6  and  C_34
    3  A    between atoms: C_7  and  O_28
    4  A    between atoms: C_7  and  C_36
    5  A    between atoms: C_11  and  C_16
    6  A    between atoms: C_13  and  C_18
    7  A    between atoms: C_14  and  C_32
    8  A    between atoms: C_26  and  C_27
    9  A    between atoms: C_26  and  O_28
   10  A    between atoms: N_29  and  C_35
   11  A    between atoms: N_29  and  C_39
   12  A    between atoms: C_34  and  C_35
   13  A    between atoms: N_37  and  C_39
                            x       y       z     vdW  Elec       q    Type
                         _______ _______ _______ _____ _____    ______ ____

>  <TORSDO>
F 13

$$$$
=
 OpenBabel11032420033D

 46 50  0  0  1  0  0  0  0  0999 V2000
  191.7480  175.2920  144.0780 C   0  0  0  0  0  1  0  0  0  0  0  0
  191.1360  176.6350  143.7280 C   0  0  1  0  0  3  0  0  0  0  0  0
  190.0130  176.4300  142.8300 N   0  0  0  0  0  2  0  0  0  0  0  0
  190.3050  177.1370  141.5910 C   0  0  0  0  0  2  0  0  0  0  0  0
  187.9710  178.1820  141.5970 C   0  0  0  0  0  2  0  0  0  0  0  0
  191.5190  175.8770  137.4990 C   0  0  2  0  0  3  0  0  0  0  0  0
  189.6800  177.0020  138.5090 N   0  0  0  0  0  0  0  0  0  0  0  0
  187.7410  178.2170  139.1980 N   0  0  0  0  0  0  0  0  0  0  0  0
  190.8010  176.1360  138.8140 C   0  0  0  0  0  2  0  0  0  0  0  0
  186.0820  179.2580  140.5090 O   0  0  0  0  0  0  0  0  0  0  0  0
  189.5700  177.3080  137.0920 C   0  0  1  0  0  3  0  0  0  0  0  0
  190.7910  176.6790  136.4290 C   0  0  0  0  0  2  0  0  0  0  0  0
  189.0650  177.5080  140.9210 N   0  0  0  0  0  0  0  0  0  0  0  0
  187.1610  178.6150  140.4320 C   0  0  0  0  0  0  0  0  0  0  0  0
  188.8260  177.5850  139.5090 C   0  0  0  0  0  0  0  0  0  0  0  0
  185.9880  173.8370  137.4920 C   0  0  0  0  0  1  0  0  0  0  0  0
  186.4820  175.0100  136.6740 C   0  0  1  0  0  3  0  0  0  0  0  0
  185.4040  176.0880  136.6210 C   0  0  0  0  0  2  0  0  0  0  0  0
  188.2520  176.7780  136.5080 C   0  0  1  0  0  3  0  0  0  0  0  0
  187.7570  175.5670  137.2990 C   0  0  0  0  0  2  0  0  0  0  0  0
  187.1640  177.8570  136.4260 C   0  0  0  0  0  2  0  0  0  0  0  0
  185.8940  177.2820  135.8060 C   0  0  0  0  0  2  0  0  0  0  0  0
  190.8850  174.2030  135.7600 C   0  0  0  0  0  1  0  0  0  0  0  0
  191.4620  174.3990  137.1500 C   0  0  0  0  0  2  0  0  0  0  0  0
  190.6540  177.3360  144.9900 C   0  0  0  0  0  2  0  0  0  0  0  0
  189.2480  177.8910  144.8050 C   0  0  0  0  0  2  0  0  0  0  0  0
  188.3050  177.1710  145.6510 N   0  0  0  0  0  0  0  0  0  0  0  0
  188.6920  176.6340  147.9490 N   0  0  0  0  0  1  0  0  0  0  0  0
  186.4130  178.2660  146.3160 C   0  0  0  0  0  0  0  0  0  0  0  0
  187.1650  178.3570  147.3490 N   0  0  0  0  0  0  0  0  0  0  0  0
  187.0190  177.5680  145.2590 N   0  0  0  0  0  2  0  0  0  0  0  0
  188.4340  177.7170  147.0150 C   0  0  2  0  0  3  0  0  0  0  0  0
  185.0090  178.7560  146.2850 C   0  0  0  0  0  2  0  0  0  0  0  0
  184.3530  178.2190  145.1750 O   0  0  0  0  0  0  0  0  0  0  0  0
  184.7550  180.0450  143.8770 O   0  0  0  0  0  1  0  0  0  0  0  0
  183.7660  179.3160  144.5410 C   0  0  1  0  0  3  0  0  0  0  0  0
  181.1630  179.2270  141.2460 O   0  0  0  0  0  0  0  0  0  0  0  0
  178.9310  181.0620  141.2810 C   0  0  0  0  0  1  0  0  0  0  0  0
  182.2070  178.2530  141.2020 C   0  0  2  0  0  3  0  0  0  0  0  0
  183.3310  178.6260  142.1630 C   0  0  0  0  0  2  0  0  0  0  0  0
  182.7150  178.8390  143.5440 C   0  0  2  0  0  3  0  0  0  0  0  0
  179.7810  180.8630  142.4410 N   0  0  0  0  0  2  0  0  0  0  0  0
  180.8680  179.9400  142.4180 C   0  0  0  0  0  0  0  0  0  0  0  0
  181.6070  179.7980  143.4770 N   0  0  0  0  0  0  0  0  0  0  0  0
  182.7170  178.0680  139.7770 C   0  0  0  0  0  2  0  0  0  0  0  0
  183.5280  176.7900  139.6260 C   0  0  0  0  0  1  0  0  0  0  0  0
  2  1  1  1  0  0  0
  2 25  1  0  0  0  0
  3  2  1  0  0  0  0
  4  3  1  0  0  0  0
  6 24  1  6  0  0  0
  6  9  1  0  0  0  0
  7  9  1  0  0  0  0
  7 15  1  0  0  0  0
  8 15  2  0  0  0  0
  8 14  1  0  0  0  0
 11 12  1  6  0  0  0
 11  7  1  0  0  0  0
 12  6  1  0  0  0  0
 13  4  1  0  0  0  0
 13  5  1  0  0  0  0
 14 10  2  0  0  0  0
 14  5  1  0  0  0  0
 15 13  1  0  0  0  0
 17 20  1  0  0  0  0
 17 16  1  1  0  0  0
 18 17  1  0  0  0  0
 19 21  1  1  0  0  0
 19 11  1  0  0  0  0
 19 20  1  0  0  0  0
 22 21  1  0  0  0  0
 22 18  1  0  0  0  0
 23 24  1  0  0  0  0
 26 25  1  0  0  0  0
 26 27  1  0  0  0  0
 27 32  1  0  0  0  0
 29 30  2  0  0  0  0
 31 27  1  0  0  0  0
 31 29  1  0  0  0  0
 32 30  1  0  0  0  0
 32 28  1  1  0  0  0
 33 29  1  0  0  0  0
 34 33  1  0  0  0  0
 36 35  1  6  0  0  0
 36 34  1  0  0  0  0
 37 43  1  0  0  0  0
 38 42  1  0  0  0  0
 39 45  1  6  0  0  0
 39 37  1  0  0  0  0
 39 40  1  0  0  0  0
 40 41  1  0  0  0  0
 41 36  1  1  0  0  0
 43 42  1  0  0  0  0
 43 44  2  0  0  0  0
 44 41  1  0  0  0  0
 46 45  1  0  0  0  0
M  END
>  <MODEL>
7

>  <REMARK>
 VINA RESULT:      -7.5      3.088      8.894
  Name = 
  13 active torsions:
  status: ('A' for Active; 'I' for Inactive)
    1  A    between atoms: N_4  and  C_6
    2  A    between atoms: C_6  and  C_34
    3  A    between atoms: C_7  and  O_28
    4  A    between atoms: C_7  and  C_36
    5  A    between atoms: C_11  and  C_16
    6  A    between atoms: C_13  and  C_18
    7  A    between atoms: C_14  and  C_32
    8  A    between atoms: C_26  and  C_27
    9  A    between atoms: C_26  and  O_28
   10  A    between atoms: N_29  and  C_35
   11  A    between atoms: N_29  and  C_39
   12  A    between atoms: C_34  and  C_35
   13  A    between atoms: N_37  and  C_39
                            x       y       z     vdW  Elec       q    Type
                         _______ _______ _______ _____ _____    ______ ____

>  <TORSDO>
F 13

$$$$
=
 OpenBabel11032420033D

 46 50  0  0  1  0  0  0  0  0999 V2000
  180.9170  175.9070  138.0560 C   0  0  0  0  0  1  0  0  0  0  0  0
  181.9330  175.7120  139.1650 C   0  0  1  0  0  3  0  0  0  0  0  0
  183.1310  175.1020  138.6140 N   0  0  0  0  0  2  0  0  0  0  0  0
  183.1160  175.3220  137.1750 C   0  0  0  0  0  2  0  0  0  0  0  0
  183.5570  173.0420  136.1020 C   0  0  0  0  0  2  0  0  0  0  0  0
  186.6430  178.0110  136.8030 C   0  0  2  0  0  3  0  0  0  0  0  0
  186.0190  175.8330  136.0710 N   0  0  0  0  0  0  0  0  0  0  0  0
  185.6720  173.6660  135.1260 N   0  0  0  0  0  0  0  0  0  0  0  0
  185.6830  176.8560  137.0420 C   0  0  0  0  0  2  0  0  0  0  0  0
  184.7590  171.5580  134.5980 O   0  0  0  0  0  0  0  0  0  0  0  0
  187.1500  176.1980  135.2340 C   0  0  1  0  0  3  0  0  0  0  0  0
  187.5130  177.6290  135.6150 C   0  0  0  0  0  2  0  0  0  0  0  0
  183.9940  174.3650  136.5130 N   0  0  0  0  0  0  0  0  0  0  0  0
  184.6790  172.6540  135.2110 C   0  0  0  0  0  0  0  0  0  0  0  0
  185.2550  174.6290  135.8820 C   0  0  0  0  0  0  0  0  0  0  0  0
  192.0690  175.5090  134.6310 C   0  0  0  0  0  1  0  0  0  0  0  0
  190.7800  174.8580  135.0830 C   0  0  1  0  0  3  0  0  0  0  0  0
  190.9140  174.4080  136.5340 C   0  0  0  0  0  2  0  0  0  0  0  0
  188.3240  175.2270  135.4300 C   0  0  1  0  0  3  0  0  0  0  0  0
  189.6310  175.8530  134.9430 C   0  0  0  0  0  2  0  0  0  0  0  0
  188.4600  174.7450  136.8810 C   0  0  0  0  0  2  0  0  0  0  0  0
  189.6170  173.7580  137.0050 C   0  0  0  0  0  2  0  0  0  0  0  0
  188.9500  178.5170  137.6080 C   0  0  0  0  0  1  0  0  0  0  0  0
  187.5200  178.2270  138.0250 C   0  0  0  0  0  2  0  0  0  0  0  0
  182.2900  177.0520  139.7920 C   0  0  0  0  0  2  0  0  0  0  0  0
  181.0490  177.7560  140.3240 C   0  0  0  0  0  2  0  0  0  0  0  0
  181.4100  179.0330  140.9230 N   0  0  0  0  0  0  0  0  0  0  0  0
  179.8480  180.7650  141.4530 N   0  0  0  0  0  1  0  0  0  0  0  0
  182.0340  179.0450  143.1220 C   0  0  0  0  0  0  0  0  0  0  0  0
  180.8180  179.4410  143.1760 N   0  0  0  0  0  0  0  0  0  0  0  0
  182.4660  178.7840  141.8110 N   0  0  0  0  0  2  0  0  0  0  0  0
  180.3010  179.4320  141.8100 C   0  0  2  0  0  3  0  0  0  0  0  0
  182.9210  178.9740  144.3130 C   0  0  0  0  0  2  0  0  0  0  0  0
  184.1630  178.4590  143.9390 O   0  0  0  0  0  0  0  0  0  0  0  0
  184.2900  178.7460  146.1940 O   0  0  0  0  0  1  0  0  0  0  0  0
  185.0150  178.7730  145.0000 C   0  0  1  0  0  3  0  0  0  0  0  0
  188.8390  177.0720  144.6470 O   0  0  0  0  0  0  0  0  0  0  0  0
  189.8280  176.5960  141.9740 C   0  0  0  0  0  1  0  0  0  0  0  0
  188.3800  177.2200  145.9920 C   0  0  2  0  0  3  0  0  0  0  0  0
  187.2280  178.2180  146.0590 C   0  0  0  0  0  2  0  0  0  0  0  0
  186.1590  177.7660  145.0650 C   0  0  2  0  0  3  0  0  0  0  0  0
  188.4540  176.9950  142.2270 N   0  0  0  0  0  2  0  0  0  0  0  0
  187.9730  177.2070  143.5520 C   0  0  0  0  0  0  0  0  0  0  0  0
  186.7390  177.5690  143.7320 N   0  0  0  0  0  0  0  0  0  0  0  0
  189.5250  177.6160  146.9170 C   0  0  0  0  0  2  0  0  0  0  0  0
  189.0460  177.8690  148.3380 C   0  0  0  0  0  1  0  0  0  0  0  0
  2  1  1  6  0  0  0
  2 25  1  0  0  0  0
  3  2  1  0  0  0  0
  4  3  1  0  0  0  0
  5 13  1  0  0  0  0
  6  9  1  0  0  0  0
  6 24  1  1  0  0  0
  7  9  1  0  0  0  0
  8 14  1  0  0  0  0
  8 15  2  0  0  0  0
 10 14  2  0  0  0  0
 11 19  1  0  0  0  0
 11 12  1  1  0  0  0
 11  7  1  0  0  0  0
 12  6  1  0  0  0  0
 13  4  1  0  0  0  0
 14  5  1  0  0  0  0
 15  7  1  0  0  0  0
 15 13  1  0  0  0  0
 17 16  1  1  0  0  0
 17 18  1  0  0  0  0
 18 22  1  0  0  0  0
 19 20  1  1  0  0  0
 19 21  1  0  0  0  0
 20 17  1  0  0  0  0
 21 22  1  0  0  0  0
 23 24  1  0  0  0  0
 25 26  1  0  0  0  0
 26 27  1  0  0  0  0
 27 32  1  0  0  0  0
 27 31  1  0  0  0  0
 29 30  2  0  0  0  0
 29 33  1  0  0  0  0
 31 29  1  0  0  0  0
 32 28  1  6  0  0  0
 32 30  1  0  0  0  0
 34 33  1  0  0  0  0
 34 36  1  0  0  0  0
 36 35  1  1  0  0  0
 37 39  1  0  0  0  0
 38 42  1  0  0  0  0
 39 40  1  0  0  0  0
 39 45  1  1  0  0  0
 41 36  1  6  0  0  0
 41 40  1  0  0  0  0
 42 43  1  0  0  0  0
 43 44  2  0  0  0  0
 43 37  1  0  0  0  0
 44 41  1  0  0  0  0
 45 46  1  0  0  0  0
M  END
>  <MODEL>
8

>  <REMARK>
 VINA RESULT:      -7.4      2.121      8.354
  Name = 
  13 active torsions:
  status: ('A' for Active; 'I' for Inactive)
    1  A    between atoms: N_4  and  C_6
    2  A    between atoms: C_6  and  C_34
    3  A    between atoms: C_7  and  O_28
    4  A    between atoms: C_7  and  C_36
    5  A    between atoms: C_11  and  C_16
    6  A    between atoms: C_13  and  C_18
    7  A    between atoms: C_14  and  C_32
    8  A    between atoms: C_26  and  C_27
    9  A    between atoms: C_26  and  O_28
   10  A    between atoms: N_29  and  C_35
   11  A    between atoms: N_29  and  C_39
   12  A    between atoms: C_34  and  C_35
   13  A    between atoms: N_37  and  C_39
                            x       y       z     vdW  Elec       q    Type
                         _______ _______ _______ _____ _____    ______ ____

>  <TORSDO>
F 13

$$$$
=
 OpenBabel11032420033D

 46 50  0  0  1  0  0  0  0  0999 V2000
  182.9140  179.2000  138.5400 C   0  0  0  0  0  1  0  0  0  0  0  0
  183.8140  178.4670  139.5170 C   0  0  1  0  0  3  0  0  0  0  0  0
  184.4170  179.4270  140.4260 N   0  0  0  0  0  2  0  0  0  0  0  0
  185.6510  178.8420  140.9300 C   0  0  0  0  0  2  0  0  0  0  0  0
  184.5450  179.3620  143.1770 C   0  0  0  0  0  2  0  0  0  0  0  0
  189.5310  176.7310  141.4710 C   0  0  2  0  0  3  0  0  0  0  0  0
  187.7580  177.5110  142.8530 N   0  0  0  0  0  0  0  0  0  0  0  0
  186.1240  178.1030  144.4930 N   0  0  0  0  0  0  0  0  0  0  0  0
  188.3390  177.6710  141.5350 C   0  0  0  0  0  2  0  0  0  0  0  0
  184.2320  179.0160  145.5620 O   0  0  0  0  0  0  0  0  0  0  0  0
  188.4900  176.5700  143.6840 C   0  0  1  0  0  3  0  0  0  0  0  0
  189.5780  175.9800  142.7940 C   0  0  0  0  0  2  0  0  0  0  0  0
  185.6550  178.8580  142.3870 N   0  0  0  0  0  0  0  0  0  0  0  0
  184.9080  178.8380  144.5170 C   0  0  0  0  0  0  0  0  0  0  0  0
  186.5280  178.1340  143.2650 C   0  0  0  0  0  0  0  0  0  0  0  0
  187.7250  177.6730  148.5040 C   0  0  0  0  0  1  0  0  0  0  0  0
  188.6640  177.8570  147.3310 C   0  0  1  0  0  3  0  0  0  0  0  0
  190.0460  177.3230  147.6930 C   0  0  0  0  0  2  0  0  0  0  0  0
  189.0660  177.2580  144.9300 C   0  0  1  0  0  3  0  0  0  0  0  0
  188.1130  177.1170  146.1170 C   0  0  0  0  0  2  0  0  0  0  0  0
  190.4670  176.7490  145.2950 C   0  0  0  0  0  2  0  0  0  0  0  0
  191.0010  177.4930  146.5150 C   0  0  0  0  0  2  0  0  0  0  0  0
  191.4910  177.1490  139.9830 C   0  0  0  0  0  1  0  0  0  0  0  0
  190.8170  177.5210  141.2910 C   0  0  0  0  0  2  0  0  0  0  0  0
  183.0080  177.4530  140.3140 C   0  0  0  0  0  2  0  0  0  0  0  0
  182.6280  176.2560  139.4530 C   0  0  0  0  0  2  0  0  0  0  0  0
  181.3080  175.7650  139.8220 N   0  0  0  0  0  0  0  0  0  0  0  0
  179.7130  177.0100  141.0970 N   0  0  0  0  0  1  0  0  0  0  0  0
  179.7300  175.5970  138.1770 C   0  0  0  0  0  0  0  0  0  0  0  0
  179.4110  176.6920  138.7590 N   0  0  0  0  0  0  0  0  0  0  0  0
  180.8510  174.9780  138.7560 N   0  0  0  0  0  2  0  0  0  0  0  0
  180.3920  176.9200  139.8160 C   0  0  2  0  0  3  0  0  0  0  0  0
  178.9320  174.9950  137.0770 C   0  0  0  0  0  2  0  0  0  0  0  0
  179.5310  173.8040  136.6640 O   0  0  0  0  0  0  0  0  0  0  0  0
  179.2640  175.2160  134.8980 O   0  0  0  0  0  1  0  0  0  0  0  0
  179.7860  173.9850  135.3020 C   0  0  1  0  0  3  0  0  0  0  0  0
  183.9300  174.3140  135.9010 O   0  0  0  0  0  0  0  0  0  0  0  0
  185.0060  176.9760  136.2310 C   0  0  0  0  0  1  0  0  0  0  0  0
  183.4690  172.9800  135.6780 C   0  0  2  0  0  3  0  0  0  0  0  0
  181.9640  172.8870  135.9120 C   0  0  0  0  0  2  0  0  0  0  0  0
  181.2890  173.9490  135.0460 C   0  0  2  0  0  3  0  0  0  0  0  0
  183.6300  176.7470  135.8260 N   0  0  0  0  0  2  0  0  0  0  0  0
  183.1160  175.4280  135.6470 C   0  0  0  0  0  0  0  0  0  0  0  0
  181.8780  175.2700  135.2910 N   0  0  0  0  0  0  0  0  0  0  0  0
  184.2390  171.9880  136.5420 C   0  0  0  0  0  2  0  0  0  0  0  0
  185.0350  172.6860  137.6360 C   0  0  0  0  0  1  0  0  0  0  0  0
  2  1  1  6  0  0  0
  2 25  1  0  0  0  0
  2  3  1  0  0  0  0
  3  4  1  0  0  0  0
  4 13  1  0  0  0  0
  5 14  1  0  0  0  0
  6 24  1  1  0  0  0
  6  9  1  0  0  0  0
  6 12  1  0  0  0  0
  7 15  1  0  0  0  0
  7 11  1  0  0  0  0
  8 14  1  0  0  0  0
  9  7  1  0  0  0  0
 11 12  1  6  0  0  0
 11 19  1  0  0  0  0
 13  5  1  0  0  0  0
 13 15  1  0  0  0  0
 14 10  2  0  0  0  0
 15  8  2  0  0  0  0
 17 18  1  0  0  0  0
 17 16  1  1  0  0  0
 19 21  1  1  0  0  0
 19 20  1  0  0  0  0
 20 17  1  0  0  0  0
 21 22  1  0  0  0  0
 22 18  1  0  0  0  0
 23 24  1  0  0  0  0
 26 27  1  0  0  0  0
 26 25  1  0  0  0  0
 29 31  1  0  0  0  0
 29 30  2  0  0  0  0
 30 32  1  0  0  0  0
 31 27  1  0  0  0  0
 32 27  1  0  0  0  0
 32 28  1  1  0  0  0
 33 29  1  0  0  0  0
 34 33  1  0  0  0  0
 36 35  1  1  0  0  0
 36 34  1  0  0  0  0
 39 37  1  0  0  0  0
 39 40  1  0  0  0  0
 39 45  1  1  0  0  0
 41 44  1  0  0  0  0
 41 36  1  1  0  0  0
 41 40  1  0  0  0  0
 42 38  1  0  0  0  0
 43 42  1  0  0  0  0
 43 37  1  0  0  0  0
 44 43  2  0  0  0  0
 45 46  1  0  0  0  0
M  END
>  <MODEL>
9

>  <REMARK>
 VINA RESULT:      -7.4      2.203      3.554
  Name = 
  13 active torsions:
  status: ('A' for Active; 'I' for Inactive)
    1  A    between atoms: N_4  and  C_6
    2  A    between atoms: C_6  and  C_34
    3  A    between atoms: C_7  and  O_28
    4  A    between atoms: C_7  and  C_36
    5  A    between atoms: C_11  and  C_16
    6  A    between atoms: C_13  and  C_18
    7  A    between atoms: C_14  and  C_32
    8  A    between atoms: C_26  and  C_27
    9  A    between atoms: C_26  and  O_28
   10  A    between atoms: N_29  and  C_35
   11  A    between atoms: N_29  and  C_39
   12  A    between atoms: C_34  and  C_35
   13  A    between atoms: N_37  and  C_39
                            x       y       z     vdW  Elec       q    Type
                         _______ _______ _______ _____ _____    ______ ____

>  <TORSDO>
F 13

$$$$
