=
 OpenBabel11042410583D

 56 63  0  0  1  0  0  0  0  0999 V2000
  184.4110  178.3480  140.5760 C   0  0  0  0  0  0  0  0  0  0  0  0
  183.0640  177.9370  141.0950 C   0  0  0  0  0  2  0  0  0  0  0  0
  184.8350  178.0090  139.3470 C   0  0  0  0  0  3  0  0  0  0  0  0
  181.6530  177.7760  139.0170 C   0  0  1  0  0  3  0  0  0  0  0  0
  182.7510  177.9620  137.9790 C   0  0  0  0  0  2  0  0  0  0  0  0
  181.9430  178.5760  140.2850 C   0  0  0  0  0  2  0  0  0  0  0  0
  184.0130  177.2000  138.3870 C   0  0  1  0  0  3  0  0  0  0  0  0
  186.7840  175.4960  135.5230 O   0  0  0  0  0  0  0  0  0  0  0  0
  185.5900  174.9930  136.0600 C   0  0  2  0  0  3  0  0  0  0  0  0
  185.3960  175.5120  137.3490 O   0  0  0  0  0  0  0  0  0  0  0  0
  186.4600  177.8960  135.5020 C   0  0  0  0  0  2  0  0  0  0  0  0
  185.9820  177.8170  136.9580 C   0  0  0  0  0  2  0  0  0  0  0  0
  186.3860  176.5760  134.7280 C   0  0  0  0  0  2  0  0  0  0  0  0
  184.8570  176.7990  137.1780 C   0  0  2  0  0  3  0  0  0  0  0  0
  184.3030  172.9120  135.9160 C   0  0  2  0  0  3  0  0  0  0  0  0
  185.2590  172.9380  134.8870 O   0  0  0  0  0  0  0  0  0  0  0  0
  185.6530  173.4780  136.1260 C   0  0  1  0  0  3  0  0  0  0  0  0
  184.2370  171.5170  136.5010 C   0  0  0  0  0  2  0  0  0  0  0  0
  182.7920  171.0630  136.5910 C   0  0  0  0  0  2  0  0  0  0  0  0
  181.8600  172.2640  136.6280 C   0  0  0  0  0  2  0  0  0  0  0  0
  180.6050  171.9590  135.9610 N   0  0  0  0  0  2  0  0  0  0  0  0
  180.7310  170.6280  135.3920 C   0  0  0  0  0  1  0  0  0  0  0  0
  180.4140  178.1960  138.4640 O   0  0  0  0  0  0  0  0  0  0  0  0
  180.7140  179.8800  136.8920 N   0  0  0  0  0  0  0  0  0  0  0  0
  180.8170  182.2750  138.3430 O   0  0  0  0  0  0  0  0  0  0  0  0
  180.1040  182.3150  137.1360 C   0  0  2  0  0  3  0  0  0  0  0  0
  179.4680  180.3890  138.8250 O   0  0  0  0  0  0  0  0  0  0  0  0
  179.5570  181.0100  135.2050 O   0  0  0  0  0  1  0  0  0  0  0  0
  180.0210  181.6160  139.3040 C   0  0  2  0  0  3  0  0  0  0  0  0
  180.5130  181.1640  136.2090 C   0  0  2  0  0  3  0  0  0  0  0  0
  180.2090  179.5060  138.0330 C   0  0  0  0  0  0  0  0  0  0  0  0
  178.9310  182.5230  139.8540 C   0  0  0  0  0  1  0  0  0  0  0  0
  180.2620  183.6800  136.4640 C   0  0  0  0  0  2  0  0  0  0  0  0
  180.2870  185.5310  138.0980 F   0  0  0  0  0  0  0  0  0  0  0  0
  182.2090  184.7040  137.3240 O   0  0  0  0  0  0  0  0  0  0  0  0
  180.9900  184.6640  137.3260 C   0  0  0  0  0  0  0  0  0  0  0  0
  185.2890  179.1690  141.4630 C   0  0  0  0  0  2  0  0  0  0  0  0
  188.1970  176.7260  143.5570 C   0  0  2  0  0  3  0  0  0  0  0  0
  187.6020  175.5140  143.2600 F   0  0  0  0  0  0  0  0  0  0  0  0
  186.2760  178.3480  143.7540 C   0  0  0  0  0  0  0  0  0  0  0  0
  187.6730  178.1630  141.6680 C   0  0  0  0  0  0  0  0  0  0  0  0
  184.2820  179.9460  144.0080 C   0  0  0  0  0  1  0  0  0  0  0  0
  187.2580  177.5550  144.3940 C   0  0  0  0  0  0  0  0  0  0  0  0
  188.2790  176.7370  146.3970 F   0  0  0  0  0  0  0  0  0  0  0  0
  185.4730  179.0310  145.9520 C   0  0  0  0  0  3  0  0  0  0  0  0
  188.5310  177.4270  142.3150 N   0  0  0  0  0  0  0  0  0  0  0  0
  187.3390  177.5050  145.7910 C   0  0  0  0  0  0  0  0  0  0  0  0
  186.5250  178.2080  147.9190 F   0  0  0  0  0  0  0  0  0  0  0  0
  185.3690  179.0880  144.5600 C   0  0  0  0  0  0  0  0  0  0  0  0
  186.4490  178.2490  146.5660 C   0  0  0  0  0  0  0  0  0  0  0  0
  186.2620  178.2810  142.2310 C   0  0  2  0  0  3  0  0  0  0  0  0
  188.1070  178.7910  140.4940 O   0  0  0  0  0  0  0  0  0  0  0  0
  189.2690  178.4170  139.7730 C   0  0  2  0  0  3  0  0  0  0  0  0
  189.6510  177.6610  137.4610 C   0  0  0  0  0  2  0  0  0  0  0  0
  189.1040  178.7890  138.3140 C   0  0  1  0  0  3  0  0  0  0  0  0
  188.9070  177.3620  138.7460 C   0  0  2  0  0  3  0  0  0  0  0  0
  1  2  1  0  0  0  0
  1 37  1  0  0  0  0
  3  1  2  0  0  0  0
  4 23  1  6  0  0  0
  4  6  1  0  0  0  0
  5  4  1  0  0  0  0
  6  2  1  0  0  0  0
  7  5  1  6  0  0  0
  7  3  1  0  0  0  0
  9  8  1  1  0  0  0
  9 17  1  0  0  0  0
  9 10  1  0  0  0  0
 11 12  1  0  0  0  0
 13 11  1  0  0  0  0
 13  8  1  0  0  0  0
 14 12  1  1  0  0  0
 14 10  1  0  0  0  0
 14  7  1  0  0  0  0
 15 17  1  0  0  0  0
 15 18  1  1  0  0  0
 16 15  1  0  0  0  0
 17 16  1  6  0  0  0
 18 19  1  0  0  0  0
 19 20  1  0  0  0  0
 21 20  1  0  0  0  0
 22 21  1  0  0  0  0
 24 31  2  0  0  0  0
 25 29  1  0  0  0  0
 26 33  1  6  0  0  0
 26 25  1  0  0  0  0
 27 29  1  0  0  0  0
 29 32  1  6  0  0  0
 30 28  1  6  0  0  0
 30 24  1  0  0  0  0
 30 26  1  0  0  0  0
 31 23  1  0  0  0  0
 31 27  1  0  0  0  0
 33 36  1  0  0  0  0
 35 36  2  0  0  0  0
 36 34  1  0  0  0  0
 38 39  1  6  0  0  0
 38 43  1  0  0  0  0
 40 43  2  0  0  0  0
 40 49  1  0  0  0  0
 41 51  1  0  0  0  0
 41 46  2  0  0  0  0
 42 49  1  0  0  0  0
 43 47  1  0  0  0  0
 45 50  1  0  0  0  0
 46 38  1  0  0  0  0
 47 44  1  0  0  0  0
 47 50  2  0  0  0  0
 49 45  2  0  0  0  0
 50 48  1  0  0  0  0
 51 37  1  6  0  0  0
 51 40  1  0  0  0  0
 52 41  1  0  0  0  0
 53 52  1  1  0  0  0
 55 54  1  6  0  0  0
 55 56  1  0  0  0  0
 55 53  1  0  0  0  0
 56 54  1  6  0  0  0
 56 53  1  0  0  0  0
M  END
>  <MODEL>
1

>  <REMARK>
 VINA RESULT:      -8.8      0.000      0.000
  Name = 
  14 active torsions:
  status: ('A' for Active; 'I' for Inactive)
    1  A    between atoms: O_1  and  C_37
    2  A    between atoms: O_1  and  C_52
    3  A    between atoms: C_3  and  C_53
    4  A    between atoms: C_5  and  C_13
    5  A    between atoms: C_7  and  N_24
    6  A    between atoms: C_7  and  C_49
    7  A    between atoms: C_8  and  O_22
    8  A    between atoms: C_10  and  C_31
    9  A    between atoms: C_13  and  C_49
   10  A    between atoms: C_16  and  C_55
   11  A    between atoms: C_19  and  O_22
   12  A    between atoms: C_31  and  C_34
   13  A    between atoms: C_50  and  C_53
   14  A    between atoms: C_51  and  C_56
                            x       y       z     vdW  Elec       q    Type
                         _______ _______ _______ _____ _____    ______ ____

>  <TORSDO>
F 14

$$$$
=
 OpenBabel11042410583D

 56 63  0  0  1  0  0  0  0  0999 V2000
  182.2580  178.0300  139.4540 C   0  0  0  0  0  0  0  0  0  0  0  0
  183.0080  177.2980  138.3790 C   0  0  0  0  0  2  0  0  0  0  0  0
  182.8430  178.4000  140.6050 C   0  0  0  0  0  3  0  0  0  0  0  0
  185.3780  178.0940  138.6640 C   0  0  1  0  0  3  0  0  0  0  0  0
  185.2040  178.8740  139.9590 C   0  0  0  0  0  2  0  0  0  0  0  0
  184.1210  178.1600  137.7990 C   0  0  0  0  0  2  0  0  0  0  0  0
  184.2830  178.1230  140.9220 C   0  0  1  0  0  3  0  0  0  0  0  0
  185.1820  178.2200  145.1610 O   0  0  0  0  0  0  0  0  0  0  0  0
  186.0090  177.9990  144.0500 C   0  0  2  0  0  3  0  0  0  0  0  0
  185.2630  177.4150  143.0160 O   0  0  0  0  0  0  0  0  0  0  0  0
  183.4560  179.7030  144.3310 C   0  0  0  0  0  2  0  0  0  0  0  0
  183.2720  178.7690  143.1270 C   0  0  0  0  0  2  0  0  0  0  0  0
  184.7990  179.5620  145.0550 C   0  0  0  0  0  2  0  0  0  0  0  0
  184.5770  178.4670  142.3820 C   0  0  2  0  0  3  0  0  0  0  0  0
  188.4440  177.7370  144.1380 C   0  0  2  0  0  3  0  0  0  0  0  0
  187.9250  177.6860  145.4420 O   0  0  0  0  0  0  0  0  0  0  0  0
  187.1530  177.0800  144.4340 C   0  0  1  0  0  3  0  0  0  0  0  0
  189.5290  176.6910  143.9920 C   0  0  0  0  0  2  0  0  0  0  0  0
  190.8870  177.3630  143.9070 C   0  0  0  0  0  2  0  0  0  0  0  0
  191.4760  177.5450  145.2970 C   0  0  0  0  0  2  0  0  0  0  0  0
  191.0110  176.4980  146.1910 N   0  0  0  0  0  2  0  0  0  0  0  0
  192.1870  175.8510  146.7460 C   0  0  0  0  0  1  0  0  0  0  0  0
  186.4790  178.6280  137.9440 O   0  0  0  0  0  0  0  0  0  0  0  0
  188.7240  178.3380  138.4640 N   0  0  0  0  0  0  0  0  0  0  0  0
  189.9100  177.2560  136.1690 O   0  0  0  0  0  0  0  0  0  0  0  0
  190.3370  176.7220  137.3940 C   0  0  2  0  0  3  0  0  0  0  0  0
  187.7320  176.8030  136.9800 O   0  0  0  0  0  0  0  0  0  0  0  0
  190.1230  176.9900  139.7640 O   0  0  0  0  0  1  0  0  0  0  0  0
  188.6370  176.7230  135.8770 C   0  0  2  0  0  3  0  0  0  0  0  0
  190.0320  177.6790  138.5530 C   0  0  2  0  0  3  0  0  0  0  0  0
  187.6770  177.9280  137.8080 C   0  0  0  0  0  0  0  0  0  0  0  0
  188.7250  175.2990  135.3490 C   0  0  0  0  0  1  0  0  0  0  0  0
  191.8190  176.3490  137.3300 C   0  0  0  0  0  2  0  0  0  0  0  0
  193.3330  174.4870  137.9160 F   0  0  0  0  0  0  0  0  0  0  0  0
  191.1390  174.1230  137.7370 O   0  0  0  0  0  0  0  0  0  0  0  0
  192.0660  174.9140  137.6800 C   0  0  0  0  0  0  0  0  0  0  0  0
  180.8200  178.3590  139.2140 C   0  0  0  0  0  2  0  0  0  0  0  0
  180.0990  179.6250  135.1290 C   0  0  2  0  0  3  0  0  0  0  0  0
  181.4280  179.6270  134.7460 F   0  0  0  0  0  0  0  0  0  0  0  0
  180.1360  180.2830  137.5630 C   0  0  0  0  0  0  0  0  0  0  0  0
  179.9360  177.8870  136.8200 C   0  0  0  0  0  0  0  0  0  0  0  0
  180.2210  181.0210  140.0220 C   0  0  0  0  0  1  0  0  0  0  0  0
  179.8880  180.6440  136.2180 C   0  0  0  0  0  0  0  0  0  0  0  0
  179.2580  182.2860  134.5950 F   0  0  0  0  0  0  0  0  0  0  0  0
  179.5670  182.5600  138.2240 C   0  0  0  0  0  3  0  0  0  0  0  0
  179.7250  178.2890  135.5990 N   0  0  0  0  0  0  0  0  0  0  0  0
  179.4880  181.9460  135.8880 C   0  0  0  0  0  0  0  0  0  0  0  0
  178.9310  184.1580  136.5820 F   0  0  0  0  0  0  0  0  0  0  0  0
  179.9760  181.2710  138.5730 C   0  0  0  0  0  0  0  0  0  0  0  0
  179.3220  182.8980  136.8930 C   0  0  0  0  0  0  0  0  0  0  0  0
  180.6110  178.8520  137.7860 C   0  0  2  0  0  3  0  0  0  0  0  0
  179.5300  176.5890  137.1580 O   0  0  0  0  0  0  0  0  0  0  0  0
  179.8010  175.4400  136.3730 C   0  0  2  0  0  3  0  0  0  0  0  0
  180.7030  173.2100  136.9000 C   0  0  0  0  0  2  0  0  0  0  0  0
  179.5900  174.1940  137.2070 C   0  0  1  0  0  3  0  0  0  0  0  0
  180.9860  174.6980  136.9600 C   0  0  2  0  0  3  0  0  0  0  0  0
  1  3  2  0  0  0  0
  2  1  1  0  0  0  0
  3  7  1  0  0  0  0
  4 23  1  6  0  0  0
  4  5  1  0  0  0  0
  6  2  1  0  0  0  0
  6  4  1  0  0  0  0
  7  5  1  6  0  0  0
  7 14  1  0  0  0  0
  9 10  1  6  0  0  0
  9 17  1  0  0  0  0
  9  8  1  0  0  0  0
 11 13  1  0  0  0  0
 12 11  1  0  0  0  0
 13  8  1  0  0  0  0
 14 10  1  0  0  0  0
 14 12  1  1  0  0  0
 15 18  1  1  0  0  0
 15 17  1  0  0  0  0
 15 16  1  0  0  0  0
 17 16  1  1  0  0  0
 19 18  1  0  0  0  0
 19 20  1  0  0  0  0
 20 21  1  0  0  0  0
 21 22  1  0  0  0  0
 24 30  1  0  0  0  0
 25 26  1  0  0  0  0
 26 33  1  6  0  0  0
 26 30  1  0  0  0  0
 27 31  1  0  0  0  0
 29 32  1  1  0  0  0
 29 25  1  0  0  0  0
 29 27  1  0  0  0  0
 30 28  1  1  0  0  0
 31 23  1  0  0  0  0
 31 24  2  0  0  0  0
 33 36  1  0  0  0  0
 36 35  2  0  0  0  0
 36 34  1  0  0  0  0
 37  1  1  0  0  0  0
 38 39  1  1  0  0  0
 38 46  1  0  0  0  0
 38 43  1  0  0  0  0
 40 51  1  0  0  0  0
 40 49  1  0  0  0  0
 41 52  1  0  0  0  0
 41 51  1  0  0  0  0
 43 40  2  0  0  0  0
 44 47  1  0  0  0  0
 45 49  2  0  0  0  0
 46 41  2  0  0  0  0
 47 43  1  0  0  0  0
 47 50  2  0  0  0  0
 48 50  1  0  0  0  0
 49 42  1  0  0  0  0
 50 45  1  0  0  0  0
 51 37  1  1  0  0  0
 53 56  1  0  0  0  0
 53 52  1  1  0  0  0
 53 55  1  0  0  0  0
 55 54  1  6  0  0  0
 56 54  1  6  0  0  0
 56 55  1  0  0  0  0
M  END
>  <MODEL>
2

>  <REMARK>
 VINA RESULT:      -7.9      3.582     10.423
  Name = 
  14 active torsions:
  status: ('A' for Active; 'I' for Inactive)
    1  A    between atoms: O_1  and  C_37
    2  A    between atoms: O_1  and  C_52
    3  A    between atoms: C_3  and  C_53
    4  A    between atoms: C_5  and  C_13
    5  A    between atoms: C_7  and  N_24
    6  A    between atoms: C_7  and  C_49
    7  A    between atoms: C_8  and  O_22
    8  A    between atoms: C_10  and  C_31
    9  A    between atoms: C_13  and  C_49
   10  A    between atoms: C_16  and  C_55
   11  A    between atoms: C_19  and  O_22
   12  A    between atoms: C_31  and  C_34
   13  A    between atoms: C_50  and  C_53
   14  A    between atoms: C_51  and  C_56
                            x       y       z     vdW  Elec       q    Type
                         _______ _______ _______ _____ _____    ______ ____

>  <TORSDO>
F 14

$$$$
=
 OpenBabel11042410583D

 56 63  0  0  1  0  0  0  0  0999 V2000
  185.5870  178.7370  139.5980 C   0  0  0  0  0  0  0  0  0  0  0  0
  185.2120  179.3710  140.9060 C   0  0  0  0  0  2  0  0  0  0  0  0
  186.8100  178.2270  139.3780 C   0  0  0  0  0  3  0  0  0  0  0  0
  186.6550  178.1670  142.5810 C   0  0  1  0  0  3  0  0  0  0  0  0
  187.5230  177.3780  141.6110 C   0  0  0  0  0  2  0  0  0  0  0  0
  185.2390  178.3530  142.0380 C   0  0  0  0  0  2  0  0  0  0  0  0
  187.9030  178.2390  140.4050 C   0  0  1  0  0  3  0  0  0  0  0  0
  191.1700  176.2860  138.3320 O   0  0  0  0  0  0  0  0  0  0  0  0
  190.0880  177.0330  137.8460 C   0  0  2  0  0  3  0  0  0  0  0  0
  188.9940  176.9000  138.7140 O   0  0  0  0  0  0  0  0  0  0  0  0
  191.6160  177.2370  140.5140 C   0  0  0  0  0  2  0  0  0  0  0  0
  190.1180  177.1370  140.8330 C   0  0  0  0  0  2  0  0  0  0  0  0
  191.9590  177.2130  139.0210 C   0  0  0  0  0  2  0  0  0  0  0  0
  189.2220  177.7930  139.7760 C   0  0  2  0  0  3  0  0  0  0  0  0
  188.3070  176.0530  136.4760 C   0  0  2  0  0  3  0  0  0  0  0  0
  188.6370  177.3190  135.9690 O   0  0  0  0  0  0  0  0  0  0  0  0
  189.7020  176.5430  136.4630 C   0  0  1  0  0  3  0  0  0  0  0  0
  188.0910  175.0950  135.3240 C   0  0  0  0  0  2  0  0  0  0  0  0
  187.3830  173.8460  135.8160 C   0  0  0  0  0  2  0  0  0  0  0  0
  186.8480  174.0600  137.2240 C   0  0  0  0  0  2  0  0  0  0  0  0
  185.7910  173.1070  137.5210 N   0  0  0  0  0  2  0  0  0  0  0  0
  185.7120  172.1880  136.3990 C   0  0  0  0  0  1  0  0  0  0  0  0
  186.6010  177.4800  143.8230 O   0  0  0  0  0  0  0  0  0  0  0  0
  188.8020  177.0340  144.4150 N   0  0  0  0  0  0  0  0  0  0  0  0
  188.7790  176.5970  147.1820 O   0  0  0  0  0  0  0  0  0  0  0  0
  189.8590  177.3400  146.6830 C   0  0  2  0  0  3  0  0  0  0  0  0
  187.4450  178.1440  145.9850 O   0  0  0  0  0  0  0  0  0  0  0  0
  190.8670  178.1030  144.6500 O   0  0  0  0  0  1  0  0  0  0  0  0
  187.6440  177.4340  147.2090 C   0  0  2  0  0  3  0  0  0  0  0  0
  190.0520  177.1020  145.1810 C   0  0  2  0  0  3  0  0  0  0  0  0
  187.6480  177.5410  144.7410 C   0  0  0  0  0  0  0  0  0  0  0  0
  187.6720  178.3890  148.3920 C   0  0  0  0  0  1  0  0  0  0  0  0
  191.1300  177.0430  147.4810 C   0  0  0  0  0  2  0  0  0  0  0  0
  191.3580  174.6740  148.1420 F   0  0  0  0  0  0  0  0  0  0  0  0
  192.3310  175.4070  146.2720 O   0  0  0  0  0  0  0  0  0  0  0  0
  191.6430  175.6560  147.2480 C   0  0  0  0  0  0  0  0  0  0  0  0
  184.5510  178.6710  138.5230 C   0  0  0  0  0  2  0  0  0  0  0  0
  181.4740  175.7540  139.4350 C   0  0  2  0  0  3  0  0  0  0  0  0
  182.1740  175.1240  140.4480 F   0  0  0  0  0  0  0  0  0  0  0  0
  183.2470  176.5070  137.8080 C   0  0  0  0  0  0  0  0  0  0  0  0
  182.2240  178.0650  139.4990 C   0  0  0  0  0  0  0  0  0  0  0  0
  185.0840  177.1950  136.1490 C   0  0  0  0  0  1  0  0  0  0  0  0
  182.2170  175.5940  138.1350 C   0  0  0  0  0  0  0  0  0  0  0  0
  180.9250  173.6490  137.6070 F   0  0  0  0  0  0  0  0  0  0  0  0
  183.6400  175.2460  135.7580 C   0  0  0  0  0  3  0  0  0  0  0  0
  181.3120  177.1740  139.7600 N   0  0  0  0  0  0  0  0  0  0  0  0
  181.9110  174.5250  137.2830 C   0  0  0  0  0  0  0  0  0  0  0  0
  182.3250  173.3290  135.2630 F   0  0  0  0  0  0  0  0  0  0  0  0
  183.9680  176.3140  136.5980 C   0  0  0  0  0  0  0  0  0  0  0  0
  182.6190  174.3580  136.0930 C   0  0  0  0  0  0  0  0  0  0  0  0
  183.5140  177.5980  138.8370 C   0  0  2  0  0  3  0  0  0  0  0  0
  181.9550  179.3950  139.8490 O   0  0  0  0  0  0  0  0  0  0  0  0
  180.9680  180.1990  139.2260 C   0  0  2  0  0  3  0  0  0  0  0  0
  180.9810  181.6470  137.2340 C   0  0  0  0  0  2  0  0  0  0  0  0
  181.2100  180.2330  137.7310 C   0  0  1  0  0  3  0  0  0  0  0  0
  181.6300  181.4010  138.5810 C   0  0  2  0  0  3  0  0  0  0  0  0
  1  2  1  0  0  0  0
  2  6  1  0  0  0  0
  3  1  2  0  0  0  0
  4 23  1  1  0  0  0
  5  4  1  0  0  0  0
  6  4  1  0  0  0  0
  7  3  1  6  0  0  0
  7  5  1  0  0  0  0
  8 13  1  0  0  0  0
  9  8  1  1  0  0  0
  9 10  1  0  0  0  0
 10 14  1  0  0  0  0
 11 12  1  0  0  0  0
 13 11  1  0  0  0  0
 14  7  1  0  0  0  0
 14 12  1  1  0  0  0
 15 18  1  6  0  0  0
 16 15  1  0  0  0  0
 17 16  1  6  0  0  0
 17 15  1  0  0  0  0
 17  9  1  0  0  0  0
 18 19  1  0  0  0  0
 19 20  1  0  0  0  0
 20 21  1  0  0  0  0
 22 21  1  0  0  0  0
 23 31  1  0  0  0  0
 24 31  2  0  0  0  0
 24 30  1  0  0  0  0
 25 29  1  0  0  0  0
 26 25  1  0  0  0  0
 26 33  1  1  0  0  0
 27 29  1  0  0  0  0
 29 32  1  1  0  0  0
 30 28  1  6  0  0  0
 30 26  1  0  0  0  0
 31 27  1  0  0  0  0
 35 36  2  0  0  0  0
 36 33  1  0  0  0  0
 36 34  1  0  0  0  0
 37  1  1  0  0  0  0
 38 46  1  0  0  0  0
 38 39  1  1  0  0  0
 40 43  1  0  0  0  0
 40 51  1  0  0  0  0
 41 46  2  0  0  0  0
 41 52  1  0  0  0  0
 42 49  1  0  0  0  0
 43 38  1  0  0  0  0
 45 50  2  0  0  0  0
 45 49  1  0  0  0  0
 47 44  1  0  0  0  0
 47 43  2  0  0  0  0
 48 50  1  0  0  0  0
 49 40  2  0  0  0  0
 50 47  1  0  0  0  0
 51 37  1  6  0  0  0
 51 41  1  0  0  0  0
 53 52  1  1  0  0  0
 55 54  1  6  0  0  0
 55 56  1  0  0  0  0
 55 53  1  0  0  0  0
 56 54  1  6  0  0  0
 56 53  1  0  0  0  0
M  END
>  <MODEL>
3

>  <REMARK>
 VINA RESULT:      -7.7      3.429      9.286
  Name = 
  14 active torsions:
  status: ('A' for Active; 'I' for Inactive)
    1  A    between atoms: O_1  and  C_37
    2  A    between atoms: O_1  and  C_52
    3  A    between atoms: C_3  and  C_53
    4  A    between atoms: C_5  and  C_13
    5  A    between atoms: C_7  and  N_24
    6  A    between atoms: C_7  and  C_49
    7  A    between atoms: C_8  and  O_22
    8  A    between atoms: C_10  and  C_31
    9  A    between atoms: C_13  and  C_49
   10  A    between atoms: C_16  and  C_55
   11  A    between atoms: C_19  and  O_22
   12  A    between atoms: C_31  and  C_34
   13  A    between atoms: C_50  and  C_53
   14  A    between atoms: C_51  and  C_56
                            x       y       z     vdW  Elec       q    Type
                         _______ _______ _______ _____ _____    ______ ____

>  <TORSDO>
F 14

$$$$
=
 OpenBabel11042410583D

 56 63  0  0  1  0  0  0  0  0999 V2000
  184.7090  178.3130  140.4710 C   0  0  0  0  0  0  0  0  0  0  0  0
  183.3990  177.6680  140.8190 C   0  0  0  0  0  2  0  0  0  0  0  0
  185.2620  178.1900  139.2530 C   0  0  0  0  0  3  0  0  0  0  0  0
  182.1760  177.5900  138.6210 C   0  0  1  0  0  3  0  0  0  0  0  0
  183.3080  178.0460  137.7120 C   0  0  0  0  0  2  0  0  0  0  0  0
  182.2610  178.2530  139.9940 C   0  0  0  0  0  2  0  0  0  0  0  0
  184.6320  177.4100  138.1380 C   0  0  1  0  0  3  0  0  0  0  0  0
  187.8820  176.5680  135.3970 O   0  0  0  0  0  0  0  0  0  0  0  0
  186.8350  175.7580  135.8590 C   0  0  2  0  0  3  0  0  0  0  0  0
  186.4520  176.1670  137.1440 O   0  0  0  0  0  0  0  0  0  0  0  0
  186.9510  178.8040  135.4040 C   0  0  0  0  0  2  0  0  0  0  0  0
  186.4410  178.5570  136.8300 C   0  0  0  0  0  2  0  0  0  0  0  0
  187.2580  177.5340  134.6020 C   0  0  0  0  0  2  0  0  0  0  0  0
  185.6080  177.2780  136.9690 C   0  0  2  0  0  3  0  0  0  0  0  0
  188.4110  174.1590  136.8420 C   0  0  2  0  0  3  0  0  0  0  0  0
  187.1010  173.7970  137.1970 O   0  0  0  0  0  0  0  0  0  0  0  0
  187.2820  174.3080  135.8990 C   0  0  1  0  0  3  0  0  0  0  0  0
  189.1990  172.9110  136.5030 C   0  0  0  0  0  2  0  0  0  0  0  0
  190.6860  173.2150  136.5340 C   0  0  0  0  0  2  0  0  0  0  0  0
  191.1790  173.5920  135.1450 C   0  0  0  0  0  2  0  0  0  0  0  0
  192.5660  174.0230  135.1950 N   0  0  0  0  0  2  0  0  0  0  0  0
  193.0970  173.6240  136.4860 C   0  0  0  0  0  1  0  0  0  0  0  0
  180.9330  177.9130  138.0140 O   0  0  0  0  0  0  0  0  0  0  0  0
  181.0260  179.6180  136.4400 N   0  0  0  0  0  0  0  0  0  0  0  0
  181.1100  182.0070  137.9020 O   0  0  0  0  0  0  0  0  0  0  0  0
  180.3080  182.0160  136.7510 C   0  0  2  0  0  3  0  0  0  0  0  0
  179.9020  180.0490  138.4630 O   0  0  0  0  0  0  0  0  0  0  0  0
  179.6890  180.6940  134.8530 O   0  0  0  0  0  1  0  0  0  0  0  0
  180.4230  181.3020  138.9120 C   0  0  2  0  0  3  0  0  0  0  0  0
  180.7080  180.8930  135.7850 C   0  0  2  0  0  3  0  0  0  0  0  0
  180.6280  179.2120  137.6110 C   0  0  0  0  0  0  0  0  0  0  0  0
  179.3300  182.1470  139.5490 C   0  0  0  0  0  1  0  0  0  0  0  0
  180.3430  183.3900  136.0810 C   0  0  0  0  0  2  0  0  0  0  0  0
  182.0200  184.7710  137.2570 F   0  0  0  0  0  0  0  0  0  0  0  0
  179.8450  185.1070  137.6270 O   0  0  0  0  0  0  0  0  0  0  0  0
  180.7110  184.4850  137.0350 C   0  0  0  0  0  0  0  0  0  0  0  0
  185.3990  179.1220  141.5210 C   0  0  0  0  0  2  0  0  0  0  0  0
  188.3470  176.7690  143.6610 C   0  0  2  0  0  3  0  0  0  0  0  0
  187.8170  175.5370  143.3210 F   0  0  0  0  0  0  0  0  0  0  0  0
  186.3490  178.2990  143.8260 C   0  0  0  0  0  0  0  0  0  0  0  0
  187.8180  178.2190  141.7840 C   0  0  0  0  0  0  0  0  0  0  0  0
  184.2780  179.8010  144.0470 C   0  0  0  0  0  1  0  0  0  0  0  0
  187.3460  177.5380  144.4820 C   0  0  0  0  0  0  0  0  0  0  0  0
  188.3390  176.7250  146.5020 F   0  0  0  0  0  0  0  0  0  0  0  0
  185.4470  178.9010  146.0100 C   0  0  0  0  0  3  0  0  0  0  0  0
  188.6870  177.5090  142.4440 N   0  0  0  0  0  0  0  0  0  0  0  0
  187.3840  177.4630  145.8800 C   0  0  0  0  0  0  0  0  0  0  0  0
  186.4730  178.0850  147.9940 F   0  0  0  0  0  0  0  0  0  0  0  0
  185.3850  178.9810  144.6170 C   0  0  0  0  0  0  0  0  0  0  0  0
  186.4380  178.1500  146.6410 C   0  0  0  0  0  0  0  0  0  0  0  0
  186.3860  178.2630  142.3030 C   0  0  2  0  0  3  0  0  0  0  0  0
  188.2600  178.8900  140.6360 O   0  0  0  0  0  0  0  0  0  0  0  0
  188.3010  178.3130  139.3420 C   0  0  2  0  0  3  0  0  0  0  0  0
  190.0780  177.2130  138.0400 C   0  0  0  0  0  2  0  0  0  0  0  0
  189.2840  177.1610  139.3310 C   0  0  1  0  0  3  0  0  0  0  0  0
  189.6870  178.4910  138.7550 C   0  0  2  0  0  3  0  0  0  0  0  0
  1  2  1  0  0  0  0
  1 37  1  0  0  0  0
  3  1  2  0  0  0  0
  4 23  1  6  0  0  0
  4  6  1  0  0  0  0
  5  4  1  0  0  0  0
  6  2  1  0  0  0  0
  7  5  1  6  0  0  0
  7  3  1  0  0  0  0
  9  8  1  1  0  0  0
  9 17  1  0  0  0  0
  9 10  1  0  0  0  0
 11 12  1  0  0  0  0
 13  8  1  0  0  0  0
 13 11  1  0  0  0  0
 14 12  1  1  0  0  0
 14 10  1  0  0  0  0
 14  7  1  0  0  0  0
 15 18  1  6  0  0  0
 15 16  1  0  0  0  0
 17 15  1  0  0  0  0
 17 16  1  1  0  0  0
 18 19  1  0  0  0  0
 20 21  1  0  0  0  0
 20 19  1  0  0  0  0
 21 22  1  0  0  0  0
 24 31  2  0  0  0  0
 25 29  1  0  0  0  0
 26 33  1  6  0  0  0
 26 25  1  0  0  0  0
 27 29  1  0  0  0  0
 29 32  1  6  0  0  0
 30 28  1  6  0  0  0
 30 24  1  0  0  0  0
 30 26  1  0  0  0  0
 31 23  1  0  0  0  0
 31 27  1  0  0  0  0
 33 36  1  0  0  0  0
 36 34  1  0  0  0  0
 36 35  2  0  0  0  0
 38 39  1  6  0  0  0
 38 43  1  0  0  0  0
 40 43  2  0  0  0  0
 40 49  1  0  0  0  0
 41 51  1  0  0  0  0
 41 46  2  0  0  0  0
 42 49  1  0  0  0  0
 43 47  1  0  0  0  0
 45 50  1  0  0  0  0
 46 38  1  0  0  0  0
 47 44  1  0  0  0  0
 47 50  2  0  0  0  0
 49 45  2  0  0  0  0
 50 48  1  0  0  0  0
 51 37  1  6  0  0  0
 51 40  1  0  0  0  0
 52 41  1  0  0  0  0
 53 52  1  1  0  0  0
 55 54  1  6  0  0  0
 55 53  1  0  0  0  0
 56 54  1  6  0  0  0
 56 55  1  0  0  0  0
 56 53  1  0  0  0  0
M  END
>  <MODEL>
4

>  <REMARK>
 VINA RESULT:      -7.7      2.116      3.169
  Name = 
  14 active torsions:
  status: ('A' for Active; 'I' for Inactive)
    1  A    between atoms: O_1  and  C_37
    2  A    between atoms: O_1  and  C_52
    3  A    between atoms: C_3  and  C_53
    4  A    between atoms: C_5  and  C_13
    5  A    between atoms: C_7  and  N_24
    6  A    between atoms: C_7  and  C_49
    7  A    between atoms: C_8  and  O_22
    8  A    between atoms: C_10  and  C_31
    9  A    between atoms: C_13  and  C_49
   10  A    between atoms: C_16  and  C_55
   11  A    between atoms: C_19  and  O_22
   12  A    between atoms: C_31  and  C_34
   13  A    between atoms: C_50  and  C_53
   14  A    between atoms: C_51  and  C_56
                            x       y       z     vdW  Elec       q    Type
                         _______ _______ _______ _____ _____    ______ ____

>  <TORSDO>
F 14

$$$$
=
 OpenBabel11042410583D

 56 63  0  0  1  0  0  0  0  0999 V2000
  190.0650  176.8420  141.6910 C   0  0  0  0  0  0  0  0  0  0  0  0
  191.4180  177.4600  141.8880 C   0  0  0  0  0  2  0  0  0  0  0  0
  189.3850  176.9650  140.5390 C   0  0  0  0  0  3  0  0  0  0  0  0
  192.3970  177.4910  139.5690 C   0  0  1  0  0  3  0  0  0  0  0  0
  191.1640  177.0520  138.7930 C   0  0  0  0  0  2  0  0  0  0  0  0
  192.4470  176.8420  140.9510 C   0  0  0  0  0  2  0  0  0  0  0  0
  189.9070  177.7220  139.3530 C   0  0  1  0  0  3  0  0  0  0  0  0
  186.4150  177.4670  136.7980 O   0  0  0  0  0  0  0  0  0  0  0  0
  186.5820  178.0190  138.0760 C   0  0  2  0  0  3  0  0  0  0  0  0
  187.5970  177.3330  138.7590 O   0  0  0  0  0  0  0  0  0  0  0  0
  188.5780  177.7490  135.7440 C   0  0  0  0  0  2  0  0  0  0  0  0
  189.2360  177.1630  137.0000 C   0  0  0  0  0  2  0  0  0  0  0  0
  187.1620  178.2970  135.9550 C   0  0  0  0  0  2  0  0  0  0  0  0
  188.8140  177.8640  138.2960 C   0  0  2  0  0  3  0  0  0  0  0  0
  184.5090  179.1650  138.7060 C   0  0  2  0  0  3  0  0  0  0  0  0
  184.1950  178.0110  137.9700 O   0  0  0  0  0  0  0  0  0  0  0  0
  185.2840  177.9160  138.8560 C   0  0  1  0  0  3  0  0  0  0  0  0
  183.5340  179.3040  139.8560 C   0  0  0  0  0  2  0  0  0  0  0  0
  182.1480  179.6150  139.3240 C   0  0  0  0  0  2  0  0  0  0  0  0
  181.1040  179.4140  140.4130 C   0  0  0  0  0  2  0  0  0  0  0  0
  181.2490  178.1040  141.0240 N   0  0  0  0  0  2  0  0  0  0  0  0
  180.3840  177.1910  140.2980 C   0  0  0  0  0  1  0  0  0  0  0  0
  193.5590  177.1360  138.8350 O   0  0  0  0  0  0  0  0  0  0  0  0
  194.9320  175.3350  138.3180 N   0  0  0  0  0  0  0  0  0  0  0  0
  193.8300  174.1630  136.0250 O   0  0  0  0  0  0  0  0  0  0  0  0
  194.3100  173.2770  137.0010 C   0  0  2  0  0  3  0  0  0  0  0  0
  192.6390  175.1480  137.8190 O   0  0  0  0  0  0  0  0  0  0  0  0
  195.4830  173.1970  139.0870 O   0  0  0  0  0  1  0  0  0  0  0  0
  192.5950  174.6800  136.4700 C   0  0  2  0  0  3  0  0  0  0  0  0
  195.3090  173.9690  137.9370 C   0  0  2  0  0  3  0  0  0  0  0  0
  193.7380  175.8530  138.3190 C   0  0  0  0  0  0  0  0  0  0  0  0
  191.4620  173.6840  136.2780 C   0  0  0  0  0  1  0  0  0  0  0  0
  194.9040  172.0280  136.3470 C   0  0  0  0  0  2  0  0  0  0  0  0
  193.2200  170.2280  136.1950 F   0  0  0  0  0  0  0  0  0  0  0  0
  194.7080  170.2220  137.8580 O   0  0  0  0  0  0  0  0  0  0  0  0
  194.2810  170.7640  136.8510 C   0  0  0  0  0  0  0  0  0  0  0  0
  189.4760  176.0570  142.8190 C   0  0  0  0  0  2  0  0  0  0  0  0
  189.2690  178.3570  146.4900 C   0  0  2  0  0  3  0  0  0  0  0  0
  189.8110  179.5140  145.9610 F   0  0  0  0  0  0  0  0  0  0  0  0
  190.4080  176.4890  145.2350 C   0  0  0  0  0  0  0  0  0  0  0  0
  188.1040  177.3040  144.6350 C   0  0  0  0  0  0  0  0  0  0  0  0
  191.6440  174.6230  143.9760 C   0  0  0  0  0  1  0  0  0  0  0  0
  190.2880  177.2490  146.4220 C   0  0  0  0  0  0  0  0  0  0  0  0
  191.0130  177.7440  148.6490 F   0  0  0  0  0  0  0  0  0  0  0  0
  192.2290  175.2470  146.2770 C   0  0  0  0  0  3  0  0  0  0  0  0
  188.0650  177.9910  145.7410 N   0  0  0  0  0  0  0  0  0  0  0  0
  191.1300  177.0070  147.5150 C   0  0  0  0  0  0  0  0  0  0  0  0
  192.9090  175.7600  148.4980 F   0  0  0  0  0  0  0  0  0  0  0  0
  191.4060  175.4790  145.1730 C   0  0  0  0  0  0  0  0  0  0  0  0
  192.0940  176.0020  147.4420 C   0  0  0  0  0  0  0  0  0  0  0  0
  189.4670  176.8800  144.1020 C   0  0  2  0  0  3  0  0  0  0  0  0
  186.8870  177.0070  144.0090 O   0  0  0  0  0  0  0  0  0  0  0  0
  186.1690  177.9160  143.1910 C   0  0  2  0  0  3  0  0  0  0  0  0
  184.1970  179.3390  143.5760 C   0  0  0  0  0  2  0  0  0  0  0  0
  185.6060  179.0330  144.0450 C   0  0  1  0  0  3  0  0  0  0  0  0
  184.7080  177.9130  143.5960 C   0  0  2  0  0  3  0  0  0  0  0  0
  1  2  1  0  0  0  0
  1 37  1  0  0  0  0
  3  1  2  0  0  0  0
  4 23  1  6  0  0  0
  4  6  1  0  0  0  0
  5  4  1  0  0  0  0
  6  2  1  0  0  0  0
  7  5  1  6  0  0  0
  7  3  1  0  0  0  0
  9  8  1  6  0  0  0
  9 10  1  0  0  0  0
  9 17  1  0  0  0  0
 11 13  1  0  0  0  0
 11 12  1  0  0  0  0
 13  8  1  0  0  0  0
 14 12  1  6  0  0  0
 14 10  1  0  0  0  0
 14  7  1  0  0  0  0
 15 17  1  0  0  0  0
 15 18  1  1  0  0  0
 16 15  1  0  0  0  0
 17 16  1  6  0  0  0
 19 18  1  0  0  0  0
 19 20  1  0  0  0  0
 20 21  1  0  0  0  0
 22 21  1  0  0  0  0
 24 31  2  0  0  0  0
 25 29  1  0  0  0  0
 25 26  1  0  0  0  0
 26 33  1  6  0  0  0
 26 30  1  0  0  0  0
 27 31  1  0  0  0  0
 29 32  1  1  0  0  0
 29 27  1  0  0  0  0
 30 24  1  0  0  0  0
 30 28  1  1  0  0  0
 31 23  1  0  0  0  0
 33 36  1  0  0  0  0
 34 36  1  0  0  0  0
 36 35  2  0  0  0  0
 38 39  1  6  0  0  0
 40 43  1  0  0  0  0
 41 46  2  0  0  0  0
 42 49  1  0  0  0  0
 43 38  1  0  0  0  0
 43 47  2  0  0  0  0
 45 50  2  0  0  0  0
 46 38  1  0  0  0  0
 47 44  1  0  0  0  0
 49 40  2  0  0  0  0
 49 45  1  0  0  0  0
 50 47  1  0  0  0  0
 50 48  1  0  0  0  0
 51 37  1  6  0  0  0
 51 41  1  0  0  0  0
 51 40  1  0  0  0  0
 52 41  1  0  0  0  0
 53 56  1  0  0  0  0
 53 52  1  1  0  0  0
 53 55  1  0  0  0  0
 55 54  1  6  0  0  0
 56 54  1  6  0  0  0
 56 55  1  0  0  0  0
M  END
>  <MODEL>
5

>  <REMARK>
 VINA RESULT:      -7.0      4.390      9.931
  Name = 
  14 active torsions:
  status: ('A' for Active; 'I' for Inactive)
    1  A    between atoms: O_1  and  C_37
    2  A    between atoms: O_1  and  C_52
    3  A    between atoms: C_3  and  C_53
    4  A    between atoms: C_5  and  C_13
    5  A    between atoms: C_7  and  N_24
    6  A    between atoms: C_7  and  C_49
    7  A    between atoms: C_8  and  O_22
    8  A    between atoms: C_10  and  C_31
    9  A    between atoms: C_13  and  C_49
   10  A    between atoms: C_16  and  C_55
   11  A    between atoms: C_19  and  O_22
   12  A    between atoms: C_31  and  C_34
   13  A    between atoms: C_50  and  C_53
   14  A    between atoms: C_51  and  C_56
                            x       y       z     vdW  Elec       q    Type
                         _______ _______ _______ _____ _____    ______ ____

>  <TORSDO>
F 14

$$$$
=
 OpenBabel11042410583D

 56 63  0  0  1  0  0  0  0  0999 V2000
  185.3850  178.5530  139.0270 C   0  0  0  0  0  0  0  0  0  0  0  0
  184.5430  179.4240  139.9130 C   0  0  0  0  0  2  0  0  0  0  0  0
  186.6270  178.1740  139.3710 C   0  0  0  0  0  3  0  0  0  0  0  0
  185.3460  178.8590  142.2310 C   0  0  1  0  0  3  0  0  0  0  0  0
  186.5350  177.9860  141.8560 C   0  0  0  0  0  2  0  0  0  0  0  0
  184.2090  178.7180  141.2210 C   0  0  0  0  0  2  0  0  0  0  0  0
  187.2820  178.5780  140.6590 C   0  0  1  0  0  3  0  0  0  0  0  0
  191.1650  176.6950  140.2540 O   0  0  0  0  0  0  0  0  0  0  0  0
  190.3400  177.3170  139.3060 C   0  0  2  0  0  3  0  0  0  0  0  0
  188.9970  177.1800  139.6860 O   0  0  0  0  0  0  0  0  0  0  0  0
  190.6780  177.8620  142.3200 C   0  0  0  0  0  2  0  0  0  0  0  0
  189.1800  177.6810  142.0360 C   0  0  0  0  0  2  0  0  0  0  0  0
  191.5850  177.7340  141.0920 C   0  0  0  0  0  2  0  0  0  0  0  0
  188.7560  178.1760  140.6490 C   0  0  2  0  0  3  0  0  0  0  0  0
  191.7220  175.7800  137.9880 C   0  0  2  0  0  3  0  0  0  0  0  0
  190.4100  175.2850  138.0500 O   0  0  0  0  0  0  0  0  0  0  0  0
  190.5510  176.6810  137.9440 C   0  0  1  0  0  3  0  0  0  0  0  0
  192.2650  175.5790  136.5890 C   0  0  0  0  0  2  0  0  0  0  0  0
  193.7760  175.4400  136.6360 C   0  0  0  0  0  2  0  0  0  0  0  0
  194.1790  173.9810  136.4880 C   0  0  0  0  0  2  0  0  0  0  0  0
  194.6080  173.4370  137.7660 N   0  0  0  0  0  2  0  0  0  0  0  0
  195.3660  174.4740  138.4440 C   0  0  0  0  0  1  0  0  0  0  0  0
  184.8840  178.4860  143.5210 O   0  0  0  0  0  0  0  0  0  0  0  0
  186.4290  177.1640  144.6420 N   0  0  0  0  0  0  0  0  0  0  0  0
  186.1090  177.7470  147.3630 O   0  0  0  0  0  0  0  0  0  0  0  0
  187.4300  177.5890  146.9170 C   0  0  2  0  0  3  0  0  0  0  0  0
  185.9140  179.2700  145.5600 O   0  0  0  0  0  0  0  0  0  0  0  0
  188.7310  176.9780  145.0030 O   0  0  0  0  0  1  0  0  0  0  0  0
  185.6500  179.0130  146.9410 C   0  0  2  0  0  3  0  0  0  0  0  0
  187.4820  176.8050  145.6000 C   0  0  2  0  0  3  0  0  0  0  0  0
  185.7620  178.2800  144.5840 C   0  0  0  0  0  0  0  0  0  0  0  0
  186.1940  180.1330  147.8140 C   0  0  0  0  0  1  0  0  0  0  0  0
  188.2900  176.9450  148.0050 C   0  0  0  0  0  2  0  0  0  0  0  0
  189.8240  178.6600  148.9040 F   0  0  0  0  0  0  0  0  0  0  0  0
  190.5870  177.1220  147.4770 O   0  0  0  0  0  0  0  0  0  0  0  0
  189.6460  177.5710  148.1110 C   0  0  0  0  0  0  0  0  0  0  0  0
  184.8030  178.0940  137.7290 C   0  0  0  0  0  2  0  0  0  0  0  0
  181.4770  175.3730  138.3140 C   0  0  2  0  0  3  0  0  0  0  0  0
  181.6340  175.2510  139.6820 F   0  0  0  0  0  0  0  0  0  0  0  0
  183.8180  175.6780  137.4280 C   0  0  0  0  0  0  0  0  0  0  0  0
  182.2530  177.6150  137.7900 C   0  0  0  0  0  0  0  0  0  0  0  0
  186.2270  175.9200  136.5690 C   0  0  0  0  0  1  0  0  0  0  0  0
  182.6990  174.8340  137.6180 C   0  0  0  0  0  0  0  0  0  0  0  0
  181.6570  172.6910  137.3920 F   0  0  0  0  0  0  0  0  0  0  0  0
  184.9890  173.8060  136.3940 C   0  0  0  0  0  3  0  0  0  0  0  0
  181.2690  176.7810  137.9660 N   0  0  0  0  0  0  0  0  0  0  0  0
  182.7320  173.4970  137.2010 C   0  0  0  0  0  0  0  0  0  0  0  0
  183.9130  171.6980  136.1740 F   0  0  0  0  0  0  0  0  0  0  0  0
  184.9790  175.1400  136.8100 C   0  0  0  0  0  0  0  0  0  0  0  0
  183.8760  172.9890  136.5840 C   0  0  0  0  0  0  0  0  0  0  0  0
  183.6740  177.0970  137.9670 C   0  0  2  0  0  3  0  0  0  0  0  0
  181.9330  178.9380  137.4530 O   0  0  0  0  0  0  0  0  0  0  0  0
  181.1390  179.7940  138.2570 C   0  0  2  0  0  3  0  0  0  0  0  0
  180.7190  182.2200  138.2340 C   0  0  0  0  0  2  0  0  0  0  0  0
  180.6250  180.9460  137.4180 C   0  0  1  0  0  3  0  0  0  0  0  0
  181.7950  181.1590  138.3390 C   0  0  2  0  0  3  0  0  0  0  0  0
  1  3  2  0  0  0  0
  1  2  1  0  0  0  0
  2  6  1  0  0  0  0
  4 23  1  1  0  0  0
  5  4  1  0  0  0  0
  6  4  1  0  0  0  0
  7  3  1  6  0  0  0
  7  5  1  0  0  0  0
  8 13  1  0  0  0  0
  9 10  1  1  0  0  0
  9  8  1  0  0  0  0
 10 14  1  0  0  0  0
 12 11  1  0  0  0  0
 13 11  1  0  0  0  0
 14  7  1  0  0  0  0
 14 12  1  1  0  0  0
 15 18  1  6  0  0  0
 15 16  1  0  0  0  0
 17 15  1  0  0  0  0
 17 16  1  1  0  0  0
 17  9  1  0  0  0  0
 18 19  1  0  0  0  0
 20 19  1  0  0  0  0
 20 21  1  0  0  0  0
 21 22  1  0  0  0  0
 23 31  1  0  0  0  0
 24 30  1  0  0  0  0
 26 25  1  0  0  0  0
 26 33  1  1  0  0  0
 27 29  1  0  0  0  0
 29 25  1  0  0  0  0
 29 32  1  1  0  0  0
 30 28  1  6  0  0  0
 30 26  1  0  0  0  0
 31 24  2  0  0  0  0
 31 27  1  0  0  0  0
 33 36  1  0  0  0  0
 35 36  2  0  0  0  0
 36 34  1  0  0  0  0
 37  1  1  0  0  0  0
 38 39  1  1  0  0  0
 40 43  1  0  0  0  0
 40 51  1  0  0  0  0
 41 46  2  0  0  0  0
 41 51  1  0  0  0  0
 42 49  1  0  0  0  0
 43 38  1  0  0  0  0
 45 50  2  0  0  0  0
 45 49  1  0  0  0  0
 46 38  1  0  0  0  0
 47 44  1  0  0  0  0
 47 43  2  0  0  0  0
 48 50  1  0  0  0  0
 49 40  2  0  0  0  0
 50 47  1  0  0  0  0
 51 37  1  6  0  0  0
 52 41  1  0  0  0  0
 53 52  1  6  0  0  0
 53 56  1  0  0  0  0
 55 54  1  1  0  0  0
 55 53  1  0  0  0  0
 55 56  1  0  0  0  0
 56 54  1  1  0  0  0
M  END
>  <MODEL>
6

>  <REMARK>
 VINA RESULT:      -7.0      3.662      9.561
  Name = 
  14 active torsions:
  status: ('A' for Active; 'I' for Inactive)
    1  A    between atoms: O_1  and  C_37
    2  A    between atoms: O_1  and  C_52
    3  A    between atoms: C_3  and  C_53
    4  A    between atoms: C_5  and  C_13
    5  A    between atoms: C_7  and  N_24
    6  A    between atoms: C_7  and  C_49
    7  A    between atoms: C_8  and  O_22
    8  A    between atoms: C_10  and  C_31
    9  A    between atoms: C_13  and  C_49
   10  A    between atoms: C_16  and  C_55
   11  A    between atoms: C_19  and  O_22
   12  A    between atoms: C_31  and  C_34
   13  A    between atoms: C_50  and  C_53
   14  A    between atoms: C_51  and  C_56
                            x       y       z     vdW  Elec       q    Type
                         _______ _______ _______ _____ _____    ______ ____

>  <TORSDO>
F 14

$$$$
=
 OpenBabel11042410583D

 56 63  0  0  1  0  0  0  0  0999 V2000
  184.6990  176.4250  137.5040 C   0  0  0  0  0  0  0  0  0  0  0  0
  184.9940  177.8860  137.3310 C   0  0  0  0  0  2  0  0  0  0  0  0
  185.5950  175.4750  137.1910 C   0  0  0  0  0  3  0  0  0  0  0  0
  187.4890  178.0260  137.6320 C   0  0  1  0  0  3  0  0  0  0  0  0
  187.7980  176.5360  137.6790 C   0  0  0  0  0  2  0  0  0  0  0  0
  186.1250  178.3320  138.2480 C   0  0  0  0  0  2  0  0  0  0  0  0
  186.9600  175.7790  136.6470 C   0  0  1  0  0  3  0  0  0  0  0  0
  189.3420  172.6650  134.7980 O   0  0  0  0  0  0  0  0  0  0  0  0
  189.6740  173.6270  135.7630 C   0  0  2  0  0  3  0  0  0  0  0  0
  188.8820  174.7700  135.5820 O   0  0  0  0  0  0  0  0  0  0  0  0
  186.9930  172.2200  135.1870 C   0  0  0  0  0  2  0  0  0  0  0  0
  186.7380  173.7330  135.2090 C   0  0  0  0  0  2  0  0  0  0  0  0
  188.4460  171.8080  135.4470 C   0  0  0  0  0  2  0  0  0  0  0  0
  187.6430  174.4920  136.1870 C   0  0  2  0  0  3  0  0  0  0  0  0
  191.6440  174.4900  136.9370 C   0  0  2  0  0  3  0  0  0  0  0  0
  191.9050  173.1850  136.4930 O   0  0  0  0  0  0  0  0  0  0  0  0
  191.1390  173.9990  135.6380 C   0  0  1  0  0  3  0  0  0  0  0  0
  192.8730  175.3470  136.7170 C   0  0  0  0  0  2  0  0  0  0  0  0
  193.7030  175.3950  137.9870 C   0  0  0  0  0  2  0  0  0  0  0  0
  194.9500  174.5370  137.8380 C   0  0  0  0  0  2  0  0  0  0  0  0
  195.9120  175.1800  136.9580 N   0  0  0  0  0  2  0  0  0  0  0  0
  196.3480  174.1850  135.9940 C   0  0  0  0  0  1  0  0  0  0  0  0
  188.4980  178.7320  138.3380 O   0  0  0  0  0  0  0  0  0  0  0  0
  190.1020  177.4950  139.4740 N   0  0  0  0  0  0  0  0  0  0  0  0
  188.8100  176.4510  141.7300 O   0  0  0  0  0  0  0  0  0  0  0  0
  190.1200  176.9150  141.9280 C   0  0  2  0  0  3  0  0  0  0  0  0
  188.4410  178.5740  140.7470 O   0  0  0  0  0  0  0  0  0  0  0  0
  192.0280  177.7780  140.7680 O   0  0  0  0  0  1  0  0  0  0  0  0
  187.9560  177.5700  141.6420 C   0  0  2  0  0  3  0  0  0  0  0  0
  190.8900  176.9870  140.6030 C   0  0  2  0  0  3  0  0  0  0  0  0
  189.0400  178.2460  139.5270 C   0  0  0  0  0  0  0  0  0  0  0  0
  187.6550  178.1630  143.0090 C   0  0  0  0  0  1  0  0  0  0  0  0
  190.8420  176.0560  142.9670 C   0  0  0  0  0  2  0  0  0  0  0  0
  191.8990  176.2350  145.1930 F   0  0  0  0  0  0  0  0  0  0  0  0
  191.3260  178.0830  144.0810 O   0  0  0  0  0  0  0  0  0  0  0  0
  191.3760  176.8650  144.1090 C   0  0  0  0  0  0  0  0  0  0  0  0
  183.3650  176.0340  138.0540 C   0  0  0  0  0  2  0  0  0  0  0  0
  180.1780  178.6140  136.6420 C   0  0  2  0  0  3  0  0  0  0  0  0
  180.9790  179.3920  135.8260 F   0  0  0  0  0  0  0  0  0  0  0  0
  181.6700  177.9710  138.5710 C   0  0  0  0  0  0  0  0  0  0  0  0
  181.2240  176.4200  136.6400 C   0  0  0  0  0  0  0  0  0  0  0  0
  183.2080  177.3970  140.5460 C   0  0  0  0  0  1  0  0  0  0  0  0
  180.6160  178.7740  138.0750 C   0  0  0  0  0  0  0  0  0  0  0  0
  179.0000  180.5080  138.4030 F   0  0  0  0  0  0  0  0  0  0  0  0
  181.4720  179.1270  140.7090 C   0  0  0  0  0  3  0  0  0  0  0  0
  180.2740  177.2110  136.2310 N   0  0  0  0  0  0  0  0  0  0  0  0
  180.0060  179.7370  138.8880 C   0  0  0  0  0  0  0  0  0  0  0  0
  179.8420  180.8340  140.9990 F   0  0  0  0  0  0  0  0  0  0  0  0
  182.1000  178.1660  139.9120 C   0  0  0  0  0  0  0  0  0  0  0  0
  180.4310  179.9060  140.2060 C   0  0  0  0  0  0  0  0  0  0  0  0
  182.2810  176.9930  137.5750 C   0  0  2  0  0  3  0  0  0  0  0  0
  181.2090  175.0950  136.1850 O   0  0  0  0  0  0  0  0  0  0  0  0
  180.6960  174.0030  136.9300 C   0  0  2  0  0  3  0  0  0  0  0  0
  180.9470  171.5610  136.7360 C   0  0  0  0  0  2  0  0  0  0  0  0
  181.6970  172.8660  136.9190 C   0  0  1  0  0  3  0  0  0  0  0  0
  180.4990  172.8140  136.0100 C   0  0  2  0  0  3  0  0  0  0  0  0
  1 37  1  0  0  0  0
  2  1  1  0  0  0  0
  2  6  1  0  0  0  0
  3  1  2  0  0  0  0
  4  5  1  0  0  0  0
  4  6  1  0  0  0  0
  4 23  1  1  0  0  0
  7  3  1  1  0  0  0
  7  5  1  0  0  0  0
  8 13  1  0  0  0  0
  9  8  1  6  0  0  0
 10  9  1  0  0  0  0
 10 14  1  0  0  0  0
 11 12  1  0  0  0  0
 11 13  1  0  0  0  0
 14 12  1  6  0  0  0
 14  7  1  0  0  0  0
 15 18  1  6  0  0  0
 16 15  1  0  0  0  0
 17  9  1  0  0  0  0
 17 16  1  1  0  0  0
 17 15  1  0  0  0  0
 18 19  1  0  0  0  0
 20 19  1  0  0  0  0
 21 20  1  0  0  0  0
 22 21  1  0  0  0  0
 23 31  1  0  0  0  0
 24 31  2  0  0  0  0
 24 30  1  0  0  0  0
 25 26  1  0  0  0  0
 26 33  1  1  0  0  0
 27 29  1  0  0  0  0
 29 25  1  0  0  0  0
 29 32  1  1  0  0  0
 30 28  1  1  0  0  0
 30 26  1  0  0  0  0
 31 27  1  0  0  0  0
 33 36  1  0  0  0  0
 35 36  2  0  0  0  0
 36 34  1  0  0  0  0
 38 39  1  6  0  0  0
 38 43  1  0  0  0  0
 40 49  1  0  0  0  0
 41 51  1  0  0  0  0
 43 40  2  0  0  0  0
 43 47  1  0  0  0  0
 44 47  1  0  0  0  0
 46 41  2  0  0  0  0
 46 38  1  0  0  0  0
 47 50  2  0  0  0  0
 49 42  1  0  0  0  0
 49 45  2  0  0  0  0
 50 45  1  0  0  0  0
 50 48  1  0  0  0  0
 51 37  1  1  0  0  0
 51 40  1  0  0  0  0
 52 41  1  0  0  0  0
 53 52  1  6  0  0  0
 55 54  1  1  0  0  0
 55 53  1  0  0  0  0
 56 54  1  1  0  0  0
 56 55  1  0  0  0  0
 56 53  1  0  0  0  0
M  END
>  <MODEL>
7

>  <REMARK>
 VINA RESULT:      -7.0      3.347      9.415
  Name = 
  14 active torsions:
  status: ('A' for Active; 'I' for Inactive)
    1  A    between atoms: O_1  and  C_37
    2  A    between atoms: O_1  and  C_52
    3  A    between atoms: C_3  and  C_53
    4  A    between atoms: C_5  and  C_13
    5  A    between atoms: C_7  and  N_24
    6  A    between atoms: C_7  and  C_49
    7  A    between atoms: C_8  and  O_22
    8  A    between atoms: C_10  and  C_31
    9  A    between atoms: C_13  and  C_49
   10  A    between atoms: C_16  and  C_55
   11  A    between atoms: C_19  and  O_22
   12  A    between atoms: C_31  and  C_34
   13  A    between atoms: C_50  and  C_53
   14  A    between atoms: C_51  and  C_56
                            x       y       z     vdW  Elec       q    Type
                         _______ _______ _______ _____ _____    ______ ____

>  <TORSDO>
F 14

$$$$
=
 OpenBabel11042410583D

 56 63  0  0  1  0  0  0  0  0999 V2000
  190.3870  176.6710  141.7550 C   0  0  0  0  0  0  0  0  0  0  0  0
  191.7090  177.3690  141.8820 C   0  0  0  0  0  2  0  0  0  0  0  0
  189.6510  176.7360  140.6330 C   0  0  0  0  0  3  0  0  0  0  0  0
  192.5810  177.4180  139.5210 C   0  0  1  0  0  3  0  0  0  0  0  0
  191.3420  176.8960  138.8080 C   0  0  0  0  0  2  0  0  0  0  0  0
  192.7300  176.7960  140.9080 C   0  0  0  0  0  2  0  0  0  0  0  0
  190.0750  177.5020  139.4150 C   0  0  1  0  0  3  0  0  0  0  0  0
  187.3120  177.0960  136.1000 O   0  0  0  0  0  0  0  0  0  0  0  0
  187.5860  176.2440  137.1790 C   0  0  2  0  0  3  0  0  0  0  0  0
  188.9150  176.4170  137.5930 O   0  0  0  0  0  0  0  0  0  0  0  0
  187.7140  179.3170  136.9800 C   0  0  0  0  0  2  0  0  0  0  0  0
  189.0540  178.8220  137.5400 C   0  0  0  0  0  2  0  0  0  0  0  0
  186.6960  178.2110  136.6770 C   0  0  0  0  0  2  0  0  0  0  0  0
  188.9290  177.5640  138.4060 C   0  0  2  0  0  3  0  0  0  0  0  0
  185.9330  174.4580  136.8880 C   0  0  2  0  0  3  0  0  0  0  0  0
  186.5140  174.7580  135.6460 O   0  0  0  0  0  0  0  0  0  0  0  0
  187.3660  174.8010  136.7660 C   0  0  1  0  0  3  0  0  0  0  0  0
  185.7750  172.9580  137.0170 C   0  0  0  0  0  2  0  0  0  0  0  0
  184.4110  172.6290  137.5960 C   0  0  0  0  0  2  0  0  0  0  0  0
  183.3820  172.4930  136.4840 C   0  0  0  0  0  2  0  0  0  0  0  0
  182.2270  171.7400  136.9450 N   0  0  0  0  0  2  0  0  0  0  0  0
  181.5750  171.1870  135.7710 C   0  0  0  0  0  1  0  0  0  0  0  0
  193.7280  177.1180  138.7400 O   0  0  0  0  0  0  0  0  0  0  0  0
  195.0680  175.2560  138.3750 N   0  0  0  0  0  0  0  0  0  0  0  0
  194.3620  174.2870  135.8430 O   0  0  0  0  0  0  0  0  0  0  0  0
  194.5930  173.3190  136.8320 C   0  0  2  0  0  3  0  0  0  0  0  0
  192.9070  175.2550  137.4410 O   0  0  0  0  0  0  0  0  0  0  0  0
  195.3350  173.0470  139.0920 O   0  0  0  0  0  1  0  0  0  0  0  0
  193.0960  174.8640  136.0800 C   0  0  2  0  0  3  0  0  0  0  0  0
  195.4310  173.8890  137.9830 C   0  0  2  0  0  3  0  0  0  0  0  0
  193.9280  175.8550  138.1840 C   0  0  0  0  0  0  0  0  0  0  0  0
  191.9650  173.9610  135.6130 C   0  0  0  0  0  1  0  0  0  0  0  0
  195.2280  172.0680  136.2220 C   0  0  0  0  0  2  0  0  0  0  0  0
  193.3540  170.6530  135.4580 F   0  0  0  0  0  0  0  0  0  0  0  0
  194.5250  170.0680  137.2640 O   0  0  0  0  0  0  0  0  0  0  0  0
  194.3550  170.8590  136.3510 C   0  0  0  0  0  0  0  0  0  0  0  0
  189.8950  175.8720  142.9190 C   0  0  0  0  0  2  0  0  0  0  0  0
  189.3170  178.3250  146.4490 C   0  0  2  0  0  3  0  0  0  0  0  0
  189.8390  179.4830  145.9020 F   0  0  0  0  0  0  0  0  0  0  0  0
  190.6310  176.4620  145.3700 C   0  0  0  0  0  0  0  0  0  0  0  0
  188.3390  177.1300  144.5720 C   0  0  0  0  0  0  0  0  0  0  0  0
  192.0400  174.6050  144.2930 C   0  0  0  0  0  1  0  0  0  0  0  0
  190.3890  177.2690  146.5070 C   0  0  0  0  0  0  0  0  0  0  0  0
  190.9280  177.9020  148.7510 F   0  0  0  0  0  0  0  0  0  0  0  0
  192.4290  175.3640  146.5960 C   0  0  0  0  0  3  0  0  0  0  0  0
  188.1880  177.8640  145.6370 N   0  0  0  0  0  0  0  0  0  0  0  0
  191.1620  177.1200  147.6660 C   0  0  0  0  0  0  0  0  0  0  0  0
  192.9230  176.0120  148.8300 F   0  0  0  0  0  0  0  0  0  0  0  0
  191.6770  175.5020  145.4270 C   0  0  0  0  0  0  0  0  0  0  0  0
  192.1750  176.1630  147.7090 C   0  0  0  0  0  0  0  0  0  0  0  0
  189.7550  176.7520  144.1560 C   0  0  2  0  0  3  0  0  0  0  0  0
  187.1850  176.7430  143.8790 O   0  0  0  0  0  0  0  0  0  0  0  0
  186.5820  177.5060  142.8470 C   0  0  2  0  0  3  0  0  0  0  0  0
  184.9020  179.3060  142.8390 C   0  0  0  0  0  2  0  0  0  0  0  0
  186.2660  178.8950  143.3610 C   0  0  1  0  0  3  0  0  0  0  0  0
  185.1680  177.8720  143.2510 C   0  0  2  0  0  3  0  0  0  0  0  0
  1  2  1  0  0  0  0
  1 37  1  0  0  0  0
  3  1  2  0  0  0  0
  4 23  1  6  0  0  0
  4  6  1  0  0  0  0
  5  4  1  0  0  0  0
  6  2  1  0  0  0  0
  7  5  1  6  0  0  0
  7  3  1  0  0  0  0
  8 13  1  0  0  0  0
  9  8  1  6  0  0  0
  9 10  1  0  0  0  0
 10 14  1  0  0  0  0
 11 12  1  0  0  0  0
 13 11  1  0  0  0  0
 14 12  1  6  0  0  0
 14  7  1  0  0  0  0
 15 18  1  6  0  0  0
 16 15  1  0  0  0  0
 17 16  1  6  0  0  0
 17 15  1  0  0  0  0
 17  9  1  0  0  0  0
 18 19  1  0  0  0  0
 20 21  1  0  0  0  0
 20 19  1  0  0  0  0
 22 21  1  0  0  0  0
 25 29  1  0  0  0  0
 25 26  1  0  0  0  0
 26 33  1  6  0  0  0
 26 30  1  0  0  0  0
 27 31  1  0  0  0  0
 29 32  1  1  0  0  0
 29 27  1  0  0  0  0
 30 24  1  0  0  0  0
 30 28  1  1  0  0  0
 31 24  2  0  0  0  0
 31 23  1  0  0  0  0
 33 36  1  0  0  0  0
 34 36  1  0  0  0  0
 36 35  2  0  0  0  0
 38 39  1  6  0  0  0
 38 43  1  0  0  0  0
 40 49  2  0  0  0  0
 40 43  1  0  0  0  0
 41 46  2  0  0  0  0
 42 49  1  0  0  0  0
 43 47  2  0  0  0  0
 45 50  2  0  0  0  0
 46 38  1  0  0  0  0
 47 50  1  0  0  0  0
 47 44  1  0  0  0  0
 49 45  1  0  0  0  0
 50 48  1  0  0  0  0
 51 37  1  6  0  0  0
 51 41  1  0  0  0  0
 51 40  1  0  0  0  0
 52 41  1  0  0  0  0
 53 56  1  0  0  0  0
 53 55  1  0  0  0  0
 53 52  1  1  0  0  0
 55 54  1  6  0  0  0
 56 54  1  6  0  0  0
 56 55  1  0  0  0  0
M  END
>  <MODEL>
8

>  <REMARK>
 VINA RESULT:      -6.9      4.771      9.615
  Name = 
  14 active torsions:
  status: ('A' for Active; 'I' for Inactive)
    1  A    between atoms: O_1  and  C_37
    2  A    between atoms: O_1  and  C_52
    3  A    between atoms: C_3  and  C_53
    4  A    between atoms: C_5  and  C_13
    5  A    between atoms: C_7  and  N_24
    6  A    between atoms: C_7  and  C_49
    7  A    between atoms: C_8  and  O_22
    8  A    between atoms: C_10  and  C_31
    9  A    between atoms: C_13  and  C_49
   10  A    between atoms: C_16  and  C_55
   11  A    between atoms: C_19  and  O_22
   12  A    between atoms: C_31  and  C_34
   13  A    between atoms: C_50  and  C_53
   14  A    between atoms: C_51  and  C_56
                            x       y       z     vdW  Elec       q    Type
                         _______ _______ _______ _____ _____    ______ ____

>  <TORSDO>
F 14

$$$$
=
 OpenBabel11042410583D

 56 63  0  0  1  0  0  0  0  0999 V2000
  191.0110  175.9070  137.2030 C   0  0  0  0  0  0  0  0  0  0  0  0
  191.6980  175.6020  138.5020 C   0  0  0  0  0  2  0  0  0  0  0  0
  189.7340  176.3200  137.1520 C   0  0  0  0  0  3  0  0  0  0  0  0
  190.5490  177.1200  140.1490 C   0  0  1  0  0  3  0  0  0  0  0  0
  189.4400  177.6410  139.2460 C   0  0  0  0  0  2  0  0  0  0  0  0
  191.8300  176.8520  139.3620 C   0  0  0  0  0  2  0  0  0  0  0  0
  188.8830  176.5160  138.3720 C   0  0  1  0  0  3  0  0  0  0  0  0
  185.0840  177.1950  136.3990 O   0  0  0  0  0  0  0  0  0  0  0  0
  185.8330  176.0220  136.5750 C   0  0  2  0  0  3  0  0  0  0  0  0
  187.1970  176.3400  136.6480 O   0  0  0  0  0  0  0  0  0  0  0  0
  185.6060  178.5310  138.3500 C   0  0  0  0  0  2  0  0  0  0  0  0
  187.0960  178.2580  138.1030 C   0  0  0  0  0  2  0  0  0  0  0  0
  184.6510  177.5340  137.6850 C   0  0  0  0  0  2  0  0  0  0  0  0
  187.4310  176.7690  137.9670 C   0  0  2  0  0  3  0  0  0  0  0  0
  184.6560  174.0090  135.8210 C   0  0  2  0  0  3  0  0  0  0  0  0
  184.2310  175.1070  135.0560 O   0  0  0  0  0  0  0  0  0  0  0  0
  185.5930  175.0780  135.4120 C   0  0  1  0  0  3  0  0  0  0  0  0
  184.8260  172.8070  134.9150 C   0  0  0  0  0  2  0  0  0  0  0  0
  184.6350  171.5290  135.7120 C   0  0  0  0  0  2  0  0  0  0  0  0
  183.5070  171.6960  136.7190 C   0  0  0  0  0  2  0  0  0  0  0  0
  182.2350  171.3110  136.1300 N   0  0  0  0  0  2  0  0  0  0  0  0
  182.4490  170.0630  135.4190 C   0  0  0  0  0  1  0  0  0  0  0  0
  190.8080  178.0760  141.1670 O   0  0  0  0  0  0  0  0  0  0  0  0
  191.2320  177.3980  143.3470 N   0  0  0  0  0  0  0  0  0  0  0  0
  188.8140  176.3670  144.3150 O   0  0  0  0  0  0  0  0  0  0  0  0
  189.5570  177.1440  145.2150 C   0  0  2  0  0  3  0  0  0  0  0  0
  189.0780  178.2060  142.8470 O   0  0  0  0  0  0  0  0  0  0  0  0
  191.6490  178.2810  145.4710 O   0  0  0  0  0  1  0  0  0  0  0  0
  188.1860  177.2350  143.3970 C   0  0  2  0  0  3  0  0  0  0  0  0
  191.0290  177.2320  144.7910 C   0  0  2  0  0  3  0  0  0  0  0  0
  190.3880  177.8800  142.4810 C   0  0  0  0  0  0  0  0  0  0  0  0
  186.9600  177.9050  143.9990 C   0  0  0  0  0  1  0  0  0  0  0  0
  189.3990  176.6140  146.6410 C   0  0  0  0  0  2  0  0  0  0  0  0
  189.2140  178.0960  148.6080 F   0  0  0  0  0  0  0  0  0  0  0  0
  187.4540  177.7980  147.2700 O   0  0  0  0  0  0  0  0  0  0  0  0
  188.6210  177.5460  147.5180 C   0  0  0  0  0  0  0  0  0  0  0  0
  191.7910  175.7520  135.9380 C   0  0  0  0  0  2  0  0  0  0  0  0
  193.3960  171.7420  135.5400 C   0  0  2  0  0  3  0  0  0  0  0  0
  193.2990  171.4190  136.8810 F   0  0  0  0  0  0  0  0  0  0  0  0
  193.8800  174.2170  135.5160 C   0  0  0  0  0  0  0  0  0  0  0  0
  191.5700  173.2930  135.1350 C   0  0  0  0  0  0  0  0  0  0  0  0
  194.4360  176.7240  135.5450 C   0  0  0  0  0  1  0  0  0  0  0  0
  194.3540  172.8920  135.3690 C   0  0  0  0  0  0  0  0  0  0  0  0
  196.1550  171.3670  134.9740 F   0  0  0  0  0  0  0  0  0  0  0  0
  196.1500  175.0160  135.1250 C   0  0  0  0  0  3  0  0  0  0  0  0
  192.0730  172.0980  135.0240 N   0  0  0  0  0  0  0  0  0  0  0  0
  195.7070  172.6410  135.1070 C   0  0  0  0  0  0  0  0  0  0  0  0
  197.9090  173.4690  134.7200 F   0  0  0  0  0  0  0  0  0  0  0  0
  194.8070  175.2880  135.3960 C   0  0  0  0  0  0  0  0  0  0  0  0
  196.6000  173.7050  134.9780 C   0  0  0  0  0  0  0  0  0  0  0  0
  192.3980  174.3560  135.8460 C   0  0  2  0  0  3  0  0  0  0  0  0
  190.2960  173.5180  134.5960 O   0  0  0  0  0  0  0  0  0  0  0  0
  189.1190  173.6720  135.3710 C   0  0  2  0  0  3  0  0  0  0  0  0
  187.9100  172.1840  136.9170 C   0  0  0  0  0  2  0  0  0  0  0  0
  189.2410  172.8600  136.6450 C   0  0  1  0  0  3  0  0  0  0  0  0
  188.4220  172.3320  135.4980 C   0  0  2  0  0  3  0  0  0  0  0  0
  1  2  1  0  0  0  0
  2  6  1  0  0  0  0
  3  1  2  0  0  0  0
  4 23  1  1  0  0  0
  5  4  1  0  0  0  0
  6  4  1  0  0  0  0
  7  3  1  6  0  0  0
  7  5  1  0  0  0  0
  8 13  1  0  0  0  0
  9  8  1  6  0  0  0
  9 10  1  0  0  0  0
 10 14  1  0  0  0  0
 12 11  1  0  0  0  0
 13 11  1  0  0  0  0
 14 12  1  6  0  0  0
 14  7  1  0  0  0  0
 15 18  1  6  0  0  0
 16 15  1  0  0  0  0
 17 16  1  6  0  0  0
 17 15  1  0  0  0  0
 17  9  1  0  0  0  0
 18 19  1  0  0  0  0
 19 20  1  0  0  0  0
 21 20  1  0  0  0  0
 22 21  1  0  0  0  0
 23 31  1  0  0  0  0
 24 30  1  0  0  0  0
 25 26  1  0  0  0  0
 26 33  1  1  0  0  0
 27 29  1  0  0  0  0
 29 32  1  1  0  0  0
 29 25  1  0  0  0  0
 30 26  1  0  0  0  0
 30 28  1  1  0  0  0
 31 27  1  0  0  0  0
 31 24  2  0  0  0  0
 33 36  1  0  0  0  0
 35 36  2  0  0  0  0
 36 34  1  0  0  0  0
 37  1  1  0  0  0  0
 38 39  1  1  0  0  0
 40 51  1  0  0  0  0
 41 51  1  0  0  0  0
 43 40  2  0  0  0  0
 43 38  1  0  0  0  0
 44 47  1  0  0  0  0
 45 49  2  0  0  0  0
 46 41  2  0  0  0  0
 46 38  1  0  0  0  0
 47 43  1  0  0  0  0
 48 50  1  0  0  0  0
 49 40  1  0  0  0  0
 49 42  1  0  0  0  0
 50 47  2  0  0  0  0
 50 45  1  0  0  0  0
 51 37  1  6  0  0  0
 52 41  1  0  0  0  0
 53 52  1  6  0  0  0
 53 56  1  0  0  0  0
 53 55  1  0  0  0  0
 55 54  1  1  0  0  0
 56 55  1  0  0  0  0
 56 54  1  1  0  0  0
M  END
>  <MODEL>
9

>  <REMARK>
 VINA RESULT:      -6.8      4.762      9.977
  Name = 
  14 active torsions:
  status: ('A' for Active; 'I' for Inactive)
    1  A    between atoms: O_1  and  C_37
    2  A    between atoms: O_1  and  C_52
    3  A    between atoms: C_3  and  C_53
    4  A    between atoms: C_5  and  C_13
    5  A    between atoms: C_7  and  N_24
    6  A    between atoms: C_7  and  C_49
    7  A    between atoms: C_8  and  O_22
    8  A    between atoms: C_10  and  C_31
    9  A    between atoms: C_13  and  C_49
   10  A    between atoms: C_16  and  C_55
   11  A    between atoms: C_19  and  O_22
   12  A    between atoms: C_31  and  C_34
   13  A    between atoms: C_50  and  C_53
   14  A    between atoms: C_51  and  C_56
                            x       y       z     vdW  Elec       q    Type
                         _______ _______ _______ _____ _____    ______ ____

>  <TORSDO>
F 14

$$$$
