=
 OpenBabel11032421083D

 50 54  0  0  1  0  0  0  0  0999 V2000
  191.3840  175.4980  136.1660 C   0  0  2  0  0  3  0  0  0  0  0  0
  189.8660  177.0550  138.6280 C   0  0  1  0  0  3  0  0  0  0  0  0
  194.2380  176.0410  136.1100 C   0  0  1  0  0  3  0  0  0  0  0  0
  192.8880  176.3470  138.0400 C   0  0  0  0  0  2  0  0  0  0  0  0
  186.5020  178.7200  134.5940 N   0  0  0  0  0  1  0  0  0  0  0  0
  187.0870  178.1870  138.1220 C   0  0  0  0  0  0  0  0  0  0  0  0
  189.3780  174.2900  135.5580 O   0  0  0  0  0  0  0  0  0  0  0  0
  189.9300  175.4060  135.7730 C   0  0  0  0  0  0  0  0  0  0  0  0
  195.6860  176.2370  135.7190 C   0  0  0  0  0  1  0  0  0  0  0  0
  191.8780  173.3610  134.7180 C   0  0  0  0  0  1  0  0  0  0  0  0
  192.3450  174.6070  135.3910 C   0  0  0  0  0  0  0  0  0  0  0  0
  189.1520  176.6620  135.7570 C   0  0  0  0  0  3  0  0  0  0  0  0
  193.6590  174.8750  135.3680 C   0  0  0  0  0  3  0  0  0  0  0  0
  187.3030  178.2130  135.6990 C   0  0  1  0  0  3  0  0  0  0  0  0
  191.6880  175.4600  137.6780 C   0  0  1  0  0  3  0  0  0  0  0  0
  188.6910  177.0850  139.6040 C   0  0  2  0  0  3  0  0  0  0  0  0
  190.7900  178.0650  138.9230 O   0  0  0  0  0  1  0  0  0  0  0  0
  194.1430  175.7850  137.5480 N   0  0  0  0  0  2  0  0  0  0  0  0
  186.4890  178.2080  136.9570 C   0  0  0  0  0  3  0  0  0  0  0  0
  187.8760  176.8410  135.4110 C   0  0  0  0  0  0  0  0  0  0  0  0
  187.7000  178.1620  139.2800 C   0  0  0  0  0  3  0  0  0  0  0  0
  190.5190  175.6680  138.6540 C   0  0  0  0  0  2  0  0  0  0  0  0
  185.8670  175.4520  135.3750 C   0  0  0  0  0  0  0  0  0  0  0  0
  187.0580  175.7180  134.9100 C   0  0  0  0  0  3  0  0  0  0  0  0
  181.9840  175.0700  136.9100 C   0  0  1  0  0  3  0  0  0  0  0  0
  183.5500  176.0290  135.2190 C   0  0  0  0  0  3  0  0  0  0  0  0
  184.6490  175.2490  135.8020 C   0  0  0  0  0  0  0  0  0  0  0  0
  183.1820  174.3640  137.5300 C   0  0  0  0  0  3  0  0  0  0  0  0
  182.3150  175.9500  135.7190 C   0  0  0  0  0  3  0  0  0  0  0  0
  184.4120  174.4440  137.0130 C   0  0  0  0  0  3  0  0  0  0  0  0
  181.2500  171.4290  135.5830 O   0  0  0  0  0  0  0  0  0  0  0  0
  181.6510  172.5340  134.8190 C   0  0  0  0  0  2  0  0  0  0  0  0
  180.9320  172.8090  137.5530 C   0  0  0  0  0  2  0  0  0  0  0  0
  181.7360  171.6820  136.8800 C   0  0  0  0  0  2  0  0  0  0  0  0
  180.7360  173.7140  135.1450 C   0  0  0  0  0  2  0  0  0  0  0  0
  180.8650  174.0540  136.6400 C   0  0  0  0  0  3  0  0  0  0  0  0
  189.1360  177.1260  140.9930 N   0  0  0  0  0  2  0  0  0  0  0  0
  187.0750  177.5300  142.0190 O   0  0  0  0  0  0  0  0  0  0  0  0
  188.3270  177.4660  142.1310 C   0  0  0  0  0  0  0  0  0  0  0  0
  188.1340  177.5200  144.5600 C   0  0  0  0  0  3  0  0  0  0  0  0
  190.3390  177.9980  143.6260 C   0  0  0  0  0  0  0  0  0  0  0  0
  188.9620  177.6650  143.4400 C   0  0  0  0  0  0  0  0  0  0  0  0
  189.9630  178.0670  146.0360 C   0  0  0  0  0  3  0  0  0  0  0  0
  190.8090  178.1980  144.9310 C   0  0  0  0  0  3  0  0  0  0  0  0
  188.6230  177.7170  145.8540 C   0  0  0  0  0  0  0  0  0  0  0  0
  186.3280  178.1320  146.6940 C   0  0  0  0  0  1  0  0  0  0  0  0
  187.6950  177.5600  147.0170 C   0  0  2  0  0  3  0  0  0  0  0  0
  188.2190  178.1920  148.1440 O   0  0  0  0  0  1  0  0  0  0  0  0
  191.2950  178.1330  142.6020 O   0  0  0  0  0  0  0  0  0  0  0  0
  192.0630  177.0860  142.0260 C   0  0  0  0  0  1  0  0  0  0  0  0
  1 11  1  6  0  0  0
  1 15  1  0  0  0  0
  2 22  1  0  0  0  0
  2 17  1  1  0  0  0
  2 16  1  0  0  0  0
  3  9  1  6  0  0  0
  3 18  1  0  0  0  0
  6 21  2  0  0  0  0
  7  8  2  0  0  0  0
  8  1  1  0  0  0  0
 10 11  1  0  0  0  0
 12  8  1  0  0  0  0
 13 11  2  0  0  0  0
 13  3  1  0  0  0  0
 14  5  1  6  0  0  0
 14 19  1  0  0  0  0
 15  4  1  6  0  0  0
 15 22  1  0  0  0  0
 16 37  1  1  0  0  0
 18  4  1  0  0  0  0
 19  6  2  0  0  0  0
 20 14  1  0  0  0  0
 20 12  2  0  0  0  0
 21 16  1  0  0  0  0
 23 27  2  0  0  0  0
 24 23  2  0  0  0  0
 24 20  1  0  0  0  0
 25 36  1  6  0  0  0
 25 28  1  0  0  0  0
 26 29  2  0  0  0  0
 26 27  1  0  0  0  0
 27 30  1  0  0  0  0
 29 25  1  0  0  0  0
 30 28  2  0  0  0  0
 31 34  1  0  0  0  0
 32 35  1  0  0  0  0
 32 31  1  0  0  0  0
 34 33  1  0  0  0  0
 35 36  1  0  0  0  0
 36 33  1  0  0  0  0
 37 39  1  0  0  0  0
 38 39  2  0  0  0  0
 39 42  1  0  0  0  0
 40 45  1  0  0  0  0
 41 44  2  0  0  0  0
 42 41  1  0  0  0  0
 42 40  2  0  0  0  0
 44 43  1  0  0  0  0
 45 43  2  0  0  0  0
 45 47  1  0  0  0  0
 47 46  1  6  0  0  0
 47 48  1  0  0  0  0
 49 41  1  0  0  0  0
 50 49  1  0  0  0  0
M  END
>  <MODEL>
1

>  <REMARK>
 VINA RESULT:      -8.6      0.000      0.000
  Name = 
  6 active torsions:
  status: ('A' for Active; 'I' for Inactive)
    1  A    between atoms: C_5  and  C_46
    2  A    between atoms: C_10  and  C_45
    3  A    between atoms: O_12  and  C_27
    4  A    between atoms: N_13  and  C_33
    5  A    between atoms: C_28  and  C_44
    6  A    between atoms: C_36  and  C_43
                            x       y       z     vdW  Elec       q    Type
                         _______ _______ _______ _____ _____    ______ ____

>  <TORSDO>
F 6

$$$$
=
 OpenBabel11032421083D

 50 54  0  0  1  0  0  0  0  0999 V2000
  188.9050  177.3050  140.0150 C   0  0  2  0  0  3  0  0  0  0  0  0
  190.7190  175.9370  137.6440 C   0  0  1  0  0  3  0  0  0  0  0  0
  189.8840  176.6490  142.6710 C   0  0  1  0  0  3  0  0  0  0  0  0
  191.2180  176.4940  140.7120 C   0  0  0  0  0  2  0  0  0  0  0  0
  185.8120  174.2010  135.8340 N   0  0  0  0  0  1  0  0  0  0  0  0
  189.2980  174.8900  135.1640 C   0  0  0  0  0  0  0  0  0  0  0  0
  187.5840  178.5590  138.4220 O   0  0  0  0  0  0  0  0  0  0  0  0
  188.0180  177.4340  138.8000 C   0  0  0  0  0  0  0  0  0  0  0  0
  190.0400  176.3760  144.1510 C   0  0  0  0  0  1  0  0  0  0  0  0
  187.6550  179.3450  141.1050 C   0  0  0  0  0  1  0  0  0  0  0  0
  188.4910  178.1170  141.2350 C   0  0  0  0  0  0  0  0  0  0  0  0
  187.7700  176.2100  138.0110 C   0  0  0  0  0  3  0  0  0  0  0  0
  188.9460  177.7970  142.4560 C   0  0  0  0  0  3  0  0  0  0  0  0
  187.1120  174.7320  136.2200 C   0  0  1  0  0  3  0  0  0  0  0  0
  190.4240  177.4080  139.7680 C   0  0  1  0  0  3  0  0  0  0  0  0
  191.2140  176.0020  136.2000 C   0  0  2  0  0  3  0  0  0  0  0  0
  191.3560  174.9080  138.3470 O   0  0  0  0  0  1  0  0  0  0  0  0
  191.1850  176.9810  142.0880 N   0  0  0  0  0  2  0  0  0  0  0  0
  187.9980  174.8320  135.0150 C   0  0  0  0  0  3  0  0  0  0  0  0
  187.0000  176.0640  136.9310 C   0  0  0  0  0  0  0  0  0  0  0  0
  190.5960  174.9490  135.3300 C   0  0  0  0  0  3  0  0  0  0  0  0
  190.9280  177.2960  138.3200 C   0  0  0  0  0  2  0  0  0  0  0  0
  185.0350  177.5140  136.8940 C   0  0  0  0  0  0  0  0  0  0  0  0
  186.2030  177.1910  136.4060 C   0  0  0  0  0  3  0  0  0  0  0  0
  181.4600  178.4280  138.8850 C   0  0  1  0  0  3  0  0  0  0  0  0
  183.9270  178.7190  138.6390 C   0  0  0  0  0  3  0  0  0  0  0  0
  183.9030  177.8660  137.4440 C   0  0  0  0  0  0  0  0  0  0  0  0
  181.5160  177.4720  137.7000 C   0  0  0  0  0  3  0  0  0  0  0  0
  182.8040  178.9890  139.3090 C   0  0  0  0  0  3  0  0  0  0  0  0
  182.6450  177.2190  137.0320 C   0  0  0  0  0  3  0  0  0  0  0  0
  180.7840  181.9060  137.1530 O   0  0  0  0  0  0  0  0  0  0  0  0
  181.5650  181.6770  138.2940 C   0  0  0  0  0  2  0  0  0  0  0  0
  179.9700  179.6200  137.1560 C   0  0  0  0  0  2  0  0  0  0  0  0
  180.8090  180.6940  136.4390 C   0  0  0  0  0  2  0  0  0  0  0  0
  180.7520  180.8460  139.2870 C   0  0  0  0  0  2  0  0  0  0  0  0
  180.3890  179.4990  138.6390 C   0  0  0  0  0  3  0  0  0  0  0  0
  192.6720  176.0150  136.1230 N   0  0  0  0  0  2  0  0  0  0  0  0
  192.9660  174.2690  134.5960 O   0  0  0  0  0  0  0  0  0  0  0  0
  193.4900  175.0680  135.4150 C   0  0  0  0  0  0  0  0  0  0  0  0
  195.5240  173.9190  136.1100 C   0  0  0  0  0  3  0  0  0  0  0  0
  195.7820  176.2080  135.3000 C   0  0  0  0  0  0  0  0  0  0  0  0
  194.9470  175.0890  135.5990 C   0  0  0  0  0  0  0  0  0  0  0  0
  197.7110  174.9390  136.0860 C   0  0  0  0  0  3  0  0  0  0  0  0
  197.1550  176.1080  135.5580 C   0  0  0  0  0  3  0  0  0  0  0  0
  196.8970  173.8360  136.3550 C   0  0  0  0  0  0  0  0  0  0  0  0
  197.6860  171.5500  135.8090 C   0  0  0  0  0  1  0  0  0  0  0  0
  197.4640  172.5680  136.9110 C   0  0  2  0  0  3  0  0  0  0  0  0
  196.6100  172.0400  137.8790 O   0  0  0  0  0  1  0  0  0  0  0  0
  195.3490  177.4270  134.7430 O   0  0  0  0  0  0  0  0  0  0  0  0
  196.1270  178.6070  134.5950 C   0  0  0  0  0  1  0  0  0  0  0  0
  1  8  1  6  0  0  0
  1 11  1  0  0  0  0
  2 22  1  0  0  0  0
  2 17  1  1  0  0  0
  3  9  1  1  0  0  0
  4 18  1  0  0  0  0
  6 21  2  0  0  0  0
  7  8  2  0  0  0  0
 10 11  1  0  0  0  0
 11 13  2  0  0  0  0
 12  8  1  0  0  0  0
 13  3  1  0  0  0  0
 14  5  1  6  0  0  0
 14 20  1  0  0  0  0
 15 22  1  6  0  0  0
 15  1  1  0  0  0  0
 15  4  1  0  0  0  0
 16 37  1  1  0  0  0
 16  2  1  0  0  0  0
 18  3  1  0  0  0  0
 19  6  2  0  0  0  0
 19 14  1  0  0  0  0
 20 12  2  0  0  0  0
 21 16  1  0  0  0  0
 23 27  2  0  0  0  0
 24 23  2  0  0  0  0
 24 20  1  0  0  0  0
 25 36  1  6  0  0  0
 25 29  1  0  0  0  0
 26 29  2  0  0  0  0
 27 26  1  0  0  0  0
 28 25  1  0  0  0  0
 30 27  1  0  0  0  0
 30 28  2  0  0  0  0
 31 32  1  0  0  0  0
 32 35  1  0  0  0  0
 33 36  1  0  0  0  0
 34 31  1  0  0  0  0
 34 33  1  0  0  0  0
 36 35  1  0  0  0  0
 38 39  2  0  0  0  0
 39 42  1  0  0  0  0
 39 37  1  0  0  0  0
 40 45  1  0  0  0  0
 41 44  2  0  0  0  0
 41 42  1  0  0  0  0
 42 40  2  0  0  0  0
 43 45  2  0  0  0  0
 44 43  1  0  0  0  0
 45 47  1  0  0  0  0
 47 46  1  6  0  0  0
 47 48  1  0  0  0  0
 49 41  1  0  0  0  0
 50 49  1  0  0  0  0
M  END
>  <MODEL>
2

>  <REMARK>
 VINA RESULT:      -7.4      3.387      7.923
  Name = 
  6 active torsions:
  status: ('A' for Active; 'I' for Inactive)
    1  A    between atoms: C_5  and  C_46
    2  A    between atoms: C_10  and  C_45
    3  A    between atoms: O_12  and  C_27
    4  A    between atoms: N_13  and  C_33
    5  A    between atoms: C_28  and  C_44
    6  A    between atoms: C_36  and  C_43
                            x       y       z     vdW  Elec       q    Type
                         _______ _______ _______ _____ _____    ______ ____

>  <TORSDO>
F 6

$$$$
=
 OpenBabel11032421083D

 50 54  0  0  1  0  0  0  0  0999 V2000
  191.4360  175.4580  136.3920 C   0  0  2  0  0  3  0  0  0  0  0  0
  189.9070  177.0220  138.8420 C   0  0  1  0  0  3  0  0  0  0  0  0
  194.3090  175.8910  136.4290 C   0  0  1  0  0  3  0  0  0  0  0  0
  192.9160  176.2100  138.3260 C   0  0  0  0  0  2  0  0  0  0  0  0
  186.7290  178.8990  134.7500 N   0  0  0  0  0  1  0  0  0  0  0  0
  187.1890  178.2710  138.2810 C   0  0  0  0  0  0  0  0  0  0  0  0
  189.4050  174.3410  135.7010 O   0  0  0  0  0  0  0  0  0  0  0  0
  189.9920  175.4310  135.9550 C   0  0  0  0  0  0  0  0  0  0  0  0
  195.7750  176.0390  136.0850 C   0  0  0  0  0  1  0  0  0  0  0  0
  191.8910  173.3340  134.9130 C   0  0  0  0  0  1  0  0  0  0  0  0
  192.3850  174.5470  135.6260 C   0  0  0  0  0  0  0  0  0  0  0  0
  189.2640  176.7170  135.9450 C   0  0  0  0  0  3  0  0  0  0  0  0
  193.7090  174.7640  135.6460 C   0  0  0  0  0  3  0  0  0  0  0  0
  187.4780  178.3390  135.8670 C   0  0  1  0  0  3  0  0  0  0  0  0
  191.6940  175.3780  137.9110 C   0  0  1  0  0  3  0  0  0  0  0  0
  188.7060  177.0780  139.7840 C   0  0  2  0  0  3  0  0  0  0  0  0
  190.8590  177.9890  139.1850 O   0  0  0  0  0  1  0  0  0  0  0  0
  194.1620  175.6100  137.8580 N   0  0  0  0  0  2  0  0  0  0  0  0
  186.6270  178.3400  137.1000 C   0  0  0  0  0  3  0  0  0  0  0  0
  188.0060  176.9510  135.5660 C   0  0  0  0  0  0  0  0  0  0  0  0
  187.7670  178.1990  139.4550 C   0  0  0  0  0  3  0  0  0  0  0  0
  190.5060  175.6110  138.8570 C   0  0  0  0  0  2  0  0  0  0  0  0
  185.9580  175.6250  135.4610 C   0  0  0  0  0  0  0  0  0  0  0  0
  187.1610  175.8710  135.0170 C   0  0  0  0  0  3  0  0  0  0  0  0
  182.0490  175.3040  136.9440 C   0  0  1  0  0  3  0  0  0  0  0  0
  183.6610  176.2750  135.3030 C   0  0  0  0  0  3  0  0  0  0  0  0
  184.7310  175.4430  135.8690 C   0  0  0  0  0  0  0  0  0  0  0  0
  183.2200  174.5410  137.5510 C   0  0  0  0  0  3  0  0  0  0  0  0
  182.4180  176.2150  135.7880 C   0  0  0  0  0  3  0  0  0  0  0  0
  184.4570  174.6030  137.0480 C   0  0  0  0  0  3  0  0  0  0  0  0
  181.2140  171.7760  135.3920 O   0  0  0  0  0  0  0  0  0  0  0  0
  181.6260  172.9200  134.6950 C   0  0  0  0  0  2  0  0  0  0  0  0
  180.9590  173.0270  137.4540 C   0  0  0  0  0  2  0  0  0  0  0  0
  181.7270  171.9310  136.6930 C   0  0  0  0  0  2  0  0  0  0  0  0
  180.7430  174.0940  135.1160 C   0  0  0  0  0  2  0  0  0  0  0  0
  180.9050  174.3310  136.6270 C   0  0  0  0  0  3  0  0  0  0  0  0
  189.1100  177.0730  141.1870 N   0  0  0  0  0  2  0  0  0  0  0  0
  186.9970  176.8960  142.1700 O   0  0  0  0  0  0  0  0  0  0  0  0
  188.2290  177.1030  142.3220 C   0  0  0  0  0  0  0  0  0  0  0  0
  190.0560  176.7620  143.8980 C   0  0  0  0  0  3  0  0  0  0  0  0
  188.1140  177.9920  144.7230 C   0  0  0  0  0  0  0  0  0  0  0  0
  188.7850  177.3030  143.6660 C   0  0  0  0  0  0  0  0  0  0  0  0
  190.0040  177.5160  146.1900 C   0  0  0  0  0  3  0  0  0  0  0  0
  188.7430  178.0780  145.9720 C   0  0  0  0  0  3  0  0  0  0  0  0
  190.6690  176.8630  145.1500 C   0  0  0  0  0  0  0  0  0  0  0  0
  192.0910  174.8760  144.7320 C   0  0  0  0  0  1  0  0  0  0  0  0
  192.0240  176.2590  145.3500 C   0  0  2  0  0  3  0  0  0  0  0  0
  192.3260  176.1870  146.7090 O   0  0  0  0  0  1  0  0  0  0  0  0
  186.8590  178.6220  144.6220 O   0  0  0  0  0  0  0  0  0  0  0  0
  185.6030  178.0510  144.9590 C   0  0  0  0  0  1  0  0  0  0  0  0
  1 11  1  6  0  0  0
  1 15  1  0  0  0  0
  2 22  1  0  0  0  0
  2 17  1  1  0  0  0
  2 16  1  0  0  0  0
  3  9  1  6  0  0  0
  3 18  1  0  0  0  0
  6 21  2  0  0  0  0
  7  8  2  0  0  0  0
  8  1  1  0  0  0  0
 10 11  1  0  0  0  0
 11 13  2  0  0  0  0
 12  8  1  0  0  0  0
 13  3  1  0  0  0  0
 14  5  1  6  0  0  0
 14 19  1  0  0  0  0
 15  4  1  1  0  0  0
 15 22  1  0  0  0  0
 16 37  1  1  0  0  0
 18  4  1  0  0  0  0
 19  6  2  0  0  0  0
 20 14  1  0  0  0  0
 20 12  2  0  0  0  0
 21 16  1  0  0  0  0
 23 27  2  0  0  0  0
 24 23  2  0  0  0  0
 24 20  1  0  0  0  0
 25 36  1  6  0  0  0
 25 28  1  0  0  0  0
 26 29  2  0  0  0  0
 26 27  1  0  0  0  0
 27 30  1  0  0  0  0
 29 25  1  0  0  0  0
 30 28  2  0  0  0  0
 31 34  1  0  0  0  0
 32 35  1  0  0  0  0
 32 31  1  0  0  0  0
 34 33  1  0  0  0  0
 35 36  1  0  0  0  0
 36 33  1  0  0  0  0
 37 39  1  0  0  0  0
 38 39  2  0  0  0  0
 39 42  1  0  0  0  0
 40 45  1  0  0  0  0
 41 44  2  0  0  0  0
 42 40  2  0  0  0  0
 42 41  1  0  0  0  0
 44 43  1  0  0  0  0
 45 47  1  0  0  0  0
 45 43  2  0  0  0  0
 47 46  1  1  0  0  0
 47 48  1  0  0  0  0
 49 41  1  0  0  0  0
 49 50  1  0  0  0  0
M  END
>  <MODEL>
3

>  <REMARK>
 VINA RESULT:      -7.3      1.083      1.973
  Name = 
  6 active torsions:
  status: ('A' for Active; 'I' for Inactive)
    1  A    between atoms: C_5  and  C_46
    2  A    between atoms: C_10  and  C_45
    3  A    between atoms: O_12  and  C_27
    4  A    between atoms: N_13  and  C_33
    5  A    between atoms: C_28  and  C_44
    6  A    between atoms: C_36  and  C_43
                            x       y       z     vdW  Elec       q    Type
                         _______ _______ _______ _____ _____    ______ ____

>  <TORSDO>
F 6

$$$$
=
 OpenBabel11032421083D

 50 54  0  0  1  0  0  0  0  0999 V2000
  187.6430  175.6730  136.5010 C   0  0  2  0  0  3  0  0  0  0  0  0
  185.8280  177.5990  138.4460 C   0  0  1  0  0  3  0  0  0  0  0  0
  186.0850  173.5350  135.3000 C   0  0  1  0  0  3  0  0  0  0  0  0
  185.1200  175.5220  136.1740 C   0  0  0  0  0  2  0  0  0  0  0  0
  189.8600  176.5880  142.0640 N   0  0  0  0  0  1  0  0  0  0  0  0
  187.0830  178.6520  141.0100 C   0  0  0  0  0  0  0  0  0  0  0  0
  189.5830  177.1010  136.7260 O   0  0  0  0  0  0  0  0  0  0  0  0
  188.6850  176.4200  137.2980 C   0  0  0  0  0  0  0  0  0  0  0  0
  185.6050  172.2530  134.6550 C   0  0  0  0  0  1  0  0  0  0  0  0
  189.4140  175.2980  134.5950 C   0  0  0  0  0  1  0  0  0  0  0  0
  188.1500  174.9100  135.2850 C   0  0  0  0  0  0  0  0  0  0  0  0
  188.5460  176.4120  138.7690 C   0  0  0  0  0  3  0  0  0  0  0  0
  187.4220  173.9200  134.7460 C   0  0  0  0  0  3  0  0  0  0  0  0
  188.8340  176.9650  141.1010 C   0  0  1  0  0  3  0  0  0  0  0  0
  186.3480  176.4440  136.1740 C   0  0  1  0  0  3  0  0  0  0  0  0
  185.6300  178.9790  139.0710 C   0  0  2  0  0  3  0  0  0  0  0  0
  184.7340  176.7670  138.7100 O   0  0  0  0  0  1  0  0  0  0  0  0
  185.1300  174.6120  135.0320 N   0  0  0  0  0  2  0  0  0  0  0  0
  188.2600  178.3000  141.4660 C   0  0  0  0  0  3  0  0  0  0  0  0
  189.3530  176.9630  139.6780 C   0  0  0  0  0  0  0  0  0  0  0  0
  185.9060  178.9900  140.5440 C   0  0  0  0  0  3  0  0  0  0  0  0
  186.0720  177.7480  136.9400 C   0  0  0  0  0  2  0  0  0  0  0  0
  191.6140  176.9990  138.7540 C   0  0  0  0  0  0  0  0  0  0  0  0
  190.6030  177.6400  139.2770 C   0  0  0  0  0  3  0  0  0  0  0  0
  194.5360  174.6670  136.8560 C   0  0  1  0  0  3  0  0  0  0  0  0
  192.5030  176.1090  136.7190 C   0  0  0  0  0  3  0  0  0  0  0  0
  192.5830  176.3510  138.1650 C   0  0  0  0  0  0  0  0  0  0  0  0
  194.5080  174.8750  138.3650 C   0  0  0  0  0  3  0  0  0  0  0  0
  193.4020  175.3380  136.1030 C   0  0  0  0  0  3  0  0  0  0  0  0
  193.6080  175.6590  138.9660 C   0  0  0  0  0  3  0  0  0  0  0  0
  197.8310  173.1000  135.3580 O   0  0  0  0  0  0  0  0  0  0  0  0
  197.3930  173.0160  136.6870 C   0  0  0  0  0  2  0  0  0  0  0  0
  196.0940  174.7000  134.8050 C   0  0  0  0  0  2  0  0  0  0  0  0
  196.6630  173.2860  134.5950 C   0  0  0  0  0  2  0  0  0  0  0  0
  197.0540  174.4210  137.1820 C   0  0  0  0  0  2  0  0  0  0  0  0
  195.9300  175.0070  136.3110 C   0  0  0  0  0  3  0  0  0  0  0  0
  184.3280  179.5480  138.7360 N   0  0  0  0  0  2  0  0  0  0  0  0
  183.1630  178.9430  140.6700 O   0  0  0  0  0  0  0  0  0  0  0  0
  183.1190  179.4010  139.4990 C   0  0  0  0  0  0  0  0  0  0  0  0
  181.8390  181.1390  138.3680 C   0  0  0  0  0  3  0  0  0  0  0  0
  180.6400  179.0870  138.9300 C   0  0  0  0  0  0  0  0  0  0  0  0
  181.8430  179.8570  138.9310 C   0  0  0  0  0  0  0  0  0  0  0  0
  179.4900  180.9470  137.8480 C   0  0  0  0  0  3  0  0  0  0  0  0
  179.4800  179.6580  138.3880 C   0  0  0  0  0  3  0  0  0  0  0  0
  180.6730  181.6890  137.8270 C   0  0  0  0  0  0  0  0  0  0  0  0
  180.7190  183.0110  135.7310 C   0  0  0  0  0  1  0  0  0  0  0  0
  180.7170  183.0680  137.2470 C   0  0  2  0  0  3  0  0  0  0  0  0
  181.8490  183.7460  137.6980 O   0  0  0  0  0  1  0  0  0  0  0  0
  180.5070  177.7740  139.4180 O   0  0  0  0  0  0  0  0  0  0  0  0
  180.0510  177.3990  140.7110 C   0  0  0  0  0  1  0  0  0  0  0  0
  1 11  1  6  0  0  0
  1  8  1  0  0  0  0
  2 17  1  6  0  0  0
  2 16  1  0  0  0  0
  3  9  1  6  0  0  0
  6 19  2  0  0  0  0
  7  8  2  0  0  0  0
  8 12  1  0  0  0  0
 10 11  1  0  0  0  0
 12 20  2  0  0  0  0
 13 11  2  0  0  0  0
 13  3  1  0  0  0  0
 14 19  1  0  0  0  0
 14  5  1  1  0  0  0
 15  4  1  1  0  0  0
 15  1  1  0  0  0  0
 15 22  1  0  0  0  0
 16 37  1  1  0  0  0
 16 21  1  0  0  0  0
 18  3  1  0  0  0  0
 18  4  1  0  0  0  0
 20 14  1  0  0  0  0
 21  6  2  0  0  0  0
 22  2  1  0  0  0  0
 23 24  2  0  0  0  0
 24 20  1  0  0  0  0
 25 36  1  6  0  0  0
 25 28  1  0  0  0  0
 26 27  1  0  0  0  0
 27 23  2  0  0  0  0
 27 30  1  0  0  0  0
 28 30  2  0  0  0  0
 29 26  2  0  0  0  0
 29 25  1  0  0  0  0
 31 32  1  0  0  0  0
 32 35  1  0  0  0  0
 33 36  1  0  0  0  0
 34 33  1  0  0  0  0
 34 31  1  0  0  0  0
 36 35  1  0  0  0  0
 37 39  1  0  0  0  0
 39 38  2  0  0  0  0
 40 42  1  0  0  0  0
 41 42  2  0  0  0  0
 41 49  1  0  0  0  0
 42 39  1  0  0  0  0
 43 44  2  0  0  0  0
 44 41  1  0  0  0  0
 45 43  1  0  0  0  0
 45 40  2  0  0  0  0
 47 46  1  6  0  0  0
 47 48  1  0  0  0  0
 47 45  1  0  0  0  0
 49 50  1  0  0  0  0
M  END
>  <MODEL>
4

>  <REMARK>
 VINA RESULT:      -6.1      3.831      9.649
  Name = 
  6 active torsions:
  status: ('A' for Active; 'I' for Inactive)
    1  A    between atoms: C_5  and  C_46
    2  A    between atoms: C_10  and  C_45
    3  A    between atoms: O_12  and  C_27
    4  A    between atoms: N_13  and  C_33
    5  A    between atoms: C_28  and  C_44
    6  A    between atoms: C_36  and  C_43
                            x       y       z     vdW  Elec       q    Type
                         _______ _______ _______ _____ _____    ______ ____

>  <TORSDO>
F 6

$$$$
=
 OpenBabel11032421083D

 50 54  0  0  1  0  0  0  0  0999 V2000
  185.1920  178.2920  138.5260 C   0  0  2  0  0  3  0  0  0  0  0  0
  185.0950  175.9750  136.2000 C   0  0  1  0  0  3  0  0  0  0  0  0
  182.7970  179.9370  138.5450 C   0  0  1  0  0  3  0  0  0  0  0  0
  182.8880  177.7750  137.5670 C   0  0  0  0  0  2  0  0  0  0  0  0
  190.0370  178.0370  134.8990 N   0  0  0  0  0  1  0  0  0  0  0  0
  187.6690  175.3100  134.7190 C   0  0  0  0  0  0  0  0  0  0  0  0
  187.2520  177.4230  139.4490 O   0  0  0  0  0  0  0  0  0  0  0  0
  186.6320  177.8500  138.4340 C   0  0  0  0  0  0  0  0  0  0  0  0
  181.7780  181.0420  138.7130 C   0  0  0  0  0  1  0  0  0  0  0  0
  185.6280  179.1000  140.9880 C   0  0  0  0  0  1  0  0  0  0  0  0
  184.8300  179.1490  139.7300 C   0  0  0  0  0  0  0  0  0  0  0  0
  187.2510  177.8340  137.0920 C   0  0  0  0  0  3  0  0  0  0  0  0
  183.7240  179.9100  139.7210 C   0  0  0  0  0  3  0  0  0  0  0  0
  188.7860  177.3960  135.2820 C   0  0  1  0  0  3  0  0  0  0  0  0
  184.1250  177.2060  138.2760 C   0  0  1  0  0  3  0  0  0  0  0  0
  185.5610  174.5970  135.7330 C   0  0  2  0  0  3  0  0  0  0  0  0
  184.1220  176.4940  135.3370 O   0  0  0  0  0  1  0  0  0  0  0  0
  182.1140  178.6450  138.4470 N   0  0  0  0  0  2  0  0  0  0  0  0
  188.7980  175.9610  134.8510 C   0  0  0  0  0  3  0  0  0  0  0  0
  188.5060  177.5220  136.7650 C   0  0  0  0  0  0  0  0  0  0  0  0
  186.5320  174.6720  134.5940 C   0  0  0  0  0  3  0  0  0  0  0  0
  184.5790  175.8820  137.6400 C   0  0  0  0  0  2  0  0  0  0  0  0
  190.5270  176.4120  137.5710 C   0  0  0  0  0  0  0  0  0  0  0  0
  189.5050  177.1920  137.8020 C   0  0  0  0  0  3  0  0  0  0  0  0
  193.8220  174.1020  136.3940 C   0  0  1  0  0  3  0  0  0  0  0  0
  192.7480  176.3360  136.6850 C   0  0  0  0  0  3  0  0  0  0  0  0
  191.5810  175.6900  137.2990 C   0  0  0  0  0  0  0  0  0  0  0  0
  192.5440  173.4830  136.9470 C   0  0  0  0  0  3  0  0  0  0  0  0
  193.7910  175.6130  136.2680 C   0  0  0  0  0  3  0  0  0  0  0  0
  191.5130  174.2200  137.3690 C   0  0  0  0  0  3  0  0  0  0  0  0
  197.3240  172.3330  135.9910 O   0  0  0  0  0  0  0  0  0  0  0  0
  196.0650  171.7490  135.7990 C   0  0  0  0  0  2  0  0  0  0  0  0
  196.3360  174.3560  136.8950 C   0  0  0  0  0  2  0  0  0  0  0  0
  197.1350  173.7070  135.7500 C   0  0  0  0  0  2  0  0  0  0  0  0
  195.1960  172.0450  137.0210 C   0  0  0  0  0  2  0  0  0  0  0  0
  195.0350  173.5680  137.1690 C   0  0  0  0  0  3  0  0  0  0  0  0
  184.4390  173.7030  135.4620 N   0  0  0  0  0  2  0  0  0  0  0  0
  184.5030  172.4370  137.4260 O   0  0  0  0  0  0  0  0  0  0  0  0
  184.0340  172.5840  136.2670 C   0  0  0  0  0  0  0  0  0  0  0  0
  181.6840  171.9810  136.0440 C   0  0  0  0  0  3  0  0  0  0  0  0
  183.3040  170.4680  135.0200 C   0  0  0  0  0  0  0  0  0  0  0  0
  183.0160  171.6550  135.7600 C   0  0  0  0  0  0  0  0  0  0  0  0
  180.9160  169.9790  134.9360 C   0  0  0  0  0  3  0  0  0  0  0  0
  182.2380  169.6480  134.6270 C   0  0  0  0  0  3  0  0  0  0  0  0
  180.6330  171.1530  135.6380 C   0  0  0  0  0  0  0  0  0  0  0  0
  178.9470  172.9680  135.5490 C   0  0  0  0  0  1  0  0  0  0  0  0
  179.2280  171.5390  135.9760 C   0  0  2  0  0  3  0  0  0  0  0  0
  179.0030  171.4000  137.3450 O   0  0  0  0  0  1  0  0  0  0  0  0
  184.5860  170.0400  134.6250 O   0  0  0  0  0  0  0  0  0  0  0  0
  185.6840  169.7690  135.4850 C   0  0  0  0  0  1  0  0  0  0  0  0
  1  8  1  1  0  0  0
  1 11  1  0  0  0  0
  2 17  1  6  0  0  0
  2 22  1  0  0  0  0
  3  9  1  1  0  0  0
  3 13  1  0  0  0  0
  4 18  1  0  0  0  0
  6 19  2  0  0  0  0
  8  7  2  0  0  0  0
 11 10  1  0  0  0  0
 12  8  1  0  0  0  0
 13 11  2  0  0  0  0
 14  5  1  1  0  0  0
 14 20  1  0  0  0  0
 15  4  1  6  0  0  0
 15  1  1  0  0  0  0
 16 37  1  6  0  0  0
 16  2  1  0  0  0  0
 18  3  1  0  0  0  0
 19 14  1  0  0  0  0
 20 12  2  0  0  0  0
 20 24  1  0  0  0  0
 21  6  2  0  0  0  0
 21 16  1  0  0  0  0
 22 15  1  0  0  0  0
 23 24  2  0  0  0  0
 25 28  1  0  0  0  0
 25 36  1  1  0  0  0
 26 27  1  0  0  0  0
 27 30  1  0  0  0  0
 27 23  2  0  0  0  0
 28 30  2  0  0  0  0
 29 25  1  0  0  0  0
 29 26  2  0  0  0  0
 32 31  1  0  0  0  0
 32 35  1  0  0  0  0
 33 36  1  0  0  0  0
 34 31  1  0  0  0  0
 34 33  1  0  0  0  0
 35 36  1  0  0  0  0
 37 39  1  0  0  0  0
 39 38  2  0  0  0  0
 41 42  2  0  0  0  0
 42 40  1  0  0  0  0
 42 39  1  0  0  0  0
 43 45  1  0  0  0  0
 44 43  2  0  0  0  0
 44 41  1  0  0  0  0
 45 47  1  0  0  0  0
 45 40  2  0  0  0  0
 47 46  1  1  0  0  0
 47 48  1  0  0  0  0
 49 41  1  0  0  0  0
 49 50  1  0  0  0  0
M  END
>  <MODEL>
5

>  <REMARK>
 VINA RESULT:      -5.9      3.535     10.718
  Name = 
  6 active torsions:
  status: ('A' for Active; 'I' for Inactive)
    1  A    between atoms: C_5  and  C_46
    2  A    between atoms: C_10  and  C_45
    3  A    between atoms: O_12  and  C_27
    4  A    between atoms: N_13  and  C_33
    5  A    between atoms: C_28  and  C_44
    6  A    between atoms: C_36  and  C_43
                            x       y       z     vdW  Elec       q    Type
                         _______ _______ _______ _____ _____    ______ ____

>  <TORSDO>
F 6

$$$$
