=
 OpenBabel11032421103D

 34 39  0  0  0  0  0  0  0  0999 V2000
  190.0410  177.1790  146.7640 C   0  0  0  0  0  0  0  0  0  0  0  0
  191.6040  176.0240  145.3560 C   0  0  0  0  0  0  0  0  0  0  0  0
  189.5600  177.1580  144.3640 C   0  0  0  0  0  0  0  0  0  0  0  0
  189.1090  177.4880  142.0390 C   0  0  0  0  0  0  0  0  0  0  0  0
  192.0510  176.3670  147.6330 N   0  0  0  0  0  0  0  0  0  0  0  0
  192.3930  175.8650  146.4480 N   0  0  0  0  0  0  0  0  0  0  0  0
  191.1890  177.1560  142.5110 C   0  0  0  0  0  3  0  0  0  0  0  0
  190.4230  176.8010  145.4550 C   0  0  0  0  0  0  0  0  0  0  0  0
  189.7470  177.5570  140.8180 C   0  0  0  0  0  3  0  0  0  0  0  0
  190.8870  176.9850  147.8030 N   0  0  0  0  0  0  0  0  0  0  0  0
  188.2280  177.5890  144.6540 C   0  0  0  0  0  0  0  0  0  0  0  0
  188.7790  177.7040  147.0140 C   0  0  0  0  0  3  0  0  0  0  0  0
  191.8830  175.2140  144.2190 N   0  0  0  0  0  1  0  0  0  0  0  0
  187.7730  177.7730  142.2690 C   0  0  0  0  0  3  0  0  0  0  0  0
  187.3080  177.8220  143.5910 C   0  0  0  0  0  0  0  0  0  0  0  0
  191.0740  177.3450  141.1470 C   0  0  0  0  0  0  0  0  0  0  0  0
  189.9560  177.2090  143.0480 N   0  0  0  0  0  0  0  0  0  0  0  0
  187.8730  177.8740  145.9770 C   0  0  0  0  0  3  0  0  0  0  0  0
  183.6410  178.6020  142.9520 C   0  0  0  0  0  0  0  0  0  0  0  0
  183.1850  178.8520  144.2470 C   0  0  0  0  0  3  0  0  0  0  0  0
  185.8760  178.1550  143.8120 C   0  0  0  0  0  0  0  0  0  0  0  0
  184.0670  178.7620  145.3270 C   0  0  0  0  0  3  0  0  0  0  0  0
  184.9800  178.2620  142.7360 C   0  0  0  0  0  3  0  0  0  0  0  0
  185.4050  178.4200  145.1100 C   0  0  0  0  0  3  0  0  0  0  0  0
  182.7070  178.7030  141.8020 C   0  0  0  0  0  1  0  0  0  0  0  0
  192.2010  177.2970  140.1770 C   0  0  0  0  0  2  0  0  0  0  0  0
  191.7010  176.9160  138.8650 N   0  0  0  0  0  2  0  0  0  0  0  0
  190.8360  176.2920  136.2200 O   0  0  0  0  0  0  0  0  0  0  0  0
  192.5010  176.2060  137.9180 C   0  0  0  0  0  0  0  0  0  0  0  0
  191.9380  175.8260  136.6130 C   0  0  0  0  0  0  0  0  0  0  0  0
  193.7810  174.2420  136.3400 C   0  0  0  0  0  2  0  0  0  0  0  0
  194.5920  175.1730  137.2450 C   0  0  0  0  0  2  0  0  0  0  0  0
  193.7180  175.8470  138.2110 N   0  0  0  0  0  0  0  0  0  0  0  0
  192.6560  174.9400  135.8090 O   0  0  0  0  0  0  0  0  0  0  0  0
  1 12  1  0  0  0  0
  1 10  2  0  0  0  0
  2  8  2  0  0  0  0
  2  6  1  0  0  0  0
  3 11  2  0  0  0  0
  3  8  1  0  0  0  0
  4 14  1  0  0  0  0
  4 17  1  0  0  0  0
  5 10  1  0  0  0  0
  6  5  2  0  0  0  0
  7 17  1  0  0  0  0
  8  1  1  0  0  0  0
  9 16  1  0  0  0  0
  9  4  2  0  0  0  0
 11 18  1  0  0  0  0
 13  2  1  0  0  0  0
 14 15  2  0  0  0  0
 15 21  1  0  0  0  0
 15 11  1  0  0  0  0
 16  7  2  0  0  0  0
 17  3  1  0  0  0  0
 18 12  2  0  0  0  0
 19 20  1  0  0  0  0
 20 22  2  0  0  0  0
 21 24  2  0  0  0  0
 23 19  2  0  0  0  0
 23 21  1  0  0  0  0
 24 22  1  0  0  0  0
 25 19  1  0  0  0  0
 26 16  1  0  0  0  0
 27 26  1  0  0  0  0
 28 30  2  0  0  0  0
 29 33  2  0  0  0  0
 29 27  1  0  0  0  0
 30 29  1  0  0  0  0
 31 32  1  0  0  0  0
 32 33  1  0  0  0  0
 34 31  1  0  0  0  0
 34 30  1  0  0  0  0
M  END
>  <MODEL>
1

>  <REMARK>
 VINA RESULT:     -12.2      0.000      0.000
  Name = 
  3 active torsions:
  status: ('A' for Active; 'I' for Inactive)
    1  A    between atoms: N_3  and  C_17
    2  A    between atoms: C_12  and  C_28
    3  A    between atoms: C_17  and  C_29
                            x       y       z     vdW  Elec       q    Type
                         _______ _______ _______ _____ _____    ______ ____

>  <TORSDO>
F 3

$$$$
=
 OpenBabel11032421103D

 34 39  0  0  0  0  0  0  0  0999 V2000
  189.9650  177.2290  146.6320 C   0  0  0  0  0  0  0  0  0  0  0  0
  191.3770  176.0250  145.1110 C   0  0  0  0  0  0  0  0  0  0  0  0
  189.2640  177.1680  144.2880 C   0  0  0  0  0  0  0  0  0  0  0  0
  188.6050  177.4590  142.0080 C   0  0  0  0  0  0  0  0  0  0  0  0
  192.0360  176.4060  147.3300 N   0  0  0  0  0  0  0  0  0  0  0  0
  192.2610  175.8760  146.1300 N   0  0  0  0  0  0  0  0  0  0  0  0
  190.7160  177.1060  142.2930 C   0  0  0  0  0  3  0  0  0  0  0  0
  190.2190  176.8200  145.3020 C   0  0  0  0  0  0  0  0  0  0  0  0
  189.1300  177.4950  140.7320 C   0  0  0  0  0  3  0  0  0  0  0  0
  190.9010  177.0440  147.5930 N   0  0  0  0  0  0  0  0  0  0  0  0
  187.9700  177.6240  144.6900 C   0  0  0  0  0  0  0  0  0  0  0  0
  188.7380  177.7780  146.9870 C   0  0  0  0  0  3  0  0  0  0  0  0
  191.5400  175.1890  143.9710 N   0  0  0  0  0  1  0  0  0  0  0  0
  187.3000  177.7670  142.3530 C   0  0  0  0  0  3  0  0  0  0  0  0
  186.9600  177.8490  143.7110 C   0  0  0  0  0  0  0  0  0  0  0  0
  190.4790  177.2710  140.9420 C   0  0  0  0  0  0  0  0  0  0  0  0
  189.5380  177.1880  142.9410 N   0  0  0  0  0  0  0  0  0  0  0  0
  187.7420  177.9400  146.0340 C   0  0  0  0  0  3  0  0  0  0  0  0
  183.2660  178.6990  143.3930 C   0  0  0  0  0  0  0  0  0  0  0  0
  182.9280  178.9500  144.7230 C   0  0  0  0  0  3  0  0  0  0  0  0
  185.5580  178.2070  144.0560 C   0  0  0  0  0  0  0  0  0  0  0  0
  183.8970  178.8390  145.7230 C   0  0  0  0  0  3  0  0  0  0  0  0
  184.5750  178.3350  143.0610 C   0  0  0  0  0  3  0  0  0  0  0  0
  185.2050  178.4730  145.3900 C   0  0  0  0  0  3  0  0  0  0  0  0
  182.2380  178.8220  142.3280 C   0  0  0  0  0  1  0  0  0  0  0  0
  191.5110  177.1860  139.8740 C   0  0  0  0  0  2  0  0  0  0  0  0
  191.2570  176.0220  139.0400 N   0  0  0  0  0  2  0  0  0  0  0  0
  190.5820  173.7570  137.4430 O   0  0  0  0  0  0  0  0  0  0  0  0
  190.5780  176.1120  137.7870 C   0  0  0  0  0  0  0  0  0  0  0  0
  190.3670  174.9050  136.9720 C   0  0  0  0  0  0  0  0  0  0  0  0
  189.8860  176.3480  135.0570 C   0  0  0  0  0  2  0  0  0  0  0  0
  189.4220  177.3910  136.0770 C   0  0  0  0  0  2  0  0  0  0  0  0
  190.1780  177.2630  137.3280 N   0  0  0  0  0  0  0  0  0  0  0  0
  189.9140  175.0560  135.6610 O   0  0  0  0  0  0  0  0  0  0  0  0
  1 12  1  0  0  0  0
  1 10  2  0  0  0  0
  2  8  2  0  0  0  0
  2  6  1  0  0  0  0
  3 11  2  0  0  0  0
  3  8  1  0  0  0  0
  4 14  1  0  0  0  0
  4 17  1  0  0  0  0
  5 10  1  0  0  0  0
  6  5  2  0  0  0  0
  7 17  1  0  0  0  0
  8  1  1  0  0  0  0
  9 16  1  0  0  0  0
  9  4  2  0  0  0  0
 11 18  1  0  0  0  0
 13  2  1  0  0  0  0
 14 15  2  0  0  0  0
 15 21  1  0  0  0  0
 15 11  1  0  0  0  0
 16  7  2  0  0  0  0
 17  3  1  0  0  0  0
 18 12  2  0  0  0  0
 19 20  1  0  0  0  0
 20 22  2  0  0  0  0
 21 24  2  0  0  0  0
 23 19  2  0  0  0  0
 23 21  1  0  0  0  0
 24 22  1  0  0  0  0
 25 19  1  0  0  0  0
 26 16  1  0  0  0  0
 27 26  1  0  0  0  0
 29 27  1  0  0  0  0
 30 28  2  0  0  0  0
 30 29  1  0  0  0  0
 31 34  1  0  0  0  0
 31 32  1  0  0  0  0
 32 33  1  0  0  0  0
 33 29  2  0  0  0  0
 34 30  1  0  0  0  0
M  END
>  <MODEL>
2

>  <REMARK>
 VINA RESULT:     -12.2      1.329      1.702
  Name = 
  3 active torsions:
  status: ('A' for Active; 'I' for Inactive)
    1  A    between atoms: N_3  and  C_17
    2  A    between atoms: C_12  and  C_28
    3  A    between atoms: C_17  and  C_29
                            x       y       z     vdW  Elec       q    Type
                         _______ _______ _______ _____ _____    ______ ____

>  <TORSDO>
F 3

$$$$
=
 OpenBabel11032421103D

 34 39  0  0  0  0  0  0  0  0999 V2000
  185.9800  178.3590  145.9880 C   0  0  0  0  0  0  0  0  0  0  0  0
  187.6130  177.2690  144.6090 C   0  0  0  0  0  0  0  0  0  0  0  0
  185.4960  178.2350  143.5920 C   0  0  0  0  0  0  0  0  0  0  0  0
  185.0190  178.4660  141.2600 C   0  0  0  0  0  0  0  0  0  0  0  0
  188.0410  177.7070  146.8730 N   0  0  0  0  0  0  0  0  0  0  0  0
  188.4120  177.1940  145.7020 N   0  0  0  0  0  0  0  0  0  0  0  0
  187.1180  178.2850  141.7330 C   0  0  0  0  0  3  0  0  0  0  0  0
  186.3830  177.9690  144.6890 C   0  0  0  0  0  0  0  0  0  0  0  0
  185.6500  178.5410  140.0360 C   0  0  0  0  0  3  0  0  0  0  0  0
  186.8390  178.2530  147.0290 N   0  0  0  0  0  0  0  0  0  0  0  0
  184.1390  178.5870  143.8740 C   0  0  0  0  0  0  0  0  0  0  0  0
  184.6860  178.8080  146.2280 C   0  0  0  0  0  3  0  0  0  0  0  0
  187.9420  176.4450  143.4950 N   0  0  0  0  0  1  0  0  0  0  0  0
  183.6680  178.6690  141.4870 C   0  0  0  0  0  3  0  0  0  0  0  0
  183.2040  178.7270  142.8080 C   0  0  0  0  0  0  0  0  0  0  0  0
  186.9890  178.4270  140.3650 C   0  0  0  0  0  0  0  0  0  0  0  0
  185.8850  178.2740  142.2740 N   0  0  0  0  0  0  0  0  0  0  0  0
  183.7690  178.8870  145.1900 C   0  0  0  0  0  3  0  0  0  0  0  0
  179.6770  180.1000  142.4350 C   0  0  0  0  0  0  0  0  0  0  0  0
  179.0250  179.4710  143.4960 C   0  0  0  0  0  3  0  0  0  0  0  0
  181.7530  178.9710  143.0260 C   0  0  0  0  0  0  0  0  0  0  0  0
  179.7290  178.5980  144.3290 C   0  0  0  0  0  3  0  0  0  0  0  0
  181.0340  179.8560  142.2050 C   0  0  0  0  0  3  0  0  0  0  0  0
  181.0860  178.3530  144.0970 C   0  0  0  0  0  3  0  0  0  0  0  0
  178.9320  181.0330  141.5520 C   0  0  0  0  0  1  0  0  0  0  0  0
  188.1140  178.4230  139.3920 C   0  0  0  0  0  2  0  0  0  0  0  0
  189.3660  178.1890  140.0950 N   0  0  0  0  0  2  0  0  0  0  0  0
  191.7790  177.5500  141.4760 O   0  0  0  0  0  0  0  0  0  0  0  0
  190.4630  177.4970  139.4940 C   0  0  0  0  0  0  0  0  0  0  0  0
  191.7150  177.3070  140.2420 C   0  0  0  0  0  0  0  0  0  0  0  0
  192.8310  176.7780  138.1310 C   0  0  0  0  0  2  0  0  0  0  0  0
  191.4640  176.2990  137.6350 C   0  0  0  0  0  2  0  0  0  0  0  0
  190.3860  177.0680  138.2670 N   0  0  0  0  0  0  0  0  0  0  0  0
  192.8370  176.8390  139.5560 O   0  0  0  0  0  0  0  0  0  0  0  0
  1 12  1  0  0  0  0
  1 10  2  0  0  0  0
  2  8  2  0  0  0  0
  2  6  1  0  0  0  0
  3 11  2  0  0  0  0
  3  8  1  0  0  0  0
  4 14  1  0  0  0  0
  4 17  1  0  0  0  0
  5 10  1  0  0  0  0
  6  5  2  0  0  0  0
  7 17  1  0  0  0  0
  8  1  1  0  0  0  0
  9 16  1  0  0  0  0
  9  4  2  0  0  0  0
 11 18  1  0  0  0  0
 13  2  1  0  0  0  0
 14 15  2  0  0  0  0
 15 21  1  0  0  0  0
 15 11  1  0  0  0  0
 16  7  2  0  0  0  0
 17  3  1  0  0  0  0
 18 12  2  0  0  0  0
 19 20  1  0  0  0  0
 20 22  2  0  0  0  0
 21 24  2  0  0  0  0
 23 19  2  0  0  0  0
 23 21  1  0  0  0  0
 24 22  1  0  0  0  0
 25 19  1  0  0  0  0
 26 27  1  0  0  0  0
 26 16  1  0  0  0  0
 29 27  1  0  0  0  0
 29 30  1  0  0  0  0
 30 28  2  0  0  0  0
 31 34  1  0  0  0  0
 32 31  1  0  0  0  0
 32 33  1  0  0  0  0
 33 29  2  0  0  0  0
 34 30  1  0  0  0  0
M  END
>  <MODEL>
3

>  <REMARK>
 VINA RESULT:     -11.2      2.546      4.184
  Name = 
  3 active torsions:
  status: ('A' for Active; 'I' for Inactive)
    1  A    between atoms: N_3  and  C_17
    2  A    between atoms: C_12  and  C_28
    3  A    between atoms: C_17  and  C_29
                            x       y       z     vdW  Elec       q    Type
                         _______ _______ _______ _____ _____    ______ ____

>  <TORSDO>
F 3

$$$$
=
 OpenBabel11032421103D

 34 39  0  0  0  0  0  0  0  0999 V2000
  187.0790  178.4800  140.4450 C   0  0  0  0  0  0  0  0  0  0  0  0
  184.7640  178.0880  139.9510 C   0  0  0  0  0  0  0  0  0  0  0  0
  185.5570  178.2970  142.3530 C   0  0  0  0  0  0  0  0  0  0  0  0
  184.1720  178.4470  144.2970 C   0  0  0  0  0  0  0  0  0  0  0  0
  186.3040  178.5510  138.2430 N   0  0  0  0  0  0  0  0  0  0  0  0
  185.0690  178.2500  138.6390 N   0  0  0  0  0  0  0  0  0  0  0  0
  183.1900  178.9900  142.4520 C   0  0  0  0  0  3  0  0  0  0  0  0
  185.7610  178.3100  140.9330 C   0  0  0  0  0  0  0  0  0  0  0  0
  182.8920  178.7890  144.6830 C   0  0  0  0  0  3  0  0  0  0  0  0
  187.3000  178.6350  139.1180 N   0  0  0  0  0  0  0  0  0  0  0  0
  186.6910  178.1410  143.2100 C   0  0  0  0  0  0  0  0  0  0  0  0
  188.1680  178.4380  141.3080 C   0  0  0  0  0  3  0  0  0  0  0  0
  183.5160  177.4790  140.2660 N   0  0  0  0  0  1  0  0  0  0  0  0
  185.2220  178.1560  145.1520 C   0  0  0  0  0  3  0  0  0  0  0  0
  186.5070  177.9920  144.6150 C   0  0  0  0  0  0  0  0  0  0  0  0
  182.2870  179.1350  143.4880 C   0  0  0  0  0  0  0  0  0  0  0  0
  184.3460  178.5250  142.9640 N   0  0  0  0  0  0  0  0  0  0  0  0
  187.9780  178.2360  142.6670 C   0  0  0  0  0  3  0  0  0  0  0  0
  189.9400  177.0850  145.9770 C   0  0  0  0  0  0  0  0  0  0  0  0
  189.7010  177.0990  147.3520 C   0  0  0  0  0  3  0  0  0  0  0  0
  187.6220  177.7050  145.5560 C   0  0  0  0  0  0  0  0  0  0  0  0
  188.4280  177.4080  147.8360 C   0  0  0  0  0  3  0  0  0  0  0  0
  188.9050  177.3800  145.0850 C   0  0  0  0  0  3  0  0  0  0  0  0
  187.3940  177.7050  146.9430 C   0  0  0  0  0  3  0  0  0  0  0  0
  191.2910  176.7510  145.4600 C   0  0  0  0  0  1  0  0  0  0  0  0
  180.8720  179.5660  143.3360 C   0  0  0  0  0  2  0  0  0  0  0  0
  180.2690  178.8770  142.2060 N   0  0  0  0  0  2  0  0  0  0  0  0
  178.9310  177.6090  140.0290 O   0  0  0  0  0  0  0  0  0  0  0  0
  179.8540  179.5630  141.0230 C   0  0  0  0  0  0  0  0  0  0  0  0
  179.2720  178.8140  139.9000 C   0  0  0  0  0  0  0  0  0  0  0  0
  179.6790  180.7530  138.4660 C   0  0  0  0  0  2  0  0  0  0  0  0
  179.5600  181.6000  139.7360 C   0  0  0  0  0  2  0  0  0  0  0  0
  180.0280  180.8490  140.9050 N   0  0  0  0  0  0  0  0  0  0  0  0
  179.0930  179.4700  138.6810 O   0  0  0  0  0  0  0  0  0  0  0  0
  1  8  2  0  0  0  0
  1 12  1  0  0  0  0
  2 13  1  0  0  0  0
  2  8  1  0  0  0  0
  3 17  1  0  0  0  0
  3 11  2  0  0  0  0
  4  9  2  0  0  0  0
  4 14  1  0  0  0  0
  5  6  1  0  0  0  0
  5 10  2  0  0  0  0
  6  2  2  0  0  0  0
  7 17  1  0  0  0  0
  7 16  2  0  0  0  0
  8  3  1  0  0  0  0
 10  1  1  0  0  0  0
 11 15  1  0  0  0  0
 12 18  2  0  0  0  0
 15 14  2  0  0  0  0
 15 21  1  0  0  0  0
 16  9  1  0  0  0  0
 17  4  1  0  0  0  0
 18 11  1  0  0  0  0
 19 20  1  0  0  0  0
 20 22  2  0  0  0  0
 21 24  2  0  0  0  0
 23 21  1  0  0  0  0
 23 19  2  0  0  0  0
 24 22  1  0  0  0  0
 25 19  1  0  0  0  0
 26 16  1  0  0  0  0
 27 26  1  0  0  0  0
 29 27  1  0  0  0  0
 30 28  2  0  0  0  0
 30 29  1  0  0  0  0
 31 34  1  0  0  0  0
 31 32  1  0  0  0  0
 32 33  1  0  0  0  0
 33 29  2  0  0  0  0
 34 30  1  0  0  0  0
M  END
>  <MODEL>
4

>  <REMARK>
 VINA RESULT:     -10.9      5.515      9.379
  Name = 
  3 active torsions:
  status: ('A' for Active; 'I' for Inactive)
    1  A    between atoms: N_3  and  C_17
    2  A    between atoms: C_12  and  C_28
    3  A    between atoms: C_17  and  C_29
                            x       y       z     vdW  Elec       q    Type
                         _______ _______ _______ _____ _____    ______ ____

>  <TORSDO>
F 3

$$$$
=
 OpenBabel11032421103D

 34 39  0  0  0  0  0  0  0  0999 V2000
  188.6060  177.1610  146.2160 C   0  0  0  0  0  0  0  0  0  0  0  0
  186.7940  178.4890  147.0600 C   0  0  0  0  0  0  0  0  0  0  0  0
  187.0380  178.0650  144.5690 C   0  0  0  0  0  0  0  0  0  0  0  0
  185.4420  178.6130  142.8730 C   0  0  0  0  0  0  0  0  0  0  0  0
  188.2260  177.3330  148.5140 N   0  0  0  0  0  0  0  0  0  0  0  0
  187.1980  178.1520  148.3110 N   0  0  0  0  0  0  0  0  0  0  0  0
  184.6200  178.4640  144.8640 C   0  0  0  0  0  3  0  0  0  0  0  0
  187.4330  177.9030  145.9390 C   0  0  0  0  0  0  0  0  0  0  0  0
  184.0980  178.8720  142.7050 C   0  0  0  0  0  3  0  0  0  0  0  0
  188.9400  176.8670  147.4950 N   0  0  0  0  0  0  0  0  0  0  0  0
  187.9810  177.7560  143.5400 C   0  0  0  0  0  0  0  0  0  0  0  0
  189.4590  176.7680  145.1910 C   0  0  0  0  0  3  0  0  0  0  0  0
  185.8990  179.5880  146.9300 N   0  0  0  0  0  1  0  0  0  0  0  0
  186.3700  178.4620  141.8560 C   0  0  0  0  0  3  0  0  0  0  0  0
  187.6650  178.0330  142.1780 C   0  0  0  0  0  0  0  0  0  0  0  0
  183.5950  178.7670  143.9890 C   0  0  0  0  0  0  0  0  0  0  0  0
  185.7690  178.4080  144.1640 N   0  0  0  0  0  0  0  0  0  0  0  0
  189.1670  177.0930  143.8740 C   0  0  0  0  0  3  0  0  0  0  0  0
  189.2920  178.1960  138.7440 C   0  0  0  0  0  0  0  0  0  0  0  0
  190.4500  177.4450  138.9550 C   0  0  0  0  0  3  0  0  0  0  0  0
  188.6350  177.8540  141.0650 C   0  0  0  0  0  0  0  0  0  0  0  0
  190.7040  176.8910  140.2110 C   0  0  0  0  0  3  0  0  0  0  0  0
  188.3880  178.3930  139.7920 C   0  0  0  0  0  3  0  0  0  0  0  0
  189.7990  177.0910  141.2590 C   0  0  0  0  0  3  0  0  0  0  0  0
  189.0180  178.7810  137.4070 C   0  0  0  0  0  1  0  0  0  0  0  0
  182.1740  178.9810  144.3750 C   0  0  0  0  0  2  0  0  0  0  0  0
  181.3070  178.2330  143.4780 N   0  0  0  0  0  2  0  0  0  0  0  0
  179.4630  176.8280  141.8160 O   0  0  0  0  0  0  0  0  0  0  0  0
  180.4330  178.8740  142.5470 C   0  0  0  0  0  0  0  0  0  0  0  0
  179.5930  178.0690  141.6470 C   0  0  0  0  0  0  0  0  0  0  0  0
  179.2500  180.0620  140.2720 C   0  0  0  0  0  2  0  0  0  0  0  0
  179.4740  180.8700  141.5530 C   0  0  0  0  0  2  0  0  0  0  0  0
  180.4020  180.1720  142.4500 N   0  0  0  0  0  0  0  0  0  0  0  0
  178.9310  178.7110  140.6010 O   0  0  0  0  0  0  0  0  0  0  0  0
  1 10  2  0  0  0  0
  2  6  1  0  0  0  0
  3  8  1  0  0  0  0
  4 17  1  0  0  0  0
  6  5  2  0  0  0  0
  8  1  1  0  0  0  0
  8  2  2  0  0  0  0
  9  4  2  0  0  0  0
  9 16  1  0  0  0  0
 10  5  1  0  0  0  0
 11 18  1  0  0  0  0
 11  3  2  0  0  0  0
 12  1  1  0  0  0  0
 13  2  1  0  0  0  0
 14 15  2  0  0  0  0
 14  4  1  0  0  0  0
 15 11  1  0  0  0  0
 16 26  1  0  0  0  0
 16  7  2  0  0  0  0
 17  3  1  0  0  0  0
 17  7  1  0  0  0  0
 18 12  2  0  0  0  0
 19 20  2  0  0  0  0
 19 23  1  0  0  0  0
 20 22  1  0  0  0  0
 21 24  1  0  0  0  0
 21 15  1  0  0  0  0
 22 24  2  0  0  0  0
 23 21  2  0  0  0  0
 25 19  1  0  0  0  0
 27 26  1  0  0  0  0
 29 27  1  0  0  0  0
 30 28  2  0  0  0  0
 30 29  1  0  0  0  0
 31 34  1  0  0  0  0
 31 32  1  0  0  0  0
 32 33  1  0  0  0  0
 33 29  2  0  0  0  0
 34 30  1  0  0  0  0
M  END
>  <MODEL>
5

>  <REMARK>
 VINA RESULT:     -10.9      4.580      8.512
  Name = 
  3 active torsions:
  status: ('A' for Active; 'I' for Inactive)
    1  A    between atoms: N_3  and  C_17
    2  A    between atoms: C_12  and  C_28
    3  A    between atoms: C_17  and  C_29
                            x       y       z     vdW  Elec       q    Type
                         _______ _______ _______ _____ _____    ______ ____

>  <TORSDO>
F 3

$$$$
=
 OpenBabel11032421103D

 34 39  0  0  0  0  0  0  0  0999 V2000
  182.7220  178.7560  141.9010 C   0  0  0  0  0  0  0  0  0  0  0  0
  183.5340  179.5350  139.7810 C   0  0  0  0  0  0  0  0  0  0  0  0
  185.1420  178.6670  141.5440 C   0  0  0  0  0  0  0  0  0  0  0  0
  187.4750  178.2320  141.2470 C   0  0  0  0  0  0  0  0  0  0  0  0
  181.2350  179.3040  140.1850 N   0  0  0  0  0  0  0  0  0  0  0  0
  182.2420  179.6520  139.3870 N   0  0  0  0  0  0  0  0  0  0  0  0
  186.3280  178.2670  139.4170 C   0  0  0  0  0  3  0  0  0  0  0  0
  183.8290  178.9660  141.0450 C   0  0  0  0  0  0  0  0  0  0  0  0
  188.4020  177.9690  140.2610 C   0  0  0  0  0  3  0  0  0  0  0  0
  181.4600  178.8930  141.4290 N   0  0  0  0  0  0  0  0  0  0  0  0
  185.3160  178.4760  142.9500 C   0  0  0  0  0  0  0  0  0  0  0  0
  182.9070  178.4590  143.2460 C   0  0  0  0  0  3  0  0  0  0  0  0
  184.5230  180.2000  139.0020 N   0  0  0  0  0  1  0  0  0  0  0  0
  187.7090  178.1820  142.6110 C   0  0  0  0  0  3  0  0  0  0  0  0
  186.6240  178.3100  143.4900 C   0  0  0  0  0  0  0  0  0  0  0  0
  187.6450  177.9920  139.1030 C   0  0  0  0  0  0  0  0  0  0  0  0
  186.2420  178.4510  140.7480 N   0  0  0  0  0  0  0  0  0  0  0  0
  184.1880  178.3550  143.7700 C   0  0  0  0  0  3  0  0  0  0  0  0
  188.3020  177.5190  146.8100 C   0  0  0  0  0  0  0  0  0  0  0  0
  187.3650  178.0190  147.7160 C   0  0  0  0  0  3  0  0  0  0  0  0
  186.8990  178.2270  144.9490 C   0  0  0  0  0  0  0  0  0  0  0  0
  186.1930  178.6170  147.2480 C   0  0  0  0  0  3  0  0  0  0  0  0
  188.0670  177.6160  145.4350 C   0  0  0  0  0  3  0  0  0  0  0  0
  185.9600  178.7170  145.8730 C   0  0  0  0  0  3  0  0  0  0  0  0
  189.5460  176.8770  147.3050 C   0  0  0  0  0  1  0  0  0  0  0  0
  188.1730  177.7860  137.7280 C   0  0  0  0  0  2  0  0  0  0  0  0
  188.4380  176.3730  137.5130 N   0  0  0  0  0  2  0  0  0  0  0  0
  189.0150  173.6420  136.9220 O   0  0  0  0  0  0  0  0  0  0  0  0
  189.7630  175.8560  137.3710 C   0  0  0  0  0  0  0  0  0  0  0  0
  189.9770  174.4130  137.1780 C   0  0  0  0  0  0  0  0  0  0  0  0
  192.3240  174.7350  137.7840 C   0  0  0  0  0  2  0  0  0  0  0  0
  192.1690  176.1640  137.2550 C   0  0  0  0  0  2  0  0  0  0  0  0
  190.7970  176.6430  137.4570 N   0  0  0  0  0  0  0  0  0  0  0  0
  191.2750  173.9120  137.2760 O   0  0  0  0  0  0  0  0  0  0  0  0
  1 12  1  0  0  0  0
  2  8  1  0  0  0  0
  3 11  2  0  0  0  0
  4 14  1  0  0  0  0
  5 10  2  0  0  0  0
  6  2  2  0  0  0  0
  6  5  1  0  0  0  0
  7 17  1  0  0  0  0
  8  3  1  0  0  0  0
  8  1  2  0  0  0  0
  9  4  2  0  0  0  0
 10  1  1  0  0  0  0
 11 15  1  0  0  0  0
 11 18  1  0  0  0  0
 12 18  2  0  0  0  0
 13  2  1  0  0  0  0
 14 15  2  0  0  0  0
 15 21  1  0  0  0  0
 16  7  2  0  0  0  0
 16  9  1  0  0  0  0
 17  4  1  0  0  0  0
 17  3  1  0  0  0  0
 19 25  1  0  0  0  0
 19 20  1  0  0  0  0
 21 23  1  0  0  0  0
 21 24  2  0  0  0  0
 22 20  2  0  0  0  0
 23 19  2  0  0  0  0
 24 22  1  0  0  0  0
 26 16  1  0  0  0  0
 27 26  1  0  0  0  0
 28 30  2  0  0  0  0
 29 33  2  0  0  0  0
 29 27  1  0  0  0  0
 30 34  1  0  0  0  0
 30 29  1  0  0  0  0
 32 33  1  0  0  0  0
 32 31  1  0  0  0  0
 34 31  1  0  0  0  0
M  END
>  <MODEL>
6

>  <REMARK>
 VINA RESULT:     -10.7      3.532      6.173
  Name = 
  3 active torsions:
  status: ('A' for Active; 'I' for Inactive)
    1  A    between atoms: N_3  and  C_17
    2  A    between atoms: C_12  and  C_28
    3  A    between atoms: C_17  and  C_29
                            x       y       z     vdW  Elec       q    Type
                         _______ _______ _______ _____ _____    ______ ____

>  <TORSDO>
F 3

$$$$
=
 OpenBabel11032421103D

 34 39  0  0  0  0  0  0  0  0999 V2000
  185.9890  178.2990  146.0940 C   0  0  0  0  0  0  0  0  0  0  0  0
  187.7780  177.3030  144.8430 C   0  0  0  0  0  0  0  0  0  0  0  0
  185.7270  178.2220  143.6620 C   0  0  0  0  0  0  0  0  0  0  0  0
  185.4530  178.4990  141.3030 C   0  0  0  0  0  0  0  0  0  0  0  0
  187.9840  177.6950  147.1470 N   0  0  0  0  0  0  0  0  0  0  0  0
  188.4770  177.2270  146.0030 N   0  0  0  0  0  0  0  0  0  0  0  0
  187.5070  178.3780  141.9600 C   0  0  0  0  0  3  0  0  0  0  0  0
  186.5200  177.9570  144.8290 C   0  0  0  0  0  0  0  0  0  0  0  0
  186.1880  178.6280  140.1420 C   0  0  0  0  0  3  0  0  0  0  0  0
  186.7540  178.1940  147.2070 N   0  0  0  0  0  0  0  0  0  0  0  0
  184.3380  178.5190  143.8280 C   0  0  0  0  0  0  0  0  0  0  0  0
  184.6630  178.6960  146.2260 C   0  0  0  0  0  3  0  0  0  0  0  0
  188.2360  176.5210  143.7450 N   0  0  0  0  0  1  0  0  0  0  0  0
  184.0810  178.6490  141.4100 C   0  0  0  0  0  3  0  0  0  0  0  0
  183.4980  178.6560  142.6850 C   0  0  0  0  0  0  0  0  0  0  0  0
  187.4950  178.5510  140.5890 C   0  0  0  0  0  0  0  0  0  0  0  0
  186.2310  178.3090  142.3860 N   0  0  0  0  0  0  0  0  0  0  0  0
  183.8400  178.7710  145.1110 C   0  0  0  0  0  3  0  0  0  0  0  0
  179.9140  179.5780  141.8080 C   0  0  0  0  0  0  0  0  0  0  0  0
  179.2510  179.2550  142.9920 C   0  0  0  0  0  3  0  0  0  0  0  0
  182.0250  178.8440  142.7760 C   0  0  0  0  0  0  0  0  0  0  0  0
  179.9660  178.7340  144.0730 C   0  0  0  0  0  3  0  0  0  0  0  0
  181.2940  179.3790  141.7030 C   0  0  0  0  0  3  0  0  0  0  0  0
  181.3460  178.5340  143.9660 C   0  0  0  0  0  3  0  0  0  0  0  0
  179.1570  180.1380  140.6590 C   0  0  0  0  0  1  0  0  0  0  0  0
  188.7030  178.6120  139.7230 C   0  0  0  0  0  2  0  0  0  0  0  0
  188.3140  178.4550  138.3300 N   0  0  0  0  0  2  0  0  0  0  0  0
  187.6960  178.2490  135.5530 O   0  0  0  0  0  0  0  0  0  0  0  0
  189.0930  177.7000  137.3990 C   0  0  0  0  0  0  0  0  0  0  0  0
  188.6420  177.5530  136.0070 C   0  0  0  0  0  0  0  0  0  0  0  0
  190.2040  175.6880  135.7550 C   0  0  0  0  0  2  0  0  0  0  0  0
  191.0430  176.3650  136.8420 C   0  0  0  0  0  2  0  0  0  0  0  0
  190.1820  177.0960  137.7790 N   0  0  0  0  0  0  0  0  0  0  0  0
  189.2920  176.6290  135.1890 O   0  0  0  0  0  0  0  0  0  0  0  0
  1 12  1  0  0  0  0
  1 10  2  0  0  0  0
  2  6  1  0  0  0  0
  3 11  2  0  0  0  0
  3  8  1  0  0  0  0
  4 14  1  0  0  0  0
  4 17  1  0  0  0  0
  5 10  1  0  0  0  0
  6  5  2  0  0  0  0
  7 17  1  0  0  0  0
  8  2  2  0  0  0  0
  8  1  1  0  0  0  0
  9 16  1  0  0  0  0
  9  4  2  0  0  0  0
 11 18  1  0  0  0  0
 13  2  1  0  0  0  0
 14 15  2  0  0  0  0
 15 21  1  0  0  0  0
 15 11  1  0  0  0  0
 16  7  2  0  0  0  0
 17  3  1  0  0  0  0
 18 12  2  0  0  0  0
 19 20  1  0  0  0  0
 20 22  2  0  0  0  0
 21 24  2  0  0  0  0
 23 19  2  0  0  0  0
 23 21  1  0  0  0  0
 24 22  1  0  0  0  0
 25 19  1  0  0  0  0
 26 16  1  0  0  0  0
 27 26  1  0  0  0  0
 28 30  2  0  0  0  0
 29 33  2  0  0  0  0
 29 27  1  0  0  0  0
 30 29  1  0  0  0  0
 31 32  1  0  0  0  0
 32 33  1  0  0  0  0
 34 31  1  0  0  0  0
 34 30  1  0  0  0  0
M  END
>  <MODEL>
7

>  <REMARK>
 VINA RESULT:     -10.7      2.576      3.999
  Name = 
  3 active torsions:
  status: ('A' for Active; 'I' for Inactive)
    1  A    between atoms: N_3  and  C_17
    2  A    between atoms: C_12  and  C_28
    3  A    between atoms: C_17  and  C_29
                            x       y       z     vdW  Elec       q    Type
                         _______ _______ _______ _____ _____    ______ ____

>  <TORSDO>
F 3

$$$$
=
 OpenBabel11032421103D

 34 39  0  0  0  0  0  0  0  0999 V2000
  186.8490  178.2190  146.3080 C   0  0  0  0  0  0  0  0  0  0  0  0
  188.7060  177.1730  145.2060 C   0  0  0  0  0  0  0  0  0  0  0  0
  186.7250  178.0320  143.8710 C   0  0  0  0  0  0  0  0  0  0  0  0
  186.5850  178.2000  141.4890 C   0  0  0  0  0  0  0  0  0  0  0  0
  188.7820  177.6700  147.4970 N   0  0  0  0  0  0  0  0  0  0  0  0
  189.3400  177.1520  146.4050 N   0  0  0  0  0  0  0  0  0  0  0  0
  188.5980  178.1160  142.2660 C   0  0  0  0  0  3  0  0  0  0  0  0
  187.4520  177.8220  145.0910 C   0  0  0  0  0  0  0  0  0  0  0  0
  187.3840  178.2790  140.3680 C   0  0  0  0  0  3  0  0  0  0  0  0
  187.5500  178.1670  147.4650 N   0  0  0  0  0  0  0  0  0  0  0  0
  185.3290  178.3310  143.9450 C   0  0  0  0  0  0  0  0  0  0  0  0
  185.5180  178.6170  146.3470 C   0  0  0  0  0  3  0  0  0  0  0  0
  189.2260  176.3440  144.1720 N   0  0  0  0  0  1  0  0  0  0  0  0
  185.2080  178.3510  141.5130 C   0  0  0  0  0  3  0  0  0  0  0  0
  184.5540  178.4130  142.7510 C   0  0  0  0  0  0  0  0  0  0  0  0
  188.6640  178.2270  140.8900 C   0  0  0  0  0  0  0  0  0  0  0  0
  187.3000  178.0620  142.6220 N   0  0  0  0  0  0  0  0  0  0  0  0
  184.7590  178.6390  145.1850 C   0  0  0  0  0  3  0  0  0  0  0  0
  180.9690  178.8410  141.5560 C   0  0  0  0  0  0  0  0  0  0  0  0
  180.2980  179.0240  142.7660 C   0  0  0  0  0  3  0  0  0  0  0  0
  183.0790  178.6000  142.7500 C   0  0  0  0  0  0  0  0  0  0  0  0
  181.0080  179.0030  143.9690 C   0  0  0  0  0  3  0  0  0  0  0  0
  182.3520  178.6370  141.5480 C   0  0  0  0  0  3  0  0  0  0  0  0
  182.3910  178.7960  143.9600 C   0  0  0  0  0  3  0  0  0  0  0  0
  180.2170  178.8690  140.2760 C   0  0  0  0  0  1  0  0  0  0  0  0
  189.9180  178.2530  140.0920 C   0  0  0  0  0  2  0  0  0  0  0  0
  190.0710  176.9930  139.3800 N   0  0  0  0  0  2  0  0  0  0  0  0
  190.1870  174.5170  137.9680 O   0  0  0  0  0  0  0  0  0  0  0  0
  189.7790  176.8610  137.9870 C   0  0  0  0  0  0  0  0  0  0  0  0
  189.9730  175.5700  137.3110 C   0  0  0  0  0  0  0  0  0  0  0  0
  189.8880  176.7410  135.1660 C   0  0  0  0  0  2  0  0  0  0  0  0
  189.0160  177.7820  135.8740 C   0  0  0  0  0  2  0  0  0  0  0  0
  189.3860  177.8880  137.2900 N   0  0  0  0  0  0  0  0  0  0  0  0
  189.9050  175.5290  135.9180 O   0  0  0  0  0  0  0  0  0  0  0  0
  1 12  1  0  0  0  0
  1 10  2  0  0  0  0
  2  6  1  0  0  0  0
  3 11  2  0  0  0  0
  3  8  1  0  0  0  0
  4 14  1  0  0  0  0
  4 17  1  0  0  0  0
  6  5  2  0  0  0  0
  7 17  1  0  0  0  0
  8  2  2  0  0  0  0
  8  1  1  0  0  0  0
  9 16  1  0  0  0  0
  9  4  2  0  0  0  0
 10  5  1  0  0  0  0
 11 18  1  0  0  0  0
 13  2  1  0  0  0  0
 14 15  2  0  0  0  0
 15 11  1  0  0  0  0
 16  7  2  0  0  0  0
 17  3  1  0  0  0  0
 18 12  2  0  0  0  0
 19 20  1  0  0  0  0
 20 22  2  0  0  0  0
 21 15  1  0  0  0  0
 21 24  2  0  0  0  0
 23 19  2  0  0  0  0
 23 21  1  0  0  0  0
 24 22  1  0  0  0  0
 25 19  1  0  0  0  0
 26 16  1  0  0  0  0
 27 26  1  0  0  0  0
 29 27  1  0  0  0  0
 30 28  2  0  0  0  0
 30 29  1  0  0  0  0
 31 32  1  0  0  0  0
 31 34  1  0  0  0  0
 32 33  1  0  0  0  0
 33 29  2  0  0  0  0
 34 30  1  0  0  0  0
M  END
>  <MODEL>
8

>  <REMARK>
 VINA RESULT:     -10.4      2.176      3.248
  Name = 
  3 active torsions:
  status: ('A' for Active; 'I' for Inactive)
    1  A    between atoms: N_3  and  C_17
    2  A    between atoms: C_12  and  C_28
    3  A    between atoms: C_17  and  C_29
                            x       y       z     vdW  Elec       q    Type
                         _______ _______ _______ _____ _____    ______ ____

>  <TORSDO>
F 3

$$$$
=
 OpenBabel11032421103D

 34 39  0  0  0  0  0  0  0  0999 V2000
  187.0010  178.4960  139.6070 C   0  0  0  0  0  0  0  0  0  0  0  0
  185.0410  177.8950  138.3600 C   0  0  0  0  0  0  0  0  0  0  0  0
  184.8860  178.4300  140.8370 C   0  0  0  0  0  0  0  0  0  0  0  0
  182.8780  178.7070  142.1060 C   0  0  0  0  0  0  0  0  0  0  0  0
  187.0930  178.2630  137.2850 N   0  0  0  0  0  0  0  0  0  0  0  0
  185.8070  177.9260  137.2400 N   0  0  0  0  0  0  0  0  0  0  0  0
  182.6370  178.9680  139.9760 C   0  0  0  0  0  3  0  0  0  0  0  0
  185.6010  178.2950  139.5990 C   0  0  0  0  0  0  0  0  0  0  0  0
  181.5400  179.0030  141.9510 C   0  0  0  0  0  3  0  0  0  0  0  0
  187.6940  178.5140  138.4430 N   0  0  0  0  0  0  0  0  0  0  0  0
  185.6270  178.4500  142.0600 C   0  0  0  0  0  0  0  0  0  0  0  0
  187.6960  178.6270  140.8040 C   0  0  0  0  0  3  0  0  0  0  0  0
  183.7780  177.2430  138.2760 N   0  0  0  0  0  1  0  0  0  0  0  0
  183.5440  178.5870  143.3140 C   0  0  0  0  0  3  0  0  0  0  0  0
  184.9400  178.4500  143.3080 C   0  0  0  0  0  0  0  0  0  0  0  0
  181.4120  179.1690  140.5830 C   0  0  0  0  0  0  0  0  0  0  0  0
  183.5310  178.6440  140.9290 N   0  0  0  0  0  0  0  0  0  0  0  0
  187.0200  178.5690  142.0150 C   0  0  0  0  0  3  0  0  0  0  0  0
  187.5610  177.6930  145.9570 C   0  0  0  0  0  0  0  0  0  0  0  0
  186.9030  178.1020  147.1180 C   0  0  0  0  0  3  0  0  0  0  0  0
  185.6340  178.3480  144.6190 C   0  0  0  0  0  0  0  0  0  0  0  0
  185.6110  178.6280  147.0390 C   0  0  0  0  0  3  0  0  0  0  0  0
  186.9280  177.8100  144.7160 C   0  0  0  0  0  3  0  0  0  0  0  0
  184.9790  178.7460  145.7980 C   0  0  0  0  0  3  0  0  0  0  0  0
  188.9320  177.1290  146.0390 C   0  0  0  0  0  1  0  0  0  0  0  0
  180.1440  179.4830  139.8720 C   0  0  0  0  0  2  0  0  0  0  0  0
  180.4240  179.7520  138.4700 N   0  0  0  0  0  2  0  0  0  0  0  0
  180.7930  180.3060  135.6960 O   0  0  0  0  0  0  0  0  0  0  0  0
  180.2830  181.0530  137.8970 C   0  0  0  0  0  0  0  0  0  0  0  0
  180.6020  181.2740  136.4780 C   0  0  0  0  0  0  0  0  0  0  0  0
  180.6860  183.6770  136.9280 C   0  0  0  0  0  2  0  0  0  0  0  0
  179.7010  183.4040  138.0680 C   0  0  0  0  0  2  0  0  0  0  0  0
  179.9180  182.0660  138.6290 N   0  0  0  0  0  0  0  0  0  0  0  0
  180.6790  182.5860  136.0080 O   0  0  0  0  0  0  0  0  0  0  0  0
  1 12  1  0  0  0  0
  2  8  1  0  0  0  0
  3 17  1  0  0  0  0
  3 11  2  0  0  0  0
  4 14  1  0  0  0  0
  5 10  2  0  0  0  0
  6  5  1  0  0  0  0
  6  2  2  0  0  0  0
  7 16  2  0  0  0  0
  7 17  1  0  0  0  0
  8  1  2  0  0  0  0
  8  3  1  0  0  0  0
  9  4  2  0  0  0  0
 10  1  1  0  0  0  0
 11 15  1  0  0  0  0
 12 18  2  0  0  0  0
 13  2  1  0  0  0  0
 15 14  2  0  0  0  0
 15 21  1  0  0  0  0
 16  9  1  0  0  0  0
 17  4  1  0  0  0  0
 18 11  1  0  0  0  0
 19 25  1  0  0  0  0
 19 20  1  0  0  0  0
 21 23  1  0  0  0  0
 21 24  2  0  0  0  0
 22 20  2  0  0  0  0
 23 19  2  0  0  0  0
 24 22  1  0  0  0  0
 26 16  1  0  0  0  0
 27 26  1  0  0  0  0
 28 30  2  0  0  0  0
 29 27  1  0  0  0  0
 29 33  2  0  0  0  0
 30 29  1  0  0  0  0
 31 32  1  0  0  0  0
 32 33  1  0  0  0  0
 34 30  1  0  0  0  0
 34 31  1  0  0  0  0
M  END
>  <MODEL>
9

>  <REMARK>
 VINA RESULT:     -10.4      5.568      9.394
  Name = 
  3 active torsions:
  status: ('A' for Active; 'I' for Inactive)
    1  A    between atoms: N_3  and  C_17
    2  A    between atoms: C_12  and  C_28
    3  A    between atoms: C_17  and  C_29
                            x       y       z     vdW  Elec       q    Type
                         _______ _______ _______ _____ _____    ______ ____

>  <TORSDO>
F 3

$$$$
