=
 OpenBabel11042412423D

 57 61  0  0  1  0  0  0  0  0999 V2000
  190.0480  176.1590  141.6770 C   0  0  0  0  0  2  0  0  0  0  0  0
  194.6840  175.7210  137.0150 C   0  0  0  0  0  3  0  0  0  0  0  0
  187.5010  177.2090  136.1000 C   0  0  0  0  0  3  0  0  0  0  0  0
  192.4620  175.8900  137.9920 C   0  0  0  0  0  3  0  0  0  0  0  0
  183.1180  177.9790  138.1350 C   0  0  0  0  0  3  0  0  0  0  0  0
  194.1790  175.9560  134.7960 N   0  0  0  0  0  0  0  0  0  0  0  0
  185.6890  177.6360  137.7440 C   0  0  0  0  0  0  0  0  0  0  0  0
  191.8170  176.3330  134.8850 C   0  0  0  0  0  3  0  0  0  0  0  0
  190.3070  176.3890  136.8720 C   0  0  0  0  0  3  0  0  0  0  0  0
  186.2620  178.5900  139.9700 C   0  0  0  0  0  2  0  0  0  0  0  0
  186.1330  176.8070  136.5740 C   0  0  2  0  0  3  0  0  0  0  0  0
  189.4610  176.9710  134.5940 C   0  0  0  0  0  2  0  0  0  0  0  0
  188.0740  176.6050  135.0540 C   0  0  0  0  0  3  0  0  0  0  0  0
  191.0820  176.0810  137.9800 C   0  0  0  0  0  0  0  0  0  0  0  0
  190.9110  176.0900  140.4550 C   0  0  0  0  0  3  0  0  0  0  0  0
  189.2950  177.4480  141.7150 C   0  0  0  0  0  0  0  0  0  0  0  0
  195.1550  175.7690  135.7090 C   0  0  0  0  0  0  0  0  0  0  0  0
  186.6290  178.0890  138.6820 O   0  0  0  0  0  0  0  0  0  0  0  0
  186.1170  175.3380  136.9900 C   0  0  0  0  0  1  0  0  0  0  0  0
  188.2270  177.5620  140.9900 N   0  0  0  0  0  0  0  0  0  0  0  0
  193.3170  175.8910  136.9100 C   0  0  0  0  0  0  0  0  0  0  0  0
  187.5000  178.8080  140.8290 C   0  0  0  0  0  2  0  0  0  0  0  0
  190.5740  176.5130  135.5000 C   0  0  0  0  0  0  0  0  0  0  0  0
  190.3440  176.0700  139.2420 C   0  0  0  0  0  3  0  0  0  0  0  0
  193.0310  176.0370  135.4930 C   0  0  0  0  0  0  0  0  0  0  0  0
  184.4040  177.8200  137.9220 C   0  0  0  0  0  0  0  0  0  0  0  0
  180.3580  181.2770  137.5810 C   0  0  2  0  0  3  0  0  0  0  0  0
  182.3750  179.1790  137.6270 C   0  0  2  0  0  3  0  0  0  0  0  0
  182.2890  180.2530  138.6900 C   0  0  0  0  0  0  0  0  0  0  0  0
  179.5230  179.6600  137.5610 S   0  0  0  0  0  0  0  0  0  0  0  0
  181.3350  181.2630  138.6090 O   0  0  0  0  0  0  0  0  0  0  0  0
  183.1340  180.2920  139.6270 O   0  0  0  0  0  0  0  0  0  0  0  0
  181.0220  178.7510  137.0150 C   0  0  1  0  0  3  0  0  0  0  0  0
  179.8620  178.3810  134.9240 O   0  0  0  0  0  1  0  0  0  0  0  0
  181.9900  177.5730  135.1610 O   0  0  0  0  0  1  0  0  0  0  0  0
  181.1130  178.6110  135.4970 C   0  0  0  0  0  3  0  0  0  0  0  0
  179.3520  182.4200  137.7870 C   0  0  1  0  0  3  0  0  0  0  0  0
  179.3370  182.8550  139.1130 O   0  0  0  0  0  1  0  0  0  0  0  0
  180.0740  183.1760  135.6160 O   0  0  0  0  0  1  0  0  0  0  0  0
  179.5680  183.6080  136.8460 C   0  0  2  0  0  3  0  0  0  0  0  0
  181.8580  184.5840  137.3270 N   0  0  0  0  0  1  0  0  0  0  0  0
  179.9220  185.6810  138.0090 O   0  0  0  0  0  0  0  0  0  0  0  0
  180.4370  184.6830  137.4310 C   0  0  0  0  0  0  0  0  0  0  0  0
  196.5880  175.6310  135.3450 C   0  0  0  0  0  2  0  0  0  0  0  0
  197.9540  173.7250  136.1400 C   0  0  0  0  0  1  0  0  0  0  0  0
  197.3830  175.0790  136.5160 C   0  0  0  0  0  2  0  0  0  0  0  0
  189.9240  178.6220  142.4140 C   0  0  0  0  0  2  0  0  0  0  0  0
  189.2040  178.9560  143.5700 O   0  0  0  0  0  0  0  0  0  0  0  0
  189.9230  176.5890  146.2130 O   0  0  0  0  0  0  0  0  0  0  0  0
  189.0250  177.2920  145.3730 C   0  0  2  0  0  3  0  0  0  0  0  0
  189.8370  178.4070  144.7130 C   0  0  1  0  0  3  0  0  0  0  0  0
  191.2570  176.7680  145.8900 C   0  0  0  0  0  0  0  0  0  0  0  0
  192.1950  176.2350  146.6010 N   0  0  0  0  0  2  0  0  0  0  0  0
  191.5980  177.8980  144.5560 S   0  0  0  0  0  0  0  0  0  0  0  0
  188.0290  178.0010  147.4260 O   0  0  0  0  0  1  0  0  0  0  0  0
  186.6920  178.1550  145.5660 O   0  0  0  0  0  0  0  0  0  0  0  0
  187.9110  177.8870  146.1760 C   0  0  0  0  0  0  0  0  0  0  0  0
  1 16  1  0  0  0  0
  3 11  1  0  0  0  0
  6 25  2  0  0  0  0
  6 17  1  0  0  0  0
  7 26  2  0  0  0  0
  7 18  1  0  0  0  0
  8 25  1  0  0  0  0
  8 23  2  0  0  0  0
  9 14  2  0  0  0  0
 10 22  1  0  0  0  0
 11 19  1  1  0  0  0
 11  7  1  0  0  0  0
 12 13  1  0  0  0  0
 12 23  1  0  0  0  0
 13  3  2  0  0  0  0
 14  4  1  0  0  0  0
 14 24  1  0  0  0  0
 15  1  1  0  0  0  0
 16 47  1  0  0  0  0
 17  2  2  0  0  0  0
 18 10  1  0  0  0  0
 20 16  2  0  0  0  0
 21  2  1  0  0  0  0
 21  4  2  0  0  0  0
 22 20  1  0  0  0  0
 23  9  1  0  0  0  0
 24 15  2  0  0  0  0
 25 21  1  0  0  0  0
 26  5  2  0  0  0  0
 27 37  1  1  0  0  0
 27 31  1  0  0  0  0
 28  5  1  1  0  0  0
 28 29  1  0  0  0  0
 29 32  2  0  0  0  0
 30 27  1  0  0  0  0
 31 29  1  0  0  0  0
 33 36  1  6  0  0  0
 33 30  1  0  0  0  0
 33 28  1  0  0  0  0
 34 36  1  0  0  0  0
 35 36  1  0  0  0  0
 37 38  1  1  0  0  0
 40 39  1  6  0  0  0
 40 43  1  0  0  0  0
 40 37  1  0  0  0  0
 41 43  1  0  0  0  0
 43 42  2  0  0  0  0
 44 17  1  0  0  0  0
 44 46  1  0  0  0  0
 45 46  1  0  0  0  0
 47 48  1  0  0  0  0
 50 57  1  1  0  0  0
 50 49  1  0  0  0  0
 51 48  1  6  0  0  0
 51 50  1  0  0  0  0
 52 49  1  0  0  0  0
 52 53  2  0  0  0  0
 54 51  1  0  0  0  0
 54 52  1  0  0  0  0
 56 57  2  0  0  0  0
 57 55  1  0  0  0  0
M  END
>  <MODEL>
1

>  <REMARK>
 VINA RESULT:      -7.1      0.000      0.000
  Name = 
  11 active torsions:
  status: ('A' for Active; 'I' for Inactive)
    1  A    between atoms: C_4  and  C_22
    2  A    between atoms: C_5  and  C_51
    3  A    between atoms: C_12  and  C_16
    4  A    between atoms: C_17  and  C_39
    5  A    between atoms: C_17  and  C_46
    6  A    between atoms: C_22  and  C_56
    7  A    between atoms: C_27  and  O_36
    8  A    between atoms: C_30  and  C_54
    9  A    between atoms: C_31  and  C_56
   10  A    between atoms: C_35  and  C_40
   11  A    between atoms: O_36  and  C_40
                            x       y       z     vdW  Elec       q    Type
                         _______ _______ _______ _____ _____    ______ ____

>  <TORSDO>
F 11

$$$$
=
 OpenBabel11042412423D

 57 61  0  0  1  0  0  0  0  0999 V2000
  189.6820  176.3460  141.6790 C   0  0  0  0  0  2  0  0  0  0  0  0
  194.3120  175.9930  137.0040 C   0  0  0  0  0  3  0  0  0  0  0  0
  187.0910  177.2980  136.1060 C   0  0  0  0  0  3  0  0  0  0  0  0
  192.0900  176.1140  137.9870 C   0  0  0  0  0  3  0  0  0  0  0  0
  182.6970  177.9730  138.1510 C   0  0  0  0  0  3  0  0  0  0  0  0
  193.7940  176.2020  134.7850 N   0  0  0  0  0  0  0  0  0  0  0  0
  185.2750  177.6900  137.7530 C   0  0  0  0  0  0  0  0  0  0  0  0
  191.4240  176.5210  134.8800 C   0  0  0  0  0  3  0  0  0  0  0  0
  189.9190  176.5520  136.8720 C   0  0  0  0  0  3  0  0  0  0  0  0
  185.8310  178.6720  139.9710 C   0  0  0  0  0  2  0  0  0  0  0  0
  185.7350  176.8650  136.5870 C   0  0  2  0  0  3  0  0  0  0  0  0
  189.0520  177.0990  134.5940 C   0  0  0  0  0  2  0  0  0  0  0  0
  187.6760  176.7020  135.0610 C   0  0  0  0  0  3  0  0  0  0  0  0
  190.7060  176.2700  137.9790 C   0  0  0  0  0  0  0  0  0  0  0  0
  190.5430  176.2900  140.4550 C   0  0  0  0  0  3  0  0  0  0  0  0
  188.8980  177.6160  141.7120 C   0  0  0  0  0  0  0  0  0  0  0  0
  194.7770  176.0450  135.6960 C   0  0  0  0  0  0  0  0  0  0  0  0
  186.2070  178.1720  138.6840 O   0  0  0  0  0  0  0  0  0  0  0  0
  185.7580  175.3990  137.0110 C   0  0  0  0  0  1  0  0  0  0  0  0
  187.8250  177.7000  140.9900 N   0  0  0  0  0  0  0  0  0  0  0  0
  192.9410  176.1290  136.9020 C   0  0  0  0  0  0  0  0  0  0  0  0
  187.0670  178.9260  140.8240 C   0  0  0  0  0  2  0  0  0  0  0  0
  190.1790  176.6750  135.4990 C   0  0  0  0  0  0  0  0  0  0  0  0
  189.9720  176.2490  139.2440 C   0  0  0  0  0  3  0  0  0  0  0  0
  192.6460  176.2590  135.4860 C   0  0  0  0  0  0  0  0  0  0  0  0
  183.9860  177.8440  137.9340 C   0  0  0  0  0  0  0  0  0  0  0  0
  180.0430  181.3710  137.7010 C   0  0  2  0  0  3  0  0  0  0  0  0
  181.9240  179.1500  137.6390 C   0  0  2  0  0  3  0  0  0  0  0  0
  182.1110  180.3550  138.5350 C   0  0  0  0  0  0  0  0  0  0  0  0
  179.1460  179.8320  138.0750 S   0  0  0  0  0  0  0  0  0  0  0  0
  181.2110  181.4150  138.5060 O   0  0  0  0  0  0  0  0  0  0  0  0
  183.1330  180.4480  139.2710 O   0  0  0  0  0  0  0  0  0  0  0  0
  180.4550  178.7510  137.3740 C   0  0  1  0  0  3  0  0  0  0  0  0
  181.2240  178.9390  135.0870 O   0  0  0  0  0  1  0  0  0  0  0  0
  178.9720  178.8900  135.4910 O   0  0  0  0  0  1  0  0  0  0  0  0
  180.2210  178.4130  135.9020 C   0  0  0  0  0  3  0  0  0  0  0  0
  179.1580  182.6030  137.9410 C   0  0  1  0  0  3  0  0  0  0  0  0
  179.2490  183.0490  139.2600 O   0  0  0  0  0  1  0  0  0  0  0  0
  179.8540  183.2710  135.7340 O   0  0  0  0  0  1  0  0  0  0  0  0
  179.4330  183.7580  136.9760 C   0  0  2  0  0  3  0  0  0  0  0  0
  181.8090  184.5890  137.2870 N   0  0  0  0  0  1  0  0  0  0  0  0
  180.0030  185.7750  138.1530 O   0  0  0  0  0  0  0  0  0  0  0  0
  180.4090  184.7650  137.5110 C   0  0  0  0  0  0  0  0  0  0  0  0
  196.2130  175.9400  135.3270 C   0  0  0  0  0  2  0  0  0  0  0  0
  198.3240  174.7030  135.7050 C   0  0  0  0  0  1  0  0  0  0  0  0
  196.8210  174.6790  135.9160 C   0  0  0  0  0  2  0  0  0  0  0  0
  189.5010  178.8100  142.4020 C   0  0  0  0  0  2  0  0  0  0  0  0
  190.3580  178.4050  143.4360 O   0  0  0  0  0  0  0  0  0  0  0  0
  189.3100  177.4870  146.7780 O   0  0  0  0  0  0  0  0  0  0  0  0
  190.3060  177.7950  145.8180 C   0  0  2  0  0  3  0  0  0  0  0  0
  189.6160  177.7560  144.4540 C   0  0  1  0  0  3  0  0  0  0  0  0
  188.0150  177.6820  146.3300 C   0  0  0  0  0  0  0  0  0  0  0  0
  186.9990  177.3910  147.0730 N   0  0  0  0  0  2  0  0  0  0  0  0
  187.8390  178.1930  144.6320 S   0  0  0  0  0  0  0  0  0  0  0  0
  192.1340  176.6830  146.8820 O   0  0  0  0  0  1  0  0  0  0  0  0
  191.7220  176.0660  144.7090 O   0  0  0  0  0  0  0  0  0  0  0  0
  191.4050  176.7790  145.8580 C   0  0  0  0  0  0  0  0  0  0  0  0
  1 16  1  0  0  0  0
  3 11  1  0  0  0  0
  6 25  2  0  0  0  0
  6 17  1  0  0  0  0
  7 26  2  0  0  0  0
  7 18  1  0  0  0  0
  8 25  1  0  0  0  0
  8 23  2  0  0  0  0
  9 14  2  0  0  0  0
 10 22  1  0  0  0  0
 11 19  1  1  0  0  0
 11  7  1  0  0  0  0
 12 13  1  0  0  0  0
 12 23  1  0  0  0  0
 13  3  2  0  0  0  0
 14  4  1  0  0  0  0
 14 24  1  0  0  0  0
 15  1  1  0  0  0  0
 16 47  1  0  0  0  0
 17  2  2  0  0  0  0
 18 10  1  0  0  0  0
 20 16  2  0  0  0  0
 21  2  1  0  0  0  0
 21  4  2  0  0  0  0
 22 20  1  0  0  0  0
 23  9  1  0  0  0  0
 24 15  2  0  0  0  0
 25 21  1  0  0  0  0
 26  5  2  0  0  0  0
 27 37  1  1  0  0  0
 27 30  1  0  0  0  0
 27 31  1  0  0  0  0
 28  5  1  1  0  0  0
 28 29  1  0  0  0  0
 29 32  2  0  0  0  0
 31 29  1  0  0  0  0
 33 36  1  6  0  0  0
 33 28  1  0  0  0  0
 33 30  1  0  0  0  0
 34 36  1  0  0  0  0
 35 36  1  0  0  0  0
 37 38  1  1  0  0  0
 40 39  1  6  0  0  0
 40 43  1  0  0  0  0
 40 37  1  0  0  0  0
 41 43  1  0  0  0  0
 43 42  2  0  0  0  0
 44 17  1  0  0  0  0
 44 46  1  0  0  0  0
 45 46  1  0  0  0  0
 47 48  1  0  0  0  0
 50 57  1  6  0  0  0
 50 49  1  0  0  0  0
 51 48  1  6  0  0  0
 51 54  1  0  0  0  0
 51 50  1  0  0  0  0
 52 49  1  0  0  0  0
 52 53  2  0  0  0  0
 54 52  1  0  0  0  0
 56 57  2  0  0  0  0
 57 55  1  0  0  0  0
M  END
>  <MODEL>
2

>  <REMARK>
 VINA RESULT:      -6.8      1.134      1.602
  Name = 
  11 active torsions:
  status: ('A' for Active; 'I' for Inactive)
    1  A    between atoms: C_4  and  C_22
    2  A    between atoms: C_5  and  C_51
    3  A    between atoms: C_12  and  C_16
    4  A    between atoms: C_17  and  C_39
    5  A    between atoms: C_17  and  C_46
    6  A    between atoms: C_22  and  C_56
    7  A    between atoms: C_27  and  O_36
    8  A    between atoms: C_30  and  C_54
    9  A    between atoms: C_31  and  C_56
   10  A    between atoms: C_35  and  C_40
   11  A    between atoms: O_36  and  C_40
                            x       y       z     vdW  Elec       q    Type
                         _______ _______ _______ _____ _____    ______ ____

>  <TORSDO>
F 11

$$$$
=
 OpenBabel11042412423D

 57 61  0  0  1  0  0  0  0  0999 V2000
  187.3810  179.0100  142.6050 C   0  0  0  0  0  2  0  0  0  0  0  0
  181.6340  178.7230  139.3950 C   0  0  0  0  0  3  0  0  0  0  0  0
  188.3010  176.7530  136.8820 C   0  0  0  0  0  3  0  0  0  0  0  0
  184.0410  178.6500  139.7420 C   0  0  0  0  0  3  0  0  0  0  0  0
  193.0840  176.2030  137.7580 C   0  0  0  0  0  3  0  0  0  0  0  0
  181.5090  178.0270  137.2190 N   0  0  0  0  0  0  0  0  0  0  0  0
  190.5010  176.5800  138.0220 C   0  0  0  0  0  0  0  0  0  0  0  0
  183.8080  177.5670  136.7360 C   0  0  0  0  0  3  0  0  0  0  0  0
  185.8090  177.8390  138.2050 C   0  0  0  0  0  3  0  0  0  0  0  0
  190.5760  176.1160  140.4650 C   0  0  0  0  0  2  0  0  0  0  0  0
  189.7430  177.1780  136.8730 C   0  0  2  0  0  3  0  0  0  0  0  0
  185.9990  176.7760  135.9510 C   0  0  0  0  0  2  0  0  0  0  0  0
  187.4550  177.1620  135.9310 C   0  0  0  0  0  3  0  0  0  0  0  0
  185.3660  178.3970  139.3940 C   0  0  0  0  0  0  0  0  0  0  0  0
  186.2140  178.8740  141.6770 C   0  0  0  0  0  3  0  0  0  0  0  0
  188.1300  177.7210  142.6990 C   0  0  0  0  0  0  0  0  0  0  0  0
  180.8220  178.4370  138.3050 C   0  0  0  0  0  0  0  0  0  0  0  0
  189.8610  176.3660  139.2520 O   0  0  0  0  0  0  0  0  0  0  0  0
  189.8560  178.6980  136.9590 C   0  0  0  0  0  1  0  0  0  0  0  0
  188.9570  177.4160  141.7490 N   0  0  0  0  0  0  0  0  0  0  0  0
  182.9200  178.4720  138.9580 C   0  0  0  0  0  0  0  0  0  0  0  0
  189.6250  176.1310  141.6550 C   0  0  0  0  0  2  0  0  0  0  0  0
  185.1740  177.4560  137.0130 C   0  0  0  0  0  0  0  0  0  0  0  0
  186.4240  178.6260  140.3780 C   0  0  0  0  0  3  0  0  0  0  0  0
  182.8060  178.0340  137.5780 C   0  0  0  0  0  0  0  0  0  0  0  0
  191.7870  176.3750  137.8760 C   0  0  0  0  0  0  0  0  0  0  0  0
  195.5880  173.0720  136.1080 C   0  0  2  0  0  3  0  0  0  0  0  0
  193.6710  174.8930  137.3240 C   0  0  2  0  0  3  0  0  0  0  0  0
  195.0870  174.7370  137.8340 C   0  0  0  0  0  0  0  0  0  0  0  0
  194.9830  174.2230  134.8350 S   0  0  0  0  0  0  0  0  0  0  0  0
  195.9610  173.8250  137.2500 O   0  0  0  0  0  0  0  0  0  0  0  0
  195.4730  175.3810  138.8500 O   0  0  0  0  0  0  0  0  0  0  0  0
  193.4980  174.7090  135.8000 C   0  0  1  0  0  3  0  0  0  0  0  0
  192.6180  172.6970  134.7820 O   0  0  0  0  0  1  0  0  0  0  0  0
  191.3540  174.6040  134.7240 O   0  0  0  0  0  1  0  0  0  0  0  0
  192.2710  173.8580  135.4740 C   0  0  0  0  0  3  0  0  0  0  0  0
  196.7670  172.2350  135.5860 C   0  0  1  0  0  3  0  0  0  0  0  0
  197.9700  172.6270  136.1740 O   0  0  0  0  0  1  0  0  0  0  0  0
  195.3350  170.3330  135.2200 O   0  0  0  0  0  1  0  0  0  0  0  0
  196.5700  170.7260  135.7460 C   0  0  2  0  0  3  0  0  0  0  0  0
  197.9370  169.6280  137.5780 N   0  0  0  0  0  1  0  0  0  0  0  0
  195.7830  170.4050  137.9950 O   0  0  0  0  0  0  0  0  0  0  0  0
  196.7210  170.2510  137.1620 C   0  0  0  0  0  0  0  0  0  0  0  0
  179.3420  178.5650  138.3250 C   0  0  0  0  0  2  0  0  0  0  0  0
  179.2080  180.3730  136.6380 C   0  0  0  0  0  1  0  0  0  0  0  0
  178.9310  180.0080  138.0850 C   0  0  0  0  0  2  0  0  0  0  0  0
  187.7310  176.7410  143.7670 C   0  0  0  0  0  2  0  0  0  0  0  0
  186.8080  177.3190  144.6520 O   0  0  0  0  0  0  0  0  0  0  0  0
  187.5370  178.2170  148.0820 O   0  0  0  0  0  0  0  0  0  0  0  0
  186.6370  177.9930  147.0110 C   0  0  2  0  0  3  0  0  0  0  0  0
  187.4890  177.9120  145.7440 C   0  0  1  0  0  3  0  0  0  0  0  0
  188.8460  177.8650  147.8030 C   0  0  0  0  0  0  0  0  0  0  0  0
  189.7910  178.0630  148.6620 N   0  0  0  0  0  2  0  0  0  0  0  0
  189.1690  177.2850  146.1500 S   0  0  0  0  0  0  0  0  0  0  0  0
  185.8010  180.1460  147.6250 O   0  0  0  0  0  1  0  0  0  0  0  0
  184.5290  178.9780  146.1110 O   0  0  0  0  0  0  0  0  0  0  0  0
  185.6660  179.1260  146.8960 C   0  0  0  0  0  0  0  0  0  0  0  0
  1 16  1  0  0  0  0
  5 26  2  0  0  0  0
  6 25  2  0  0  0  0
  6 17  1  0  0  0  0
  7 18  1  0  0  0  0
  8 23  2  0  0  0  0
  8 25  1  0  0  0  0
  9 14  2  0  0  0  0
 10 22  1  0  0  0  0
 11  3  1  0  0  0  0
 11 19  1  1  0  0  0
 11  7  1  0  0  0  0
 12 23  1  0  0  0  0
 13 12  1  0  0  0  0
 13  3  2  0  0  0  0
 14  4  1  0  0  0  0
 14 24  1  0  0  0  0
 15  1  1  0  0  0  0
 16 47  1  0  0  0  0
 17 44  1  0  0  0  0
 17  2  2  0  0  0  0
 18 10  1  0  0  0  0
 20 16  2  0  0  0  0
 21  2  1  0  0  0  0
 21  4  2  0  0  0  0
 22 20  1  0  0  0  0
 23  9  1  0  0  0  0
 24 15  2  0  0  0  0
 25 21  1  0  0  0  0
 26  7  2  0  0  0  0
 27 37  1  6  0  0  0
 27 31  1  0  0  0  0
 28  5  1  6  0  0  0
 28 29  1  0  0  0  0
 29 32  2  0  0  0  0
 30 33  1  0  0  0  0
 30 27  1  0  0  0  0
 31 29  1  0  0  0  0
 33 36  1  1  0  0  0
 33 28  1  0  0  0  0
 34 36  1  0  0  0  0
 35 36  1  0  0  0  0
 37 40  1  0  0  0  0
 37 38  1  1  0  0  0
 40 39  1  1  0  0  0
 40 43  1  0  0  0  0
 43 41  1  0  0  0  0
 43 42  2  0  0  0  0
 45 46  1  0  0  0  0
 46 44  1  0  0  0  0
 47 48  1  0  0  0  0
 50 57  1  6  0  0  0
 50 49  1  0  0  0  0
 51 48  1  6  0  0  0
 51 54  1  0  0  0  0
 51 50  1  0  0  0  0
 52 49  1  0  0  0  0
 52 53  2  0  0  0  0
 54 52  1  0  0  0  0
 56 57  2  0  0  0  0
 57 55  1  0  0  0  0
M  END
>  <MODEL>
3

>  <REMARK>
 VINA RESULT:      -6.7      4.521     11.656
  Name = 
  11 active torsions:
  status: ('A' for Active; 'I' for Inactive)
    1  A    between atoms: C_4  and  C_22
    2  A    between atoms: C_5  and  C_51
    3  A    between atoms: C_12  and  C_16
    4  A    between atoms: C_17  and  C_39
    5  A    between atoms: C_17  and  C_46
    6  A    between atoms: C_22  and  C_56
    7  A    between atoms: C_27  and  O_36
    8  A    between atoms: C_30  and  C_54
    9  A    between atoms: C_31  and  C_56
   10  A    between atoms: C_35  and  C_40
   11  A    between atoms: O_36  and  C_40
                            x       y       z     vdW  Elec       q    Type
                         _______ _______ _______ _____ _____    ______ ____

>  <TORSDO>
F 11

$$$$
=
 OpenBabel11042412423D

 57 61  0  0  1  0  0  0  0  0999 V2000
  187.8320  179.3560  142.7900 C   0  0  0  0  0  2  0  0  0  0  0  0
  181.6720  178.6860  140.5490 C   0  0  0  0  0  3  0  0  0  0  0  0
  187.9420  176.7790  137.1290 C   0  0  0  0  0  3  0  0  0  0  0  0
  184.1040  178.7120  140.5160 C   0  0  0  0  0  3  0  0  0  0  0  0
  192.8210  176.4380  137.2680 C   0  0  0  0  0  3  0  0  0  0  0  0
  181.2380  177.8530  138.4630 N   0  0  0  0  0  0  0  0  0  0  0  0
  190.2970  176.7470  137.9150 C   0  0  0  0  0  0  0  0  0  0  0  0
  183.4500  177.4380  137.6500 C   0  0  0  0  0  3  0  0  0  0  0  0
  185.6430  177.8650  138.7660 C   0  0  0  0  0  3  0  0  0  0  0  0
  190.7710  176.4380  140.3380 C   0  0  0  0  0  2  0  0  0  0  0  0
  189.3450  177.2490  136.8690 C   0  0  2  0  0  3  0  0  0  0  0  0
  185.5230  176.6710  136.5740 C   0  0  0  0  0  2  0  0  0  0  0  0
  186.9410  177.1010  136.3030 C   0  0  0  0  0  3  0  0  0  0  0  0
  185.3680  178.4810  139.9770 C   0  0  0  0  0  0  0  0  0  0  0  0
  186.5410  179.1250  142.0670 C   0  0  0  0  0  3  0  0  0  0  0  0
  188.6380  178.0990  142.8360 C   0  0  0  0  0  0  0  0  0  0  0  0
  180.7120  178.3070  139.6190 C   0  0  0  0  0  0  0  0  0  0  0  0
  189.8660  176.5900  139.2400 O   0  0  0  0  0  0  0  0  0  0  0  0
  189.4070  178.7740  136.8500 C   0  0  0  0  0  1  0  0  0  0  0  0
  189.3190  177.7620  141.7870 N   0  0  0  0  0  0  0  0  0  0  0  0
  182.8830  178.4500  139.9300 C   0  0  0  0  0  0  0  0  0  0  0  0
  190.0170  176.4960  141.6600 C   0  0  0  0  0  2  0  0  0  0  0  0
  184.8470  177.3880  137.7130 C   0  0  0  0  0  0  0  0  0  0  0  0
  186.5550  178.8030  140.7670 C   0  0  0  0  0  3  0  0  0  0  0  0
  182.5740  177.9240  138.6110 C   0  0  0  0  0  0  0  0  0  0  0  0
  191.5520  176.5760  137.5800 C   0  0  0  0  0  0  0  0  0  0  0  0
  195.3790  173.2430  135.8370 C   0  0  2  0  0  3  0  0  0  0  0  0
  193.3870  175.1230  136.8210 C   0  0  2  0  0  3  0  0  0  0  0  0
  194.6390  174.7790  137.5980 C   0  0  0  0  0  0  0  0  0  0  0  0
  195.1610  174.5650  134.6050 S   0  0  0  0  0  0  0  0  0  0  0  0
  195.5470  173.8440  137.1120 O   0  0  0  0  0  0  0  0  0  0  0  0
  194.8390  175.2810  138.7390 O   0  0  0  0  0  0  0  0  0  0  0  0
  193.5410  175.1030  135.2840 C   0  0  1  0  0  3  0  0  0  0  0  0
  191.1870  175.1680  134.7260 O   0  0  0  0  0  1  0  0  0  0  0  0
  192.1600  173.1440  135.1630 O   0  0  0  0  0  1  0  0  0  0  0  0
  192.3550  174.4140  134.6100 C   0  0  0  0  0  3  0  0  0  0  0  0
  196.5760  172.3470  135.4850 C   0  0  1  0  0  3  0  0  0  0  0  0
  197.7480  172.7960  136.0950 O   0  0  0  0  0  1  0  0  0  0  0  0
  195.0040  170.5280  135.6440 O   0  0  0  0  0  1  0  0  0  0  0  0
  196.3520  170.8670  135.8020 C   0  0  2  0  0  3  0  0  0  0  0  0
  198.2470  170.4710  137.4410 N   0  0  0  0  0  1  0  0  0  0  0  0
  196.0310  170.1310  138.0680 O   0  0  0  0  0  0  0  0  0  0  0  0
  196.8450  170.4660  137.1620 C   0  0  0  0  0  0  0  0  0  0  0  0
  179.2490  178.3890  139.8650 C   0  0  0  0  0  2  0  0  0  0  0  0
  179.1110  180.2500  141.4920 C   0  0  0  0  0  1  0  0  0  0  0  0
  178.9730  178.7500  141.3150 C   0  0  0  0  0  2  0  0  0  0  0  0
  188.4510  177.1750  144.0080 C   0  0  0  0  0  2  0  0  0  0  0  0
  188.3470  177.9020  145.2030 O   0  0  0  0  0  0  0  0  0  0  0  0
  190.3680  176.2540  147.7150 O   0  0  0  0  0  0  0  0  0  0  0  0
  189.1330  176.7510  147.2300 C   0  0  2  0  0  3  0  0  0  0  0  0
  189.4670  177.6380  146.0300 C   0  0  1  0  0  3  0  0  0  0  0  0
  191.3980  176.3050  146.7930 C   0  0  0  0  0  0  0  0  0  0  0  0
  192.5970  175.9390  147.1070 N   0  0  0  0  0  2  0  0  0  0  0  0
  191.0120  177.0510  145.2220 S   0  0  0  0  0  0  0  0  0  0  0  0
  187.1840  177.5930  148.3280 O   0  0  0  0  0  0  0  0  0  0  0  0
  189.1900  178.4080  149.0940 O   0  0  0  0  0  1  0  0  0  0  0  0
  188.4440  177.5630  148.2820 C   0  0  0  0  0  0  0  0  0  0  0  0
  1 16  1  0  0  0  0
  5 26  2  0  0  0  0
  6 25  2  0  0  0  0
  6 17  1  0  0  0  0
  7 18  1  0  0  0  0
  8 23  2  0  0  0  0
  8 25  1  0  0  0  0
  9 14  2  0  0  0  0
 10 22  1  0  0  0  0
 11 19  1  1  0  0  0
 11  3  1  0  0  0  0
 11  7  1  0  0  0  0
 12 23  1  0  0  0  0
 13 12  1  0  0  0  0
 13  3  2  0  0  0  0
 14  4  1  0  0  0  0
 14 24  1  0  0  0  0
 15  1  1  0  0  0  0
 16 47  1  0  0  0  0
 17 44  1  0  0  0  0
 17  2  2  0  0  0  0
 18 10  1  0  0  0  0
 20 16  2  0  0  0  0
 21  4  2  0  0  0  0
 21  2  1  0  0  0  0
 22 20  1  0  0  0  0
 23  9  1  0  0  0  0
 24 15  2  0  0  0  0
 25 21  1  0  0  0  0
 26  7  2  0  0  0  0
 27 37  1  6  0  0  0
 27 31  1  0  0  0  0
 28  5  1  1  0  0  0
 28 29  1  0  0  0  0
 29 32  2  0  0  0  0
 30 33  1  0  0  0  0
 30 27  1  0  0  0  0
 31 29  1  0  0  0  0
 33 36  1  6  0  0  0
 33 28  1  0  0  0  0
 36 34  1  0  0  0  0
 36 35  1  0  0  0  0
 37 40  1  0  0  0  0
 37 38  1  1  0  0  0
 40 39  1  1  0  0  0
 40 43  1  0  0  0  0
 43 41  1  0  0  0  0
 43 42  2  0  0  0  0
 44 46  1  0  0  0  0
 46 45  1  0  0  0  0
 47 48  1  0  0  0  0
 50 49  1  0  0  0  0
 50 57  1  1  0  0  0
 51 48  1  6  0  0  0
 51 50  1  0  0  0  0
 52 53  2  0  0  0  0
 52 49  1  0  0  0  0
 54 51  1  0  0  0  0
 54 52  1  0  0  0  0
 57 55  2  0  0  0  0
 57 56  1  0  0  0  0
M  END
>  <MODEL>
4

>  <REMARK>
 VINA RESULT:      -6.7      4.869     11.604
  Name = 
  11 active torsions:
  status: ('A' for Active; 'I' for Inactive)
    1  A    between atoms: C_4  and  C_22
    2  A    between atoms: C_5  and  C_51
    3  A    between atoms: C_12  and  C_16
    4  A    between atoms: C_17  and  C_39
    5  A    between atoms: C_17  and  C_46
    6  A    between atoms: C_22  and  C_56
    7  A    between atoms: C_27  and  O_36
    8  A    between atoms: C_30  and  C_54
    9  A    between atoms: C_31  and  C_56
   10  A    between atoms: C_35  and  C_40
   11  A    between atoms: O_36  and  C_40
                            x       y       z     vdW  Elec       q    Type
                         _______ _______ _______ _____ _____    ______ ____

>  <TORSDO>
F 11

$$$$
=
 OpenBabel11042412423D

 57 61  0  0  1  0  0  0  0  0999 V2000
  190.2500  177.5860  138.3580 C   0  0  0  0  0  2  0  0  0  0  0  0
  191.1720  177.3380  144.8770 C   0  0  0  0  0  3  0  0  0  0  0  0
  184.7550  177.9140  141.2540 C   0  0  0  0  0  3  0  0  0  0  0  0
  190.0060  177.6450  142.7640 C   0  0  0  0  0  3  0  0  0  0  0  0
  182.3940  178.0900  136.9710 C   0  0  0  0  0  3  0  0  0  0  0  0
  189.4240  177.5100  146.3440 N   0  0  0  0  0  0  0  0  0  0  0  0
  184.2180  177.7880  138.8330 C   0  0  0  0  0  0  0  0  0  0  0  0
  187.5740  177.7610  144.8460 C   0  0  0  0  0  3  0  0  0  0  0  0
  187.5710  177.8690  142.3520 C   0  0  0  0  0  3  0  0  0  0  0  0
  185.6860  176.4590  137.3260 C   0  0  0  0  0  2  0  0  0  0  0  0
  184.1050  178.6030  140.0870 C   0  0  2  0  0  3  0  0  0  0  0  0
  185.4320  177.8050  143.6410 C   0  0  0  0  0  2  0  0  0  0  0  0
  184.7490  178.4660  142.4720 C   0  0  0  0  0  3  0  0  0  0  0  0
  188.8960  177.8280  141.9430 C   0  0  0  0  0  0  0  0  0  0  0  0
  190.2110  177.5700  139.8550 C   0  0  0  0  0  3  0  0  0  0  0  0
  189.3350  176.5450  137.7980 C   0  0  0  0  0  0  0  0  0  0  0  0
  190.7530  177.3230  146.2010 C   0  0  0  0  0  0  0  0  0  0  0  0
  185.3530  176.9950  138.6100 O   0  0  0  0  0  0  0  0  0  0  0  0
  184.7500  179.9640  139.8380 C   0  0  0  0  0  1  0  0  0  0  0  0
  188.0670  176.8040  137.7400 N   0  0  0  0  0  0  0  0  0  0  0  0
  190.0230  177.5480  144.1400 C   0  0  0  0  0  0  0  0  0  0  0  0
  187.0690  175.8220  137.3580 C   0  0  0  0  0  2  0  0  0  0  0  0
  186.9370  177.8420  143.6030 C   0  0  0  0  0  0  0  0  0  0  0  0
  189.0760  177.8830  140.4930 C   0  0  0  0  0  3  0  0  0  0  0  0
  188.9360  177.6520  145.0970 C   0  0  0  0  0  0  0  0  0  0  0  0
  183.2920  177.9290  137.9160 C   0  0  0  0  0  0  0  0  0  0  0  0
  179.6370  174.8580  136.1010 C   0  0  2  0  0  3  0  0  0  0  0  0
  181.1940  177.1970  136.8610 C   0  0  2  0  0  3  0  0  0  0  0  0
  181.5010  175.8080  137.3770 C   0  0  0  0  0  0  0  0  0  0  0  0
  180.2760  175.6540  134.5940 S   0  0  0  0  0  0  0  0  0  0  0  0
  180.7070  174.7220  137.0220 O   0  0  0  0  0  0  0  0  0  0  0  0
  182.4410  175.6280  138.2020 O   0  0  0  0  0  0  0  0  0  0  0  0
  180.6160  177.2530  135.4300 C   0  0  1  0  0  3  0  0  0  0  0  0
  179.8280  179.4290  134.7220 O   0  0  0  0  0  1  0  0  0  0  0  0
  178.9320  178.4940  136.6080 O   0  0  0  0  0  1  0  0  0  0  0  0
  179.4480  178.2340  135.3340 C   0  0  0  0  0  3  0  0  0  0  0  0
  179.0020  173.4960  135.7850 C   0  0  1  0  0  3  0  0  0  0  0  0
  179.6470  172.8660  134.7200 O   0  0  0  0  0  1  0  0  0  0  0  0
  179.0660  173.2710  138.1820 O   0  0  0  0  0  1  0  0  0  0  0  0
  178.9310  172.5540  136.9890 C   0  0  2  0  0  3  0  0  0  0  0  0
  181.2270  171.6000  137.4860 N   0  0  0  0  0  1  0  0  0  0  0  0
  179.6140  170.3280  136.3920 O   0  0  0  0  0  0  0  0  0  0  0  0
  179.9230  171.4300  136.9270 C   0  0  0  0  0  0  0  0  0  0  0  0
  191.6690  177.1210  147.3540 C   0  0  0  0  0  2  0  0  0  0  0  0
  192.9330  175.4630  148.6900 C   0  0  0  0  0  1  0  0  0  0  0  0
  191.8910  175.6380  147.6000 C   0  0  0  0  0  2  0  0  0  0  0  0
  189.8920  175.1730  137.5360 C   0  0  0  0  0  2  0  0  0  0  0  0
  191.2270  175.0900  137.9600 O   0  0  0  0  0  0  0  0  0  0  0  0
  193.8220  173.0380  136.4880 O   0  0  0  0  0  0  0  0  0  0  0  0
  193.3440  173.9330  137.4760 C   0  0  2  0  0  3  0  0  0  0  0  0
  192.0190  174.4870  136.9510 C   0  0  1  0  0  3  0  0  0  0  0  0
  192.8450  172.5810  135.6200 C   0  0  0  0  0  0  0  0  0  0  0  0
  193.1390  171.8020  134.6310 N   0  0  0  0  0  2  0  0  0  0  0  0
  191.2130  173.2560  135.8470 S   0  0  0  0  0  0  0  0  0  0  0  0
  194.4350  175.9500  136.8040 O   0  0  0  0  0  0  0  0  0  0  0  0
  195.1920  175.0120  138.7590 O   0  0  0  0  0  1  0  0  0  0  0  0
  194.3140  175.0540  137.6830 C   0  0  0  0  0  0  0  0  0  0  0  0
  1 15  1  0  0  0  0
  2 17  1  0  0  0  0
  3 13  2  0  0  0  0
  4 21  1  0  0  0  0
  5 26  2  0  0  0  0
  7 11  1  0  0  0  0
  8 25  2  0  0  0  0
  9 23  2  0  0  0  0
 10 22  1  0  0  0  0
 10 18  1  0  0  0  0
 11 19  1  6  0  0  0
 11  3  1  0  0  0  0
 13 12  1  0  0  0  0
 14  9  1  0  0  0  0
 14  4  2  0  0  0  0
 15 24  2  0  0  0  0
 16  1  1  0  0  0  0
 17  6  2  0  0  0  0
 17 44  1  0  0  0  0
 18  7  1  0  0  0  0
 20 16  2  0  0  0  0
 21  2  2  0  0  0  0
 21 25  1  0  0  0  0
 22 20  1  0  0  0  0
 23 12  1  0  0  0  0
 23  8  1  0  0  0  0
 24 14  1  0  0  0  0
 25  6  1  0  0  0  0
 26  7  2  0  0  0  0
 27 37  1  6  0  0  0
 27 31  1  0  0  0  0
 28  5  1  6  0  0  0
 28 29  1  0  0  0  0
 29 32  2  0  0  0  0
 30 33  1  0  0  0  0
 30 27  1  0  0  0  0
 31 29  1  0  0  0  0
 33 36  1  1  0  0  0
 33 28  1  0  0  0  0
 34 36  1  0  0  0  0
 36 35  1  0  0  0  0
 37 38  1  6  0  0  0
 37 40  1  0  0  0  0
 40 39  1  1  0  0  0
 42 43  2  0  0  0  0
 43 40  1  0  0  0  0
 43 41  1  0  0  0  0
 44 46  1  0  0  0  0
 46 45  1  0  0  0  0
 47 16  1  0  0  0  0
 47 48  1  0  0  0  0
 49 50  1  0  0  0  0
 50 57  1  6  0  0  0
 51 50  1  0  0  0  0
 51 48  1  1  0  0  0
 52 54  1  0  0  0  0
 52 49  1  0  0  0  0
 53 52  2  0  0  0  0
 54 51  1  0  0  0  0
 55 57  2  0  0  0  0
 57 56  1  0  0  0  0
M  END
>  <MODEL>
5

>  <REMARK>
 VINA RESULT:      -6.2      4.060      8.455
  Name = 
  11 active torsions:
  status: ('A' for Active; 'I' for Inactive)
    1  A    between atoms: C_4  and  C_22
    2  A    between atoms: C_5  and  C_51
    3  A    between atoms: C_12  and  C_16
    4  A    between atoms: C_17  and  C_39
    5  A    between atoms: C_17  and  C_46
    6  A    between atoms: C_22  and  C_56
    7  A    between atoms: C_27  and  O_36
    8  A    between atoms: C_30  and  C_54
    9  A    between atoms: C_31  and  C_56
   10  A    between atoms: C_35  and  C_40
   11  A    between atoms: O_36  and  C_40
                            x       y       z     vdW  Elec       q    Type
                         _______ _______ _______ _____ _____    ______ ____

>  <TORSDO>
F 11

$$$$
=
 OpenBabel11042412423D

 57 61  0  0  1  0  0  0  0  0999 V2000
  191.3680  178.1210  139.9590 C   0  0  0  0  0  2  0  0  0  0  0  0
  192.2200  176.4120  146.2650 C   0  0  0  0  0  3  0  0  0  0  0  0
  185.8590  177.9840  142.8440 C   0  0  0  0  0  3  0  0  0  0  0  0
  191.0840  177.2160  144.2690 C   0  0  0  0  0  3  0  0  0  0  0  0
  183.5450  179.1780  138.7000 C   0  0  0  0  0  3  0  0  0  0  0  0
  190.4650  176.3130  147.7290 N   0  0  0  0  0  0  0  0  0  0  0  0
  185.3410  178.4130  140.4530 C   0  0  0  0  0  0  0  0  0  0  0  0
  188.6370  176.9490  146.3200 C   0  0  0  0  0  3  0  0  0  0  0  0
  188.6620  177.6050  143.9110 C   0  0  0  0  0  3  0  0  0  0  0  0
  186.7810  177.4010  138.6930 C   0  0  0  0  0  2  0  0  0  0  0  0
  185.2420  178.9350  141.8570 C   0  0  2  0  0  3  0  0  0  0  0  0
  186.5090  177.3290  145.1490 C   0  0  0  0  0  2  0  0  0  0  0  0
  185.8590  178.2540  144.1540 C   0  0  0  0  0  3  0  0  0  0  0  0
  189.9880  177.6110  143.5060 C   0  0  0  0  0  0  0  0  0  0  0  0
  191.3140  177.7770  141.4150 C   0  0  0  0  0  3  0  0  0  0  0  0
  190.4270  177.2610  139.1810 C   0  0  0  0  0  0  0  0  0  0  0  0
  191.7880  176.1180  147.5520 C   0  0  0  0  0  0  0  0  0  0  0  0
  186.4530  177.6520  140.0630 O   0  0  0  0  0  0  0  0  0  0  0  0
  185.9330  180.2950  141.9160 C   0  0  0  0  0  1  0  0  0  0  0  0
  189.1680  177.5670  139.1780 N   0  0  0  0  0  0  0  0  0  0  0  0
  191.0850  176.8160  145.5900 C   0  0  0  0  0  0  0  0  0  0  0  0
  188.1430  176.7270  138.5870 C   0  0  0  0  0  2  0  0  0  0  0  0
  188.0150  177.3240  145.1240 C   0  0  0  0  0  0  0  0  0  0  0  0
  190.1840  177.9790  142.1040 C   0  0  0  0  0  3  0  0  0  0  0  0
  189.9920  176.7430  146.5440 C   0  0  0  0  0  0  0  0  0  0  0  0
  184.4290  178.7830  139.5880 C   0  0  0  0  0  0  0  0  0  0  0  0
  180.4020  176.8940  136.7770 C   0  0  2  0  0  3  0  0  0  0  0  0
  182.3190  178.3720  138.3930 C   0  0  2  0  0  3  0  0  0  0  0  0
  182.6770  177.0950  137.6650 C   0  0  0  0  0  0  0  0  0  0  0  0
  180.5060  178.6000  136.1510 S   0  0  0  0  0  0  0  0  0  0  0  0
  181.7210  176.3950  136.9360 O   0  0  0  0  0  0  0  0  0  0  0  0
  183.8350  176.6030  137.7730 O   0  0  0  0  0  0  0  0  0  0  0  0
  181.2620  179.2540  137.6910 C   0  0  1  0  0  3  0  0  0  0  0  0
  180.6380  180.9860  139.2620 O   0  0  0  0  0  1  0  0  0  0  0  0
  179.9820  178.8340  139.6790 O   0  0  0  0  0  1  0  0  0  0  0  0
  180.2280  179.7850  138.6820 C   0  0  0  0  0  3  0  0  0  0  0  0
  179.5830  176.0030  135.8300 C   0  0  1  0  0  3  0  0  0  0  0  0
  180.3070  175.6730  134.6840 O   0  0  0  0  0  1  0  0  0  0  0  0
  178.9850  174.8910  137.8810 O   0  0  0  0  0  1  0  0  0  0  0  0
  179.0410  174.7350  136.4930 C   0  0  2  0  0  3  0  0  0  0  0  0
  179.3110  172.6280  135.1070 N   0  0  0  0  0  1  0  0  0  0  0  0
  180.8930  173.2180  136.7090 O   0  0  0  0  0  0  0  0  0  0  0  0
  179.8070  173.4960  136.1270 C   0  0  0  0  0  0  0  0  0  0  0  0
  192.6860  175.6370  148.6330 C   0  0  0  0  0  2  0  0  0  0  0  0
  193.9300  176.3200  150.6620 C   0  0  0  0  0  1  0  0  0  0  0  0
  193.3110  176.8110  149.3670 C   0  0  0  0  0  2  0  0  0  0  0  0
  190.9420  175.9620  138.6240 C   0  0  0  0  0  2  0  0  0  0  0  0
  192.2470  176.1160  138.1330 O   0  0  0  0  0  0  0  0  0  0  0  0
  193.2470  172.9590  136.6710 O   0  0  0  0  0  0  0  0  0  0  0  0
  193.4050  174.0110  137.6060 C   0  0  2  0  0  3  0  0  0  0  0  0
  192.5040  175.1500  137.1290 C   0  0  1  0  0  3  0  0  0  0  0  0
  192.0870  173.0400  135.9200 C   0  0  0  0  0  0  0  0  0  0  0  0
  191.8320  172.1830  134.9870 N   0  0  0  0  0  2  0  0  0  0  0  0
  191.0670  174.4730  136.2010 S   0  0  0  0  0  0  0  0  0  0  0  0
  195.1940  175.4360  136.9150 O   0  0  0  0  0  0  0  0  0  0  0  0
  195.7720  173.7340  138.3450 O   0  0  0  0  0  1  0  0  0  0  0  0
  194.8290  174.4720  137.6410 C   0  0  0  0  0  0  0  0  0  0  0  0
  1 15  1  0  0  0  0
  2 17  1  0  0  0  0
  3 13  2  0  0  0  0
  4 21  1  0  0  0  0
  5 26  2  0  0  0  0
  7 11  1  0  0  0  0
  8 25  2  0  0  0  0
  9 23  2  0  0  0  0
 10 18  1  0  0  0  0
 11 19  1  6  0  0  0
 11  3  1  0  0  0  0
 13 12  1  0  0  0  0
 14  9  1  0  0  0  0
 14  4  2  0  0  0  0
 15 24  2  0  0  0  0
 16  1  1  0  0  0  0
 17  6  2  0  0  0  0
 17 44  1  0  0  0  0
 18  7  1  0  0  0  0
 20 16  2  0  0  0  0
 21  2  2  0  0  0  0
 21 25  1  0  0  0  0
 22 10  1  0  0  0  0
 22 20  1  0  0  0  0
 23 12  1  0  0  0  0
 23  8  1  0  0  0  0
 24 14  1  0  0  0  0
 25  6  1  0  0  0  0
 26  7  2  0  0  0  0
 27 37  1  6  0  0  0
 27 31  1  0  0  0  0
 28  5  1  6  0  0  0
 29 32  2  0  0  0  0
 29 28  1  0  0  0  0
 30 27  1  0  0  0  0
 30 33  1  0  0  0  0
 31 29  1  0  0  0  0
 33 28  1  0  0  0  0
 33 36  1  1  0  0  0
 36 34  1  0  0  0  0
 36 35  1  0  0  0  0
 37 38  1  6  0  0  0
 37 40  1  0  0  0  0
 40 39  1  1  0  0  0
 41 43  1  0  0  0  0
 43 40  1  0  0  0  0
 43 42  2  0  0  0  0
 44 46  1  0  0  0  0
 46 45  1  0  0  0  0
 47 16  1  0  0  0  0
 48 47  1  0  0  0  0
 49 50  1  0  0  0  0
 50 57  1  6  0  0  0
 51 50  1  0  0  0  0
 51 48  1  1  0  0  0
 52 54  1  0  0  0  0
 52 49  1  0  0  0  0
 53 52  2  0  0  0  0
 54 51  1  0  0  0  0
 55 57  2  0  0  0  0
 57 56  1  0  0  0  0
M  END
>  <MODEL>
6

>  <REMARK>
 VINA RESULT:      -4.7      3.830      8.415
  Name = 
  11 active torsions:
  status: ('A' for Active; 'I' for Inactive)
    1  A    between atoms: C_4  and  C_22
    2  A    between atoms: C_5  and  C_51
    3  A    between atoms: C_12  and  C_16
    4  A    between atoms: C_17  and  C_39
    5  A    between atoms: C_17  and  C_46
    6  A    between atoms: C_22  and  C_56
    7  A    between atoms: C_27  and  O_36
    8  A    between atoms: C_30  and  C_54
    9  A    between atoms: C_31  and  C_56
   10  A    between atoms: C_35  and  C_40
   11  A    between atoms: O_36  and  C_40
                            x       y       z     vdW  Elec       q    Type
                         _______ _______ _______ _____ _____    ______ ____

>  <TORSDO>
F 11

$$$$
=
 OpenBabel11042412423D

 57 61  0  0  1  0  0  0  0  0999 V2000
  191.1310  177.9290  139.9330 C   0  0  0  0  0  2  0  0  0  0  0  0
  192.0890  176.0970  146.1890 C   0  0  0  0  0  3  0  0  0  0  0  0
  185.7520  178.2340  143.0410 C   0  0  0  0  0  3  0  0  0  0  0  0
  190.9460  177.0120  144.2460 C   0  0  0  0  0  3  0  0  0  0  0  0
  183.3820  179.6560  139.0030 C   0  0  0  0  0  3  0  0  0  0  0  0
  190.3930  176.1350  147.7240 N   0  0  0  0  0  0  0  0  0  0  0  0
  185.1760  178.7260  140.6760 C   0  0  0  0  0  0  0  0  0  0  0  0
  188.5710  176.9360  146.3940 C   0  0  0  0  0  3  0  0  0  0  0  0
  188.5540  177.6090  143.9900 C   0  0  0  0  0  3  0  0  0  0  0  0
  186.4520  177.6120  138.8530 C   0  0  0  0  0  2  0  0  0  0  0  0
  185.1790  179.2420  142.0850 C   0  0  2  0  0  3  0  0  0  0  0  0
  186.4370  177.5060  145.3140 C   0  0  0  0  0  2  0  0  0  0  0  0
  185.8280  178.4910  144.3510 C   0  0  0  0  0  3  0  0  0  0  0  0
  189.8580  177.5060  143.5310 C   0  0  0  0  0  0  0  0  0  0  0  0
  191.1070  177.5770  141.3880 C   0  0  0  0  0  3  0  0  0  0  0  0
  190.0890  177.1580  139.1900 C   0  0  0  0  0  0  0  0  0  0  0  0
  191.6870  175.8310  147.4910 C   0  0  0  0  0  0  0  0  0  0  0  0
  186.2020  177.8770  140.2360 O   0  0  0  0  0  0  0  0  0  0  0  0
  185.9850  180.5380  142.1230 C   0  0  0  0  0  1  0  0  0  0  0  0
  188.8620  177.5700  139.2400 N   0  0  0  0  0  0  0  0  0  0  0  0
  190.9670  176.6020  145.5630 C   0  0  0  0  0  0  0  0  0  0  0  0
  187.7460  176.8250  138.6870 C   0  0  0  0  0  2  0  0  0  0  0  0
  187.9350  177.3730  145.2270 C   0  0  0  0  0  0  0  0  0  0  0  0
  190.0270  177.8680  142.1240 C   0  0  0  0  0  3  0  0  0  0  0  0
  189.9120  176.6140  146.5610 C   0  0  0  0  0  0  0  0  0  0  0  0
  184.2650  179.1800  139.8510 C   0  0  0  0  0  0  0  0  0  0  0  0
  180.2070  176.7430  138.5270 C   0  0  2  0  0  3  0  0  0  0  0  0
  182.0800  178.9600  138.7420 C   0  0  2  0  0  3  0  0  0  0  0  0
  181.6640  178.1240  139.9330 C   0  0  0  0  0  0  0  0  0  0  0  0
  181.5980  176.4480  137.3910 S   0  0  0  0  0  0  0  0  0  0  0  0
  180.7340  177.0980  139.7960 O   0  0  0  0  0  0  0  0  0  0  0  0
  182.0990  178.3970  141.0860 O   0  0  0  0  0  0  0  0  0  0  0  0
  182.1390  178.2030  137.3970 C   0  0  1  0  0  3  0  0  0  0  0  0
  181.1740  180.3060  136.6860 O   0  0  0  0  0  1  0  0  0  0  0  0
  180.3860  178.3660  135.7640 O   0  0  0  0  0  1  0  0  0  0  0  0
  181.5170  179.0210  136.2660 C   0  0  0  0  0  3  0  0  0  0  0  0
  179.3020  175.5060  138.6300 C   0  0  1  0  0  3  0  0  0  0  0  0
  179.0310  174.9640  137.3730 O   0  0  0  0  0  1  0  0  0  0  0  0
  179.6070  173.1500  139.0320 O   0  0  0  0  0  1  0  0  0  0  0  0
  179.8440  174.4210  139.5640 C   0  0  2  0  0  3  0  0  0  0  0  0
  179.2490  173.3520  141.7850 N   0  0  0  0  0  1  0  0  0  0  0  0
  178.9310  175.6300  141.4310 O   0  0  0  0  0  0  0  0  0  0  0  0
  179.3140  174.5200  140.9650 C   0  0  0  0  0  0  0  0  0  0  0  0
  192.5840  175.2650  148.5320 C   0  0  0  0  0  2  0  0  0  0  0  0
  192.7750  177.4870  149.6080 C   0  0  0  0  0  1  0  0  0  0  0  0
  193.5560  176.3220  149.0270 C   0  0  0  0  0  2  0  0  0  0  0  0
  190.4690  175.8250  138.6050 C   0  0  0  0  0  2  0  0  0  0  0  0
  191.8250  175.8090  138.2460 O   0  0  0  0  0  0  0  0  0  0  0  0
  193.3370  173.3870  136.0200 O   0  0  0  0  0  0  0  0  0  0  0  0
  193.4170  174.4370  136.9680 C   0  0  2  0  0  3  0  0  0  0  0  0
  192.0090  175.0210  137.0820 C   0  0  1  0  0  3  0  0  0  0  0  0
  192.0570  172.9010  135.8220 C   0  0  0  0  0  0  0  0  0  0  0  0
  191.8180  171.9810  134.9470 N   0  0  0  0  0  2  0  0  0  0  0  0
  190.7550  173.7260  136.7160 S   0  0  0  0  0  0  0  0  0  0  0  0
  195.2960  175.1970  135.7030 O   0  0  0  0  0  0  0  0  0  0  0  0
  194.3230  176.7590  137.0760 O   0  0  0  0  0  1  0  0  0  0  0  0
  194.3670  175.4950  136.5010 C   0  0  0  0  0  0  0  0  0  0  0  0
  1 15  1  0  0  0  0
  2 17  1  0  0  0  0
  3 13  2  0  0  0  0
  4 21  1  0  0  0  0
  5 26  2  0  0  0  0
  7 11  1  0  0  0  0
  8 25  2  0  0  0  0
  9 23  2  0  0  0  0
 10 18  1  0  0  0  0
 11 19  1  6  0  0  0
 11  3  1  0  0  0  0
 13 12  1  0  0  0  0
 14  9  1  0  0  0  0
 14  4  2  0  0  0  0
 15 24  2  0  0  0  0
 16 20  2  0  0  0  0
 16  1  1  0  0  0  0
 17  6  2  0  0  0  0
 17 44  1  0  0  0  0
 18  7  1  0  0  0  0
 21  2  2  0  0  0  0
 21 25  1  0  0  0  0
 22 10  1  0  0  0  0
 22 20  1  0  0  0  0
 23 12  1  0  0  0  0
 23  8  1  0  0  0  0
 24 14  1  0  0  0  0
 25  6  1  0  0  0  0
 26  7  2  0  0  0  0
 27 37  1  1  0  0  0
 27 31  1  0  0  0  0
 28  5  1  1  0  0  0
 28 29  1  0  0  0  0
 29 32  2  0  0  0  0
 30 33  1  0  0  0  0
 30 27  1  0  0  0  0
 31 29  1  0  0  0  0
 33 36  1  6  0  0  0
 33 28  1  0  0  0  0
 35 36  1  0  0  0  0
 36 34  1  0  0  0  0
 37 38  1  6  0  0  0
 37 40  1  0  0  0  0
 40 39  1  6  0  0  0
 40 43  1  0  0  0  0
 43 42  2  0  0  0  0
 43 41  1  0  0  0  0
 44 46  1  0  0  0  0
 46 45  1  0  0  0  0
 47 16  1  0  0  0  0
 48 47  1  0  0  0  0
 49 50  1  0  0  0  0
 50 57  1  6  0  0  0
 50 51  1  0  0  0  0
 51 48  1  1  0  0  0
 52 49  1  0  0  0  0
 52 54  1  0  0  0  0
 53 52  2  0  0  0  0
 54 51  1  0  0  0  0
 55 57  2  0  0  0  0
 57 56  1  0  0  0  0
M  END
>  <MODEL>
7

>  <REMARK>
 VINA RESULT:      -4.7      3.842      8.379
  Name = 
  11 active torsions:
  status: ('A' for Active; 'I' for Inactive)
    1  A    between atoms: C_4  and  C_22
    2  A    between atoms: C_5  and  C_51
    3  A    between atoms: C_12  and  C_16
    4  A    between atoms: C_17  and  C_39
    5  A    between atoms: C_17  and  C_46
    6  A    between atoms: C_22  and  C_56
    7  A    between atoms: C_27  and  O_36
    8  A    between atoms: C_30  and  C_54
    9  A    between atoms: C_31  and  C_56
   10  A    between atoms: C_35  and  C_40
   11  A    between atoms: O_36  and  C_40
                            x       y       z     vdW  Elec       q    Type
                         _______ _______ _______ _____ _____    ______ ____

>  <TORSDO>
F 11

$$$$
