=
 OpenBabel11042410153D

 65 71  0  0  1  0  0  0  0  0999 V2000
  187.5950  177.8980  142.3850 C   0  0  0  0  0  0  0  0  0  0  0  0
  190.4690  176.1470  140.5940 C   0  0  0  0  0  2  0  0  0  0  0  0
  189.9310  176.4550  143.0290 C   0  0  0  0  0  0  0  0  0  0  0  0
  192.0710  178.0220  140.1390 C   0  0  0  0  0  1  0  0  0  0  0  0
  188.5650  177.6410  141.3920 C   0  0  0  0  0  0  0  0  0  0  0  0
  190.1100  177.6260  138.6890 O   0  0  0  0  0  0  0  0  0  0  0  0
  191.1060  177.0120  139.4890 C   0  0  2  0  0  0  0  0  0  0  0  0
  189.0220  176.8040  144.0390 C   0  0  0  0  0  0  0  0  0  0  0  0
  188.3920  178.2050  140.1260 O   0  0  0  0  0  0  0  0  0  0  0  0
  187.8550  177.4970  143.7020 C   0  0  0  0  0  3  0  0  0  0  0  0
  189.4880  178.6840  139.3650 C   0  0  0  0  0  2  0  0  0  0  0  0
  189.6910  176.8380  141.6920 C   0  0  0  0  0  0  0  0  0  0  0  0
  183.7600  178.8460  140.7340 N   0  0  0  0  0  0  0  0  0  0  0  0
  186.3160  178.6490  142.0520 C   0  0  1  0  0  3  0  0  0  0  0  0
  183.8100  178.7800  142.2040 C   0  0  0  0  0  2  0  0  0  0  0  0
  186.1670  178.8330  140.5590 C   0  0  0  0  0  3  0  0  0  0  0  0
  184.9750  178.9520  139.9740 C   0  0  0  0  0  3  0  0  0  0  0  0
  185.0490  178.0070  142.6520 C   0  0  0  0  0  2  0  0  0  0  0  0
  182.1380  177.6770  139.3140 C   0  0  0  0  0  0  0  0  0  0  0  0
  180.8030  177.1940  139.7220 C   0  0  2  0  0  3  0  0  0  0  0  0
  182.8100  177.1710  138.4290 O   0  0  0  0  0  0  0  0  0  0  0  0
  180.4100  178.0050  140.8750 N   0  0  0  0  0  2  0  0  0  0  0  0
  181.3210  179.1520  140.9500 C   0  0  0  0  0  2  0  0  0  0  0  0
  182.4930  178.9310  139.9970 C   0  0  1  0  0  3  0  0  0  0  0  0
  180.6540  174.7660  139.1920 C   0  0  0  0  0  3  0  0  0  0  0  0
  180.8180  175.7400  140.1020 C   0  0  0  0  0  3  0  0  0  0  0  0
  181.2410  174.1800  136.7030 C   0  0  1  0  0  0  0  0  0  0  0  0
  181.4850  175.7660  134.6110 C   0  0  0  0  0  2  0  0  0  0  0  0
  178.9310  175.4840  134.8500 C   0  0  0  0  0  2  0  0  0  0  0  0
  178.9400  174.3970  135.9440 C   0  0  2  0  0  3  0  0  0  0  0  0
  178.9880  174.9920  137.3390 C   0  0  0  0  0  2  0  0  0  0  0  0
  180.5320  173.1240  134.5940 O   0  0  0  0  0  1  0  0  0  0  0  0
  180.1310  176.4490  134.8020 C   0  0  1  0  0  3  0  0  0  0  0  0
  180.4600  175.0480  137.7230 C   0  0  1  0  0  3  0  0  0  0  0  0
  180.1480  173.4790  135.8920 C   0  0  1  0  0  3  0  0  0  0  0  0
  182.1120  175.1480  135.8740 C   0  0  0  0  0  2  0  0  0  0  0  0
  180.1020  177.5220  135.8850 C   0  0  0  0  0  2  0  0  0  0  0  0
  179.0360  178.5580  135.5830 C   0  0  0  0  0  1  0  0  0  0  0  0
  183.6680  173.4180  137.0750 C   0  0  0  0  0  1  0  0  0  0  0  0
  182.1930  173.1400  137.3260 C   0  0  0  0  0  2  0  0  0  0  0  0
  193.2030  176.2350  138.4160 C   0  0  0  0  0  2  0  0  0  0  0  0
  191.8820  176.0830  138.5540 C   0  0  0  0  0  0  0  0  0  0  0  0
  191.3000  174.8180  137.9690 C   0  0  1  0  0  3  0  0  0  0  0  0
  189.9040  174.8660  137.9530 O   0  0  0  0  0  0  0  0  0  0  0  0
  189.5570  174.7520  136.6050 C   0  0  0  0  0  2  0  0  0  0  0  0
  187.1800  174.9060  136.6290 O   0  0  0  0  0  1  0  0  0  0  0  0
  188.2910  176.7690  135.8640 O   0  0  0  0  0  0  0  0  0  0  0  0
  188.2760  175.4690  136.3620 C   0  0  0  0  0  0  0  0  0  0  0  0
  191.8270  174.5690  136.5560 C   0  0  0  0  0  2  0  0  0  0  0  0
  192.8240  173.5500  136.5930 O   0  0  0  0  0  0  0  0  0  0  0  0
  192.7280  172.3880  135.8280 C   0  0  0  0  0  0  0  0  0  0  0  0
  191.5970  171.9840  135.4450 O   0  0  0  0  0  0  0  0  0  0  0  0
  193.9570  171.6750  135.3390 C   0  0  0  0  0  2  0  0  0  0  0  0
  195.1470  172.4190  135.7300 N   0  0  0  0  0  2  0  0  0  0  0  0
  195.5690  171.8950  137.0170 C   0  0  0  0  0  2  0  0  0  0  0  0
  196.3100  174.5970  139.4920 C   0  0  0  0  0  3  0  0  0  0  0  0
  197.5980  174.5530  138.6620 C   0  0  0  0  0  3  0  0  0  0  0  0
  195.4440  173.5550  138.8610 C   0  0  0  0  0  3  0  0  0  0  0  0
  196.1140  172.9810  137.8820 C   0  0  0  0  0  0  0  0  0  0  0  0
  197.3900  173.4850  137.7510 O   0  0  0  0  0  0  0  0  0  0  0  0
  192.0260  175.0420  143.6510 N   0  0  0  0  0  0  0  0  0  0  0  0
  191.0940  175.6660  143.3730 C   0  0  0  0  0  0  0  0  0  0  0  0
  189.2850  176.4460  145.3680 O   0  0  0  0  0  0  0  0  0  0  0  0
  190.1870  177.1620  146.1950 C   0  0  0  0  0  2  0  0  0  0  0  0
  189.4100  177.9040  147.2580 C   0  0  0  0  0  1  0  0  0  0  0  0
  1 10  1  0  0  0  0
  2 12  1  0  0  0  0
  3 62  1  0  0  0  0
  3  8  1  0  0  0  0
  5 12  1  0  0  0  0
  5  1  2  0  0  0  0
  6 11  1  0  0  0  0
  6  7  1  0  0  0  0
  7  4  1  1  0  0  0
  7  2  1  0  0  0  0
  8 63  1  0  0  0  0
  9  5  1  0  0  0  0
 10  8  2  0  0  0  0
 11  9  1  0  0  0  0
 12  3  2  0  0  0  0
 13 15  1  0  0  0  0
 14  1  1  6  0  0  0
 14 18  1  0  0  0  0
 15 18  1  0  0  0  0
 16 14  1  0  0  0  0
 17 16  2  0  0  0  0
 17 13  1  0  0  0  0
 19 20  1  0  0  0  0
 19 24  1  0  0  0  0
 20 26  1  1  0  0  0
 20 22  1  0  0  0  0
 21 19  2  0  0  0  0
 22 23  1  0  0  0  0
 24 13  1  1  0  0  0
 24 23  1  0  0  0  0
 25 26  2  0  0  0  0
 27 40  1  1  0  0  0
 27 34  1  0  0  0  0
 28 33  1  0  0  0  0
 28 36  1  0  0  0  0
 30 29  1  6  0  0  0
 30 31  1  0  0  0  0
 31 34  1  0  0  0  0
 33 29  1  0  0  0  0
 33 37  1  1  0  0  0
 34 25  1  1  0  0  0
 35 32  1  6  0  0  0
 35 30  1  0  0  0  0
 35 27  1  0  0  0  0
 36 27  1  0  0  0  0
 38 37  1  0  0  0  0
 39 40  1  0  0  0  0
 41 42  2  0  0  0  0
 42  7  1  0  0  0  0
 43 49  1  6  0  0  0
 43 42  1  0  0  0  0
 44 43  1  0  0  0  0
 45 44  1  0  0  0  0
 47 48  2  0  0  0  0
 48 45  1  0  0  0  0
 48 46  1  0  0  0  0
 49 50  1  0  0  0  0
 51 50  1  0  0  0  0
 52 51  2  0  0  0  0
 53 54  1  0  0  0  0
 53 51  1  0  0  0  0
 54 55  1  0  0  0  0
 55 59  1  0  0  0  0
 57 56  2  0  0  0  0
 58 56  1  0  0  0  0
 59 58  2  0  0  0  0
 60 59  1  0  0  0  0
 60 57  1  0  0  0  0
 62 61  3  0  0  0  0
 63 64  1  0  0  0  0
 64 65  1  0  0  0  0
M  END
>  <MODEL>
1

>  <REMARK>
 VINA RESULT:      -5.7      0.000      0.000
  Name = 
  21 active torsions:
  status: ('A' for Active; 'I' for Inactive)
    1  A    between atoms: C_1  and  C_53
    2  A    between atoms: C_3  and  C_7
    3  A    between atoms: C_4  and  C_61
    4  A    between atoms: N_5  and  C_38
    5  A    between atoms: C_6  and  C_51
    6  A    between atoms: C_9  and  C_26
    7  A    between atoms: C_19  and  C_41
    8  A    between atoms: C_19  and  O_50
    9  A    between atoms: C_21  and  O_55
   10  A    between atoms: C_21  and  C_60
   11  A    between atoms: C_25  and  C_35
   12  A    between atoms: C_27  and  C_47
   13  A    between atoms: C_27  and  O_55
   14  A    between atoms: N_28  and  C_48
   15  A    between atoms: N_28  and  C_60
   16  A    between atoms: C_33  and  O_58
   17  A    between atoms: C_35  and  C_47
   18  A    between atoms: C_44  and  C_52
   19  A    between atoms: C_46  and  O_58
   20  A    between atoms: C_47  and  O_50
   21  A    between atoms: C_48  and  C_57
                            x       y       z     vdW  Elec       q    Type
                         _______ _______ _______ _____ _____    ______ ____

>  <TORSDO>
F 21

$$$$
=
 OpenBabel11042410153D

 65 71  0  0  1  0  0  0  0  0999 V2000
  187.5400  177.9100  142.9280 C   0  0  0  0  0  0  0  0  0  0  0  0
  190.3250  176.1230  141.0370 C   0  0  0  0  0  2  0  0  0  0  0  0
  189.9110  176.4920  143.4880 C   0  0  0  0  0  0  0  0  0  0  0  0
  191.8930  177.9910  140.4520 C   0  0  0  0  0  1  0  0  0  0  0  0
  188.4580  177.6310  141.8940 C   0  0  0  0  0  0  0  0  0  0  0  0
  189.8620  177.5510  139.1160 O   0  0  0  0  0  0  0  0  0  0  0  0
  190.9010  176.9620  139.8800 C   0  0  2  0  0  0  0  0  0  0  0  0
  189.0550  176.8640  144.5340 C   0  0  0  0  0  0  0  0  0  0  0  0
  188.2180  178.1620  140.6250 O   0  0  0  0  0  0  0  0  0  0  0  0
  187.8680  177.5440  144.2400 C   0  0  0  0  0  3  0  0  0  0  0  0
  189.2700  178.6240  139.7960 C   0  0  0  0  0  2  0  0  0  0  0  0
  189.6020  176.8400  142.1560 C   0  0  0  0  0  0  0  0  0  0  0  0
  183.6940  178.8790  141.3130 N   0  0  0  0  0  0  0  0  0  0  0  0
  186.2420  178.6480  142.6430 C   0  0  1  0  0  3  0  0  0  0  0  0
  183.7310  178.6920  142.7720 C   0  0  0  0  0  2  0  0  0  0  0  0
  186.1030  178.9530  141.1680 C   0  0  0  0  0  3  0  0  0  0  0  0
  184.9130  179.0860  140.5800 C   0  0  0  0  0  3  0  0  0  0  0  0
  184.9880  177.9210  143.1700 C   0  0  0  0  0  2  0  0  0  0  0  0
  182.1340  177.7940  139.7630 C   0  0  0  0  0  0  0  0  0  0  0  0
  180.8140  177.2250  140.1030 C   0  0  2  0  0  3  0  0  0  0  0  0
  182.8350  177.4010  138.8430 O   0  0  0  0  0  0  0  0  0  0  0  0
  180.3770  177.9060  141.3230 N   0  0  0  0  0  2  0  0  0  0  0  0
  181.2440  179.0730  141.5210 C   0  0  0  0  0  2  0  0  0  0  0  0
  182.4340  178.9880  140.5680 C   0  0  1  0  0  3  0  0  0  0  0  0
  180.7310  174.8560  139.3450 C   0  0  0  0  0  3  0  0  0  0  0  0
  180.8800  175.7430  140.3410 C   0  0  0  0  0  3  0  0  0  0  0  0
  181.3910  174.6270  136.8160 C   0  0  1  0  0  0  0  0  0  0  0  0
  181.4280  176.4510  134.9120 C   0  0  0  0  0  2  0  0  0  0  0  0
  178.9320  175.8190  135.0820 C   0  0  0  0  0  2  0  0  0  0  0  0
  179.0810  174.6280  136.0500 C   0  0  2  0  0  3  0  0  0  0  0  0
  179.0500  175.0670  137.5030 C   0  0  0  0  0  2  0  0  0  0  0  0
  180.8260  173.7270  134.5940 O   0  0  0  0  0  1  0  0  0  0  0  0
  179.9970  176.9290  135.1570 C   0  0  1  0  0  3  0  0  0  0  0  0
  180.5020  175.2700  137.9130 C   0  0  1  0  0  3  0  0  0  0  0  0
  180.3970  173.8840  135.9170 C   0  0  1  0  0  3  0  0  0  0  0  0
  182.1290  175.7840  136.1100 C   0  0  0  0  0  2  0  0  0  0  0  0
  179.8290  177.8650  136.3490 C   0  0  0  0  0  2  0  0  0  0  0  0
  180.8740  178.9640  136.3190 C   0  0  0  0  0  1  0  0  0  0  0  0
  183.0980  172.7890  136.2550 C   0  0  0  0  0  1  0  0  0  0  0  0
  182.4690  173.6560  137.3360 C   0  0  0  0  0  2  0  0  0  0  0  0
  190.9390  175.0890  138.2530 C   0  0  0  0  0  2  0  0  0  0  0  0
  191.6320  176.0110  138.9290 C   0  0  0  0  0  0  0  0  0  0  0  0
  193.0620  176.2140  138.4880 C   0  0  1  0  0  3  0  0  0  0  0  0
  193.8990  176.4410  139.5830 O   0  0  0  0  0  0  0  0  0  0  0  0
  194.8180  175.3910  139.5550 C   0  0  0  0  0  2  0  0  0  0  0  0
  196.0380  176.8490  140.9910 O   0  0  0  0  0  1  0  0  0  0  0  0
  197.1190  174.9090  140.3910 O   0  0  0  0  0  0  0  0  0  0  0  0
  196.0220  175.7660  140.3450 C   0  0  0  0  0  0  0  0  0  0  0  0
  193.5680  175.0140  137.6880 C   0  0  0  0  0  2  0  0  0  0  0  0
  192.7040  174.7840  136.5770 O   0  0  0  0  0  0  0  0  0  0  0  0
  192.9890  175.2670  135.3000 C   0  0  0  0  0  0  0  0  0  0  0  0
  193.9860  174.8180  134.6710 O   0  0  0  0  0  0  0  0  0  0  0  0
  192.0590  176.2180  134.6030 C   0  0  0  0  0  2  0  0  0  0  0  0
  190.7030  175.6830  134.6180 N   0  0  0  0  0  2  0  0  0  0  0  0
  189.8360  176.7460  135.0950 C   0  0  0  0  0  2  0  0  0  0  0  0
  186.6960  174.8690  135.8680 C   0  0  0  0  0  3  0  0  0  0  0  0
  186.6030  176.0660  136.8200 C   0  0  0  0  0  3  0  0  0  0  0  0
  187.9760  175.1000  135.1310 C   0  0  0  0  0  3  0  0  0  0  0  0
  188.5430  176.1940  135.5950 C   0  0  0  0  0  0  0  0  0  0  0  0
  187.8170  176.7730  136.6130 O   0  0  0  0  0  0  0  0  0  0  0  0
  192.0440  175.1020  144.0330 N   0  0  0  0  0  0  0  0  0  0  0  0
  191.0940  175.7160  143.7910 C   0  0  0  0  0  0  0  0  0  0  0  0
  189.3860  176.5410  145.8570 O   0  0  0  0  0  0  0  0  0  0  0  0
  188.5810  176.9090  146.9640 C   0  0  0  0  0  2  0  0  0  0  0  0
  188.9710  178.2940  147.4290 C   0  0  0  0  0  1  0  0  0  0  0  0
  1 10  1  0  0  0  0
  2 12  1  0  0  0  0
  3 62  1  0  0  0  0
  3  8  1  0  0  0  0
  5 12  1  0  0  0  0
  5  1  2  0  0  0  0
  6 11  1  0  0  0  0
  6  7  1  0  0  0  0
  7  4  1  1  0  0  0
  7  2  1  0  0  0  0
  8 63  1  0  0  0  0
  9  5  1  0  0  0  0
 10  8  2  0  0  0  0
 11  9  1  0  0  0  0
 12  3  2  0  0  0  0
 13 15  1  0  0  0  0
 14  1  1  6  0  0  0
 14 18  1  0  0  0  0
 15 18  1  0  0  0  0
 16 14  1  0  0  0  0
 17 16  2  0  0  0  0
 17 13  1  0  0  0  0
 19 20  1  0  0  0  0
 19 24  1  0  0  0  0
 20 26  1  1  0  0  0
 20 22  1  0  0  0  0
 21 19  2  0  0  0  0
 22 23  1  0  0  0  0
 24 13  1  1  0  0  0
 24 23  1  0  0  0  0
 25 26  2  0  0  0  0
 27 40  1  1  0  0  0
 27 34  1  0  0  0  0
 28 33  1  0  0  0  0
 28 36  1  0  0  0  0
 29 33  1  0  0  0  0
 30 29  1  6  0  0  0
 30 31  1  0  0  0  0
 31 34  1  0  0  0  0
 33 37  1  1  0  0  0
 34 25  1  1  0  0  0
 35 32  1  6  0  0  0
 35 30  1  0  0  0  0
 35 27  1  0  0  0  0
 36 27  1  0  0  0  0
 38 37  1  0  0  0  0
 39 40  1  0  0  0  0
 41 42  2  0  0  0  0
 42  7  1  0  0  0  0
 43 49  1  1  0  0  0
 43 42  1  0  0  0  0
 43 44  1  0  0  0  0
 45 44  1  0  0  0  0
 45 48  1  0  0  0  0
 48 47  2  0  0  0  0
 48 46  1  0  0  0  0
 50 49  1  0  0  0  0
 51 50  1  0  0  0  0
 52 51  2  0  0  0  0
 53 54  1  0  0  0  0
 53 51  1  0  0  0  0
 54 55  1  0  0  0  0
 55 59  1  0  0  0  0
 56 57  2  0  0  0  0
 58 59  2  0  0  0  0
 58 56  1  0  0  0  0
 59 60  1  0  0  0  0
 60 57  1  0  0  0  0
 62 61  3  0  0  0  0
 63 64  1  0  0  0  0
 64 65  1  0  0  0  0
M  END
>  <MODEL>
2

>  <REMARK>
 VINA RESULT:      -4.7      1.531      3.913
  Name = 
  21 active torsions:
  status: ('A' for Active; 'I' for Inactive)
    1  A    between atoms: C_1  and  C_53
    2  A    between atoms: C_3  and  C_7
    3  A    between atoms: C_4  and  C_61
    4  A    between atoms: N_5  and  C_38
    5  A    between atoms: C_6  and  C_51
    6  A    between atoms: C_9  and  C_26
    7  A    between atoms: C_19  and  C_41
    8  A    between atoms: C_19  and  O_50
    9  A    between atoms: C_21  and  O_55
   10  A    between atoms: C_21  and  C_60
   11  A    between atoms: C_25  and  C_35
   12  A    between atoms: C_27  and  C_47
   13  A    between atoms: C_27  and  O_55
   14  A    between atoms: N_28  and  C_48
   15  A    between atoms: N_28  and  C_60
   16  A    between atoms: C_33  and  O_58
   17  A    between atoms: C_35  and  C_47
   18  A    between atoms: C_44  and  C_52
   19  A    between atoms: C_46  and  O_58
   20  A    between atoms: C_47  and  O_50
   21  A    between atoms: C_48  and  C_57
                            x       y       z     vdW  Elec       q    Type
                         _______ _______ _______ _____ _____    ______ ____

>  <TORSDO>
F 21

$$$$
=
 OpenBabel11042410153D

 65 71  0  0  1  0  0  0  0  0999 V2000
  186.1270  178.6830  140.9650 C   0  0  0  0  0  0  0  0  0  0  0  0
  182.4660  178.7300  139.9030 C   0  0  0  0  0  2  0  0  0  0  0  0
  183.5860  179.0600  142.1280 C   0  0  0  0  0  0  0  0  0  0  0  0
  181.8380  176.3020  139.9540 C   0  0  0  0  0  1  0  0  0  0  0  0
  184.9610  178.3420  140.2460 C   0  0  0  0  0  0  0  0  0  0  0  0
  183.0470  177.2770  138.0330 O   0  0  0  0  0  0  0  0  0  0  0  0
  182.0750  177.5160  139.0370 C   0  0  2  0  0  0  0  0  0  0  0  0
  184.7440  179.2950  142.8840 C   0  0  0  0  0  0  0  0  0  0  0  0
  185.1000  177.7210  139.0020 O   0  0  0  0  0  0  0  0  0  0  0  0
  185.9980  179.1290  142.2870 C   0  0  0  0  0  3  0  0  0  0  0  0
  184.2100  176.7070  138.5690 C   0  0  0  0  0  2  0  0  0  0  0  0
  183.6850  178.6170  140.7920 C   0  0  0  0  0  0  0  0  0  0  0  0
  190.0030  177.1040  140.0600 N   0  0  0  0  0  0  0  0  0  0  0  0
  187.5050  178.5140  140.3450 C   0  0  1  0  0  3  0  0  0  0  0  0
  189.0610  177.1370  138.9300 C   0  0  0  0  0  2  0  0  0  0  0  0
  188.5820  178.5170  141.4060 C   0  0  0  0  0  3  0  0  0  0  0  0
  189.7430  177.8820  141.2400 C   0  0  0  0  0  3  0  0  0  0  0  0
  187.6290  177.2690  139.4440 C   0  0  0  0  0  2  0  0  0  0  0  0
  191.5050  175.7260  138.6980 C   0  0  0  0  0  0  0  0  0  0  0  0
  192.7670  176.1640  138.0670 C   0  0  2  0  0  3  0  0  0  0  0  0
  190.7960  174.8300  138.2650 O   0  0  0  0  0  0  0  0  0  0  0  0
  193.2290  177.3190  138.8370 N   0  0  0  0  0  2  0  0  0  0  0  0
  192.4560  177.3680  140.0830 C   0  0  0  0  0  2  0  0  0  0  0  0
  191.2850  176.3920  139.9910 C   0  0  1  0  0  3  0  0  0  0  0  0
  193.3140  176.0180  135.6430 C   0  0  0  0  0  3  0  0  0  0  0  0
  192.5760  176.5530  136.6280 C   0  0  0  0  0  3  0  0  0  0  0  0
  193.9930  173.4840  135.7260 C   0  0  1  0  0  0  0  0  0  0  0  0
  195.6550  172.2370  137.3480 C   0  0  0  0  0  2  0  0  0  0  0  0
  197.2250  173.3640  135.6380 C   0  0  0  0  0  2  0  0  0  0  0  0
  196.1450  173.8630  134.6570 C   0  0  2  0  0  3  0  0  0  0  0  0
  195.6130  175.2310  135.0430 C   0  0  0  0  0  2  0  0  0  0  0  0
  195.1830  171.6160  134.6510 O   0  0  0  0  0  1  0  0  0  0  0  0
  196.8180  173.2010  137.1140 C   0  0  1  0  0  3  0  0  0  0  0  0
  194.3770  174.9770  135.8950 C   0  0  1  0  0  3  0  0  0  0  0  0
  194.9070  172.9870  134.6020 C   0  0  1  0  0  3  0  0  0  0  0  0
  194.2480  172.8040  137.0880 C   0  0  0  0  0  2  0  0  0  0  0  0
  196.7220  174.5180  137.8760 C   0  0  0  0  0  2  0  0  0  0  0  0
  196.3180  174.2750  139.3180 C   0  0  0  0  0  1  0  0  0  0  0  0
  192.2400  171.8300  134.8320 C   0  0  0  0  0  1  0  0  0  0  0  0
  192.5160  173.2280  135.3650 C   0  0  0  0  0  2  0  0  0  0  0  0
  179.6240  177.3390  138.7000 C   0  0  0  0  0  2  0  0  0  0  0  0
  180.7840  177.8660  138.2940 C   0  0  0  0  0  0  0  0  0  0  0  0
  180.6820  178.9870  137.2880 C   0  0  1  0  0  3  0  0  0  0  0  0
  181.7050  179.9210  137.4680 O   0  0  0  0  0  0  0  0  0  0  0  0
  181.1620  181.1350  137.0420 C   0  0  0  0  0  2  0  0  0  0  0  0
  180.3680  181.4280  139.2700 O   0  0  0  0  0  1  0  0  0  0  0  0
  179.0140  182.2680  137.6110 O   0  0  0  0  0  0  0  0  0  0  0  0
  180.1620  181.6070  138.0390 C   0  0  0  0  0  0  0  0  0  0  0  0
  180.7170  178.4500  135.8570 C   0  0  0  0  0  2  0  0  0  0  0  0
  181.0440  177.0620  135.8780 O   0  0  0  0  0  0  0  0  0  0  0  0
  180.2480  176.1010  135.2560 C   0  0  0  0  0  0  0  0  0  0  0  0
  179.0110  176.3040  135.1250 O   0  0  0  0  0  0  0  0  0  0  0  0
  180.8550  174.8820  134.6210 C   0  0  0  0  0  2  0  0  0  0  0  0
  182.1720  174.6320  135.1910 N   0  0  0  0  0  2  0  0  0  0  0  0
  181.9670  173.8680  136.4090 C   0  0  0  0  0  2  0  0  0  0  0  0
  183.4430  170.4370  136.2460 C   0  0  0  0  0  3  0  0  0  0  0  0
  182.1470  170.2730  135.4450 C   0  0  0  0  0  3  0  0  0  0  0  0
  183.4330  171.8780  136.6470 C   0  0  0  0  0  3  0  0  0  0  0  0
  182.3240  172.4350  136.2050 C   0  0  0  0  0  0  0  0  0  0  0  0
  181.5130  171.5390  135.5410 O   0  0  0  0  0  0  0  0  0  0  0  0
  181.2600  179.5090  143.2080 N   0  0  0  0  0  0  0  0  0  0  0  0
  182.2940  179.3130  142.7270 C   0  0  0  0  0  0  0  0  0  0  0  0
  184.6350  179.7040  144.2200 O   0  0  0  0  0  0  0  0  0  0  0  0
  185.1720  178.9580  145.2990 C   0  0  0  0  0  2  0  0  0  0  0  0
  184.0410  178.3970  146.1320 C   0  0  0  0  0  1  0  0  0  0  0  0
  1 10  1  0  0  0  0
  2 12  1  0  0  0  0
  3 62  1  0  0  0  0
  3  8  1  0  0  0  0
  5 12  1  0  0  0  0
  5  1  2  0  0  0  0
  6 11  1  0  0  0  0
  6  7  1  0  0  0  0
  7  2  1  0  0  0  0
  7  4  1  1  0  0  0
  8 63  1  0  0  0  0
  9  5  1  0  0  0  0
 10  8  2  0  0  0  0
 11  9  1  0  0  0  0
 12  3  2  0  0  0  0
 13 17  1  0  0  0  0
 14  1  1  1  0  0  0
 14 16  1  0  0  0  0
 15 18  1  0  0  0  0
 15 13  1  0  0  0  0
 17 16  2  0  0  0  0
 18 14  1  0  0  0  0
 19 24  1  0  0  0  0
 20 26  1  6  0  0  0
 20 19  1  0  0  0  0
 20 22  1  0  0  0  0
 21 19  2  0  0  0  0
 22 23  1  0  0  0  0
 24 13  1  6  0  0  0
 24 23  1  0  0  0  0
 25 26  2  0  0  0  0
 27 40  1  6  0  0  0
 27 34  1  0  0  0  0
 27 36  1  0  0  0  0
 29 33  1  0  0  0  0
 30 31  1  1  0  0  0
 30 29  1  0  0  0  0
 31 34  1  0  0  0  0
 33 28  1  0  0  0  0
 33 37  1  6  0  0  0
 34 25  1  6  0  0  0
 35 32  1  1  0  0  0
 35 30  1  0  0  0  0
 35 27  1  0  0  0  0
 36 28  1  0  0  0  0
 37 38  1  0  0  0  0
 39 40  1  0  0  0  0
 42 41  2  0  0  0  0
 42  7  1  0  0  0  0
 43 49  1  6  0  0  0
 43 44  1  0  0  0  0
 43 42  1  0  0  0  0
 45 44  1  0  0  0  0
 45 48  1  0  0  0  0
 47 48  2  0  0  0  0
 48 46  1  0  0  0  0
 49 50  1  0  0  0  0
 51 50  1  0  0  0  0
 52 51  2  0  0  0  0
 53 54  1  0  0  0  0
 53 51  1  0  0  0  0
 54 55  1  0  0  0  0
 56 58  1  0  0  0  0
 57 60  1  0  0  0  0
 57 56  2  0  0  0  0
 59 55  1  0  0  0  0
 59 58  2  0  0  0  0
 60 59  1  0  0  0  0
 62 61  3  0  0  0  0
 63 64  1  0  0  0  0
 64 65  1  0  0  0  0
M  END
>  <MODEL>
3

>  <REMARK>
 VINA RESULT:      -4.6      2.598     11.359
  Name = 
  21 active torsions:
  status: ('A' for Active; 'I' for Inactive)
    1  A    between atoms: C_1  and  C_53
    2  A    between atoms: C_3  and  C_7
    3  A    between atoms: C_4  and  C_61
    4  A    between atoms: N_5  and  C_38
    5  A    between atoms: C_6  and  C_51
    6  A    between atoms: C_9  and  C_26
    7  A    between atoms: C_19  and  C_41
    8  A    between atoms: C_19  and  O_50
    9  A    between atoms: C_21  and  O_55
   10  A    between atoms: C_21  and  C_60
   11  A    between atoms: C_25  and  C_35
   12  A    between atoms: C_27  and  C_47
   13  A    between atoms: C_27  and  O_55
   14  A    between atoms: N_28  and  C_48
   15  A    between atoms: N_28  and  C_60
   16  A    between atoms: C_33  and  O_58
   17  A    between atoms: C_35  and  C_47
   18  A    between atoms: C_44  and  C_52
   19  A    between atoms: C_46  and  O_58
   20  A    between atoms: C_47  and  O_50
   21  A    between atoms: C_48  and  C_57
                            x       y       z     vdW  Elec       q    Type
                         _______ _______ _______ _____ _____    ______ ____

>  <TORSDO>
F 21

$$$$
=
 OpenBabel11042410153D

 65 71  0  0  1  0  0  0  0  0999 V2000
  189.2980  176.7340  138.7780 C   0  0  0  0  0  0  0  0  0  0  0  0
  191.1790  177.7610  141.9310 C   0  0  0  0  0  2  0  0  0  0  0  0
  191.9600  177.0720  139.6430 C   0  0  0  0  0  0  0  0  0  0  0  0
  191.3080  175.6180  143.2280 C   0  0  0  0  0  1  0  0  0  0  0  0
  189.5830  176.8730  140.1530 C   0  0  0  0  0  0  0  0  0  0  0  0
  189.2680  177.0130  143.2480 O   0  0  0  0  0  0  0  0  0  0  0  0
  190.6850  177.0260  143.1920 C   0  0  2  0  0  0  0  0  0  0  0  0
  191.6900  176.8240  138.2890 C   0  0  0  0  0  0  0  0  0  0  0  0
  188.5390  176.7320  141.0700 O   0  0  0  0  0  0  0  0  0  0  0  0
  190.3640  176.6840  137.8690 C   0  0  0  0  0  3  0  0  0  0  0  0
  188.7270  176.1050  142.3270 C   0  0  0  0  0  2  0  0  0  0  0  0
  190.9060  177.1360  140.5800 C   0  0  0  0  0  0  0  0  0  0  0  0
  185.8580  176.7510  136.2280 N   0  0  0  0  0  0  0  0  0  0  0  0
  187.8670  176.5790  138.2880 C   0  0  1  0  0  3  0  0  0  0  0  0
  186.2440  175.4310  136.7490 C   0  0  0  0  0  2  0  0  0  0  0  0
  187.3250  177.8910  137.7690 C   0  0  0  0  0  3  0  0  0  0  0  0
  186.3740  177.9470  136.8360 C   0  0  0  0  0  3  0  0  0  0  0  0
  187.6910  175.4620  137.2390 C   0  0  0  0  0  2  0  0  0  0  0  0
  183.9450  175.7630  135.0550 C   0  0  0  0  0  0  0  0  0  0  0  0
  182.5310  176.1710  135.1830 C   0  0  2  0  0  3  0  0  0  0  0  0
  184.3100  174.6330  134.7660 O   0  0  0  0  0  0  0  0  0  0  0  0
  182.5480  177.5590  135.6460 N   0  0  0  0  0  2  0  0  0  0  0  0
  183.9120  178.0720  135.4820 C   0  0  0  0  0  2  0  0  0  0  0  0
  184.8550  176.9130  135.1680 C   0  0  1  0  0  3  0  0  0  0  0  0
  181.0670  175.8440  137.1700 C   0  0  0  0  0  3  0  0  0  0  0  0
  181.7800  175.3150  136.1630 C   0  0  0  0  0  3  0  0  0  0  0  0
  179.8460  177.8430  138.3520 C   0  0  1  0  0  0  0  0  0  0  0  0
  179.3310  180.2700  137.4580 C   0  0  0  0  0  2  0  0  0  0  0  0
  181.8120  180.4060  138.1570 C   0  0  0  0  0  2  0  0  0  0  0  0
  181.9160  179.0260  138.8380 C   0  0  2  0  0  3  0  0  0  0  0  0
  182.2720  177.9290  137.8520 C   0  0  0  0  0  2  0  0  0  0  0  0
  179.9010  179.5620  140.1150 O   0  0  0  0  0  1  0  0  0  0  0  0
  180.7700  180.5640  137.0340 C   0  0  1  0  0  3  0  0  0  0  0  0
  180.9500  177.3320  137.3900 C   0  0  1  0  0  3  0  0  0  0  0  0
  180.6200  178.5500  139.4690 C   0  0  1  0  0  3  0  0  0  0  0  0
  178.9400  178.7820  137.5270 C   0  0  0  0  0  2  0  0  0  0  0  0
  181.1900  179.9310  135.7110 C   0  0  0  0  0  2  0  0  0  0  0  0
  180.0160  179.8690  134.7510 C   0  0  0  0  0  1  0  0  0  0  0  0
  179.4400  176.1640  140.2560 C   0  0  0  0  0  1  0  0  0  0  0  0
  178.9370  176.7470  138.9440 C   0  0  0  0  0  2  0  0  0  0  0  0
  191.7600  179.0010  144.2390 C   0  0  0  0  0  2  0  0  0  0  0  0
  191.1440  177.8280  144.4120 C   0  0  0  0  0  0  0  0  0  0  0  0
  190.7090  177.5140  145.8230 C   0  0  1  0  0  3  0  0  0  0  0  0
  191.8070  177.4420  146.6840 O   0  0  0  0  0  0  0  0  0  0  0  0
  191.5670  176.3180  147.4780 C   0  0  0  0  0  2  0  0  0  0  0  0
  193.1770  175.1470  148.7870 O   0  0  0  0  0  0  0  0  0  0  0  0
  192.9360  177.3820  149.2710 O   0  0  0  0  0  1  0  0  0  0  0  0
  192.5970  176.2410  148.5500 C   0  0  0  0  0  0  0  0  0  0  0  0
  189.7130  178.5530  146.3390 C   0  0  0  0  0  2  0  0  0  0  0  0
  188.3840  178.0740  146.1470 O   0  0  0  0  0  0  0  0  0  0  0  0
  187.5370  177.7820  147.2160 C   0  0  0  0  0  0  0  0  0  0  0  0
  187.9400  177.0280  148.1440 O   0  0  0  0  0  0  0  0  0  0  0  0
  186.1990  178.4520  147.3540 C   0  0  0  0  0  2  0  0  0  0  0  0
  185.8790  179.1700  146.1270 N   0  0  0  0  0  2  0  0  0  0  0  0
  184.6110  178.6470  145.6500 C   0  0  0  0  0  2  0  0  0  0  0  0
  185.2030  178.7030  141.9590 C   0  0  0  0  0  3  0  0  0  0  0  0
  183.6930  178.4560  142.0440 C   0  0  0  0  0  3  0  0  0  0  0  0
  185.6270  178.8070  143.3890 C   0  0  0  0  0  3  0  0  0  0  0  0
  184.5760  178.6120  144.1600 C   0  0  0  0  0  0  0  0  0  0  0  0
  183.4330  178.3530  143.4350 O   0  0  0  0  0  0  0  0  0  0  0  0
  194.4190  177.4810  140.3940 N   0  0  0  0  0  0  0  0  0  0  0  0
  193.3280  177.2990  140.0560 C   0  0  0  0  0  0  0  0  0  0  0  0
  192.7460  176.7320  137.3730 O   0  0  0  0  0  0  0  0  0  0  0  0
  192.6750  175.9460  136.1940 C   0  0  0  0  0  2  0  0  0  0  0  0
  194.0090  175.9890  135.4830 C   0  0  0  0  0  1  0  0  0  0  0  0
  1  5  1  0  0  0  0
  2  7  1  0  0  0  0
  3 62  1  0  0  0  0
  3 12  1  0  0  0  0
  5 12  2  0  0  0  0
  5  9  1  0  0  0  0
  7  4  1  1  0  0  0
  7  6  1  0  0  0  0
  7 42  1  0  0  0  0
  8  3  2  0  0  0  0
  9 11  1  0  0  0  0
 10  8  1  0  0  0  0
 10  1  2  0  0  0  0
 11  6  1  0  0  0  0
 12  2  1  0  0  0  0
 13 15  1  0  0  0  0
 13 17  1  0  0  0  0
 14  1  1  6  0  0  0
 15 18  1  0  0  0  0
 16 14  1  0  0  0  0
 17 16  2  0  0  0  0
 18 14  1  0  0  0  0
 19 24  1  0  0  0  0
 19 20  1  0  0  0  0
 20 22  1  0  0  0  0
 20 26  1  1  0  0  0
 21 19  2  0  0  0  0
 23 22  1  0  0  0  0
 24 23  1  1  0  0  0
 24 13  1  0  0  0  0
 26 25  2  0  0  0  0
 27 40  1  1  0  0  0
 27 35  1  0  0  0  0
 28 36  1  0  0  0  0
 29 30  1  0  0  0  0
 30 31  1  6  0  0  0
 30 35  1  0  0  0  0
 33 37  1  6  0  0  0
 33 28  1  0  0  0  0
 33 29  1  0  0  0  0
 34 25  1  1  0  0  0
 34 31  1  0  0  0  0
 34 27  1  0  0  0  0
 35 32  1  6  0  0  0
 36 27  1  0  0  0  0
 38 37  1  0  0  0  0
 40 39  1  0  0  0  0
 41 42  2  0  0  0  0
 42 43  1  0  0  0  0
 43 49  1  1  0  0  0
 43 44  1  0  0  0  0
 44 45  1  0  0  0  0
 45 48  1  0  0  0  0
 48 46  2  0  0  0  0
 48 47  1  0  0  0  0
 50 49  1  0  0  0  0
 50 51  1  0  0  0  0
 51 53  1  0  0  0  0
 51 52  2  0  0  0  0
 54 53  1  0  0  0  0
 55 54  1  0  0  0  0
 56 57  2  0  0  0  0
 56 58  1  0  0  0  0
 57 60  1  0  0  0  0
 58 59  2  0  0  0  0
 59 55  1  0  0  0  0
 60 59  1  0  0  0  0
 62 61  3  0  0  0  0
 63  8  1  0  0  0  0
 64 63  1  0  0  0  0
 65 64  1  0  0  0  0
M  END
>  <MODEL>
4

>  <REMARK>
 VINA RESULT:      -4.5      2.932      8.392
  Name = 
  21 active torsions:
  status: ('A' for Active; 'I' for Inactive)
    1  A    between atoms: C_1  and  C_53
    2  A    between atoms: C_3  and  C_7
    3  A    between atoms: C_4  and  C_61
    4  A    between atoms: N_5  and  C_38
    5  A    between atoms: C_6  and  C_51
    6  A    between atoms: C_9  and  C_26
    7  A    between atoms: C_19  and  C_41
    8  A    between atoms: C_19  and  O_50
    9  A    between atoms: C_21  and  O_55
   10  A    between atoms: C_21  and  C_60
   11  A    between atoms: C_25  and  C_35
   12  A    between atoms: C_27  and  C_47
   13  A    between atoms: C_27  and  O_55
   14  A    between atoms: N_28  and  C_48
   15  A    between atoms: N_28  and  C_60
   16  A    between atoms: C_33  and  O_58
   17  A    between atoms: C_35  and  C_47
   18  A    between atoms: C_44  and  C_52
   19  A    between atoms: C_46  and  O_58
   20  A    between atoms: C_47  and  O_50
   21  A    between atoms: C_48  and  C_57
                            x       y       z     vdW  Elec       q    Type
                         _______ _______ _______ _____ _____    ______ ____

>  <TORSDO>
F 21

$$$$
=
 OpenBabel11042410153D

 65 71  0  0  1  0  0  0  0  0999 V2000
  186.0630  178.6350  141.5280 C   0  0  0  0  0  0  0  0  0  0  0  0
  182.4440  178.7630  140.3380 C   0  0  0  0  0  2  0  0  0  0  0  0
  183.4710  178.7470  142.6320 C   0  0  0  0  0  0  0  0  0  0  0  0
  181.8930  176.3450  139.9610 C   0  0  0  0  0  1  0  0  0  0  0  0
  184.9360  178.3890  140.7150 C   0  0  0  0  0  0  0  0  0  0  0  0
  183.1390  177.6570  138.2790 O   0  0  0  0  0  0  0  0  0  0  0  0
  182.1240  177.7010  139.2680 C   0  0  2  0  0  0  0  0  0  0  0  0
  184.5930  178.8830  143.4630 C   0  0  0  0  0  0  0  0  0  0  0  0
  185.1400  177.9870  139.3930 O   0  0  0  0  0  0  0  0  0  0  0  0
  185.8720  178.8520  142.8990 C   0  0  0  0  0  3  0  0  0  0  0  0
  184.2990  177.0360  138.7620 C   0  0  0  0  0  2  0  0  0  0  0  0
  183.6330  178.5360  141.2460 C   0  0  0  0  0  0  0  0  0  0  0  0
  189.9910  177.2970  140.4680 N   0  0  0  0  0  0  0  0  0  0  0  0
  187.4680  178.6070  140.9460 C   0  0  1  0  0  3  0  0  0  0  0  0
  189.0960  177.5740  139.3330 C   0  0  0  0  0  2  0  0  0  0  0  0
  188.5000  178.3810  142.0270 C   0  0  0  0  0  3  0  0  0  0  0  0
  189.6740  177.7990  141.7770 C   0  0  0  0  0  3  0  0  0  0  0  0
  187.6430  177.5880  139.8020 C   0  0  0  0  0  2  0  0  0  0  0  0
  191.4210  175.9560  138.9960 C   0  0  0  0  0  0  0  0  0  0  0  0
  192.6180  176.4270  138.2700 C   0  0  2  0  0  3  0  0  0  0  0  0
  190.7050  175.0410  138.6190 O   0  0  0  0  0  0  0  0  0  0  0  0
  193.1070  177.5950  139.0020 N   0  0  0  0  0  2  0  0  0  0  0  0
  192.4300  177.6260  140.3030 C   0  0  0  0  0  2  0  0  0  0  0  0
  191.2820  176.6200  140.3010 C   0  0  1  0  0  3  0  0  0  0  0  0
  192.8580  176.1680  135.8060 C   0  0  0  0  0  3  0  0  0  0  0  0
  192.3070  176.8070  136.8500 C   0  0  0  0  0  3  0  0  0  0  0  0
  193.2650  173.5760  135.7830 C   0  0  1  0  0  0  0  0  0  0  0  0
  194.8670  172.1080  137.2760 C   0  0  0  0  0  2  0  0  0  0  0  0
  196.4560  173.1180  135.5100 C   0  0  0  0  0  2  0  0  0  0  0  0
  195.3860  173.7600  134.6050 C   0  0  2  0  0  3  0  0  0  0  0  0
  195.0240  175.1630  135.0570 C   0  0  0  0  0  2  0  0  0  0  0  0
  194.1900  171.6280  134.5940 O   0  0  0  0  0  1  0  0  0  0  0  0
  196.1130  172.9510  137.0020 C   0  0  1  0  0  3  0  0  0  0  0  0
  193.8160  175.0140  135.9700 C   0  0  1  0  0  3  0  0  0  0  0  0
  194.0600  173.0210  134.5970 C   0  0  1  0  0  3  0  0  0  0  0  0
  193.5170  172.8290  137.1100 C   0  0  0  0  0  2  0  0  0  0  0  0
  196.1990  174.2470  137.8030 C   0  0  0  0  0  2  0  0  0  0  0  0
  197.5990  174.8280  137.7330 C   0  0  0  0  0  1  0  0  0  0  0  0
  191.2960  172.1380  134.9660 C   0  0  0  0  0  1  0  0  0  0  0  0
  191.7520  173.4890  135.4990 C   0  0  0  0  0  2  0  0  0  0  0  0
  179.6700  177.6350  138.9190 C   0  0  0  0  0  2  0  0  0  0  0  0
  180.8500  178.1360  138.5410 C   0  0  0  0  0  0  0  0  0  0  0  0
  180.7950  179.3070  137.5900 C   0  0  1  0  0  3  0  0  0  0  0  0
  181.8460  180.1970  137.8240 O   0  0  0  0  0  0  0  0  0  0  0  0
  181.3070  181.4610  137.5790 C   0  0  0  0  0  2  0  0  0  0  0  0
  178.9310  181.5330  137.7350 O   0  0  0  0  0  0  0  0  0  0  0  0
  180.0680  181.8150  139.7150 O   0  0  0  0  0  1  0  0  0  0  0  0
  180.0350  181.6130  138.3370 C   0  0  0  0  0  0  0  0  0  0  0  0
  180.8270  178.8390  136.1350 C   0  0  0  0  0  2  0  0  0  0  0  0
  182.1450  178.4060  135.8030 O   0  0  0  0  0  0  0  0  0  0  0  0
  182.4430  177.0710  135.5310 C   0  0  0  0  0  0  0  0  0  0  0  0
  181.6950  176.1600  135.9800 O   0  0  0  0  0  0  0  0  0  0  0  0
  183.5640  176.6980  134.6040 C   0  0  0  0  0  2  0  0  0  0  0  0
  183.7350  175.2510  134.5930 N   0  0  0  0  0  2  0  0  0  0  0  0
  184.3400  174.8890  135.8630 C   0  0  0  0  0  2  0  0  0  0  0  0
  188.0410  175.0840  136.3580 C   0  0  0  0  0  3  0  0  0  0  0  0
  187.9150  175.0900  134.8310 C   0  0  0  0  0  3  0  0  0  0  0  0
  186.6240  175.0220  136.8310 C   0  0  0  0  0  3  0  0  0  0  0  0
  185.8280  174.9570  135.7830 C   0  0  0  0  0  0  0  0  0  0  0  0
  186.5240  174.9430  134.5940 O   0  0  0  0  0  0  0  0  0  0  0  0
  181.0960  178.9640  143.6740 N   0  0  0  0  0  0  0  0  0  0  0  0
  182.1500  178.8640  143.2100 C   0  0  0  0  0  0  0  0  0  0  0  0
  184.4220  179.0610  144.8420 O   0  0  0  0  0  0  0  0  0  0  0  0
  185.4890  178.9540  145.7700 C   0  0  0  0  0  2  0  0  0  0  0  0
  186.1690  177.6140  145.5980 C   0  0  0  0  0  1  0  0  0  0  0  0
  1 10  1  0  0  0  0
  2 12  1  0  0  0  0
  3 62  1  0  0  0  0
  3  8  1  0  0  0  0
  5 12  1  0  0  0  0
  5  1  2  0  0  0  0
  6 11  1  0  0  0  0
  6  7  1  0  0  0  0
  7  4  1  1  0  0  0
  7  2  1  0  0  0  0
  8 63  1  0  0  0  0
  9  5  1  0  0  0  0
 10  8  2  0  0  0  0
 11  9  1  0  0  0  0
 12  3  2  0  0  0  0
 13 17  1  0  0  0  0
 14  1  1  1  0  0  0
 14 16  1  0  0  0  0
 15 18  1  0  0  0  0
 15 13  1  0  0  0  0
 17 16  2  0  0  0  0
 18 14  1  0  0  0  0
 19 24  1  0  0  0  0
 20 26  1  6  0  0  0
 20 19  1  0  0  0  0
 20 22  1  0  0  0  0
 21 19  2  0  0  0  0
 22 23  1  0  0  0  0
 24 23  1  6  0  0  0
 24 13  1  0  0  0  0
 25 26  2  0  0  0  0
 27 40  1  6  0  0  0
 27 34  1  0  0  0  0
 27 36  1  0  0  0  0
 29 33  1  0  0  0  0
 30 31  1  1  0  0  0
 30 29  1  0  0  0  0
 31 34  1  0  0  0  0
 33 28  1  0  0  0  0
 33 37  1  6  0  0  0
 34 25  1  6  0  0  0
 35 32  1  1  0  0  0
 35 30  1  0  0  0  0
 35 27  1  0  0  0  0
 36 28  1  0  0  0  0
 38 37  1  0  0  0  0
 39 40  1  0  0  0  0
 42 41  2  0  0  0  0
 42  7  1  0  0  0  0
 43 49  1  6  0  0  0
 43 44  1  0  0  0  0
 43 42  1  0  0  0  0
 45 44  1  0  0  0  0
 45 48  1  0  0  0  0
 46 48  2  0  0  0  0
 48 47  1  0  0  0  0
 50 49  1  0  0  0  0
 51 50  1  0  0  0  0
 51 52  2  0  0  0  0
 53 51  1  0  0  0  0
 54 53  1  0  0  0  0
 54 55  1  0  0  0  0
 56 58  1  0  0  0  0
 57 56  2  0  0  0  0
 59 55  1  0  0  0  0
 59 58  2  0  0  0  0
 60 57  1  0  0  0  0
 60 59  1  0  0  0  0
 62 61  3  0  0  0  0
 63 64  1  0  0  0  0
 65 64  1  0  0  0  0
M  END
>  <MODEL>
5

>  <REMARK>
 VINA RESULT:      -3.7      2.528     10.582
  Name = 
  21 active torsions:
  status: ('A' for Active; 'I' for Inactive)
    1  A    between atoms: C_1  and  C_53
    2  A    between atoms: C_3  and  C_7
    3  A    between atoms: C_4  and  C_61
    4  A    between atoms: N_5  and  C_38
    5  A    between atoms: C_6  and  C_51
    6  A    between atoms: C_9  and  C_26
    7  A    between atoms: C_19  and  C_41
    8  A    between atoms: C_19  and  O_50
    9  A    between atoms: C_21  and  O_55
   10  A    between atoms: C_21  and  C_60
   11  A    between atoms: C_25  and  C_35
   12  A    between atoms: C_27  and  C_47
   13  A    between atoms: C_27  and  O_55
   14  A    between atoms: N_28  and  C_48
   15  A    between atoms: N_28  and  C_60
   16  A    between atoms: C_33  and  O_58
   17  A    between atoms: C_35  and  C_47
   18  A    between atoms: C_44  and  C_52
   19  A    between atoms: C_46  and  O_58
   20  A    between atoms: C_47  and  O_50
   21  A    between atoms: C_48  and  C_57
                            x       y       z     vdW  Elec       q    Type
                         _______ _______ _______ _____ _____    ______ ____

>  <TORSDO>
F 21

$$$$
=
 OpenBabel11042410153D

 65 71  0  0  1  0  0  0  0  0999 V2000
  190.4360  177.0970  144.1030 C   0  0  0  0  0  0  0  0  0  0  0  0
  186.9760  178.4620  144.9400 C   0  0  0  0  0  2  0  0  0  0  0  0
  188.8680  177.6480  146.3800 C   0  0  0  0  0  0  0  0  0  0  0  0
  185.5130  176.4340  144.7490 C   0  0  0  0  0  1  0  0  0  0  0  0
  189.0550  177.3550  143.9660 C   0  0  0  0  0  0  0  0  0  0  0  0
  186.2100  177.7090  142.7510 O   0  0  0  0  0  0  0  0  0  0  0  0
  185.8530  177.7980  144.1200 C   0  0  2  0  0  0  0  0  0  0  0  0
  190.2150  177.2840  146.5290 C   0  0  0  0  0  0  0  0  0  0  0  0
  188.4720  177.2250  142.7040 O   0  0  0  0  0  0  0  0  0  0  0  0
  190.9880  177.0390  145.3890 C   0  0  0  0  0  3  0  0  0  0  0  0
  187.1650  176.7060  142.5330 C   0  0  0  0  0  2  0  0  0  0  0  0
  188.2870  177.7230  145.0960 C   0  0  0  0  0  0  0  0  0  0  0  0
  191.8660  177.0580  140.0660 N   0  0  0  0  0  0  0  0  0  0  0  0
  191.3050  176.8260  142.8850 C   0  0  1  0  0  3  0  0  0  0  0  0
  192.7400  177.7400  141.0340 C   0  0  0  0  0  2  0  0  0  0  0  0
  190.5330  176.0750  141.8230 C   0  0  0  0  0  3  0  0  0  0  0  0
  190.8300  176.1740  140.5270 C   0  0  0  0  0  3  0  0  0  0  0  0
  191.9530  178.0940  142.2940 C   0  0  0  0  0  2  0  0  0  0  0  0
  192.8270  176.0000  138.0750 C   0  0  0  0  0  0  0  0  0  0  0  0
  192.0800  175.3280  136.9920 C   0  0  2  0  0  3  0  0  0  0  0  0
  193.9720  175.7190  138.3950 O   0  0  0  0  0  0  0  0  0  0  0  0
  190.7280  175.8890  137.0190 N   0  0  0  0  0  2  0  0  0  0  0  0
  190.7560  177.0880  137.8630 C   0  0  0  0  0  2  0  0  0  0  0  0
  192.0820  177.1460  138.6170 C   0  0  1  0  0  3  0  0  0  0  0  0
  193.0870  173.0520  136.9790 C   0  0  0  0  0  3  0  0  0  0  0  0
  192.0190  173.8390  137.1830 C   0  0  0  0  0  3  0  0  0  0  0  0
  195.6960  173.0340  137.2600 C   0  0  1  0  0  0  0  0  0  0  0  0
  197.4240  175.0180  137.0790 C   0  0  0  0  0  2  0  0  0  0  0  0
  196.9440  174.4190  134.6150 C   0  0  0  0  0  2  0  0  0  0  0  0
  196.1120  173.1450  134.8650 C   0  0  2  0  0  3  0  0  0  0  0  0
  194.6390  173.4560  135.0580 C   0  0  0  0  0  2  0  0  0  0  0  0
  197.8790  172.3440  136.3520 O   0  0  0  0  0  1  0  0  0  0  0  0
  196.9330  175.4980  135.7130 C   0  0  1  0  0  3  0  0  0  0  0  0
  194.4310  173.5950  136.5590 C   0  0  1  0  0  3  0  0  0  0  0  0
  196.4990  172.3920  136.1240 C   0  0  1  0  0  3  0  0  0  0  0  0
  196.4020  174.2350  137.9250 C   0  0  0  0  0  2  0  0  0  0  0  0
  195.6540  176.3290  135.7480 C   0  0  0  0  0  2  0  0  0  0  0  0
  195.8560  177.6530  135.0360 C   0  0  0  0  0  1  0  0  0  0  0  0
  195.4510  170.5560  137.8970 C   0  0  0  0  0  1  0  0  0  0  0  0
  195.4230  172.0010  138.3710 C   0  0  0  0  0  2  0  0  0  0  0  0
  184.5900  179.7160  145.0580 C   0  0  0  0  0  2  0  0  0  0  0  0
  184.6280  178.7130  144.1750 C   0  0  0  0  0  0  0  0  0  0  0  0
  183.5580  178.7330  143.1090 C   0  0  1  0  0  3  0  0  0  0  0  0
  182.4590  179.4940  143.5130 O   0  0  0  0  0  0  0  0  0  0  0  0
  181.4300  179.1280  142.6440 C   0  0  0  0  0  2  0  0  0  0  0  0
  179.6630  177.5570  142.9410 O   0  0  0  0  0  0  0  0  0  0  0  0
  180.0170  179.0020  144.6960 O   0  0  0  0  0  1  0  0  0  0  0  0
  180.3170  178.5210  143.4240 C   0  0  0  0  0  0  0  0  0  0  0  0
  184.1050  179.2720  141.7870 C   0  0  0  0  0  2  0  0  0  0  0  0
  183.4600  178.6120  140.7010 O   0  0  0  0  0  0  0  0  0  0  0  0
  183.4290  179.1510  139.4150 C   0  0  0  0  0  0  0  0  0  0  0  0
  183.9090  180.2990  139.2080 O   0  0  0  0  0  0  0  0  0  0  0  0
  182.9530  178.3410  138.2430 C   0  0  0  0  0  2  0  0  0  0  0  0
  181.8510  177.4820  138.6530 N   0  0  0  0  0  2  0  0  0  0  0  0
  182.3120  176.1110  138.5210 C   0  0  0  0  0  2  0  0  0  0  0  0
  185.0050  175.4350  136.0170 C   0  0  0  0  0  3  0  0  0  0  0  0
  183.9630  176.1860  135.1810 C   0  0  0  0  0  3  0  0  0  0  0  0
  184.3990  175.3900  137.3830 C   0  0  0  0  0  3  0  0  0  0  0  0
  183.2140  175.9630  137.3420 C   0  0  0  0  0  0  0  0  0  0  0  0
  182.8840  176.4010  136.0770 O   0  0  0  0  0  0  0  0  0  0  0  0
  187.4750  178.2480  148.4960 N   0  0  0  0  0  0  0  0  0  0  0  0
  188.0970  177.9810  147.5580 C   0  0  0  0  0  0  0  0  0  0  0  0
  190.7730  177.1830  147.8090 O   0  0  0  0  0  0  0  0  0  0  0  0
  191.3640  175.9900  148.2990 C   0  0  0  0  0  2  0  0  0  0  0  0
  192.8610  176.1780  148.3990 C   0  0  0  0  0  1  0  0  0  0  0  0
  1 10  1  0  0  0  0
  2 12  1  0  0  0  0
  3  8  1  0  0  0  0
  3 62  1  0  0  0  0
  5  1  2  0  0  0  0
  5 12  1  0  0  0  0
  6  7  1  0  0  0  0
  7 42  1  0  0  0  0
  7  4  1  1  0  0  0
  7  2  1  0  0  0  0
  8 63  1  0  0  0  0
  9  5  1  0  0  0  0
 10  8  2  0  0  0  0
 11  9  1  0  0  0  0
 11  6  1  0  0  0  0
 12  3  2  0  0  0  0
 13 17  1  0  0  0  0
 13 15  1  0  0  0  0
 14  1  1  1  0  0  0
 15 18  1  0  0  0  0
 16 14  1  0  0  0  0
 17 16  2  0  0  0  0
 18 14  1  0  0  0  0
 19 21  2  0  0  0  0
 19 24  1  0  0  0  0
 20 22  1  0  0  0  0
 20 26  1  1  0  0  0
 20 19  1  0  0  0  0
 22 23  1  0  0  0  0
 24 23  1  6  0  0  0
 24 13  1  0  0  0  0
 25 26  2  0  0  0  0
 27 36  1  0  0  0  0
 27 40  1  1  0  0  0
 28 36  1  0  0  0  0
 29 33  1  0  0  0  0
 30 29  1  1  0  0  0
 30 31  1  0  0  0  0
 30 35  1  0  0  0  0
 31 34  1  0  0  0  0
 33 37  1  1  0  0  0
 33 28  1  0  0  0  0
 34 25  1  1  0  0  0
 34 27  1  0  0  0  0
 35 32  1  1  0  0  0
 35 27  1  0  0  0  0
 38 37  1  0  0  0  0
 39 40  1  0  0  0  0
 42 41  2  0  0  0  0
 43 49  1  6  0  0  0
 43 44  1  0  0  0  0
 43 42  1  0  0  0  0
 45 48  1  0  0  0  0
 45 44  1  0  0  0  0
 46 48  2  0  0  0  0
 48 47  1  0  0  0  0
 50 49  1  0  0  0  0
 51 50  1  0  0  0  0
 52 51  2  0  0  0  0
 53 54  1  0  0  0  0
 53 51  1  0  0  0  0
 55 54  1  0  0  0  0
 56 58  1  0  0  0  0
 57 56  2  0  0  0  0
 57 60  1  0  0  0  0
 59 58  2  0  0  0  0
 59 55  1  0  0  0  0
 60 59  1  0  0  0  0
 62 61  3  0  0  0  0
 63 64  1  0  0  0  0
 64 65  1  0  0  0  0
M  END
>  <MODEL>
6

>  <REMARK>
 VINA RESULT:      -3.3      2.768     11.145
  Name = 
  21 active torsions:
  status: ('A' for Active; 'I' for Inactive)
    1  A    between atoms: C_1  and  C_53
    2  A    between atoms: C_3  and  C_7
    3  A    between atoms: C_4  and  C_61
    4  A    between atoms: N_5  and  C_38
    5  A    between atoms: C_6  and  C_51
    6  A    between atoms: C_9  and  C_26
    7  A    between atoms: C_19  and  C_41
    8  A    between atoms: C_19  and  O_50
    9  A    between atoms: C_21  and  O_55
   10  A    between atoms: C_21  and  C_60
   11  A    between atoms: C_25  and  C_35
   12  A    between atoms: C_27  and  C_47
   13  A    between atoms: C_27  and  O_55
   14  A    between atoms: N_28  and  C_48
   15  A    between atoms: N_28  and  C_60
   16  A    between atoms: C_33  and  O_58
   17  A    between atoms: C_35  and  C_47
   18  A    between atoms: C_44  and  C_52
   19  A    between atoms: C_46  and  O_58
   20  A    between atoms: C_47  and  O_50
   21  A    between atoms: C_48  and  C_57
                            x       y       z     vdW  Elec       q    Type
                         _______ _______ _______ _____ _____    ______ ____

>  <TORSDO>
F 21

$$$$
=
 OpenBabel11042410153D

 65 71  0  0  1  0  0  0  0  0999 V2000
  180.8760  178.5070  139.6810 C   0  0  0  0  0  0  0  0  0  0  0  0
  180.9830  176.2860  136.5840 C   0  0  0  0  0  2  0  0  0  0  0  0
  179.8240  178.4640  137.0650 C   0  0  0  0  0  0  0  0  0  0  0  0
  179.1930  174.5920  137.0490 C   0  0  0  0  0  1  0  0  0  0  0  0
  180.9430  177.3260  138.9100 C   0  0  0  0  0  0  0  0  0  0  0  0
  181.4490  174.3820  138.0340 O   0  0  0  0  0  0  0  0  0  0  0  0
  180.7110  174.8020  136.8990 C   0  0  2  0  0  0  0  0  0  0  0  0
  179.6590  179.6020  137.8670 C   0  0  0  0  0  0  0  0  0  0  0  0
  181.4380  176.1650  139.5080 O   0  0  0  0  0  0  0  0  0  0  0  0
  180.2080  179.6200  139.1540 C   0  0  0  0  0  3  0  0  0  0  0  0
  180.8980  174.8870  139.2200 C   0  0  0  0  0  2  0  0  0  0  0  0
  180.5000  177.3310  137.5670 C   0  0  0  0  0  0  0  0  0  0  0  0
  183.4920  179.3910  142.9540 N   0  0  0  0  0  0  0  0  0  0  0  0
  181.4620  178.5600  141.0830 C   0  0  1  0  0  3  0  0  0  0  0  0
  182.1330  179.9440  143.0710 C   0  0  0  0  0  2  0  0  0  0  0  0
  182.8520  177.9660  141.1130 C   0  0  0  0  0  3  0  0  0  0  0  0
  183.7660  178.3450  142.0070 C   0  0  0  0  0  3  0  0  0  0  0  0
  181.4580  179.9730  141.7010 C   0  0  0  0  0  2  0  0  0  0  0  0
  184.7840  178.8240  144.9590 C   0  0  0  0  0  0  0  0  0  0  0  0
  186.1750  178.3270  144.9940 C   0  0  2  0  0  3  0  0  0  0  0  0
  183.9430  178.5710  145.8080 O   0  0  0  0  0  0  0  0  0  0  0  0
  186.7990  178.7690  143.7470 N   0  0  0  0  0  2  0  0  0  0  0  0
  185.9220  179.7750  143.1380 C   0  0  0  0  0  2  0  0  0  0  0  0
  184.5780  179.7810  143.8610 C   0  0  1  0  0  3  0  0  0  0  0  0
  187.2570  176.1250  144.5740 C   0  0  0  0  0  3  0  0  0  0  0  0
  186.2400  176.8290  145.0960 C   0  0  0  0  0  3  0  0  0  0  0  0
  189.6550  177.1830  144.7060 C   0  0  1  0  0  0  0  0  0  0  0  0
  190.6890  179.1890  143.3440 C   0  0  0  0  0  2  0  0  0  0  0  0
  190.8490  177.2060  141.6990 C   0  0  0  0  0  2  0  0  0  0  0  0
  190.4210  176.0890  142.6720 C   0  0  2  0  0  3  0  0  0  0  0  0
  188.9140  175.9130  142.7110 C   0  0  0  0  0  2  0  0  0  0  0  0
  192.0660  176.9260  144.2760 O   0  0  0  0  0  1  0  0  0  0  0  0
  190.3160  178.6250  141.9720 C   0  0  1  0  0  3  0  0  0  0  0  0
  188.4180  176.7750  143.8640 C   0  0  1  0  0  3  0  0  0  0  0  0
  190.7990  176.3520  144.1190 C   0  0  1  0  0  3  0  0  0  0  0  0
  189.8300  178.7060  144.5270 C   0  0  0  0  0  2  0  0  0  0  0  0
  188.8570  178.8230  141.5740 C   0  0  0  0  0  2  0  0  0  0  0  0
  188.5980  178.2530  140.1920 C   0  0  0  0  0  1  0  0  0  0  0  0
  190.8570  176.8900  146.9600 C   0  0  0  0  0  1  0  0  0  0  0  0
  189.5280  176.9210  146.2200 C   0  0  0  0  0  2  0  0  0  0  0  0
  180.3880  173.2220  135.0140 C   0  0  0  0  0  2  0  0  0  0  0  0
  181.2360  173.9700  135.7270 C   0  0  0  0  0  0  0  0  0  0  0  0
  182.6170  174.1410  135.1400 C   0  0  1  0  0  3  0  0  0  0  0  0
  183.3050  175.1850  135.7640 O   0  0  0  0  0  0  0  0  0  0  0  0
  183.8470  175.9330  134.7170 C   0  0  0  0  0  2  0  0  0  0  0  0
  185.3450  177.6620  135.3830 O   0  0  0  0  0  1  0  0  0  0  0  0
  186.2620  175.5590  135.2160 O   0  0  0  0  0  0  0  0  0  0  0  0
  185.1890  176.4400  135.1150 C   0  0  0  0  0  0  0  0  0  0  0  0
  183.4270  172.8480  135.2490 C   0  0  0  0  0  2  0  0  0  0  0  0
  184.6730  173.1200  135.8880 O   0  0  0  0  0  0  0  0  0  0  0  0
  185.7870  172.2980  135.7240 C   0  0  0  0  0  0  0  0  0  0  0  0
  185.8300  171.4900  134.7570 O   0  0  0  0  0  0  0  0  0  0  0  0
  186.9970  172.4440  136.6020 C   0  0  0  0  0  2  0  0  0  0  0  0
  188.0530  173.1380  135.8760 N   0  0  0  0  0  2  0  0  0  0  0  0
  189.1360  173.3620  136.8170 C   0  0  0  0  0  2  0  0  0  0  0  0
  191.2730  176.4240  136.6330 C   0  0  0  0  0  3  0  0  0  0  0  0
  190.0780  176.8070  135.7540 C   0  0  0  0  0  3  0  0  0  0  0  0
  190.9390  175.0460  137.1060 C   0  0  0  0  0  3  0  0  0  0  0  0
  189.7930  174.6780  136.5700 C   0  0  0  0  0  0  0  0  0  0  0  0
  189.2700  175.6410  135.7340 O   0  0  0  0  0  0  0  0  0  0  0  0
  178.9340  178.4960  134.6190 N   0  0  0  0  0  0  0  0  0  0  0  0
  179.3260  178.4840  135.7070 C   0  0  0  0  0  0  0  0  0  0  0  0
  178.9600  180.7110  137.3710 O   0  0  0  0  0  0  0  0  0  0  0  0
  179.5590  181.9850  137.2030 C   0  0  0  0  0  2  0  0  0  0  0  0
  180.9890  181.8100  136.7440 C   0  0  0  0  0  1  0  0  0  0  0  0
  2  7  1  0  0  0  0
  2 12  1  0  0  0  0
  3 12  2  0  0  0  0
  3  8  1  0  0  0  0
  5  9  1  0  0  0  0
  5  1  2  0  0  0  0
  6 11  1  0  0  0  0
  7  4  1  1  0  0  0
  7  6  1  0  0  0  0
  8 10  2  0  0  0  0
 10  1  1  0  0  0  0
 11  9  1  0  0  0  0
 12  5  1  0  0  0  0
 13 15  1  0  0  0  0
 14  1  1  6  0  0  0
 14 16  1  0  0  0  0
 14 18  1  0  0  0  0
 16 17  2  0  0  0  0
 17 13  1  0  0  0  0
 18 15  1  0  0  0  0
 19 20  1  0  0  0  0
 19 21  2  0  0  0  0
 20 26  1  6  0  0  0
 22 20  1  0  0  0  0
 23 22  1  0  0  0  0
 23 24  1  0  0  0  0
 24 13  1  6  0  0  0
 24 19  1  0  0  0  0
 25 26  2  0  0  0  0
 27 40  1  1  0  0  0
 28 36  1  0  0  0  0
 29 33  1  0  0  0  0
 30 29  1  6  0  0  0
 30 31  1  0  0  0  0
 30 35  1  0  0  0  0
 31 34  1  0  0  0  0
 33 37  1  1  0  0  0
 33 28  1  0  0  0  0
 34 25  1  1  0  0  0
 34 27  1  0  0  0  0
 35 32  1  6  0  0  0
 35 27  1  0  0  0  0
 36 27  1  0  0  0  0
 38 37  1  0  0  0  0
 40 39  1  0  0  0  0
 41 42  2  0  0  0  0
 42  7  1  0  0  0  0
 43 49  1  1  0  0  0
 43 42  1  0  0  0  0
 43 44  1  0  0  0  0
 45 48  1  0  0  0  0
 45 44  1  0  0  0  0
 48 47  2  0  0  0  0
 48 46  1  0  0  0  0
 49 50  1  0  0  0  0
 51 50  1  0  0  0  0
 51 53  1  0  0  0  0
 52 51  2  0  0  0  0
 54 53  1  0  0  0  0
 54 55  1  0  0  0  0
 56 58  1  0  0  0  0
 57 56  2  0  0  0  0
 59 55  1  0  0  0  0
 59 58  2  0  0  0  0
 60 57  1  0  0  0  0
 60 59  1  0  0  0  0
 61 62  3  0  0  0  0
 62  3  1  0  0  0  0
 63  8  1  0  0  0  0
 64 63  1  0  0  0  0
 65 64  1  0  0  0  0
M  END
>  <MODEL>
7

>  <REMARK>
 VINA RESULT:      -2.9      3.046      9.660
  Name = 
  21 active torsions:
  status: ('A' for Active; 'I' for Inactive)
    1  A    between atoms: C_1  and  C_53
    2  A    between atoms: C_3  and  C_7
    3  A    between atoms: C_4  and  C_61
    4  A    between atoms: N_5  and  C_38
    5  A    between atoms: C_6  and  C_51
    6  A    between atoms: C_9  and  C_26
    7  A    between atoms: C_19  and  C_41
    8  A    between atoms: C_19  and  O_50
    9  A    between atoms: C_21  and  O_55
   10  A    between atoms: C_21  and  C_60
   11  A    between atoms: C_25  and  C_35
   12  A    between atoms: C_27  and  C_47
   13  A    between atoms: C_27  and  O_55
   14  A    between atoms: N_28  and  C_48
   15  A    between atoms: N_28  and  C_60
   16  A    between atoms: C_33  and  O_58
   17  A    between atoms: C_35  and  C_47
   18  A    between atoms: C_44  and  C_52
   19  A    between atoms: C_46  and  O_58
   20  A    between atoms: C_47  and  O_50
   21  A    between atoms: C_48  and  C_57
                            x       y       z     vdW  Elec       q    Type
                         _______ _______ _______ _____ _____    ______ ____

>  <TORSDO>
F 21

$$$$
=
 OpenBabel11042410153D

 65 71  0  0  1  0  0  0  0  0999 V2000
  190.5820  177.0140  144.1560 C   0  0  0  0  0  0  0  0  0  0  0  0
  187.1580  178.4150  145.0750 C   0  0  0  0  0  2  0  0  0  0  0  0
  189.0500  177.5210  146.4680 C   0  0  0  0  0  0  0  0  0  0  0  0
  185.6560  176.4200  144.8370 C   0  0  0  0  0  1  0  0  0  0  0  0
  189.2050  177.3020  144.0440 C   0  0  0  0  0  0  0  0  0  0  0  0
  186.3540  177.7450  142.8730 O   0  0  0  0  0  0  0  0  0  0  0  0
  186.0140  177.7970  144.2480 C   0  0  2  0  0  0  0  0  0  0  0  0
  190.3910  177.1280  146.5890 C   0  0  0  0  0  0  0  0  0  0  0  0
  188.6060  177.2220  142.7840 O   0  0  0  0  0  0  0  0  0  0  0  0
  191.1470  176.9060  145.4340 C   0  0  0  0  0  3  0  0  0  0  0  0
  187.2870  176.7320  142.6130 C   0  0  0  0  0  2  0  0  0  0  0  0
  188.4560  177.6470  145.1930 C   0  0  0  0  0  0  0  0  0  0  0  0
  192.0170  177.1510  140.1240 N   0  0  0  0  0  0  0  0  0  0  0  0
  191.4320  176.7660  142.9200 C   0  0  1  0  0  3  0  0  0  0  0  0
  192.9350  177.6990  141.1340 C   0  0  0  0  0  2  0  0  0  0  0  0
  190.6120  176.1480  141.8110 C   0  0  0  0  0  3  0  0  0  0  0  0
  190.9190  176.3150  140.5240 C   0  0  0  0  0  3  0  0  0  0  0  0
  192.1730  178.0220  142.4170 C   0  0  0  0  0  2  0  0  0  0  0  0
  192.8780  176.1550  138.0560 C   0  0  0  0  0  0  0  0  0  0  0  0
  192.0730  175.6360  136.9310 C   0  0  2  0  0  3  0  0  0  0  0  0
  193.9910  175.7450  138.3490 O   0  0  0  0  0  0  0  0  0  0  0  0
  190.7800  176.3170  137.0050 N   0  0  0  0  0  2  0  0  0  0  0  0
  190.9180  177.4440  137.9340 C   0  0  0  0  0  2  0  0  0  0  0  0
  192.2430  177.3230  138.6840 C   0  0  1  0  0  3  0  0  0  0  0  0
  192.8680  173.2830  136.7690 C   0  0  0  0  0  3  0  0  0  0  0  0
  191.8730  174.1490  137.0140 C   0  0  0  0  0  3  0  0  0  0  0  0
  195.4380  173.2430  137.2970 C   0  0  1  0  0  0  0  0  0  0  0  0
  197.2480  175.1370  137.0040 C   0  0  0  0  0  2  0  0  0  0  0  0
  196.9730  174.2020  134.6150 C   0  0  0  0  0  2  0  0  0  0  0  0
  196.0740  172.9980  134.9610 C   0  0  2  0  0  3  0  0  0  0  0  0
  194.6020  173.3680  134.9670 C   0  0  0  0  0  2  0  0  0  0  0  0
  197.6670  172.3760  136.7080 O   0  0  0  0  0  1  0  0  0  0  0  0
  196.9020  175.4280  135.5440 C   0  0  1  0  0  3  0  0  0  0  0  0
  194.2640  173.7270  136.4070 C   0  0  1  0  0  3  0  0  0  0  0  0
  196.3160  172.4250  136.3450 C   0  0  1  0  0  3  0  0  0  0  0  0
  196.1260  174.5090  137.8500 C   0  0  0  0  0  2  0  0  0  0  0  0
  195.6580  176.2850  135.3390 C   0  0  0  0  0  2  0  0  0  0  0  0
  195.9550  177.7420  135.6430 C   0  0  0  0  0  1  0  0  0  0  0  0
  195.2430  170.8930  138.3220 C   0  0  0  0  0  1  0  0  0  0  0  0
  195.0260  172.3870  138.5120 C   0  0  0  0  0  2  0  0  0  0  0  0
  184.8490  179.7850  145.1680 C   0  0  0  0  0  2  0  0  0  0  0  0
  184.8070  178.7320  144.3450 C   0  0  0  0  0  0  0  0  0  0  0  0
  183.6550  178.7070  143.3680 C   0  0  1  0  0  3  0  0  0  0  0  0
  182.5080  179.2740  143.9270 O   0  0  0  0  0  0  0  0  0  0  0  0
  181.4440  178.6340  143.2870 C   0  0  0  0  0  2  0  0  0  0  0  0
  179.3340  178.8840  144.3660 O   0  0  0  0  0  1  0  0  0  0  0  0
  179.9520  180.6080  142.9740 O   0  0  0  0  0  0  0  0  0  0  0  0
  180.1820  179.3710  143.5690 C   0  0  0  0  0  0  0  0  0  0  0  0
  184.0150  179.4350  142.0720 C   0  0  0  0  0  2  0  0  0  0  0  0
  183.3720  178.7930  140.9720 O   0  0  0  0  0  0  0  0  0  0  0  0
  183.1190  179.4540  139.7710 C   0  0  0  0  0  0  0  0  0  0  0  0
  184.0410  180.1060  139.2100 O   0  0  0  0  0  0  0  0  0  0  0  0
  181.8040  179.3000  139.0610 C   0  0  0  0  0  2  0  0  0  0  0  0
  182.0350  178.9660  137.6610 N   0  0  0  0  0  2  0  0  0  0  0  0
  181.1210  179.7790  136.8780 C   0  0  0  0  0  2  0  0  0  0  0  0
  179.2600  181.7140  139.4800 C   0  0  0  0  0  3  0  0  0  0  0  0
  179.4670  182.7610  138.3800 C   0  0  0  0  0  3  0  0  0  0  0  0
  179.8930  180.4810  138.9200 C   0  0  0  0  0  3  0  0  0  0  0  0
  180.4100  180.7650  137.7420 C   0  0  0  0  0  0  0  0  0  0  0  0
  180.2380  182.0890  137.3970 O   0  0  0  0  0  0  0  0  0  0  0  0
  187.6970  178.0850  148.6190 N   0  0  0  0  0  0  0  0  0  0  0  0
  188.2980  177.8310  147.6640 C   0  0  0  0  0  0  0  0  0  0  0  0
  190.9610  176.9770  147.8600 O   0  0  0  0  0  0  0  0  0  0  0  0
  192.2320  176.3820  148.0660 C   0  0  0  0  0  2  0  0  0  0  0  0
  192.0890  174.8770  148.0490 C   0  0  0  0  0  1  0  0  0  0  0  0
  1 10  1  0  0  0  0
  2 12  1  0  0  0  0
  3  8  1  0  0  0  0
  3 62  1  0  0  0  0
  5  1  2  0  0  0  0
  5 12  1  0  0  0  0
  6  7  1  0  0  0  0
  7 42  1  0  0  0  0
  7  4  1  1  0  0  0
  7  2  1  0  0  0  0
  8 63  1  0  0  0  0
  9  5  1  0  0  0  0
 10  8  2  0  0  0  0
 11  9  1  0  0  0  0
 11  6  1  0  0  0  0
 12  3  2  0  0  0  0
 13 17  1  0  0  0  0
 13 15  1  0  0  0  0
 14  1  1  1  0  0  0
 15 18  1  0  0  0  0
 16 14  1  0  0  0  0
 17 16  2  0  0  0  0
 18 14  1  0  0  0  0
 19 21  2  0  0  0  0
 19 24  1  0  0  0  0
 20 22  1  0  0  0  0
 20 26  1  1  0  0  0
 20 19  1  0  0  0  0
 22 23  1  0  0  0  0
 24 23  1  6  0  0  0
 24 13  1  0  0  0  0
 25 26  2  0  0  0  0
 27 36  1  0  0  0  0
 27 40  1  1  0  0  0
 28 36  1  0  0  0  0
 29 33  1  0  0  0  0
 30 29  1  1  0  0  0
 30 31  1  0  0  0  0
 30 35  1  0  0  0  0
 31 34  1  0  0  0  0
 33 37  1  1  0  0  0
 33 28  1  0  0  0  0
 34 25  1  1  0  0  0
 34 27  1  0  0  0  0
 35 32  1  1  0  0  0
 35 27  1  0  0  0  0
 37 38  1  0  0  0  0
 39 40  1  0  0  0  0
 42 41  2  0  0  0  0
 43 49  1  6  0  0  0
 43 44  1  0  0  0  0
 43 42  1  0  0  0  0
 45 48  1  0  0  0  0
 45 44  1  0  0  0  0
 47 48  2  0  0  0  0
 48 46  1  0  0  0  0
 50 49  1  0  0  0  0
 51 50  1  0  0  0  0
 52 51  2  0  0  0  0
 53 51  1  0  0  0  0
 54 53  1  0  0  0  0
 55 54  1  0  0  0  0
 55 59  1  0  0  0  0
 57 56  2  0  0  0  0
 58 56  1  0  0  0  0
 59 58  2  0  0  0  0
 60 59  1  0  0  0  0
 60 57  1  0  0  0  0
 62 61  3  0  0  0  0
 63 64  1  0  0  0  0
 65 64  1  0  0  0  0
M  END
>  <MODEL>
8

>  <REMARK>
 VINA RESULT:      -2.7      3.547     11.796
  Name = 
  21 active torsions:
  status: ('A' for Active; 'I' for Inactive)
    1  A    between atoms: C_1  and  C_53
    2  A    between atoms: C_3  and  C_7
    3  A    between atoms: C_4  and  C_61
    4  A    between atoms: N_5  and  C_38
    5  A    between atoms: C_6  and  C_51
    6  A    between atoms: C_9  and  C_26
    7  A    between atoms: C_19  and  C_41
    8  A    between atoms: C_19  and  O_50
    9  A    between atoms: C_21  and  O_55
   10  A    between atoms: C_21  and  C_60
   11  A    between atoms: C_25  and  C_35
   12  A    between atoms: C_27  and  C_47
   13  A    between atoms: C_27  and  O_55
   14  A    between atoms: N_28  and  C_48
   15  A    between atoms: N_28  and  C_60
   16  A    between atoms: C_33  and  O_58
   17  A    between atoms: C_35  and  C_47
   18  A    between atoms: C_44  and  C_52
   19  A    between atoms: C_46  and  O_58
   20  A    between atoms: C_47  and  O_50
   21  A    between atoms: C_48  and  C_57
                            x       y       z     vdW  Elec       q    Type
                         _______ _______ _______ _____ _____    ______ ____

>  <TORSDO>
F 21

$$$$
