=
 OpenBabel11042412013D

 28 32  0  0  1  0  0  0  0  0999 V2000
  191.9030  176.6570  139.9960 C   0  0  0  0  0  3  0  0  0  0  0  0
  188.3010  177.2810  142.8010 C   0  0  0  0  0  3  0  0  0  0  0  0
  189.5990  175.4730  135.5110 N   0  0  0  0  0  0  0  0  0  0  0  0
  192.3910  177.3510  141.0980 C   0  0  0  0  0  3  0  0  0  0  0  0
  189.6480  176.2250  137.7830 C   0  0  0  0  0  0  0  0  0  0  0  0
  190.1580  177.2790  141.1560 C   0  0  0  0  0  0  0  0  0  0  0  0
  189.4960  177.5560  137.3340 C   0  0  0  0  0  0  0  0  0  0  0  0
  189.7310  175.9140  139.1770 N   0  0  0  0  0  2  0  0  0  0  0  0
  189.7770  173.8320  137.2590 N   0  0  0  0  0  1  0  0  0  0  0  0
  184.4400  178.4310  142.6860 Cl  0  0  0  0  0  0  0  0  0  0  0  0
  186.9790  177.5470  143.1640 C   0  0  0  0  0  3  0  0  0  0  0  0
  189.4400  177.8100  135.9600 C   0  0  0  0  0  3  0  0  0  0  0  0
  189.4960  176.7490  135.0570 C   0  0  0  0  0  3  0  0  0  0  0  0
  187.8580  178.1170  140.5640 C   0  0  0  0  0  0  0  0  0  0  0  0
  188.7500  177.5530  141.5020 C   0  0  0  0  0  0  0  0  0  0  0  0
  189.3700  178.7140  138.2850 C   0  0  2  0  0  3  0  0  0  0  0  0
  190.5590  176.6370  140.0480 N   0  0  0  0  0  0  0  0  0  0  0  0
  188.2880  178.4770  139.2500 N   0  0  0  0  0  0  0  0  0  0  0  0
  188.2160  179.2960  138.1160 O   0  0  0  0  0  0  0  0  0  0  0  0
  189.6640  175.1880  136.8390 C   0  0  0  0  0  0  0  0  0  0  0  0
  186.0960  178.0950  142.2310 C   0  0  0  0  0  0  0  0  0  0  0  0
  191.2750  177.7410  141.8210 C   0  0  0  0  0  0  0  0  0  0  0  0
  186.5370  178.3860  140.9380 C   0  0  0  0  0  3  0  0  0  0  0  0
  191.3020  178.5230  143.0900 C   0  0  0  0  0  2  0  0  0  0  0  0
  191.5440  176.6250  146.4510 C   0  0  0  0  0  1  0  0  0  0  0  0
  189.9110  178.0850  145.5290 O   0  0  0  0  0  0  0  0  0  0  0  0
  191.0180  177.5030  145.3750 C   0  0  0  0  0  0  0  0  0  0  0  0
  191.7710  177.6770  144.1750 N   0  0  0  0  0  2  0  0  0  0  0  0
  1 17  1  0  0  0  0
  1  4  2  0  0  0  0
  2 11  1  0  0  0  0
  3 20  1  0  0  0  0
  4 22  1  0  0  0  0
  5  8  1  0  0  0  0
  6 15  1  0  0  0  0
  6 22  2  0  0  0  0
  7  5  1  0  0  0  0
  8 17  1  0  0  0  0
 12  7  2  0  0  0  0
 13  3  2  0  0  0  0
 13 12  1  0  0  0  0
 14 23  2  0  0  0  0
 14 15  1  0  0  0  0
 15  2  2  0  0  0  0
 16  7  1  6  0  0  0
 16 18  1  0  0  0  0
 17  6  1  0  0  0  0
 18 14  1  0  0  0  0
 19 16  1  0  0  0  0
 19 18  1  0  0  0  0
 20  9  1  0  0  0  0
 20  5  2  0  0  0  0
 21 10  1  0  0  0  0
 21 11  2  0  0  0  0
 22 24  1  0  0  0  0
 23 21  1  0  0  0  0
 24 28  1  0  0  0  0
 27 26  2  0  0  0  0
 27 25  1  0  0  0  0
 28 27  1  0  0  0  0
M  END
>  <MODEL>
1

>  <REMARK>
 VINA RESULT:      -7.7      0.000      0.000
  Name = 
  2 active torsions:
  status: ('A' for Active; 'I' for Inactive)
    1  A    between atoms: C_18  and  C_26
    2  A    between atoms: C_18  and  N_28
                            x       y       z     vdW  Elec       q    Type
                         _______ _______ _______ _____ _____    ______ ____

>  <TORSDO>
F 2

$$$$
=
 OpenBabel11042412013D

 28 32  0  0  1  0  0  0  0  0999 V2000
  184.4390  179.2570  141.8080 C   0  0  0  0  0  3  0  0  0  0  0  0
  188.4170  178.6280  139.5680 C   0  0  0  0  0  3  0  0  0  0  0  0
  181.1570  180.2840  137.9330 N   0  0  0  0  0  0  0  0  0  0  0  0
  185.2810  178.6000  142.6980 C   0  0  0  0  0  3  0  0  0  0  0  0
  183.2490  179.5890  138.8670 C   0  0  0  0  0  0  0  0  0  0  0  0
  186.1870  178.6280  140.6550 C   0  0  0  0  0  0  0  0  0  0  0  0
  182.9120  178.2440  138.5930 C   0  0  0  0  0  0  0  0  0  0  0  0
  184.5010  179.9350  139.4670 N   0  0  0  0  0  2  0  0  0  0  0  0
  182.6810  181.9700  138.7190 N   0  0  0  0  0  1  0  0  0  0  0  0
  189.8020  177.3960  135.9890 Cl  0  0  0  0  0  0  0  0  0  0  0  0
  189.2610  178.3440  138.4920 C   0  0  0  0  0  3  0  0  0  0  0  0
  181.6680  177.9550  138.0240 C   0  0  0  0  0  3  0  0  0  0  0  0
  180.7960  178.9950  137.7010 C   0  0  0  0  0  3  0  0  0  0  0  0
  186.5310  177.7280  138.3280 C   0  0  0  0  0  0  0  0  0  0  0  0
  187.0490  178.3340  139.4950 C   0  0  0  0  0  0  0  0  0  0  0  0
  183.8560  177.1080  138.8730 C   0  0  2  0  0  3  0  0  0  0  0  0
  185.0000  179.2510  140.5840 N   0  0  0  0  0  0  0  0  0  0  0  0
  185.1580  177.3460  138.2340 N   0  0  0  0  0  0  0  0  0  0  0  0
  184.1490  176.4970  137.7580 O   0  0  0  0  0  0  0  0  0  0  0  0
  182.3560  180.6020  138.4920 C   0  0  0  0  0  0  0  0  0  0  0  0
  188.7440  177.7550  137.3360 C   0  0  0  0  0  0  0  0  0  0  0  0
  186.3810  178.2060  141.9550 C   0  0  0  0  0  0  0  0  0  0  0  0
  187.3850  177.4410  137.2590 C   0  0  0  0  0  3  0  0  0  0  0  0
  187.5550  177.4550  142.4860 C   0  0  0  0  0  2  0  0  0  0  0  0
  188.2240  177.5020  146.2950 C   0  0  0  0  0  1  0  0  0  0  0  0
  189.4790  178.2510  144.4200 O   0  0  0  0  0  0  0  0  0  0  0  0
  188.4220  177.7050  144.8370 C   0  0  0  0  0  0  0  0  0  0  0  0
  187.4130  177.2810  143.9220 N   0  0  0  0  0  2  0  0  0  0  0  0
  1  4  2  0  0  0  0
  3 20  1  0  0  0  0
  5  8  1  0  0  0  0
  6 22  2  0  0  0  0
  7  5  1  0  0  0  0
  7 16  1  0  0  0  0
  8 17  1  0  0  0  0
 10 21  1  0  0  0  0
 11  2  2  0  0  0  0
 12  7  2  0  0  0  0
 13  3  2  0  0  0  0
 13 12  1  0  0  0  0
 14 15  2  0  0  0  0
 15  2  1  0  0  0  0
 15  6  1  0  0  0  0
 16 19  1  6  0  0  0
 17  6  1  0  0  0  0
 17  1  1  0  0  0  0
 18 14  1  0  0  0  0
 18 16  1  0  0  0  0
 19 18  1  0  0  0  0
 20  9  1  0  0  0  0
 20  5  2  0  0  0  0
 21 11  1  0  0  0  0
 22 24  1  0  0  0  0
 22  4  1  0  0  0  0
 23 21  2  0  0  0  0
 23 14  1  0  0  0  0
 24 28  1  0  0  0  0
 26 27  2  0  0  0  0
 27 25  1  0  0  0  0
 28 27  1  0  0  0  0
M  END
>  <MODEL>
2

>  <REMARK>
 VINA RESULT:      -6.8      4.006      6.268
  Name = 
  2 active torsions:
  status: ('A' for Active; 'I' for Inactive)
    1  A    between atoms: C_18  and  C_26
    2  A    between atoms: C_18  and  N_28
                            x       y       z     vdW  Elec       q    Type
                         _______ _______ _______ _____ _____    ______ ____

>  <TORSDO>
F 2

$$$$
=
 OpenBabel11042412013D

 28 32  0  0  1  0  0  0  0  0999 V2000
  188.1240  177.9240  138.8870 C   0  0  0  0  0  3  0  0  0  0  0  0
  192.4590  176.6480  137.9850 C   0  0  0  0  0  3  0  0  0  0  0  0
  185.6040  176.2780  134.6710 N   0  0  0  0  0  0  0  0  0  0  0  0
  188.7960  177.9650  140.1030 C   0  0  0  0  0  3  0  0  0  0  0  0
  187.4970  176.4560  136.1260 C   0  0  0  0  0  0  0  0  0  0  0  0
  190.0660  176.9790  138.5500 C   0  0  0  0  0  0  0  0  0  0  0  0
  187.2400  175.1510  136.6030 C   0  0  0  0  0  0  0  0  0  0  0  0
  188.6090  177.2170  136.6050 N   0  0  0  0  0  2  0  0  0  0  0  0
  186.9260  178.2840  134.5940 N   0  0  0  0  0  1  0  0  0  0  0  0
  194.5070  173.8370  135.9490 Cl  0  0  0  0  0  0  0  0  0  0  0  0
  193.4940  175.9250  137.3870 C   0  0  0  0  0  3  0  0  0  0  0  0
  186.1280  174.4550  136.1190 C   0  0  0  0  0  3  0  0  0  0  0  0
  185.3140  175.0390  135.1480 C   0  0  0  0  0  3  0  0  0  0  0  0
  190.8530  175.0040  137.2000 C   0  0  0  0  0  0  0  0  0  0  0  0
  191.1340  176.2040  137.8910 C   0  0  0  0  0  0  0  0  0  0  0  0
  188.1340  174.4710  137.6030 C   0  0  2  0  0  3  0  0  0  0  0  0
  188.9030  177.3180  137.9720 N   0  0  0  0  0  0  0  0  0  0  0  0
  189.5280  174.4740  137.1370 N   0  0  0  0  0  0  0  0  0  0  0  0
  188.6400  173.3910  137.0750 O   0  0  0  0  0  0  0  0  0  0  0  0
  186.6720  176.9870  135.1250 C   0  0  0  0  0  0  0  0  0  0  0  0
  193.2110  174.7450  136.6960 C   0  0  0  0  0  0  0  0  0  0  0  0
  190.0220  177.3610  139.8750 C   0  0  0  0  0  0  0  0  0  0  0  0
  191.8960  174.2830  136.6100 C   0  0  0  0  0  3  0  0  0  0  0  0
  191.0890  177.1660  140.8980 C   0  0  0  0  0  2  0  0  0  0  0  0
  189.6320  176.9090  144.4720 C   0  0  0  0  0  1  0  0  0  0  0  0
  190.2190  175.2830  142.8410 O   0  0  0  0  0  0  0  0  0  0  0  0
  190.1520  176.5050  143.1410 C   0  0  0  0  0  0  0  0  0  0  0  0
  190.5720  177.5060  142.2130 N   0  0  0  0  0  2  0  0  0  0  0  0
  1  4  2  0  0  0  0
  3 20  2  0  0  0  0
  3 13  1  0  0  0  0
  5  7  2  0  0  0  0
  5  8  1  0  0  0  0
  6 22  2  0  0  0  0
  8 17  1  0  0  0  0
  9 20  1  0  0  0  0
 10 21  1  0  0  0  0
 11  2  2  0  0  0  0
 12  7  1  0  0  0  0
 13 12  2  0  0  0  0
 14 15  2  0  0  0  0
 15  2  1  0  0  0  0
 15  6  1  0  0  0  0
 16  7  1  6  0  0  0
 17  6  1  0  0  0  0
 17  1  1  0  0  0  0
 18 14  1  0  0  0  0
 18 16  1  0  0  0  0
 19 18  1  0  0  0  0
 19 16  1  0  0  0  0
 20  5  1  0  0  0  0
 21 11  1  0  0  0  0
 22  4  1  0  0  0  0
 22 24  1  0  0  0  0
 23 21  2  0  0  0  0
 23 14  1  0  0  0  0
 24 28  1  0  0  0  0
 26 27  2  0  0  0  0
 27 25  1  0  0  0  0
 28 27  1  0  0  0  0
M  END
>  <MODEL>
3

>  <REMARK>
 VINA RESULT:      -6.2      3.659      5.359
  Name = 
  2 active torsions:
  status: ('A' for Active; 'I' for Inactive)
    1  A    between atoms: C_18  and  C_26
    2  A    between atoms: C_18  and  N_28
                            x       y       z     vdW  Elec       q    Type
                         _______ _______ _______ _____ _____    ______ ____

>  <TORSDO>
F 2

$$$$
=
 OpenBabel11042412013D

 28 32  0  0  1  0  0  0  0  0999 V2000
  189.7550  178.2620  140.2680 C   0  0  0  0  0  3  0  0  0  0  0  0
  185.3980  179.3450  141.3070 C   0  0  0  0  0  3  0  0  0  0  0  0
  191.9400  177.9220  144.9520 N   0  0  0  0  0  0  0  0  0  0  0  0
  189.0100  177.9920  139.1250 C   0  0  0  0  0  3  0  0  0  0  0  0
  190.0990  178.1260  143.4360 C   0  0  0  0  0  0  0  0  0  0  0  0
  187.6540  178.4190  140.8500 C   0  0  0  0  0  0  0  0  0  0  0  0
  189.7840  176.7650  143.6510 C   0  0  0  0  0  0  0  0  0  0  0  0
  189.3100  178.9430  142.5650 N   0  0  0  0  0  2  0  0  0  0  0  0
  191.4960  180.0700  143.9680 N   0  0  0  0  0  1  0  0  0  0  0  0
  182.6930  178.8420  144.2510 Cl  0  0  0  0  0  0  0  0  0  0  0  0
  184.2450  179.4480  142.0880 C   0  0  0  0  0  3  0  0  0  0  0  0
  190.5980  176.0030  144.4950 C   0  0  0  0  0  3  0  0  0  0  0  0
  191.6810  176.6010  145.1390 C   0  0  0  0  0  3  0  0  0  0  0  0
  186.3420  177.7740  142.9010 C   0  0  0  0  0  0  0  0  0  0  0  0
  186.4570  178.5200  141.7070 C   0  0  0  0  0  0  0  0  0  0  0  0
  188.5880  176.1080  143.0200 C   0  0  2  0  0  3  0  0  0  0  0  0
  188.9180  178.5050  141.2930 N   0  0  0  0  0  0  0  0  0  0  0  0
  187.3650  176.8670  143.3140 N   0  0  0  0  0  0  0  0  0  0  0  0
  187.7770  175.6880  143.9500 O   0  0  0  0  0  0  0  0  0  0  0  0
  191.1750  178.6920  144.1330 C   0  0  0  0  0  0  0  0  0  0  0  0
  184.1390  178.7170  143.2730 C   0  0  0  0  0  0  0  0  0  0  0  0
  187.6830  178.0920  139.5090 C   0  0  0  0  0  0  0  0  0  0  0  0
  185.1810  177.8780  143.6730 C   0  0  0  0  0  3  0  0  0  0  0  0
  186.5090  177.8780  138.6150 C   0  0  0  0  0  2  0  0  0  0  0  0
  187.1770  178.1220  134.8130 C   0  0  0  0  0  1  0  0  0  0  0  0
  186.6680  176.3020  136.2550 O   0  0  0  0  0  0  0  0  0  0  0  0
  186.8710  177.5410  136.1450 C   0  0  0  0  0  0  0  0  0  0  0  0
  186.8060  178.3930  137.2890 N   0  0  0  0  0  2  0  0  0  0  0  0
  1 17  1  0  0  0  0
  2 15  2  0  0  0  0
  2 11  1  0  0  0  0
  3 13  1  0  0  0  0
  4 22  1  0  0  0  0
  4  1  2  0  0  0  0
  5  7  2  0  0  0  0
  5 20  1  0  0  0  0
  6 17  1  0  0  0  0
  6 15  1  0  0  0  0
  7 12  1  0  0  0  0
  8  5  1  0  0  0  0
  9 20  1  0  0  0  0
 11 21  2  0  0  0  0
 12 13  2  0  0  0  0
 14 18  1  0  0  0  0
 14 23  2  0  0  0  0
 15 14  1  0  0  0  0
 16 18  1  0  0  0  0
 16  7  1  1  0  0  0
 16 19  1  0  0  0  0
 17  8  1  0  0  0  0
 18 19  1  0  0  0  0
 20  3  2  0  0  0  0
 21 23  1  0  0  0  0
 21 10  1  0  0  0  0
 22  6  2  0  0  0  0
 24 22  1  0  0  0  0
 25 27  1  0  0  0  0
 27 26  2  0  0  0  0
 27 28  1  0  0  0  0
 28 24  1  0  0  0  0
M  END
>  <MODEL>
4

>  <REMARK>
 VINA RESULT:      -6.1      2.512      6.619
  Name = 
  2 active torsions:
  status: ('A' for Active; 'I' for Inactive)
    1  A    between atoms: C_18  and  C_26
    2  A    between atoms: C_18  and  N_28
                            x       y       z     vdW  Elec       q    Type
                         _______ _______ _______ _____ _____    ______ ____

>  <TORSDO>
F 2

$$$$
=
 OpenBabel11042412013D

 28 32  0  0  1  0  0  0  0  0999 V2000
  190.5830  175.3640  135.7190 C   0  0  0  0  0  3  0  0  0  0  0  0
  190.9270  176.3760  140.2020 C   0  0  0  0  0  3  0  0  0  0  0  0
  185.4770  175.7030  134.9160 N   0  0  0  0  0  0  0  0  0  0  0  0
  191.9180  175.6830  135.9390 C   0  0  0  0  0  3  0  0  0  0  0  0
  187.4870  175.9710  136.1880 C   0  0  0  0  0  0  0  0  0  0  0  0
  190.6950  176.1940  137.7380 C   0  0  0  0  0  0  0  0  0  0  0  0
  187.4700  177.3550  135.9030 C   0  0  0  0  0  0  0  0  0  0  0  0
  188.5100  175.3910  137.0020 N   0  0  0  0  0  2  0  0  0  0  0  0
  186.4130  173.7730  136.0020 N   0  0  0  0  0  1  0  0  0  0  0  0
  189.0420  178.5070  143.0560 Cl  0  0  0  0  0  0  0  0  0  0  0  0
  190.5520  176.9080  141.4380 C   0  0  0  0  0  3  0  0  0  0  0  0
  186.4590  177.8700  135.0850 C   0  0  0  0  0  3  0  0  0  0  0  0
  185.4660  177.0230  134.5950 C   0  0  0  0  0  3  0  0  0  0  0  0
  189.2170  177.7080  139.1050 C   0  0  0  0  0  0  0  0  0  0  0  0
  190.2620  176.7600  139.0310 C   0  0  0  0  0  0  0  0  0  0  0  0
  188.4910  178.3030  136.4680 C   0  0  2  0  0  3  0  0  0  0  0  0
  189.8660  175.6910  136.8110 N   0  0  0  0  0  0  0  0  0  0  0  0
  188.5570  178.1820  137.9310 N   0  0  0  0  0  0  0  0  0  0  0  0
  187.8980  179.1910  137.2160 O   0  0  0  0  0  0  0  0  0  0  0  0
  186.4470  175.1650  135.7020 C   0  0  0  0  0  0  0  0  0  0  0  0
  189.5110  177.8370  141.5090 C   0  0  0  0  0  0  0  0  0  0  0  0
  191.9740  176.2090  137.2190 C   0  0  0  0  0  0  0  0  0  0  0  0
  188.8520  178.2400  140.3460 C   0  0  0  0  0  3  0  0  0  0  0  0
  193.2080  176.7020  137.8940 C   0  0  0  0  0  2  0  0  0  0  0  0
  195.6000  173.7730  138.7080 C   0  0  0  0  0  1  0  0  0  0  0  0
  195.3870  175.2180  136.8330 O   0  0  0  0  0  0  0  0  0  0  0  0
  194.9610  174.8940  137.9730 C   0  0  0  0  0  0  0  0  0  0  0  0
  193.8700  175.5970  138.5680 N   0  0  0  0  0  2  0  0  0  0  0  0
  1  4  2  0  0  0  0
  1 17  1  0  0  0  0
  2 11  1  0  0  0  0
  3 20  1  0  0  0  0
  4 22  1  0  0  0  0
  5  8  1  0  0  0  0
  6 15  1  0  0  0  0
  7  5  1  0  0  0  0
 11 21  2  0  0  0  0
 12  7  2  0  0  0  0
 13  3  2  0  0  0  0
 13 12  1  0  0  0  0
 14 23  2  0  0  0  0
 15 14  1  0  0  0  0
 15  2  2  0  0  0  0
 16  7  1  6  0  0  0
 16 19  1  0  0  0  0
 16 18  1  0  0  0  0
 17  8  1  0  0  0  0
 17  6  1  0  0  0  0
 18 14  1  0  0  0  0
 19 18  1  0  0  0  0
 20  9  1  0  0  0  0
 20  5  2  0  0  0  0
 21 10  1  0  0  0  0
 22  6  2  0  0  0  0
 22 24  1  0  0  0  0
 23 21  1  0  0  0  0
 24 28  1  0  0  0  0
 26 27  2  0  0  0  0
 27 28  1  0  0  0  0
 27 25  1  0  0  0  0
M  END
>  <MODEL>
5

>  <REMARK>
 VINA RESULT:      -6.1      3.054      4.737
  Name = 
  2 active torsions:
  status: ('A' for Active; 'I' for Inactive)
    1  A    between atoms: C_18  and  C_26
    2  A    between atoms: C_18  and  N_28
                            x       y       z     vdW  Elec       q    Type
                         _______ _______ _______ _____ _____    ______ ____

>  <TORSDO>
F 2

$$$$
=
 OpenBabel11042412013D

 28 32  0  0  1  0  0  0  0  0999 V2000
  188.2550  174.9650  135.3120 C   0  0  0  0  0  3  0  0  0  0  0  0
  190.3900  176.2090  139.2020 C   0  0  0  0  0  3  0  0  0  0  0  0
  183.2750  175.0180  136.7370 N   0  0  0  0  0  0  0  0  0  0  0  0
  189.5360  175.3570  134.9380 C   0  0  0  0  0  3  0  0  0  0  0  0
  185.6120  175.4440  137.0320 C   0  0  0  0  0  0  0  0  0  0  0  0
  189.1540  175.8970  137.0740 C   0  0  0  0  0  0  0  0  0  0  0  0
  185.3880  176.8100  136.7490 C   0  0  0  0  0  0  0  0  0  0  0  0
  186.9190  174.9550  137.3510 N   0  0  0  0  0  2  0  0  0  0  0  0
  184.7040  173.1910  137.3710 N   0  0  0  0  0  1  0  0  0  0  0  0
  189.7490  178.3840  142.5350 Cl  0  0  0  0  0  0  0  0  0  0  0  0
  190.5360  176.7830  140.4680 C   0  0  0  0  0  3  0  0  0  0  0  0
  184.0960  177.2360  136.4230 C   0  0  0  0  0  3  0  0  0  0  0  0
  183.0460  176.3190  136.4200 C   0  0  0  0  0  3  0  0  0  0  0  0
  188.2950  177.4020  138.9010 C   0  0  0  0  0  0  0  0  0  0  0  0
  189.2700  176.5030  138.4140 C   0  0  0  0  0  0  0  0  0  0  0  0
  186.4890  177.8320  136.8060 C   0  0  2  0  0  3  0  0  0  0  0  0
  188.0460  175.3100  136.5970 N   0  0  0  0  0  0  0  0  0  0  0  0
  187.1730  177.7870  138.1060 N   0  0  0  0  0  0  0  0  0  0  0  0
  186.2100  178.7270  137.7130 O   0  0  0  0  0  0  0  0  0  0  0  0
  184.5190  174.5660  137.0510 C   0  0  0  0  0  0  0  0  0  0  0  0
  189.5650  177.6630  140.9510 C   0  0  0  0  0  0  0  0  0  0  0  0
  190.0910  175.9480  136.0620 C   0  0  0  0  0  0  0  0  0  0  0  0
  188.4530  177.9760  140.1660 C   0  0  0  0  0  3  0  0  0  0  0  0
  191.4610  176.5310  136.1390 C   0  0  0  0  0  2  0  0  0  0  0  0
  194.4610  174.6200  137.6580 C   0  0  0  0  0  1  0  0  0  0  0  0
  193.6850  176.8560  137.8780 O   0  0  0  0  0  0  0  0  0  0  0  0
  193.5140  175.7230  137.3540 C   0  0  0  0  0  0  0  0  0  0  0  0
  192.4170  175.4880  136.4710 N   0  0  0  0  0  2  0  0  0  0  0  0
  1 17  1  0  0  0  0
  2 11  1  0  0  0  0
  3 20  1  0  0  0  0
  4  1  2  0  0  0  0
  4 22  1  0  0  0  0
  5 20  2  0  0  0  0
  5  8  1  0  0  0  0
  6 15  1  0  0  0  0
  7  5  1  0  0  0  0
 11 21  2  0  0  0  0
 12  7  2  0  0  0  0
 13 12  1  0  0  0  0
 13  3  2  0  0  0  0
 14 23  2  0  0  0  0
 15 14  1  0  0  0  0
 15  2  2  0  0  0  0
 16  7  1  1  0  0  0
 16 19  1  0  0  0  0
 16 18  1  0  0  0  0
 17  6  1  0  0  0  0
 17  8  1  0  0  0  0
 18 14  1  0  0  0  0
 19 18  1  0  0  0  0
 20  9  1  0  0  0  0
 21 10  1  0  0  0  0
 22 24  1  0  0  0  0
 22  6  2  0  0  0  0
 23 21  1  0  0  0  0
 24 28  1  0  0  0  0
 27 25  1  0  0  0  0
 27 26  2  0  0  0  0
 28 27  1  0  0  0  0
M  END
>  <MODEL>
6

>  <REMARK>
 VINA RESULT:      -6.1      3.511      5.522
  Name = 
  2 active torsions:
  status: ('A' for Active; 'I' for Inactive)
    1  A    between atoms: C_18  and  C_26
    2  A    between atoms: C_18  and  N_28
                            x       y       z     vdW  Elec       q    Type
                         _______ _______ _______ _____ _____    ______ ____

>  <TORSDO>
F 2

$$$$
=
 OpenBabel11042412013D

 28 32  0  0  1  0  0  0  0  0999 V2000
  183.8010  175.6090  137.9330 C   0  0  0  0  0  3  0  0  0  0  0  0
  180.8540  179.1080  137.3800 C   0  0  0  0  0  3  0  0  0  0  0  0
  188.3910  177.9720  137.4980 N   0  0  0  0  0  0  0  0  0  0  0  0
  182.5780  175.1590  138.4170 C   0  0  0  0  0  3  0  0  0  0  0  0
  186.0070  177.9020  137.7070 C   0  0  0  0  0  0  0  0  0  0  0  0
  182.4920  177.3570  138.0190 C   0  0  0  0  0  0  0  0  0  0  0  0
  186.1270  178.2520  139.0710 C   0  0  0  0  0  0  0  0  0  0  0  0
  184.7270  177.7040  137.0990 N   0  0  0  0  0  2  0  0  0  0  0  0
  187.0810  177.4850  135.5420 N   0  0  0  0  0  1  0  0  0  0  0  0
  180.6150  183.0880  137.9690 Cl  0  0  0  0  0  0  0  0  0  0  0  0
  180.4110  180.4330  137.3660 C   0  0  0  0  0  3  0  0  0  0  0  0
  187.4010  178.4150  139.6240 C   0  0  0  0  0  3  0  0  0  0  0  0
  188.5300  178.2670  138.8180 C   0  0  0  0  0  3  0  0  0  0  0  0
  182.8220  179.7760  138.6370 C   0  0  0  0  0  0  0  0  0  0  0  0
  182.0610  178.7690  138.0030 C   0  0  0  0  0  0  0  0  0  0  0  0
  184.9280  178.4800  139.9490 C   0  0  2  0  0  3  0  0  0  0  0  0
  183.7280  176.9350  137.7120 N   0  0  0  0  0  0  0  0  0  0  0  0
  184.0230  179.4680  139.3460 N   0  0  0  0  0  0  0  0  0  0  0  0
  184.9310  179.7080  140.3860 O   0  0  0  0  0  0  0  0  0  0  0  0
  187.1680  177.7990  136.9280 C   0  0  0  0  0  0  0  0  0  0  0  0
  181.1710  181.4280  137.9840 C   0  0  0  0  0  0  0  0  0  0  0  0
  181.7600  176.2770  138.4680 C   0  0  0  0  0  0  0  0  0  0  0  0
  182.3680  181.0990  138.6230 C   0  0  0  0  0  3  0  0  0  0  0  0
  180.3440  176.2860  138.9330 C   0  0  0  0  0  2  0  0  0  0  0  0
  179.2540  173.7530  141.6450 C   0  0  0  0  0  1  0  0  0  0  0  0
  179.3020  176.1280  141.5730 O   0  0  0  0  0  0  0  0  0  0  0  0
  179.5320  175.0460  140.9690 C   0  0  0  0  0  0  0  0  0  0  0  0
  180.0550  175.0500  139.6410 N   0  0  0  0  0  2  0  0  0  0  0  0
  1  4  2  0  0  0  0
  2 15  1  0  0  0  0
  3 13  1  0  0  0  0
  4 22  1  0  0  0  0
  5  7  2  0  0  0  0
  6 22  2  0  0  0  0
  7 12  1  0  0  0  0
  8  5  1  0  0  0  0
  8 17  1  0  0  0  0
  9 20  1  0  0  0  0
 10 21  1  0  0  0  0
 11  2  2  0  0  0  0
 11 21  1  0  0  0  0
 13 12  2  0  0  0  0
 14 18  1  0  0  0  0
 15  6  1  0  0  0  0
 15 14  2  0  0  0  0
 16  7  1  6  0  0  0
 16 19  1  0  0  0  0
 17  1  1  0  0  0  0
 17  6  1  0  0  0  0
 18 16  1  0  0  0  0
 18 19  1  0  0  0  0
 20  3  2  0  0  0  0
 20  5  1  0  0  0  0
 21 23  2  0  0  0  0
 22 24  1  0  0  0  0
 23 14  1  0  0  0  0
 24 28  1  0  0  0  0
 27 26  2  0  0  0  0
 27 25  1  0  0  0  0
 28 27  1  0  0  0  0
M  END
>  <MODEL>
7

>  <REMARK>
 VINA RESULT:      -5.9      5.567      8.003
  Name = 
  2 active torsions:
  status: ('A' for Active; 'I' for Inactive)
    1  A    between atoms: C_18  and  C_26
    2  A    between atoms: C_18  and  N_28
                            x       y       z     vdW  Elec       q    Type
                         _______ _______ _______ _____ _____    ______ ____

>  <TORSDO>
F 2

$$$$
=
 OpenBabel11042412013D

 28 32  0  0  1  0  0  0  0  0999 V2000
  182.6800  176.3210  139.8430 C   0  0  0  0  0  3  0  0  0  0  0  0
  181.1820  179.7160  137.1120 C   0  0  0  0  0  3  0  0  0  0  0  0
  184.7300  178.9420  143.8140 N   0  0  0  0  0  0  0  0  0  0  0  0
  181.7810  175.7340  138.9600 C   0  0  0  0  0  3  0  0  0  0  0  0
  183.4710  178.7210  141.7900 C   0  0  0  0  0  0  0  0  0  0  0  0
  181.6910  177.9610  138.7890 C   0  0  0  0  0  0  0  0  0  0  0  0
  182.2750  178.8280  142.5350 C   0  0  0  0  0  0  0  0  0  0  0  0
  183.4510  178.5740  140.3670 N   0  0  0  0  0  2  0  0  0  0  0  0
  185.9240  178.7510  141.7350 N   0  0  0  0  0  1  0  0  0  0  0  0
  179.8400  183.5110  137.3280 Cl  0  0  0  0  0  0  0  0  0  0  0  0
  180.7520  181.0000  136.7650 C   0  0  0  0  0  3  0  0  0  0  0  0
  182.3470  178.9500  143.9260 C   0  0  0  0  0  3  0  0  0  0  0  0
  183.5920  179.0030  144.5530 C   0  0  0  0  0  3  0  0  0  0  0  0
  180.8660  180.2440  139.4620 C   0  0  0  0  0  0  0  0  0  0  0  0
  181.2520  179.3300  138.4560 C   0  0  0  0  0  0  0  0  0  0  0  0
  180.9210  178.8360  141.8810 C   0  0  2  0  0  3  0  0  0  0  0  0
  182.6000  177.6600  139.7300 N   0  0  0  0  0  0  0  0  0  0  0  0
  180.8540  179.8720  140.8410 N   0  0  0  0  0  0  0  0  0  0  0  0
  180.3200  179.9660  142.1330 O   0  0  0  0  0  0  0  0  0  0  0  0
  184.6990  178.8160  142.4600 C   0  0  0  0  0  0  0  0  0  0  0  0
  180.3810  181.9040  137.7620 C   0  0  0  0  0  0  0  0  0  0  0  0
  181.1610  176.7840  138.3020 C   0  0  0  0  0  0  0  0  0  0  0  0
  180.4310  181.5240  139.1050 C   0  0  0  0  0  3  0  0  0  0  0  0
  180.1060  176.6420  137.2580 C   0  0  0  0  0  2  0  0  0  0  0  0
  180.2750  173.2820  135.3490 C   0  0  0  0  0  1  0  0  0  0  0  0
  178.9330  174.0550  137.1520 O   0  0  0  0  0  0  0  0  0  0  0  0
  179.8500  174.3150  136.3280 C   0  0  0  0  0  0  0  0  0  0  0  0
  180.4830  175.5940  136.3240 N   0  0  0  0  0  2  0  0  0  0  0  0
  2 15  1  0  0  0  0
  3 13  1  0  0  0  0
  4  1  2  0  0  0  0
  5 20  1  0  0  0  0
  5  7  2  0  0  0  0
  6 17  1  0  0  0  0
  7 12  1  0  0  0  0
  8  5  1  0  0  0  0
  9 20  1  0  0  0  0
 10 21  1  0  0  0  0
 11  2  2  0  0  0  0
 11 21  1  0  0  0  0
 12 13  2  0  0  0  0
 14 18  1  0  0  0  0
 15  6  1  0  0  0  0
 15 14  2  0  0  0  0
 16 19  1  1  0  0  0
 16  7  1  0  0  0  0
 17  1  1  0  0  0  0
 17  8  1  0  0  0  0
 18 16  1  0  0  0  0
 18 19  1  0  0  0  0
 20  3  2  0  0  0  0
 21 23  2  0  0  0  0
 22  6  2  0  0  0  0
 22  4  1  0  0  0  0
 23 14  1  0  0  0  0
 24 22  1  0  0  0  0
 25 27  1  0  0  0  0
 27 26  2  0  0  0  0
 28 27  1  0  0  0  0
 28 24  1  0  0  0  0
M  END
>  <MODEL>
8

>  <REMARK>
 VINA RESULT:      -5.9      6.708     10.163
  Name = 
  2 active torsions:
  status: ('A' for Active; 'I' for Inactive)
    1  A    between atoms: C_18  and  C_26
    2  A    between atoms: C_18  and  N_28
                            x       y       z     vdW  Elec       q    Type
                         _______ _______ _______ _____ _____    ______ ____

>  <TORSDO>
F 2

$$$$
=
 OpenBabel11042412013D

 28 32  0  0  1  0  0  0  0  0999 V2000
  184.3270  178.1280  138.4680 C   0  0  0  0  0  3  0  0  0  0  0  0
  182.3090  178.3710  142.6040 C   0  0  0  0  0  3  0  0  0  0  0  0
  180.2510  177.9850  135.2740 N   0  0  0  0  0  0  0  0  0  0  0  0
  185.3110  178.5610  139.3500 C   0  0  0  0  0  3  0  0  0  0  0  0
  181.3270  178.2660  137.3940 C   0  0  0  0  0  0  0  0  0  0  0  0
  183.3100  178.5980  140.3450 C   0  0  0  0  0  0  0  0  0  0  0  0
  181.1820  179.6660  137.2700 C   0  0  0  0  0  0  0  0  0  0  0  0
  181.9320  177.6800  138.5510 N   0  0  0  0  0  2  0  0  0  0  0  0
  180.9110  176.0220  136.4950 N   0  0  0  0  0  1  0  0  0  0  0  0
  178.9310  179.7260  144.3340 Cl  0  0  0  0  0  0  0  0  0  0  0  0
  181.3000  178.6300  143.5350 C   0  0  0  0  0  3  0  0  0  0  0  0
  180.6020  180.1910  136.1110 C   0  0  0  0  0  3  0  0  0  0  0  0
  180.1420  179.3300  135.1160 C   0  0  0  0  0  3  0  0  0  0  0  0
  181.1030  179.6590  140.9340 C   0  0  0  0  0  0  0  0  0  0  0  0
  182.2180  178.8720  141.2990 C   0  0  0  0  0  0  0  0  0  0  0  0
  181.6120  180.6160  138.3530 C   0  0  2  0  0  3  0  0  0  0  0  0
  183.1320  178.1690  139.0860 N   0  0  0  0  0  0  0  0  0  0  0  0
  181.0000  180.2490  139.6380 N   0  0  0  0  0  0  0  0  0  0  0  0
  180.5790  181.2810  138.7880 O   0  0  0  0  0  0  0  0  0  0  0  0
  180.8170  177.4380  136.3840 C   0  0  0  0  0  0  0  0  0  0  0  0
  180.1940  179.4000  143.1680 C   0  0  0  0  0  0  0  0  0  0  0  0
  184.6520  178.8580  140.5320 C   0  0  0  0  0  0  0  0  0  0  0  0
  180.1000  179.9180  141.8740 C   0  0  0  0  0  3  0  0  0  0  0  0
  185.3010  179.3690  141.7730 C   0  0  0  0  0  2  0  0  0  0  0  0
  187.5560  176.9560  143.7860 C   0  0  0  0  0  1  0  0  0  0  0  0
  185.5140  178.0630  144.2890 O   0  0  0  0  0  0  0  0  0  0  0  0
  186.4260  177.8570  143.4440 C   0  0  0  0  0  0  0  0  0  0  0  0
  186.3830  178.4800  142.1600 N   0  0  0  0  0  2  0  0  0  0  0  0
  1 17  1  0  0  0  0
  1  4  2  0  0  0  0
  2 11  1  0  0  0  0
  3 20  1  0  0  0  0
  4 22  1  0  0  0  0
  5  8  1  0  0  0  0
  6 22  2  0  0  0  0
  6 15  1  0  0  0  0
  7  5  1  0  0  0  0
  8 17  1  0  0  0  0
 12  7  2  0  0  0  0
 13  3  2  0  0  0  0
 13 12  1  0  0  0  0
 14 15  1  0  0  0  0
 14 23  2  0  0  0  0
 15  2  2  0  0  0  0
 16  7  1  6  0  0  0
 16 19  1  0  0  0  0
 16 18  1  0  0  0  0
 17  6  1  0  0  0  0
 18 14  1  0  0  0  0
 19 18  1  0  0  0  0
 20  9  1  0  0  0  0
 20  5  2  0  0  0  0
 21 11  2  0  0  0  0
 21 10  1  0  0  0  0
 22 24  1  0  0  0  0
 23 21  1  0  0  0  0
 24 28  1  0  0  0  0
 27 25  1  0  0  0  0
 27 26  2  0  0  0  0
 28 27  1  0  0  0  0
M  END
>  <MODEL>
9

>  <REMARK>
 VINA RESULT:      -5.9      5.704      7.382
  Name = 
  2 active torsions:
  status: ('A' for Active; 'I' for Inactive)
    1  A    between atoms: C_18  and  C_26
    2  A    between atoms: C_18  and  N_28
                            x       y       z     vdW  Elec       q    Type
                         _______ _______ _______ _____ _____    ______ ____

>  <TORSDO>
F 2

$$$$
