=
 OpenBabel11042411323D

 36 40  0  0  1  0  0  0  0  0999 V2000
  183.5330  177.8950  137.7610 C   0  0  1  0  0  3  0  0  0  0  0  0
  182.0970  178.8130  143.9450 C   0  0  0  0  0  2  0  0  0  0  0  0
  185.7450  178.5880  140.6920 C   0  0  0  0  0  0  0  0  0  0  0  0
  182.4280  177.5790  136.7570 C   0  0  0  0  0  2  0  0  0  0  0  0
  181.2740  178.5830  136.8650 C   0  0  1  0  0  3  0  0  0  0  0  0
  183.5290  179.3490  139.9010 C   0  0  1  0  0  3  0  0  0  0  0  0
  181.7310  177.6570  141.7500 C   0  0  0  0  0  2  0  0  0  0  0  0
  180.9410  178.2460  140.5850 C   0  0  0  0  0  2  0  0  0  0  0  0
  182.4250  178.8060  142.4620 C   0  0  2  0  0  3  0  0  0  0  0  0
  183.8790  178.7350  142.3300 N   0  0  0  0  0  0  0  0  0  0  0  0
  187.9960  177.4940  143.1470 C   0  0  0  0  0  2  0  0  0  0  0  0
  182.9820  178.0960  139.1870 C   0  0  1  0  0  3  0  0  0  0  0  0
  184.4660  176.8580  137.7610 O   0  0  0  0  0  1  0  0  0  0  0  0
  184.4770  178.9490  141.0140 C   0  0  0  0  0  0  0  0  0  0  0  0
  186.6510  178.1290  143.0750 C   0  0  0  0  0  0  0  0  0  0  0  0
  180.8700  178.8640  138.3200 C   0  0  0  0  0  2  0  0  0  0  0  0
  186.6740  178.0930  141.7060 C   0  0  0  0  0  0  0  0  0  0  0  0
  181.5090  177.9440  139.2640 N   0  0  2  0  0  0  0  0  0  0  0  0
  188.0160  177.4420  141.7280 C   0  0  0  0  0  2  0  0  0  0  0  0
  184.0750  180.2980  139.0280 O   0  0  0  0  0  1  0  0  0  0  0  0
  183.3680  179.2700  144.6270 C   0  0  0  0  0  2  0  0  0  0  0  0
  184.4350  178.9470  143.6460 C   0  0  0  0  0  0  0  0  0  0  0  0
  185.7010  178.6570  144.0320 C   0  0  0  0  0  0  0  0  0  0  0  0
  181.6380  179.8350  136.2250 N   0  0  0  0  0  2  0  0  0  0  0  0
  181.0740  180.9120  137.0230 C   0  0  0  0  0  2  0  0  0  0  0  0
  180.7580  183.2340  136.6050 O   0  0  0  0  0  1  0  0  0  0  0  0
  180.4640  181.9630  136.1090 C   0  0  0  0  0  2  0  0  0  0  0  0
  186.1820  178.7940  145.3470 O   0  0  0  0  0  0  0  0  0  0  0  0
  187.6270  177.8190  146.9900 C   0  0  0  0  0  1  0  0  0  0  0  0
  186.2700  177.7590  146.3190 C   0  0  0  0  0  2  0  0  0  0  0  0
  186.1600  178.6870  139.3530 O   0  0  0  0  0  0  0  0  0  0  0  0
  187.4020  178.2000  138.8620 C   0  0  0  0  0  2  0  0  0  0  0  0
  187.4600  179.5730  136.9190 O   0  0  0  0  0  0  0  0  0  0  0  0
  187.5760  177.2700  136.5240 N   0  0  0  0  0  2  0  0  0  0  0  0
  187.4660  178.4030  137.3890 C   0  0  0  0  0  0  0  0  0  0  0  0
  187.6720  177.4130  135.0800 C   0  0  0  0  0  1  0  0  0  0  0  0
  1 13  1  1  0  0  0
  1 12  1  0  0  0  0
  2 21  1  0  0  0  0
  3 14  2  0  0  0  0
  3 17  1  0  0  0  0
  4  5  1  0  0  0  0
  4  1  1  0  0  0  0
  5 24  1  1  0  0  0
  5 16  1  0  0  0  0
  6 20  1  6  0  0  0
  6 14  1  0  0  0  0
  8  7  1  0  0  0  0
  9  7  1  6  0  0  0
  9  2  1  0  0  0  0
 10  9  1  0  0  0  0
 10 22  1  0  0  0  0
 12 18  1  0  0  0  0
 12  6  1  0  0  0  0
 14 10  1  0  0  0  0
 15 11  1  0  0  0  0
 15 23  1  0  0  0  0
 16 18  1  0  0  0  0
 17 19  1  0  0  0  0
 17 15  2  0  0  0  0
 18  8  1  0  0  0  0
 19 11  1  0  0  0  0
 22 23  2  0  0  0  0
 22 21  1  0  0  0  0
 23 28  1  0  0  0  0
 24 25  1  0  0  0  0
 27 26  1  0  0  0  0
 27 25  1  0  0  0  0
 28 30  1  0  0  0  0
 30 29  1  0  0  0  0
 31  3  1  0  0  0  0
 32 31  1  0  0  0  0
 33 35  2  0  0  0  0
 34 35  1  0  0  0  0
 35 32  1  0  0  0  0
 36 34  1  0  0  0  0
M  END
>  <MODEL>
1

>  <REMARK>
 VINA RESULT:      -6.7      0.000      0.000
  Name = 
  8 active torsions:
  status: ('A' for Active; 'I' for Inactive)
    1  A    between atoms: C_4  and  O_35
    2  A    between atoms: C_6  and  N_29
    3  A    between atoms: C_19  and  C_21
    4  A    between atoms: C_19  and  N_29
    5  A    between atoms: C_24  and  C_28
    6  A    between atoms: C_24  and  O_35
    7  A    between atoms: C_27  and  O_33
    8  A    between atoms: O_33  and  C_34
                            x       y       z     vdW  Elec       q    Type
                         _______ _______ _______ _____ _____    ______ ____

>  <TORSDO>
F 8

$$$$
=
 OpenBabel11042411323D

 36 40  0  0  1  0  0  0  0  0999 V2000
  188.5240  178.4020  140.5300 C   0  0  1  0  0  3  0  0  0  0  0  0
  191.4200  176.6890  145.9910 C   0  0  0  0  0  2  0  0  0  0  0  0
  187.1120  177.7430  143.9260 C   0  0  0  0  0  0  0  0  0  0  0  0
  189.3500  178.6550  139.2720 C   0  0  0  0  0  2  0  0  0  0  0  0
  190.3110  177.4940  138.9920 C   0  0  1  0  0  3  0  0  0  0  0  0
  188.8740  176.7590  142.4970 C   0  0  1  0  0  3  0  0  0  0  0  0
  191.3580  177.9920  143.8490 C   0  0  0  0  0  2  0  0  0  0  0  0
  191.6940  177.4140  142.4770 C   0  0  0  0  0  2  0  0  0  0  0  0
  190.7070  176.8870  144.6650 C   0  0  2  0  0  3  0  0  0  0  0  0
  189.3030  177.1750  144.9550 N   0  0  0  0  0  0  0  0  0  0  0  0
  185.8230  178.8960  146.9760 C   0  0  0  0  0  2  0  0  0  0  0  0
  189.4020  177.9870  141.7270 C   0  0  1  0  0  3  0  0  0  0  0  0
  187.8070  179.5550  140.8520 O   0  0  0  0  0  1  0  0  0  0  0  0
  188.3430  177.1770  143.8540 C   0  0  0  0  0  0  0  0  0  0  0  0
  186.9750  178.0880  146.4900 C   0  0  0  0  0  0  0  0  0  0  0  0
  191.0440  177.0170  140.2550 C   0  0  0  0  0  2  0  0  0  0  0  0
  186.5870  178.2610  145.1880 C   0  0  0  0  0  0  0  0  0  0  0  0
  190.8440  177.9210  141.3900 N   0  0  2  0  0  0  0  0  0  0  0  0
  185.4250  179.0900  145.6260 C   0  0  0  0  0  2  0  0  0  0  0  0
  187.9640  175.9860  141.7650 O   0  0  0  0  0  1  0  0  0  0  0  0
  190.3270  176.3500  146.9800 C   0  0  0  0  0  2  0  0  0  0  0  0
  189.1000  176.9150  146.3620 C   0  0  0  0  0  0  0  0  0  0  0  0
  188.0510  177.3410  147.1070 C   0  0  0  0  0  0  0  0  0  0  0  0
  189.5870  176.3740  138.4150 N   0  0  0  0  0  2  0  0  0  0  0  0
  189.9960  176.2620  137.0250 C   0  0  0  0  0  2  0  0  0  0  0  0
  190.9110  174.1850  137.7470 O   0  0  0  0  0  1  0  0  0  0  0  0
  191.1460  175.2740  136.9050 C   0  0  0  0  0  2  0  0  0  0  0  0
  187.9310  177.1440  148.4950 O   0  0  0  0  0  0  0  0  0  0  0  0
  189.6060  178.7040  149.2020 C   0  0  0  0  0  1  0  0  0  0  0  0
  188.2550  178.0910  149.5060 C   0  0  0  0  0  2  0  0  0  0  0  0
  186.3370  177.8340  142.7570 O   0  0  0  0  0  0  0  0  0  0  0  0
  185.1400  178.5940  142.6470 C   0  0  0  0  0  2  0  0  0  0  0  0
  183.8520  177.4320  141.0190 O   0  0  0  0  0  0  0  0  0  0  0  0
  184.8210  179.4330  140.2900 N   0  0  0  0  0  2  0  0  0  0  0  0
  184.5750  178.4320  141.2810 C   0  0  0  0  0  0  0  0  0  0  0  0
  184.2680  179.3380  138.9490 C   0  0  0  0  0  1  0  0  0  0  0  0
  1 13  1  1  0  0  0
  1 12  1  0  0  0  0
  2 21  1  0  0  0  0
  3 17  1  0  0  0  0
  4  1  1  0  0  0  0
  5 24  1  1  0  0  0
  5  4  1  0  0  0  0
  5 16  1  0  0  0  0
  6 20  1  6  0  0  0
  6 14  1  0  0  0  0
  8  7  1  0  0  0  0
  9  7  1  1  0  0  0
  9 10  1  0  0  0  0
  9  2  1  0  0  0  0
 10 22  1  0  0  0  0
 12  6  1  0  0  0  0
 14  3  2  0  0  0  0
 14 10  1  0  0  0  0
 15 11  1  0  0  0  0
 15 23  1  0  0  0  0
 16 18  1  0  0  0  0
 17 19  1  0  0  0  0
 17 15  2  0  0  0  0
 18 12  1  0  0  0  0
 18  8  1  0  0  0  0
 19 11  1  0  0  0  0
 22 21  1  0  0  0  0
 22 23  2  0  0  0  0
 23 28  1  0  0  0  0
 25 24  1  0  0  0  0
 27 25  1  0  0  0  0
 27 26  1  0  0  0  0
 28 30  1  0  0  0  0
 29 30  1  0  0  0  0
 31  3  1  0  0  0  0
 32 31  1  0  0  0  0
 33 35  2  0  0  0  0
 34 35  1  0  0  0  0
 35 32  1  0  0  0  0
 36 34  1  0  0  0  0
M  END
>  <MODEL>
2

>  <REMARK>
 VINA RESULT:      -6.6      3.087      7.265
  Name = 
  8 active torsions:
  status: ('A' for Active; 'I' for Inactive)
    1  A    between atoms: C_4  and  O_35
    2  A    between atoms: C_6  and  N_29
    3  A    between atoms: C_19  and  C_21
    4  A    between atoms: C_19  and  N_29
    5  A    between atoms: C_24  and  C_28
    6  A    between atoms: C_24  and  O_35
    7  A    between atoms: C_27  and  O_33
    8  A    between atoms: O_33  and  C_34
                            x       y       z     vdW  Elec       q    Type
                         _______ _______ _______ _____ _____    ______ ____

>  <TORSDO>
F 8

$$$$
=
 OpenBabel11042411323D

 36 40  0  0  1  0  0  0  0  0999 V2000
  189.5990  178.0660  144.1630 C   0  0  1  0  0  3  0  0  0  0  0  0
  183.3510  178.8080  145.4120 C   0  0  0  0  0  2  0  0  0  0  0  0
  186.6340  177.9200  141.8940 C   0  0  0  0  0  0  0  0  0  0  0  0
  190.6270  178.2210  145.2800 C   0  0  0  0  0  2  0  0  0  0  0  0
  190.2520  177.3770  146.5040 C   0  0  1  0  0  3  0  0  0  0  0  0
  187.1680  177.1820  144.1930 C   0  0  1  0  0  3  0  0  0  0  0  0
  185.7550  179.4210  145.7750 C   0  0  0  0  0  2  0  0  0  0  0  0
  186.7230  178.6370  146.6560 C   0  0  0  0  0  2  0  0  0  0  0  0
  184.7960  178.4250  145.1450 C   0  0  2  0  0  3  0  0  0  0  0  0
  184.9720  178.3360  143.6960 N   0  0  0  0  0  0  0  0  0  0  0  0
  184.5700  179.3810  139.4650 C   0  0  0  0  0  2  0  0  0  0  0  0
  188.1570  178.2660  144.6690 C   0  0  1  0  0  3  0  0  0  0  0  0
  189.8730  178.9880  143.1520 O   0  0  0  0  0  1  0  0  0  0  0  0
  186.2070  177.7580  143.1710 C   0  0  0  0  0  0  0  0  0  0  0  0
  184.4560  178.8650  140.8570 C   0  0  0  0  0  0  0  0  0  0  0  0
  188.7640  177.4940  146.8680 C   0  0  0  0  0  2  0  0  0  0  0  0
  185.7910  178.5650  140.8870 C   0  0  0  0  0  0  0  0  0  0  0  0
  188.0890  178.5580  146.1210 N   0  0  2  0  0  0  0  0  0  0  0  0
  185.9580  179.0840  139.4990 C   0  0  0  0  0  2  0  0  0  0  0  0
  187.7910  176.0050  143.7590 O   0  0  0  0  0  1  0  0  0  0  0  0
  182.6040  178.4220  144.1540 C   0  0  0  0  0  2  0  0  0  0  0  0
  183.6550  178.4050  143.1060 C   0  0  0  0  0  0  0  0  0  0  0  0
  183.3790  178.6700  141.8060 C   0  0  0  0  0  0  0  0  0  0  0  0
  190.5710  175.9800  146.2650 N   0  0  0  0  0  2  0  0  0  0  0  0
  192.0140  175.8390  146.3680 C   0  0  0  0  0  2  0  0  0  0  0  0
  192.8050  176.5520  148.4990 O   0  0  0  0  0  1  0  0  0  0  0  0
  192.3900  175.4270  147.7830 C   0  0  0  0  0  2  0  0  0  0  0  0
  182.0800  178.8160  141.2840 O   0  0  0  0  0  0  0  0  0  0  0  0
  180.0250  177.5880  141.2150 C   0  0  0  0  0  1  0  0  0  0  0  0
  181.3600  177.8370  140.5440 C   0  0  0  0  0  2  0  0  0  0  0  0
  187.9150  177.4620  141.5430 O   0  0  0  0  0  0  0  0  0  0  0  0
  188.6470  177.9190  140.4120 C   0  0  0  0  0  2  0  0  0  0  0  0
  190.2030  176.2700  141.1320 O   0  0  0  0  0  0  0  0  0  0  0  0
  190.5490  177.1000  138.9730 N   0  0  0  0  0  2  0  0  0  0  0  0
  189.8430  177.0570  140.2160 C   0  0  0  0  0  0  0  0  0  0  0  0
  191.7070  176.2580  138.7180 C   0  0  0  0  0  1  0  0  0  0  0  0
  1 13  1  6  0  0  0
  1 12  1  0  0  0  0
  1  4  1  0  0  0  0
  3 14  2  0  0  0  0
  4  5  1  0  0  0  0
  5 24  1  6  0  0  0
  5 16  1  0  0  0  0
  6 20  1  6  0  0  0
  6 12  1  0  0  0  0
  7  8  1  0  0  0  0
  9  2  1  6  0  0  0
  9  7  1  0  0  0  0
 10  9  1  0  0  0  0
 11 19  1  0  0  0  0
 11 15  1  0  0  0  0
 12 18  1  0  0  0  0
 14 10  1  0  0  0  0
 14  6  1  0  0  0  0
 15 17  2  0  0  0  0
 15 23  1  0  0  0  0
 17  3  1  0  0  0  0
 18  8  1  0  0  0  0
 18 16  1  0  0  0  0
 19 17  1  0  0  0  0
 21  2  1  0  0  0  0
 22 10  1  0  0  0  0
 22 21  1  0  0  0  0
 23 22  2  0  0  0  0
 24 25  1  0  0  0  0
 25 27  1  0  0  0  0
 27 26  1  0  0  0  0
 28 23  1  0  0  0  0
 30 29  1  0  0  0  0
 30 28  1  0  0  0  0
 31  3  1  0  0  0  0
 32 31  1  0  0  0  0
 34 35  1  0  0  0  0
 35 32  1  0  0  0  0
 35 33  2  0  0  0  0
 36 34  1  0  0  0  0
M  END
>  <MODEL>
3

>  <REMARK>
 VINA RESULT:      -6.5      3.319      8.179
  Name = 
  8 active torsions:
  status: ('A' for Active; 'I' for Inactive)
    1  A    between atoms: C_4  and  O_35
    2  A    between atoms: C_6  and  N_29
    3  A    between atoms: C_19  and  C_21
    4  A    between atoms: C_19  and  N_29
    5  A    between atoms: C_24  and  C_28
    6  A    between atoms: C_24  and  O_35
    7  A    between atoms: C_27  and  O_33
    8  A    between atoms: O_33  and  C_34
                            x       y       z     vdW  Elec       q    Type
                         _______ _______ _______ _____ _____    ______ ____

>  <TORSDO>
F 8

$$$$
=
 OpenBabel11042411323D

 36 40  0  0  1  0  0  0  0  0999 V2000
  183.6780  177.8730  138.7040 C   0  0  1  0  0  3  0  0  0  0  0  0
  183.3470  178.9890  145.0120 C   0  0  0  0  0  2  0  0  0  0  0  0
  186.3860  178.2160  141.2560 C   0  0  0  0  0  0  0  0  0  0  0  0
  182.3990  177.7310  137.8840 C   0  0  0  0  0  2  0  0  0  0  0  0
  181.4400  178.8980  138.1410 C   0  0  1  0  0  3  0  0  0  0  0  0
  184.2170  179.3070  140.7890 C   0  0  1  0  0  3  0  0  0  0  0  0
  182.4840  177.9060  142.9220 C   0  0  0  0  0  2  0  0  0  0  0  0
  181.6250  178.6110  141.8760 C   0  0  0  0  0  2  0  0  0  0  0  0
  183.4430  178.9350  143.4970 C   0  0  2  0  0  3  0  0  0  0  0  0
  184.8330  178.6430  143.1510 N   0  0  0  0  0  0  0  0  0  0  0  0
  188.7910  176.7880  143.3700 C   0  0  0  0  0  2  0  0  0  0  0  0
  183.3860  178.1530  140.1920 C   0  0  1  0  0  3  0  0  0  0  0  0
  184.4330  176.7050  138.5870 O   0  0  0  0  0  1  0  0  0  0  0  0
  185.2510  178.7650  141.7560 C   0  0  0  0  0  0  0  0  0  0  0  0
  187.5630  177.6210  143.4860 C   0  0  0  0  0  0  0  0  0  0  0  0
  181.3070  179.2360  139.6340 C   0  0  0  0  0  2  0  0  0  0  0  0
  187.3730  177.5840  142.1310 C   0  0  0  0  0  0  0  0  0  0  0  0
  181.9350  178.2270  140.4910 N   0  0  2  0  0  0  0  0  0  0  0  0
  188.5890  176.7350  141.9650 C   0  0  0  0  0  2  0  0  0  0  0  0
  184.7610  180.1640  139.8240 O   0  0  0  0  0  1  0  0  0  0  0  0
  184.7610  179.2470  145.4870 C   0  0  0  0  0  2  0  0  0  0  0  0
  185.6060  178.7660  144.3650 C   0  0  0  0  0  0  0  0  0  0  0  0
  186.8580  178.2860  144.5630 C   0  0  0  0  0  0  0  0  0  0  0  0
  181.8880  180.0820  137.4270 N   0  0  0  0  0  2  0  0  0  0  0  0
  181.6160  181.2310  138.2750 C   0  0  0  0  0  2  0  0  0  0  0  0
  181.2900  183.3900  137.3260 O   0  0  0  0  0  1  0  0  0  0  0  0
  180.6520  182.1730  137.5700 C   0  0  0  0  0  2  0  0  0  0  0  0
  187.5470  178.3460  145.7890 O   0  0  0  0  0  0  0  0  0  0  0  0
  187.8220  177.9530  148.1350 C   0  0  0  0  0  1  0  0  0  0  0  0
  187.5880  177.3240  146.7770 C   0  0  0  0  0  2  0  0  0  0  0  0
  186.6050  178.2530  139.8690 O   0  0  0  0  0  0  0  0  0  0  0  0
  187.8900  178.2750  139.2610 C   0  0  0  0  0  2  0  0  0  0  0  0
  186.9640  179.0680  137.2180 O   0  0  0  0  0  0  0  0  0  0  0  0
  188.5050  177.3210  137.0090 N   0  0  0  0  0  2  0  0  0  0  0  0
  187.7380  178.2480  137.7810 C   0  0  0  0  0  0  0  0  0  0  0  0
  188.4170  177.2720  135.5580 C   0  0  0  0  0  1  0  0  0  0  0  0
  1 13  1  1  0  0  0
  1 12  1  0  0  0  0
  2 21  1  0  0  0  0
  3 14  2  0  0  0  0
  3 17  1  0  0  0  0
  4  5  1  0  0  0  0
  4  1  1  0  0  0  0
  5 24  1  6  0  0  0
  5 16  1  0  0  0  0
  6 20  1  6  0  0  0
  6 14  1  0  0  0  0
  8  7  1  0  0  0  0
  9  7  1  1  0  0  0
  9  2  1  0  0  0  0
 10  9  1  0  0  0  0
 10 22  1  0  0  0  0
 11 15  1  0  0  0  0
 12 18  1  0  0  0  0
 12  6  1  0  0  0  0
 14 10  1  0  0  0  0
 15 23  1  0  0  0  0
 16 18  1  0  0  0  0
 17 15  2  0  0  0  0
 18  8  1  0  0  0  0
 19 17  1  0  0  0  0
 19 11  1  0  0  0  0
 22 23  2  0  0  0  0
 22 21  1  0  0  0  0
 23 28  1  0  0  0  0
 24 25  1  0  0  0  0
 26 27  1  0  0  0  0
 27 25  1  0  0  0  0
 28 30  1  0  0  0  0
 30 29  1  0  0  0  0
 31  3  1  0  0  0  0
 32 31  1  0  0  0  0
 33 35  2  0  0  0  0
 34 35  1  0  0  0  0
 35 32  1  0  0  0  0
 36 34  1  0  0  0  0
M  END
>  <MODEL>
4

>  <REMARK>
 VINA RESULT:      -6.2      1.021      1.197
  Name = 
  8 active torsions:
  status: ('A' for Active; 'I' for Inactive)
    1  A    between atoms: C_4  and  O_35
    2  A    between atoms: C_6  and  N_29
    3  A    between atoms: C_19  and  C_21
    4  A    between atoms: C_19  and  N_29
    5  A    between atoms: C_24  and  C_28
    6  A    between atoms: C_24  and  O_35
    7  A    between atoms: C_27  and  O_33
    8  A    between atoms: O_33  and  C_34
                            x       y       z     vdW  Elec       q    Type
                         _______ _______ _______ _____ _____    ______ ____

>  <TORSDO>
F 8

$$$$
=
 OpenBabel11042411323D

 36 40  0  0  1  0  0  0  0  0999 V2000
  183.3870  178.2490  137.5350 C   0  0  1  0  0  3  0  0  0  0  0  0
  184.6240  178.3590  143.8280 C   0  0  0  0  0  2  0  0  0  0  0  0
  186.6320  178.5120  139.3690 C   0  0  0  0  0  0  0  0  0  0  0  0
  181.9530  178.0880  137.0390 C   0  0  0  0  0  2  0  0  0  0  0  0
  181.0100  179.0850  137.7230 C   0  0  1  0  0  3  0  0  0  0  0  0
  184.3430  179.4060  139.6420 C   0  0  1  0  0  3  0  0  0  0  0  0
  183.3290  177.5110  141.8550 C   0  0  0  0  0  2  0  0  0  0  0  0
  182.1790  178.2620  141.1900 C   0  0  0  0  0  2  0  0  0  0  0  0
  184.3270  178.5450  142.3500 C   0  0  2  0  0  3  0  0  0  0  0  0
  185.5970  178.4690  141.6290 N   0  0  0  0  0  0  0  0  0  0  0  0
  189.6000  177.0670  140.5490 C   0  0  0  0  0  2  0  0  0  0  0  0
  183.4710  178.2670  139.0740 C   0  0  1  0  0  3  0  0  0  0  0  0
  184.1680  177.2070  137.0350 O   0  0  0  0  0  1  0  0  0  0  0  0
  185.6290  178.8470  140.2180 C   0  0  0  0  0  0  0  0  0  0  0  0
  188.3870  177.7270  141.1050 C   0  0  0  0  0  0  0  0  0  0  0  0
  181.2460  179.1770  139.2380 C   0  0  0  0  0  2  0  0  0  0  0  0
  187.8550  177.8730  139.8520 C   0  0  0  0  0  0  0  0  0  0  0  0
  182.1460  178.1300  139.7260 N   0  0  2  0  0  0  0  0  0  0  0  0
  189.0450  177.2040  139.2490 C   0  0  0  0  0  2  0  0  0  0  0  0
  184.5550  180.4550  138.7380 O   0  0  0  0  0  1  0  0  0  0  0  0
  186.0900  178.7020  143.9810 C   0  0  0  0  0  2  0  0  0  0  0  0
  186.6480  178.4950  142.6200 C   0  0  0  0  0  0  0  0  0  0  0  0
  187.9390  178.1370  142.4200 C   0  0  0  0  0  0  0  0  0  0  0  0
  181.1720  180.4060  137.1390 N   0  0  0  0  0  2  0  0  0  0  0  0
  181.2230  181.3620  138.2330 C   0  0  0  0  0  2  0  0  0  0  0  0
  180.6620  182.7500  136.3810 O   0  0  0  0  0  1  0  0  0  0  0  0
  180.6560  182.6970  137.7750 C   0  0  0  0  0  2  0  0  0  0  0  0
  188.9170  178.0910  143.4320 O   0  0  0  0  0  0  0  0  0  0  0  0
  190.6440  176.7470  144.4050 C   0  0  0  0  0  1  0  0  0  0  0  0
  189.1540  177.0040  144.3180 C   0  0  0  0  0  2  0  0  0  0  0  0
  186.4800  178.7820  137.9980 O   0  0  0  0  0  0  0  0  0  0  0  0
  187.5510  178.8130  137.0640 C   0  0  0  0  0  2  0  0  0  0  0  0
  187.0830  178.2230  134.8080 O   0  0  0  0  0  0  0  0  0  0  0  0
  187.3370  176.4250  136.2820 N   0  0  0  0  0  2  0  0  0  0  0  0
  187.2960  177.8230  135.9840 C   0  0  0  0  0  0  0  0  0  0  0  0
  187.1240  175.4150  135.2590 C   0  0  0  0  0  1  0  0  0  0  0  0
  1 13  1  1  0  0  0
  1 12  1  0  0  0  0
  2 21  1  0  0  0  0
  3 17  1  0  0  0  0
  3 14  2  0  0  0  0
  4  1  1  0  0  0  0
  4  5  1  0  0  0  0
  5 24  1  6  0  0  0
  5 16  1  0  0  0  0
  6 20  1  6  0  0  0
  6 14  1  0  0  0  0
  8  7  1  0  0  0  0
  9  7  1  6  0  0  0
  9  2  1  0  0  0  0
 10  9  1  0  0  0  0
 10 22  1  0  0  0  0
 11 15  1  0  0  0  0
 12  6  1  0  0  0  0
 12 18  1  0  0  0  0
 14 10  1  0  0  0  0
 15 23  1  0  0  0  0
 16 18  1  0  0  0  0
 17 15  2  0  0  0  0
 18  8  1  0  0  0  0
 19 17  1  0  0  0  0
 19 11  1  0  0  0  0
 22 21  1  0  0  0  0
 23 22  2  0  0  0  0
 23 28  1  0  0  0  0
 24 25  1  0  0  0  0
 26 27  1  0  0  0  0
 27 25  1  0  0  0  0
 28 30  1  0  0  0  0
 30 29  1  0  0  0  0
 31  3  1  0  0  0  0
 32 31  1  0  0  0  0
 33 35  2  0  0  0  0
 35 34  1  0  0  0  0
 35 32  1  0  0  0  0
 36 34  1  0  0  0  0
M  END
>  <MODEL>
5

>  <REMARK>
 VINA RESULT:      -6.1      1.415      2.021
  Name = 
  8 active torsions:
  status: ('A' for Active; 'I' for Inactive)
    1  A    between atoms: C_4  and  O_35
    2  A    between atoms: C_6  and  N_29
    3  A    between atoms: C_19  and  C_21
    4  A    between atoms: C_19  and  N_29
    5  A    between atoms: C_24  and  C_28
    6  A    between atoms: C_24  and  O_35
    7  A    between atoms: C_27  and  O_33
    8  A    between atoms: O_33  and  C_34
                            x       y       z     vdW  Elec       q    Type
                         _______ _______ _______ _____ _____    ______ ____

>  <TORSDO>
F 8

$$$$
=
 OpenBabel11042411323D

 36 40  0  0  1  0  0  0  0  0999 V2000
  192.0390  175.6920  136.0080 C   0  0  1  0  0  3  0  0  0  0  0  0
  191.3400  177.8630  142.0030 C   0  0  0  0  0  2  0  0  0  0  0  0
  188.9550  176.5360  137.9420 C   0  0  0  0  0  0  0  0  0  0  0  0
  193.4340  175.4660  135.4330 C   0  0  0  0  0  2  0  0  0  0  0  0
  194.2980  174.6240  136.3800 C   0  0  1  0  0  3  0  0  0  0  0  0
  191.1280  175.4560  138.4180 C   0  0  1  0  0  3  0  0  0  0  0  0
  192.5590  177.8060  139.8120 C   0  0  0  0  0  2  0  0  0  0  0  0
  193.5430  176.7150  139.4000 C   0  0  0  0  0  2  0  0  0  0  0  0
  191.4840  177.1550  140.6670 C   0  0  2  0  0  3  0  0  0  0  0  0
  190.1770  177.1740  140.0120 N   0  0  0  0  0  0  0  0  0  0  0  0
  186.3060  178.7140  138.6700 C   0  0  0  0  0  2  0  0  0  0  0  0
  192.0850  176.1990  137.4630 C   0  0  1  0  0  3  0  0  0  0  0  0
  191.3560  176.6120  135.2120 O   0  0  0  0  0  1  0  0  0  0  0  0
  189.9770  176.3580  138.8160 C   0  0  0  0  0  0  0  0  0  0  0  0
  187.4690  178.1040  139.3720 C   0  0  0  0  0  0  0  0  0  0  0  0
  194.1830  175.0770  137.8440 C   0  0  0  0  0  2  0  0  0  0  0  0
  187.8690  177.4730  138.2240 C   0  0  0  0  0  0  0  0  0  0  0  0
  193.4670  176.3480  137.9790 N   0  0  2  0  0  0  0  0  0  0  0  0
  186.7260  178.0730  137.4740 C   0  0  0  0  0  2  0  0  0  0  0  0
  190.7090  174.2100  137.9340 O   0  0  0  0  0  1  0  0  0  0  0  0
  189.8610  177.8110  142.3190 C   0  0  0  0  0  2  0  0  0  0  0  0
  189.2190  177.6340  140.9910 C   0  0  0  0  0  0  0  0  0  0  0  0
  187.9710  178.0920  140.7300 C   0  0  0  0  0  0  0  0  0  0  0  0
  193.9210  173.2230  136.2880 N   0  0  0  0  0  2  0  0  0  0  0  0
  195.1450  172.4520  136.1470 C   0  0  0  0  0  2  0  0  0  0  0  0
  195.3320  171.8560  138.4440 O   0  0  0  0  0  1  0  0  0  0  0  0
  195.1620  171.3230  137.1650 C   0  0  0  0  0  2  0  0  0  0  0  0
  187.0980  178.6160  141.7010 O   0  0  0  0  0  0  0  0  0  0  0  0
  184.8170  178.2490  142.3330 C   0  0  0  0  0  1  0  0  0  0  0  0
  186.2610  177.8610  142.5690 C   0  0  0  0  0  2  0  0  0  0  0  0
  188.9540  175.8070  136.7410 O   0  0  0  0  0  0  0  0  0  0  0  0
  187.7800  175.4240  136.0370 C   0  0  0  0  0  2  0  0  0  0  0  0
  187.9480  173.1410  136.6840 O   0  0  0  0  0  0  0  0  0  0  0  0
  185.9090  174.1750  137.1780 N   0  0  0  0  0  2  0  0  0  0  0  0
  187.2310  174.1760  136.6320 C   0  0  0  0  0  0  0  0  0  0  0  0
  185.3350  172.9910  137.7970 C   0  0  0  0  0  1  0  0  0  0  0  0
  1 13  1  6  0  0  0
  1 12  1  0  0  0  0
  2 21  1  0  0  0  0
  3 17  1  0  0  0  0
  3 14  2  0  0  0  0
  4  1  1  0  0  0  0
  4  5  1  0  0  0  0
  5 24  1  1  0  0  0
  5 16  1  0  0  0  0
  6 20  1  6  0  0  0
  6 14  1  0  0  0  0
  8  7  1  0  0  0  0
  9  7  1  6  0  0  0
  9  2  1  0  0  0  0
 10  9  1  0  0  0  0
 10 22  1  0  0  0  0
 11 15  1  0  0  0  0
 12 18  1  0  0  0  0
 12  6  1  0  0  0  0
 14 10  1  0  0  0  0
 15 23  1  0  0  0  0
 16 18  1  0  0  0  0
 17 15  2  0  0  0  0
 18  8  1  0  0  0  0
 19 17  1  0  0  0  0
 19 11  1  0  0  0  0
 22 21  1  0  0  0  0
 23 22  2  0  0  0  0
 23 28  1  0  0  0  0
 25 24  1  0  0  0  0
 25 27  1  0  0  0  0
 27 26  1  0  0  0  0
 28 30  1  0  0  0  0
 29 30  1  0  0  0  0
 31  3  1  0  0  0  0
 32 35  1  0  0  0  0
 32 31  1  0  0  0  0
 34 36  1  0  0  0  0
 35 33  2  0  0  0  0
 35 34  1  0  0  0  0
M  END
>  <MODEL>
6

>  <REMARK>
 VINA RESULT:      -6.0      5.065      9.308
  Name = 
  8 active torsions:
  status: ('A' for Active; 'I' for Inactive)
    1  A    between atoms: C_4  and  O_35
    2  A    between atoms: C_6  and  N_29
    3  A    between atoms: C_19  and  C_21
    4  A    between atoms: C_19  and  N_29
    5  A    between atoms: C_24  and  C_28
    6  A    between atoms: C_24  and  O_35
    7  A    between atoms: C_27  and  O_33
    8  A    between atoms: O_33  and  C_34
                            x       y       z     vdW  Elec       q    Type
                         _______ _______ _______ _____ _____    ______ ____

>  <TORSDO>
F 8

$$$$
=
 OpenBabel11042411323D

 36 40  0  0  1  0  0  0  0  0999 V2000
  183.1580  179.8630  139.0070 C   0  0  1  0  0  3  0  0  0  0  0  0
  184.0790  175.1590  134.7440 C   0  0  0  0  0  2  0  0  0  0  0  0
  186.2080  177.8470  138.2340 C   0  0  0  0  0  0  0  0  0  0  0  0
  181.8060  180.5640  139.0920 C   0  0  0  0  0  2  0  0  0  0  0  0
  180.6590  179.5530  139.2000 C   0  0  1  0  0  3  0  0  0  0  0  0
  183.7790  177.4220  138.4160 C   0  0  1  0  0  3  0  0  0  0  0  0
  183.0600  177.3490  135.4170 C   0  0  0  0  0  2  0  0  0  0  0  0
  181.8160  177.4900  136.2890 C   0  0  0  0  0  2  0  0  0  0  0  0
  183.8160  176.1180  135.8910 C   0  0  2  0  0  3  0  0  0  0  0  0
  185.1060  176.4630  136.4870 N   0  0  0  0  0  0  0  0  0  0  0  0
  189.3470  177.5180  136.7080 C   0  0  0  0  0  2  0  0  0  0  0  0
  183.1710  178.7550  137.9340 C   0  0  1  0  0  3  0  0  0  0  0  0
  184.1480  180.8030  138.7200 O   0  0  0  0  0  1  0  0  0  0  0  0
  185.1240  177.1880  137.7560 C   0  0  0  0  0  0  0  0  0  0  0  0
  188.0060  176.8750  136.6420 C   0  0  0  0  0  0  0  0  0  0  0  0
  180.8070  178.3850  138.2120 C   0  0  0  0  0  2  0  0  0  0  0  0
  187.5110  177.7440  137.5770 C   0  0  0  0  0  0  0  0  0  0  0  0
  181.8720  178.6150  137.2330 N   0  0  2  0  0  0  0  0  0  0  0  0
  188.8330  178.4300  137.6670 C   0  0  0  0  0  2  0  0  0  0  0  0
  183.8210  177.2960  139.8100 O   0  0  0  0  0  1  0  0  0  0  0  0
  185.4420  174.5670  135.0310 C   0  0  0  0  0  2  0  0  0  0  0  0
  186.0880  175.5720  135.9140 C   0  0  0  0  0  0  0  0  0  0  0  0
  187.4320  175.7430  135.9460 C   0  0  0  0  0  0  0  0  0  0  0  0
  180.5850  179.0220  140.5510 N   0  0  0  0  0  2  0  0  0  0  0  0
  179.2810  179.3770  141.0870 C   0  0  0  0  0  2  0  0  0  0  0  0
  180.0500  180.8440  142.7970 O   0  0  0  0  0  1  0  0  0  0  0  0
  179.3130  180.8040  141.6130 C   0  0  0  0  0  2  0  0  0  0  0  0
  188.3550  174.9000  135.2990 O   0  0  0  0  0  0  0  0  0  0  0  0
  188.6430  173.0090  136.7410 C   0  0  0  0  0  1  0  0  0  0  0  0
  189.3350  174.0880  135.9350 C   0  0  0  0  0  2  0  0  0  0  0  0
  186.0660  178.6480  139.3790 O   0  0  0  0  0  0  0  0  0  0  0  0
  186.9460  178.6150  140.4950 C   0  0  0  0  0  2  0  0  0  0  0  0
  185.2880  179.7530  141.7660 O   0  0  0  0  0  0  0  0  0  0  0  0
  186.4130  178.0390  142.8920 N   0  0  0  0  0  2  0  0  0  0  0  0
  186.1740  178.8560  141.7430 C   0  0  0  0  0  0  0  0  0  0  0  0
  185.6660  178.2120  144.1270 C   0  0  0  0  0  1  0  0  0  0  0  0
  1 13  1  6  0  0  0
  1  4  1  0  0  0  0
  2 21  1  0  0  0  0
  3 31  1  0  0  0  0
  4  5  1  0  0  0  0
  5 24  1  1  0  0  0
  6 20  1  1  0  0  0
  7  9  1  0  0  0  0
  7  8  1  0  0  0  0
  8 18  1  0  0  0  0
  9  2  1  6  0  0  0
  9 10  1  0  0  0  0
 10 14  1  0  0  0  0
 11 19  1  0  0  0  0
 12  6  1  0  0  0  0
 12  1  1  0  0  0  0
 14  3  2  0  0  0  0
 14  6  1  0  0  0  0
 15 11  1  0  0  0  0
 15 17  2  0  0  0  0
 16  5  1  0  0  0  0
 17 19  1  0  0  0  0
 17  3  1  0  0  0  0
 18 12  1  0  0  0  0
 18 16  1  0  0  0  0
 21 22  1  0  0  0  0
 22 23  2  0  0  0  0
 22 10  1  0  0  0  0
 23 15  1  0  0  0  0
 24 25  1  0  0  0  0
 25 27  1  0  0  0  0
 27 26  1  0  0  0  0
 28 30  1  0  0  0  0
 28 23  1  0  0  0  0
 30 29  1  0  0  0  0
 31 32  1  0  0  0  0
 32 35  1  0  0  0  0
 34 36  1  0  0  0  0
 35 33  2  0  0  0  0
 35 34  1  0  0  0  0
M  END
>  <MODEL>
7

>  <REMARK>
 VINA RESULT:      -5.9      2.420      6.279
  Name = 
  8 active torsions:
  status: ('A' for Active; 'I' for Inactive)
    1  A    between atoms: C_4  and  O_35
    2  A    between atoms: C_6  and  N_29
    3  A    between atoms: C_19  and  C_21
    4  A    between atoms: C_19  and  N_29
    5  A    between atoms: C_24  and  C_28
    6  A    between atoms: C_24  and  O_35
    7  A    between atoms: C_27  and  O_33
    8  A    between atoms: O_33  and  C_34
                            x       y       z     vdW  Elec       q    Type
                         _______ _______ _______ _____ _____    ______ ____

>  <TORSDO>
F 8

$$$$
=
 OpenBabel11042411323D

 36 40  0  0  1  0  0  0  0  0999 V2000
  181.5740  176.8020  136.9230 C   0  0  1  0  0  3  0  0  0  0  0  0
  186.0450  178.9870  140.9710 C   0  0  0  0  0  2  0  0  0  0  0  0
  181.3940  177.5170  140.5860 C   0  0  0  0  0  0  0  0  0  0  0  0
  181.8990  176.6370  135.4410 C   0  0  0  0  0  2  0  0  0  0  0  0
  183.1950  175.8440  135.2390 C   0  0  1  0  0  3  0  0  0  0  0  0
  183.0510  176.5430  139.0310 C   0  0  1  0  0  3  0  0  0  0  0  0
  184.9320  178.9690  138.7240 C   0  0  0  0  0  2  0  0  0  0  0  0
  185.1860  177.9220  137.6440 C   0  0  0  0  0  2  0  0  0  0  0  0
  185.0490  178.2760  140.0720 C   0  0  2  0  0  3  0  0  0  0  0  0
  183.7690  178.2280  140.7760 N   0  0  0  0  0  0  0  0  0  0  0  0
  180.4220  179.5740  143.2530 C   0  0  0  0  0  2  0  0  0  0  0  0
  182.7820  177.3230  137.7270 C   0  0  1  0  0  3  0  0  0  0  0  0
  180.5020  177.6830  137.0650 O   0  0  0  0  0  1  0  0  0  0  0  0
  182.6980  177.3940  140.2350 C   0  0  0  0  0  0  0  0  0  0  0  0
  181.6780  179.0250  142.6740 C   0  0  0  0  0  0  0  0  0  0  0  0
  184.3200  176.3030  136.1790 C   0  0  0  0  0  2  0  0  0  0  0  0
  180.9800  178.4050  141.6720 C   0  0  0  0  0  0  0  0  0  0  0  0
  183.9850  177.5400  136.8870 N   0  0  2  0  0  0  0  0  0  0  0  0
  179.6960  178.9440  142.2080 C   0  0  0  0  0  2  0  0  0  0  0  0
  182.4570  175.2760  139.0600 O   0  0  0  0  0  1  0  0  0  0  0  0
  185.4690  178.8680  142.3660 C   0  0  0  0  0  2  0  0  0  0  0  0
  184.0190  178.6510  142.1350 C   0  0  0  0  0  0  0  0  0  0  0  0
  183.0810  179.0480  143.0300 C   0  0  0  0  0  0  0  0  0  0  0  0
  182.9530  174.4270  135.4490 N   0  0  0  0  0  2  0  0  0  0  0  0
  184.1680  173.8550  136.0030 C   0  0  0  0  0  2  0  0  0  0  0  0
  184.8730  172.6380  137.9250 O   0  0  0  0  0  1  0  0  0  0  0  0
  183.8140  172.7890  137.0280 C   0  0  0  0  0  2  0  0  0  0  0  0
  183.3700  179.5380  144.3170 O   0  0  0  0  0  0  0  0  0  0  0  0
  185.0840  178.8940  145.8600 C   0  0  0  0  0  1  0  0  0  0  0  0
  183.6270  178.7520  145.4740 C   0  0  0  0  0  2  0  0  0  0  0  0
  180.4280  176.7790  139.8810 O   0  0  0  0  0  0  0  0  0  0  0  0
  179.3790  176.0410  140.4950 C   0  0  0  0  0  2  0  0  0  0  0  0
  179.4620  173.6690  140.6610 O   0  0  0  0  0  0  0  0  0  0  0  0
  179.0870  174.5110  138.5110 N   0  0  0  0  0  2  0  0  0  0  0  0
  179.3290  174.6740  139.9110 C   0  0  0  0  0  0  0  0  0  0  0  0
  178.9990  173.1970  137.8940 C   0  0  0  0  0  1  0  0  0  0  0  0
  1 13  1  6  0  0  0
  1 12  1  0  0  0  0
  2 21  1  0  0  0  0
  3 17  1  0  0  0  0
  4  1  1  0  0  0  0
  5  4  1  0  0  0  0
  5 24  1  1  0  0  0
  5 16  1  0  0  0  0
  6 20  1  6  0  0  0
  6 14  1  0  0  0  0
  8  7  1  0  0  0  0
  9  7  1  6  0  0  0
  9 10  1  0  0  0  0
  9  2  1  0  0  0  0
 10 22  1  0  0  0  0
 12  6  1  0  0  0  0
 14  3  2  0  0  0  0
 14 10  1  0  0  0  0
 15 23  1  0  0  0  0
 15 11  1  0  0  0  0
 16 18  1  0  0  0  0
 17 19  1  0  0  0  0
 17 15  2  0  0  0  0
 18  8  1  0  0  0  0
 18 12  1  0  0  0  0
 19 11  1  0  0  0  0
 22 21  1  0  0  0  0
 22 23  2  0  0  0  0
 23 28  1  0  0  0  0
 24 25  1  0  0  0  0
 25 27  1  0  0  0  0
 27 26  1  0  0  0  0
 28 30  1  0  0  0  0
 30 29  1  0  0  0  0
 31 32  1  0  0  0  0
 31  3  1  0  0  0  0
 34 35  1  0  0  0  0
 35 32  1  0  0  0  0
 35 33  2  0  0  0  0
 36 34  1  0  0  0  0
M  END
>  <MODEL>
8

>  <REMARK>
 VINA RESULT:      -5.9      3.000      5.959
  Name = 
  8 active torsions:
  status: ('A' for Active; 'I' for Inactive)
    1  A    between atoms: C_4  and  O_35
    2  A    between atoms: C_6  and  N_29
    3  A    between atoms: C_19  and  C_21
    4  A    between atoms: C_19  and  N_29
    5  A    between atoms: C_24  and  C_28
    6  A    between atoms: C_24  and  O_35
    7  A    between atoms: C_27  and  O_33
    8  A    between atoms: O_33  and  C_34
                            x       y       z     vdW  Elec       q    Type
                         _______ _______ _______ _____ _____    ______ ____

>  <TORSDO>
F 8

$$$$
=
 OpenBabel11042411323D

 36 40  0  0  1  0  0  0  0  0999 V2000
  189.8890  175.6780  137.5580 C   0  0  1  0  0  3  0  0  0  0  0  0
  184.3540  178.8060  138.4110 C   0  0  0  0  0  2  0  0  0  0  0  0
  188.5660  177.5080  140.5350 C   0  0  0  0  0  0  0  0  0  0  0  0
  190.1700  174.9660  136.2380 C   0  0  0  0  0  2  0  0  0  0  0  0
  189.9220  175.8920  135.0410 C   0  0  1  0  0  3  0  0  0  0  0  0
  188.5540  177.8310  138.0830 C   0  0  1  0  0  3  0  0  0  0  0  0
  185.6780  176.8950  137.4730 C   0  0  0  0  0  2  0  0  0  0  0  0
  186.5250  176.9710  136.2050 C   0  0  0  0  0  2  0  0  0  0  0  0
  185.7440  178.2530  138.1510 C   0  0  2  0  0  3  0  0  0  0  0  0
  186.4450  178.1920  139.4330 N   0  0  0  0  0  0  0  0  0  0  0  0
  187.0770  177.5070  143.7090 C   0  0  0  0  0  2  0  0  0  0  0  0
  188.5170  176.3810  137.5570 C   0  0  1  0  0  3  0  0  0  0  0  0
  189.9410  174.7540  138.6010 O   0  0  0  0  0  1  0  0  0  0  0  0
  187.8790  177.9160  139.4390 C   0  0  0  0  0  0  0  0  0  0  0  0
  186.7810  178.0180  142.3420 C   0  0  0  0  0  0  0  0  0  0  0  0
  188.6130  176.6860  135.1700 C   0  0  0  0  0  2  0  0  0  0  0  0
  187.9370  177.4680  141.8540 C   0  0  0  0  0  0  0  0  0  0  0  0
  187.7820  176.2140  136.2800 N   0  0  2  0  0  0  0  0  0  0  0  0
  188.2700  176.9240  143.2030 C   0  0  0  0  0  2  0  0  0  0  0  0
  189.8330  178.4010  138.0680 O   0  0  0  0  0  1  0  0  0  0  0  0
  184.4610  179.5350  139.7330 C   0  0  0  0  0  2  0  0  0  0  0  0
  185.6340  178.9060  140.3920 C   0  0  0  0  0  0  0  0  0  0  0  0
  185.7450  178.8310  141.7410 C   0  0  0  0  0  0  0  0  0  0  0  0
  191.0270  176.8230  134.8920 N   0  0  0  0  0  2  0  0  0  0  0  0
  192.2190  176.0420  134.6040 C   0  0  0  0  0  2  0  0  0  0  0  0
  193.7710  175.1890  136.1960 O   0  0  0  0  0  1  0  0  0  0  0  0
  193.3050  176.3700  135.6170 C   0  0  0  0  0  2  0  0  0  0  0  0
  184.8790  179.4720  142.6460 O   0  0  0  0  0  0  0  0  0  0  0  0
  183.8890  178.9980  144.7750 C   0  0  0  0  0  1  0  0  0  0  0  0
  183.7410  178.8910  143.2720 C   0  0  0  0  0  2  0  0  0  0  0  0
  189.9060  177.1110  140.3880 O   0  0  0  0  0  0  0  0  0  0  0  0
  191.0210  177.8790  140.8230 C   0  0  0  0  0  2  0  0  0  0  0  0
  191.6720  178.3720  143.0570 O   0  0  0  0  0  0  0  0  0  0  0  0
  191.3600  176.1030  142.5810 N   0  0  0  0  0  2  0  0  0  0  0  0
  191.3840  177.4840  142.2100 C   0  0  0  0  0  0  0  0  0  0  0  0
  191.6780  175.6650  143.9310 C   0  0  0  0  0  1  0  0  0  0  0  0
  1 13  1  1  0  0  0
  2 21  1  0  0  0  0
  3 17  1  0  0  0  0
  4  1  1  0  0  0  0
  5 24  1  1  0  0  0
  5 16  1  0  0  0  0
  5  4  1  0  0  0  0
  6 20  1  1  0  0  0
  6 14  1  0  0  0  0
  8 18  1  0  0  0  0
  8  7  1  0  0  0  0
  9  7  1  1  0  0  0
  9  2  1  0  0  0  0
  9 10  1  0  0  0  0
 10 14  1  0  0  0  0
 10 22  1  0  0  0  0
 12  1  1  0  0  0  0
 12  6  1  0  0  0  0
 14  3  2  0  0  0  0
 15 11  1  0  0  0  0
 16 18  1  0  0  0  0
 17 15  2  0  0  0  0
 17 19  1  0  0  0  0
 18 12  1  0  0  0  0
 19 11  1  0  0  0  0
 21 22  1  0  0  0  0
 22 23  2  0  0  0  0
 23 15  1  0  0  0  0
 23 28  1  0  0  0  0
 25 24  1  0  0  0  0
 25 27  1  0  0  0  0
 27 26  1  0  0  0  0
 28 30  1  0  0  0  0
 30 29  1  0  0  0  0
 31  3  1  0  0  0  0
 31 32  1  0  0  0  0
 32 35  1  0  0  0  0
 34 36  1  0  0  0  0
 35 34  1  0  0  0  0
 35 33  2  0  0  0  0
M  END
>  <MODEL>
9

>  <REMARK>
 VINA RESULT:      -5.7      3.328      6.902
  Name = 
  8 active torsions:
  status: ('A' for Active; 'I' for Inactive)
    1  A    between atoms: C_4  and  O_35
    2  A    between atoms: C_6  and  N_29
    3  A    between atoms: C_19  and  C_21
    4  A    between atoms: C_19  and  N_29
    5  A    between atoms: C_24  and  C_28
    6  A    between atoms: C_24  and  O_35
    7  A    between atoms: C_27  and  O_33
    8  A    between atoms: O_33  and  C_34
                            x       y       z     vdW  Elec       q    Type
                         _______ _______ _______ _____ _____    ______ ____

>  <TORSDO>
F 8

$$$$
