=
 OpenBabel11042410303D

 35 38  0  0  1  0  0  0  0  0999 V2000
  191.0520  176.2230  138.8900 C   0  0  0  0  0  0  0  0  0  0  0  0
  190.2690  177.0110  138.0520 C   0  0  0  0  0  3  0  0  0  0  0  0
  189.0510  177.8900  139.9650 C   0  0  0  0  0  0  0  0  0  0  0  0
  189.8580  177.0980  140.8190 C   0  0  0  0  0  0  0  0  0  0  0  0
  190.8450  176.2740  140.2690 C   0  0  0  0  0  3  0  0  0  0  0  0
  189.2710  177.8520  138.5620 C   0  0  0  0  0  0  0  0  0  0  0  0
  187.7180  178.8250  140.6580 Cl  0  0  0  0  0  0  0  0  0  0  0  0
  189.3220  177.1620  145.0770 C   0  0  0  0  0  0  0  0  0  0  0  0
  188.5970  176.4680  142.8730 C   0  0  0  0  0  3  0  0  0  0  0  0
  189.7000  177.1090  142.2900 C   0  0  0  0  0  0  0  0  0  0  0  0
  190.4240  177.8090  144.5030 C   0  0  0  0  0  3  0  0  0  0  0  0
  188.4110  176.4900  144.2570 C   0  0  0  0  0  3  0  0  0  0  0  0
  190.6150  177.7890  143.1190 C   0  0  0  0  0  0  0  0  0  0  0  0
  191.7210  178.4350  142.5790 O   0  0  0  0  0  1  0  0  0  0  0  0
  189.1060  177.1680  146.5590 C   0  0  2  0  0  3  0  0  0  0  0  0
  188.2130  178.2520  146.9400 N   0  0  0  0  0  2  0  0  0  0  0  0
  184.6180  178.1990  146.7990 O   0  0  0  0  0  0  0  0  0  0  0  0
  185.9650  179.9360  147.5470 N   0  0  0  0  0  1  0  0  0  0  0  0
  186.9050  177.8080  146.7030 N   0  0  0  0  0  2  0  0  0  0  0  0
  185.7820  178.6300  147.0080 C   0  0  0  0  0  0  0  0  0  0  0  0
  190.4370  177.3000  147.2880 C   0  0  0  0  0  2  0  0  0  0  0  0
  191.1870  175.9780  147.2990 C   0  0  0  0  0  2  0  0  0  0  0  0
  192.4370  176.1440  147.8960 O   0  0  0  0  0  1  0  0  0  0  0  0
  188.7860  179.8640  137.3640 O   0  0  0  0  0  0  0  0  0  0  0  0
  188.5010  178.6550  137.5820 C   0  0  0  0  0  0  0  0  0  0  0  0
  187.4620  178.0480  136.8700 O   0  0  0  0  0  0  0  0  0  0  0  0
  186.2080  177.7400  137.4650 C   0  0  0  0  0  2  0  0  0  0  0  0
  185.5750  178.9620  137.9360 N   0  0  0  0  0  2  0  0  0  0  0  0
  184.5840  179.6230  139.9950 N   0  0  0  0  0  2  0  0  0  0  0  0
  184.6270  178.5750  138.9640 C   0  0  1  0  0  3  0  0  0  0  0  0
  183.5190  179.5220  138.9880 C   0  0  0  0  0  2  0  0  0  0  0  0
  192.0580  175.3830  138.3210 N   0  0  0  0  0  2  0  0  0  0  0  0
  194.0410  176.4240  138.8230 O   0  0  0  0  0  0  0  0  0  0  0  0
  194.4120  175.1650  138.3820 N   0  0  0  0  0  2  0  0  0  0  0  0
  193.3160  175.8980  137.8020 C   0  0  1  0  0  3  0  0  0  0  0  0
  1  5  1  0  0  0  0
  2  6  1  0  0  0  0
  2  1  2  0  0  0  0
  3  7  1  0  0  0  0
  3  4  1  0  0  0  0
  4 10  1  0  0  0  0
  5  4  2  0  0  0  0
  6  3  2  0  0  0  0
  8 15  1  0  0  0  0
  9 12  1  0  0  0  0
 10  9  2  0  0  0  0
 10 13  1  0  0  0  0
 11  8  1  0  0  0  0
 12  8  2  0  0  0  0
 13 11  2  0  0  0  0
 14 13  1  0  0  0  0
 15 16  1  0  0  0  0
 15 21  1  1  0  0  0
 17 20  2  0  0  0  0
 19 16  1  0  0  0  0
 19 20  1  0  0  0  0
 20 18  1  0  0  0  0
 21 22  1  0  0  0  0
 22 23  1  0  0  0  0
 24 25  2  0  0  0  0
 25  6  1  0  0  0  0
 26 27  1  0  0  0  0
 26 25  1  0  0  0  0
 27 28  1  0  0  0  0
 30 28  1  6  0  0  0
 30 31  1  0  0  0  0
 30 29  1  0  0  0  0
 31 29  1  0  0  0  0
 32  1  1  0  0  0  0
 34 33  1  0  0  0  0
 35 32  1  1  0  0  0
 35 34  1  0  0  0  0
 35 33  1  0  0  0  0
M  END
>  <MODEL>
1

>  <REMARK>
 VINA RESULT:      -7.6      0.000      0.000
  Name = 
  13 active torsions:
  status: ('A' for Active; 'I' for Inactive)
    1  A    between atoms: C_2  and  C_19
    2  A    between atoms: N_3  and  C_7
    3  A    between atoms: N_3  and  C_33
    4  A    between atoms: N_4  and  C_19
    5  A    between atoms: N_4  and  N_25
    6  A    between atoms: C_6  and  C_11
    7  A    between atoms: N_9  and  C_17
    8  A    between atoms: N_9  and  C_29
    9  A    between atoms: C_17  and  O_20
   10  A    between atoms: C_18  and  C_31
   11  A    between atoms: C_19  and  C_31
   12  A    between atoms: O_20  and  C_24
   13  A    between atoms: C_24  and  C_26
                            x       y       z     vdW  Elec       q    Type
                         _______ _______ _______ _____ _____    ______ ____

>  <TORSDO>
F 13

$$$$
=
 OpenBabel11042410303D

 35 38  0  0  1  0  0  0  0  0999 V2000
  190.7100  176.5000  138.8110 C   0  0  0  0  0  0  0  0  0  0  0  0
  189.8370  177.0910  137.9040 C   0  0  0  0  0  3  0  0  0  0  0  0
  188.4270  177.8740  139.7240 C   0  0  0  0  0  0  0  0  0  0  0  0
  189.3230  177.2820  140.6490 C   0  0  0  0  0  0  0  0  0  0  0  0
  190.4510  176.6020  140.1780 C   0  0  0  0  0  3  0  0  0  0  0  0
  188.6970  177.7850  138.3330 C   0  0  0  0  0  0  0  0  0  0  0  0
  186.9350  178.6160  140.3220 Cl  0  0  0  0  0  0  0  0  0  0  0  0
  188.6470  177.5430  144.8790 C   0  0  0  0  0  0  0  0  0  0  0  0
  187.9570  176.8080  142.6770 C   0  0  0  0  0  3  0  0  0  0  0  0
  189.1170  177.3600  142.1110 C   0  0  0  0  0  0  0  0  0  0  0  0
  189.8050  178.1010  144.3220 C   0  0  0  0  0  3  0  0  0  0  0  0
  187.7250  176.8950  144.0510 C   0  0  0  0  0  3  0  0  0  0  0  0
  190.0420  178.0160  142.9480 C   0  0  0  0  0  0  0  0  0  0  0  0
  191.2030  178.5750  142.4260 O   0  0  0  0  0  1  0  0  0  0  0  0
  188.3810  177.6190  146.3510 C   0  0  2  0  0  3  0  0  0  0  0  0
  189.0510  176.5310  147.0470 N   0  0  0  0  0  2  0  0  0  0  0  0
  192.2990  177.2710  148.4080 O   0  0  0  0  0  0  0  0  0  0  0  0
  191.8070  175.8050  146.6760 N   0  0  0  0  0  1  0  0  0  0  0  0
  190.0530  177.1070  147.8390 N   0  0  0  0  0  2  0  0  0  0  0  0
  191.4220  176.7480  147.6710 C   0  0  0  0  0  0  0  0  0  0  0  0
  186.8820  177.5740  146.6220 C   0  0  0  0  0  2  0  0  0  0  0  0
  186.2120  178.8720  146.2000 C   0  0  0  0  0  2  0  0  0  0  0  0
  185.4650  179.3890  147.2580 O   0  0  0  0  0  1  0  0  0  0  0  0
  187.8810  179.6210  137.0360 O   0  0  0  0  0  0  0  0  0  0  0  0
  187.8400  178.3850  137.2830 C   0  0  0  0  0  0  0  0  0  0  0  0
  186.9920  177.5570  136.5390 O   0  0  0  0  0  0  0  0  0  0  0  0
  185.9620  176.7830  137.1400 C   0  0  0  0  0  2  0  0  0  0  0  0
  184.6630  177.3160  136.7620 N   0  0  0  0  0  2  0  0  0  0  0  0
  182.4740  177.2380  137.6880 N   0  0  0  0  0  2  0  0  0  0  0  0
  183.8960  177.4620  137.9840 C   0  0  1  0  0  3  0  0  0  0  0  0
  183.2770  176.1880  138.3280 C   0  0  0  0  0  2  0  0  0  0  0  0
  191.8600  175.8050  138.3240 N   0  0  0  0  0  2  0  0  0  0  0  0
  193.7840  176.8170  139.0580 O   0  0  0  0  0  0  0  0  0  0  0  0
  194.2220  175.7020  138.3650 N   0  0  0  0  0  2  0  0  0  0  0  0
  193.0890  176.4830  137.9410 C   0  0  1  0  0  3  0  0  0  0  0  0
  1  5  1  0  0  0  0
  2  6  1  0  0  0  0
  2  1  2  0  0  0  0
  3  7  1  0  0  0  0
  3  4  1  0  0  0  0
  4 10  1  0  0  0  0
  5  4  2  0  0  0  0
  6  3  2  0  0  0  0
  8 15  1  0  0  0  0
  9 12  1  0  0  0  0
 10  9  2  0  0  0  0
 10 13  1  0  0  0  0
 11  8  1  0  0  0  0
 12  8  2  0  0  0  0
 13 11  2  0  0  0  0
 14 13  1  0  0  0  0
 15 21  1  6  0  0  0
 15 16  1  0  0  0  0
 16 19  1  0  0  0  0
 18 20  1  0  0  0  0
 20 19  1  0  0  0  0
 20 17  2  0  0  0  0
 22 21  1  0  0  0  0
 22 23  1  0  0  0  0
 24 25  2  0  0  0  0
 25  6  1  0  0  0  0
 26 27  1  0  0  0  0
 26 25  1  0  0  0  0
 28 27  1  0  0  0  0
 29 30  1  0  0  0  0
 29 31  1  0  0  0  0
 30 28  1  6  0  0  0
 30 31  1  0  0  0  0
 32  1  1  0  0  0  0
 34 33  1  0  0  0  0
 35 32  1  1  0  0  0
 35 34  1  0  0  0  0
 35 33  1  0  0  0  0
M  END
>  <MODEL>
2

>  <REMARK>
 VINA RESULT:      -7.4      1.496      3.018
  Name = 
  13 active torsions:
  status: ('A' for Active; 'I' for Inactive)
    1  A    between atoms: C_2  and  C_19
    2  A    between atoms: N_3  and  C_7
    3  A    between atoms: N_3  and  C_33
    4  A    between atoms: N_4  and  C_19
    5  A    between atoms: N_4  and  N_25
    6  A    between atoms: C_6  and  C_11
    7  A    between atoms: N_9  and  C_17
    8  A    between atoms: N_9  and  C_29
    9  A    between atoms: C_17  and  O_20
   10  A    between atoms: C_18  and  C_31
   11  A    between atoms: C_19  and  C_31
   12  A    between atoms: O_20  and  C_24
   13  A    between atoms: C_24  and  C_26
                            x       y       z     vdW  Elec       q    Type
                         _______ _______ _______ _____ _____    ______ ____

>  <TORSDO>
F 13

$$$$
=
 OpenBabel11042410303D

 35 38  0  0  1  0  0  0  0  0999 V2000
  187.7690  178.1070  139.5680 C   0  0  0  0  0  0  0  0  0  0  0  0
  188.7380  177.4680  138.8000 C   0  0  0  0  0  3  0  0  0  0  0  0
  190.0320  176.9650  140.7970 C   0  0  0  0  0  0  0  0  0  0  0  0
  189.0390  177.6050  141.5800 C   0  0  0  0  0  0  0  0  0  0  0  0
  187.9220  178.1680  140.9530 C   0  0  0  0  0  3  0  0  0  0  0  0
  189.8700  176.8870  139.3880 C   0  0  0  0  0  0  0  0  0  0  0  0
  191.5040  176.3750  141.5840 Cl  0  0  0  0  0  0  0  0  0  0  0  0
  189.3920  177.8640  145.8490 C   0  0  0  0  0  0  0  0  0  0  0  0
  190.0280  178.6090  143.6340 C   0  0  0  0  0  3  0  0  0  0  0  0
  189.1320  177.6990  143.0530 C   0  0  0  0  0  0  0  0  0  0  0  0
  188.4980  176.9500  145.2780 C   0  0  0  0  0  3  0  0  0  0  0  0
  190.1550  178.6940  145.0220 C   0  0  0  0  0  3  0  0  0  0  0  0
  188.3670  176.8610  143.8900 C   0  0  0  0  0  0  0  0  0  0  0  0
  187.4670  175.9470  143.3530 O   0  0  0  0  0  1  0  0  0  0  0  0
  189.5400  177.9780  147.3350 C   0  0  2  0  0  3  0  0  0  0  0  0
  190.7500  177.3010  147.7810 N   0  0  0  0  0  2  0  0  0  0  0  0
  192.5250  174.7280  146.0000 O   0  0  0  0  0  0  0  0  0  0  0  0
  193.1430  175.7250  148.0030 N   0  0  0  0  0  1  0  0  0  0  0  0
  191.0690  176.3470  146.8050 N   0  0  0  0  0  2  0  0  0  0  0  0
  192.2570  175.5660  146.8990 C   0  0  0  0  0  0  0  0  0  0  0  0
  188.3210  177.3940  148.0360 C   0  0  0  0  0  2  0  0  0  0  0  0
  187.3120  178.4800  148.3730 C   0  0  0  0  0  2  0  0  0  0  0  0
  186.2960  178.5000  147.4180 O   0  0  0  0  0  1  0  0  0  0  0  0
  190.6080  175.0730  138.0170 O   0  0  0  0  0  0  0  0  0  0  0  0
  190.8350  176.2240  138.4790 C   0  0  0  0  0  0  0  0  0  0  0  0
  192.0010  176.9020  138.1110 O   0  0  0  0  0  0  0  0  0  0  0  0
  193.2860  176.2960  138.1680 C   0  0  0  0  0  2  0  0  0  0  0  0
  194.0120  176.5660  136.9380 N   0  0  0  0  0  2  0  0  0  0  0  0
  195.9970  175.3290  136.5010 N   0  0  0  0  0  2  0  0  0  0  0  0
  194.5280  175.2940  136.4660 C   0  0  1  0  0  3  0  0  0  0  0  0
  195.2420  174.6260  137.5470 C   0  0  0  0  0  2  0  0  0  0  0  0
  186.6310  178.6810  138.9210 N   0  0  0  0  0  2  0  0  0  0  0  0
  185.1070  179.6450  140.3390 O   0  0  0  0  0  0  0  0  0  0  0  0
  184.5440  179.7810  139.0820 N   0  0  0  0  0  2  0  0  0  0  0  0
  185.2890  178.6130  139.4770 C   0  0  1  0  0  3  0  0  0  0  0  0
  1  5  1  0  0  0  0
  2  6  1  0  0  0  0
  2  1  2  0  0  0  0
  3  4  1  0  0  0  0
  3  7  1  0  0  0  0
  4 10  1  0  0  0  0
  5  4  2  0  0  0  0
  6  3  2  0  0  0  0
  8 15  1  0  0  0  0
  9 12  1  0  0  0  0
 10  9  2  0  0  0  0
 10 13  1  0  0  0  0
 11  8  1  0  0  0  0
 12  8  2  0  0  0  0
 13 11  2  0  0  0  0
 14 13  1  0  0  0  0
 15 16  1  0  0  0  0
 15 21  1  1  0  0  0
 17 20  2  0  0  0  0
 19 20  1  0  0  0  0
 19 16  1  0  0  0  0
 20 18  1  0  0  0  0
 21 22  1  0  0  0  0
 23 22  1  0  0  0  0
 24 25  2  0  0  0  0
 25  6  1  0  0  0  0
 26 27  1  0  0  0  0
 26 25  1  0  0  0  0
 28 27  1  0  0  0  0
 29 31  1  0  0  0  0
 30 29  1  0  0  0  0
 30 28  1  1  0  0  0
 30 31  1  0  0  0  0
 32  1  1  0  0  0  0
 34 35  1  0  0  0  0
 34 33  1  0  0  0  0
 35 32  1  6  0  0  0
 35 33  1  0  0  0  0
M  END
>  <MODEL>
3

>  <REMARK>
 VINA RESULT:      -7.3      2.380      6.251
  Name = 
  13 active torsions:
  status: ('A' for Active; 'I' for Inactive)
    1  A    between atoms: C_2  and  C_19
    2  A    between atoms: N_3  and  C_7
    3  A    between atoms: N_3  and  C_33
    4  A    between atoms: N_4  and  C_19
    5  A    between atoms: N_4  and  N_25
    6  A    between atoms: C_6  and  C_11
    7  A    between atoms: N_9  and  C_17
    8  A    between atoms: N_9  and  C_29
    9  A    between atoms: C_17  and  O_20
   10  A    between atoms: C_18  and  C_31
   11  A    between atoms: C_19  and  C_31
   12  A    between atoms: O_20  and  C_24
   13  A    between atoms: C_24  and  C_26
                            x       y       z     vdW  Elec       q    Type
                         _______ _______ _______ _____ _____    ______ ____

>  <TORSDO>
F 13

$$$$
=
 OpenBabel11042410303D

 35 38  0  0  1  0  0  0  0  0999 V2000
  188.8460  177.5570  146.0500 C   0  0  0  0  0  0  0  0  0  0  0  0
  187.5040  177.7900  146.3340 C   0  0  0  0  0  3  0  0  0  0  0  0
  186.9970  177.9420  143.9590 C   0  0  0  0  0  0  0  0  0  0  0  0
  188.3610  177.6920  143.6710 C   0  0  0  0  0  0  0  0  0  0  0  0
  189.2670  177.5050  144.7200 C   0  0  0  0  0  3  0  0  0  0  0  0
  186.5630  177.9790  145.3120 C   0  0  0  0  0  0  0  0  0  0  0  0
  185.8860  178.3100  142.6310 Cl  0  0  0  0  0  0  0  0  0  0  0  0
  189.7720  177.4720  139.6230 C   0  0  0  0  0  0  0  0  0  0  0  0
  188.5170  178.6040  141.3570 C   0  0  0  0  0  3  0  0  0  0  0  0
  188.8750  177.6140  142.2860 C   0  0  0  0  0  0  0  0  0  0  0  0
  190.1310  176.4770  140.5420 C   0  0  0  0  0  3  0  0  0  0  0  0
  188.9660  178.5360  140.0370 C   0  0  0  0  0  3  0  0  0  0  0  0
  189.6850  176.5410  141.8650 C   0  0  0  0  0  0  0  0  0  0  0  0
  190.0630  175.5410  142.7550 O   0  0  0  0  0  1  0  0  0  0  0  0
  190.2460  177.4220  138.2040 C   0  0  2  0  0  3  0  0  0  0  0  0
  189.2760  178.0520  137.3190 N   0  0  0  0  0  2  0  0  0  0  0  0
  186.1290  176.3880  136.7950 O   0  0  0  0  0  0  0  0  0  0  0  0
  186.4580  178.5460  137.5850 N   0  0  0  0  0  1  0  0  0  0  0  0
  188.3430  177.0670  136.9680 N   0  0  0  0  0  2  0  0  0  0  0  0
  186.9430  177.2970  137.1040 C   0  0  0  0  0  0  0  0  0  0  0  0
  190.4920  175.9810  137.7760 C   0  0  0  0  0  2  0  0  0  0  0  0
  191.8830  175.8160  137.1860 C   0  0  0  0  0  2  0  0  0  0  0  0
  192.7910  176.6250  137.8700 O   0  0  0  0  0  1  0  0  0  0  0  0
  184.8690  178.4890  146.9200 O   0  0  0  0  0  0  0  0  0  0  0  0
  185.1590  178.2110  145.7250 C   0  0  0  0  0  0  0  0  0  0  0  0
  184.1450  178.1460  144.7630 O   0  0  0  0  0  0  0  0  0  0  0  0
  183.2300  179.2120  144.5460 C   0  0  0  0  0  2  0  0  0  0  0  0
  181.9230  178.6750  144.2050 N   0  0  0  0  0  2  0  0  0  0  0  0
  180.4230  178.4190  142.3770 N   0  0  0  0  0  2  0  0  0  0  0  0
  181.6290  179.1120  142.8520 C   0  0  1  0  0  3  0  0  0  0  0  0
  180.3510  179.8130  142.8330 C   0  0  0  0  0  2  0  0  0  0  0  0
  189.7660  177.3680  147.1270 N   0  0  0  0  0  2  0  0  0  0  0  0
  191.9360  176.9420  146.5160 O   0  0  0  0  0  0  0  0  0  0  0  0
  191.9390  176.8420  147.8960 N   0  0  0  0  0  2  0  0  0  0  0  0
  190.8380  176.3860  147.0870 C   0  0  1  0  0  3  0  0  0  0  0  0
  1  2  1  0  0  0  0
  1 32  1  0  0  0  0
  3  6  1  0  0  0  0
  4  3  2  0  0  0  0
  4  5  1  0  0  0  0
  5  1  2  0  0  0  0
  6 25  1  0  0  0  0
  6  2  2  0  0  0  0
  7  3  1  0  0  0  0
  8 12  2  0  0  0  0
  8 11  1  0  0  0  0
  9 10  2  0  0  0  0
 10  4  1  0  0  0  0
 11 13  2  0  0  0  0
 12  9  1  0  0  0  0
 13 10  1  0  0  0  0
 13 14  1  0  0  0  0
 15 21  1  6  0  0  0
 15  8  1  0  0  0  0
 16 15  1  0  0  0  0
 17 20  2  0  0  0  0
 19 20  1  0  0  0  0
 19 16  1  0  0  0  0
 20 18  1  0  0  0  0
 22 21  1  0  0  0  0
 22 23  1  0  0  0  0
 25 24  2  0  0  0  0
 26 25  1  0  0  0  0
 27 26  1  0  0  0  0
 28 27  1  0  0  0  0
 29 31  1  0  0  0  0
 29 30  1  0  0  0  0
 30 28  1  1  0  0  0
 31 30  1  0  0  0  0
 33 35  1  0  0  0  0
 33 34  1  0  0  0  0
 35 32  1  1  0  0  0
 35 34  1  0  0  0  0
M  END
>  <MODEL>
4

>  <REMARK>
 VINA RESULT:      -7.3      2.477      7.557
  Name = 
  13 active torsions:
  status: ('A' for Active; 'I' for Inactive)
    1  A    between atoms: C_2  and  C_19
    2  A    between atoms: N_3  and  C_7
    3  A    between atoms: N_3  and  C_33
    4  A    between atoms: N_4  and  C_19
    5  A    between atoms: N_4  and  N_25
    6  A    between atoms: C_6  and  C_11
    7  A    between atoms: N_9  and  C_17
    8  A    between atoms: N_9  and  C_29
    9  A    between atoms: C_17  and  O_20
   10  A    between atoms: C_18  and  C_31
   11  A    between atoms: C_19  and  C_31
   12  A    between atoms: O_20  and  C_24
   13  A    between atoms: C_24  and  C_26
                            x       y       z     vdW  Elec       q    Type
                         _______ _______ _______ _____ _____    ______ ____

>  <TORSDO>
F 13

$$$$
=
 OpenBabel11042410303D

 35 38  0  0  1  0  0  0  0  0999 V2000
  189.4990  176.9590  142.7810 C   0  0  0  0  0  0  0  0  0  0  0  0
  188.3020  177.6120  142.5050 C   0  0  0  0  0  3  0  0  0  0  0  0
  188.8340  177.6470  140.1310 C   0  0  0  0  0  0  0  0  0  0  0  0
  190.0480  176.9710  140.4120 C   0  0  0  0  0  0  0  0  0  0  0  0
  190.3630  176.6380  141.7340 C   0  0  0  0  0  3  0  0  0  0  0  0
  187.9460  177.9600  141.1950 C   0  0  0  0  0  0  0  0  0  0  0  0
  188.5070  178.1820  138.4760 Cl  0  0  0  0  0  0  0  0  0  0  0  0
  192.8090  175.7870  137.3480 C   0  0  0  0  0  0  0  0  0  0  0  0
  190.5870  175.7480  138.3100 C   0  0  0  0  0  3  0  0  0  0  0  0
  191.0050  176.5910  139.3510 C   0  0  0  0  0  0  0  0  0  0  0  0
  193.2370  176.6250  138.3850 C   0  0  0  0  0  3  0  0  0  0  0  0
  191.4810  175.3520  137.3130 C   0  0  0  0  0  3  0  0  0  0  0  0
  192.3460  177.0250  139.3850 C   0  0  0  0  0  0  0  0  0  0  0  0
  192.7990  177.8620  140.3990 O   0  0  0  0  0  1  0  0  0  0  0  0
  193.7490  175.3540  136.2640 C   0  0  2  0  0  3  0  0  0  0  0  0
  195.0520  175.0210  136.8220 N   0  0  0  0  0  2  0  0  0  0  0  0
  195.4510  171.9050  138.5760 O   0  0  0  0  0  0  0  0  0  0  0  0
  195.8750  174.0360  139.3930 N   0  0  0  0  0  1  0  0  0  0  0  0
  195.0410  173.6470  137.0960 N   0  0  0  0  0  2  0  0  0  0  0  0
  195.4560  173.1460  138.3640 C   0  0  0  0  0  0  0  0  0  0  0  0
  193.8890  176.4500  135.2160 C   0  0  0  0  0  2  0  0  0  0  0  0
  195.3280  176.9270  135.1130 C   0  0  0  0  0  2  0  0  0  0  0  0
  195.4260  178.2470  135.5540 O   0  0  0  0  0  1  0  0  0  0  0  0
  186.1760  178.8540  139.8580 O   0  0  0  0  0  0  0  0  0  0  0  0
  186.6440  178.6450  141.0110 C   0  0  0  0  0  0  0  0  0  0  0  0
  185.9150  179.0380  142.1380 O   0  0  0  0  0  0  0  0  0  0  0  0
  184.5040  178.8840  142.2240 C   0  0  0  0  0  2  0  0  0  0  0  0
  184.1460  178.3680  143.5360 N   0  0  0  0  0  2  0  0  0  0  0  0
  183.9930  178.9930  145.8260 N   0  0  0  0  0  2  0  0  0  0  0  0
  184.4780  179.4010  144.5000 C   0  0  1  0  0  3  0  0  0  0  0  0
  185.4150  178.8690  145.4810 C   0  0  0  0  0  2  0  0  0  0  0  0
  189.8160  176.6230  144.1340 N   0  0  0  0  0  2  0  0  0  0  0  0
  188.6060  177.3650  145.9370 O   0  0  0  0  0  0  0  0  0  0  0  0
  189.7840  176.8860  146.4840 N   0  0  0  0  0  2  0  0  0  0  0  0
  189.7400  177.5840  145.2240 C   0  0  1  0  0  3  0  0  0  0  0  0
  1 32  1  0  0  0  0
  2  1  1  0  0  0  0
  3  4  2  0  0  0  0
  3  6  1  0  0  0  0
  4  5  1  0  0  0  0
  5  1  2  0  0  0  0
  6  2  2  0  0  0  0
  7  3  1  0  0  0  0
  8 11  1  0  0  0  0
  9 10  2  0  0  0  0
 10 13  1  0  0  0  0
 10  4  1  0  0  0  0
 11 13  2  0  0  0  0
 12  8  2  0  0  0  0
 12  9  1  0  0  0  0
 13 14  1  0  0  0  0
 15 21  1  6  0  0  0
 15 16  1  0  0  0  0
 15  8  1  0  0  0  0
 16 19  1  0  0  0  0
 19 20  1  0  0  0  0
 20 17  2  0  0  0  0
 20 18  1  0  0  0  0
 22 21  1  0  0  0  0
 22 23  1  0  0  0  0
 24 25  2  0  0  0  0
 25  6  1  0  0  0  0
 25 26  1  0  0  0  0
 26 27  1  0  0  0  0
 27 28  1  0  0  0  0
 30 28  1  6  0  0  0
 30 31  1  0  0  0  0
 30 29  1  0  0  0  0
 31 29  1  0  0  0  0
 33 34  1  0  0  0  0
 35 32  1  6  0  0  0
 35 33  1  0  0  0  0
 35 34  1  0  0  0  0
M  END
>  <MODEL>
5

>  <REMARK>
 VINA RESULT:      -7.1      2.616      8.269
  Name = 
  13 active torsions:
  status: ('A' for Active; 'I' for Inactive)
    1  A    between atoms: C_2  and  C_19
    2  A    between atoms: N_3  and  C_7
    3  A    between atoms: N_3  and  C_33
    4  A    between atoms: N_4  and  C_19
    5  A    between atoms: N_4  and  N_25
    6  A    between atoms: C_6  and  C_11
    7  A    between atoms: N_9  and  C_17
    8  A    between atoms: N_9  and  C_29
    9  A    between atoms: C_17  and  O_20
   10  A    between atoms: C_18  and  C_31
   11  A    between atoms: C_19  and  C_31
   12  A    between atoms: O_20  and  C_24
   13  A    between atoms: C_24  and  C_26
                            x       y       z     vdW  Elec       q    Type
                         _______ _______ _______ _____ _____    ______ ____

>  <TORSDO>
F 13

$$$$
=
 OpenBabel11042410303D

 35 38  0  0  1  0  0  0  0  0999 V2000
  188.9080  177.5300  146.1050 C   0  0  0  0  0  0  0  0  0  0  0  0
  187.6040  177.8310  146.4850 C   0  0  0  0  0  3  0  0  0  0  0  0
  186.9280  177.9920  144.1540 C   0  0  0  0  0  0  0  0  0  0  0  0
  188.2540  177.6730  143.7670 C   0  0  0  0  0  0  0  0  0  0  0  0
  189.2250  177.4480  144.7490 C   0  0  0  0  0  3  0  0  0  0  0  0
  186.6000  178.0600  145.5350 C   0  0  0  0  0  0  0  0  0  0  0  0
  185.7410  178.4050  142.9080 Cl  0  0  0  0  0  0  0  0  0  0  0  0
  189.3440  177.3410  139.6300 C   0  0  0  0  0  0  0  0  0  0  0  0
  188.1330  178.4560  141.4050 C   0  0  0  0  0  3  0  0  0  0  0  0
  188.6580  177.5590  142.3490 C   0  0  0  0  0  0  0  0  0  0  0  0
  189.8700  176.4390  140.5640 C   0  0  0  0  0  3  0  0  0  0  0  0
  188.4770  178.3500  140.0560 C   0  0  0  0  0  3  0  0  0  0  0  0
  189.5300  176.5400  141.9150 C   0  0  0  0  0  0  0  0  0  0  0  0
  190.0720  175.6330  142.8190 O   0  0  0  0  0  1  0  0  0  0  0  0
  189.7040  177.2500  138.1780 C   0  0  2  0  0  3  0  0  0  0  0  0
  191.1150  176.9280  138.0210 N   0  0  0  0  0  2  0  0  0  0  0  0
  191.3220  174.5640  135.3180 O   0  0  0  0  0  0  0  0  0  0  0  0
  190.8550  174.1070  137.5460 N   0  0  0  0  0  1  0  0  0  0  0  0
  191.2750  176.4050  136.7310 N   0  0  0  0  0  2  0  0  0  0  0  0
  191.1580  175.0060  136.4850 C   0  0  0  0  0  0  0  0  0  0  0  0
  189.3790  178.5590  137.4690 C   0  0  0  0  0  2  0  0  0  0  0  0
  188.3090  178.3540  136.4100 C   0  0  0  0  0  2  0  0  0  0  0  0
  187.1910  179.1360  136.7030 O   0  0  0  0  0  1  0  0  0  0  0  0
  184.8450  177.8980  147.1510 O   0  0  0  0  0  0  0  0  0  0  0  0
  185.2430  178.3640  146.0480 C   0  0  0  0  0  0  0  0  0  0  0  0
  184.4060  179.2040  145.3070 O   0  0  0  0  0  0  0  0  0  0  0  0
  183.0440  178.8880  145.0480 C   0  0  0  0  0  2  0  0  0  0  0  0
  182.6400  179.4620  143.7750 N   0  0  0  0  0  2  0  0  0  0  0  0
  180.6100  179.9530  142.6370 N   0  0  0  0  0  2  0  0  0  0  0  0
  181.2950  178.9870  143.5080 C   0  0  1  0  0  3  0  0  0  0  0  0
  181.1520  178.7040  142.0850 C   0  0  0  0  0  2  0  0  0  0  0  0
  189.8950  177.3030  147.1130 N   0  0  0  0  0  2  0  0  0  0  0  0
  192.0660  176.9330  146.4680 O   0  0  0  0  0  0  0  0  0  0  0  0
  192.0610  176.6780  147.8280 N   0  0  0  0  0  2  0  0  0  0  0  0
  190.9610  176.3240  146.9670 C   0  0  1  0  0  3  0  0  0  0  0  0
  1  2  1  0  0  0  0
  1 32  1  0  0  0  0
  3  6  1  0  0  0  0
  4  3  2  0  0  0  0
  4  5  1  0  0  0  0
  5  1  2  0  0  0  0
  6 25  1  0  0  0  0
  6  2  2  0  0  0  0
  7  3  1  0  0  0  0
  8 12  2  0  0  0  0
  8 11  1  0  0  0  0
  9 10  2  0  0  0  0
 10  4  1  0  0  0  0
 11 13  2  0  0  0  0
 12  9  1  0  0  0  0
 13 10  1  0  0  0  0
 13 14  1  0  0  0  0
 15 21  1  6  0  0  0
 15  8  1  0  0  0  0
 16 15  1  0  0  0  0
 17 20  2  0  0  0  0
 19 16  1  0  0  0  0
 20 19  1  0  0  0  0
 20 18  1  0  0  0  0
 22 23  1  0  0  0  0
 22 21  1  0  0  0  0
 25 24  2  0  0  0  0
 26 25  1  0  0  0  0
 27 26  1  0  0  0  0
 28 27  1  0  0  0  0
 29 30  1  0  0  0  0
 30 28  1  6  0  0  0
 31 29  1  0  0  0  0
 31 30  1  0  0  0  0
 33 35  1  0  0  0  0
 33 34  1  0  0  0  0
 35 32  1  1  0  0  0
 35 34  1  0  0  0  0
M  END
>  <MODEL>
6

>  <REMARK>
 VINA RESULT:      -7.1      2.519      8.146
  Name = 
  13 active torsions:
  status: ('A' for Active; 'I' for Inactive)
    1  A    between atoms: C_2  and  C_19
    2  A    between atoms: N_3  and  C_7
    3  A    between atoms: N_3  and  C_33
    4  A    between atoms: N_4  and  C_19
    5  A    between atoms: N_4  and  N_25
    6  A    between atoms: C_6  and  C_11
    7  A    between atoms: N_9  and  C_17
    8  A    between atoms: N_9  and  C_29
    9  A    between atoms: C_17  and  O_20
   10  A    between atoms: C_18  and  C_31
   11  A    between atoms: C_19  and  C_31
   12  A    between atoms: O_20  and  C_24
   13  A    between atoms: C_24  and  C_26
                            x       y       z     vdW  Elec       q    Type
                         _______ _______ _______ _____ _____    ______ ____

>  <TORSDO>
F 13

$$$$
=
 OpenBabel11042410303D

 35 38  0  0  1  0  0  0  0  0999 V2000
  187.6630  177.3280  143.3400 C   0  0  0  0  0  0  0  0  0  0  0  0
  187.5650  177.5760  144.7060 C   0  0  0  0  0  3  0  0  0  0  0  0
  185.3360  178.5010  144.4100 C   0  0  0  0  0  0  0  0  0  0  0  0
  185.4310  178.2380  143.0210 C   0  0  0  0  0  0  0  0  0  0  0  0
  186.5940  177.6560  142.5060 C   0  0  0  0  0  3  0  0  0  0  0  0
  186.4170  178.1530  145.2640 C   0  0  0  0  0  0  0  0  0  0  0  0
  183.9170  179.3580  145.0320 Cl  0  0  0  0  0  0  0  0  0  0  0  0
  182.2150  179.0660  140.3020 C   0  0  0  0  0  0  0  0  0  0  0  0
  183.0020  178.3550  142.4790 C   0  0  0  0  0  3  0  0  0  0  0  0
  184.3330  178.5500  142.0800 C   0  0  0  0  0  0  0  0  0  0  0  0
  183.5410  179.2600  139.8940 C   0  0  0  0  0  3  0  0  0  0  0  0
  181.9500  178.6150  141.5980 C   0  0  0  0  0  3  0  0  0  0  0  0
  184.5970  179.0020  140.7710 C   0  0  0  0  0  0  0  0  0  0  0  0
  185.9020  179.2090  140.3380 O   0  0  0  0  0  1  0  0  0  0  0  0
  181.0700  179.3440  139.3760 C   0  0  2  0  0  3  0  0  0  0  0  0
  180.2240  178.1670  139.2450 N   0  0  0  0  0  2  0  0  0  0  0  0
  181.6530  175.1120  137.9940 O   0  0  0  0  0  0  0  0  0  0  0  0
  180.4560  175.3940  139.9630 N   0  0  0  0  0  1  0  0  0  0  0  0
  180.8980  177.2680  138.4080 N   0  0  0  0  0  2  0  0  0  0  0  0
  181.0280  175.8930  138.7580 C   0  0  0  0  0  0  0  0  0  0  0  0
  181.5870  179.7780  138.0110 C   0  0  0  0  0  2  0  0  0  0  0  0
  181.1750  181.2080  137.7010 C   0  0  0  0  0  2  0  0  0  0  0  0
  181.8970  182.0950  138.5000 O   0  0  0  0  0  1  0  0  0  0  0  0
  185.7830  179.3260  147.2490 O   0  0  0  0  0  0  0  0  0  0  0  0
  186.4140  178.3650  146.7310 C   0  0  0  0  0  0  0  0  0  0  0  0
  187.1010  177.4650  147.5510 O   0  0  0  0  0  0  0  0  0  0  0  0
  188.1360  177.8760  148.4350 C   0  0  0  0  0  2  0  0  0  0  0  0
  189.3660  178.0860  147.6890 N   0  0  0  0  0  2  0  0  0  0  0  0
  190.8020  176.9030  146.2080 N   0  0  0  0  0  2  0  0  0  0  0  0
  189.8780  176.7730  147.3440 C   0  0  1  0  0  3  0  0  0  0  0  0
  191.3180  176.7360  147.5730 C   0  0  0  0  0  2  0  0  0  0  0  0
  188.8550  176.7360  142.8210 N   0  0  0  0  0  2  0  0  0  0  0  0
  190.5910  178.2310  142.9580 O   0  0  0  0  0  0  0  0  0  0  0  0
  191.1730  177.0660  142.4900 N   0  0  0  0  0  2  0  0  0  0  0  0
  189.8580  177.4920  142.0860 C   0  0  1  0  0  3  0  0  0  0  0  0
  1  2  1  0  0  0  0
  2  6  2  0  0  0  0
  3  7  1  0  0  0  0
  3  6  1  0  0  0  0
  4  3  2  0  0  0  0
  5  4  1  0  0  0  0
  5  1  2  0  0  0  0
  6 25  1  0  0  0  0
  8 12  1  0  0  0  0
 10  9  1  0  0  0  0
 10  4  1  0  0  0  0
 11  8  2  0  0  0  0
 11 13  1  0  0  0  0
 12  9  2  0  0  0  0
 13 10  2  0  0  0  0
 14 13  1  0  0  0  0
 15 21  1  6  0  0  0
 15  8  1  0  0  0  0
 16 15  1  0  0  0  0
 17 20  2  0  0  0  0
 19 20  1  0  0  0  0
 19 16  1  0  0  0  0
 20 18  1  0  0  0  0
 22 21  1  0  0  0  0
 22 23  1  0  0  0  0
 25 24  2  0  0  0  0
 25 26  1  0  0  0  0
 26 27  1  0  0  0  0
 28 27  1  0  0  0  0
 29 30  1  0  0  0  0
 29 31  1  0  0  0  0
 30 31  1  0  0  0  0
 30 28  1  1  0  0  0
 32  1  1  0  0  0  0
 34 33  1  0  0  0  0
 35 34  1  0  0  0  0
 35 32  1  1  0  0  0
 35 33  1  0  0  0  0
M  END
>  <MODEL>
7

>  <REMARK>
 VINA RESULT:      -6.9      3.411      9.076
  Name = 
  13 active torsions:
  status: ('A' for Active; 'I' for Inactive)
    1  A    between atoms: C_2  and  C_19
    2  A    between atoms: N_3  and  C_7
    3  A    between atoms: N_3  and  C_33
    4  A    between atoms: N_4  and  C_19
    5  A    between atoms: N_4  and  N_25
    6  A    between atoms: C_6  and  C_11
    7  A    between atoms: N_9  and  C_17
    8  A    between atoms: N_9  and  C_29
    9  A    between atoms: C_17  and  O_20
   10  A    between atoms: C_18  and  C_31
   11  A    between atoms: C_19  and  C_31
   12  A    between atoms: O_20  and  C_24
   13  A    between atoms: C_24  and  C_26
                            x       y       z     vdW  Elec       q    Type
                         _______ _______ _______ _____ _____    ______ ____

>  <TORSDO>
F 13

$$$$
=
 OpenBabel11042410303D

 35 38  0  0  1  0  0  0  0  0999 V2000
  191.3720  176.8580  139.3910 C   0  0  0  0  0  0  0  0  0  0  0  0
  190.5810  177.4030  138.3830 C   0  0  0  0  0  3  0  0  0  0  0  0
  188.8680  177.9950  140.0040 C   0  0  0  0  0  0  0  0  0  0  0  0
  189.6780  177.4510  141.0320 C   0  0  0  0  0  0  0  0  0  0  0  0
  190.9180  176.8890  140.7100 C   0  0  0  0  0  3  0  0  0  0  0  0
  189.3350  177.9790  138.6630 C   0  0  0  0  0  0  0  0  0  0  0  0
  187.2460  178.5820  140.4030 Cl  0  0  0  0  0  0  0  0  0  0  0  0
  188.4020  177.5010  145.1300 C   0  0  0  0  0  0  0  0  0  0  0  0
  188.1060  176.7690  142.8400 C   0  0  0  0  0  3  0  0  0  0  0  0
  189.2650  177.4590  142.4520 C   0  0  0  0  0  0  0  0  0  0  0  0
  189.5580  178.1960  144.7510 C   0  0  0  0  0  3  0  0  0  0  0  0
  187.6800  176.7860  144.1700 C   0  0  0  0  0  3  0  0  0  0  0  0
  189.9890  178.1810  143.4220 C   0  0  0  0  0  0  0  0  0  0  0  0
  191.1430  178.8770  143.0780 O   0  0  0  0  0  1  0  0  0  0  0  0
  187.9290  177.5000  146.5510 C   0  0  2  0  0  3  0  0  0  0  0  0
  187.2160  178.7330  146.8520 N   0  0  0  0  0  2  0  0  0  0  0  0
  183.7500  178.6260  145.8930 O   0  0  0  0  0  0  0  0  0  0  0  0
  185.4790  179.7050  144.7800 N   0  0  0  0  0  1  0  0  0  0  0  0
  185.8500  178.4230  146.8640 N   0  0  0  0  0  2  0  0  0  0  0  0
  184.9760  178.9080  145.8470 C   0  0  0  0  0  0  0  0  0  0  0  0
  189.1070  177.3270  147.5010 C   0  0  0  0  0  2  0  0  0  0  0  0
  188.9770  178.2450  148.7050 C   0  0  0  0  0  2  0  0  0  0  0  0
  187.9030  177.8410  149.5000 O   0  0  0  0  0  1  0  0  0  0  0  0
  188.6510  179.7630  137.2250 O   0  0  0  0  0  0  0  0  0  0  0  0
  188.5790  178.5380  137.5170 C   0  0  0  0  0  0  0  0  0  0  0  0
  187.7970  177.6830  136.7330 O   0  0  0  0  0  0  0  0  0  0  0  0
  187.0560  176.6050  137.2890 C   0  0  0  0  0  2  0  0  0  0  0  0
  186.7080  175.6570  136.2420 N   0  0  0  0  0  2  0  0  0  0  0  0
  185.2430  173.7840  136.3070 N   0  0  0  0  0  2  0  0  0  0  0  0
  186.4480  174.3870  136.8940 C   0  0  1  0  0  3  0  0  0  0  0  0
  186.5780  173.3060  135.9240 C   0  0  0  0  0  2  0  0  0  0  0  0
  192.6360  176.2840  139.0540 N   0  0  0  0  0  2  0  0  0  0  0  0
  193.9410  176.8800  137.2630 O   0  0  0  0  0  0  0  0  0  0  0  0
  194.4250  175.6420  137.6470 N   0  0  0  0  0  2  0  0  0  0  0  0
  193.0240  175.9740  137.6870 C   0  0  1  0  0  3  0  0  0  0  0  0
  1  5  1  0  0  0  0
  2  6  1  0  0  0  0
  2  1  2  0  0  0  0
  3  7  1  0  0  0  0
  3  4  1  0  0  0  0
  4 10  1  0  0  0  0
  5  4  2  0  0  0  0
  6  3  2  0  0  0  0
  8 15  1  0  0  0  0
  9 12  1  0  0  0  0
 10  9  2  0  0  0  0
 10 13  1  0  0  0  0
 11  8  1  0  0  0  0
 12  8  2  0  0  0  0
 13 11  2  0  0  0  0
 14 13  1  0  0  0  0
 15 16  1  0  0  0  0
 15 21  1  1  0  0  0
 16 19  1  0  0  0  0
 18 20  1  0  0  0  0
 20 17  2  0  0  0  0
 20 19  1  0  0  0  0
 21 22  1  0  0  0  0
 22 23  1  0  0  0  0
 24 25  2  0  0  0  0
 25  6  1  0  0  0  0
 26 27  1  0  0  0  0
 26 25  1  0  0  0  0
 28 27  1  0  0  0  0
 29 30  1  0  0  0  0
 30 28  1  6  0  0  0
 31 29  1  0  0  0  0
 31 30  1  0  0  0  0
 32  1  1  0  0  0  0
 33 34  1  0  0  0  0
 33 35  1  0  0  0  0
 34 35  1  0  0  0  0
 35 32  1  1  0  0  0
M  END
>  <MODEL>
8

>  <REMARK>
 VINA RESULT:      -6.9      1.953      2.485
  Name = 
  13 active torsions:
  status: ('A' for Active; 'I' for Inactive)
    1  A    between atoms: C_2  and  C_19
    2  A    between atoms: N_3  and  C_7
    3  A    between atoms: N_3  and  C_33
    4  A    between atoms: N_4  and  C_19
    5  A    between atoms: N_4  and  N_25
    6  A    between atoms: C_6  and  C_11
    7  A    between atoms: N_9  and  C_17
    8  A    between atoms: N_9  and  C_29
    9  A    between atoms: C_17  and  O_20
   10  A    between atoms: C_18  and  C_31
   11  A    between atoms: C_19  and  C_31
   12  A    between atoms: O_20  and  C_24
   13  A    between atoms: C_24  and  C_26
                            x       y       z     vdW  Elec       q    Type
                         _______ _______ _______ _____ _____    ______ ____

>  <TORSDO>
F 13

$$$$
=
 OpenBabel11042410303D

 35 38  0  0  1  0  0  0  0  0999 V2000
  187.8230  177.5000  143.2730 C   0  0  0  0  0  0  0  0  0  0  0  0
  187.6680  177.6360  144.6490 C   0  0  0  0  0  3  0  0  0  0  0  0
  185.3870  178.4250  144.3460 C   0  0  0  0  0  0  0  0  0  0  0  0
  185.5410  178.2740  142.9450 C   0  0  0  0  0  0  0  0  0  0  0  0
  186.7570  177.8150  142.4290 C   0  0  0  0  0  3  0  0  0  0  0  0
  186.4650  178.0880  145.2080 C   0  0  0  0  0  0  0  0  0  0  0  0
  183.8930  179.1320  144.9790 Cl  0  0  0  0  0  0  0  0  0  0  0  0
  182.3480  179.0850  140.1950 C   0  0  0  0  0  0  0  0  0  0  0  0
  183.1160  178.4220  142.3930 C   0  0  0  0  0  3  0  0  0  0  0  0
  184.4520  178.5800  141.9930 C   0  0  0  0  0  0  0  0  0  0  0  0
  183.6780  179.2420  139.7840 C   0  0  0  0  0  3  0  0  0  0  0  0
  182.0710  178.6760  141.5020 C   0  0  0  0  0  3  0  0  0  0  0  0
  184.7270  178.9890  140.6720 C   0  0  0  0  0  0  0  0  0  0  0  0
  186.0370  179.1590  140.2370 O   0  0  0  0  0  1  0  0  0  0  0  0
  181.2110  179.3580  139.2580 C   0  0  2  0  0  3  0  0  0  0  0  0
  180.6890  180.7010  139.4680 N   0  0  0  0  0  2  0  0  0  0  0  0
  181.1740  183.3680  137.1040 O   0  0  0  0  0  0  0  0  0  0  0  0
  179.2850  182.9640  138.3900 N   0  0  0  0  0  1  0  0  0  0  0  0
  181.2970  181.5300  138.5170 N   0  0  0  0  0  2  0  0  0  0  0  0
  180.6080  182.6500  137.9680 C   0  0  0  0  0  0  0  0  0  0  0  0
  180.1070  178.3270  139.4500 C   0  0  0  0  0  2  0  0  0  0  0  0
  180.3230  177.1210  138.5510 C   0  0  0  0  0  2  0  0  0  0  0  0
  180.6470  176.0030  139.3200 O   0  0  0  0  0  1  0  0  0  0  0  0
  185.5910  178.9670  147.2530 O   0  0  0  0  0  0  0  0  0  0  0  0
  186.4050  178.1880  146.6860 C   0  0  0  0  0  0  0  0  0  0  0  0
  187.2470  177.3820  147.4580 O   0  0  0  0  0  0  0  0  0  0  0  0
  188.0890  177.9120  148.4730 C   0  0  0  0  0  2  0  0  0  0  0  0
  189.4330  178.0980  147.9490 N   0  0  0  0  0  2  0  0  0  0  0  0
  190.6830  177.1160  146.1810 N   0  0  0  0  0  2  0  0  0  0  0  0
  189.8250  176.8400  147.3420 C   0  0  1  0  0  3  0  0  0  0  0  0
  191.2700  176.6740  147.4530 C   0  0  0  0  0  2  0  0  0  0  0  0
  189.0680  177.0320  142.7530 N   0  0  0  0  0  2  0  0  0  0  0  0
  190.9480  177.4800  141.5140 O   0  0  0  0  0  0  0  0  0  0  0  0
  190.3760  176.3840  140.8910 N   0  0  0  0  0  2  0  0  0  0  0  0
  189.5920  177.4500  141.4610 C   0  0  1  0  0  3  0  0  0  0  0  0
  1  2  1  0  0  0  0
  2  6  2  0  0  0  0
  3  7  1  0  0  0  0
  3  6  1  0  0  0  0
  4  3  2  0  0  0  0
  5  4  1  0  0  0  0
  5  1  2  0  0  0  0
  6 25  1  0  0  0  0
  8 12  1  0  0  0  0
 10  9  1  0  0  0  0
 10  4  1  0  0  0  0
 11  8  2  0  0  0  0
 11 13  1  0  0  0  0
 12  9  2  0  0  0  0
 13 10  2  0  0  0  0
 14 13  1  0  0  0  0
 15 21  1  1  0  0  0
 15 16  1  0  0  0  0
 15  8  1  0  0  0  0
 17 20  2  0  0  0  0
 19 16  1  0  0  0  0
 20 18  1  0  0  0  0
 20 19  1  0  0  0  0
 22 23  1  0  0  0  0
 22 21  1  0  0  0  0
 25 24  2  0  0  0  0
 25 26  1  0  0  0  0
 26 27  1  0  0  0  0
 28 27  1  0  0  0  0
 29 30  1  0  0  0  0
 29 31  1  0  0  0  0
 30 31  1  0  0  0  0
 30 28  1  1  0  0  0
 32  1  1  0  0  0  0
 34 35  1  0  0  0  0
 34 33  1  0  0  0  0
 35 33  1  0  0  0  0
 35 32  1  1  0  0  0
M  END
>  <MODEL>
9

>  <REMARK>
 VINA RESULT:      -6.9      3.521      9.086
  Name = 
  13 active torsions:
  status: ('A' for Active; 'I' for Inactive)
    1  A    between atoms: C_2  and  C_19
    2  A    between atoms: N_3  and  C_7
    3  A    between atoms: N_3  and  C_33
    4  A    between atoms: N_4  and  C_19
    5  A    between atoms: N_4  and  N_25
    6  A    between atoms: C_6  and  C_11
    7  A    between atoms: N_9  and  C_17
    8  A    between atoms: N_9  and  C_29
    9  A    between atoms: C_17  and  O_20
   10  A    between atoms: C_18  and  C_31
   11  A    between atoms: C_19  and  C_31
   12  A    between atoms: O_20  and  C_24
   13  A    between atoms: C_24  and  C_26
                            x       y       z     vdW  Elec       q    Type
                         _______ _______ _______ _____ _____    ______ ____

>  <TORSDO>
F 13

$$$$
