=
 OpenBabel11042410283D

 35 39  0  0  1  0  0  0  0  0999 V2000
  181.0350  180.3960  138.0490 C   0  0  0  0  0  0  0  0  0  0  0  0
  181.8770  180.1460  139.1380 C   0  0  0  0  0  3  0  0  0  0  0  0
  180.1770  179.3850  137.6030 C   0  0  0  0  0  3  0  0  0  0  0  0
  180.9940  177.8930  139.3420 C   0  0  0  0  0  0  0  0  0  0  0  0
  181.8670  178.9080  139.7980 C   0  0  0  0  0  0  0  0  0  0  0  0
  180.1620  178.1430  138.2400 C   0  0  0  0  0  3  0  0  0  0  0  0
  179.4190  174.3370  138.9370 N   0  0  0  0  0  0  0  0  0  0  0  0
  179.6710  176.1440  140.5270 C   0  0  0  0  0  3  0  0  0  0  0  0
  178.9400  175.1410  140.0260 C   0  0  0  0  0  3  0  0  0  0  0  0
  181.0180  176.5190  139.9540 C   0  0  1  0  0  3  0  0  0  0  0  0
  180.6150  174.4730  138.4470 C   0  0  0  0  0  0  0  0  0  0  0  0
  181.5300  175.4940  138.9780 C   0  0  0  0  0  0  0  0  0  0  0  0
  181.0470  173.6670  137.3510 N   0  0  0  0  0  0  0  0  0  0  0  0
  183.3240  174.5600  137.6160 C   0  0  0  0  0  2  0  0  0  0  0  0
  182.7520  175.5470  138.5410 N   0  0  0  0  0  0  0  0  0  0  0  0
  182.2750  173.7170  136.9280 C   0  0  0  0  0  3  0  0  0  0  0  0
  182.2260  178.8810  142.2640 C   0  0  0  0  0  2  0  0  0  0  0  0
  184.4070  179.4140  143.3760 C   0  0  2  0  0  3  0  0  0  0  0  0
  185.1730  179.1000  141.1590 C   0  0  0  0  0  2  0  0  0  0  0  0
  182.7600  178.6990  140.9050 N   0  0  0  0  0  0  0  0  0  0  0  0
  184.0940  178.1520  140.6470 C   0  0  0  0  0  2  0  0  0  0  0  0
  183.1940  178.4970  143.3800 C   0  0  0  0  0  2  0  0  0  0  0  0
  185.4610  178.8260  142.5610 N   0  0  0  0  0  2  0  0  0  0  0  0
  184.9040  179.5770  144.8000 C   0  0  0  0  0  2  0  0  0  0  0  0
  185.2620  178.3080  145.3330 O   0  0  0  0  0  0  0  0  0  0  0  0
  187.8480  178.0900  147.9950 C   0  0  0  0  0  3  0  0  0  0  0  0
  186.4730  178.0810  145.9910 C   0  0  0  0  0  0  0  0  0  0  0  0
  188.7880  177.3590  145.8870 C   0  0  0  0  0  3  0  0  0  0  0  0
  188.9300  177.6050  147.2550 C   0  0  0  0  0  3  0  0  0  0  0  0
  187.5620  177.5970  145.2580 C   0  0  0  0  0  3  0  0  0  0  0  0
  186.6220  178.3270  147.3660 C   0  0  0  0  0  3  0  0  0  0  0  0
  180.5980  183.0960  135.3210 C   0  0  0  0  0  1  0  0  0  0  0  0
  180.5950  181.8260  136.0270 N   0  0  0  0  0  2  0  0  0  0  0  0
  181.0570  181.7060  137.3750 C   0  0  0  0  0  0  0  0  0  0  0  0
  181.4830  182.7240  137.9880 O   0  0  0  0  0  0  0  0  0  0  0  0
  1  2  1  0  0  0  0
  2  5  2  0  0  0  0
  3  1  2  0  0  0  0
  3  6  1  0  0  0  0
  4  5  1  0  0  0  0
  5 20  1  0  0  0  0
  6  4  2  0  0  0  0
  7  9  1  0  0  0  0
  9  8  2  0  0  0  0
 10  4  1  6  0  0  0
 10  8  1  0  0  0  0
 11  7  2  0  0  0  0
 11 12  1  0  0  0  0
 12 10  1  0  0  0  0
 13 11  1  0  0  0  0
 14 15  1  0  0  0  0
 15 12  2  0  0  0  0
 16 13  2  0  0  0  0
 16 14  1  0  0  0  0
 17 22  1  0  0  0  0
 18 22  1  0  0  0  0
 18 24  1  1  0  0  0
 19 23  1  0  0  0  0
 20 17  1  0  0  0  0
 21 20  1  0  0  0  0
 21 19  1  0  0  0  0
 23 18  1  0  0  0  0
 24 25  1  0  0  0  0
 25 27  1  0  0  0  0
 27 31  2  0  0  0  0
 28 29  1  0  0  0  0
 29 26  2  0  0  0  0
 30 28  2  0  0  0  0
 30 27  1  0  0  0  0
 31 26  1  0  0  0  0
 32 33  1  0  0  0  0
 33 34  1  0  0  0  0
 34 35  2  0  0  0  0
 34  1  1  0  0  0  0
M  END
>  <MODEL>
1

>  <REMARK>
 VINA RESULT:      -7.9      0.000      0.000
  Name = 
  6 active torsions:
  status: ('A' for Active; 'I' for Inactive)
    1  A    between atoms: C_3  and  O_24
    2  A    between atoms: C_6  and  C_21
    3  A    between atoms: C_10  and  C_18
    4  A    between atoms: C_12  and  C_23
    5  A    between atoms: N_14  and  C_26
    6  A    between atoms: C_18  and  O_24
                            x       y       z     vdW  Elec       q    Type
                         _______ _______ _______ _____ _____    ______ ____

>  <TORSDO>
F 6

$$$$
=
 OpenBabel11042410283D

 35 39  0  0  1  0  0  0  0  0999 V2000
  192.4270  175.9920  137.1340 C   0  0  0  0  0  0  0  0  0  0  0  0
  191.7950  176.5160  138.2680 C   0  0  0  0  0  3  0  0  0  0  0  0
  191.6830  175.8000  135.9650 C   0  0  0  0  0  3  0  0  0  0  0  0
  189.6930  176.6710  137.0600 C   0  0  0  0  0  0  0  0  0  0  0  0
  190.4370  176.8650  138.2490 C   0  0  0  0  0  0  0  0  0  0  0  0
  190.3270  176.1300  135.9310 C   0  0  0  0  0  3  0  0  0  0  0  0
  186.6570  176.7090  134.5970 N   0  0  0  0  0  0  0  0  0  0  0  0
  187.8860  178.1160  136.1360 C   0  0  0  0  0  3  0  0  0  0  0  0
  187.1790  177.9820  135.0070 C   0  0  0  0  0  3  0  0  0  0  0  0
  188.2130  176.9370  137.0210 C   0  0  1  0  0  3  0  0  0  0  0  0
  186.7560  175.6470  135.3390 C   0  0  0  0  0  0  0  0  0  0  0  0
  187.4450  175.7020  136.6370 C   0  0  0  0  0  0  0  0  0  0  0  0
  186.2410  174.3950  134.8870 N   0  0  0  0  0  0  0  0  0  0  0  0
  186.6910  173.4300  137.1040 C   0  0  0  0  0  2  0  0  0  0  0  0
  187.4460  174.6530  137.4050 N   0  0  0  0  0  0  0  0  0  0  0  0
  186.2340  173.3540  135.6650 C   0  0  0  0  0  3  0  0  0  0  0  0
  190.1670  176.7470  140.7230 C   0  0  0  0  0  2  0  0  0  0  0  0
  188.0830  177.4070  141.9470 C   0  0  2  0  0  3  0  0  0  0  0  0
  187.6330  178.4110  139.8510 C   0  0  0  0  0  2  0  0  0  0  0  0
  189.8330  177.3900  139.4430 N   0  0  0  0  0  0  0  0  0  0  0  0
  189.0590  178.6310  139.3600 C   0  0  0  0  0  2  0  0  0  0  0  0
  189.6020  177.4540  141.9520 C   0  0  0  0  0  2  0  0  0  0  0  0
  187.5600  178.6000  141.2930 N   0  0  0  0  0  2  0  0  0  0  0  0
  187.5870  177.3610  143.3790 C   0  0  0  0  0  2  0  0  0  0  0  0
  188.6930  177.3870  144.2730 O   0  0  0  0  0  0  0  0  0  0  0  0
  187.1950  178.0940  147.6020 C   0  0  0  0  0  3  0  0  0  0  0  0
  188.5450  177.5670  145.6510 C   0  0  0  0  0  0  0  0  0  0  0  0
  189.5420  177.5620  147.8630 C   0  0  0  0  0  3  0  0  0  0  0  0
  188.3120  177.9130  148.4230 C   0  0  0  0  0  3  0  0  0  0  0  0
  189.6580  177.3900  146.4800 C   0  0  0  0  0  3  0  0  0  0  0  0
  187.3100  177.9200  146.2190 C   0  0  0  0  0  3  0  0  0  0  0  0
  195.7020  174.1580  138.0490 C   0  0  0  0  0  1  0  0  0  0  0  0
  194.3020  174.5430  137.9770 N   0  0  0  0  0  2  0  0  0  0  0  0
  193.8570  175.6390  137.1740 C   0  0  0  0  0  0  0  0  0  0  0  0
  194.6910  176.3050  136.4990 O   0  0  0  0  0  0  0  0  0  0  0  0
  1 34  1  0  0  0  0
  1  2  1  0  0  0  0
  3  1  2  0  0  0  0
  4  5  1  0  0  0  0
  5  2  2  0  0  0  0
  5 20  1  0  0  0  0
  6  3  1  0  0  0  0
  6  4  2  0  0  0  0
  7  9  1  0  0  0  0
  7 11  2  0  0  0  0
  8 10  1  0  0  0  0
  9  8  2  0  0  0  0
 10  4  1  6  0  0  0
 11 12  1  0  0  0  0
 12 10  1  0  0  0  0
 12 15  2  0  0  0  0
 13 11  1  0  0  0  0
 13 16  2  0  0  0  0
 14 15  1  0  0  0  0
 16 14  1  0  0  0  0
 17 22  1  0  0  0  0
 18 22  1  0  0  0  0
 18 24  1  1  0  0  0
 19 23  1  0  0  0  0
 20 17  1  0  0  0  0
 21 20  1  0  0  0  0
 21 19  1  0  0  0  0
 23 18  1  0  0  0  0
 24 25  1  0  0  0  0
 25 27  1  0  0  0  0
 26 29  1  0  0  0  0
 27 31  1  0  0  0  0
 27 30  2  0  0  0  0
 28 29  2  0  0  0  0
 30 28  1  0  0  0  0
 31 26  2  0  0  0  0
 33 32  1  0  0  0  0
 34 33  1  0  0  0  0
 35 34  2  0  0  0  0
M  END
>  <MODEL>
2

>  <REMARK>
 VINA RESULT:      -7.8      5.963      8.360
  Name = 
  6 active torsions:
  status: ('A' for Active; 'I' for Inactive)
    1  A    between atoms: C_3  and  O_24
    2  A    between atoms: C_6  and  C_21
    3  A    between atoms: C_10  and  C_18
    4  A    between atoms: C_12  and  C_23
    5  A    between atoms: N_14  and  C_26
    6  A    between atoms: C_18  and  O_24
                            x       y       z     vdW  Elec       q    Type
                         _______ _______ _______ _____ _____    ______ ____

>  <TORSDO>
F 6

$$$$
=
 OpenBabel11042410283D

 35 39  0  0  1  0  0  0  0  0999 V2000
  181.2210  180.5230  137.3830 C   0  0  0  0  0  0  0  0  0  0  0  0
  181.9940  180.4510  138.5470 C   0  0  0  0  0  3  0  0  0  0  0  0
  180.8010  179.3380  136.7680 C   0  0  0  0  0  3  0  0  0  0  0  0
  181.9110  178.0240  138.4870 C   0  0  0  0  0  0  0  0  0  0  0  0
  182.3440  179.2170  139.1150 C   0  0  0  0  0  0  0  0  0  0  0  0
  181.1490  178.1010  137.3110 C   0  0  0  0  0  3  0  0  0  0  0  0
  181.5690  174.2040  137.7260 N   0  0  0  0  0  0  0  0  0  0  0  0
  181.1610  175.8520  139.4510 C   0  0  0  0  0  3  0  0  0  0  0  0
  180.8110  174.7190  138.8310 C   0  0  0  0  0  3  0  0  0  0  0  0
  182.3430  176.6780  139.0030 C   0  0  1  0  0  3  0  0  0  0  0  0
  182.6800  174.7510  137.3320 C   0  0  0  0  0  0  0  0  0  0  0  0
  183.1980  175.9560  137.9960 C   0  0  0  0  0  0  0  0  0  0  0  0
  183.3940  174.2210  136.2160 N   0  0  0  0  0  0  0  0  0  0  0  0
  185.2550  175.7540  136.7020 C   0  0  0  0  0  2  0  0  0  0  0  0
  184.3590  176.4270  137.6510 N   0  0  0  0  0  0  0  0  0  0  0  0
  184.5600  174.6890  135.8850 C   0  0  0  0  0  3  0  0  0  0  0  0
  184.6070  179.0910  140.1480 C   0  0  0  0  0  2  0  0  0  0  0  0
  185.0790  178.0730  142.3890 C   0  0  2  0  0  3  0  0  0  0  0  0
  182.7270  178.2860  142.5500 C   0  0  0  0  0  2  0  0  0  0  0  0
  183.1490  179.1980  140.3050 N   0  0  0  0  0  0  0  0  0  0  0  0
  182.5090  179.4560  141.5980 C   0  0  0  0  0  2  0  0  0  0  0  0
  185.3940  179.2250  141.4500 C   0  0  0  0  0  2  0  0  0  0  0  0
  183.9820  178.4490  143.2710 N   0  0  0  0  0  2  0  0  0  0  0  0
  186.3090  177.7640  143.2200 C   0  0  0  0  0  2  0  0  0  0  0  0
  186.0150  177.9390  144.6000 O   0  0  0  0  0  0  0  0  0  0  0  0
  189.2250  177.2460  146.3440 C   0  0  0  0  0  3  0  0  0  0  0  0
  186.9870  177.8320  145.5980 C   0  0  0  0  0  0  0  0  0  0  0  0
  187.6160  178.1300  147.9220 C   0  0  0  0  0  3  0  0  0  0  0  0
  188.8950  177.6420  147.6430 C   0  0  0  0  0  3  0  0  0  0  0  0
  186.6650  178.2250  146.9020 C   0  0  0  0  0  3  0  0  0  0  0  0
  188.2740  177.3420  145.3230 C   0  0  0  0  0  3  0  0  0  0  0  0
  180.8800  184.3480  136.9640 C   0  0  0  0  0  1  0  0  0  0  0  0
  181.2150  183.0360  137.4900 N   0  0  0  0  0  2  0  0  0  0  0  0
  180.8590  181.8300  136.8080 C   0  0  0  0  0  0  0  0  0  0  0  0
  180.2340  181.8880  135.7130 O   0  0  0  0  0  0  0  0  0  0  0  0
  1  2  1  0  0  0  0
  2  5  2  0  0  0  0
  3  6  1  0  0  0  0
  3  1  2  0  0  0  0
  4  5  1  0  0  0  0
  5 20  1  0  0  0  0
  6  4  2  0  0  0  0
  7  9  1  0  0  0  0
  9  8  2  0  0  0  0
 10  4  1  6  0  0  0
 10  8  1  0  0  0  0
 11  7  2  0  0  0  0
 11 12  1  0  0  0  0
 12 10  1  0  0  0  0
 13 11  1  0  0  0  0
 14 15  1  0  0  0  0
 15 12  2  0  0  0  0
 16 13  2  0  0  0  0
 16 14  1  0  0  0  0
 17 20  1  0  0  0  0
 17 22  1  0  0  0  0
 18 24  1  1  0  0  0
 18 23  1  0  0  0  0
 19 23  1  0  0  0  0
 20 21  1  0  0  0  0
 21 19  1  0  0  0  0
 22 18  1  0  0  0  0
 24 25  1  0  0  0  0
 25 27  1  0  0  0  0
 26 29  1  0  0  0  0
 27 30  2  0  0  0  0
 29 28  2  0  0  0  0
 30 28  1  0  0  0  0
 31 27  1  0  0  0  0
 31 26  2  0  0  0  0
 32 33  1  0  0  0  0
 34  1  1  0  0  0  0
 34 33  1  0  0  0  0
 35 34  2  0  0  0  0
M  END
>  <MODEL>
3

>  <REMARK>
 VINA RESULT:      -7.2      1.398      2.046
  Name = 
  6 active torsions:
  status: ('A' for Active; 'I' for Inactive)
    1  A    between atoms: C_3  and  O_24
    2  A    between atoms: C_6  and  C_21
    3  A    between atoms: C_10  and  C_18
    4  A    between atoms: C_12  and  C_23
    5  A    between atoms: N_14  and  C_26
    6  A    between atoms: C_18  and  O_24
                            x       y       z     vdW  Elec       q    Type
                         _______ _______ _______ _____ _____    ______ ____

>  <TORSDO>
F 6

$$$$
=
 OpenBabel11042410283D

 35 39  0  0  1  0  0  0  0  0999 V2000
  180.3690  179.5050  136.6020 C   0  0  0  0  0  0  0  0  0  0  0  0
  181.4640  179.3780  137.4640 C   0  0  0  0  0  3  0  0  0  0  0  0
  179.4800  178.4340  136.4650 C   0  0  0  0  0  3  0  0  0  0  0  0
  180.7710  177.1270  138.0590 C   0  0  0  0  0  0  0  0  0  0  0  0
  181.6780  178.2040  138.2020 C   0  0  0  0  0  0  0  0  0  0  0  0
  179.6820  177.2540  137.1820 C   0  0  0  0  0  3  0  0  0  0  0  0
  179.3570  173.4900  138.3010 N   0  0  0  0  0  0  0  0  0  0  0  0
  179.8540  175.4390  139.6470 C   0  0  0  0  0  3  0  0  0  0  0  0
  179.0900  174.3680  139.4060 C   0  0  0  0  0  3  0  0  0  0  0  0
  181.0130  175.8140  138.7530 C   0  0  1  0  0  3  0  0  0  0  0  0
  180.4000  173.6290  137.5400 C   0  0  0  0  0  0  0  0  0  0  0  0
  181.3500  174.7290  137.7670 C   0  0  0  0  0  0  0  0  0  0  0  0
  180.6200  172.7480  136.4390 N   0  0  0  0  0  0  0  0  0  0  0  0
  182.8410  173.7490  136.1040 C   0  0  0  0  0  2  0  0  0  0  0  0
  182.4370  174.7910  137.0570 N   0  0  0  0  0  0  0  0  0  0  0  0
  181.7150  172.8080  135.7420 C   0  0  0  0  0  3  0  0  0  0  0  0
  182.6030  178.2340  140.5150 C   0  0  0  0  0  2  0  0  0  0  0  0
  184.8940  179.0580  141.1060 C   0  0  2  0  0  3  0  0  0  0  0  0
  185.1550  178.8400  138.7630 C   0  0  0  0  0  2  0  0  0  0  0  0
  182.8240  178.1200  139.0650 N   0  0  0  0  0  0  0  0  0  0  0  0
  184.1210  177.7550  138.4890 C   0  0  0  0  0  2  0  0  0  0  0  0
  183.8470  177.9880  141.3650 C   0  0  0  0  0  2  0  0  0  0  0  0
  185.7960  178.6130  140.0510 N   0  0  0  0  0  2  0  0  0  0  0  0
  185.6850  179.2910  142.3780 C   0  0  0  0  0  2  0  0  0  0  0  0
  186.2950  178.0760  142.7960 O   0  0  0  0  0  0  0  0  0  0  0  0
  188.5530  177.2150  145.6220 C   0  0  0  0  0  3  0  0  0  0  0  0
  186.7900  177.8870  144.0890 C   0  0  0  0  0  0  0  0  0  0  0  0
  186.4380  178.0160  146.4860 C   0  0  0  0  0  3  0  0  0  0  0  0
  187.7280  177.5270  146.7060 C   0  0  0  0  0  3  0  0  0  0  0  0
  185.9710  178.1950  145.1800 C   0  0  0  0  0  3  0  0  0  0  0  0
  188.0870  177.3950  144.3160 C   0  0  0  0  0  3  0  0  0  0  0  0
  180.5130  183.2380  135.6160 C   0  0  0  0  0  1  0  0  0  0  0  0
  180.6940  181.9840  136.3290 N   0  0  0  0  0  2  0  0  0  0  0  0
  180.1590  180.7510  135.8430 C   0  0  0  0  0  0  0  0  0  0  0  0
  179.5070  180.7290  134.7620 O   0  0  0  0  0  0  0  0  0  0  0  0
  1  2  1  0  0  0  0
  2  5  2  0  0  0  0
  3  1  2  0  0  0  0
  3  6  1  0  0  0  0
  4  5  1  0  0  0  0
  5 20  1  0  0  0  0
  6  4  2  0  0  0  0
  7  9  1  0  0  0  0
  9  8  2  0  0  0  0
 10  4  1  6  0  0  0
 10  8  1  0  0  0  0
 11 12  1  0  0  0  0
 11  7  2  0  0  0  0
 12 10  1  0  0  0  0
 13 11  1  0  0  0  0
 14 15  1  0  0  0  0
 15 12  2  0  0  0  0
 16 14  1  0  0  0  0
 16 13  2  0  0  0  0
 17 22  1  0  0  0  0
 18 22  1  0  0  0  0
 18 24  1  1  0  0  0
 19 23  1  0  0  0  0
 20 17  1  0  0  0  0
 21 19  1  0  0  0  0
 21 20  1  0  0  0  0
 23 18  1  0  0  0  0
 24 25  1  0  0  0  0
 25 27  1  0  0  0  0
 26 29  1  0  0  0  0
 27 31  1  0  0  0  0
 27 30  2  0  0  0  0
 28 29  2  0  0  0  0
 30 28  1  0  0  0  0
 31 26  2  0  0  0  0
 32 33  1  0  0  0  0
 34 33  1  0  0  0  0
 34  1  1  0  0  0  0
 35 34  2  0  0  0  0
M  END
>  <MODEL>
4

>  <REMARK>
 VINA RESULT:      -6.9      1.588      2.013
  Name = 
  6 active torsions:
  status: ('A' for Active; 'I' for Inactive)
    1  A    between atoms: C_3  and  O_24
    2  A    between atoms: C_6  and  C_21
    3  A    between atoms: C_10  and  C_18
    4  A    between atoms: C_12  and  C_23
    5  A    between atoms: N_14  and  C_26
    6  A    between atoms: C_18  and  O_24
                            x       y       z     vdW  Elec       q    Type
                         _______ _______ _______ _____ _____    ______ ____

>  <TORSDO>
F 6

$$$$
=
 OpenBabel11042410283D

 35 39  0  0  1  0  0  0  0  0999 V2000
  184.3510  178.7040  143.6560 C   0  0  0  0  0  0  0  0  0  0  0  0
  185.4710  178.6300  142.8200 C   0  0  0  0  0  3  0  0  0  0  0  0
  183.0720  178.6420  143.0910 C   0  0  0  0  0  3  0  0  0  0  0  0
  184.0380  178.4150  140.8710 C   0  0  0  0  0  0  0  0  0  0  0  0
  185.3350  178.4810  141.4320 C   0  0  0  0  0  0  0  0  0  0  0  0
  182.9180  178.5050  141.7110 C   0  0  0  0  0  3  0  0  0  0  0  0
  181.2800  177.7800  138.1730 N   0  0  0  0  0  0  0  0  0  0  0  0
  183.4310  176.9720  138.9320 C   0  0  0  0  0  3  0  0  0  0  0  0
  182.2310  176.7270  138.3920 C   0  0  0  0  0  3  0  0  0  0  0  0
  183.8420  178.3540  139.3800 C   0  0  1  0  0  3  0  0  0  0  0  0
  181.5640  179.0290  138.3920 C   0  0  0  0  0  0  0  0  0  0  0  0
  182.8840  179.4160  138.9110 C   0  0  0  0  0  0  0  0  0  0  0  0
  180.5840  180.0440  138.1800 N   0  0  0  0  0  0  0  0  0  0  0  0
  182.3050  181.7590  138.5610 C   0  0  0  0  0  2  0  0  0  0  0  0
  183.1800  180.6760  139.0300 N   0  0  0  0  0  0  0  0  0  0  0  0
  180.8910  181.3020  138.2880 C   0  0  0  0  0  3  0  0  0  0  0  0
  186.3450  178.2520  139.1650 C   0  0  0  0  0  2  0  0  0  0  0  0
  188.5750  177.2020  138.7160 C   0  0  2  0  0  3  0  0  0  0  0  0
  188.7620  177.5160  141.0550 C   0  0  0  0  0  2  0  0  0  0  0  0
  186.5170  178.4200  140.6170 N   0  0  0  0  0  0  0  0  0  0  0  0
  187.8180  178.6990  141.2310 C   0  0  0  0  0  2  0  0  0  0  0  0
  187.6390  178.3450  138.3610 C   0  0  0  0  0  2  0  0  0  0  0  0
  189.4710  177.6200  139.7870 N   0  0  0  0  0  2  0  0  0  0  0  0
  189.3920  176.8360  137.4920 C   0  0  0  0  0  2  0  0  0  0  0  0
  188.5520  176.2330  136.5150 O   0  0  0  0  0  0  0  0  0  0  0  0
  185.7910  173.8200  137.1320 C   0  0  0  0  0  3  0  0  0  0  0  0
  187.8560  175.0450  136.7490 C   0  0  0  0  0  0  0  0  0  0  0  0
  187.9040  172.6400  137.0720 C   0  0  0  0  0  3  0  0  0  0  0  0
  186.5150  172.6280  137.2180 C   0  0  0  0  0  3  0  0  0  0  0  0
  188.5720  173.8460  136.8380 C   0  0  0  0  0  3  0  0  0  0  0  0
  186.4590  175.0260  136.8980 C   0  0  0  0  0  3  0  0  0  0  0  0
  186.0380  178.9720  147.1210 C   0  0  0  0  0  1  0  0  0  0  0  0
  185.8240  178.8300  145.6900 N   0  0  0  0  0  2  0  0  0  0  0  0
  184.5160  178.8540  145.1130 C   0  0  0  0  0  0  0  0  0  0  0  0
  183.5040  179.0030  145.8510 O   0  0  0  0  0  0  0  0  0  0  0  0
  1 34  1  0  0  0  0
  2  1  2  0  0  0  0
  3  1  1  0  0  0  0
  4  5  2  0  0  0  0
  4  6  1  0  0  0  0
  5  2  1  0  0  0  0
  6  3  2  0  0  0  0
  7  9  1  0  0  0  0
  7 11  2  0  0  0  0
  8 10  1  0  0  0  0
  9  8  2  0  0  0  0
 10  4  1  1  0  0  0
 11 12  1  0  0  0  0
 12 15  2  0  0  0  0
 12 10  1  0  0  0  0
 13 16  2  0  0  0  0
 13 11  1  0  0  0  0
 14 15  1  0  0  0  0
 16 14  1  0  0  0  0
 17 20  1  0  0  0  0
 18 24  1  6  0  0  0
 18 23  1  0  0  0  0
 19 21  1  0  0  0  0
 20 21  1  0  0  0  0
 20  5  1  0  0  0  0
 22 18  1  0  0  0  0
 22 17  1  0  0  0  0
 23 19  1  0  0  0  0
 25 27  1  0  0  0  0
 25 24  1  0  0  0  0
 26 29  1  0  0  0  0
 27 30  2  0  0  0  0
 27 31  1  0  0  0  0
 28 29  2  0  0  0  0
 30 28  1  0  0  0  0
 31 26  2  0  0  0  0
 33 32  1  0  0  0  0
 34 33  1  0  0  0  0
 34 35  2  0  0  0  0
M  END
>  <MODEL>
5

>  <REMARK>
 VINA RESULT:      -6.5      3.334      7.470
  Name = 
  6 active torsions:
  status: ('A' for Active; 'I' for Inactive)
    1  A    between atoms: C_3  and  O_24
    2  A    between atoms: C_6  and  C_21
    3  A    between atoms: C_10  and  C_18
    4  A    between atoms: C_12  and  C_23
    5  A    between atoms: N_14  and  C_26
    6  A    between atoms: C_18  and  O_24
                            x       y       z     vdW  Elec       q    Type
                         _______ _______ _______ _____ _____    ______ ____

>  <TORSDO>
F 6

$$$$
=
 OpenBabel11042410283D

 35 39  0  0  1  0  0  0  0  0999 V2000
  185.5080  178.1350  138.4020 C   0  0  0  0  0  0  0  0  0  0  0  0
  185.3260  178.4530  139.7530 C   0  0  0  0  0  3  0  0  0  0  0  0
  184.3910  178.0430  137.5660 C   0  0  0  0  0  3  0  0  0  0  0  0
  182.9240  178.6010  139.4230 C   0  0  0  0  0  0  0  0  0  0  0  0
  184.0480  178.6930  140.2790 C   0  0  0  0  0  0  0  0  0  0  0  0
  183.1110  178.2680  138.0730 C   0  0  0  0  0  3  0  0  0  0  0  0
  179.1960  178.7530  138.2550 N   0  0  0  0  0  0  0  0  0  0  0  0
  180.8740  180.0180  139.4560 C   0  0  0  0  0  3  0  0  0  0  0  0
  179.8050  179.9920  138.6510 C   0  0  0  0  0  3  0  0  0  0  0  0
  181.5270  178.7540  139.9620 C   0  0  1  0  0  3  0  0  0  0  0  0
  179.5820  177.6070  138.7290 C   0  0  0  0  0  0  0  0  0  0  0  0
  180.6980  177.5290  139.6840 C   0  0  0  0  0  0  0  0  0  0  0  0
  178.9630  176.3960  138.2960 N   0  0  0  0  0  0  0  0  0  0  0  0
  180.2150  175.1620  140.0160 C   0  0  0  0  0  2  0  0  0  0  0  0
  181.0020  176.3850  140.2190 N   0  0  0  0  0  0  0  0  0  0  0  0
  179.2640  175.2570  138.8450 C   0  0  0  0  0  3  0  0  0  0  0  0
  185.1420  179.1270  142.4750 C   0  0  0  0  0  2  0  0  0  0  0  0
  184.1150  178.5800  144.6930 C   0  0  2  0  0  3  0  0  0  0  0  0
  182.1910  178.4080  143.3260 C   0  0  0  0  0  2  0  0  0  0  0  0
  183.9130  179.0050  141.6750 N   0  0  0  0  0  0  0  0  0  0  0  0
  182.5910  179.3550  142.2000 C   0  0  0  0  0  2  0  0  0  0  0  0
  184.9190  179.6030  143.9080 C   0  0  0  0  0  2  0  0  0  0  0  0
  182.6970  178.8990  144.6010 N   0  0  0  0  0  2  0  0  0  0  0  0
  184.5470  178.6260  146.1460 C   0  0  0  0  0  2  0  0  0  0  0  0
  185.8220  179.2470  146.2510 O   0  0  0  0  0  0  0  0  0  0  0  0
  188.9030  177.1760  146.0270 C   0  0  0  0  0  3  0  0  0  0  0  0
  186.9770  178.5430  146.6030 C   0  0  0  0  0  0  0  0  0  0  0  0
  188.5170  177.8120  148.3300 C   0  0  0  0  0  3  0  0  0  0  0  0
  189.2840  177.1470  147.3710 C   0  0  0  0  0  3  0  0  0  0  0  0
  187.3660  178.5080  147.9460 C   0  0  0  0  0  3  0  0  0  0  0  0
  187.7530  177.8720  145.6420 C   0  0  0  0  0  3  0  0  0  0  0  0
  189.0680  178.8090  137.0620 C   0  0  0  0  0  1  0  0  0  0  0  0
  187.7270  178.9970  137.5890 N   0  0  0  0  0  2  0  0  0  0  0  0
  186.8610  177.8940  137.8700 C   0  0  0  0  0  0  0  0  0  0  0  0
  187.2560  176.7140  137.6610 O   0  0  0  0  0  0  0  0  0  0  0  0
  1  2  1  0  0  0  0
  2  5  2  0  0  0  0
  3  6  1  0  0  0  0
  3  1  2  0  0  0  0
  4  5  1  0  0  0  0
  5 20  1  0  0  0  0
  6  4  2  0  0  0  0
  7  9  1  0  0  0  0
  7 11  2  0  0  0  0
  8 10  1  0  0  0  0
  9  8  2  0  0  0  0
 10  4  1  6  0  0  0
 11 12  1  0  0  0  0
 12 10  1  0  0  0  0
 12 15  2  0  0  0  0
 13 11  1  0  0  0  0
 13 16  2  0  0  0  0
 14 15  1  0  0  0  0
 16 14  1  0  0  0  0
 17 22  1  0  0  0  0
 18 24  1  1  0  0  0
 19 23  1  0  0  0  0
 20 21  1  0  0  0  0
 20 17  1  0  0  0  0
 21 19  1  0  0  0  0
 22 18  1  0  0  0  0
 23 18  1  0  0  0  0
 24 25  1  0  0  0  0
 25 27  1  0  0  0  0
 26 29  1  0  0  0  0
 27 30  2  0  0  0  0
 29 28  2  0  0  0  0
 30 28  1  0  0  0  0
 31 26  2  0  0  0  0
 31 27  1  0  0  0  0
 32 33  1  0  0  0  0
 33 34  1  0  0  0  0
 34  1  1  0  0  0  0
 35 34  2  0  0  0  0
M  END
>  <MODEL>
6

>  <REMARK>
 VINA RESULT:      -6.4      2.560      4.022
  Name = 
  6 active torsions:
  status: ('A' for Active; 'I' for Inactive)
    1  A    between atoms: C_3  and  O_24
    2  A    between atoms: C_6  and  C_21
    3  A    between atoms: C_10  and  C_18
    4  A    between atoms: C_12  and  C_23
    5  A    between atoms: N_14  and  C_26
    6  A    between atoms: C_18  and  O_24
                            x       y       z     vdW  Elec       q    Type
                         _______ _______ _______ _____ _____    ______ ____

>  <TORSDO>
F 6

$$$$
=
 OpenBabel11042410283D

 35 39  0  0  1  0  0  0  0  0999 V2000
  184.2880  178.7170  143.6380 C   0  0  0  0  0  0  0  0  0  0  0  0
  185.4000  178.6390  142.7910 C   0  0  0  0  0  3  0  0  0  0  0  0
  183.0040  178.6590  143.0860 C   0  0  0  0  0  3  0  0  0  0  0  0
  183.9460  178.4300  140.8560 C   0  0  0  0  0  0  0  0  0  0  0  0
  185.2490  178.4910  141.4040 C   0  0  0  0  0  0  0  0  0  0  0  0
  182.8350  178.5240  141.7080 C   0  0  0  0  0  3  0  0  0  0  0  0
  181.1440  177.8780  138.1850 N   0  0  0  0  0  0  0  0  0  0  0  0
  183.2740  177.0020  138.9270 C   0  0  0  0  0  3  0  0  0  0  0  0
  182.0620  176.7950  138.4000 C   0  0  0  0  0  3  0  0  0  0  0  0
  183.7340  178.3710  139.3670 C   0  0  1  0  0  3  0  0  0  0  0  0
  181.4710  179.1180  138.3970 C   0  0  0  0  0  0  0  0  0  0  0  0
  182.8080  179.4630  138.9030 C   0  0  0  0  0  0  0  0  0  0  0  0
  180.5240  180.1650  138.1910 N   0  0  0  0  0  0  0  0  0  0  0  0
  182.3050  181.8230  138.5500 C   0  0  0  0  0  2  0  0  0  0  0  0
  183.1470  180.7120  139.0150 N   0  0  0  0  0  0  0  0  0  0  0  0
  180.8730  181.4120  138.2920 C   0  0  0  0  0  3  0  0  0  0  0  0
  186.2350  178.2530  139.1280 C   0  0  0  0  0  2  0  0  0  0  0  0
  188.4610  177.2010  138.6590 C   0  0  2  0  0  3  0  0  0  0  0  0
  188.6720  177.5240  140.9950 C   0  0  0  0  0  2  0  0  0  0  0  0
  186.4230  178.4270  140.5760 N   0  0  0  0  0  0  0  0  0  0  0  0
  187.7300  178.7090  141.1760 C   0  0  0  0  0  2  0  0  0  0  0  0
  187.5210  178.3430  138.3090 C   0  0  0  0  0  2  0  0  0  0  0  0
  189.3680  177.6240  139.7190 N   0  0  0  0  0  2  0  0  0  0  0  0
  189.2640  176.8300  137.4280 C   0  0  0  0  0  2  0  0  0  0  0  0
  189.8590  175.5510  137.6080 O   0  0  0  0  0  0  0  0  0  0  0  0
  193.5120  176.1490  137.9660 C   0  0  0  0  0  3  0  0  0  0  0  0
  191.2420  175.3550  137.6050 C   0  0  0  0  0  0  0  0  0  0  0  0
  193.1290  173.8830  137.2050 C   0  0  0  0  0  3  0  0  0  0  0  0
  194.0090  174.9010  137.5790 C   0  0  0  0  0  3  0  0  0  0  0  0
  191.7490  174.1100  137.2180 C   0  0  0  0  0  3  0  0  0  0  0  0
  192.1320  176.3760  137.9800 C   0  0  0  0  0  3  0  0  0  0  0  0
  186.0130  178.9920  147.0840 C   0  0  0  0  0  1  0  0  0  0  0  0
  185.7840  178.8510  145.6560 N   0  0  0  0  0  2  0  0  0  0  0  0
  184.4690  178.8640  145.0930 C   0  0  0  0  0  0  0  0  0  0  0  0
  183.4640  179.0030  145.8430 O   0  0  0  0  0  0  0  0  0  0  0  0
  1 34  1  0  0  0  0
  2  1  2  0  0  0  0
  3  1  1  0  0  0  0
  4  5  2  0  0  0  0
  4  6  1  0  0  0  0
  5  2  1  0  0  0  0
  6  3  2  0  0  0  0
  7 11  2  0  0  0  0
  7  9  1  0  0  0  0
  8 10  1  0  0  0  0
  9  8  2  0  0  0  0
 10  4  1  1  0  0  0
 11 12  1  0  0  0  0
 12 15  2  0  0  0  0
 12 10  1  0  0  0  0
 13 16  2  0  0  0  0
 13 11  1  0  0  0  0
 14 15  1  0  0  0  0
 16 14  1  0  0  0  0
 17 20  1  0  0  0  0
 18 24  1  6  0  0  0
 18 23  1  0  0  0  0
 19 21  1  0  0  0  0
 20 21  1  0  0  0  0
 20  5  1  0  0  0  0
 22 18  1  0  0  0  0
 22 17  1  0  0  0  0
 23 19  1  0  0  0  0
 24 25  1  0  0  0  0
 26 31  1  0  0  0  0
 27 25  1  0  0  0  0
 27 31  2  0  0  0  0
 28 30  2  0  0  0  0
 28 29  1  0  0  0  0
 29 26  2  0  0  0  0
 30 27  1  0  0  0  0
 33 32  1  0  0  0  0
 34 33  1  0  0  0  0
 34 35  2  0  0  0  0
M  END
>  <MODEL>
7

>  <REMARK>
 VINA RESULT:      -6.3      4.664      7.467
  Name = 
  6 active torsions:
  status: ('A' for Active; 'I' for Inactive)
    1  A    between atoms: C_3  and  O_24
    2  A    between atoms: C_6  and  C_21
    3  A    between atoms: C_10  and  C_18
    4  A    between atoms: C_12  and  C_23
    5  A    between atoms: N_14  and  C_26
    6  A    between atoms: C_18  and  O_24
                            x       y       z     vdW  Elec       q    Type
                         _______ _______ _______ _____ _____    ______ ____

>  <TORSDO>
F 6

$$$$
=
 OpenBabel11042410283D

 35 39  0  0  1  0  0  0  0  0999 V2000
  186.1150  178.3810  142.4120 C   0  0  0  0  0  0  0  0  0  0  0  0
  184.8480  178.5870  141.8520 C   0  0  0  0  0  3  0  0  0  0  0  0
  187.2140  178.2030  141.5660 C   0  0  0  0  0  3  0  0  0  0  0  0
  185.7840  178.4520  139.6140 C   0  0  0  0  0  0  0  0  0  0  0  0
  184.6650  178.6310  140.4610 C   0  0  0  0  0  0  0  0  0  0  0  0
  187.0500  178.2320  140.1800 C   0  0  0  0  0  3  0  0  0  0  0  0
  187.4010  176.8760  136.4220 N   0  0  0  0  0  0  0  0  0  0  0  0
  186.8060  179.0040  137.4090 C   0  0  0  0  0  3  0  0  0  0  0  0
  187.6280  178.2760  136.6430 C   0  0  0  0  0  3  0  0  0  0  0  0
  185.6220  178.3930  138.1190 C   0  0  1  0  0  3  0  0  0  0  0  0
  186.3450  176.2640  136.8690 C   0  0  0  0  0  0  0  0  0  0  0  0
  185.3370  176.9900  137.6560 C   0  0  0  0  0  0  0  0  0  0  0  0
  186.1660  174.8660  136.6450 N   0  0  0  0  0  0  0  0  0  0  0  0
  183.8890  175.0300  137.5620 C   0  0  0  0  0  2  0  0  0  0  0  0
  184.2430  176.3840  138.0080 N   0  0  0  0  0  0  0  0  0  0  0  0
  185.0630  174.2700  136.9880 C   0  0  0  0  0  3  0  0  0  0  0  0
  183.1390  179.9410  138.9900 C   0  0  0  0  0  2  0  0  0  0  0  0
  180.6960  180.2750  139.4350 C   0  0  2  0  0  3  0  0  0  0  0  0
  181.1190  178.4890  140.9300 C   0  0  0  0  0  2  0  0  0  0  0  0
  183.3420  178.8330  139.9370 N   0  0  0  0  0  0  0  0  0  0  0  0
  182.3050  177.8400  140.2260 C   0  0  0  0  0  2  0  0  0  0  0  0
  181.7450  179.9950  138.3710 C   0  0  0  0  0  2  0  0  0  0  0  0
  180.1770  179.0150  139.9510 N   0  0  0  0  0  2  0  0  0  0  0  0
  179.5640  181.0680  138.8120 C   0  0  0  0  0  2  0  0  0  0  0  0
  179.9080  182.4470  138.7690 O   0  0  0  0  0  0  0  0  0  0  0  0
  181.1450  185.0020  136.3670 C   0  0  0  0  0  3  0  0  0  0  0  0
  180.2150  183.1110  137.5780 C   0  0  0  0  0  0  0  0  0  0  0  0
  180.1700  183.1480  135.1520 C   0  0  0  0  0  3  0  0  0  0  0  0
  180.8040  184.3930  135.1550 C   0  0  0  0  0  3  0  0  0  0  0  0
  179.8770  182.5100  136.3610 C   0  0  0  0  0  3  0  0  0  0  0  0
  180.8520  184.3630  137.5750 C   0  0  0  0  0  3  0  0  0  0  0  0
  185.3840  178.8520  146.1760 C   0  0  0  0  0  1  0  0  0  0  0  0
  185.2600  178.8630  144.7280 N   0  0  0  0  0  2  0  0  0  0  0  0
  186.2860  178.3470  143.8750 C   0  0  0  0  0  0  0  0  0  0  0  0
  187.3370  177.8610  144.3760 O   0  0  0  0  0  0  0  0  0  0  0  0
  1 34  1  0  0  0  0
  2  1  1  0  0  0  0
  3  1  2  0  0  0  0
  4  6  2  0  0  0  0
  4  5  1  0  0  0  0
  5  2  2  0  0  0  0
  6  3  1  0  0  0  0
  7  9  1  0  0  0  0
  7 11  2  0  0  0  0
  8 10  1  0  0  0  0
  9  8  2  0  0  0  0
 10  4  1  1  0  0  0
 11 12  1  0  0  0  0
 12 15  2  0  0  0  0
 12 10  1  0  0  0  0
 13 11  1  0  0  0  0
 13 16  2  0  0  0  0
 14 15  1  0  0  0  0
 16 14  1  0  0  0  0
 17 20  1  0  0  0  0
 18 24  1  6  0  0  0
 18 23  1  0  0  0  0
 20 21  1  0  0  0  0
 20  5  1  0  0  0  0
 21 19  1  0  0  0  0
 22 17  1  0  0  0  0
 22 18  1  0  0  0  0
 23 19  1  0  0  0  0
 25 24  1  0  0  0  0
 26 31  1  0  0  0  0
 27 25  1  0  0  0  0
 28 29  1  0  0  0  0
 28 30  2  0  0  0  0
 29 26  2  0  0  0  0
 30 27  1  0  0  0  0
 31 27  2  0  0  0  0
 33 32  1  0  0  0  0
 34 35  2  0  0  0  0
 34 33  1  0  0  0  0
M  END
>  <MODEL>
8

>  <REMARK>
 VINA RESULT:      -6.2      2.476      8.427
  Name = 
  6 active torsions:
  status: ('A' for Active; 'I' for Inactive)
    1  A    between atoms: C_3  and  O_24
    2  A    between atoms: C_6  and  C_21
    3  A    between atoms: C_10  and  C_18
    4  A    between atoms: C_12  and  C_23
    5  A    between atoms: N_14  and  C_26
    6  A    between atoms: C_18  and  O_24
                            x       y       z     vdW  Elec       q    Type
                         _______ _______ _______ _____ _____    ______ ____

>  <TORSDO>
F 6

$$$$
=
 OpenBabel11042410283D

 35 39  0  0  1  0  0  0  0  0999 V2000
  187.1410  178.0070  142.1900 C   0  0  0  0  0  0  0  0  0  0  0  0
  185.8800  178.2280  141.6250 C   0  0  0  0  0  3  0  0  0  0  0  0
  188.2540  177.8890  141.3510 C   0  0  0  0  0  3  0  0  0  0  0  0
  186.8480  178.2300  139.3970 C   0  0  0  0  0  0  0  0  0  0  0  0
  185.7150  178.3480  140.2370 C   0  0  0  0  0  0  0  0  0  0  0  0
  188.1080  177.9930  139.9680 C   0  0  0  0  0  3  0  0  0  0  0  0
  188.7480  177.2280  136.1300 N   0  0  0  0  0  0  0  0  0  0  0  0
  187.7570  179.1270  137.2570 C   0  0  0  0  0  3  0  0  0  0  0  0
  188.7050  178.6260  136.4560 C   0  0  0  0  0  3  0  0  0  0  0  0
  186.7060  178.2530  137.8990 C   0  0  1  0  0  3  0  0  0  0  0  0
  187.8250  176.3970  136.5110 C   0  0  0  0  0  0  0  0  0  0  0  0
  186.6940  176.8600  137.3300 C   0  0  0  0  0  0  0  0  0  0  0  0
  187.9140  175.0110  136.1840 N   0  0  0  0  0  0  0  0  0  0  0  0
  185.6440  174.6750  137.0680 C   0  0  0  0  0  2  0  0  0  0  0  0
  185.7330  176.0340  137.6170 N   0  0  0  0  0  0  0  0  0  0  0  0
  186.9430  174.1940  136.4620 C   0  0  0  0  0  3  0  0  0  0  0  0
  184.1380  179.8290  139.0010 C   0  0  0  0  0  2  0  0  0  0  0  0
  181.6640  179.8910  139.3930 C   0  0  2  0  0  3  0  0  0  0  0  0
  182.1780  177.8640  140.5010 C   0  0  0  0  0  2  0  0  0  0  0  0
  184.3970  178.5640  139.7060 N   0  0  0  0  0  0  0  0  0  0  0  0
  183.4310  177.4620  139.7330 C   0  0  0  0  0  2  0  0  0  0  0  0
  182.7630  179.9150  138.3440 C   0  0  0  0  0  2  0  0  0  0  0  0
  181.2280  178.5180  139.6110 N   0  0  0  0  0  2  0  0  0  0  0  0
  180.4920  180.7170  138.8970 C   0  0  0  0  0  2  0  0  0  0  0  0
  180.8740  182.0840  138.7990 O   0  0  0  0  0  0  0  0  0  0  0  0
  180.4290  182.9140  135.2020 C   0  0  0  0  0  3  0  0  0  0  0  0
  180.8400  182.7910  137.5940 C   0  0  0  0  0  0  0  0  0  0  0  0
  181.1810  184.8770  136.4020 C   0  0  0  0  0  3  0  0  0  0  0  0
  180.7930  184.2630  135.2090 C   0  0  0  0  0  3  0  0  0  0  0  0
  181.2040  184.1420  137.5910 C   0  0  0  0  0  3  0  0  0  0  0  0
  180.4510  182.1790  136.3910 C   0  0  0  0  0  3  0  0  0  0  0  0
  188.7820  177.5330  145.6550 C   0  0  0  0  0  1  0  0  0  0  0  0
  188.5830  177.6540  144.2210 N   0  0  0  0  0  2  0  0  0  0  0  0
  187.2930  177.8920  143.6520 C   0  0  0  0  0  0  0  0  0  0  0  0
  186.2840  178.0050  144.4020 O   0  0  0  0  0  0  0  0  0  0  0  0
  1 34  1  0  0  0  0
  2  1  1  0  0  0  0
  3  1  2  0  0  0  0
  4  6  2  0  0  0  0
  4  5  1  0  0  0  0
  5  2  2  0  0  0  0
  6  3  1  0  0  0  0
  7  9  1  0  0  0  0
  7 11  2  0  0  0  0
  8 10  1  0  0  0  0
  9  8  2  0  0  0  0
 10  4  1  1  0  0  0
 11 12  1  0  0  0  0
 12 15  2  0  0  0  0
 12 10  1  0  0  0  0
 13 16  2  0  0  0  0
 13 11  1  0  0  0  0
 14 15  1  0  0  0  0
 16 14  1  0  0  0  0
 17 20  1  0  0  0  0
 18 24  1  6  0  0  0
 18 23  1  0  0  0  0
 20 21  1  0  0  0  0
 20  5  1  0  0  0  0
 21 19  1  0  0  0  0
 22 17  1  0  0  0  0
 22 18  1  0  0  0  0
 23 19  1  0  0  0  0
 25 24  1  0  0  0  0
 26 29  2  0  0  0  0
 26 31  1  0  0  0  0
 27 25  1  0  0  0  0
 28 30  2  0  0  0  0
 29 28  1  0  0  0  0
 30 27  1  0  0  0  0
 31 27  2  0  0  0  0
 33 32  1  0  0  0  0
 34 33  1  0  0  0  0
 34 35  2  0  0  0  0
M  END
>  <MODEL>
9

>  <REMARK>
 VINA RESULT:      -6.2      2.987      8.826
  Name = 
  6 active torsions:
  status: ('A' for Active; 'I' for Inactive)
    1  A    between atoms: C_3  and  O_24
    2  A    between atoms: C_6  and  C_21
    3  A    between atoms: C_10  and  C_18
    4  A    between atoms: C_12  and  C_23
    5  A    between atoms: N_14  and  C_26
    6  A    between atoms: C_18  and  O_24
                            x       y       z     vdW  Elec       q    Type
                         _______ _______ _______ _____ _____    ______ ____

>  <TORSDO>
F 6

$$$$
