=
 OpenBabel11042411543D

 37 40  0  0  1  0  0  0  0  0999 V2000
  190.1590  178.3450  143.2880 C   0  0  0  0  0  0  0  0  0  0  0  0
  189.2590  177.8550  144.2780 N   0  0  0  0  0  0  0  0  0  0  0  0
  188.6910  177.8460  145.6610 C   0  0  1  0  0  3  0  0  0  0  0  0
  190.9470  179.2840  143.5750 O   0  0  0  0  0  0  0  0  0  0  0  0
  188.1360  176.9860  144.7340 C   0  0  1  0  0  3  0  0  0  0  0  0
  189.3560  178.1580  140.9720 O   0  0  0  0  0  0  0  0  0  0  0  0
  190.9940  176.7510  141.4930 C   0  0  0  0  0  3  0  0  0  0  0  0
  191.0710  175.7830  139.3650 O   0  0  0  0  0  0  0  0  0  0  0  0
  189.5880  177.4730  139.8950 N   0  0  0  0  0  0  0  0  0  0  0  0
  190.1590  177.7690  141.9390 C   0  0  0  0  0  0  0  0  0  0  0  0
  190.5840  176.6100  140.1810 C   0  0  0  0  0  0  0  0  0  0  0  0
  188.2550  179.0800  136.7930 C   0  0  0  0  0  3  0  0  0  0  0  0
  187.5370  178.0270  136.2190 C   0  0  0  0  0  0  0  0  0  0  0  0
  186.7070  178.2600  134.6960 Cl  0  0  0  0  0  0  0  0  0  0  0  0
  187.4820  176.7880  136.8630 C   0  0  0  0  0  3  0  0  0  0  0  0
  188.1500  176.6020  138.0760 C   0  0  0  0  0  3  0  0  0  0  0  0
  188.8780  177.6530  138.6570 C   0  0  0  0  0  0  0  0  0  0  0  0
  188.9220  178.8930  138.0050 C   0  0  0  0  0  3  0  0  0  0  0  0
  189.1500  176.4620  147.5550 O   0  0  0  0  0  0  0  0  0  0  0  0
  191.0150  177.0860  146.3200 N   0  0  0  0  0  1  0  0  0  0  0  0
  189.6140  177.1090  146.5790 C   0  0  0  0  0  0  0  0  0  0  0  0
  186.8290  177.5580  144.2150 C   0  0  0  0  0  2  0  0  0  0  0  0
  186.1040  178.3150  145.3140 C   0  0  0  0  0  2  0  0  0  0  0  0
  185.0340  179.2160  144.7220 C   0  0  1  0  0  3  0  0  0  0  0  0
  183.9090  178.3950  144.2980 C   0  0  1  0  0  3  0  0  0  0  0  0
  183.8240  179.1540  145.5550 N   0  0  0  0  0  2  0  0  0  0  0  0
  183.1280  179.1130  143.2190 C   0  0  0  0  0  2  0  0  0  0  0  0
  183.5590  178.5970  141.8510 C   0  0  0  0  0  2  0  0  0  0  0  0
  182.5860  178.9980  140.7430 C   0  0  1  0  0  3  0  0  0  0  0  0
  183.3130  179.4450  139.4810 C   0  0  0  0  0  2  0  0  0  0  0  0
  184.6690  179.6370  139.7500 O   0  0  0  0  0  0  0  0  0  0  0  0
  185.2860  179.1040  138.7170 O   0  0  0  0  0  1  0  0  0  0  0  0
  181.4340  177.6370  140.3640 S   0  0  0  0  0  0  0  0  0  0  0  0
  180.0870  178.3920  141.2730 C   0  0  0  0  0  0  0  0  0  0  0  0
  179.3860  177.7070  141.9990 O   0  0  0  0  0  0  0  0  0  0  0  0
  179.8860  180.5140  142.4020 N   0  0  0  0  0  1  0  0  0  0  0  0
  179.8050  179.8500  141.1120 C   0  0  0  0  0  2  0  0  0  0  0  0
  1  4  2  0  0  0  0
  1  2  1  0  0  0  0
  2  5  1  0  0  0  0
  2  3  1  0  0  0  0
  3 21  1  1  0  0  0
  5 22  1  6  0  0  0
  5  3  1  0  0  0  0
  6 10  1  0  0  0  0
  7 10  2  0  0  0  0
  8 11  2  0  0  0  0
  9 11  1  0  0  0  0
  9  6  1  0  0  0  0
 10  1  1  0  0  0  0
 11  7  1  0  0  0  0
 12 18  1  0  0  0  0
 13 12  2  0  0  0  0
 13 15  1  0  0  0  0
 14 13  1  0  0  0  0
 15 16  2  0  0  0  0
 16 17  1  0  0  0  0
 17  9  1  0  0  0  0
 18 17  2  0  0  0  0
 20 21  1  0  0  0  0
 21 19  2  0  0  0  0
 22 23  1  0  0  0  0
 24 23  1  1  0  0  0
 24 26  1  0  0  0  0
 25 27  1  6  0  0  0
 25 24  1  0  0  0  0
 25 26  1  0  0  0  0
 28 27  1  0  0  0  0
 29 30  1  6  0  0  0
 29 28  1  0  0  0  0
 30 31  1  0  0  0  0
 32 31  1  0  0  0  0
 33 29  1  0  0  0  0
 33 34  1  0  0  0  0
 34 35  2  0  0  0  0
 37 34  1  0  0  0  0
 37 36  1  0  0  0  0
M  END
>  <MODEL>
1

>  <REMARK>
 VINA RESULT:      -7.9      0.000      0.000
  Name = 
  14 active torsions:
  status: ('A' for Active; 'I' for Inactive)
    1  A    between atoms: C_2  and  O_7
    2  A    between atoms: C_2  and  C_25
    3  A    between atoms: C_3  and  C_29
    4  A    between atoms: C_5  and  S_18
    5  A    between atoms: C_5  and  C_37
    6  A    between atoms: C_6  and  C_14
    7  A    between atoms: C_6  and  C_25
    8  A    between atoms: C_8  and  C_13
    9  A    between atoms: C_13  and  C_33
   10  A    between atoms: C_14  and  C_22
   11  A    between atoms: S_18  and  C_25
   12  A    between atoms: C_23  and  C_31
   13  A    between atoms: N_27  and  C_30
   14  A    between atoms: C_33  and  C_34
                            x       y       z     vdW  Elec       q    Type
                         _______ _______ _______ _____ _____    ______ ____

>  <TORSDO>
F 14

$$$$
=
 OpenBabel11042411543D

 37 40  0  0  1  0  0  0  0  0999 V2000
  190.2490  178.5500  143.3760 C   0  0  0  0  0  0  0  0  0  0  0  0
  189.6600  177.8920  144.4940 N   0  0  0  0  0  0  0  0  0  0  0  0
  189.4320  177.7280  145.9620 C   0  0  1  0  0  3  0  0  0  0  0  0
  190.9770  179.5600  143.5610 O   0  0  0  0  0  0  0  0  0  0  0  0
  188.7720  176.8650  145.1100 C   0  0  1  0  0  3  0  0  0  0  0  0
  190.9080  177.4890  141.2580 O   0  0  0  0  0  0  0  0  0  0  0  0
  188.7830  178.1280  141.3420 C   0  0  0  0  0  3  0  0  0  0  0  0
  188.2890  177.3680  139.1860 O   0  0  0  0  0  0  0  0  0  0  0  0
  190.3950  177.1590  140.1130 N   0  0  0  0  0  0  0  0  0  0  0  0
  189.9980  178.0620  142.0150 C   0  0  0  0  0  0  0  0  0  0  0  0
  189.1000  177.5330  140.1370 C   0  0  0  0  0  0  0  0  0  0  0  0
  193.1970  176.2480  137.8100 C   0  0  0  0  0  3  0  0  0  0  0  0
  192.6050  175.2510  137.0310 C   0  0  0  0  0  0  0  0  0  0  0  0
  193.5280  174.4590  135.7720 Cl  0  0  0  0  0  0  0  0  0  0  0  0
  191.2750  174.8870  137.2560 C   0  0  0  0  0  3  0  0  0  0  0  0
  190.5400  175.5160  138.2650 C   0  0  0  0  0  3  0  0  0  0  0  0
  191.1290  176.5150  139.0570 C   0  0  0  0  0  0  0  0  0  0  0  0
  192.4630  176.8760  138.8180 C   0  0  0  0  0  3  0  0  0  0  0  0
  190.7610  177.0630  147.8340 O   0  0  0  0  0  0  0  0  0  0  0  0
  191.5510  176.3540  145.7680 N   0  0  0  0  0  1  0  0  0  0  0  0
  190.6160  177.0560  146.5830 C   0  0  0  0  0  0  0  0  0  0  0  0
  187.3270  177.3010  144.9480 C   0  0  0  0  0  2  0  0  0  0  0  0
  186.8260  177.9700  146.2150 C   0  0  0  0  0  2  0  0  0  0  0  0
  185.8020  179.0400  145.8820 C   0  0  1  0  0  3  0  0  0  0  0  0
  184.7270  178.4380  145.1060 C   0  0  1  0  0  3  0  0  0  0  0  0
  184.5250  178.7170  146.5350 N   0  0  0  0  0  2  0  0  0  0  0  0
  184.0340  179.4990  144.2790 C   0  0  0  0  0  2  0  0  0  0  0  0
  182.7030  178.9580  143.7700 C   0  0  0  0  0  2  0  0  0  0  0  0
  182.5300  179.1550  142.2650 C   0  0  1  0  0  3  0  0  0  0  0  0
  183.6690  178.5260  141.4730 C   0  0  0  0  0  2  0  0  0  0  0  0
  184.1530  179.4300  140.5270 O   0  0  0  0  0  0  0  0  0  0  0  0
  185.4460  179.4880  140.7610 O   0  0  0  0  0  1  0  0  0  0  0  0
  180.9260  178.4980  141.7030 S   0  0  0  0  0  0  0  0  0  0  0  0
  180.4190  180.0650  140.9960 C   0  0  0  0  0  0  0  0  0  0  0  0
  179.7640  180.8480  141.6630 O   0  0  0  0  0  0  0  0  0  0  0  0
  180.7470  179.1840  138.7750 N   0  0  0  0  0  1  0  0  0  0  0  0
  180.7710  180.3920  139.5820 C   0  0  0  0  0  2  0  0  0  0  0  0
  1  4  2  0  0  0  0
  1  2  1  0  0  0  0
  2  5  1  0  0  0  0
  2  3  1  0  0  0  0
  3 21  1  1  0  0  0
  5 22  1  6  0  0  0
  5  3  1  0  0  0  0
  6 10  1  0  0  0  0
  7 10  2  0  0  0  0
  8 11  2  0  0  0  0
  9 11  1  0  0  0  0
  9  6  1  0  0  0  0
 10  1  1  0  0  0  0
 11  7  1  0  0  0  0
 12 18  1  0  0  0  0
 13 15  1  0  0  0  0
 13 12  2  0  0  0  0
 14 13  1  0  0  0  0
 15 16  2  0  0  0  0
 16 17  1  0  0  0  0
 17  9  1  0  0  0  0
 18 17  2  0  0  0  0
 20 21  1  0  0  0  0
 21 19  2  0  0  0  0
 22 23  1  0  0  0  0
 24 23  1  1  0  0  0
 24 26  1  0  0  0  0
 25 27  1  6  0  0  0
 25 24  1  0  0  0  0
 25 26  1  0  0  0  0
 28 27  1  0  0  0  0
 29 30  1  6  0  0  0
 29 28  1  0  0  0  0
 31 32  1  0  0  0  0
 31 30  1  0  0  0  0
 33 29  1  0  0  0  0
 34 35  2  0  0  0  0
 34 33  1  0  0  0  0
 36 37  1  0  0  0  0
 37 34  1  0  0  0  0
M  END
>  <MODEL>
2

>  <REMARK>
 VINA RESULT:      -7.5      2.289      2.705
  Name = 
  14 active torsions:
  status: ('A' for Active; 'I' for Inactive)
    1  A    between atoms: C_2  and  O_7
    2  A    between atoms: C_2  and  C_25
    3  A    between atoms: C_3  and  C_29
    4  A    between atoms: C_5  and  S_18
    5  A    between atoms: C_5  and  C_37
    6  A    between atoms: C_6  and  C_14
    7  A    between atoms: C_6  and  C_25
    8  A    between atoms: C_8  and  C_13
    9  A    between atoms: C_13  and  C_33
   10  A    between atoms: C_14  and  C_22
   11  A    between atoms: S_18  and  C_25
   12  A    between atoms: C_23  and  C_31
   13  A    between atoms: N_27  and  C_30
   14  A    between atoms: C_33  and  C_34
                            x       y       z     vdW  Elec       q    Type
                         _______ _______ _______ _____ _____    ______ ____

>  <TORSDO>
F 14

$$$$
=
 OpenBabel11042411543D

 37 40  0  0  1  0  0  0  0  0999 V2000
  190.5330  178.6160  143.4530 C   0  0  0  0  0  0  0  0  0  0  0  0
  189.7970  177.8790  144.4240 N   0  0  0  0  0  0  0  0  0  0  0  0
  189.2810  177.6670  145.8110 C   0  0  1  0  0  3  0  0  0  0  0  0
  191.0860  179.6980  143.7810 O   0  0  0  0  0  0  0  0  0  0  0  0
  188.9200  176.7490  144.8450 C   0  0  1  0  0  3  0  0  0  0  0  0
  189.6880  178.2580  141.1730 O   0  0  0  0  0  0  0  0  0  0  0  0
  191.7310  177.4640  141.5290 C   0  0  0  0  0  3  0  0  0  0  0  0
  191.9850  176.6590  139.3470 O   0  0  0  0  0  0  0  0  0  0  0  0
  190.0630  177.7320  140.0470 N   0  0  0  0  0  0  0  0  0  0  0  0
  190.6360  178.1250  142.0740 C   0  0  0  0  0  0  0  0  0  0  0  0
  191.3060  177.2430  140.2330 C   0  0  0  0  0  0  0  0  0  0  0  0
  187.7630  176.5020  137.3680 C   0  0  0  0  0  3  0  0  0  0  0  0
  187.6310  177.6410  136.5680 C   0  0  0  0  0  0  0  0  0  0  0  0
  186.6150  177.5980  135.1440 Cl  0  0  0  0  0  0  0  0  0  0  0  0
  188.3120  178.8130  136.9060 C   0  0  0  0  0  3  0  0  0  0  0  0
  189.1190  178.8470  138.0470 C   0  0  0  0  0  3  0  0  0  0  0  0
  189.2530  177.7100  138.8590 C   0  0  0  0  0  0  0  0  0  0  0  0
  188.5690  176.5380  138.5070 C   0  0  0  0  0  3  0  0  0  0  0  0
  190.2900  177.2170  147.9300 O   0  0  0  0  0  0  0  0  0  0  0  0
  191.4790  176.4410  146.0920 N   0  0  0  0  0  1  0  0  0  0  0  0
  190.3720  177.1220  146.6770 C   0  0  0  0  0  0  0  0  0  0  0  0
  187.5030  177.0230  144.3740 C   0  0  0  0  0  2  0  0  0  0  0  0
  186.6450  177.5220  145.5220 C   0  0  0  0  0  2  0  0  0  0  0  0
  185.7930  178.6980  145.0770 C   0  0  1  0  0  3  0  0  0  0  0  0
  184.3910  178.3780  145.3080 C   0  0  1  0  0  3  0  0  0  0  0  0
  185.0980  179.2680  146.2400 N   0  0  0  0  0  2  0  0  0  0  0  0
  183.5190  179.2000  144.3840 C   0  0  0  0  0  2  0  0  0  0  0  0
  183.8560  178.8660  142.9350 C   0  0  0  0  0  2  0  0  0  0  0  0
  182.6090  178.6150  142.0890 C   0  0  1  0  0  3  0  0  0  0  0  0
  181.3440  179.1200  142.7740 C   0  0  0  0  0  2  0  0  0  0  0  0
  180.4820  179.6850  141.8330 O   0  0  0  0  0  0  0  0  0  0  0  0
  179.9210  180.6920  142.4670 O   0  0  0  0  0  1  0  0  0  0  0  0
  182.7810  179.3680  140.4390 S   0  0  0  0  0  0  0  0  0  0  0  0
  183.3140  177.8320  139.6850 C   0  0  0  0  0  0  0  0  0  0  0  0
  182.7130  176.7980  139.9240 O   0  0  0  0  0  0  0  0  0  0  0  0
  185.2240  179.0800  138.9010 N   0  0  0  0  0  1  0  0  0  0  0  0
  184.5130  177.8160  138.7940 C   0  0  0  0  0  2  0  0  0  0  0  0
  1  4  2  0  0  0  0
  1  2  1  0  0  0  0
  2  5  1  0  0  0  0
  2  3  1  0  0  0  0
  3 21  1  1  0  0  0
  5 22  1  6  0  0  0
  5  3  1  0  0  0  0
  6 10  1  0  0  0  0
  7 10  2  0  0  0  0
  8 11  2  0  0  0  0
  9 11  1  0  0  0  0
  9  6  1  0  0  0  0
 10  1  1  0  0  0  0
 11  7  1  0  0  0  0
 12 18  1  0  0  0  0
 13 15  1  0  0  0  0
 13 12  2  0  0  0  0
 14 13  1  0  0  0  0
 15 16  2  0  0  0  0
 16 17  1  0  0  0  0
 17  9  1  0  0  0  0
 18 17  2  0  0  0  0
 20 21  1  0  0  0  0
 21 19  2  0  0  0  0
 22 23  1  0  0  0  0
 24 25  1  0  0  0  0
 24 23  1  1  0  0  0
 24 26  1  0  0  0  0
 25 27  1  6  0  0  0
 25 26  1  0  0  0  0
 28 27  1  0  0  0  0
 29 30  1  1  0  0  0
 29 28  1  0  0  0  0
 31 32  1  0  0  0  0
 31 30  1  0  0  0  0
 33 29  1  0  0  0  0
 34 35  2  0  0  0  0
 34 33  1  0  0  0  0
 37 36  1  0  0  0  0
 37 34  1  0  0  0  0
M  END
>  <MODEL>
3

>  <REMARK>
 VINA RESULT:      -7.4      1.730      2.527
  Name = 
  14 active torsions:
  status: ('A' for Active; 'I' for Inactive)
    1  A    between atoms: C_2  and  O_7
    2  A    between atoms: C_2  and  C_25
    3  A    between atoms: C_3  and  C_29
    4  A    between atoms: C_5  and  S_18
    5  A    between atoms: C_5  and  C_37
    6  A    between atoms: C_6  and  C_14
    7  A    between atoms: C_6  and  C_25
    8  A    between atoms: C_8  and  C_13
    9  A    between atoms: C_13  and  C_33
   10  A    between atoms: C_14  and  C_22
   11  A    between atoms: S_18  and  C_25
   12  A    between atoms: C_23  and  C_31
   13  A    between atoms: N_27  and  C_30
   14  A    between atoms: C_33  and  C_34
                            x       y       z     vdW  Elec       q    Type
                         _______ _______ _______ _____ _____    ______ ____

>  <TORSDO>
F 14

$$$$
=
 OpenBabel11042411543D

 37 40  0  0  1  0  0  0  0  0999 V2000
  188.7350  178.1580  137.5390 C   0  0  0  0  0  0  0  0  0  0  0  0
  189.7340  177.4190  138.2360 N   0  0  0  0  0  0  0  0  0  0  0  0
  191.1220  176.8830  138.3830 C   0  0  1  0  0  3  0  0  0  0  0  0
  189.0330  178.7460  136.4670 O   0  0  0  0  0  0  0  0  0  0  0  0
  190.2210  176.6140  139.3940 C   0  0  1  0  0  3  0  0  0  0  0  0
  187.0890  178.3820  139.3500 O   0  0  0  0  0  0  0  0  0  0  0  0
  186.2030  178.1980  137.3220 C   0  0  0  0  0  3  0  0  0  0  0  0
  183.9960  178.3390  138.0850 O   0  0  0  0  0  0  0  0  0  0  0  0
  185.8040  178.4350  139.5210 N   0  0  0  0  0  0  0  0  0  0  0  0
  187.3720  178.2440  138.0740 C   0  0  0  0  0  0  0  0  0  0  0  0
  185.2380  178.3280  138.3010 C   0  0  0  0  0  0  0  0  0  0  0  0
  183.1340  178.6180  142.1330 C   0  0  0  0  0  3  0  0  0  0  0  0
  183.8900  178.8200  143.2910 C   0  0  0  0  0  0  0  0  0  0  0  0
  183.0930  178.9630  144.8430 Cl  0  0  0  0  0  0  0  0  0  0  0  0
  185.2820  178.9080  143.2090 C   0  0  0  0  0  3  0  0  0  0  0  0
  185.9170  178.7880  141.9700 C   0  0  0  0  0  3  0  0  0  0  0  0
  185.1660  178.5800  140.8020 C   0  0  0  0  0  0  0  0  0  0  0  0
  183.7700  178.4990  140.8950 C   0  0  0  0  0  3  0  0  0  0  0  0
  191.9390  175.7920  136.4190 O   0  0  0  0  0  0  0  0  0  0  0  0
  190.7910  174.4190  137.9000 N   0  0  0  0  0  1  0  0  0  0  0  0
  191.2970  175.6900  137.4980 C   0  0  0  0  0  0  0  0  0  0  0  0
  190.4690  177.5410  140.5690 C   0  0  0  0  0  2  0  0  0  0  0  0
  191.3660  176.8740  141.5960 C   0  0  0  0  0  2  0  0  0  0  0  0
  190.6080  176.6400  142.8910 C   0  0  1  0  0  3  0  0  0  0  0  0
  189.4780  177.5560  142.9480 C   0  0  1  0  0  3  0  0  0  0  0  0
  189.2560  176.1480  142.5870 N   0  0  0  0  0  2  0  0  0  0  0  0
  189.0710  177.7800  144.3890 C   0  0  0  0  0  2  0  0  0  0  0  0
  190.3190  177.8700  145.2610 C   0  0  0  0  0  2  0  0  0  0  0  0
  190.1820  177.0730  146.5580 C   0  0  1  0  0  3  0  0  0  0  0  0
  191.4520  176.3000  146.8880 C   0  0  0  0  0  2  0  0  0  0  0  0
  192.1740  176.9640  147.8810 O   0  0  0  0  0  0  0  0  0  0  0  0
  192.8760  176.0160  148.4650 O   0  0  0  0  0  1  0  0  0  0  0  0
  189.7220  178.1620  147.9440 S   0  0  0  0  0  0  0  0  0  0  0  0
  188.0480  177.5280  148.0170 C   0  0  0  0  0  0  0  0  0  0  0  0
  187.8370  176.4270  148.4990 O   0  0  0  0  0  0  0  0  0  0  0  0
  186.2720  177.5960  146.3870 N   0  0  0  0  0  1  0  0  0  0  0  0
  186.9220  178.3330  147.4580 C   0  0  0  0  0  2  0  0  0  0  0  0
  1 10  1  0  0  0  0
  1  2  1  0  0  0  0
  2  3  1  0  0  0  0
  2  5  1  0  0  0  0
  3 21  1  6  0  0  0
  3  5  1  0  0  0  0
  4  1  2  0  0  0  0
  5 22  1  1  0  0  0
  6  9  1  0  0  0  0
  7 10  2  0  0  0  0
  7 11  1  0  0  0  0
  8 11  2  0  0  0  0
  9 17  1  0  0  0  0
 10  6  1  0  0  0  0
 11  9  1  0  0  0  0
 12 13  1  0  0  0  0
 13 14  1  0  0  0  0
 15 13  2  0  0  0  0
 16 15  1  0  0  0  0
 17 18  1  0  0  0  0
 17 16  2  0  0  0  0
 18 12  2  0  0  0  0
 19 21  2  0  0  0  0
 21 20  1  0  0  0  0
 22 23  1  0  0  0  0
 24 23  1  6  0  0  0
 24 25  1  0  0  0  0
 25 27  1  1  0  0  0
 26 24  1  0  0  0  0
 26 25  1  0  0  0  0
 27 28  1  0  0  0  0
 29 28  1  6  0  0  0
 29 30  1  0  0  0  0
 29 33  1  0  0  0  0
 30 31  1  0  0  0  0
 31 32  1  0  0  0  0
 33 34  1  0  0  0  0
 34 35  2  0  0  0  0
 36 37  1  0  0  0  0
 37 34  1  0  0  0  0
M  END
>  <MODEL>
4

>  <REMARK>
 VINA RESULT:      -7.4      3.603      8.019
  Name = 
  14 active torsions:
  status: ('A' for Active; 'I' for Inactive)
    1  A    between atoms: C_2  and  O_7
    2  A    between atoms: C_2  and  C_25
    3  A    between atoms: C_3  and  C_29
    4  A    between atoms: C_5  and  S_18
    5  A    between atoms: C_5  and  C_37
    6  A    between atoms: C_6  and  C_14
    7  A    between atoms: C_6  and  C_25
    8  A    between atoms: C_8  and  C_13
    9  A    between atoms: C_13  and  C_33
   10  A    between atoms: C_14  and  C_22
   11  A    between atoms: S_18  and  C_25
   12  A    between atoms: C_23  and  C_31
   13  A    between atoms: N_27  and  C_30
   14  A    between atoms: C_33  and  C_34
                            x       y       z     vdW  Elec       q    Type
                         _______ _______ _______ _____ _____    ______ ____

>  <TORSDO>
F 14

$$$$
=
 OpenBabel11042411543D

 37 40  0  0  1  0  0  0  0  0999 V2000
  181.9760  178.5730  141.6390 C   0  0  0  0  0  0  0  0  0  0  0  0
  181.5900  177.6970  140.5840 N   0  0  0  0  0  0  0  0  0  0  0  0
  180.5730  177.1020  139.6650 C   0  0  1  0  0  3  0  0  0  0  0  0
  181.1180  179.3270  142.1660 O   0  0  0  0  0  0  0  0  0  0  0  0
  181.8830  176.6910  139.5230 C   0  0  1  0  0  3  0  0  0  0  0  0
  183.7400  178.3960  143.3420 O   0  0  0  0  0  0  0  0  0  0  0  0
  184.4790  178.8600  141.3000 C   0  0  0  0  0  3  0  0  0  0  0  0
  186.7280  178.9230  141.9410 O   0  0  0  0  0  0  0  0  0  0  0  0
  185.0300  178.4860  143.4460 N   0  0  0  0  0  0  0  0  0  0  0  0
  183.3690  178.6080  142.0980 C   0  0  0  0  0  0  0  0  0  0  0  0
  185.5080  178.7650  142.2160 C   0  0  0  0  0  0  0  0  0  0  0  0
  187.6430  177.3590  145.8720 C   0  0  0  0  0  3  0  0  0  0  0  0
  187.2140  177.9750  147.0510 C   0  0  0  0  0  0  0  0  0  0  0  0
  188.1290  177.7710  148.5290 Cl  0  0  0  0  0  0  0  0  0  0  0  0
  186.0530  178.7530  147.0490 C   0  0  0  0  0  3  0  0  0  0  0  0
  185.3270  178.9190  145.8660 C   0  0  0  0  0  3  0  0  0  0  0  0
  185.7530  178.3090  144.6760 C   0  0  0  0  0  0  0  0  0  0  0  0
  186.9160  177.5260  144.6910 C   0  0  0  0  0  3  0  0  0  0  0  0
  178.9500  176.4260  141.2840 O   0  0  0  0  0  0  0  0  0  0  0  0
  179.8900  174.6950  140.0540 N   0  0  0  0  0  1  0  0  0  0  0  0
  179.7720  176.0730  140.3970 C   0  0  0  0  0  0  0  0  0  0  0  0
  182.5220  177.3950  138.3400 C   0  0  0  0  0  2  0  0  0  0  0  0
  183.7090  176.6020  137.8240 C   0  0  0  0  0  2  0  0  0  0  0  0
  184.9020  177.5160  137.6030 C   0  0  1  0  0  3  0  0  0  0  0  0
  186.0980  176.7000  137.4480 C   0  0  1  0  0  3  0  0  0  0  0  0
  185.4560  177.2840  136.2610 N   0  0  0  0  0  2  0  0  0  0  0  0
  187.3230  177.5100  137.8120 C   0  0  0  0  0  2  0  0  0  0  0  0
  188.5730  176.6620  137.6050 C   0  0  0  0  0  2  0  0  0  0  0  0
  189.4320  176.5730  138.8650 C   0  0  1  0  0  3  0  0  0  0  0  0
  190.8490  176.1020  138.5570 C   0  0  0  0  0  2  0  0  0  0  0  0
  190.8380  174.7530  138.1980 O   0  0  0  0  0  0  0  0  0  0  0  0
  192.0320  174.5420  137.6860 O   0  0  0  0  0  1  0  0  0  0  0  0
  189.4700  178.1700  139.7410 S   0  0  0  0  0  0  0  0  0  0  0  0
  190.1310  177.4460  141.2400 C   0  0  0  0  0  0  0  0  0  0  0  0
  191.2520  177.7460  141.6160 O   0  0  0  0  0  0  0  0  0  0  0  0
  190.2030  175.5620  142.7460 N   0  0  0  0  0  1  0  0  0  0  0  0
  189.3220  176.4510  142.0060 C   0  0  0  0  0  2  0  0  0  0  0  0
  1 10  1  0  0  0  0
  1  4  2  0  0  0  0
  2  1  1  0  0  0  0
  3 21  1  1  0  0  0
  3  2  1  0  0  0  0
  5 22  1  6  0  0  0
  5  3  1  0  0  0  0
  5  2  1  0  0  0  0
  6  9  1  0  0  0  0
  7 10  2  0  0  0  0
  7 11  1  0  0  0  0
  8 11  2  0  0  0  0
  9 17  1  0  0  0  0
 10  6  1  0  0  0  0
 11  9  1  0  0  0  0
 12 13  1  0  0  0  0
 13 14  1  0  0  0  0
 15 13  2  0  0  0  0
 16 15  1  0  0  0  0
 17 18  1  0  0  0  0
 17 16  2  0  0  0  0
 18 12  2  0  0  0  0
 20 21  1  0  0  0  0
 21 19  2  0  0  0  0
 23 22  1  0  0  0  0
 24 23  1  6  0  0  0
 25 24  1  0  0  0  0
 25 27  1  1  0  0  0
 26 25  1  0  0  0  0
 26 24  1  0  0  0  0
 28 27  1  0  0  0  0
 29 28  1  6  0  0  0
 29 33  1  0  0  0  0
 30 29  1  0  0  0  0
 31 30  1  0  0  0  0
 32 31  1  0  0  0  0
 33 34  1  0  0  0  0
 34 35  2  0  0  0  0
 34 37  1  0  0  0  0
 37 36  1  0  0  0  0
M  END
>  <MODEL>
5

>  <REMARK>
 VINA RESULT:      -7.2      3.576      8.981
  Name = 
  14 active torsions:
  status: ('A' for Active; 'I' for Inactive)
    1  A    between atoms: C_2  and  O_7
    2  A    between atoms: C_2  and  C_25
    3  A    between atoms: C_3  and  C_29
    4  A    between atoms: C_5  and  S_18
    5  A    between atoms: C_5  and  C_37
    6  A    between atoms: C_6  and  C_14
    7  A    between atoms: C_6  and  C_25
    8  A    between atoms: C_8  and  C_13
    9  A    between atoms: C_13  and  C_33
   10  A    between atoms: C_14  and  C_22
   11  A    between atoms: S_18  and  C_25
   12  A    between atoms: C_23  and  C_31
   13  A    between atoms: N_27  and  C_30
   14  A    between atoms: C_33  and  C_34
                            x       y       z     vdW  Elec       q    Type
                         _______ _______ _______ _____ _____    ______ ____

>  <TORSDO>
F 14

$$$$
=
 OpenBabel11042411543D

 37 40  0  0  1  0  0  0  0  0999 V2000
  187.9750  177.3780  145.3350 C   0  0  0  0  0  0  0  0  0  0  0  0
  188.9140  177.6250  144.2920 N   0  0  0  0  0  0  0  0  0  0  0  0
  190.2820  177.5370  143.6960 C   0  0  1  0  0  3  0  0  0  0  0  0
  188.3360  176.7400  146.3580 O   0  0  0  0  0  0  0  0  0  0  0  0
  189.2920  178.1350  142.9430 C   0  0  1  0  0  3  0  0  0  0  0  0
  185.9370  177.9240  144.0740 O   0  0  0  0  0  0  0  0  0  0  0  0
  185.7880  178.2850  146.2610 C   0  0  0  0  0  3  0  0  0  0  0  0
  183.5780  179.0440  146.1600 O   0  0  0  0  0  0  0  0  0  0  0  0
  184.7370  178.3750  144.2760 N   0  0  0  0  0  0  0  0  0  0  0  0
  186.5930  177.8530  145.2120 C   0  0  0  0  0  0  0  0  0  0  0  0
  184.6170  178.6000  145.6010 C   0  0  0  0  0  0  0  0  0  0  0  0
  183.1900  178.5270  140.8750 C   0  0  0  0  0  3  0  0  0  0  0  0
  181.8820  178.9110  141.1810 C   0  0  0  0  0  0  0  0  0  0  0  0
  180.7070  179.1160  139.8990 Cl  0  0  0  0  0  0  0  0  0  0  0  0
  181.5120  179.1340  142.5100 C   0  0  0  0  0  3  0  0  0  0  0  0
  182.4490  178.9640  143.5330 C   0  0  0  0  0  3  0  0  0  0  0  0
  183.7650  178.5730  143.2360 C   0  0  0  0  0  0  0  0  0  0  0  0
  184.1260  178.3580  141.8980 C   0  0  0  0  0  3  0  0  0  0  0  0
  192.0670  178.2210  145.1310 O   0  0  0  0  0  0  0  0  0  0  0  0
  191.0450  179.9380  143.9470 N   0  0  0  0  0  1  0  0  0  0  0  0
  191.1700  178.5670  144.3180 C   0  0  0  0  0  0  0  0  0  0  0  0
  188.7850  177.1660  141.8900 C   0  0  0  0  0  2  0  0  0  0  0  0
  189.7480  177.0980  140.7180 C   0  0  0  0  0  2  0  0  0  0  0  0
  189.3490  178.0950  139.6440 C   0  0  1  0  0  3  0  0  0  0  0  0
  188.2580  177.5320  138.8620 C   0  0  1  0  0  3  0  0  0  0  0  0
  187.9720  178.5490  139.8840 N   0  0  0  0  0  2  0  0  0  0  0  0
  188.2280  178.1700  137.4900 C   0  0  0  0  0  2  0  0  0  0  0  0
  189.4450  177.7150  136.6920 C   0  0  0  0  0  2  0  0  0  0  0  0
  189.4480  176.2080  136.4410 C   0  0  1  0  0  3  0  0  0  0  0  0
  188.3070  175.7790  135.5270 C   0  0  0  0  0  2  0  0  0  0  0  0
  187.8070  174.5410  135.9330 O   0  0  0  0  0  0  0  0  0  0  0  0
  187.1340  174.8040  137.0330 O   0  0  0  0  0  1  0  0  0  0  0  0
  191.0480  175.6660  135.7570 S   0  0  0  0  0  0  0  0  0  0  0  0
  191.8730  175.7640  137.3450 C   0  0  0  0  0  0  0  0  0  0  0  0
  191.3680  175.2400  138.3240 O   0  0  0  0  0  0  0  0  0  0  0  0
  193.4990  176.6750  138.8750 N   0  0  0  0  0  1  0  0  0  0  0  0
  193.1570  176.5160  137.4720 C   0  0  0  0  0  2  0  0  0  0  0  0
  1  4  2  0  0  0  0
  2  1  1  0  0  0  0
  3  2  1  0  0  0  0
  3 21  1  1  0  0  0
  5 22  1  6  0  0  0
  5  3  1  0  0  0  0
  5  2  1  0  0  0  0
  6  9  1  0  0  0  0
  6 10  1  0  0  0  0
  9 11  1  0  0  0  0
 10  1  1  0  0  0  0
 10  7  2  0  0  0  0
 11  8  2  0  0  0  0
 11  7  1  0  0  0  0
 12 13  2  0  0  0  0
 12 18  1  0  0  0  0
 13 15  1  0  0  0  0
 14 13  1  0  0  0  0
 15 16  2  0  0  0  0
 17 16  1  0  0  0  0
 17  9  1  0  0  0  0
 18 17  2  0  0  0  0
 20 21  1  0  0  0  0
 21 19  2  0  0  0  0
 23 22  1  0  0  0  0
 24 26  1  0  0  0  0
 24 23  1  1  0  0  0
 25 27  1  6  0  0  0
 25 24  1  0  0  0  0
 25 26  1  0  0  0  0
 28 27  1  0  0  0  0
 29 30  1  6  0  0  0
 29 28  1  0  0  0  0
 30 31  1  0  0  0  0
 31 32  1  0  0  0  0
 33 29  1  0  0  0  0
 33 34  1  0  0  0  0
 34 37  1  0  0  0  0
 34 35  2  0  0  0  0
 37 36  1  0  0  0  0
M  END
>  <MODEL>
6

>  <REMARK>
 VINA RESULT:      -7.1      3.208      7.657
  Name = 
  14 active torsions:
  status: ('A' for Active; 'I' for Inactive)
    1  A    between atoms: C_2  and  O_7
    2  A    between atoms: C_2  and  C_25
    3  A    between atoms: C_3  and  C_29
    4  A    between atoms: C_5  and  S_18
    5  A    between atoms: C_5  and  C_37
    6  A    between atoms: C_6  and  C_14
    7  A    between atoms: C_6  and  C_25
    8  A    between atoms: C_8  and  C_13
    9  A    between atoms: C_13  and  C_33
   10  A    between atoms: C_14  and  C_22
   11  A    between atoms: S_18  and  C_25
   12  A    between atoms: C_23  and  C_31
   13  A    between atoms: N_27  and  C_30
   14  A    between atoms: C_33  and  C_34
                            x       y       z     vdW  Elec       q    Type
                         _______ _______ _______ _____ _____    ______ ____

>  <TORSDO>
F 14

$$$$
=
 OpenBabel11042411543D

 37 40  0  0  1  0  0  0  0  0999 V2000
  188.2680  177.7130  139.5670 C   0  0  0  0  0  0  0  0  0  0  0  0
  188.6610  176.9330  138.4410 N   0  0  0  0  0  0  0  0  0  0  0  0
  188.5180  176.5000  137.0170 C   0  0  1  0  0  3  0  0  0  0  0  0
  187.3240  178.5380  139.4520 O   0  0  0  0  0  0  0  0  0  0  0  0
  189.5450  175.9460  137.7560 C   0  0  1  0  0  3  0  0  0  0  0  0
  188.3780  177.6360  142.0210 O   0  0  0  0  0  0  0  0  0  0  0  0
  190.3290  177.3310  141.0050 C   0  0  0  0  0  3  0  0  0  0  0  0
  191.5230  177.0720  143.0000 O   0  0  0  0  0  0  0  0  0  0  0  0
  189.2460  177.4630  142.9700 N   0  0  0  0  0  0  0  0  0  0  0  0
  188.9670  177.5660  140.8480 C   0  0  0  0  0  0  0  0  0  0  0  0
  190.4440  177.2720  142.3800 C   0  0  0  0  0  0  0  0  0  0  0  0
  189.6570  177.4080  146.6860 C   0  0  0  0  0  3  0  0  0  0  0  0
  188.3360  177.5620  147.1150 C   0  0  0  0  0  0  0  0  0  0  0  0
  187.9710  177.6170  148.8260 Cl  0  0  0  0  0  0  0  0  0  0  0  0
  187.3060  177.6710  146.1780 C   0  0  0  0  0  3  0  0  0  0  0  0
  187.5980  177.6330  144.8110 C   0  0  0  0  0  3  0  0  0  0  0  0
  188.9230  177.4840  144.3710 C   0  0  0  0  0  0  0  0  0  0  0  0
  189.9480  177.3700  145.3210 C   0  0  0  0  0  3  0  0  0  0  0  0
  186.2070  175.9700  136.7170 O   0  0  0  0  0  0  0  0  0  0  0  0
  187.6170  174.1360  136.9150 N   0  0  0  0  0  1  0  0  0  0  0  0
  187.3780  175.5410  136.8940 C   0  0  0  0  0  0  0  0  0  0  0  0
  190.8580  176.6220  137.4060 C   0  0  0  0  0  2  0  0  0  0  0  0
  192.0260  175.6890  137.6700 C   0  0  0  0  0  2  0  0  0  0  0  0
  192.8800  175.5400  136.4230 C   0  0  1  0  0  3  0  0  0  0  0  0
  192.9770  174.1280  136.0840 C   0  0  1  0  0  3  0  0  0  0  0  0
  192.0610  174.9960  135.3300 N   0  0  0  0  0  2  0  0  0  0  0  0
  194.2280  173.8800  135.2690 C   0  0  0  0  0  2  0  0  0  0  0  0
  195.0490  172.7730  135.9220 C   0  0  0  0  0  2  0  0  0  0  0  0
  195.9470  173.2950  137.0420 C   0  0  1  0  0  3  0  0  0  0  0  0
  195.4310  172.8950  138.4190 C   0  0  0  0  0  2  0  0  0  0  0  0
  195.8340  173.8310  139.3720 O   0  0  0  0  0  0  0  0  0  0  0  0
  195.4610  174.9900  138.8730 O   0  0  0  0  0  1  0  0  0  0  0  0
  197.6640  172.7280  136.8170 S   0  0  0  0  0  0  0  0  0  0  0  0
  198.3000  174.3960  136.6630 C   0  0  0  0  0  0  0  0  0  0  0  0
  199.0200  174.8530  137.5350 O   0  0  0  0  0  0  0  0  0  0  0  0
  197.1860  176.4070  135.9310 N   0  0  0  0  0  1  0  0  0  0  0  0
  197.9180  175.2330  135.4860 C   0  0  0  0  0  2  0  0  0  0  0  0
  1 10  1  0  0  0  0
  2  1  1  0  0  0  0
  3 21  1  1  0  0  0
  3  5  1  0  0  0  0
  3  2  1  0  0  0  0
  4  1  2  0  0  0  0
  5 22  1  6  0  0  0
  5  2  1  0  0  0  0
  6  9  1  0  0  0  0
  7 11  1  0  0  0  0
  9 17  1  0  0  0  0
 10  7  2  0  0  0  0
 10  6  1  0  0  0  0
 11  9  1  0  0  0  0
 11  8  2  0  0  0  0
 12 13  1  0  0  0  0
 13 14  1  0  0  0  0
 15 13  2  0  0  0  0
 16 15  1  0  0  0  0
 17 16  2  0  0  0  0
 17 18  1  0  0  0  0
 18 12  2  0  0  0  0
 19 21  2  0  0  0  0
 21 20  1  0  0  0  0
 22 23  1  0  0  0  0
 24 23  1  1  0  0  0
 25 27  1  6  0  0  0
 25 24  1  0  0  0  0
 26 25  1  0  0  0  0
 26 24  1  0  0  0  0
 27 28  1  0  0  0  0
 29 28  1  6  0  0  0
 29 30  1  0  0  0  0
 30 31  1  0  0  0  0
 32 31  1  0  0  0  0
 33 29  1  0  0  0  0
 34 33  1  0  0  0  0
 34 35  2  0  0  0  0
 37 36  1  0  0  0  0
 37 34  1  0  0  0  0
M  END
>  <MODEL>
7

>  <REMARK>
 VINA RESULT:      -7.0      5.709     11.424
  Name = 
  14 active torsions:
  status: ('A' for Active; 'I' for Inactive)
    1  A    between atoms: C_2  and  O_7
    2  A    between atoms: C_2  and  C_25
    3  A    between atoms: C_3  and  C_29
    4  A    between atoms: C_5  and  S_18
    5  A    between atoms: C_5  and  C_37
    6  A    between atoms: C_6  and  C_14
    7  A    between atoms: C_6  and  C_25
    8  A    between atoms: C_8  and  C_13
    9  A    between atoms: C_13  and  C_33
   10  A    between atoms: C_14  and  C_22
   11  A    between atoms: S_18  and  C_25
   12  A    between atoms: C_23  and  C_31
   13  A    between atoms: N_27  and  C_30
   14  A    between atoms: C_33  and  C_34
                            x       y       z     vdW  Elec       q    Type
                         _______ _______ _______ _____ _____    ______ ____

>  <TORSDO>
F 14

$$$$
=
 OpenBabel11042411543D

 37 40  0  0  1  0  0  0  0  0999 V2000
  182.0990  178.2870  140.7360 C   0  0  0  0  0  0  0  0  0  0  0  0
  181.8020  177.0510  140.0930 N   0  0  0  0  0  0  0  0  0  0  0  0
  180.8820  176.1300  139.3590 C   0  0  1  0  0  3  0  0  0  0  0  0
  181.2290  179.1960  140.7680 O   0  0  0  0  0  0  0  0  0  0  0  0
  182.1690  175.6920  139.6010 C   0  0  1  0  0  3  0  0  0  0  0  0
  183.6960  178.2490  142.6050 O   0  0  0  0  0  0  0  0  0  0  0  0
  184.5390  179.0000  140.6930 C   0  0  0  0  0  3  0  0  0  0  0  0
  186.6730  179.3680  141.5780 O   0  0  0  0  0  0  0  0  0  0  0  0
  184.9360  178.5360  142.8560 N   0  0  0  0  0  0  0  0  0  0  0  0
  183.4160  178.5050  141.3460 C   0  0  0  0  0  0  0  0  0  0  0  0
  185.4770  178.9930  141.7070 C   0  0  0  0  0  0  0  0  0  0  0  0
  187.3410  177.4330  145.4990 C   0  0  0  0  0  3  0  0  0  0  0  0
  186.8200  178.0660  146.6310 C   0  0  0  0  0  0  0  0  0  0  0  0
  187.6120  177.8780  148.1810 Cl  0  0  0  0  0  0  0  0  0  0  0  0
  185.6660  178.8460  146.5260 C   0  0  0  0  0  3  0  0  0  0  0  0
  185.0380  179.0000  145.2860 C   0  0  0  0  0  3  0  0  0  0  0  0
  185.5570  178.3730  144.1430 C   0  0  0  0  0  0  0  0  0  0  0  0
  186.7120  177.5880  144.2610 C   0  0  0  0  0  3  0  0  0  0  0  0
  180.0140  174.2810  140.6000 O   0  0  0  0  0  0  0  0  0  0  0  0
  178.9350  176.3050  140.9690 N   0  0  0  0  0  1  0  0  0  0  0  0
  179.9220  175.5050  140.3200 C   0  0  0  0  0  0  0  0  0  0  0  0
  183.0090  175.8330  138.3440 C   0  0  0  0  0  2  0  0  0  0  0  0
  182.5380  177.0160  137.5170 C   0  0  0  0  0  2  0  0  0  0  0  0
  183.6470  177.4980  136.5990 C   0  0  1  0  0  3  0  0  0  0  0  0
  184.3830  176.3440  136.1030 C   0  0  1  0  0  3  0  0  0  0  0  0
  183.4010  177.0100  135.2340 N   0  0  0  0  0  2  0  0  0  0  0  0
  185.7810  176.7610  135.7000 C   0  0  0  0  0  2  0  0  0  0  0  0
  186.7390  175.5930  135.9100 C   0  0  0  0  0  2  0  0  0  0  0  0
  187.8590  175.9280  136.8930 C   0  0  1  0  0  3  0  0  0  0  0  0
  188.9210  174.8360  136.9410 C   0  0  0  0  0  2  0  0  0  0  0  0
  190.1850  175.4030  137.1150 O   0  0  0  0  0  0  0  0  0  0  0  0
  190.5720  174.9830  138.3000 O   0  0  0  0  0  1  0  0  0  0  0  0
  188.6180  177.5360  136.4930 S   0  0  0  0  0  0  0  0  0  0  0  0
  188.3060  178.2020  138.1260 C   0  0  0  0  0  0  0  0  0  0  0  0
  187.1970  178.6270  138.4070 O   0  0  0  0  0  0  0  0  0  0  0  0
  189.1140  177.3960  140.2510 N   0  0  0  0  0  1  0  0  0  0  0  0
  189.4120  178.2680  139.1270 C   0  0  0  0  0  2  0  0  0  0  0  0
  1  4  2  0  0  0  0
  1 10  1  0  0  0  0
  2  1  1  0  0  0  0
  3  5  1  0  0  0  0
  3  2  1  0  0  0  0
  3 21  1  1  0  0  0
  5 22  1  6  0  0  0
  5  2  1  0  0  0  0
  6  9  1  0  0  0  0
  7 10  2  0  0  0  0
  7 11  1  0  0  0  0
  8 11  2  0  0  0  0
  9 17  1  0  0  0  0
 10  6  1  0  0  0  0
 11  9  1  0  0  0  0
 12 13  1  0  0  0  0
 13 14  1  0  0  0  0
 15 13  2  0  0  0  0
 16 15  1  0  0  0  0
 17 18  1  0  0  0  0
 17 16  2  0  0  0  0
 18 12  2  0  0  0  0
 21 19  2  0  0  0  0
 21 20  1  0  0  0  0
 23 22  1  0  0  0  0
 24 23  1  1  0  0  0
 25 27  1  6  0  0  0
 25 24  1  0  0  0  0
 26 25  1  0  0  0  0
 26 24  1  0  0  0  0
 27 28  1  0  0  0  0
 29 28  1  6  0  0  0
 29 30  1  0  0  0  0
 30 31  1  0  0  0  0
 31 32  1  0  0  0  0
 33 29  1  0  0  0  0
 33 34  1  0  0  0  0
 34 35  2  0  0  0  0
 34 37  1  0  0  0  0
 37 36  1  0  0  0  0
M  END
>  <MODEL>
8

>  <REMARK>
 VINA RESULT:      -7.0      3.758      8.782
  Name = 
  14 active torsions:
  status: ('A' for Active; 'I' for Inactive)
    1  A    between atoms: C_2  and  O_7
    2  A    between atoms: C_2  and  C_25
    3  A    between atoms: C_3  and  C_29
    4  A    between atoms: C_5  and  S_18
    5  A    between atoms: C_5  and  C_37
    6  A    between atoms: C_6  and  C_14
    7  A    between atoms: C_6  and  C_25
    8  A    between atoms: C_8  and  C_13
    9  A    between atoms: C_13  and  C_33
   10  A    between atoms: C_14  and  C_22
   11  A    between atoms: S_18  and  C_25
   12  A    between atoms: C_23  and  C_31
   13  A    between atoms: N_27  and  C_30
   14  A    between atoms: C_33  and  C_34
                            x       y       z     vdW  Elec       q    Type
                         _______ _______ _______ _____ _____    ______ ____

>  <TORSDO>
F 14

$$$$
=
 OpenBabel11042411543D

 37 40  0  0  1  0  0  0  0  0999 V2000
  190.2020  178.4790  143.2840 C   0  0  0  0  0  0  0  0  0  0  0  0
  189.5870  177.8210  144.3880 N   0  0  0  0  0  0  0  0  0  0  0  0
  189.3390  177.6460  145.8520 C   0  0  1  0  0  3  0  0  0  0  0  0
  190.9450  179.4740  143.4880 O   0  0  0  0  0  0  0  0  0  0  0  0
  188.6740  176.8030  144.9830 C   0  0  1  0  0  3  0  0  0  0  0  0
  190.8670  177.4220  141.1670 O   0  0  0  0  0  0  0  0  0  0  0  0
  188.7560  178.1090  141.2260 C   0  0  0  0  0  3  0  0  0  0  0  0
  188.2760  177.3790  139.0560 O   0  0  0  0  0  0  0  0  0  0  0  0
  190.3630  177.1140  140.0110 N   0  0  0  0  0  0  0  0  0  0  0  0
  189.9590  178.0090  141.9150 C   0  0  0  0  0  0  0  0  0  0  0  0
  189.0760  177.5180  140.0200 C   0  0  0  0  0  0  0  0  0  0  0  0
  193.1910  176.1190  137.7750 C   0  0  0  0  0  3  0  0  0  0  0  0
  192.5720  175.1810  136.9440 C   0  0  0  0  0  0  0  0  0  0  0  0
  193.4940  174.3780  135.6910 Cl  0  0  0  0  0  0  0  0  0  0  0  0
  191.2170  174.8860  137.1120 C   0  0  0  0  0  3  0  0  0  0  0  0
  190.4830  175.5240  138.1160 C   0  0  0  0  0  3  0  0  0  0  0  0
  191.0970  176.4630  138.9600 C   0  0  0  0  0  0  0  0  0  0  0  0
  192.4560  176.7550  138.7780 C   0  0  0  0  0  3  0  0  0  0  0  0
  191.6780  177.2600  146.1550 O   0  0  0  0  0  0  0  0  0  0  0  0
  190.2880  175.9690  147.4950 N   0  0  0  0  0  1  0  0  0  0  0  0
  190.5020  176.9480  146.4810 C   0  0  0  0  0  0  0  0  0  0  0  0
  187.2390  177.2660  144.8080 C   0  0  0  0  0  2  0  0  0  0  0  0
  186.8020  178.1100  145.9920 C   0  0  0  0  0  2  0  0  0  0  0  0
  185.6680  179.0380  145.5930 C   0  0  1  0  0  3  0  0  0  0  0  0
  184.6180  178.2550  144.9580 C   0  0  1  0  0  3  0  0  0  0  0  0
  184.4590  178.6910  146.3530 N   0  0  0  0  0  2  0  0  0  0  0  0
  183.7930  179.1420  144.0520 C   0  0  0  0  0  2  0  0  0  0  0  0
  183.9180  178.6540  142.6120 C   0  0  0  0  0  2  0  0  0  0  0  0
  182.5620  178.3470  141.9800 C   0  0  1  0  0  3  0  0  0  0  0  0
  181.4070  178.8650  142.8280 C   0  0  0  0  0  2  0  0  0  0  0  0
  180.1890  178.5540  142.2210 O   0  0  0  0  0  0  0  0  0  0  0  0
  179.3930  178.2460  143.2230 O   0  0  0  0  0  1  0  0  0  0  0  0
  182.4630  179.0220  140.2910 S   0  0  0  0  0  0  0  0  0  0  0  0
  183.0500  177.5030  139.5430 C   0  0  0  0  0  0  0  0  0  0  0  0
  182.7180  176.4280  140.0130 O   0  0  0  0  0  0  0  0  0  0  0  0
  183.2020  177.5000  137.1350 N   0  0  0  0  0  1  0  0  0  0  0  0
  183.9700  177.5590  138.3680 C   0  0  0  0  0  2  0  0  0  0  0  0
  1  4  2  0  0  0  0
  1  2  1  0  0  0  0
  2  5  1  0  0  0  0
  2  3  1  0  0  0  0
  3 21  1  1  0  0  0
  5 22  1  6  0  0  0
  5  3  1  0  0  0  0
  6 10  1  0  0  0  0
  7 10  2  0  0  0  0
  8 11  2  0  0  0  0
  9 11  1  0  0  0  0
  9  6  1  0  0  0  0
 10  1  1  0  0  0  0
 11  7  1  0  0  0  0
 12 18  1  0  0  0  0
 13 15  1  0  0  0  0
 13 12  2  0  0  0  0
 14 13  1  0  0  0  0
 15 16  2  0  0  0  0
 16 17  1  0  0  0  0
 17  9  1  0  0  0  0
 18 17  2  0  0  0  0
 19 21  2  0  0  0  0
 21 20  1  0  0  0  0
 22 23  1  0  0  0  0
 24 23  1  1  0  0  0
 24 26  1  0  0  0  0
 25 27  1  6  0  0  0
 25 24  1  0  0  0  0
 25 26  1  0  0  0  0
 28 27  1  0  0  0  0
 29 28  1  1  0  0  0
 29 30  1  0  0  0  0
 31 30  1  0  0  0  0
 31 32  1  0  0  0  0
 33 29  1  0  0  0  0
 34 35  2  0  0  0  0
 34 33  1  0  0  0  0
 36 37  1  0  0  0  0
 37 34  1  0  0  0  0
M  END
>  <MODEL>
9

>  <REMARK>
 VINA RESULT:      -7.0      2.547      3.425
  Name = 
  14 active torsions:
  status: ('A' for Active; 'I' for Inactive)
    1  A    between atoms: C_2  and  O_7
    2  A    between atoms: C_2  and  C_25
    3  A    between atoms: C_3  and  C_29
    4  A    between atoms: C_5  and  S_18
    5  A    between atoms: C_5  and  C_37
    6  A    between atoms: C_6  and  C_14
    7  A    between atoms: C_6  and  C_25
    8  A    between atoms: C_8  and  C_13
    9  A    between atoms: C_13  and  C_33
   10  A    between atoms: C_14  and  C_22
   11  A    between atoms: S_18  and  C_25
   12  A    between atoms: C_23  and  C_31
   13  A    between atoms: N_27  and  C_30
   14  A    between atoms: C_33  and  C_34
                            x       y       z     vdW  Elec       q    Type
                         _______ _______ _______ _____ _____    ______ ____

>  <TORSDO>
F 14

$$$$
