=
 OpenBabel11032419463D

 45 50  0  0  1  0  0  0  0  0999 V2000
  183.1950  178.4770  144.2780 C   0  0  0  0  0  2  0  0  0  0  0  0
  185.3920  178.6240  143.0960 C   0  0  0  0  0  2  0  0  0  0  0  0
  184.5490  179.1900  144.2370 C   0  0  2  0  0  3  0  0  0  0  0  0
  184.6460  179.1520  139.4520 C   0  0  0  0  0  0  0  0  0  0  0  0
  183.2210  179.0730  139.3730 N   0  0  0  0  0  2  0  0  0  0  0  0
  184.6460  178.7450  141.8030 C   0  0  0  0  0  0  0  0  0  0  0  0
  182.4920  178.5520  142.9510 C   0  0  0  0  0  3  0  0  0  0  0  0
  185.3050  178.9670  140.7080 N   0  0  0  0  0  0  0  0  0  0  0  0
  185.3190  179.4070  138.4210 O   0  0  0  0  0  0  0  0  0  0  0  0
  182.4060  178.6040  140.4940 C   0  0  2  0  0  3  0  0  0  0  0  0
  183.1640  178.6320  141.7970 C   0  0  0  0  0  0  0  0  0  0  0  0
  185.2930  179.0110  145.5510 C   0  0  0  0  0  2  0  0  0  0  0  0
  189.4070  177.9110  144.7060 C   0  0  0  0  0  2  0  0  0  0  0  0
  190.3420  176.7420  144.4140 C   0  0  0  0  0  2  0  0  0  0  0  0
  188.8890  177.7870  146.0640 N   0  0  0  0  0  0  0  0  0  0  0  0
  186.6550  178.5580  145.3080 N   0  0  0  0  0  2  0  0  0  0  0  0
  187.5420  178.1720  146.3640 C   0  0  0  0  0  0  0  0  0  0  0  0
  191.7870  176.2030  147.7490 N   0  0  0  0  0  1  0  0  0  0  0  0
  192.1600  175.6030  145.1010 O   0  0  0  0  0  1  0  0  0  0  0  0
  187.1310  178.1540  147.5570 O   0  0  0  0  0  0  0  0  0  0  0  0
  190.7640  176.3660  146.7270 C   0  0  1  0  0  3  0  0  0  0  0  0
  189.8330  177.5040  147.1410 C   0  0  0  0  0  2  0  0  0  0  0  0
  191.3880  176.6660  145.4330 N   0  0  0  0  0  0  0  0  0  0  0  0
  181.8120  177.2160  140.2130 C   0  0  1  0  0  3  0  0  0  0  0  0
  180.5030  177.1310  140.6980 O   0  0  0  0  0  0  0  0  0  0  0  0
  179.9450  178.3860  140.4440 C   0  0  0  0  0  2  0  0  0  0  0  0
  179.0410  178.7950  141.5940 C   0  0  2  0  0  3  0  0  0  0  0  0
  179.2500  180.5560  141.9600 S   0  0  0  0  0  0  0  0  0  0  0  0
  178.9310  178.7660  143.8840 N   0  0  0  0  0  2  0  0  0  0  0  0
  179.3940  178.0340  142.7810 N   0  0  0  0  0  2  0  0  0  0  0  0
  179.4060  180.1280  143.7090 C   0  0  0  0  0  2  0  0  0  0  0  0
  181.8840  176.7950  138.7420 C   0  0  0  0  0  2  0  0  0  0  0  0
  185.2010  176.5150  136.0480 N   0  0  0  0  0  2  0  0  0  0  0  0
  185.7270  175.1820  136.2890 C   0  0  2  0  0  3  0  0  0  0  0  0
  182.8060  175.6840  138.5590 N   0  0  0  0  0  2  0  0  0  0  0  0
  184.8200  174.6120  137.3850 C   0  0  0  0  0  2  0  0  0  0  0  0
  184.1030  176.7610  136.8700 N   0  0  0  0  0  0  0  0  0  0  0  0
  183.8740  175.7370  137.6130 C   0  0  0  0  0  0  0  0  0  0  0  0
  187.1590  175.2840  136.7910 C   0  0  0  0  0  2  0  0  0  0  0  0
  188.5750  179.0350  137.3880 N   0  0  0  0  0  2  0  0  0  0  0  0
  187.5280  176.6780  136.9800 N   0  0  0  0  0  0  0  0  0  0  0  0
  188.5390  178.2350  138.6140 C   0  0  0  0  0  2  0  0  0  0  0  0
  188.0220  176.8110  138.3510 C   0  0  0  0  0  2  0  0  0  0  0  0
  188.6300  176.9510  136.0540 C   0  0  0  0  0  2  0  0  0  0  0  0
  189.3050  178.2990  136.3560 C   0  0  0  0  0  2  0  0  0  0  0  0
  2  3  1  0  0  0  0
  3  1  1  0  0  0  0
  3 12  1  1  0  0  0
  4  8  1  0  0  0  0
  5  4  1  0  0  0  0
  5 10  1  0  0  0  0
  6  2  1  0  0  0  0
  7  1  1  0  0  0  0
  8  6  2  0  0  0  0
  9  4  2  0  0  0  0
 10 24  1  6  0  0  0
 10 11  1  0  0  0  0
 11  6  1  0  0  0  0
 11  7  2  0  0  0  0
 13 15  1  0  0  0  0
 14 13  1  0  0  0  0
 14 23  1  0  0  0  0
 15 17  1  0  0  0  0
 15 22  1  0  0  0  0
 16 12  1  0  0  0  0
 16 17  1  0  0  0  0
 17 20  2  0  0  0  0
 19 23  1  0  0  0  0
 21 22  1  0  0  0  0
 21 18  1  1  0  0  0
 23 21  1  0  0  0  0
 24 32  1  6  0  0  0
 24 25  1  0  0  0  0
 26 25  1  0  0  0  0
 27 26  1  6  0  0  0
 27 28  1  0  0  0  0
 27 30  1  0  0  0  0
 28 31  1  0  0  0  0
 30 29  1  0  0  0  0
 31 29  1  0  0  0  0
 33 34  1  0  0  0  0
 33 37  1  0  0  0  0
 34 39  1  1  0  0  0
 34 36  1  0  0  0  0
 35 32  1  0  0  0  0
 36 38  1  0  0  0  0
 37 38  2  0  0  0  0
 38 35  1  0  0  0  0
 39 41  1  0  0  0  0
 40 42  1  0  0  0  0
 41 43  1  0  0  0  0
 43 42  1  0  0  0  0
 44 45  1  0  0  0  0
 44 41  1  0  0  0  0
 45 40  1  0  0  0  0
M  END
>  <MODEL>
1

>  <REMARK>
 VINA RESULT:      -8.7      0.000      0.000
  Name = 
  10 active torsions:
  status: ('A' for Active; 'I' for Inactive)
    1  A    between atoms: C_5  and  C_40
    2  A    between atoms: C_7  and  C_21
    3  A    between atoms: N_10  and  C_21
    4  A    between atoms: C_13  and  N_17
    5  A    between atoms: C_13  and  C_26
    6  A    between atoms: C_22  and  C_44
    7  A    between atoms: O_25  and  C_40
    8  A    between atoms: O_25  and  C_44
    9  A    between atoms: N_27  and  C_32
   10  A    between atoms: C_32  and  C_44
                            x       y       z     vdW  Elec       q    Type
                         _______ _______ _______ _____ _____    ______ ____

>  <TORSDO>
F 10

$$$$
=
 OpenBabel11032419463D

 45 50  0  0  1  0  0  0  0  0999 V2000
  189.2960  178.0020  140.1100 C   0  0  0  0  0  2  0  0  0  0  0  0
  190.9620  176.2900  139.3760 C   0  0  0  0  0  2  0  0  0  0  0  0
  190.7610  177.5640  140.1930 C   0  0  2  0  0  3  0  0  0  0  0  0
  190.7980  176.1360  135.6250 C   0  0  0  0  0  0  0  0  0  0  0  0
  189.7290  177.0210  135.2860 N   0  0  0  0  0  2  0  0  0  0  0  0
  190.5150  176.5140  137.9640 C   0  0  0  0  0  0  0  0  0  0  0  0
  188.8470  178.1560  138.6830 C   0  0  0  0  0  3  0  0  0  0  0  0
  191.1390  175.9160  136.9960 N   0  0  0  0  0  0  0  0  0  0  0  0
  191.4560  175.5680  134.7160 O   0  0  0  0  0  0  0  0  0  0  0  0
  188.8210  177.5630  136.2970 C   0  0  2  0  0  3  0  0  0  0  0  0
  189.3810  177.4350  137.6900 C   0  0  0  0  0  0  0  0  0  0  0  0
  191.1650  177.3070  141.6350 C   0  0  0  0  0  2  0  0  0  0  0  0
  187.5960  177.0230  144.0910 C   0  0  0  0  0  2  0  0  0  0  0  0
  186.5380  177.8290  144.8370 C   0  0  0  0  0  2  0  0  0  0  0  0
  188.8940  177.2310  144.7230 N   0  0  0  0  0  0  0  0  0  0  0  0
  189.9930  177.2940  142.5000 N   0  0  0  0  0  2  0  0  0  0  0  0
  190.0840  177.2990  143.9280 C   0  0  0  0  0  0  0  0  0  0  0  0
  187.8640  177.6540  148.2590 N   0  0  0  0  0  1  0  0  0  0  0  0
  185.5980  178.2540  146.8390 O   0  0  0  0  0  1  0  0  0  0  0  0
  191.2130  177.3800  144.4870 O   0  0  0  0  0  0  0  0  0  0  0  0
  187.8450  177.9030  146.8250 C   0  0  1  0  0  3  0  0  0  0  0  0
  188.9830  177.1170  146.1760 C   0  0  0  0  0  2  0  0  0  0  0  0
  186.5560  177.4910  146.2600 N   0  0  0  0  0  0  0  0  0  0  0  0
  187.4230  176.9370  136.1880 C   0  0  1  0  0  3  0  0  0  0  0  0
  187.2990  175.8470  137.0560 O   0  0  0  0  0  0  0  0  0  0  0  0
  187.3020  174.7250  136.2240 C   0  0  0  0  0  2  0  0  0  0  0  0
  186.7130  173.5320  136.9570 C   0  0  2  0  0  3  0  0  0  0  0  0
  186.5140  172.1350  135.8220 S   0  0  0  0  0  0  0  0  0  0  0  0
  184.7080  172.6840  137.6780 N   0  0  0  0  0  2  0  0  0  0  0  0
  185.4050  173.8860  137.4830 N   0  0  0  0  0  2  0  0  0  0  0  0
  184.8300  171.9280  136.4440 C   0  0  0  0  0  2  0  0  0  0  0  0
  186.2770  177.9330  136.3870 C   0  0  0  0  0  2  0  0  0  0  0  0
  184.4260  179.7020  139.8200 N   0  0  0  0  0  2  0  0  0  0  0  0
  183.4940  178.6820  140.2710 C   0  0  2  0  0  3  0  0  0  0  0  0
  185.2380  177.3750  137.2410 N   0  0  0  0  0  2  0  0  0  0  0  0
  183.6700  177.5400  139.2640 C   0  0  0  0  0  2  0  0  0  0  0  0
  185.1110  179.2680  138.6870 N   0  0  0  0  0  0  0  0  0  0  0  0
  184.7150  178.0890  138.3600 C   0  0  0  0  0  0  0  0  0  0  0  0
  182.0760  179.2260  140.2070 C   0  0  0  0  0  2  0  0  0  0  0  0
  179.7980  178.0750  143.3560 N   0  0  0  0  0  2  0  0  0  0  0  0
  181.2740  178.6740  141.2870 N   0  0  0  0  0  0  0  0  0  0  0  0
  181.1230  178.5550  143.7530 C   0  0  0  0  0  2  0  0  0  0  0  0
  181.9530  179.0070  142.5410 C   0  0  0  0  0  2  0  0  0  0  0  0
  179.9840  179.3660  141.2520 C   0  0  0  0  0  2  0  0  0  0  0  0
  179.1540  179.0850  142.5160 C   0  0  0  0  0  2  0  0  0  0  0  0
  1  3  1  0  0  0  0
  2  3  1  0  0  0  0
  3 12  1  1  0  0  0
  4  8  1  0  0  0  0
  5  4  1  0  0  0  0
  5 10  1  0  0  0  0
  6  2  1  0  0  0  0
  7  1  1  0  0  0  0
  8  6  2  0  0  0  0
  9  4  2  0  0  0  0
 10 24  1  1  0  0  0
 10 11  1  0  0  0  0
 11  6  1  0  0  0  0
 11  7  2  0  0  0  0
 12 16  1  0  0  0  0
 13 15  1  0  0  0  0
 13 14  1  0  0  0  0
 14 23  1  0  0  0  0
 15 22  1  0  0  0  0
 16 17  1  0  0  0  0
 17 20  2  0  0  0  0
 17 15  1  0  0  0  0
 21 18  1  1  0  0  0
 22 21  1  0  0  0  0
 23 21  1  0  0  0  0
 23 19  1  0  0  0  0
 24 32  1  1  0  0  0
 24 25  1  0  0  0  0
 26 25  1  0  0  0  0
 27 26  1  6  0  0  0
 27 30  1  0  0  0  0
 28 31  1  0  0  0  0
 28 27  1  0  0  0  0
 30 29  1  0  0  0  0
 31 29  1  0  0  0  0
 32 35  1  0  0  0  0
 33 34  1  0  0  0  0
 34 39  1  6  0  0  0
 35 38  1  0  0  0  0
 36 34  1  0  0  0  0
 37 33  1  0  0  0  0
 38 37  2  0  0  0  0
 38 36  1  0  0  0  0
 39 41  1  0  0  0  0
 40 42  1  0  0  0  0
 41 43  1  0  0  0  0
 43 42  1  0  0  0  0
 44 41  1  0  0  0  0
 44 45  1  0  0  0  0
 45 40  1  0  0  0  0
M  END
>  <MODEL>
2

>  <REMARK>
 VINA RESULT:      -8.5      3.058      7.351
  Name = 
  10 active torsions:
  status: ('A' for Active; 'I' for Inactive)
    1  A    between atoms: C_5  and  C_40
    2  A    between atoms: C_7  and  C_21
    3  A    between atoms: N_10  and  C_21
    4  A    between atoms: C_13  and  N_17
    5  A    between atoms: C_13  and  C_26
    6  A    between atoms: C_22  and  C_44
    7  A    between atoms: O_25  and  C_40
    8  A    between atoms: O_25  and  C_44
    9  A    between atoms: N_27  and  C_32
   10  A    between atoms: C_32  and  C_44
                            x       y       z     vdW  Elec       q    Type
                         _______ _______ _______ _____ _____    ______ ____

>  <TORSDO>
F 10

$$$$
=
 OpenBabel11032419463D

 45 50  0  0  1  0  0  0  0  0999 V2000
  186.6760  178.6140  141.8900 C   0  0  0  0  0  2  0  0  0  0  0  0
  187.3030  176.8080  143.5010 C   0  0  0  0  0  2  0  0  0  0  0  0
  186.6190  178.1660  143.3530 C   0  0  2  0  0  3  0  0  0  0  0  0
  191.0020  176.2540  143.1460 C   0  0  0  0  0  0  0  0  0  0  0  0
  191.3810  177.1140  142.0690 N   0  0  0  0  0  2  0  0  0  0  0  0
  188.7060  176.8860  142.9850 C   0  0  0  0  0  0  0  0  0  0  0  0
  188.0880  178.6200  141.3710 C   0  0  0  0  0  3  0  0  0  0  0  0
  189.6330  176.1780  143.5530 N   0  0  0  0  0  0  0  0  0  0  0  0
  191.8750  175.5820  143.7520 O   0  0  0  0  0  0  0  0  0  0  0  0
  190.3910  177.7750  141.2180 C   0  0  2  0  0  3  0  0  0  0  0  0
  189.0220  177.7890  141.8470 C   0  0  0  0  0  0  0  0  0  0  0  0
  185.1790  178.0600  143.8270 C   0  0  0  0  0  2  0  0  0  0  0  0
  182.4440  178.1710  140.4560 C   0  0  0  0  0  2  0  0  0  0  0  0
  181.9730  179.0070  139.2710 C   0  0  0  0  0  2  0  0  0  0  0  0
  182.0920  178.8540  141.6970 N   0  0  0  0  0  0  0  0  0  0  0  0
  184.2600  178.1920  142.7050 N   0  0  0  0  0  2  0  0  0  0  0  0
  182.9710  178.8020  142.8270 C   0  0  0  0  0  0  0  0  0  0  0  0
  178.9310  180.5040  140.6850 N   0  0  0  0  0  1  0  0  0  0  0  0
  180.2190  180.0420  138.3100 O   0  0  0  0  0  1  0  0  0  0  0  0
  182.6170  179.3100  143.9260 O   0  0  0  0  0  0  0  0  0  0  0  0
  180.3330  180.1310  140.5800 C   0  0  1  0  0  3  0  0  0  0  0  0
  180.7340  179.3680  141.8420 C   0  0  0  0  0  2  0  0  0  0  0  0
  180.5440  179.2960  139.3930 N   0  0  0  0  0  0  0  0  0  0  0  0
  190.3640  177.1610  139.8110 C   0  0  1  0  0  3  0  0  0  0  0  0
  189.4110  177.8000  139.0110 O   0  0  0  0  0  0  0  0  0  0  0  0
  188.9470  176.8070  138.1450 C   0  0  0  0  0  2  0  0  0  0  0  0
  187.4300  176.8280  138.0930 C   0  0  2  0  0  3  0  0  0  0  0  0
  186.8410  175.9960  136.5960 S   0  0  0  0  0  0  0  0  0  0  0  0
  185.6760  178.1880  137.5140 N   0  0  0  0  0  2  0  0  0  0  0  0
  186.9670  178.2060  138.0640 N   0  0  0  0  0  2  0  0  0  0  0  0
  185.7550  177.4080  136.2910 C   0  0  0  0  0  2  0  0  0  0  0  0
  191.7300  177.1270  139.1200 C   0  0  0  0  0  2  0  0  0  0  0  0
  194.9570  175.9320  136.5710 N   0  0  0  0  0  2  0  0  0  0  0  0
  194.7140  174.5160  136.3510 C   0  0  2  0  0  3  0  0  0  0  0  0
  192.0160  175.8030  138.5860 N   0  0  0  0  0  2  0  0  0  0  0  0
  193.4480  174.2210  137.1620 C   0  0  0  0  0  2  0  0  0  0  0  0
  193.9760  176.4710  137.4020 N   0  0  0  0  0  0  0  0  0  0  0  0
  193.1390  175.5560  137.7410 C   0  0  0  0  0  0  0  0  0  0  0  0
  195.8840  173.7100  136.8900 C   0  0  0  0  0  2  0  0  0  0  0  0
  198.3580  175.6770  139.4280 N   0  0  0  0  0  2  0  0  0  0  0  0
  196.7200  174.5420  137.7420 N   0  0  0  0  0  0  0  0  0  0  0  0
  197.2440  175.0170  140.1120 C   0  0  0  0  0  2  0  0  0  0  0  0
  196.3390  174.2590  139.1270 C   0  0  0  0  0  2  0  0  0  0  0  0
  198.1020  174.1040  137.5340 C   0  0  0  0  0  2  0  0  0  0  0  0
  199.0500  174.7010  138.5870 C   0  0  0  0  0  2  0  0  0  0  0  0
  1  3  1  0  0  0  0
  3  2  1  0  0  0  0
  3 12  1  6  0  0  0
  4  8  1  0  0  0  0
  4  9  2  0  0  0  0
  5  4  1  0  0  0  0
  6  2  1  0  0  0  0
  6  8  2  0  0  0  0
  7 11  2  0  0  0  0
  7  1  1  0  0  0  0
 10 24  1  6  0  0  0
 10 11  1  0  0  0  0
 10  5  1  0  0  0  0
 11  6  1  0  0  0  0
 13 15  1  0  0  0  0
 14 23  1  0  0  0  0
 14 13  1  0  0  0  0
 15 22  1  0  0  0  0
 15 17  1  0  0  0  0
 16 17  1  0  0  0  0
 16 12  1  0  0  0  0
 17 20  2  0  0  0  0
 19 23  1  0  0  0  0
 21 18  1  1  0  0  0
 21 22  1  0  0  0  0
 23 21  1  0  0  0  0
 24 32  1  6  0  0  0
 25 24  1  0  0  0  0
 26 25  1  0  0  0  0
 27 26  1  6  0  0  0
 28 27  1  0  0  0  0
 29 30  1  0  0  0  0
 30 27  1  0  0  0  0
 31 28  1  0  0  0  0
 31 29  1  0  0  0  0
 33 37  1  0  0  0  0
 34 33  1  0  0  0  0
 34 39  1  1  0  0  0
 34 36  1  0  0  0  0
 35 32  1  0  0  0  0
 36 38  1  0  0  0  0
 37 38  2  0  0  0  0
 38 35  1  0  0  0  0
 39 41  1  0  0  0  0
 40 42  1  0  0  0  0
 41 43  1  0  0  0  0
 43 42  1  0  0  0  0
 44 41  1  0  0  0  0
 44 45  1  0  0  0  0
 45 40  1  0  0  0  0
M  END
>  <MODEL>
3

>  <REMARK>
 VINA RESULT:      -8.0      4.928      8.977
  Name = 
  10 active torsions:
  status: ('A' for Active; 'I' for Inactive)
    1  A    between atoms: C_5  and  C_40
    2  A    between atoms: C_7  and  C_21
    3  A    between atoms: N_10  and  C_21
    4  A    between atoms: C_13  and  N_17
    5  A    between atoms: C_13  and  C_26
    6  A    between atoms: C_22  and  C_44
    7  A    between atoms: O_25  and  C_40
    8  A    between atoms: O_25  and  C_44
    9  A    between atoms: N_27  and  C_32
   10  A    between atoms: C_32  and  C_44
                            x       y       z     vdW  Elec       q    Type
                         _______ _______ _______ _____ _____    ______ ____

>  <TORSDO>
F 10

$$$$
=
 OpenBabel11032419463D

 45 50  0  0  1  0  0  0  0  0999 V2000
  183.4440  178.6830  144.8080 C   0  0  0  0  0  2  0  0  0  0  0  0
  185.5800  178.2970  143.5690 C   0  0  0  0  0  2  0  0  0  0  0  0
  184.9250  179.0620  144.7170 C   0  0  2  0  0  3  0  0  0  0  0  0
  184.8710  178.9260  139.9330 C   0  0  0  0  0  0  0  0  0  0  0  0
  183.4650  179.1790  139.8910 N   0  0  0  0  0  2  0  0  0  0  0  0
  184.8450  178.5670  142.2920 C   0  0  0  0  0  0  0  0  0  0  0  0
  182.7390  178.8980  143.4960 C   0  0  0  0  0  3  0  0  0  0  0  0
  185.5050  178.6130  141.1760 N   0  0  0  0  0  0  0  0  0  0  0  0
  185.5550  179.0020  138.8810 O   0  0  0  0  0  0  0  0  0  0  0  0
  182.5970  178.9290  141.0420 C   0  0  2  0  0  3  0  0  0  0  0  0
  183.3780  178.8010  142.3250 C   0  0  0  0  0  0  0  0  0  0  0  0
  185.6440  178.7360  146.0160 C   0  0  0  0  0  2  0  0  0  0  0  0
  189.7320  177.6060  145.0830 C   0  0  0  0  0  2  0  0  0  0  0  0
  190.6570  176.4280  144.7970 C   0  0  0  0  0  2  0  0  0  0  0  0
  189.2530  177.5200  146.4580 N   0  0  0  0  0  0  0  0  0  0  0  0
  186.9990  178.2740  145.7470 N   0  0  0  0  0  2  0  0  0  0  0  0
  187.9160  177.9160  146.7860 C   0  0  0  0  0  0  0  0  0  0  0  0
  192.1980  175.9810  148.1020 N   0  0  0  0  0  1  0  0  0  0  0  0
  192.4930  175.3060  145.4620 O   0  0  0  0  0  1  0  0  0  0  0  0
  187.5400  177.9330  147.9910 O   0  0  0  0  0  0  0  0  0  0  0  0
  191.1450  176.1160  147.1060 C   0  0  1  0  0  3  0  0  0  0  0  0
  190.2280  177.2670  147.5150 C   0  0  0  0  0  2  0  0  0  0  0  0
  191.7320  176.3790  145.7870 N   0  0  0  0  0  0  0  0  0  0  0  0
  181.6900  177.7130  140.8060 C   0  0  1  0  0  3  0  0  0  0  0  0
  180.4210  177.9270  141.3550 O   0  0  0  0  0  0  0  0  0  0  0  0
  179.5690  178.0370  140.2540 C   0  0  0  0  0  2  0  0  0  0  0  0
  178.9310  179.4150  140.2250 C   0  0  2  0  0  3  0  0  0  0  0  0
  179.3680  180.2760  138.6930 S   0  0  0  0  0  0  0  0  0  0  0  0
  179.2360  181.5470  141.0110 N   0  0  0  0  0  2  0  0  0  0  0  0
  179.4210  180.1970  141.3480 N   0  0  0  0  0  2  0  0  0  0  0  0
  179.7970  181.7260  139.6830 C   0  0  0  0  0  2  0  0  0  0  0  0
  181.5910  177.2860  139.3390 C   0  0  0  0  0  2  0  0  0  0  0  0
  184.3220  176.5290  136.1290 N   0  0  0  0  0  2  0  0  0  0  0  0
  184.7820  175.1740  136.3820 C   0  0  2  0  0  3  0  0  0  0  0  0
  182.3770  176.0870  139.0860 N   0  0  0  0  0  2  0  0  0  0  0  0
  184.0530  174.7630  137.6660 C   0  0  0  0  0  2  0  0  0  0  0  0
  183.4160  176.9270  137.1110 N   0  0  0  0  0  0  0  0  0  0  0  0
  183.2520  175.9800  137.9650 C   0  0  0  0  0  0  0  0  0  0  0  0
  186.2850  175.1820  136.6110 C   0  0  0  0  0  2  0  0  0  0  0  0
  188.2950  172.0230  135.0560 N   0  0  0  0  0  2  0  0  0  0  0  0
  186.9020  174.0440  135.9470 N   0  0  0  0  0  0  0  0  0  0  0  0
  189.0180  173.2890  134.9120 C   0  0  0  0  0  2  0  0  0  0  0  0
  188.2430  174.4620  135.5330 C   0  0  0  0  0  2  0  0  0  0  0  0
  187.0280  172.9870  136.9520 C   0  0  0  0  0  2  0  0  0  0  0  0
  187.9250  171.8390  136.4590 C   0  0  0  0  0  2  0  0  0  0  0  0
  2  3  1  0  0  0  0
  3  1  1  0  0  0  0
  3 12  1  1  0  0  0
  4  8  1  0  0  0  0
  5  4  1  0  0  0  0
  5 10  1  0  0  0  0
  6 11  1  0  0  0  0
  6  2  1  0  0  0  0
  7  1  1  0  0  0  0
  8  6  2  0  0  0  0
  9  4  2  0  0  0  0
 10 24  1  6  0  0  0
 10 11  1  0  0  0  0
 11  7  2  0  0  0  0
 13 15  1  0  0  0  0
 14 13  1  0  0  0  0
 14 23  1  0  0  0  0
 15 17  1  0  0  0  0
 15 22  1  0  0  0  0
 16 12  1  0  0  0  0
 16 17  1  0  0  0  0
 17 20  2  0  0  0  0
 19 23  1  0  0  0  0
 21 22  1  0  0  0  0
 21 18  1  1  0  0  0
 23 21  1  0  0  0  0
 24 32  1  6  0  0  0
 24 25  1  0  0  0  0
 26 25  1  0  0  0  0
 27 26  1  6  0  0  0
 27 30  1  0  0  0  0
 28 31  1  0  0  0  0
 28 27  1  0  0  0  0
 29 30  1  0  0  0  0
 31 29  1  0  0  0  0
 33 34  1  0  0  0  0
 33 37  1  0  0  0  0
 34 39  1  1  0  0  0
 34 36  1  0  0  0  0
 35 32  1  0  0  0  0
 36 38  1  0  0  0  0
 37 38  2  0  0  0  0
 38 35  1  0  0  0  0
 40 45  1  0  0  0  0
 41 39  1  0  0  0  0
 41 44  1  0  0  0  0
 42 40  1  0  0  0  0
 42 43  1  0  0  0  0
 43 41  1  0  0  0  0
 45 44  1  0  0  0  0
M  END
>  <MODEL>
4

>  <REMARK>
 VINA RESULT:      -7.9      1.743      2.351
  Name = 
  10 active torsions:
  status: ('A' for Active; 'I' for Inactive)
    1  A    between atoms: C_5  and  C_40
    2  A    between atoms: C_7  and  C_21
    3  A    between atoms: N_10  and  C_21
    4  A    between atoms: C_13  and  N_17
    5  A    between atoms: C_13  and  C_26
    6  A    between atoms: C_22  and  C_44
    7  A    between atoms: O_25  and  C_40
    8  A    between atoms: O_25  and  C_44
    9  A    between atoms: N_27  and  C_32
   10  A    between atoms: C_32  and  C_44
                            x       y       z     vdW  Elec       q    Type
                         _______ _______ _______ _____ _____    ______ ____

>  <TORSDO>
F 10

$$$$
=
 OpenBabel11032419463D

 45 50  0  0  1  0  0  0  0  0999 V2000
  185.6780  174.8540  136.9130 C   0  0  0  0  0  2  0  0  0  0  0  0
  185.3730  177.1550  137.8400 C   0  0  0  0  0  2  0  0  0  0  0  0
  184.8210  176.1220  136.8590 C   0  0  2  0  0  3  0  0  0  0  0  0
  188.6380  178.9610  137.3950 C   0  0  0  0  0  0  0  0  0  0  0  0
  189.5150  177.9670  136.8610 N   0  0  0  0  0  2  0  0  0  0  0  0
  186.8130  177.4290  137.5350 C   0  0  0  0  0  0  0  0  0  0  0  0
  187.1310  175.1600  136.6720 C   0  0  0  0  0  3  0  0  0  0  0  0
  187.2880  178.6220  137.7240 N   0  0  0  0  0  0  0  0  0  0  0  0
  189.0450  180.1390  137.5550 O   0  0  0  0  0  0  0  0  0  0  0  0
  189.1520  176.5500  136.8240 C   0  0  2  0  0  3  0  0  0  0  0  0
  187.6710  176.3390  137.0000 C   0  0  0  0  0  0  0  0  0  0  0  0
  183.3760  175.8110  137.2140 C   0  0  0  0  0  2  0  0  0  0  0  0
  182.3110  178.3500  140.5710 C   0  0  0  0  0  2  0  0  0  0  0  0
  181.2160  178.6710  141.5830 C   0  0  0  0  0  2  0  0  0  0  0  0
  181.8420  178.6870  139.2310 N   0  0  0  0  0  0  0  0  0  0  0  0
  182.9280  176.6540  138.3130 N   0  0  0  0  0  2  0  0  0  0  0  0
  182.2080  177.8750  138.1090 C   0  0  0  0  0  0  0  0  0  0  0  0
  179.6770  181.6000  139.9870 N   0  0  0  0  0  1  0  0  0  0  0  0
  179.8220  180.2550  142.3710 O   0  0  0  0  0  1  0  0  0  0  0  0
  181.8820  178.2260  136.9420 O   0  0  0  0  0  0  0  0  0  0  0  0
  180.1820  180.2420  140.1240 C   0  0  1  0  0  3  0  0  0  0  0  0
  181.2120  179.9880  139.0250 C   0  0  0  0  0  2  0  0  0  0  0  0
  180.7940  180.0640  141.4460 N   0  0  0  0  0  0  0  0  0  0  0  0
  189.9660  175.7370  137.8420 C   0  0  1  0  0  3  0  0  0  0  0  0
  190.7120  174.7440  137.1990 O   0  0  0  0  0  0  0  0  0  0  0  0
  191.2360  175.3670  136.0640 C   0  0  0  0  0  2  0  0  0  0  0  0
  192.7250  175.0920  135.9600 C   0  0  2  0  0  3  0  0  0  0  0  0
  193.2040  173.7880  137.1230 S   0  0  0  0  0  0  0  0  0  0  0  0
  194.7500  175.8920  136.6830 N   0  0  0  0  0  2  0  0  0  0  0  0
  193.4640  176.2980  136.2940 N   0  0  0  0  0  2  0  0  0  0  0  0
  194.5730  174.8360  137.6650 C   0  0  0  0  0  2  0  0  0  0  0  0
  190.8540  176.5900  138.7530 C   0  0  0  0  0  2  0  0  0  0  0  0
  188.8080  178.3530  142.0760 N   0  0  0  0  0  2  0  0  0  0  0  0
  189.1280  177.4690  143.1850 C   0  0  2  0  0  3  0  0  0  0  0  0
  190.7980  176.1220  140.1300 N   0  0  0  0  0  2  0  0  0  0  0  0
  190.0080  176.3820  142.5570 C   0  0  0  0  0  2  0  0  0  0  0  0
  189.4070  177.8990  140.9030 N   0  0  0  0  0  0  0  0  0  0  0  0
  190.0690  176.8220  141.1370 C   0  0  0  0  0  0  0  0  0  0  0  0
  187.8490  176.8580  143.7340 C   0  0  0  0  0  2  0  0  0  0  0  0
  185.3360  179.3980  145.6470 N   0  0  0  0  0  2  0  0  0  0  0  0
  187.0410  177.8780  144.3820 N   0  0  0  0  0  0  0  0  0  0  0  0
  184.7670  178.8510  144.4140 C   0  0  0  0  0  2  0  0  0  0  0  0
  185.7320  177.8730  143.7250 C   0  0  0  0  0  2  0  0  0  0  0  0
  186.8700  177.4600  145.7750 C   0  0  0  0  0  2  0  0  0  0  0  0
  185.7980  178.2960  146.4920 C   0  0  0  0  0  2  0  0  0  0  0  0
  3  1  1  0  0  0  0
  3 12  1  1  0  0  0
  3  2  1  0  0  0  0
  4  9  2  0  0  0  0
  4  8  1  0  0  0  0
  5  4  1  0  0  0  0
  6  8  2  0  0  0  0
  6  2  1  0  0  0  0
  7  1  1  0  0  0  0
  7 11  2  0  0  0  0
 10  5  1  0  0  0  0
 10 11  1  0  0  0  0
 10 24  1  1  0  0  0
 11  6  1  0  0  0  0
 12 16  1  0  0  0  0
 13 14  1  0  0  0  0
 15 13  1  0  0  0  0
 17 16  1  0  0  0  0
 17 15  1  0  0  0  0
 20 17  2  0  0  0  0
 21 18  1  1  0  0  0
 21 23  1  0  0  0  0
 22 15  1  0  0  0  0
 22 21  1  0  0  0  0
 23 14  1  0  0  0  0
 23 19  1  0  0  0  0
 24 32  1  6  0  0  0
 25 24  1  0  0  0  0
 26 25  1  0  0  0  0
 27 26  1  1  0  0  0
 27 30  1  0  0  0  0
 27 28  1  0  0  0  0
 28 31  1  0  0  0  0
 29 31  1  0  0  0  0
 30 29  1  0  0  0  0
 32 35  1  0  0  0  0
 33 34  1  0  0  0  0
 34 39  1  6  0  0  0
 35 38  1  0  0  0  0
 36 34  1  0  0  0  0
 37 38  2  0  0  0  0
 37 33  1  0  0  0  0
 38 36  1  0  0  0  0
 39 41  1  0  0  0  0
 40 45  1  0  0  0  0
 41 44  1  0  0  0  0
 42 40  1  0  0  0  0
 43 41  1  0  0  0  0
 43 42  1  0  0  0  0
 44 45  1  0  0  0  0
M  END
>  <MODEL>
5

>  <REMARK>
 VINA RESULT:      -7.7      3.848     10.100
  Name = 
  10 active torsions:
  status: ('A' for Active; 'I' for Inactive)
    1  A    between atoms: C_5  and  C_40
    2  A    between atoms: C_7  and  C_21
    3  A    between atoms: N_10  and  C_21
    4  A    between atoms: C_13  and  N_17
    5  A    between atoms: C_13  and  C_26
    6  A    between atoms: C_22  and  C_44
    7  A    between atoms: O_25  and  C_40
    8  A    between atoms: O_25  and  C_44
    9  A    between atoms: N_27  and  C_32
   10  A    between atoms: C_32  and  C_44
                            x       y       z     vdW  Elec       q    Type
                         _______ _______ _______ _____ _____    ______ ____

>  <TORSDO>
F 10

$$$$
=
 OpenBabel11032419463D

 45 50  0  0  1  0  0  0  0  0999 V2000
  188.7080  172.9480  136.7840 C   0  0  0  0  0  2  0  0  0  0  0  0
  186.8910  174.6070  137.2220 C   0  0  0  0  0  2  0  0  0  0  0  0
  187.2990  173.3950  136.3870 C   0  0  2  0  0  3  0  0  0  0  0  0
  188.4150  178.0230  136.8740 C   0  0  0  0  0  0  0  0  0  0  0  0
  189.8020  177.7650  136.6500 N   0  0  0  0  0  2  0  0  0  0  0  0
  187.9010  175.7000  137.0590 C   0  0  0  0  0  0  0  0  0  0  0  0
  189.6950  174.0780  136.6780 C   0  0  0  0  0  3  0  0  0  0  0  0
  187.5090  176.9370  137.0840 N   0  0  0  0  0  0  0  0  0  0  0  0
  187.9860  179.2050  136.8640 O   0  0  0  0  0  0  0  0  0  0  0  0
  190.3820  176.4340  136.8290 C   0  0  2  0  0  3  0  0  0  0  0  0
  189.3310  175.3540  136.8490 C   0  0  0  0  0  0  0  0  0  0  0  0
  186.2970  172.2720  136.6040 C   0  0  0  0  0  2  0  0  0  0  0  0
  182.3650  174.0730  136.9980 C   0  0  0  0  0  2  0  0  0  0  0  0
  181.2260  174.3590  137.9700 C   0  0  0  0  0  2  0  0  0  0  0  0
  182.4850  172.6310  136.8080 N   0  0  0  0  0  0  0  0  0  0  0  0
  184.9600  172.8130  136.8060 N   0  0  0  0  0  2  0  0  0  0  0  0
  183.7740  172.0260  136.6480 C   0  0  0  0  0  0  0  0  0  0  0  0
  178.9370  171.6100  137.1350 N   0  0  0  0  0  1  0  0  0  0  0  0
  179.0450  174.0260  138.4240 O   0  0  0  0  0  1  0  0  0  0  0  0
  183.8660  170.7950  136.3870 O   0  0  0  0  0  0  0  0  0  0  0  0
  180.1750  172.2710  137.5180 C   0  0  1  0  0  3  0  0  0  0  0  0
  181.2730  171.8660  136.5360 C   0  0  0  0  0  2  0  0  0  0  0  0
  179.9920  173.7270  137.5030 N   0  0  0  0  0  0  0  0  0  0  0  0
  191.2780  176.3770  138.0750 C   0  0  1  0  0  3  0  0  0  0  0  0
  192.5910  176.7410  137.7580 O   0  0  0  0  0  0  0  0  0  0  0  0
  193.0290  175.7590  136.8660 C   0  0  0  0  0  2  0  0  0  0  0  0
  194.4270  175.3000  137.2430 C   0  0  2  0  0  3  0  0  0  0  0  0
  194.5760  173.5070  137.0320 S   0  0  0  0  0  0  0  0  0  0  0  0
  195.7040  174.7640  139.0710 N   0  0  0  0  0  2  0  0  0  0  0  0
  194.6810  175.6210  138.6380 N   0  0  0  0  0  2  0  0  0  0  0  0
  195.3160  173.4200  138.6790 C   0  0  0  0  0  2  0  0  0  0  0  0
  190.7500  177.1930  139.2590 C   0  0  0  0  0  2  0  0  0  0  0  0
  189.9940  178.2820  143.3300 N   0  0  0  0  0  2  0  0  0  0  0  0
  189.7040  177.0130  143.9770 C   0  0  2  0  0  3  0  0  0  0  0  0
  190.3850  176.3280  140.3720 N   0  0  0  0  0  2  0  0  0  0  0  0
  189.8110  175.9830  142.8480 C   0  0  0  0  0  2  0  0  0  0  0  0
  190.2590  178.0890  141.9760 N   0  0  0  0  0  0  0  0  0  0  0  0
  190.1640  176.8400  141.6850 C   0  0  0  0  0  0  0  0  0  0  0  0
  188.2900  177.0380  144.5350 C   0  0  0  0  0  2  0  0  0  0  0  0
  188.1030  178.6540  148.2480 N   0  0  0  0  0  2  0  0  0  0  0  0
  188.2600  177.7470  145.8040 N   0  0  0  0  0  0  0  0  0  0  0  0
  186.7900  178.2750  147.7220 C   0  0  0  0  0  2  0  0  0  0  0  0
  186.8960  177.6430  146.3250 C   0  0  0  0  0  2  0  0  0  0  0  0
  189.1650  177.0330  146.7070 C   0  0  0  0  0  2  0  0  0  0  0  0
  189.0040  177.5040  148.1620 C   0  0  0  0  0  2  0  0  0  0  0  0
  3 12  1  1  0  0  0
  3  1  1  0  0  0  0
  3  2  1  0  0  0  0
  4  8  1  0  0  0  0
  5 10  1  0  0  0  0
  5  4  1  0  0  0  0
  6  8  2  0  0  0  0
  6  2  1  0  0  0  0
  7  1  1  0  0  0  0
  7 11  2  0  0  0  0
  9  4  2  0  0  0  0
 10 11  1  0  0  0  0
 10 24  1  1  0  0  0
 11  6  1  0  0  0  0
 12 16  1  0  0  0  0
 13 14  1  0  0  0  0
 15 13  1  0  0  0  0
 17 16  1  0  0  0  0
 17 15  1  0  0  0  0
 20 17  2  0  0  0  0
 21 18  1  6  0  0  0
 22 15  1  0  0  0  0
 22 21  1  0  0  0  0
 23 21  1  0  0  0  0
 23 14  1  0  0  0  0
 23 19  1  0  0  0  0
 24 32  1  1  0  0  0
 25 24  1  0  0  0  0
 26 25  1  0  0  0  0
 27 26  1  1  0  0  0
 27 30  1  0  0  0  0
 28 27  1  0  0  0  0
 28 31  1  0  0  0  0
 30 29  1  0  0  0  0
 31 29  1  0  0  0  0
 32 35  1  0  0  0  0
 33 34  1  0  0  0  0
 34 39  1  6  0  0  0
 35 38  1  0  0  0  0
 36 34  1  0  0  0  0
 37 33  1  0  0  0  0
 38 37  2  0  0  0  0
 38 36  1  0  0  0  0
 39 41  1  0  0  0  0
 41 43  1  0  0  0  0
 41 44  1  0  0  0  0
 42 40  1  0  0  0  0
 43 42  1  0  0  0  0
 44 45  1  0  0  0  0
 45 40  1  0  0  0  0
M  END
>  <MODEL>
6

>  <REMARK>
 VINA RESULT:      -7.7      4.954     11.430
  Name = 
  10 active torsions:
  status: ('A' for Active; 'I' for Inactive)
    1  A    between atoms: C_5  and  C_40
    2  A    between atoms: C_7  and  C_21
    3  A    between atoms: N_10  and  C_21
    4  A    between atoms: C_13  and  N_17
    5  A    between atoms: C_13  and  C_26
    6  A    between atoms: C_22  and  C_44
    7  A    between atoms: O_25  and  C_40
    8  A    between atoms: O_25  and  C_44
    9  A    between atoms: N_27  and  C_32
   10  A    between atoms: C_32  and  C_44
                            x       y       z     vdW  Elec       q    Type
                         _______ _______ _______ _____ _____    ______ ____

>  <TORSDO>
F 10

$$$$
=
 OpenBabel11032419463D

 45 50  0  0  1  0  0  0  0  0999 V2000
  182.7340  177.0450  139.8710 C   0  0  0  0  0  2  0  0  0  0  0  0
  184.8750  178.3230  140.0440 C   0  0  0  0  0  2  0  0  0  0  0  0
  183.3710  178.3680  140.3040 C   0  0  2  0  0  3  0  0  0  0  0  0
  186.4310  178.3280  136.6240 C   0  0  0  0  0  0  0  0  0  0  0  0
  185.5630  177.5030  135.8450 N   0  0  0  0  0  2  0  0  0  0  0  0
  185.1340  178.0130  138.6020 C   0  0  0  0  0  0  0  0  0  0  0  0
  183.0620  176.7180  138.4400 C   0  0  0  0  0  3  0  0  0  0  0  0
  186.1640  178.5380  138.0130 N   0  0  0  0  0  0  0  0  0  0  0  0
  187.4170  178.8900  136.0830 O   0  0  0  0  0  0  0  0  0  0  0  0
  184.5130  176.6860  136.4560 C   0  0  2  0  0  3  0  0  0  0  0  0
  184.1960  177.1290  137.8610 C   0  0  0  0  0  0  0  0  0  0  0  0
  183.1220  178.6280  141.7810 C   0  0  0  0  0  2  0  0  0  0  0  0
  186.8740  178.0850  143.8970 C   0  0  0  0  0  2  0  0  0  0  0  0
  187.6740  177.1280  144.7740 C   0  0  0  0  0  2  0  0  0  0  0  0
  185.6900  178.5300  144.6250 N   0  0  0  0  0  0  0  0  0  0  0  0
  184.3340  178.3900  142.5530 N   0  0  0  0  0  2  0  0  0  0  0  0
  184.4520  178.7400  143.9350 C   0  0  0  0  0  0  0  0  0  0  0  0
  186.9990  178.5500  148.0930 N   0  0  0  0  0  1  0  0  0  0  0  0
  188.6800  176.8380  146.7680 O   0  0  0  0  0  1  0  0  0  0  0  0
  183.4590  179.2180  144.5510 O   0  0  0  0  0  0  0  0  0  0  0  0
  186.7230  177.9990  146.7750 C   0  0  1  0  0  3  0  0  0  0  0  0
  185.8560  178.9890  146.0010 C   0  0  0  0  0  2  0  0  0  0  0  0
  187.9810  177.7570  146.0590 N   0  0  0  0  0  0  0  0  0  0  0  0
  184.8610  175.1920  136.3970 C   0  0  1  0  0  3  0  0  0  0  0  0
  183.8270  174.4660  135.7960 O   0  0  0  0  0  0  0  0  0  0  0  0
  183.5220  173.4550  136.7100 C   0  0  0  0  0  2  0  0  0  0  0  0
  182.1490  172.8800  136.4110 C   0  0  2  0  0  3  0  0  0  0  0  0
  180.8610  174.0860  136.8200 S   0  0  0  0  0  0  0  0  0  0  0  0
  180.5480  171.5030  137.3070 N   0  0  0  0  0  2  0  0  0  0  0  0
  181.9370  171.6900  137.2180 N   0  0  0  0  0  2  0  0  0  0  0  0
  179.9810  172.7800  137.7050 C   0  0  0  0  0  2  0  0  0  0  0  0
  186.2060  174.8920  135.7270 C   0  0  0  0  0  2  0  0  0  0  0  0
  190.2640  176.2570  135.7720 N   0  0  0  0  0  2  0  0  0  0  0  0
  190.8150  175.6570  136.9770 C   0  0  2  0  0  3  0  0  0  0  0  0
  187.2370  174.6230  136.7180 N   0  0  0  0  0  2  0  0  0  0  0  0
  189.6400  174.8790  137.5800 C   0  0  0  0  0  2  0  0  0  0  0  0
  188.9250  175.9030  135.6210 N   0  0  0  0  0  0  0  0  0  0  0  0
  188.5570  175.1520  136.5970 C   0  0  0  0  0  0  0  0  0  0  0  0
  191.2650  176.7530  137.9290 C   0  0  0  0  0  2  0  0  0  0  0  0
  189.0550  177.1720  141.3020 N   0  0  0  0  0  2  0  0  0  0  0  0
  190.4260  176.7640  139.1180 N   0  0  0  0  0  0  0  0  0  0  0  0
  190.4960  177.1280  141.5630 C   0  0  0  0  0  2  0  0  0  0  0  0
  191.3070  176.9940  140.2650 C   0  0  0  0  0  2  0  0  0  0  0  0
  189.5190  177.9050  138.9830 C   0  0  0  0  0  2  0  0  0  0  0  0
  188.7810  178.2010  140.2990 C   0  0  0  0  0  2  0  0  0  0  0  0
  1  3  1  0  0  0  0
  2  3  1  0  0  0  0
  3 12  1  1  0  0  0
  4  8  1  0  0  0  0
  5 10  1  0  0  0  0
  5  4  1  0  0  0  0
  6  2  1  0  0  0  0
  7  1  1  0  0  0  0
  8  6  2  0  0  0  0
  9  4  2  0  0  0  0
 10 24  1  1  0  0  0
 10 11  1  0  0  0  0
 11  7  2  0  0  0  0
 11  6  1  0  0  0  0
 12 16  1  0  0  0  0
 13 15  1  0  0  0  0
 13 14  1  0  0  0  0
 14 23  1  0  0  0  0
 15 22  1  0  0  0  0
 16 17  1  0  0  0  0
 17 20  2  0  0  0  0
 17 15  1  0  0  0  0
 21 18  1  1  0  0  0
 22 21  1  0  0  0  0
 23 19  1  0  0  0  0
 23 21  1  0  0  0  0
 24 32  1  6  0  0  0
 25 24  1  0  0  0  0
 25 26  1  0  0  0  0
 27 26  1  1  0  0  0
 27 28  1  0  0  0  0
 27 30  1  0  0  0  0
 28 31  1  0  0  0  0
 29 31  1  0  0  0  0
 30 29  1  0  0  0  0
 32 35  1  0  0  0  0
 33 34  1  0  0  0  0
 34 36  1  0  0  0  0
 34 39  1  1  0  0  0
 37 33  1  0  0  0  0
 37 38  2  0  0  0  0
 38 35  1  0  0  0  0
 38 36  1  0  0  0  0
 39 41  1  0  0  0  0
 40 42  1  0  0  0  0
 41 43  1  0  0  0  0
 43 42  1  0  0  0  0
 44 41  1  0  0  0  0
 44 45  1  0  0  0  0
 45 40  1  0  0  0  0
M  END
>  <MODEL>
7

>  <REMARK>
 VINA RESULT:      -7.7      2.934      5.143
  Name = 
  10 active torsions:
  status: ('A' for Active; 'I' for Inactive)
    1  A    between atoms: C_5  and  C_40
    2  A    between atoms: C_7  and  C_21
    3  A    between atoms: N_10  and  C_21
    4  A    between atoms: C_13  and  N_17
    5  A    between atoms: C_13  and  C_26
    6  A    between atoms: C_22  and  C_44
    7  A    between atoms: O_25  and  C_40
    8  A    between atoms: O_25  and  C_44
    9  A    between atoms: N_27  and  C_32
   10  A    between atoms: C_32  and  C_44
                            x       y       z     vdW  Elec       q    Type
                         _______ _______ _______ _____ _____    ______ ____

>  <TORSDO>
F 10

$$$$
=
 OpenBabel11032419463D

 45 50  0  0  1  0  0  0  0  0999 V2000
  188.8330  178.3640  139.8230 C   0  0  0  0  0  2  0  0  0  0  0  0
  190.2900  176.3460  139.5990 C   0  0  0  0  0  2  0  0  0  0  0  0
  190.1320  177.7000  140.2880 C   0  0  2  0  0  3  0  0  0  0  0  0
  191.0050  175.9090  135.9360 C   0  0  0  0  0  0  0  0  0  0  0  0
  190.2250  176.9270  135.3050 N   0  0  0  0  0  2  0  0  0  0  0  0
  190.2420  176.5230  138.1120 C   0  0  0  0  0  0  0  0  0  0  0  0
  188.7740  178.4710  138.3240 C   0  0  0  0  0  3  0  0  0  0  0  0
  190.9610  175.7510  137.3570 N   0  0  0  0  0  0  0  0  0  0  0  0
  191.7470  175.1670  135.2440 O   0  0  0  0  0  0  0  0  0  0  0  0
  189.2140  177.6930  136.0330 C   0  0  2  0  0  3  0  0  0  0  0  0
  189.3910  177.5910  137.5270 C   0  0  0  0  0  0  0  0  0  0  0  0
  190.1260  177.5010  141.7950 C   0  0  0  0  0  2  0  0  0  0  0  0
  186.0450  177.7530  143.2560 C   0  0  0  0  0  2  0  0  0  0  0  0
  184.9320  178.7130  143.6620 C   0  0  0  0  0  2  0  0  0  0  0  0
  187.1570  177.8820  144.1910 N   0  0  0  0  0  0  0  0  0  0  0  0
  188.7800  177.6680  142.3260 N   0  0  0  0  0  2  0  0  0  0  0  0
  188.5090  177.7730  143.7280 C   0  0  0  0  0  0  0  0  0  0  0  0
  185.3250  178.6720  147.3150 N   0  0  0  0  0  1  0  0  0  0  0  0
  183.5720  179.3790  145.3300 O   0  0  0  0  0  1  0  0  0  0  0  0
  189.4630  177.7870  144.5540 O   0  0  0  0  0  0  0  0  0  0  0  0
  185.6960  178.8120  145.9150 C   0  0  1  0  0  3  0  0  0  0  0  0
  186.8640  177.8720  145.6210 C   0  0  0  0  0  2  0  0  0  0  0  0
  184.5520  178.4840  145.0560 N   0  0  0  0  0  0  0  0  0  0  0  0
  187.7940  177.2990  135.6030 C   0  0  1  0  0  3  0  0  0  0  0  0
  187.4860  176.0050  136.0370 O   0  0  0  0  0  0  0  0  0  0  0  0
  187.1750  175.3000  134.8720 C   0  0  0  0  0  2  0  0  0  0  0  0
  186.5360  173.9690  135.2240 C   0  0  2  0  0  3  0  0  0  0  0  0
  185.5600  174.1250  136.7420 S   0  0  0  0  0  0  0  0  0  0  0  0
  187.0090  171.9670  136.2380 N   0  0  0  0  0  2  0  0  0  0  0  0
  187.5750  172.9780  135.4460 N   0  0  0  0  0  2  0  0  0  0  0  0
  186.3650  172.6290  137.3590 C   0  0  0  0  0  2  0  0  0  0  0  0
  186.7130  178.2960  136.0310 C   0  0  0  0  0  2  0  0  0  0  0  0
  184.8960  179.3650  139.7580 N   0  0  0  0  0  2  0  0  0  0  0  0
  183.8980  178.3290  139.9630 C   0  0  2  0  0  3  0  0  0  0  0  0
  185.6270  177.6260  136.7310 N   0  0  0  0  0  2  0  0  0  0  0  0
  184.0290  177.4310  138.7280 C   0  0  0  0  0  2  0  0  0  0  0  0
  185.5780  179.1540  138.5620 N   0  0  0  0  0  0  0  0  0  0  0  0
  185.1230  178.1030  137.9770 C   0  0  0  0  0  0  0  0  0  0  0  0
  182.5140  178.9580  140.0110 C   0  0  0  0  0  2  0  0  0  0  0  0
  180.9680  180.1410  136.4560 N   0  0  0  0  0  2  0  0  0  0  0  0
  182.0790  179.3210  138.6720 N   0  0  0  0  0  0  0  0  0  0  0  0
  180.2020  179.0620  137.0830 C   0  0  0  0  0  2  0  0  0  0  0  0
  180.7970  178.6530  138.4390 C   0  0  0  0  0  2  0  0  0  0  0  0
  181.8620  180.7690  138.6780 C   0  0  0  0  0  2  0  0  0  0  0  0
  181.1240  181.2370  137.4120 C   0  0  0  0  0  2  0  0  0  0  0  0
  1  3  1  0  0  0  0
  2  3  1  0  0  0  0
  3 12  1  1  0  0  0
  4  8  1  0  0  0  0
  5  4  1  0  0  0  0
  5 10  1  0  0  0  0
  6  2  1  0  0  0  0
  7  1  1  0  0  0  0
  8  6  2  0  0  0  0
  9  4  2  0  0  0  0
 10 24  1  1  0  0  0
 10 11  1  0  0  0  0
 11  6  1  0  0  0  0
 11  7  2  0  0  0  0
 12 16  1  0  0  0  0
 13 14  1  0  0  0  0
 13 15  1  0  0  0  0
 14 23  1  0  0  0  0
 15 22  1  0  0  0  0
 16 17  1  0  0  0  0
 17 15  1  0  0  0  0
 17 20  2  0  0  0  0
 21 18  1  1  0  0  0
 22 21  1  0  0  0  0
 23 19  1  0  0  0  0
 23 21  1  0  0  0  0
 24 32  1  1  0  0  0
 24 25  1  0  0  0  0
 26 25  1  0  0  0  0
 27 26  1  1  0  0  0
 27 30  1  0  0  0  0
 27 28  1  0  0  0  0
 28 31  1  0  0  0  0
 29 31  1  0  0  0  0
 30 29  1  0  0  0  0
 32 35  1  0  0  0  0
 33 34  1  0  0  0  0
 34 39  1  6  0  0  0
 35 38  1  0  0  0  0
 36 34  1  0  0  0  0
 37 33  1  0  0  0  0
 38 37  2  0  0  0  0
 38 36  1  0  0  0  0
 40 42  1  0  0  0  0
 40 45  1  0  0  0  0
 41 44  1  0  0  0  0
 41 39  1  0  0  0  0
 42 43  1  0  0  0  0
 43 41  1  0  0  0  0
 45 44  1  0  0  0  0
M  END
>  <MODEL>
8

>  <REMARK>
 VINA RESULT:      -7.5      3.267      7.376
  Name = 
  10 active torsions:
  status: ('A' for Active; 'I' for Inactive)
    1  A    between atoms: C_5  and  C_40
    2  A    between atoms: C_7  and  C_21
    3  A    between atoms: N_10  and  C_21
    4  A    between atoms: C_13  and  N_17
    5  A    between atoms: C_13  and  C_26
    6  A    between atoms: C_22  and  C_44
    7  A    between atoms: O_25  and  C_40
    8  A    between atoms: O_25  and  C_44
    9  A    between atoms: N_27  and  C_32
   10  A    between atoms: C_32  and  C_44
                            x       y       z     vdW  Elec       q    Type
                         _______ _______ _______ _____ _____    ______ ____

>  <TORSDO>
F 10

$$$$
=
 OpenBabel11032419463D

 45 50  0  0  1  0  0  0  0  0999 V2000
  186.0350  177.6240  137.9510 C   0  0  0  0  0  2  0  0  0  0  0  0
  184.6330  177.0740  135.9550 C   0  0  0  0  0  2  0  0  0  0  0  0
  185.9450  177.7000  136.4240 C   0  0  2  0  0  3  0  0  0  0  0  0
  181.2430  178.5810  136.5460 C   0  0  0  0  0  0  0  0  0  0  0  0
  181.3260  179.1200  137.8670 N   0  0  0  0  0  2  0  0  0  0  0  0
  183.4780  177.7500  136.6270 C   0  0  0  0  0  0  0  0  0  0  0  0
  184.8330  178.2480  138.6050 C   0  0  0  0  0  3  0  0  0  0  0  0
  182.3610  177.8910  135.9820 N   0  0  0  0  0  0  0  0  0  0  0  0
  180.1930  178.7320  135.8710 O   0  0  0  0  0  0  0  0  0  0  0  0
  182.4470  178.8200  138.7580 C   0  0  2  0  0  3  0  0  0  0  0  0
  183.6340  178.2690  138.0110 C   0  0  0  0  0  0  0  0  0  0  0  0
  187.1120  176.9690  135.7790 C   0  0  0  0  0  2  0  0  0  0  0  0
  190.2770  176.4290  138.7020 C   0  0  0  0  0  2  0  0  0  0  0  0
  191.4210  177.1250  139.4310 C   0  0  0  0  0  2  0  0  0  0  0  0
  190.5870  176.3560  137.2780 N   0  0  0  0  0  0  0  0  0  0  0  0
  188.2230  176.8560  136.7140 N   0  0  0  0  0  2  0  0  0  0  0  0
  189.5480  176.5050  136.3020 C   0  0  0  0  0  0  0  0  0  0  0  0
  194.2740  176.0030  137.4070 N   0  0  0  0  0  1  0  0  0  0  0  0
  193.6400  177.1370  139.8200 O   0  0  0  0  0  1  0  0  0  0  0  0
  189.8050  176.3430  135.0770 O   0  0  0  0  0  0  0  0  0  0  0  0
  192.9800  176.5930  137.7120 C   0  0  1  0  0  3  0  0  0  0  0  0
  191.9100  175.8860  136.8810 C   0  0  0  0  0  2  0  0  0  0  0  0
  192.6870  176.4510  139.1430 N   0  0  0  0  0  0  0  0  0  0  0  0
  182.0170  177.8920  139.9050 C   0  0  1  0  0  3  0  0  0  0  0  0
  182.7150  176.6810  139.8490 O   0  0  0  0  0  0  0  0  0  0  0  0
  181.7240  175.6970  139.8680 C   0  0  0  0  0  2  0  0  0  0  0  0
  181.3310  175.3270  138.4480 C   0  0  2  0  0  3  0  0  0  0  0  0
  179.9010  174.2150  138.4630 S   0  0  0  0  0  0  0  0  0  0  0  0
  181.8940  173.8920  136.7500 N   0  0  0  0  0  2  0  0  0  0  0  0
  182.4390  174.6410  137.8040 N   0  0  0  0  0  2  0  0  0  0  0  0
  180.7810  173.1410  137.3060 C   0  0  0  0  0  2  0  0  0  0  0  0
  182.1270  178.5280  141.2940 C   0  0  0  0  0  2  0  0  0  0  0  0
  183.6620  179.0280  145.2600 N   0  0  0  0  0  2  0  0  0  0  0  0
  185.1020  179.0850  145.0660 C   0  0  2  0  0  3  0  0  0  0  0  0
  183.5160  178.6270  141.7180 N   0  0  0  0  0  2  0  0  0  0  0  0
  185.2840  178.9180  143.5540 C   0  0  0  0  0  2  0  0  0  0  0  0
  183.0130  178.8580  144.0390 N   0  0  0  0  0  0  0  0  0  0  0  0
  183.8770  178.7930  143.0890 C   0  0  0  0  0  0  0  0  0  0  0  0
  185.7600  177.9310  145.8060 C   0  0  0  0  0  2  0  0  0  0  0  0
  189.8100  177.8410  145.6600 N   0  0  0  0  0  2  0  0  0  0  0  0
  187.2080  178.0450  145.7320 N   0  0  0  0  0  0  0  0  0  0  0  0
  189.2790  177.5690  146.9980 C   0  0  0  0  0  2  0  0  0  0  0  0
  187.7420  177.5850  147.0150 C   0  0  0  0  0  2  0  0  0  0  0  0
  187.6510  177.1280  144.6810 C   0  0  0  0  0  2  0  0  0  0  0  0
  189.1770  176.9370  144.7000 C   0  0  0  0  0  2  0  0  0  0  0  0
  1  7  1  0  0  0  0
  2  3  1  0  0  0  0
  2  6  1  0  0  0  0
  3 12  1  6  0  0  0
  3  1  1  0  0  0  0
  4  5  1  0  0  0  0
  5 10  1  0  0  0  0
  6 11  1  0  0  0  0
  8  4  1  0  0  0  0
  8  6  2  0  0  0  0
  9  4  2  0  0  0  0
 10 24  1  1  0  0  0
 11  7  2  0  0  0  0
 11 10  1  0  0  0  0
 12 16  1  0  0  0  0
 13 14  1  0  0  0  0
 15 13  1  0  0  0  0
 17 16  1  0  0  0  0
 17 15  1  0  0  0  0
 20 17  2  0  0  0  0
 21 18  1  1  0  0  0
 21 23  1  0  0  0  0
 22 15  1  0  0  0  0
 22 21  1  0  0  0  0
 23 14  1  0  0  0  0
 23 19  1  0  0  0  0
 24 32  1  1  0  0  0
 25 26  1  0  0  0  0
 25 24  1  0  0  0  0
 27 28  1  0  0  0  0
 27 26  1  1  0  0  0
 29 31  1  0  0  0  0
 29 30  1  0  0  0  0
 30 27  1  0  0  0  0
 31 28  1  0  0  0  0
 32 35  1  0  0  0  0
 34 33  1  0  0  0  0
 34 39  1  1  0  0  0
 35 38  1  0  0  0  0
 36 34  1  0  0  0  0
 37 33  1  0  0  0  0
 38 36  1  0  0  0  0
 38 37  2  0  0  0  0
 40 42  1  0  0  0  0
 41 39  1  0  0  0  0
 41 43  1  0  0  0  0
 42 43  1  0  0  0  0
 44 45  1  0  0  0  0
 44 41  1  0  0  0  0
 45 40  1  0  0  0  0
M  END
>  <MODEL>
9

>  <REMARK>
 VINA RESULT:      -7.3      3.008      7.513
  Name = 
  10 active torsions:
  status: ('A' for Active; 'I' for Inactive)
    1  A    between atoms: C_5  and  C_40
    2  A    between atoms: C_7  and  C_21
    3  A    between atoms: N_10  and  C_21
    4  A    between atoms: C_13  and  N_17
    5  A    between atoms: C_13  and  C_26
    6  A    between atoms: C_22  and  C_44
    7  A    between atoms: O_25  and  C_40
    8  A    between atoms: O_25  and  C_44
    9  A    between atoms: N_27  and  C_32
   10  A    between atoms: C_32  and  C_44
                            x       y       z     vdW  Elec       q    Type
                         _______ _______ _______ _____ _____    ______ ____

>  <TORSDO>
F 10

$$$$
