=
 OpenBabel11032421033D

 46 50  0  0  1  0  0  0  0  0999 V2000
  188.2480  177.5100  137.3290 C   0  0  0  0  0  0  0  0  0  0  0  0
  190.4820  176.6960  137.8420 C   0  0  0  0  0  3  0  0  0  0  0  0
  181.8070  174.9420  138.1860 C   0  0  0  0  0  2  0  0  0  0  0  0
  186.3760  178.5880  138.6180 C   0  0  0  0  0  0  0  0  0  0  0  0
  180.7600  177.9590  138.0020 C   0  0  0  0  0  2  0  0  0  0  0  0
  187.9120  176.2470  136.8070 C   0  0  0  0  0  0  0  0  0  0  0  0
  181.1330  177.1350  139.2290 C   0  0  0  0  0  2  0  0  0  0  0  0
  186.6210  176.0270  136.3160 O   0  0  0  0  0  0  0  0  0  0  0  0
  184.2520  179.0920  139.6990 C   0  0  0  0  0  0  0  0  0  0  0  0
  184.7820  178.6730  140.9230 C   0  0  0  0  0  3  0  0  0  0  0  0
  184.6950  174.7940  135.5380 C   0  0  1  0  0  3  0  0  0  0  0  0
  181.7880  175.8230  135.8530 C   0  0  0  0  0  1  0  0  0  0  0  0
  183.9410  175.0640  136.8410 C   0  0  0  0  0  2  0  0  0  0  0  0
  182.3030  180.0360  138.4750 C   0  0  1  0  0  3  0  0  0  0  0  0
  188.8720  175.2240  136.7990 C   0  0  0  0  0  3  0  0  0  0  0  0
  187.2200  178.6110  137.3760 C   0  0  1  0  0  3  0  0  0  0  0  0
  186.6620  177.7940  142.3100 C   0  0  0  0  0  1  0  0  0  0  0  0
  182.9340  179.5590  139.6610 O   0  0  0  0  0  0  0  0  0  0  0  0
  190.1520  175.4490  137.3110 C   0  0  0  0  0  0  0  0  0  0  0  0
  182.2840  176.1850  138.9370 C   0  0  0  0  0  2  0  0  0  0  0  0
  186.9010  178.1950  139.8580 C   0  0  0  0  0  3  0  0  0  0  0  0
  181.9150  178.8670  137.5440 C   0  0  2  0  0  3  0  0  0  0  0  0
  184.4130  175.7820  134.5940 O   0  0  0  0  0  1  0  0  0  0  0  0
  186.1890  174.7670  135.8120 C   0  0  0  0  0  2  0  0  0  0  0  0
  191.3400  174.1630  137.2940 Cl  0  0  0  0  0  0  0  0  0  0  0  0
  189.5330  177.7220  137.8540 C   0  0  0  0  0  3  0  0  0  0  0  0
  182.4240  174.7850  136.7750 C   0  0  1  0  0  0  0  0  0  0  0  0
  186.1030  178.2270  141.0040 C   0  0  0  0  0  0  0  0  0  0  0  0
  187.8150  179.8650  137.2200 O   0  0  0  0  0  1  0  0  0  0  0  0
  185.0550  179.0470  138.5470 C   0  0  0  0  0  3  0  0  0  0  0  0
  182.9040  171.0790  136.1940 C   0  0  2  0  0  3  0  0  0  0  0  0
  182.1770  173.4250  136.2360 N   0  0  2  0  0  0  0  0  0  0  0  0
  183.7360  170.1490  136.8140 O   0  0  0  0  0  1  0  0  0  0  0  0
  180.7820  173.0100  136.4490 C   0  0  0  0  0  2  0  0  0  0  0  0
  180.5170  171.6820  135.7400 C   0  0  1  0  0  3  0  0  0  0  0  0
  183.0560  172.4340  136.8800 C   0  0  0  0  0  2  0  0  0  0  0  0
  181.4550  170.6150  136.2960 C   0  0  0  0  0  2  0  0  0  0  0  0
  179.0120  169.8660  136.1060 O   0  0  0  0  0  1  0  0  0  0  0  0
  179.0780  171.2510  135.9560 C   0  0  0  0  0  2  0  0  0  0  0  0
  179.3820  181.7070  139.9570 C   0  0  0  0  0  3  0  0  0  0  0  0
  180.7990  182.0140  138.1400 C   0  0  0  0  0  3  0  0  0  0  0  0
  180.2790  180.7330  139.9570 C   0  0  0  0  0  2  0  0  0  0  0  0
  181.1570  180.9390  138.8230 C   0  0  0  0  0  0  0  0  0  0  0  0
  179.6150  182.6290  138.8040 C   0  0  0  0  0  3  0  0  0  0  0  0
  180.5420  179.2180  135.7430 C   0  0  0  0  0  1  0  0  0  0  0  0
  181.8760  179.2160  136.1770 O   0  0  0  0  0  0  0  0  0  0  0  0
  1 16  1  0  0  0  0
  1 26  1  0  0  0  0
  2 26  2  0  0  0  0
  3 20  1  0  0  0  0
  4 21  1  0  0  0  0
  5  7  1  0  0  0  0
  6  1  2  0  0  0  0
  8  6  1  0  0  0  0
  9 10  2  0  0  0  0
 10 28  1  0  0  0  0
 11 23  1  6  0  0  0
 11 24  1  0  0  0  0
 11 13  1  0  0  0  0
 14 43  1  1  0  0  0
 14 18  1  0  0  0  0
 15  6  1  0  0  0  0
 15 19  2  0  0  0  0
 16 29  1  1  0  0  0
 16  4  1  0  0  0  0
 18  9  1  0  0  0  0
 19  2  1  0  0  0  0
 20  7  1  0  0  0  0
 21 28  2  0  0  0  0
 22 46  1  6  0  0  0
 22  5  1  0  0  0  0
 22 14  1  0  0  0  0
 24  8  1  0  0  0  0
 25 19  1  0  0  0  0
 27 12  1  6  0  0  0
 27 13  1  0  0  0  0
 27  3  1  0  0  0  0
 28 17  1  0  0  0  0
 30  4  2  0  0  0  0
 30  9  1  0  0  0  0
 31 37  1  0  0  0  0
 31 33  1  1  0  0  0
 31 36  1  0  0  0  0
 32 34  1  1  0  0  0
 32 27  1  0  0  0  0
 32 36  1  0  0  0  0
 35 39  1  1  0  0  0
 35 37  1  0  0  0  0
 35 34  1  0  0  0  0
 39 38  1  0  0  0  0
 40 42  1  0  0  0  0
 41 44  1  0  0  0  0
 41 43  2  0  0  0  0
 43 42  1  0  0  0  0
 44 40  2  0  0  0  0
 45 46  1  0  0  0  0
M  END
>  <MODEL>
1

>  <REMARK>
 VINA RESULT:      -5.8      0.000      0.000
  Name = 
  4 active torsions:
  status: ('A' for Active; 'I' for Inactive)
    1  A    between atoms: N_16  and  C_41
    2  A    between atoms: C_22  and  C_29
    3  A    between atoms: C_26  and  C_35
    4  A    between atoms: C_33  and  O_39
                            x       y       z     vdW  Elec       q    Type
                         _______ _______ _______ _____ _____    ______ ____

>  <TORSDO>
F 4

$$$$
