=
 OpenBabel11042410303D

 35 42  0  0  1  0  0  0  0  0999 V2000
  189.5610  177.5650  140.0200 C   0  0  0  0  0  0  0  0  0  0  0  0
  188.5690  177.4080  138.9350 C   0  0  0  0  0  2  0  0  0  0  0  0
  190.7530  176.7080  139.8250 C   0  0  0  0  0  2  0  0  0  0  0  0
  189.1720  177.8840  141.2210 C   0  0  0  0  0  0  0  0  0  0  0  0
  190.5330  176.0170  138.4840 C   0  0  1  0  0  3  0  0  0  0  0  0
  189.0520  176.1990  138.1560 C   0  0  0  0  0  2  0  0  0  0  0  0
  188.7620  178.1960  142.4240 C   0  0  0  0  0  3  0  0  0  0  0  0
  187.1260  178.1040  144.3520 C   0  0  2  0  0  3  0  0  0  0  0  0
  185.6910  177.7390  144.7150 C   0  0  2  0  0  3  0  0  0  0  0  0
  185.0550  179.3010  142.6880 C   0  0  2  0  0  3  0  0  0  0  0  0
  184.6170  178.3240  143.7910 C   0  0  2  0  0  0  0  0  0  0  0  0
  184.5190  178.8250  141.3510 C   0  0  0  0  0  2  0  0  0  0  0  0
  187.3180  178.0530  142.8300 C   0  0  1  0  0  3  0  0  0  0  0  0
  186.4850  179.1480  142.1590 C   0  0  1  0  0  3  0  0  0  0  0  0
  184.9260  178.9820  145.1230 C   0  0  1  0  0  3  0  0  0  0  0  0
  188.0420  177.1180  145.0590 C   0  0  0  0  0  1  0  0  0  0  0  0
  185.9370  178.6660  140.8280 C   0  0  0  0  0  2  0  0  0  0  0  0
  183.4950  178.9030  144.6270 C   0  0  0  0  0  2  0  0  0  0  0  0
  191.4030  176.6480  137.3880 C   0  0  1  0  0  3  0  0  0  0  0  0
  192.3260  174.5170  135.9660 S   0  0  0  0  0  0  0  0  0  0  0  0
  192.8810  176.5310  137.6990 C   0  0  0  0  0  2  0  0  0  0  0  0
  191.1960  175.9390  136.0610 C   0  0  0  0  0  2  0  0  0  0  0  0
  193.3200  175.1170  137.3630 C   0  0  2  0  0  3  0  0  0  0  0  0
  195.7960  171.6500  137.7170 C   0  0  0  0  0  2  0  0  0  0  0  0
  198.9410  173.2630  136.0830 C   0  0  0  0  0  2  0  0  0  0  0  0
  196.9850  174.2150  136.9730 C   0  0  1  0  0  3  0  0  0  0  0  0
  196.7950  175.4820  134.9490 O   0  0  0  0  0  1  0  0  0  0  0  0
  194.7190  175.1000  137.0010 N   0  0  0  0  0  0  0  0  0  0  0  0
  195.1080  172.9590  138.1590 C   0  0  0  0  0  2  0  0  0  0  0  0
  197.3040  171.8250  137.4410 C   0  0  0  0  0  2  0  0  0  0  0  0
  198.9310  174.7580  135.7220 C   0  0  0  0  0  2  0  0  0  0  0  0
  197.5600  175.3160  136.1060 C   0  0  2  0  0  3  0  0  0  0  0  0
  195.5220  174.1340  137.2970 C   0  0  0  0  0  0  0  0  0  0  0  0
  196.8350  172.5850  135.2160 O   0  0  0  0  0  1  0  0  0  0  0  0
  197.5010  172.9220  136.4010 C   0  0  2  0  0  0  0  0  0  0  0  0
  1  4  2  0  0  0  0
  2  1  1  0  0  0  0
  3  1  1  0  0  0  0
  4  7  2  0  0  0  0
  5  6  1  6  0  0  0
  5  3  1  0  0  0  0
  6  2  1  0  0  0  0
  7 13  1  0  0  0  0
  8  9  1  0  0  0  0
  8 16  1  1  0  0  0
  9 15  1  0  0  0  0
 10 11  1  0  0  0  0
 11 18  1  0  0  0  0
 11  9  1  0  0  0  0
 11 15  1  0  0  0  0
 12 10  1  0  0  0  0
 13  8  1  0  0  0  0
 14 10  1  0  0  0  0
 14 13  1  0  0  0  0
 17 12  1  0  0  0  0
 17 14  1  0  0  0  0
 18 15  1  0  0  0  0
 19 21  1  0  0  0  0
 19  5  1  0  0  0  0
 20 22  1  0  0  0  0
 20 23  1  0  0  0  0
 22 19  1  0  0  0  0
 23 21  1  0  0  0  0
 24 29  1  0  0  0  0
 25 35  1  0  0  0  0
 26 33  1  0  0  0  0
 27 32  1  0  0  0  0
 28 33  2  0  0  0  0
 28 23  1  0  0  0  0
 30 24  1  0  0  0  0
 31 25  1  0  0  0  0
 31 32  1  0  0  0  0
 32 26  1  0  0  0  0
 33 29  1  0  0  0  0
 34 35  1  0  0  0  0
 35 26  1  0  0  0  0
 35 30  1  0  0  0  0
M  END
>  <MODEL>
1

>  <REMARK>
 VINA RESULT:      -9.5      0.000      0.000
  Name = 
  3 active torsions:
  status: ('A' for Active; 'I' for Inactive)
    1  A    between atoms: C_4  and  C_22
    2  A    between atoms: N_9  and  C_29
    3  A    between atoms: C_16  and  C_35
                            x       y       z     vdW  Elec       q    Type
                         _______ _______ _______ _____ _____    ______ ____

>  <TORSDO>
F 3

$$$$
=
 OpenBabel11042410303D

 35 42  0  0  1  0  0  0  0  0999 V2000
  190.2340  177.4420  141.5870 C   0  0  0  0  0  0  0  0  0  0  0  0
  189.0700  177.7890  140.7440 C   0  0  0  0  0  2  0  0  0  0  0  0
  191.1770  176.5300  140.9000 C   0  0  0  0  0  2  0  0  0  0  0  0
  190.1170  177.4110  142.8830 C   0  0  0  0  0  0  0  0  0  0  0  0
  190.6070  176.3470  139.4980 C   0  0  1  0  0  3  0  0  0  0  0  0
  189.1630  176.8390  139.5650 C   0  0  0  0  0  2  0  0  0  0  0  0
  189.9780  177.3760  144.1840 C   0  0  0  0  0  3  0  0  0  0  0  0
  188.6630  177.6960  146.3220 C   0  0  2  0  0  3  0  0  0  0  0  0
  187.3140  177.4160  146.9760 C   0  0  2  0  0  3  0  0  0  0  0  0
  186.3200  178.5080  144.7910 C   0  0  2  0  0  3  0  0  0  0  0  0
  186.0920  177.7890  146.1310 C   0  0  2  0  0  0  0  0  0  0  0  0
  185.6010  177.7550  143.6870 C   0  0  0  0  0  2  0  0  0  0  0  0
  188.6200  177.3210  144.8350 C   0  0  1  0  0  3  0  0  0  0  0  0
  187.6550  178.2460  144.0870 C   0  0  1  0  0  3  0  0  0  0  0  0
  186.5780  178.7170  147.2270 C   0  0  1  0  0  3  0  0  0  0  0  0
  189.7110  176.8860  147.0670 C   0  0  0  0  0  1  0  0  0  0  0  0
  186.9270  177.4900  142.9910 C   0  0  0  0  0  2  0  0  0  0  0  0
  185.0920  178.5320  146.9910 C   0  0  0  0  0  2  0  0  0  0  0  0
  191.4010  177.1620  138.4680 C   0  0  1  0  0  3  0  0  0  0  0  0
  191.8600  175.4040  136.4420 S   0  0  0  0  0  0  0  0  0  0  0  0
  192.8800  176.8390  138.5070 C   0  0  0  0  0  2  0  0  0  0  0  0
  190.9380  176.8450  137.0580 C   0  0  0  0  0  2  0  0  0  0  0  0
  193.0930  175.5290  137.7700 C   0  0  2  0  0  3  0  0  0  0  0  0
  195.5940  172.0650  137.9100 C   0  0  0  0  0  2  0  0  0  0  0  0
  198.4530  173.5750  135.7410 C   0  0  0  0  0  2  0  0  0  0  0  0
  196.6560  174.5830  136.8720 C   0  0  1  0  0  3  0  0  0  0  0  0
  196.1600  175.7540  134.8410 O   0  0  0  0  0  1  0  0  0  0  0  0
  194.4200  175.4850  137.2010 N   0  0  0  0  0  0  0  0  0  0  0  0
  194.9810  173.3990  138.3880 C   0  0  0  0  0  2  0  0  0  0  0  0
  197.0430  172.2150  137.4000 C   0  0  0  0  0  2  0  0  0  0  0  0
  198.3890  175.0520  135.3150 C   0  0  0  0  0  2  0  0  0  0  0  0
  197.0920  175.6380  135.8760 C   0  0  2  0  0  3  0  0  0  0  0  0
  195.2590  174.5280  137.4180 C   0  0  0  0  0  0  0  0  0  0  0  0
  196.2400  172.8730  135.2390 O   0  0  0  0  0  1  0  0  0  0  0  0
  197.0790  173.2610  136.2910 C   0  0  2  0  0  0  0  0  0  0  0  0
  1  4  2  0  0  0  0
  2  1  1  0  0  0  0
  3  1  1  0  0  0  0
  4  7  2  0  0  0  0
  5  6  1  1  0  0  0
  5  3  1  0  0  0  0
  6  2  1  0  0  0  0
  7 13  1  0  0  0  0
  8  9  1  0  0  0  0
  8 16  1  1  0  0  0
  9 15  1  0  0  0  0
 10 11  1  0  0  0  0
 11  9  1  0  0  0  0
 11 18  1  0  0  0  0
 11 15  1  0  0  0  0
 12 10  1  0  0  0  0
 13  8  1  0  0  0  0
 14 10  1  0  0  0  0
 14 13  1  0  0  0  0
 17 12  1  0  0  0  0
 17 14  1  0  0  0  0
 18 15  1  0  0  0  0
 19 21  1  0  0  0  0
 19  5  1  0  0  0  0
 20 22  1  0  0  0  0
 20 23  1  0  0  0  0
 22 19  1  0  0  0  0
 23 21  1  0  0  0  0
 24 29  1  0  0  0  0
 25 35  1  0  0  0  0
 26 33  1  0  0  0  0
 27 32  1  0  0  0  0
 28 33  2  0  0  0  0
 28 23  1  0  0  0  0
 30 24  1  0  0  0  0
 31 25  1  0  0  0  0
 31 32  1  0  0  0  0
 32 26  1  0  0  0  0
 33 29  1  0  0  0  0
 34 35  1  0  0  0  0
 35 26  1  0  0  0  0
 35 30  1  0  0  0  0
M  END
>  <MODEL>
2

>  <REMARK>
 VINA RESULT:      -9.4      1.219      1.762
  Name = 
  3 active torsions:
  status: ('A' for Active; 'I' for Inactive)
    1  A    between atoms: C_4  and  C_22
    2  A    between atoms: N_9  and  C_29
    3  A    between atoms: C_16  and  C_35
                            x       y       z     vdW  Elec       q    Type
                         _______ _______ _______ _____ _____    ______ ____

>  <TORSDO>
F 3

$$$$
=
 OpenBabel11042410303D

 35 42  0  0  1  0  0  0  0  0999 V2000
  188.7170  177.2880  140.8070 C   0  0  0  0  0  0  0  0  0  0  0  0
  190.0800  176.7360  140.6480 C   0  0  0  0  0  2  0  0  0  0  0  0
  188.2980  178.1020  139.6430 C   0  0  0  0  0  2  0  0  0  0  0  0
  188.2510  177.5510  141.9940 C   0  0  0  0  0  0  0  0  0  0  0  0
  189.4460  177.9960  138.6470 C   0  0  1  0  0  3  0  0  0  0  0  0
  190.6380  177.4570  139.4350 C   0  0  0  0  0  2  0  0  0  0  0  0
  187.8050  177.8180  143.1940 C   0  0  0  0  0  3  0  0  0  0  0  0
  188.2080  177.1700  145.6070 C   0  0  2  0  0  3  0  0  0  0  0  0
  189.0640  177.4910  146.8270 C   0  0  2  0  0  3  0  0  0  0  0  0
  191.0870  177.2000  145.1610 C   0  0  2  0  0  3  0  0  0  0  0  0
  190.5710  177.5670  146.5620 C   0  0  2  0  0  0  0  0  0  0  0  0
  191.9540  178.3280  144.6330 C   0  0  0  0  0  2  0  0  0  0  0  0
  188.7300  177.9280  144.3790 C   0  0  1  0  0  3  0  0  0  0  0  0
  190.1190  177.4090  143.9930 C   0  0  1  0  0  3  0  0  0  0  0  0
  189.9590  176.3130  147.1580 C   0  0  1  0  0  3  0  0  0  0  0  0
  186.7770  177.5660  145.9340 C   0  0  0  0  0  1  0  0  0  0  0  0
  190.9890  178.5400  143.4770 C   0  0  0  0  0  2  0  0  0  0  0  0
  191.3110  176.8020  147.6400 C   0  0  0  0  0  2  0  0  0  0  0  0
  189.0940  177.0440  137.4960 C   0  0  1  0  0  3  0  0  0  0  0  0
  187.3220  178.4540  135.9860 S   0  0  0  0  0  0  0  0  0  0  0  0
  187.7430  176.3890  137.6940 C   0  0  0  0  0  2  0  0  0  0  0  0
  189.0060  177.7970  136.1810 C   0  0  0  0  0  2  0  0  0  0  0  0
  186.6730  177.3950  137.3110 C   0  0  2  0  0  3  0  0  0  0  0  0
  182.7040  178.7200  138.1870 C   0  0  0  0  0  2  0  0  0  0  0  0
  180.9190  176.0470  135.9910 C   0  0  0  0  0  2  0  0  0  0  0  0
  183.1160  176.1710  136.8180 C   0  0  1  0  0  3  0  0  0  0  0  0
  183.8770  175.7110  134.5940 O   0  0  0  0  0  1  0  0  0  0  0  0
  185.4880  176.7130  136.8460 N   0  0  0  0  0  0  0  0  0  0  0  0
  184.0280  177.9550  138.3960 C   0  0  0  0  0  2  0  0  0  0  0  0
  181.5400  177.8050  137.7560 C   0  0  0  0  0  2  0  0  0  0  0  0
  181.7450  174.9340  135.3220 C   0  0  0  0  0  2  0  0  0  0  0  0
  183.2110  175.1620  135.6920 C   0  0  2  0  0  3  0  0  0  0  0  0
  184.2980  176.9760  137.2730 C   0  0  0  0  0  0  0  0  0  0  0  0
  182.2390  177.9520  135.4670 O   0  0  0  0  0  1  0  0  0  0  0  0
  181.9370  177.0470  136.4930 C   0  0  2  0  0  0  0  0  0  0  0  0
  1  4  2  0  0  0  0
  2  1  1  0  0  0  0
  3  1  1  0  0  0  0
  4  7  2  0  0  0  0
  5  6  1  1  0  0  0
  5  3  1  0  0  0  0
  6  2  1  0  0  0  0
  7 13  1  0  0  0  0
  8 16  1  1  0  0  0
  8  9  1  0  0  0  0
  9 15  1  0  0  0  0
 10 11  1  0  0  0  0
 11  9  1  0  0  0  0
 11 15  1  0  0  0  0
 11 18  1  0  0  0  0
 12 10  1  0  0  0  0
 13  8  1  0  0  0  0
 14 13  1  0  0  0  0
 14 10  1  0  0  0  0
 15 18  1  0  0  0  0
 17 14  1  0  0  0  0
 17 12  1  0  0  0  0
 19 21  1  0  0  0  0
 19  5  1  0  0  0  0
 20 22  1  0  0  0  0
 20 23  1  0  0  0  0
 22 19  1  0  0  0  0
 23 21  1  0  0  0  0
 24 29  1  0  0  0  0
 25 35  1  0  0  0  0
 26 33  1  0  0  0  0
 27 32  1  0  0  0  0
 28 33  2  0  0  0  0
 28 23  1  0  0  0  0
 30 24  1  0  0  0  0
 31 32  1  0  0  0  0
 31 25  1  0  0  0  0
 32 26  1  0  0  0  0
 33 29  1  0  0  0  0
 34 35  1  0  0  0  0
 35 26  1  0  0  0  0
 35 30  1  0  0  0  0
M  END
>  <MODEL>
3

>  <REMARK>
 VINA RESULT:      -8.8      5.851      9.381
  Name = 
  3 active torsions:
  status: ('A' for Active; 'I' for Inactive)
    1  A    between atoms: C_4  and  C_22
    2  A    between atoms: N_9  and  C_29
    3  A    between atoms: C_16  and  C_35
                            x       y       z     vdW  Elec       q    Type
                         _______ _______ _______ _____ _____    ______ ____

>  <TORSDO>
F 3

$$$$
=
 OpenBabel11042410303D

 35 42  0  0  1  0  0  0  0  0999 V2000
  185.0130  178.1230  143.6110 C   0  0  0  0  0  0  0  0  0  0  0  0
  185.7160  177.5960  142.4210 C   0  0  0  0  0  2  0  0  0  0  0  0
  183.9960  179.1410  143.2600 C   0  0  0  0  0  2  0  0  0  0  0  0
  185.6180  178.1690  144.7620 C   0  0  0  0  0  0  0  0  0  0  0  0
  184.0050  179.2090  141.7380 C   0  0  1  0  0  3  0  0  0  0  0  0
  185.2950  178.5200  141.2950 C   0  0  0  0  0  2  0  0  0  0  0  0
  186.2460  178.2160  145.9090 C   0  0  0  0  0  3  0  0  0  0  0  0
  188.2150  177.5460  147.3510 C   0  0  2  0  0  3  0  0  0  0  0  0
  189.7320  177.6490  147.4640 C   0  0  2  0  0  3  0  0  0  0  0  0
  189.7190  176.7640  144.9800 C   0  0  2  0  0  3  0  0  0  0  0  0
  190.5050  177.2970  146.1890 C   0  0  2  0  0  0  0  0  0  0  0  0
  190.0570  177.5930  143.7550 C   0  0  0  0  0  2  0  0  0  0  0  0
  187.7460  178.0960  145.9970 C   0  0  1  0  0  3  0  0  0  0  0  0
  188.2560  177.2030  144.8620 C   0  0  1  0  0  3  0  0  0  0  0  0
  190.3590  176.2790  147.3040 C   0  0  1  0  0  3  0  0  0  0  0  0
  187.6140  178.3310  148.5050 C   0  0  0  0  0  1  0  0  0  0  0  0
  188.6060  178.0340  143.6420 C   0  0  0  0  0  2  0  0  0  0  0  0
  191.6640  176.3860  146.5380 C   0  0  0  0  0  2  0  0  0  0  0  0
  182.7860  178.4870  141.1450 C   0  0  1  0  0  3  0  0  0  0  0  0
  183.5030  177.9800  138.5690 S   0  0  0  0  0  0  0  0  0  0  0  0
  181.9500  179.4050  140.2780 C   0  0  0  0  0  2  0  0  0  0  0  0
  183.2210  177.3420  140.2490 C   0  0  0  0  0  2  0  0  0  0  0  0
  182.6410  179.5370  138.9330 C   0  0  2  0  0  3  0  0  0  0  0  0
  181.5240  183.4810  137.7210 C   0  0  0  0  0  2  0  0  0  0  0  0
  179.2190  182.3410  134.7980 C   0  0  0  0  0  2  0  0  0  0  0  0
  180.1010  181.1700  136.6360 C   0  0  1  0  0  3  0  0  0  0  0  0
  180.8270  179.4870  135.0930 O   0  0  0  0  0  1  0  0  0  0  0  0
  181.6710  179.8040  137.8960 N   0  0  0  0  0  0  0  0  0  0  0  0
  181.4690  182.1740  138.5400 C   0  0  0  0  0  2  0  0  0  0  0  0
  180.3630  183.6120  136.7130 C   0  0  0  0  0  2  0  0  0  0  0  0
  178.9310  180.8430  134.5940 C   0  0  0  0  0  2  0  0  0  0  0  0
  179.6980  180.0750  135.6700 C   0  0  2  0  0  3  0  0  0  0  0  0
  181.1730  180.9730  137.6680 C   0  0  0  0  0  0  0  0  0  0  0  0
  181.5730  182.2990  135.1120 O   0  0  0  0  0  1  0  0  0  0  0  0
  180.3550  182.3930  135.7960 C   0  0  2  0  0  0  0  0  0  0  0  0
  1  4  2  0  0  0  0
  2  1  1  0  0  0  0
  3  1  1  0  0  0  0
  4  7  2  0  0  0  0
  5  6  1  6  0  0  0
  5  3  1  0  0  0  0
  6  2  1  0  0  0  0
  7 13  1  0  0  0  0
  8  9  1  0  0  0  0
  8 16  1  1  0  0  0
 10 11  1  0  0  0  0
 11 18  1  0  0  0  0
 11 15  1  0  0  0  0
 11  9  1  0  0  0  0
 12 10  1  0  0  0  0
 13  8  1  0  0  0  0
 14 10  1  0  0  0  0
 14 13  1  0  0  0  0
 15  9  1  0  0  0  0
 17 12  1  0  0  0  0
 17 14  1  0  0  0  0
 18 15  1  0  0  0  0
 19  5  1  0  0  0  0
 20 23  1  0  0  0  0
 20 22  1  0  0  0  0
 21 19  1  0  0  0  0
 22 19  1  0  0  0  0
 23 21  1  0  0  0  0
 24 29  1  0  0  0  0
 25 35  1  0  0  0  0
 26 33  1  0  0  0  0
 27 32  1  0  0  0  0
 28 23  1  0  0  0  0
 30 24  1  0  0  0  0
 31 25  1  0  0  0  0
 31 32  1  0  0  0  0
 32 26  1  0  0  0  0
 33 28  2  0  0  0  0
 33 29  1  0  0  0  0
 34 35  1  0  0  0  0
 35 26  1  0  0  0  0
 35 30  1  0  0  0  0
M  END
>  <MODEL>
4

>  <REMARK>
 VINA RESULT:      -8.7      8.038     12.155
  Name = 
  3 active torsions:
  status: ('A' for Active; 'I' for Inactive)
    1  A    between atoms: C_4  and  C_22
    2  A    between atoms: N_9  and  C_29
    3  A    between atoms: C_16  and  C_35
                            x       y       z     vdW  Elec       q    Type
                         _______ _______ _______ _____ _____    ______ ____

>  <TORSDO>
F 3

$$$$
=
 OpenBabel11042410303D

 35 42  0  0  1  0  0  0  0  0999 V2000
  185.2150  178.4310  143.3410 C   0  0  0  0  0  0  0  0  0  0  0  0
  184.8080  179.0240  144.6330 C   0  0  0  0  0  2  0  0  0  0  0  0
  184.0600  177.9350  142.5590 C   0  0  0  0  0  2  0  0  0  0  0  0
  186.3820  177.8680  143.2170 C   0  0  0  0  0  0  0  0  0  0  0  0
  182.8310  178.3060  143.3800 C   0  0  1  0  0  3  0  0  0  0  0  0
  183.3470  178.6440  144.7780 C   0  0  0  0  0  2  0  0  0  0  0  0
  187.5550  177.2980  143.1150 C   0  0  0  0  0  3  0  0  0  0  0  0
  189.8580  176.8070  144.0430 C   0  0  2  0  0  3  0  0  0  0  0  0
  190.5850  176.2000  145.2370 C   0  0  2  0  0  3  0  0  0  0  0  0
  189.0440  177.7980  146.6590 C   0  0  2  0  0  3  0  0  0  0  0  0
  190.1010  176.6840  146.6080 C   0  0  2  0  0  0  0  0  0  0  0  0
  187.8800  177.3490  147.5240 C   0  0  0  0  0  2  0  0  0  0  0  0
  188.3540  176.9040  144.3310 C   0  0  1  0  0  3  0  0  0  0  0  0
  188.0980  177.9070  145.4590 C   0  0  1  0  0  3  0  0  0  0  0  0
  191.3500  177.2760  145.9820 C   0  0  1  0  0  3  0  0  0  0  0  0
  190.1350  175.9230  142.8390 C   0  0  0  0  0  1  0  0  0  0  0  0
  186.9430  177.4510  146.3310 C   0  0  0  0  0  2  0  0  0  0  0  0
  191.2970  177.0180  147.4760 C   0  0  0  0  0  2  0  0  0  0  0  0
  182.1050  179.5160  142.7740 C   0  0  1  0  0  3  0  0  0  0  0  0
  179.8800  178.4480  141.6270 S   0  0  0  0  0  0  0  0  0  0  0  0
  182.3080  179.6070  141.2760 C   0  0  0  0  0  2  0  0  0  0  0  0
  180.6060  179.4080  142.9890 C   0  0  0  0  0  2  0  0  0  0  0  0
  181.3810  178.6030  140.6150 C   0  0  2  0  0  3  0  0  0  0  0  0
  182.9720  176.8700  137.0460 C   0  0  0  0  0  2  0  0  0  0  0  0
  180.7830  178.9640  134.6000 C   0  0  0  0  0  2  0  0  0  0  0  0
  181.2860  179.2520  136.8780 C   0  0  1  0  0  3  0  0  0  0  0  0
  178.9370  179.5180  137.2650 O   0  0  0  0  0  1  0  0  0  0  0  0
  181.0230  179.0490  139.2890 N   0  0  0  0  0  0  0  0  0  0  0  0
  182.8980  177.8300  138.2520 C   0  0  0  0  0  2  0  0  0  0  0  0
  182.6190  177.5520  135.7080 C   0  0  0  0  0  2  0  0  0  0  0  0
  179.8830  180.0830  135.1500 C   0  0  0  0  0  2  0  0  0  0  0  0
  180.0550  180.1090  136.6700 C   0  0  2  0  0  3  0  0  0  0  0  0
  181.6470  178.6830  138.2200 C   0  0  0  0  0  0  0  0  0  0  0  0
  180.2820  177.2070  136.1190 O   0  0  0  0  0  1  0  0  0  0  0  0
  181.2370  178.1860  135.8160 C   0  0  2  0  0  0  0  0  0  0  0  0
  1  2  1  0  0  0  0
  2  6  1  0  0  0  0
  3  1  1  0  0  0  0
  4  1  2  0  0  0  0
  5  3  1  6  0  0  0
  5  6  1  0  0  0  0
  7  4  2  0  0  0  0
  7 13  1  0  0  0  0
  8 16  1  6  0  0  0
  8 13  1  0  0  0  0
  8  9  1  0  0  0  0
  9 15  1  0  0  0  0
  9 11  1  0  0  0  0
 10 12  1  0  0  0  0
 11 10  1  0  0  0  0
 11 18  1  0  0  0  0
 13 14  1  0  0  0  0
 14 17  1  0  0  0  0
 14 10  1  0  0  0  0
 15 11  1  0  0  0  0
 15 18  1  0  0  0  0
 17 12  1  0  0  0  0
 19 22  1  0  0  0  0
 19  5  1  0  0  0  0
 20 22  1  0  0  0  0
 21 19  1  0  0  0  0
 23 21  1  0  0  0  0
 23 20  1  0  0  0  0
 24 29  1  0  0  0  0
 25 31  1  0  0  0  0
 25 35  1  0  0  0  0
 26 33  1  0  0  0  0
 28 23  1  0  0  0  0
 30 35  1  0  0  0  0
 30 24  1  0  0  0  0
 31 32  1  0  0  0  0
 32 26  1  0  0  0  0
 32 27  1  0  0  0  0
 33 29  1  0  0  0  0
 33 28  2  0  0  0  0
 35 34  1  0  0  0  0
 35 26  1  0  0  0  0
M  END
>  <MODEL>
5

>  <REMARK>
 VINA RESULT:      -8.7      7.728     11.692
  Name = 
  3 active torsions:
  status: ('A' for Active; 'I' for Inactive)
    1  A    between atoms: C_4  and  C_22
    2  A    between atoms: N_9  and  C_29
    3  A    between atoms: C_16  and  C_35
                            x       y       z     vdW  Elec       q    Type
                         _______ _______ _______ _____ _____    ______ ____

>  <TORSDO>
F 3

$$$$
=
 OpenBabel11042410303D

 35 42  0  0  1  0  0  0  0  0999 V2000
  185.1200  178.6780  142.8260 C   0  0  0  0  0  0  0  0  0  0  0  0
  184.7820  179.8520  143.6580 C   0  0  0  0  0  2  0  0  0  0  0  0
  183.9270  177.8740  142.4720 C   0  0  0  0  0  2  0  0  0  0  0  0
  186.2850  178.1080  142.9390 C   0  0  0  0  0  0  0  0  0  0  0  0
  182.7440  178.6340  143.0600 C   0  0  1  0  0  3  0  0  0  0  0  0
  183.3360  179.6250  144.0600 C   0  0  0  0  0  2  0  0  0  0  0  0
  187.4570  177.5430  143.0740 C   0  0  0  0  0  3  0  0  0  0  0  0
  187.8030  177.1320  145.5470 C   0  0  2  0  0  3  0  0  0  0  0  0
  188.5950  177.6050  146.7610 C   0  0  2  0  0  3  0  0  0  0  0  0
  190.6920  177.2820  145.1950 C   0  0  2  0  0  3  0  0  0  0  0  0
  190.1050  177.7410  146.5400 C   0  0  2  0  0  0  0  0  0  0  0  0
  191.5170  178.4060  144.5970 C   0  0  0  0  0  2  0  0  0  0  0  0
  188.3310  177.8070  144.2740 C   0  0  1  0  0  3  0  0  0  0  0  0
  189.7580  177.3350  143.9820 C   0  0  1  0  0  3  0  0  0  0  0  0
  189.5370  176.5120  147.2250 C   0  0  1  0  0  3  0  0  0  0  0  0
  186.3420  177.4740  145.7900 C   0  0  0  0  0  1  0  0  0  0  0  0
  190.5870  178.4630  143.3960 C   0  0  0  0  0  2  0  0  0  0  0  0
  190.8430  177.1150  147.7050 C   0  0  0  0  0  2  0  0  0  0  0  0
  181.9680  179.3810  141.9650 C   0  0  1  0  0  3  0  0  0  0  0  0
  179.8110  177.7940  141.4810 S   0  0  0  0  0  0  0  0  0  0  0  0
  182.1840  178.7680  140.5980 C   0  0  0  0  0  2  0  0  0  0  0  0
  180.4740  179.3150  142.2240 C   0  0  0  0  0  2  0  0  0  0  0  0
  181.3140  177.5280  140.4970 C   0  0  2  0  0  3  0  0  0  0  0  0
  183.4610  174.8530  137.9450 C   0  0  0  0  0  2  0  0  0  0  0  0
  181.0260  175.1760  134.9240 C   0  0  0  0  0  2  0  0  0  0  0  0
  181.3130  176.5020  136.8440 C   0  0  1  0  0  3  0  0  0  0  0  0
  178.9420  176.3770  137.1670 O   0  0  0  0  0  1  0  0  0  0  0  0
  180.9510  177.2810  139.1210 N   0  0  0  0  0  0  0  0  0  0  0  0
  183.1060  176.1900  138.6310 C   0  0  0  0  0  2  0  0  0  0  0  0
  183.0530  174.8110  136.4580 C   0  0  0  0  0  2  0  0  0  0  0  0
  179.8720  176.1920  134.9800 C   0  0  0  0  0  2  0  0  0  0  0  0
  179.9400  176.8930  136.3370 C   0  0  2  0  0  3  0  0  0  0  0  0
  181.7050  176.6470  138.2860 C   0  0  0  0  0  0  0  0  0  0  0  0
  180.8250  174.1610  137.0630 O   0  0  0  0  0  1  0  0  0  0  0  0
  181.5610  175.1060  136.3380 C   0  0  2  0  0  0  0  0  0  0  0  0
  1  4  2  0  0  0  0
  1  2  1  0  0  0  0
  2  6  1  0  0  0  0
  3  1  1  0  0  0  0
  4  7  2  0  0  0  0
  5  3  1  6  0  0  0
  5  6  1  0  0  0  0
  7 13  1  0  0  0  0
  8 16  1  1  0  0  0
  8  9  1  0  0  0  0
  9 15  1  0  0  0  0
 10 11  1  0  0  0  0
 11  9  1  0  0  0  0
 11 15  1  0  0  0  0
 11 18  1  0  0  0  0
 12 10  1  0  0  0  0
 13  8  1  0  0  0  0
 14 13  1  0  0  0  0
 14 10  1  0  0  0  0
 15 18  1  0  0  0  0
 17 14  1  0  0  0  0
 17 12  1  0  0  0  0
 19 22  1  0  0  0  0
 19  5  1  0  0  0  0
 20 22  1  0  0  0  0
 21 19  1  0  0  0  0
 23 21  1  0  0  0  0
 23 20  1  0  0  0  0
 24 29  1  0  0  0  0
 25 31  1  0  0  0  0
 25 35  1  0  0  0  0
 26 33  1  0  0  0  0
 28 23  1  0  0  0  0
 30 24  1  0  0  0  0
 31 32  1  0  0  0  0
 32 26  1  0  0  0  0
 32 27  1  0  0  0  0
 33 29  1  0  0  0  0
 33 28  2  0  0  0  0
 35 30  1  0  0  0  0
 35 26  1  0  0  0  0
 35 34  1  0  0  0  0
M  END
>  <MODEL>
6

>  <REMARK>
 VINA RESULT:      -8.5      8.056     11.224
  Name = 
  3 active torsions:
  status: ('A' for Active; 'I' for Inactive)
    1  A    between atoms: C_4  and  C_22
    2  A    between atoms: N_9  and  C_29
    3  A    between atoms: C_16  and  C_35
                            x       y       z     vdW  Elec       q    Type
                         _______ _______ _______ _____ _____    ______ ____

>  <TORSDO>
F 3

$$$$
=
 OpenBabel11042410303D

 35 42  0  0  1  0  0  0  0  0999 V2000
  183.7970  178.6130  141.6890 C   0  0  0  0  0  0  0  0  0  0  0  0
  182.4210  178.5150  142.2220 C   0  0  0  0  0  2  0  0  0  0  0  0
  184.7540  179.1390  142.6890 C   0  0  0  0  0  2  0  0  0  0  0  0
  183.9940  178.8230  140.4190 C   0  0  0  0  0  0  0  0  0  0  0  0
  183.9420  179.3150  143.9670 C   0  0  1  0  0  3  0  0  0  0  0  0
  182.4750  179.2600  143.5420 C   0  0  0  0  0  2  0  0  0  0  0  0
  184.1710  179.0430  139.1410 C   0  0  0  0  0  3  0  0  0  0  0  0
  182.0980  178.4380  137.8220 C   0  0  2  0  0  3  0  0  0  0  0  0
  181.1280  178.9640  136.7700 C   0  0  2  0  0  3  0  0  0  0  0  0
  180.9630  181.0700  138.3490 C   0  0  2  0  0  3  0  0  0  0  0  0
  180.5900  180.3750  137.0290 C   0  0  2  0  0  0  0  0  0  0  0  0
  181.5540  182.4350  138.0500 C   0  0  0  0  0  2  0  0  0  0  0  0
  183.0570  179.5520  138.2630 C   0  0  1  0  0  3  0  0  0  0  0  0
  182.2850  180.6500  138.9990 C   0  0  1  0  0  3  0  0  0  0  0  0
  179.7540  179.1590  137.3810 C   0  0  1  0  0  3  0  0  0  0  0  0
  182.8510  177.2700  137.2080 C   0  0  0  0  0  1  0  0  0  0  0  0
  182.8680  182.0160  138.6900 C   0  0  0  0  0  2  0  0  0  0  0  0
  179.0930  180.3940  136.8000 C   0  0  0  0  0  2  0  0  0  0  0  0
  184.2470  178.1970  144.9740 C   0  0  1  0  0  3  0  0  0  0  0  0
  185.7820  179.4100  146.8660 S   0  0  0  0  0  0  0  0  0  0  0  0
  185.6480  177.6490  144.8060 C   0  0  0  0  0  2  0  0  0  0  0  0
  184.1670  178.7180  146.3970 C   0  0  0  0  0  2  0  0  0  0  0  0
  186.6140  178.6230  145.4560 C   0  0  2  0  0  3  0  0  0  0  0  0
  189.7980  177.4180  142.8710 C   0  0  0  0  0  2  0  0  0  0  0  0
  192.1040  176.0810  145.7080 C   0  0  0  0  0  2  0  0  0  0  0  0
  189.8090  176.5890  145.6730 C   0  0  1  0  0  3  0  0  0  0  0  0
  190.1600  177.8690  147.6680 O   0  0  0  0  0  1  0  0  0  0  0  0
  187.7920  177.9280  145.9190 N   0  0  0  0  0  0  0  0  0  0  0  0
  188.4590  177.3030  143.6300 C   0  0  0  0  0  2  0  0  0  0  0  0
  190.9160  176.5470  143.4810 C   0  0  0  0  0  2  0  0  0  0  0  0
  191.5800  176.0240  147.1540 C   0  0  0  0  0  2  0  0  0  0  0  0
  190.1520  176.5720  147.1490 C   0  0  2  0  0  3  0  0  0  0  0  0
  188.6520  177.3760  145.1300 C   0  0  0  0  0  0  0  0  0  0  0  0
  191.4200  178.2660  145.0750 O   0  0  0  0  0  1  0  0  0  0  0  0
  191.0900  176.9100  144.9520 C   0  0  2  0  0  0  0  0  0  0  0  0
  1  2  1  0  0  0  0
  1  3  1  0  0  0  0
  2  6  1  0  0  0  0
  4  1  2  0  0  0  0
  5  3  1  6  0  0  0
  5 19  1  0  0  0  0
  6  5  1  0  0  0  0
  7  4  2  0  0  0  0
  8 16  1  6  0  0  0
  8 13  1  0  0  0  0
  9 11  1  0  0  0  0
  9 15  1  0  0  0  0
  9  8  1  0  0  0  0
 10 14  1  0  0  0  0
 11 15  1  0  0  0  0
 11 10  1  0  0  0  0
 12 10  1  0  0  0  0
 12 17  1  0  0  0  0
 13 14  1  0  0  0  0
 13  7  1  0  0  0  0
 17 14  1  0  0  0  0
 18 11  1  0  0  0  0
 18 15  1  0  0  0  0
 19 22  1  0  0  0  0
 21 19  1  0  0  0  0
 21 23  1  0  0  0  0
 22 20  1  0  0  0  0
 23 28  1  0  0  0  0
 23 20  1  0  0  0  0
 24 30  1  0  0  0  0
 24 29  1  0  0  0  0
 25 31  1  0  0  0  0
 26 32  1  0  0  0  0
 29 33  1  0  0  0  0
 30 35  1  0  0  0  0
 32 31  1  0  0  0  0
 32 27  1  0  0  0  0
 33 26  1  0  0  0  0
 33 28  2  0  0  0  0
 35 34  1  0  0  0  0
 35 26  1  0  0  0  0
 35 25  1  0  0  0  0
M  END
>  <MODEL>
7

>  <REMARK>
 VINA RESULT:      -8.2      7.055      9.835
  Name = 
  3 active torsions:
  status: ('A' for Active; 'I' for Inactive)
    1  A    between atoms: C_4  and  C_22
    2  A    between atoms: N_9  and  C_29
    3  A    between atoms: C_16  and  C_35
                            x       y       z     vdW  Elec       q    Type
                         _______ _______ _______ _____ _____    ______ ____

>  <TORSDO>
F 3

$$$$
=
 OpenBabel11042410303D

 35 42  0  0  1  0  0  0  0  0999 V2000
  187.1860  177.7120  142.4240 C   0  0  0  0  0  0  0  0  0  0  0  0
  186.9960  177.0760  143.7460 C   0  0  0  0  0  2  0  0  0  0  0  0
  188.5450  178.2790  142.2610 C   0  0  0  0  0  2  0  0  0  0  0  0
  186.1750  178.2430  141.8010 C   0  0  0  0  0  0  0  0  0  0  0  0
  189.2880  177.9110  143.5390 C   0  0  1  0  0  3  0  0  0  0  0  0
  188.2150  177.4960  144.5440 C   0  0  0  0  0  2  0  0  0  0  0  0
  185.1470  178.7790  141.1940 C   0  0  0  0  0  3  0  0  0  0  0  0
  182.6200  178.6450  141.1560 C   0  0  2  0  0  3  0  0  0  0  0  0
  181.3620  179.1780  141.8330 C   0  0  2  0  0  3  0  0  0  0  0  0
  182.5610  178.4340  144.0620 C   0  0  2  0  0  3  0  0  0  0  0  0
  181.3740  179.1190  143.3650 C   0  0  2  0  0  0  0  0  0  0  0  0
  183.1510  179.3780  145.0930 C   0  0  0  0  0  2  0  0  0  0  0  0
  183.8680  179.0940  141.9280 C   0  0  1  0  0  3  0  0  0  0  0  0
  183.8960  178.4360  143.3100 C   0  0  1  0  0  3  0  0  0  0  0  0
  180.6490  178.0550  142.5620 C   0  0  1  0  0  3  0  0  0  0  0  0
  182.6310  179.1730  139.7310 C   0  0  0  0  0  1  0  0  0  0  0  0
  184.4740  179.3840  144.3440 C   0  0  0  0  0  2  0  0  0  0  0  0
  180.0530  178.5680  143.8580 C   0  0  0  0  0  2  0  0  0  0  0  0
  190.2670  176.7530  143.2960 C   0  0  1  0  0  3  0  0  0  0  0  0
  192.0350  177.7490  141.4820 S   0  0  0  0  0  0  0  0  0  0  0  0
  189.9890  176.0410  141.9890 C   0  0  0  0  0  2  0  0  0  0  0  0
  191.6930  177.2640  143.2010 C   0  0  0  0  0  2  0  0  0  0  0  0
  190.5620  176.8830  140.8640 C   0  0  2  0  0  3  0  0  0  0  0  0
  188.8260  177.2540  136.9750 C   0  0  0  0  0  2  0  0  0  0  0  0
  191.1080  174.5900  135.2860 C   0  0  0  0  0  2  0  0  0  0  0  0
  190.6510  175.0430  137.5470 C   0  0  1  0  0  3  0  0  0  0  0  0
  193.0160  175.0450  137.9260 O   0  0  0  0  0  1  0  0  0  0  0  0
  190.9300  176.0440  139.7470 N   0  0  0  0  0  0  0  0  0  0  0  0
  188.9720  176.7500  138.4270 C   0  0  0  0  0  2  0  0  0  0  0  0
  189.2030  176.1880  135.9260 C   0  0  0  0  0  2  0  0  0  0  0  0
  192.0820  173.7640  136.1450 C   0  0  0  0  0  2  0  0  0  0  0  0
  191.9300  174.2330  137.5940 C   0  0  2  0  0  3  0  0  0  0  0  0
  190.2720  176.0030  138.6380 C   0  0  0  0  0  0  0  0  0  0  0  0
  191.5190  176.7740  136.1270 O   0  0  0  0  0  1  0  0  0  0  0  0
  190.6230  175.7000  136.1930 C   0  0  2  0  0  0  0  0  0  0  0  0
  1  2  1  0  0  0  0
  2  6  1  0  0  0  0
  3  1  1  0  0  0  0
  4  1  2  0  0  0  0
  5  3  1  6  0  0  0
  5  6  1  0  0  0  0
  7  4  2  0  0  0  0
  7 13  1  0  0  0  0
  8 16  1  6  0  0  0
  8  9  1  0  0  0  0
  8 13  1  0  0  0  0
  9 15  1  0  0  0  0
  9 11  1  0  0  0  0
 10 12  1  0  0  0  0
 11 18  1  0  0  0  0
 11 10  1  0  0  0  0
 13 14  1  0  0  0  0
 14 10  1  0  0  0  0
 14 17  1  0  0  0  0
 15 11  1  0  0  0  0
 15 18  1  0  0  0  0
 17 12  1  0  0  0  0
 19  5  1  0  0  0  0
 20 22  1  0  0  0  0
 21 19  1  0  0  0  0
 22 19  1  0  0  0  0
 23 20  1  0  0  0  0
 23 21  1  0  0  0  0
 24 29  1  0  0  0  0
 25 31  1  0  0  0  0
 25 35  1  0  0  0  0
 26 32  1  0  0  0  0
 26 33  1  0  0  0  0
 28 23  1  0  0  0  0
 29 33  1  0  0  0  0
 30 35  1  0  0  0  0
 30 24  1  0  0  0  0
 31 32  1  0  0  0  0
 32 27  1  0  0  0  0
 33 28  2  0  0  0  0
 34 35  1  0  0  0  0
 35 26  1  0  0  0  0
M  END
>  <MODEL>
8

>  <REMARK>
 VINA RESULT:      -8.0      3.410      5.734
  Name = 
  3 active torsions:
  status: ('A' for Active; 'I' for Inactive)
    1  A    between atoms: C_4  and  C_22
    2  A    between atoms: N_9  and  C_29
    3  A    between atoms: C_16  and  C_35
                            x       y       z     vdW  Elec       q    Type
                         _______ _______ _______ _____ _____    ______ ____

>  <TORSDO>
F 3

$$$$
=
 OpenBabel11042410303D

 35 42  0  0  1  0  0  0  0  0999 V2000
  188.5910  177.1270  141.3140 C   0  0  0  0  0  0  0  0  0  0  0  0
  190.0070  176.7850  141.5710 C   0  0  0  0  0  2  0  0  0  0  0  0
  188.3960  177.7670  139.9930 C   0  0  0  0  0  2  0  0  0  0  0  0
  187.7950  177.4090  142.3040 C   0  0  0  0  0  0  0  0  0  0  0  0
  189.7720  177.7630  139.3390 C   0  0  1  0  0  3  0  0  0  0  0  0
  190.7700  177.4830  140.4610 C   0  0  0  0  0  2  0  0  0  0  0  0
  187.0130  177.6990  143.3130 C   0  0  0  0  0  3  0  0  0  0  0  0
  186.4830  178.0880  145.7560 C   0  0  2  0  0  3  0  0  0  0  0  0
  187.0550  178.6530  147.0520 C   0  0  2  0  0  3  0  0  0  0  0  0
  189.1190  177.1020  146.5130 C   0  0  2  0  0  3  0  0  0  0  0  0
  188.4680  178.1750  147.4020 C   0  0  2  0  0  0  0  0  0  0  0  0
  190.4810  177.5880  146.0530 C   0  0  0  0  0  2  0  0  0  0  0  0
  187.5670  178.0490  144.6700 C   0  0  1  0  0  3  0  0  0  0  0  0
  188.6580  177.0440  145.0530 C   0  0  1  0  0  3  0  0  0  0  0  0
  187.2580  177.5390  148.0600 C   0  0  1  0  0  3  0  0  0  0  0  0
  185.3190  178.9740  145.3450 C   0  0  0  0  0  1  0  0  0  0  0  0
  190.0210  177.5370  144.6050 C   0  0  0  0  0  2  0  0  0  0  0  0
  188.5200  177.7840  148.8640 C   0  0  0  0  0  2  0  0  0  0  0  0
  189.8670  176.6760  138.2580 C   0  0  1  0  0  3  0  0  0  0  0  0
  188.5900  177.7610  136.1130 S   0  0  0  0  0  0  0  0  0  0  0  0
  188.5670  175.9160  138.1030 C   0  0  0  0  0  2  0  0  0  0  0  0
  190.1600  177.2900  136.9010 C   0  0  0  0  0  2  0  0  0  0  0  0
  187.6170  176.7740  137.2860 C   0  0  2  0  0  3  0  0  0  0  0  0
  188.1140  172.5530  136.8260 C   0  0  0  0  0  2  0  0  0  0  0  0
  184.7250  171.9690  135.0010 C   0  0  0  0  0  2  0  0  0  0  0  0
  185.9640  173.9270  135.4000 C   0  0  1  0  0  3  0  0  0  0  0  0
  183.9460  174.9210  136.2240 O   0  0  0  0  0  1  0  0  0  0  0  0
  186.6880  175.9400  136.5600 N   0  0  0  0  0  0  0  0  0  0  0  0
  188.2690  174.0500  136.4850 C   0  0  0  0  0  2  0  0  0  0  0  0
  187.1280  171.8200  135.8930 C   0  0  0  0  0  2  0  0  0  0  0  0
  183.8550  173.1740  134.6040 C   0  0  0  0  0  2  0  0  0  0  0  0
  184.5760  174.4390  135.0740 C   0  0  2  0  0  3  0  0  0  0  0  0
  186.9310  174.7140  136.2350 C   0  0  0  0  0  0  0  0  0  0  0  0
  185.2790  172.5420  137.2390 O   0  0  0  0  0  1  0  0  0  0  0  0
  185.7790  172.5300  135.9310 C   0  0  2  0  0  0  0  0  0  0  0  0
  1  2  1  0  0  0  0
  1  4  2  0  0  0  0
  3  1  1  0  0  0  0
  4  7  2  0  0  0  0
  5  3  1  1  0  0  0
  5  6  1  0  0  0  0
  6  2  1  0  0  0  0
  7 13  1  0  0  0  0
  8 16  1  6  0  0  0
  8  9  1  0  0  0  0
  9 11  1  0  0  0  0
  9 15  1  0  0  0  0
 10 11  1  0  0  0  0
 11 15  1  0  0  0  0
 11 18  1  0  0  0  0
 12 10  1  0  0  0  0
 13 14  1  0  0  0  0
 13  8  1  0  0  0  0
 14 10  1  0  0  0  0
 15 18  1  0  0  0  0
 17 14  1  0  0  0  0
 17 12  1  0  0  0  0
 19  5  1  0  0  0  0
 20 22  1  0  0  0  0
 20 23  1  0  0  0  0
 21 19  1  0  0  0  0
 22 19  1  0  0  0  0
 23 21  1  0  0  0  0
 25 35  1  0  0  0  0
 26 35  1  0  0  0  0
 26 33  1  0  0  0  0
 28 23  1  0  0  0  0
 29 24  1  0  0  0  0
 30 35  1  0  0  0  0
 30 24  1  0  0  0  0
 31 25  1  0  0  0  0
 31 32  1  0  0  0  0
 32 26  1  0  0  0  0
 32 27  1  0  0  0  0
 33 29  1  0  0  0  0
 33 28  2  0  0  0  0
 35 34  1  0  0  0  0
M  END
>  <MODEL>
9

>  <REMARK>
 VINA RESULT:      -7.8      5.443      7.398
  Name = 
  3 active torsions:
  status: ('A' for Active; 'I' for Inactive)
    1  A    between atoms: C_4  and  C_22
    2  A    between atoms: N_9  and  C_29
    3  A    between atoms: C_16  and  C_35
                            x       y       z     vdW  Elec       q    Type
                         _______ _______ _______ _____ _____    ______ ____

>  <TORSDO>
F 3

$$$$
