=
 OpenBabel11042412003D

 28 31  0  0  1  0  0  0  0  0999 V2000
  190.5230  177.0120  145.9020 C   0  0  0  0  0  0  0  0  0  0  0  0
  186.1780  178.1120  144.8950 N   0  0  0  0  0  0  0  0  0  0  0  0
  191.3170  176.8540  142.3880 C   0  0  0  0  0  3  0  0  0  0  0  0
  186.1870  178.4800  146.2820 C   0  0  0  0  0  0  0  0  0  0  0  0
  187.1260  177.9620  147.1920 O   0  0  0  0  0  0  0  0  0  0  0  0
  187.3550  177.6060  143.0770 C   0  0  0  0  0  0  0  0  0  0  0  0
  186.6640  178.6280  142.6900 N   0  0  0  0  0  0  0  0  0  0  0  0
  189.3930  177.9150  146.3080 C   0  0  0  0  0  2  0  0  0  0  0  0
  188.4910  177.0360  142.3530 C   0  0  2  0  0  3  0  0  0  0  0  0
  190.4940  176.1900  143.4220 C   0  0  0  0  0  0  0  0  0  0  0  0
  187.0680  177.2250  144.3660 O   0  0  0  0  0  0  0  0  0  0  0  0
  190.5700  176.5920  144.6640 C   0  0  0  0  0  0  0  0  0  0  0  0
  189.1300  175.8130  142.9530 C   0  0  0  0  0  2  0  0  0  0  0  0
  188.2160  177.1070  146.8480 C   0  0  0  0  0  2  0  0  0  0  0  0
  189.2320  177.8290  141.5580 C   0  0  0  0  0  2  0  0  0  0  0  0
  190.6980  177.6020  141.4580 C   0  0  0  0  0  3  0  0  0  0  0  0
  185.3340  179.3050  146.7030 O   0  0  0  0  0  0  0  0  0  0  0  0
  185.8060  179.0240  143.8150 C   0  0  1  0  0  3  0  0  0  0  0  0
  182.6600  178.5020  141.7700 C   0  0  0  0  0  3  0  0  0  0  0  0
  183.3600  178.9300  144.4430 C   0  0  0  0  0  3  0  0  0  0  0  0
  181.6670  178.5680  142.7510 C   0  0  0  0  0  0  0  0  0  0  0  0
  182.0160  178.7820  144.0870 C   0  0  0  0  0  3  0  0  0  0  0  0
  184.3600  178.8640  143.4610 C   0  0  0  0  0  0  0  0  0  0  0  0
  180.3650  178.4240  142.4060 F   0  0  0  0  0  0  0  0  0  0  0  0
  184.0040  178.6500  142.1250 C   0  0  0  0  0  3  0  0  0  0  0  0
  191.5090  176.5460  146.8900 C   0  0  0  0  0  0  0  0  0  0  0  0
  191.6840  177.1850  147.9620 O   0  0  0  0  0  1  0  0  0  0  0  0
  192.2600  175.4000  146.6510 O   0  0  0  0  0  0  0  0  0  0  0  0
  1  8  1  0  0  0  0
  1 26  1  0  0  0  0
  2  4  1  0  0  0  0
  3 10  1  0  0  0  0
  4 17  2  0  0  0  0
  4  5  1  0  0  0  0
  6 11  1  0  0  0  0
  7  6  2  0  0  0  0
  7 18  1  0  0  0  0
  8 14  1  0  0  0  0
  9 15  1  1  0  0  0
  9 13  1  0  0  0  0
  9  6  1  0  0  0  0
 10 12  2  0  0  0  0
 11  2  1  0  0  0  0
 12  1  2  0  0  0  0
 13 10  1  0  0  0  0
 14  5  1  0  0  0  0
 16 15  1  0  0  0  0
 16  3  2  0  0  0  0
 18 23  1  6  0  0  0
 18  2  1  0  0  0  0
 19 25  2  0  0  0  0
 19 21  1  0  0  0  0
 21 22  2  0  0  0  0
 22 20  1  0  0  0  0
 23 20  2  0  0  0  0
 24 21  1  0  0  0  0
 25 23  1  0  0  0  0
 26 27  1  0  0  0  0
 28 26  2  0  0  0  0
M  END
>  <MODEL>
1

>  <REMARK>
 VINA RESULT:     -10.6      0.000      0.000
  Name = 
  2 active torsions:
  status: ('A' for Active; 'I' for Inactive)
    1  A    between atoms: C_1  and  C_20
    2  A    between atoms: C_24  and  C_26
                            x       y       z     vdW  Elec       q    Type
                         _______ _______ _______ _____ _____    ______ ____

>  <TORSDO>
F 2

$$$$
=
 OpenBabel11042412003D

 28 31  0  0  1  0  0  0  0  0999 V2000
  188.8850  177.7950  146.4280 C   0  0  0  0  0  0  0  0  0  0  0  0
  184.9600  178.2100  144.0770 N   0  0  0  0  0  0  0  0  0  0  0  0
  190.7280  177.5360  143.3400 C   0  0  0  0  0  3  0  0  0  0  0  0
  184.5010  178.6600  145.3620 C   0  0  0  0  0  0  0  0  0  0  0  0
  185.1700  178.3350  146.5550 O   0  0  0  0  0  0  0  0  0  0  0  0
  186.6870  177.7650  142.7490 C   0  0  0  0  0  0  0  0  0  0  0  0
  186.0340  178.6550  142.0740 N   0  0  0  0  0  0  0  0  0  0  0  0
  187.5890  178.5530  146.3890 C   0  0  0  0  0  2  0  0  0  0  0  0
  188.0480  177.3180  142.4540 C   0  0  2  0  0  3  0  0  0  0  0  0
  189.7110  176.8280  144.1460 C   0  0  0  0  0  0  0  0  0  0  0  0
  186.0650  177.4270  143.9270 O   0  0  0  0  0  0  0  0  0  0  0  0
  189.3560  177.3110  145.3080 C   0  0  0  0  0  0  0  0  0  0  0  0
  188.6090  176.2350  143.3350 C   0  0  0  0  0  2  0  0  0  0  0  0
  186.4040  177.6220  146.6360 C   0  0  0  0  0  2  0  0  0  0  0  0
  188.8990  178.1560  141.8380 C   0  0  0  0  0  2  0  0  0  0  0  0
  190.3410  178.1320  142.1980 C   0  0  0  0  0  3  0  0  0  0  0  0
  183.4720  179.3810  145.4270 O   0  0  0  0  0  0  0  0  0  0  0  0
  184.8330  178.9940  142.8500 C   0  0  1  0  0  3  0  0  0  0  0  0
  182.5660  177.5000  140.2080 C   0  0  0  0  0  3  0  0  0  0  0  0
  182.3230  178.9930  142.5600 C   0  0  0  0  0  3  0  0  0  0  0  0
  181.3020  177.8810  140.6670 C   0  0  0  0  0  0  0  0  0  0  0  0
  181.1810  178.6270  141.8420 C   0  0  0  0  0  3  0  0  0  0  0  0
  183.5930  178.6120  142.1030 C   0  0  0  0  0  0  0  0  0  0  0  0
  180.1950  177.5260  139.9720 F   0  0  0  0  0  0  0  0  0  0  0  0
  183.7100  177.8650  140.9250 C   0  0  0  0  0  3  0  0  0  0  0  0
  189.5680  177.5320  147.7050 C   0  0  0  0  0  0  0  0  0  0  0  0
  189.1070  178.0030  148.7790 O   0  0  0  0  0  1  0  0  0  0  0  0
  190.7280  176.7670  147.7400 O   0  0  0  0  0  0  0  0  0  0  0  0
  1 26  1  0  0  0  0
  2  4  1  0  0  0  0
  3 10  1  0  0  0  0
  4 17  2  0  0  0  0
  4  5  1  0  0  0  0
  5 14  1  0  0  0  0
  6 11  1  0  0  0  0
  7  6  2  0  0  0  0
  7 18  1  0  0  0  0
  8  1  1  0  0  0  0
  8 14  1  0  0  0  0
  9 15  1  1  0  0  0
  9  6  1  0  0  0  0
  9 13  1  0  0  0  0
 10 12  2  0  0  0  0
 11  2  1  0  0  0  0
 12  1  2  0  0  0  0
 13 10  1  0  0  0  0
 15 16  1  0  0  0  0
 16  3  2  0  0  0  0
 18 23  1  6  0  0  0
 18  2  1  0  0  0  0
 19 21  2  0  0  0  0
 19 25  1  0  0  0  0
 21 22  1  0  0  0  0
 22 20  2  0  0  0  0
 23 20  1  0  0  0  0
 24 21  1  0  0  0  0
 25 23  2  0  0  0  0
 26 28  2  0  0  0  0
 26 27  1  0  0  0  0
M  END
>  <MODEL>
2

>  <REMARK>
 VINA RESULT:      -9.9      1.343      1.767
  Name = 
  2 active torsions:
  status: ('A' for Active; 'I' for Inactive)
    1  A    between atoms: C_1  and  C_20
    2  A    between atoms: C_24  and  C_26
                            x       y       z     vdW  Elec       q    Type
                         _______ _______ _______ _____ _____    ______ ____

>  <TORSDO>
F 2

$$$$
=
 OpenBabel11042412003D

 28 31  0  0  1  0  0  0  0  0999 V2000
  188.0210  178.0110  146.6670 C   0  0  0  0  0  0  0  0  0  0  0  0
  184.9920  178.4040  143.2360 N   0  0  0  0  0  0  0  0  0  0  0  0
  190.6980  177.6200  144.2830 C   0  0  0  0  0  3  0  0  0  0  0  0
  184.1800  178.9040  144.3100 C   0  0  0  0  0  0  0  0  0  0  0  0
  184.4530  178.6100  145.6580 O   0  0  0  0  0  0  0  0  0  0  0  0
  187.0260  177.8880  142.5000 C   0  0  0  0  0  0  0  0  0  0  0  0
  186.6270  178.7640  141.6350 N   0  0  0  0  0  0  0  0  0  0  0  0
  186.8150  178.7870  146.2190 C   0  0  0  0  0  2  0  0  0  0  0  0
  188.4010  177.4110  142.6400 C   0  0  2  0  0  3  0  0  0  0  0  0
  189.4690  176.9550  144.7660 C   0  0  0  0  0  0  0  0  0  0  0  0
  186.0720  177.5990  143.4460 O   0  0  0  0  0  0  0  0  0  0  0  0
  188.7940  177.4820  145.7540 C   0  0  0  0  0  0  0  0  0  0  0  0
  188.6460  176.3500  143.6790 C   0  0  0  0  0  2  0  0  0  0  0  0
  185.5880  177.8820  146.1250 C   0  0  0  0  0  2  0  0  0  0  0  0
  189.4180  178.2150  142.2840 C   0  0  0  0  0  2  0  0  0  0  0  0
  190.6850  178.1820  143.0610 C   0  0  0  0  0  3  0  0  0  0  0  0
  183.1960  179.6410  144.0420 O   0  0  0  0  0  0  0  0  0  0  0  0
  185.2570  179.1470  142.0050 C   0  0  1  0  0  3  0  0  0  0  0  0
  183.4160  179.0980  138.6950 C   0  0  0  0  0  3  0  0  0  0  0  0
  183.3600  177.7260  141.1300 C   0  0  0  0  0  3  0  0  0  0  0  0
  182.4920  178.0690  138.8970 C   0  0  0  0  0  0  0  0  0  0  0  0
  182.4640  177.3830  140.1140 C   0  0  0  0  0  3  0  0  0  0  0  0
  184.2890  178.7570  140.9320 C   0  0  0  0  0  0  0  0  0  0  0  0
  181.6230  177.7370  137.9120 F   0  0  0  0  0  0  0  0  0  0  0  0
  184.3130  179.4420  139.7110 C   0  0  0  0  0  3  0  0  0  0  0  0
  188.2840  177.7820  148.0960 C   0  0  0  0  0  0  0  0  0  0  0  0
  187.5240  177.0340  148.7680 O   0  0  0  0  0  1  0  0  0  0  0  0
  189.3660  178.3900  148.7220 O   0  0  0  0  0  0  0  0  0  0  0  0
  1 26  1  0  0  0  0
  2 11  1  0  0  0  0
  2  4  1  0  0  0  0
  3 10  1  0  0  0  0
  4  5  1  0  0  0  0
  5 14  1  0  0  0  0
  6  9  1  0  0  0  0
  6 11  1  0  0  0  0
  7 18  1  0  0  0  0
  7  6  2  0  0  0  0
  8  1  1  0  0  0  0
  9 15  1  1  0  0  0
  9 13  1  0  0  0  0
 10 12  2  0  0  0  0
 12  1  2  0  0  0  0
 13 10  1  0  0  0  0
 14  8  1  0  0  0  0
 15 16  1  0  0  0  0
 16  3  2  0  0  0  0
 17  4  2  0  0  0  0
 18 23  1  6  0  0  0
 18  2  1  0  0  0  0
 19 21  2  0  0  0  0
 19 25  1  0  0  0  0
 21 22  1  0  0  0  0
 22 20  2  0  0  0  0
 23 20  1  0  0  0  0
 24 21  1  0  0  0  0
 25 23  2  0  0  0  0
 26 28  2  0  0  0  0
 26 27  1  0  0  0  0
M  END
>  <MODEL>
3

>  <REMARK>
 VINA RESULT:      -9.8      1.963      2.849
  Name = 
  2 active torsions:
  status: ('A' for Active; 'I' for Inactive)
    1  A    between atoms: C_1  and  C_20
    2  A    between atoms: C_24  and  C_26
                            x       y       z     vdW  Elec       q    Type
                         _______ _______ _______ _____ _____    ______ ____

>  <TORSDO>
F 2

$$$$
=
 OpenBabel11042412003D

 28 31  0  0  1  0  0  0  0  0999 V2000
  185.6050  178.6770  144.9150 C   0  0  0  0  0  0  0  0  0  0  0  0
  186.5500  178.3150  140.4340 N   0  0  0  0  0  0  0  0  0  0  0  0
  189.0290  177.8840  145.7200 C   0  0  0  0  0  3  0  0  0  0  0  0
  185.2900  178.9990  140.3440 C   0  0  0  0  0  0  0  0  0  0  0  0
  184.3490  178.9830  141.3880 O   0  0  0  0  0  0  0  0  0  0  0  0
  188.2730  177.7120  141.7030 C   0  0  0  0  0  0  0  0  0  0  0  0
  188.8410  178.3900  140.7600 N   0  0  0  0  0  0  0  0  0  0  0  0
  185.3470  179.3210  143.5830 C   0  0  0  0  0  2  0  0  0  0  0  0
  188.9180  177.3030  142.9510 C   0  0  2  0  0  3  0  0  0  0  0  0
  187.8170  177.3000  145.1090 C   0  0  0  0  0  0  0  0  0  0  0  0
  186.9150  177.5930  141.5310 O   0  0  0  0  0  0  0  0  0  0  0  0
  186.7100  177.9960  145.0730 C   0  0  0  0  0  0  0  0  0  0  0  0
  188.0930  176.4740  143.8980 C   0  0  0  0  0  2  0  0  0  0  0  0
  184.5560  178.3880  142.6690 C   0  0  0  0  0  2  0  0  0  0  0  0
  189.9230  178.0450  143.4480 C   0  0  0  0  0  2  0  0  0  0  0  0
  190.0660  178.1950  144.9200 C   0  0  0  0  0  3  0  0  0  0  0  0
  185.0180  179.6460  139.2990 O   0  0  0  0  0  0  0  0  0  0  0  0
  187.7850  178.8070  139.8270 C   0  0  1  0  0  3  0  0  0  0  0  0
  189.2550  178.0950  136.4090 C   0  0  0  0  0  3  0  0  0  0  0  0
  187.1590  177.1680  138.0090 C   0  0  0  0  0  3  0  0  0  0  0  0
  188.4200  177.0750  135.9450 C   0  0  0  0  0  0  0  0  0  0  0  0
  187.3720  176.6120  136.7450 C   0  0  0  0  0  3  0  0  0  0  0  0
  187.9950  178.1910  138.4790 C   0  0  0  0  0  0  0  0  0  0  0  0
  188.6270  176.5360  134.7200 F   0  0  0  0  0  0  0  0  0  0  0  0
  189.0430  178.6520  137.6740 C   0  0  0  0  0  3  0  0  0  0  0  0
  184.6030  178.7400  145.9910 C   0  0  0  0  0  0  0  0  0  0  0  0
  183.4210  179.0940  145.7360 O   0  0  0  0  0  0  0  0  0  0  0  0
  184.9500  178.4160  147.2980 O   0  0  0  0  0  1  0  0  0  0  0  0
  1 12  2  0  0  0  0
  1 26  1  0  0  0  0
  2 11  1  0  0  0  0
  4  2  1  0  0  0  0
  4  5  1  0  0  0  0
  5 14  1  0  0  0  0
  6  9  1  0  0  0  0
  7  6  2  0  0  0  0
  8  1  1  0  0  0  0
  9 15  1  1  0  0  0
  9 13  1  0  0  0  0
 10  3  1  0  0  0  0
 11  6  1  0  0  0  0
 12 10  2  0  0  0  0
 13 10  1  0  0  0  0
 14  8  1  0  0  0  0
 15 16  1  0  0  0  0
 16  3  2  0  0  0  0
 17  4  2  0  0  0  0
 18 23  1  6  0  0  0
 18  2  1  0  0  0  0
 18  7  1  0  0  0  0
 19 25  1  0  0  0  0
 20 23  1  0  0  0  0
 21 19  2  0  0  0  0
 21 22  1  0  0  0  0
 22 20  2  0  0  0  0
 24 21  1  0  0  0  0
 25 23  2  0  0  0  0
 26 28  1  0  0  0  0
 27 26  2  0  0  0  0
M  END
>  <MODEL>
4

>  <REMARK>
 VINA RESULT:      -9.7      3.671      6.169
  Name = 
  2 active torsions:
  status: ('A' for Active; 'I' for Inactive)
    1  A    between atoms: C_1  and  C_20
    2  A    between atoms: C_24  and  C_26
                            x       y       z     vdW  Elec       q    Type
                         _______ _______ _______ _____ _____    ______ ____

>  <TORSDO>
F 2

$$$$
=
 OpenBabel11042412003D

 28 31  0  0  1  0  0  0  0  0999 V2000
  185.9360  178.7450  142.8420 C   0  0  0  0  0  0  0  0  0  0  0  0
  189.1050  177.4630  139.7740 N   0  0  0  0  0  0  0  0  0  0  0  0
  188.0160  177.5310  145.5250 C   0  0  0  0  0  3  0  0  0  0  0  0
  188.3190  178.3250  138.9370 C   0  0  0  0  0  0  0  0  0  0  0  0
  186.9840  178.6500  139.2360 O   0  0  0  0  0  0  0  0  0  0  0  0
  189.6200  176.8010  141.8330 C   0  0  0  0  0  0  0  0  0  0  0  0
  190.7610  177.2000  141.3720 N   0  0  0  0  0  0  0  0  0  0  0  0
  186.6300  179.1850  141.5840 C   0  0  0  0  0  2  0  0  0  0  0  0
  189.3370  176.5090  143.2380 C   0  0  2  0  0  3  0  0  0  0  0  0
  187.2550  177.0650  144.3460 C   0  0  0  0  0  0  0  0  0  0  0  0
  188.6100  176.8880  140.9060 O   0  0  0  0  0  0  0  0  0  0  0  0
  186.5630  177.9230  143.6430 C   0  0  0  0  0  0  0  0  0  0  0  0
  187.9550  176.0090  143.5590 C   0  0  0  0  0  2  0  0  0  0  0  0
  186.2900  178.2580  140.4200 C   0  0  0  0  0  2  0  0  0  0  0  0
  190.0340  177.1430  144.1980 C   0  0  0  0  0  2  0  0  0  0  0  0
  189.3600  177.5170  145.4680 C   0  0  0  0  0  3  0  0  0  0  0  0
  188.8410  178.8200  137.9050 O   0  0  0  0  0  0  0  0  0  0  0  0
  190.5430  177.6250  139.9820 C   0  0  1  0  0  3  0  0  0  0  0  0
  191.3410  174.9620  137.4090 C   0  0  0  0  0  3  0  0  0  0  0  0
  192.7030  176.9070  138.8850 C   0  0  0  0  0  3  0  0  0  0  0  0
  192.7230  175.1120  137.2610 C   0  0  0  0  0  0  0  0  0  0  0  0
  193.4040  176.0840  137.9980 C   0  0  0  0  0  3  0  0  0  0  0  0
  191.3160  176.7600  139.0360 C   0  0  0  0  0  0  0  0  0  0  0  0
  193.4010  174.3150  136.4010 F   0  0  0  0  0  0  0  0  0  0  0  0
  190.6390  175.7840  138.2950 C   0  0  0  0  0  3  0  0  0  0  0  0
  184.5550  179.1630  143.1270 C   0  0  0  0  0  0  0  0  0  0  0  0
  184.3270  180.0540  143.9890 O   0  0  0  0  0  1  0  0  0  0  0  0
  183.4870  178.5770  142.4560 O   0  0  0  0  0  0  0  0  0  0  0  0
  1 26  1  0  0  0  0
  1 12  2  0  0  0  0
  2 18  1  0  0  0  0
  2 11  1  0  0  0  0
  4  5  1  0  0  0  0
  4  2  1  0  0  0  0
  5 14  1  0  0  0  0
  6  9  1  0  0  0  0
  7  6  2  0  0  0  0
  8  1  1  0  0  0  0
  9 13  1  1  0  0  0
  9 15  1  0  0  0  0
 10  3  1  0  0  0  0
 11  6  1  0  0  0  0
 12 10  2  0  0  0  0
 13 10  1  0  0  0  0
 14  8  1  0  0  0  0
 15 16  1  0  0  0  0
 16  3  2  0  0  0  0
 17  4  2  0  0  0  0
 18 23  1  6  0  0  0
 18  7  1  0  0  0  0
 19 25  1  0  0  0  0
 20 23  1  0  0  0  0
 21 19  2  0  0  0  0
 21 22  1  0  0  0  0
 22 20  2  0  0  0  0
 24 21  1  0  0  0  0
 25 23  2  0  0  0  0
 26 27  1  0  0  0  0
 28 26  2  0  0  0  0
M  END
>  <MODEL>
5

>  <REMARK>
 VINA RESULT:      -9.3      4.296      7.801
  Name = 
  2 active torsions:
  status: ('A' for Active; 'I' for Inactive)
    1  A    between atoms: C_1  and  C_20
    2  A    between atoms: C_24  and  C_26
                            x       y       z     vdW  Elec       q    Type
                         _______ _______ _______ _____ _____    ______ ____

>  <TORSDO>
F 2

$$$$
=
 OpenBabel11042412003D

 28 31  0  0  1  0  0  0  0  0999 V2000
  181.7980  179.3930  138.6040 C   0  0  0  0  0  0  0  0  0  0  0  0
  184.7300  178.7260  142.0770 N   0  0  0  0  0  0  0  0  0  0  0  0
  179.0740  179.7250  140.9430 C   0  0  0  0  0  3  0  0  0  0  0  0
  185.6770  179.0030  141.0340 C   0  0  0  0  0  0  0  0  0  0  0  0
  185.3590  178.8570  139.6720 O   0  0  0  0  0  0  0  0  0  0  0  0
  182.6190  178.8130  142.7710 C   0  0  0  0  0  0  0  0  0  0  0  0
  183.2420  179.4950  143.6770 N   0  0  0  0  0  0  0  0  0  0  0  0
  183.1700  179.7540  139.0970 C   0  0  0  0  0  2  0  0  0  0  0  0
  181.1670  178.7750  142.5970 C   0  0  2  0  0  3  0  0  0  0  0  0
  180.0590  178.7430  140.4430 C   0  0  0  0  0  0  0  0  0  0  0  0
  183.4640  178.2900  141.8220 O   0  0  0  0  0  0  0  0  0  0  0  0
  180.8820  179.0830  139.4850 C   0  0  0  0  0  0  0  0  0  0  0  0
  180.6400  177.8780  141.5100 C   0  0  0  0  0  2  0  0  0  0  0  0
  184.0690  178.5210  139.1620 C   0  0  0  0  0  2  0  0  0  0  0  0
  180.4280  179.8320  142.9780 C   0  0  0  0  0  2  0  0  0  0  0  0
  179.2270  180.2100  142.1890 C   0  0  0  0  0  3  0  0  0  0  0  0
  186.8300  179.4010  141.3430 O   0  0  0  0  0  0  0  0  0  0  0  0
  184.6710  179.4660  143.3370 C   0  0  1  0  0  3  0  0  0  0  0  0
  185.8860  178.3800  146.7570 C   0  0  0  0  0  3  0  0  0  0  0  0
  186.4740  177.8560  144.0740 C   0  0  0  0  0  3  0  0  0  0  0  0
  186.9010  177.4770  146.4260 C   0  0  0  0  0  0  0  0  0  0  0  0
  187.1950  177.2150  145.0850 C   0  0  0  0  0  3  0  0  0  0  0  0
  185.4550  178.7620  144.4010 C   0  0  0  0  0  0  0  0  0  0  0  0
  187.5990  176.8560  147.4070 F   0  0  0  0  0  0  0  0  0  0  0  0
  185.1650  179.0220  145.7450 C   0  0  0  0  0  3  0  0  0  0  0  0
  181.5110  179.3090  137.1640 C   0  0  0  0  0  0  0  0  0  0  0  0
  180.9500  180.2700  136.5720 O   0  0  0  0  0  1  0  0  0  0  0  0
  181.8480  178.1700  136.4410 O   0  0  0  0  0  0  0  0  0  0  0  0
  1  8  1  0  0  0  0
  1 12  2  0  0  0  0
  2 18  1  0  0  0  0
  3 16  2  0  0  0  0
  4 17  2  0  0  0  0
  4  2  1  0  0  0  0
  5  4  1  0  0  0  0
  6  7  2  0  0  0  0
  8 14  1  0  0  0  0
  9 13  1  6  0  0  0
  9  6  1  0  0  0  0
  9 15  1  0  0  0  0
 10  3  1  0  0  0  0
 10 13  1  0  0  0  0
 11  2  1  0  0  0  0
 11  6  1  0  0  0  0
 12 10  2  0  0  0  0
 14  5  1  0  0  0  0
 16 15  1  0  0  0  0
 18  7  1  0  0  0  0
 18 23  1  1  0  0  0
 20 23  2  0  0  0  0
 20 22  1  0  0  0  0
 21 19  1  0  0  0  0
 21 24  1  0  0  0  0
 22 21  2  0  0  0  0
 23 25  1  0  0  0  0
 25 19  2  0  0  0  0
 26  1  1  0  0  0  0
 27 26  1  0  0  0  0
 28 26  2  0  0  0  0
M  END
>  <MODEL>
6

>  <REMARK>
 VINA RESULT:      -8.7      4.147      8.779
  Name = 
  2 active torsions:
  status: ('A' for Active; 'I' for Inactive)
    1  A    between atoms: C_1  and  C_20
    2  A    between atoms: C_24  and  C_26
                            x       y       z     vdW  Elec       q    Type
                         _______ _______ _______ _____ _____    ______ ____

>  <TORSDO>
F 2

$$$$
=
 OpenBabel11042412003D

 28 31  0  0  1  0  0  0  0  0999 V2000
  185.3500  178.6170  139.6160 C   0  0  0  0  0  0  0  0  0  0  0  0
  187.6020  177.7630  143.5280 N   0  0  0  0  0  0  0  0  0  0  0  0
  188.0930  177.2490  137.7170 C   0  0  0  0  0  3  0  0  0  0  0  0
  186.2900  177.9850  144.0680 C   0  0  0  0  0  0  0  0  0  0  0  0
  185.3010  178.7020  143.3710 O   0  0  0  0  0  0  0  0  0  0  0  0
  188.8500  177.3430  141.7360 C   0  0  0  0  0  0  0  0  0  0  0  0
  189.1290  176.3480  142.5140 N   0  0  0  0  0  0  0  0  0  0  0  0
  185.1640  178.1040  141.0150 C   0  0  0  0  0  2  0  0  0  0  0  0
  189.1980  177.4260  140.3180 C   0  0  2  0  0  3  0  0  0  0  0  0
  187.7520  178.3690  138.6190 C   0  0  0  0  0  0  0  0  0  0  0  0
  187.9850  178.2430  142.3110 O   0  0  0  0  0  0  0  0  0  0  0  0
  186.5270  178.4950  139.0600 C   0  0  0  0  0  0  0  0  0  0  0  0
  188.8240  178.6950  139.6030 C   0  0  0  0  0  2  0  0  0  0  0  0
  185.4350  179.2020  142.0410 C   0  0  0  0  0  2  0  0  0  0  0  0
  189.3250  176.2940  139.6030 C   0  0  0  0  0  2  0  0  0  0  0  0
  188.8960  176.2740  138.1800 C   0  0  0  0  0  3  0  0  0  0  0  0
  186.0050  177.5140  145.2000 O   0  0  0  0  0  0  0  0  0  0  0  0
  188.3810  176.5490  143.7620 C   0  0  1  0  0  3  0  0  0  0  0  0
  191.5810  176.7040  145.7840 C   0  0  0  0  0  3  0  0  0  0  0  0
  188.8410  177.0920  146.1870 C   0  0  0  0  0  3  0  0  0  0  0  0
  191.1030  177.0610  147.0480 C   0  0  0  0  0  0  0  0  0  0  0  0
  189.7340  177.2550  147.2500 C   0  0  0  0  0  3  0  0  0  0  0  0
  189.3160  176.7340  144.9170 C   0  0  0  0  0  0  0  0  0  0  0  0
  191.9690  177.2200  148.0780 F   0  0  0  0  0  0  0  0  0  0  0  0
  190.6890  176.5410  144.7200 C   0  0  0  0  0  3  0  0  0  0  0  0
  184.2590  179.3130  138.9160 C   0  0  0  0  0  0  0  0  0  0  0  0
  184.1680  180.5680  138.9730 O   0  0  0  0  0  1  0  0  0  0  0  0
  183.3150  178.5950  138.1900 O   0  0  0  0  0  0  0  0  0  0  0  0
  1  8  1  0  0  0  0
  2 18  1  0  0  0  0
  2  4  1  0  0  0  0
  3 16  2  0  0  0  0
  3 10  1  0  0  0  0
  4 17  2  0  0  0  0
  5  4  1  0  0  0  0
  6 11  1  0  0  0  0
  6  7  2  0  0  0  0
  7 18  1  0  0  0  0
  8 14  1  0  0  0  0
  9 15  1  6  0  0  0
  9  6  1  0  0  0  0
 10 12  2  0  0  0  0
 10 13  1  0  0  0  0
 11  2  1  0  0  0  0
 12  1  2  0  0  0  0
 13  9  1  0  0  0  0
 14  5  1  0  0  0  0
 16 15  1  0  0  0  0
 18 23  1  1  0  0  0
 19 21  1  0  0  0  0
 20 22  1  0  0  0  0
 21 22  2  0  0  0  0
 21 24  1  0  0  0  0
 23 20  2  0  0  0  0
 25 23  1  0  0  0  0
 25 19  2  0  0  0  0
 26 27  1  0  0  0  0
 26  1  1  0  0  0  0
 28 26  2  0  0  0  0
M  END
>  <MODEL>
7

>  <REMARK>
 VINA RESULT:      -8.4      3.782      7.046
  Name = 
  2 active torsions:
  status: ('A' for Active; 'I' for Inactive)
    1  A    between atoms: C_1  and  C_20
    2  A    between atoms: C_24  and  C_26
                            x       y       z     vdW  Elec       q    Type
                         _______ _______ _______ _____ _____    ______ ____

>  <TORSDO>
F 2

$$$$
=
 OpenBabel11042412003D

 28 31  0  0  1  0  0  0  0  0999 V2000
  187.9720  177.8990  145.9770 C   0  0  0  0  0  0  0  0  0  0  0  0
  186.8640  177.9520  141.5200 N   0  0  0  0  0  0  0  0  0  0  0  0
  191.4470  177.4520  145.1280 C   0  0  0  0  0  3  0  0  0  0  0  0
  185.6480  178.4900  142.0590 C   0  0  0  0  0  0  0  0  0  0  0  0
  185.2690  178.2960  143.4000 O   0  0  0  0  0  0  0  0  0  0  0  0
  189.0100  177.4650  141.8420 C   0  0  0  0  0  0  0  0  0  0  0  0
  189.0520  178.2670  140.8270 N   0  0  0  0  0  0  0  0  0  0  0  0
  187.1050  178.5970  144.9690 C   0  0  0  0  0  2  0  0  0  0  0  0
  190.1670  177.0500  142.6340 C   0  0  2  0  0  3  0  0  0  0  0  0
  190.1360  176.7750  145.0410 C   0  0  0  0  0  0  0  0  0  0  0  0
  187.7280  177.2030  142.2620 O   0  0  0  0  0  0  0  0  0  0  0  0
  189.0800  177.3400  145.5650 C   0  0  0  0  0  0  0  0  0  0  0  0
  189.9090  176.0700  143.7460 C   0  0  0  0  0  2  0  0  0  0  0  0
  186.0630  177.6440  144.3900 C   0  0  0  0  0  2  0  0  0  0  0  0
  191.2310  177.8670  142.7260 C   0  0  0  0  0  2  0  0  0  0  0  0
  191.9980  177.9330  143.9980 C   0  0  0  0  0  3  0  0  0  0  0  0
  184.8950  179.1710  141.3150 O   0  0  0  0  0  0  0  0  0  0  0  0
  187.6650  178.6220  140.4970 C   0  0  1  0  0  3  0  0  0  0  0  0
  187.9500  176.9820  137.0940 C   0  0  0  0  0  3  0  0  0  0  0  0
  186.0210  178.3340  138.6000 C   0  0  0  0  0  3  0  0  0  0  0  0
  186.6710  177.1900  136.5680 C   0  0  0  0  0  0  0  0  0  0  0  0
  185.7070  177.8660  137.3210 C   0  0  0  0  0  3  0  0  0  0  0  0
  187.3020  178.1270  139.1310 C   0  0  0  0  0  0  0  0  0  0  0  0
  186.3680  176.7360  135.3280 F   0  0  0  0  0  0  0  0  0  0  0  0
  188.2640  177.4500  138.3730 C   0  0  0  0  0  3  0  0  0  0  0  0
  187.5460  177.7740  147.3800 C   0  0  0  0  0  0  0  0  0  0  0  0
  188.0880  176.9210  148.1340 O   0  0  0  0  0  1  0  0  0  0  0  0
  186.5400  178.5880  147.8890 O   0  0  0  0  0  0  0  0  0  0  0  0
  1 26  1  0  0  0  0
  2  4  1  0  0  0  0
  2 11  1  0  0  0  0
  4  5  1  0  0  0  0
  5 14  1  0  0  0  0
  6 11  1  0  0  0  0
  6  9  1  0  0  0  0
  7  6  2  0  0  0  0
  8  1  1  0  0  0  0
  9 15  1  1  0  0  0
  9 13  1  0  0  0  0
 10  3  1  0  0  0  0
 10 12  2  0  0  0  0
 12  1  2  0  0  0  0
 13 10  1  0  0  0  0
 14  8  1  0  0  0  0
 15 16  1  0  0  0  0
 16  3  2  0  0  0  0
 17  4  2  0  0  0  0
 18 23  1  6  0  0  0
 18  7  1  0  0  0  0
 18  2  1  0  0  0  0
 19 25  1  0  0  0  0
 20 23  1  0  0  0  0
 21 19  2  0  0  0  0
 21 22  1  0  0  0  0
 22 20  2  0  0  0  0
 24 21  1  0  0  0  0
 25 23  2  0  0  0  0
 26 28  2  0  0  0  0
 26 27  1  0  0  0  0
M  END
>  <MODEL>
8

>  <REMARK>
 VINA RESULT:      -8.0      3.137      4.679
  Name = 
  2 active torsions:
  status: ('A' for Active; 'I' for Inactive)
    1  A    between atoms: C_1  and  C_20
    2  A    between atoms: C_24  and  C_26
                            x       y       z     vdW  Elec       q    Type
                         _______ _______ _______ _____ _____    ______ ____

>  <TORSDO>
F 2

$$$$
=
 OpenBabel11042412003D

 28 31  0  0  1  0  0  0  0  0999 V2000
  191.8280  176.5930  138.0360 C   0  0  0  0  0  0  0  0  0  0  0  0
  188.7380  177.6890  141.2530 N   0  0  0  0  0  0  0  0  0  0  0  0
  189.3620  177.1250  135.4590 C   0  0  0  0  0  3  0  0  0  0  0  0
  189.9320  177.7920  142.0440 C   0  0  0  0  0  0  0  0  0  0  0  0
  191.1310  177.1500  141.6840 O   0  0  0  0  0  0  0  0  0  0  0  0
  187.8310  177.5790  139.2260 C   0  0  0  0  0  0  0  0  0  0  0  0
  187.2670  178.6280  139.7310 N   0  0  0  0  0  0  0  0  0  0  0  0
  191.6560  177.3590  139.3160 C   0  0  0  0  0  2  0  0  0  0  0  0
  187.7910  177.2000  137.8140 C   0  0  2  0  0  3  0  0  0  0  0  0
  189.6660  176.2490  136.6100 C   0  0  0  0  0  0  0  0  0  0  0  0
  188.6780  176.9530  140.1080 O   0  0  0  0  0  0  0  0  0  0  0  0
  190.7820  176.4130  137.2720 C   0  0  0  0  0  0  0  0  0  0  0  0
  188.4730  175.9120  137.4400 C   0  0  0  0  0  2  0  0  0  0  0  0
  191.3370  176.4180  140.4760 C   0  0  0  0  0  2  0  0  0  0  0  0
  187.6550  178.1560  136.8770 C   0  0  0  0  0  2  0  0  0  0  0  0
  188.3550  178.0100  135.5740 C   0  0  0  0  0  3  0  0  0  0  0  0
  189.9150  178.4890  143.0920 O   0  0  0  0  0  0  0  0  0  0  0  0
  187.7680  178.7720  141.1040 C   0  0  1  0  0  3  0  0  0  0  0  0
  184.3320  179.0020  142.6830 C   0  0  0  0  0  3  0  0  0  0  0  0
  186.8600  178.0000  143.3320 C   0  0  0  0  0  3  0  0  0  0  0  0
  184.5410  178.3790  143.9160 C   0  0  0  0  0  0  0  0  0  0  0  0
  185.8050  177.8780  144.2410 C   0  0  0  0  0  3  0  0  0  0  0  0
  186.6530  178.6250  142.0930 C   0  0  0  0  0  0  0  0  0  0  0  0
  183.5190  178.2600  144.7960 F   0  0  0  0  0  0  0  0  0  0  0  0
  185.3860  179.1250  141.7730 C   0  0  0  0  0  3  0  0  0  0  0  0
  193.1230  175.9890  137.6860 C   0  0  0  0  0  0  0  0  0  0  0  0
  194.0170  176.6820  137.1300 O   0  0  0  0  0  0  0  0  0  0  0  0
  193.3740  174.6480  137.9580 O   0  0  0  0  0  1  0  0  0  0  0  0
  1  8  1  0  0  0  0
  2  4  1  0  0  0  0
  3 16  2  0  0  0  0
  3 10  1  0  0  0  0
  4 17  2  0  0  0  0
  5  4  1  0  0  0  0
  6  7  2  0  0  0  0
  6 11  1  0  0  0  0
  7 18  1  0  0  0  0
  8 14  1  0  0  0  0
  9 15  1  6  0  0  0
  9  6  1  0  0  0  0
 10 12  2  0  0  0  0
 10 13  1  0  0  0  0
 11  2  1  0  0  0  0
 12  1  2  0  0  0  0
 13  9  1  0  0  0  0
 14  5  1  0  0  0  0
 16 15  1  0  0  0  0
 18  2  1  0  0  0  0
 18 23  1  1  0  0  0
 19 21  1  0  0  0  0
 20 22  1  0  0  0  0
 21 22  2  0  0  0  0
 21 24  1  0  0  0  0
 23 20  2  0  0  0  0
 25 23  1  0  0  0  0
 25 19  2  0  0  0  0
 26 28  1  0  0  0  0
 26  1  1  0  0  0  0
 27 26  2  0  0  0  0
M  END
>  <MODEL>
9

>  <REMARK>
 VINA RESULT:      -7.8      4.254      5.934
  Name = 
  2 active torsions:
  status: ('A' for Active; 'I' for Inactive)
    1  A    between atoms: C_1  and  C_20
    2  A    between atoms: C_24  and  C_26
                            x       y       z     vdW  Elec       q    Type
                         _______ _______ _______ _____ _____    ______ ____

>  <TORSDO>
F 2

$$$$
