=
 OpenBabel11042410293D

 35 38  0  0  1  0  0  0  0  0999 V2000
  187.0040  178.6800  139.0960 N   0  0  0  0  0  0  0  0  0  0  0  0
  187.2480  178.2700  140.4060 N   0  0  0  0  0  0  0  0  0  0  0  0
  187.8090  178.1680  138.2320 C   0  0  0  0  0  0  0  0  0  0  0  0
  189.0530  177.0630  138.9010 S   0  0  0  0  0  0  0  0  0  0  0  0
  188.3510  177.3360  140.5720 C   0  0  1  0  0  3  0  0  0  0  0  0
  189.4410  177.2870  142.8320 C   0  0  2  0  0  0  0  0  0  0  0  0
  189.4140  177.9340  141.4910 C   0  0  1  0  0  3  0  0  0  0  0  0
  190.3660  176.9480  141.8310 O   0  0  0  0  0  0  0  0  0  0  0  0
  188.6170  176.0640  143.2090 C   0  0  0  0  0  2  0  0  0  0  0  0
  187.4580  176.4510  143.8730 O   0  0  0  0  0  1  0  0  0  0  0  0
  190.1110  178.0140  143.9020 N   0  0  0  0  0  2  0  0  0  0  0  0
  190.0590  177.1070  147.5170 C   0  0  0  0  0  3  0  0  0  0  0  0
  189.6980  177.6530  146.2810 C   0  0  0  0  0  3  0  0  0  0  0  0
  191.2190  176.3320  147.6270 C   0  0  0  0  0  3  0  0  0  0  0  0
  190.4940  177.4350  145.1520 C   0  0  0  0  0  0  0  0  0  0  0  0
  191.6500  176.6490  145.2660 C   0  0  0  0  0  3  0  0  0  0  0  0
  192.0110  176.1020  146.5010 C   0  0  0  0  0  3  0  0  0  0  0  0
  187.2800  179.5850  136.4150 O   0  0  0  0  0  0  0  0  0  0  0  0
  187.6800  178.4530  136.7960 C   0  0  0  0  0  0  0  0  0  0  0  0
  187.9530  177.3830  135.7880 C   0  0  0  0  0  2  0  0  0  0  0  0
  189.2620  177.5710  135.1870 N   0  0  0  0  0  2  0  0  0  0  0  0
  191.0610  176.0300  135.6970 C   0  0  0  0  0  1  0  0  0  0  0  0
  188.8470  175.2820  135.2690 O   0  0  0  0  0  1  0  0  0  0  0  0
  189.7880  176.2460  134.9040 C   0  0  1  0  0  3  0  0  0  0  0  0
  186.3750  178.6610  141.5000 C   0  0  0  0  0  2  0  0  0  0  0  0
  184.9880  178.9710  140.9620 C   0  0  0  0  0  2  0  0  0  0  0  0
  183.9410  178.5100  141.9550 C   0  0  0  0  0  2  0  0  0  0  0  0
  184.5150  178.4780  143.3620 C   0  0  0  0  0  2  0  0  0  0  0  0
  182.2870  178.3950  144.2590 F   0  0  0  0  0  0  0  0  0  0  0  0
  183.3480  180.3560  144.1510 F   0  0  0  0  0  0  0  0  0  0  0  0
  183.5260  179.0090  144.4040 C   0  0  0  0  0  0  0  0  0  0  0  0
  184.0520  178.8840  145.7100 O   0  0  0  0  0  0  0  0  0  0  0  0
  186.0150  179.3160  146.9890 C   0  0  0  0  0  2  0  0  0  0  0  0
  185.4560  178.8470  145.6640 C   0  0  0  0  0  3  0  0  0  0  0  0
  185.9530  177.8400  146.6770 C   0  0  0  0  0  2  0  0  0  0  0  0
  1  2  1  0  0  0  0
  2  5  1  0  0  0  0
  2 25  1  0  0  0  0
  3  4  1  0  0  0  0
  3  1  2  0  0  0  0
  5  4  1  6  0  0  0
  5  7  1  0  0  0  0
  6  9  1  1  0  0  0
  6 11  1  0  0  0  0
  7  8  1  6  0  0  0
  7  6  1  0  0  0  0
  8  6  1  0  0  0  0
  9 10  1  0  0  0  0
 11 15  1  0  0  0  0
 12 14  1  0  0  0  0
 13 12  2  0  0  0  0
 15 16  2  0  0  0  0
 15 13  1  0  0  0  0
 16 17  1  0  0  0  0
 17 14  2  0  0  0  0
 18 19  2  0  0  0  0
 19  3  1  0  0  0  0
 20 19  1  0  0  0  0
 21 20  1  0  0  0  0
 24 21  1  0  0  0  0
 24 23  1  0  0  0  0
 24 22  1  1  0  0  0
 26 25  1  0  0  0  0
 26 27  1  0  0  0  0
 27 28  1  0  0  0  0
 28 31  1  0  0  0  0
 29 31  1  0  0  0  0
 30 31  1  0  0  0  0
 31 32  1  0  0  0  0
 34 32  1  0  0  0  0
 34 35  1  0  0  0  0
 34 33  1  0  0  0  0
 35 33  1  0  0  0  0
M  END
>  <MODEL>
1

>  <REMARK>
 VINA RESULT:      -7.5      0.000      0.000
  Name = 
  15 active torsions:
  status: ('A' for Active; 'I' for Inactive)
    1  A    between atoms: C_4  and  C_22
    2  A    between atoms: C_4  and  N_28
    3  A    between atoms: C_5  and  C_11
    4  A    between atoms: C_5  and  C_23
    5  A    between atoms: N_9  and  C_23
    6  A    between atoms: C_10  and  C_14
    7  A    between atoms: C_10  and  N_20
    8  A    between atoms: C_11  and  C_19
    9  A    between atoms: C_13  and  C_19
   10  A    between atoms: C_13  and  O_29
   11  A    between atoms: C_14  and  C_25
   12  A    between atoms: C_15  and  O_29
   13  A    between atoms: C_17  and  C_35
   14  A    between atoms: N_20  and  C_31
   15  A    between atoms: C_24  and  N_28
                            x       y       z     vdW  Elec       q    Type
                         _______ _______ _______ _____ _____    ______ ____

>  <TORSDO>
F 15

$$$$
=
 OpenBabel11042410293D

 35 38  0  0  1  0  0  0  0  0999 V2000
  189.1000  177.5880  142.6410 N   0  0  0  0  0  0  0  0  0  0  0  0
  188.6050  178.0290  141.4150 N   0  0  0  0  0  0  0  0  0  0  0  0
  190.2620  177.0390  142.5660 C   0  0  0  0  0  0  0  0  0  0  0  0
  190.9700  176.9600  140.9200 S   0  0  0  0  0  0  0  0  0  0  0  0
  189.4800  177.8090  140.2730 C   0  0  1  0  0  3  0  0  0  0  0  0
  188.5280  177.6330  137.9580 C   0  0  2  0  0  0  0  0  0  0  0  0
  188.7840  176.9240  139.2410 C   0  0  1  0  0  3  0  0  0  0  0  0
  189.6150  176.7580  138.1110 O   0  0  0  0  0  0  0  0  0  0  0  0
  189.0340  179.0330  137.6380 C   0  0  0  0  0  2  0  0  0  0  0  0
  188.0690  179.7440  136.9330 O   0  0  0  0  0  1  0  0  0  0  0  0
  187.5380  177.0460  137.0640 N   0  0  0  0  0  2  0  0  0  0  0  0
  183.8950  176.9130  136.2890 C   0  0  0  0  0  3  0  0  0  0  0  0
  185.2780  176.7200  136.2030 C   0  0  0  0  0  3  0  0  0  0  0  0
  183.3560  177.6320  137.3630 C   0  0  0  0  0  3  0  0  0  0  0  0
  186.1280  177.2470  137.1810 C   0  0  0  0  0  0  0  0  0  0  0  0
  185.5810  177.9560  138.2590 C   0  0  0  0  0  3  0  0  0  0  0  0
  184.1990  178.1500  138.3470 C   0  0  0  0  0  3  0  0  0  0  0  0
  191.8220  175.6360  143.6560 O   0  0  0  0  0  0  0  0  0  0  0  0
  190.9600  176.5480  143.7630 C   0  0  0  0  0  0  0  0  0  0  0  0
  190.6020  177.0780  145.1140 C   0  0  0  0  0  2  0  0  0  0  0  0
  191.7660  177.0880  145.9830 N   0  0  0  0  0  2  0  0  0  0  0  0
  189.7890  176.7790  147.3480 C   0  0  0  0  0  1  0  0  0  0  0  0
  191.7220  175.4220  147.6070 O   0  0  0  0  0  1  0  0  0  0  0  0
  191.3020  176.7190  147.3100 C   0  0  1  0  0  3  0  0  0  0  0  0
  187.3580  178.7690  141.3210 C   0  0  0  0  0  2  0  0  0  0  0  0
  186.3080  178.1190  142.2050 C   0  0  0  0  0  2  0  0  0  0  0  0
  184.9880  178.8440  142.0490 C   0  0  0  0  0  2  0  0  0  0  0  0
  184.0100  178.4130  143.1300 C   0  0  0  0  0  2  0  0  0  0  0  0
  182.5690  180.0090  144.2030 F   0  0  0  0  0  0  0  0  0  0  0  0
  184.7310  180.4960  143.9350 F   0  0  0  0  0  0  0  0  0  0  0  0
  183.8520  179.4710  144.2260 C   0  0  0  0  0  0  0  0  0  0  0  0
  184.2050  178.9460  145.4900 O   0  0  0  0  0  0  0  0  0  0  0  0
  185.9000  178.7750  147.1550 C   0  0  0  0  0  2  0  0  0  0  0  0
  185.5800  179.1210  145.7180 C   0  0  0  0  0  3  0  0  0  0  0  0
  186.1950  177.7820  146.0560 C   0  0  0  0  0  2  0  0  0  0  0  0
  2  1  1  0  0  0  0
  3  1  2  0  0  0  0
  3 19  1  0  0  0  0
  4  3  1  0  0  0  0
  5  4  1  1  0  0  0
  5  2  1  0  0  0  0
  6  9  1  6  0  0  0
  6  8  1  0  0  0  0
  6  7  1  0  0  0  0
  7  8  1  6  0  0  0
  7  5  1  0  0  0  0
 10  9  1  0  0  0  0
 11 15  1  0  0  0  0
 11  6  1  0  0  0  0
 12 14  1  0  0  0  0
 13 12  2  0  0  0  0
 13 15  1  0  0  0  0
 14 17  2  0  0  0  0
 15 16  2  0  0  0  0
 16 17  1  0  0  0  0
 18 19  2  0  0  0  0
 19 20  1  0  0  0  0
 20 21  1  0  0  0  0
 21 24  1  0  0  0  0
 24 22  1  6  0  0  0
 24 23  1  0  0  0  0
 25  2  1  0  0  0  0
 25 26  1  0  0  0  0
 27 26  1  0  0  0  0
 27 28  1  0  0  0  0
 28 31  1  0  0  0  0
 29 31  1  0  0  0  0
 30 31  1  0  0  0  0
 31 32  1  0  0  0  0
 32 34  1  0  0  0  0
 34 35  1  0  0  0  0
 34 33  1  0  0  0  0
 35 33  1  0  0  0  0
M  END
>  <MODEL>
2

>  <REMARK>
 VINA RESULT:      -7.2      2.126      7.268
  Name = 
  15 active torsions:
  status: ('A' for Active; 'I' for Inactive)
    1  A    between atoms: C_4  and  C_22
    2  A    between atoms: C_4  and  N_28
    3  A    between atoms: C_5  and  C_11
    4  A    between atoms: C_5  and  C_23
    5  A    between atoms: N_9  and  C_23
    6  A    between atoms: C_10  and  C_14
    7  A    between atoms: C_10  and  N_20
    8  A    between atoms: C_11  and  C_19
    9  A    between atoms: C_13  and  C_19
   10  A    between atoms: C_13  and  O_29
   11  A    between atoms: C_14  and  C_25
   12  A    between atoms: C_15  and  O_29
   13  A    between atoms: C_17  and  C_35
   14  A    between atoms: N_20  and  C_31
   15  A    between atoms: C_24  and  N_28
                            x       y       z     vdW  Elec       q    Type
                         _______ _______ _______ _____ _____    ______ ____

>  <TORSDO>
F 15

$$$$
=
 OpenBabel11042410293D

 35 38  0  0  1  0  0  0  0  0999 V2000
  187.3110  178.2420  139.5290 N   0  0  0  0  0  0  0  0  0  0  0  0
  187.3440  178.5430  140.8890 N   0  0  0  0  0  0  0  0  0  0  0  0
  186.1380  178.3330  139.0050 C   0  0  0  0  0  0  0  0  0  0  0  0
  184.8280  178.8130  140.1310 S   0  0  0  0  0  0  0  0  0  0  0  0
  186.0670  178.9160  141.4780 C   0  0  1  0  0  3  0  0  0  0  0  0
  185.0440  178.6210  143.7510 C   0  0  2  0  0  0  0  0  0  0  0  0
  185.6990  177.9450  142.5980 C   0  0  1  0  0  3  0  0  0  0  0  0
  184.2990  177.9310  142.7820 O   0  0  0  0  0  0  0  0  0  0  0  0
  184.6390  180.0890  143.7650 C   0  0  0  0  0  2  0  0  0  0  0  0
  183.2650  180.2070  143.9460 O   0  0  0  0  0  1  0  0  0  0  0  0
  185.0140  177.8940  145.0130 N   0  0  0  0  0  2  0  0  0  0  0  0
  188.1580  177.3510  146.9400 C   0  0  0  0  0  3  0  0  0  0  0  0
  187.1790  177.2590  145.9460 C   0  0  0  0  0  3  0  0  0  0  0  0
  187.9690  178.2100  148.0300 C   0  0  0  0  0  3  0  0  0  0  0  0
  186.0050  178.0160  146.0360 C   0  0  0  0  0  0  0  0  0  0  0  0
  185.8270  178.8820  147.1240 C   0  0  0  0  0  3  0  0  0  0  0  0
  186.8050  178.9750  148.1180 C   0  0  0  0  0  3  0  0  0  0  0  0
  184.7420  177.9510  137.1360 O   0  0  0  0  0  0  0  0  0  0  0  0
  185.9150  178.0910  137.5720 C   0  0  0  0  0  0  0  0  0  0  0  0
  187.0760  177.9410  136.6440 C   0  0  0  0  0  2  0  0  0  0  0  0
  187.1840  176.5690  136.1790 N   0  0  0  0  0  2  0  0  0  0  0  0
  189.4490  177.3550  135.8300 C   0  0  0  0  0  1  0  0  0  0  0  0
  188.8850  175.8920  137.6160 O   0  0  0  0  0  1  0  0  0  0  0  0
  188.5850  176.1970  136.2880 C   0  0  1  0  0  3  0  0  0  0  0  0
  188.5960  178.5980  141.6250 C   0  0  0  0  0  2  0  0  0  0  0  0
  189.2250  177.2160  141.6690 C   0  0  0  0  0  2  0  0  0  0  0  0
  189.3190  176.7430  143.1050 C   0  0  0  0  0  2  0  0  0  0  0  0
  190.7680  176.7060  143.5630 C   0  0  0  0  0  2  0  0  0  0  0  0
  190.0060  178.6570  144.7420 F   0  0  0  0  0  0  0  0  0  0  0  0
  191.9230  178.7490  143.6030 F   0  0  0  0  0  0  0  0  0  0  0  0
  191.1430  177.9330  144.4000 C   0  0  0  0  0  0  0  0  0  0  0  0
  191.9170  177.5620  145.5230 O   0  0  0  0  0  0  0  0  0  0  0  0
  192.3360  175.5960  146.8020 C   0  0  0  0  0  2  0  0  0  0  0  0
  191.2870  176.5160  146.2190 C   0  0  0  0  0  3  0  0  0  0  0  0
  191.6510  176.6140  147.6840 C   0  0  0  0  0  2  0  0  0  0  0  0
  1  2  1  0  0  0  0
  2  5  1  0  0  0  0
  2 25  1  0  0  0  0
  3  1  2  0  0  0  0
  3  4  1  0  0  0  0
  5  4  1  6  0  0  0
  5  7  1  0  0  0  0
  6  9  1  1  0  0  0
  6 11  1  0  0  0  0
  7  8  1  6  0  0  0
  7  6  1  0  0  0  0
  8  6  1  0  0  0  0
  9 10  1  0  0  0  0
 11 15  1  0  0  0  0
 12 14  1  0  0  0  0
 13 15  1  0  0  0  0
 13 12  2  0  0  0  0
 14 17  2  0  0  0  0
 15 16  2  0  0  0  0
 16 17  1  0  0  0  0
 18 19  2  0  0  0  0
 19  3  1  0  0  0  0
 20 19  1  0  0  0  0
 21 24  1  0  0  0  0
 21 20  1  0  0  0  0
 24 22  1  1  0  0  0
 24 23  1  0  0  0  0
 25 26  1  0  0  0  0
 26 27  1  0  0  0  0
 27 28  1  0  0  0  0
 28 31  1  0  0  0  0
 30 31  1  0  0  0  0
 31 29  1  0  0  0  0
 31 32  1  0  0  0  0
 32 34  1  0  0  0  0
 33 35  1  0  0  0  0
 34 33  1  0  0  0  0
 34 35  1  0  0  0  0
M  END
>  <MODEL>
3

>  <REMARK>
 VINA RESULT:      -6.9      2.756      4.938
  Name = 
  15 active torsions:
  status: ('A' for Active; 'I' for Inactive)
    1  A    between atoms: C_4  and  C_22
    2  A    between atoms: C_4  and  N_28
    3  A    between atoms: C_5  and  C_11
    4  A    between atoms: C_5  and  C_23
    5  A    between atoms: N_9  and  C_23
    6  A    between atoms: C_10  and  C_14
    7  A    between atoms: C_10  and  N_20
    8  A    between atoms: C_11  and  C_19
    9  A    between atoms: C_13  and  C_19
   10  A    between atoms: C_13  and  O_29
   11  A    between atoms: C_14  and  C_25
   12  A    between atoms: C_15  and  O_29
   13  A    between atoms: C_17  and  C_35
   14  A    between atoms: N_20  and  C_31
   15  A    between atoms: C_24  and  N_28
                            x       y       z     vdW  Elec       q    Type
                         _______ _______ _______ _____ _____    ______ ____

>  <TORSDO>
F 15

$$$$
=
 OpenBabel11042410293D

 35 38  0  0  1  0  0  0  0  0999 V2000
  189.1650  177.4470  142.0900 N   0  0  0  0  0  0  0  0  0  0  0  0
  188.7720  177.8100  140.8030 N   0  0  0  0  0  0  0  0  0  0  0  0
  190.4110  177.1360  142.1850 C   0  0  0  0  0  0  0  0  0  0  0  0
  191.3450  177.2320  140.6570 S   0  0  0  0  0  0  0  0  0  0  0  0
  189.8240  177.7880  139.7990 C   0  0  1  0  0  3  0  0  0  0  0  0
  189.0250  177.4920  137.4390 C   0  0  2  0  0  0  0  0  0  0  0  0
  189.4680  176.8070  138.6840 C   0  0  1  0  0  3  0  0  0  0  0  0
  190.3300  176.9970  137.5820 O   0  0  0  0  0  0  0  0  0  0  0  0
  189.0640  179.0000  137.2300 C   0  0  0  0  0  2  0  0  0  0  0  0
  187.7860  179.4830  136.9700 O   0  0  0  0  0  1  0  0  0  0  0  0
  188.2920  176.6890  136.4680 N   0  0  0  0  0  2  0  0  0  0  0  0
  184.7070  175.9500  137.1720 C   0  0  0  0  0  3  0  0  0  0  0  0
  185.8850  176.6420  136.8700 C   0  0  0  0  0  3  0  0  0  0  0  0
  184.7410  174.5640  137.3620 C   0  0  0  0  0  3  0  0  0  0  0  0
  187.1000  175.9580  136.7640 C   0  0  0  0  0  0  0  0  0  0  0  0
  187.1250  174.5680  136.9460 C   0  0  0  0  0  3  0  0  0  0  0  0
  185.9490  173.8750  137.2460 C   0  0  0  0  0  3  0  0  0  0  0  0
  191.8610  175.8320  143.5220 O   0  0  0  0  0  0  0  0  0  0  0  0
  191.0160  176.7660  143.4720 C   0  0  0  0  0  0  0  0  0  0  0  0
  190.5830  177.4430  144.7310 C   0  0  0  0  0  2  0  0  0  0  0  0
  191.6190  177.3480  145.7440 N   0  0  0  0  0  2  0  0  0  0  0  0
  192.2400  175.7800  147.4830 C   0  0  0  0  0  1  0  0  0  0  0  0
  190.4190  177.2850  147.7390 O   0  0  0  0  0  1  0  0  0  0  0  0
  191.0940  176.5000  146.8030 C   0  0  1  0  0  3  0  0  0  0  0  0
  187.4290  178.2950  140.5270 C   0  0  0  0  0  2  0  0  0  0  0  0
  186.8410  178.9140  141.7830 C   0  0  0  0  0  2  0  0  0  0  0  0
  185.3410  179.0570  141.6270 C   0  0  0  0  0  2  0  0  0  0  0  0
  184.6130  178.2220  142.6670 C   0  0  0  0  0  2  0  0  0  0  0  0
  183.5040  178.5020  144.7810 F   0  0  0  0  0  0  0  0  0  0  0  0
  184.5540  180.2430  143.8600 F   0  0  0  0  0  0  0  0  0  0  0  0
  184.6280  178.8770  144.0520 C   0  0  0  0  0  0  0  0  0  0  0  0
  185.8380  178.6020  144.7280 O   0  0  0  0  0  0  0  0  0  0  0  0
  186.8730  177.8230  146.7280 C   0  0  0  0  0  2  0  0  0  0  0  0
  185.5700  178.0610  145.9970 C   0  0  0  0  0  3  0  0  0  0  0  0
  186.0360  179.0380  147.0540 C   0  0  0  0  0  2  0  0  0  0  0  0
  1  3  2  0  0  0  0
  2  1  1  0  0  0  0
  3 19  1  0  0  0  0
  4  3  1  0  0  0  0
  5  4  1  1  0  0  0
  5  2  1  0  0  0  0
  6  9  1  1  0  0  0
  6  8  1  0  0  0  0
  6  7  1  0  0  0  0
  7  8  1  6  0  0  0
  7  5  1  0  0  0  0
 10  9  1  0  0  0  0
 11 15  1  0  0  0  0
 11  6  1  0  0  0  0
 12 14  1  0  0  0  0
 13 12  2  0  0  0  0
 15 13  1  0  0  0  0
 15 16  2  0  0  0  0
 16 17  1  0  0  0  0
 17 14  2  0  0  0  0
 19 18  2  0  0  0  0
 19 20  1  0  0  0  0
 20 21  1  0  0  0  0
 21 24  1  0  0  0  0
 24 22  1  1  0  0  0
 24 23  1  0  0  0  0
 25  2  1  0  0  0  0
 25 26  1  0  0  0  0
 27 26  1  0  0  0  0
 27 28  1  0  0  0  0
 28 31  1  0  0  0  0
 30 31  1  0  0  0  0
 31 32  1  0  0  0  0
 31 29  1  0  0  0  0
 32 34  1  0  0  0  0
 33 35  1  0  0  0  0
 34 33  1  0  0  0  0
 34 35  1  0  0  0  0
M  END
>  <MODEL>
4

>  <REMARK>
 VINA RESULT:      -6.7      2.221      7.142
  Name = 
  15 active torsions:
  status: ('A' for Active; 'I' for Inactive)
    1  A    between atoms: C_4  and  C_22
    2  A    between atoms: C_4  and  N_28
    3  A    between atoms: C_5  and  C_11
    4  A    between atoms: C_5  and  C_23
    5  A    between atoms: N_9  and  C_23
    6  A    between atoms: C_10  and  C_14
    7  A    between atoms: C_10  and  N_20
    8  A    between atoms: C_11  and  C_19
    9  A    between atoms: C_13  and  C_19
   10  A    between atoms: C_13  and  O_29
   11  A    between atoms: C_14  and  C_25
   12  A    between atoms: C_15  and  O_29
   13  A    between atoms: C_17  and  C_35
   14  A    between atoms: N_20  and  C_31
   15  A    between atoms: C_24  and  N_28
                            x       y       z     vdW  Elec       q    Type
                         _______ _______ _______ _____ _____    ______ ____

>  <TORSDO>
F 15

$$$$
=
 OpenBabel11042410293D

 35 38  0  0  1  0  0  0  0  0999 V2000
  188.4410  177.2750  144.4850 N   0  0  0  0  0  0  0  0  0  0  0  0
  187.9620  177.1750  143.1790 N   0  0  0  0  0  0  0  0  0  0  0  0
  187.5540  177.6580  145.3360 C   0  0  0  0  0  0  0  0  0  0  0  0
  185.9250  177.9790  144.6580 S   0  0  0  0  0  0  0  0  0  0  0  0
  186.5560  177.5050  143.0030 C   0  0  1  0  0  3  0  0  0  0  0  0
  185.0350  178.7790  141.4660 C   0  0  2  0  0  0  0  0  0  0  0  0
  186.4070  178.6760  142.0340 C   0  0  1  0  0  3  0  0  0  0  0  0
  185.4540  179.5920  142.5300 O   0  0  0  0  0  0  0  0  0  0  0  0
  183.8600  177.9180  141.9060 C   0  0  0  0  0  2  0  0  0  0  0  0
  182.8790  178.7060  142.4980 O   0  0  0  0  0  1  0  0  0  0  0  0
  184.8780  179.5800  140.2590 N   0  0  0  0  0  2  0  0  0  0  0  0
  183.3440  177.8820  137.3160 C   0  0  0  0  0  3  0  0  0  0  0  0
  184.2200  178.1910  138.3620 C   0  0  0  0  0  3  0  0  0  0  0  0
  182.1970  178.6580  137.1140 C   0  0  0  0  0  3  0  0  0  0  0  0
  183.9610  179.2770  139.2050 C   0  0  0  0  0  0  0  0  0  0  0  0
  182.8040  180.0430  139.0040 C   0  0  0  0  0  3  0  0  0  0  0  0
  181.9270  179.7350  137.9600 C   0  0  0  0  0  3  0  0  0  0  0  0
  187.3380  178.7050  147.4450 O   0  0  0  0  0  0  0  0  0  0  0  0
  187.8640  177.7830  146.7670 C   0  0  0  0  0  0  0  0  0  0  0  0
  188.8550  176.8630  147.4060 C   0  0  0  0  0  2  0  0  0  0  0  0
  190.1250  177.5400  147.6040 N   0  0  0  0  0  2  0  0  0  0  0  0
  191.6140  176.7610  145.8590 C   0  0  0  0  0  1  0  0  0  0  0  0
  192.2540  176.7730  148.1480 O   0  0  0  0  0  1  0  0  0  0  0  0
  191.1670  176.5750  147.2950 C   0  0  1  0  0  3  0  0  0  0  0  0
  188.7900  176.6560  142.1040 C   0  0  0  0  0  2  0  0  0  0  0  0
  190.1090  177.4080  142.0640 C   0  0  0  0  0  2  0  0  0  0  0  0
  190.6660  177.3880  140.6560 C   0  0  0  0  0  2  0  0  0  0  0  0
  189.6720  176.7540  139.6960 C   0  0  0  0  0  2  0  0  0  0  0  0
  190.3510  177.6920  137.5910 F   0  0  0  0  0  0  0  0  0  0  0  0
  189.2150  178.9590  139.0350 F   0  0  0  0  0  0  0  0  0  0  0  0
  189.3220  177.6790  138.5270 C   0  0  0  0  0  0  0  0  0  0  0  0
  188.0730  177.3330  137.9650 O   0  0  0  0  0  0  0  0  0  0  0  0
  186.8350  176.8920  135.9770 C   0  0  0  0  0  2  0  0  0  0  0  0
  188.1530  177.3490  136.5620 C   0  0  0  0  0  3  0  0  0  0  0  0
  187.1680  178.3650  136.0260 C   0  0  0  0  0  2  0  0  0  0  0  0
  1  3  2  0  0  0  0
  2  1  1  0  0  0  0
  3 19  1  0  0  0  0
  4  3  1  0  0  0  0
  5  2  1  0  0  0  0
  5  4  1  1  0  0  0
  6  9  1  1  0  0  0
  6  7  1  0  0  0  0
  6  8  1  0  0  0  0
  7  8  1  1  0  0  0
  7  5  1  0  0  0  0
  9 10  1  0  0  0  0
 11  6  1  0  0  0  0
 12 13  1  0  0  0  0
 13 15  2  0  0  0  0
 14 12  2  0  0  0  0
 14 17  1  0  0  0  0
 15 11  1  0  0  0  0
 16 15  1  0  0  0  0
 17 16  2  0  0  0  0
 19 20  1  0  0  0  0
 19 18  2  0  0  0  0
 20 21  1  0  0  0  0
 24 22  1  6  0  0  0
 24 21  1  0  0  0  0
 24 23  1  0  0  0  0
 25  2  1  0  0  0  0
 26 25  1  0  0  0  0
 27 26  1  0  0  0  0
 28 27  1  0  0  0  0
 29 31  1  0  0  0  0
 31 30  1  0  0  0  0
 31 28  1  0  0  0  0
 32 31  1  0  0  0  0
 33 35  1  0  0  0  0
 33 34  1  0  0  0  0
 34 32  1  0  0  0  0
 35 34  1  0  0  0  0
M  END
>  <MODEL>
5

>  <REMARK>
 VINA RESULT:      -6.5      3.514      9.085
  Name = 
  15 active torsions:
  status: ('A' for Active; 'I' for Inactive)
    1  A    between atoms: C_4  and  C_22
    2  A    between atoms: C_4  and  N_28
    3  A    between atoms: C_5  and  C_11
    4  A    between atoms: C_5  and  C_23
    5  A    between atoms: N_9  and  C_23
    6  A    between atoms: C_10  and  C_14
    7  A    between atoms: C_10  and  N_20
    8  A    between atoms: C_11  and  C_19
    9  A    between atoms: C_13  and  C_19
   10  A    between atoms: C_13  and  O_29
   11  A    between atoms: C_14  and  C_25
   12  A    between atoms: C_15  and  O_29
   13  A    between atoms: C_17  and  C_35
   14  A    between atoms: N_20  and  C_31
   15  A    between atoms: C_24  and  N_28
                            x       y       z     vdW  Elec       q    Type
                         _______ _______ _______ _____ _____    ______ ____

>  <TORSDO>
F 15

$$$$
=
 OpenBabel11042410293D

 35 38  0  0  1  0  0  0  0  0999 V2000
  186.9320  178.6850  139.4310 N   0  0  0  0  0  0  0  0  0  0  0  0
  186.9970  178.3240  140.7760 N   0  0  0  0  0  0  0  0  0  0  0  0
  187.9260  178.2610  138.7310 C   0  0  0  0  0  0  0  0  0  0  0  0
  189.1560  177.3190  139.6330 S   0  0  0  0  0  0  0  0  0  0  0  0
  188.1550  177.5290  141.1540 C   0  0  1  0  0  3  0  0  0  0  0  0
  189.4570  177.3520  143.2920 C   0  0  2  0  0  0  0  0  0  0  0  0
  188.9710  178.2600  142.2180 C   0  0  1  0  0  3  0  0  0  0  0  0
  190.2910  177.7600  142.2400 O   0  0  0  0  0  0  0  0  0  0  0  0
  189.3000  175.8380  143.2690 C   0  0  0  0  0  2  0  0  0  0  0  0
  190.4760  175.2380  142.8340 O   0  0  0  0  0  1  0  0  0  0  0  0
  189.8880  177.9730  144.5380 N   0  0  0  0  0  2  0  0  0  0  0  0
  187.0150  177.9680  146.9130 C   0  0  0  0  0  3  0  0  0  0  0  0
  187.7560  178.0080  145.7270 C   0  0  0  0  0  3  0  0  0  0  0  0
  187.6700  177.8280  148.1420 C   0  0  0  0  0  3  0  0  0  0  0  0
  189.1520  177.9160  145.7620 C   0  0  0  0  0  0  0  0  0  0  0  0
  189.8010  177.7660  146.9960 C   0  0  0  0  0  3  0  0  0  0  0  0
  189.0610  177.7240  148.1810 C   0  0  0  0  0  3  0  0  0  0  0  0
  187.9050  179.6850  136.8430 O   0  0  0  0  0  0  0  0  0  0  0  0
  188.0100  178.5100  137.2850 C   0  0  0  0  0  0  0  0  0  0  0  0
  188.1490  177.3680  136.3310 C   0  0  0  0  0  2  0  0  0  0  0  0
  189.4700  177.3650  135.7260 N   0  0  0  0  0  2  0  0  0  0  0  0
  191.3080  176.1130  136.6880 C   0  0  0  0  0  1  0  0  0  0  0  0
  189.0980  175.2450  136.6120 O   0  0  0  0  0  1  0  0  0  0  0  0
  190.0120  176.0280  135.9070 C   0  0  1  0  0  3  0  0  0  0  0  0
  185.9110  178.6230  141.6950 C   0  0  0  0  0  2  0  0  0  0  0  0
  184.6790  179.0420  140.9140 C   0  0  0  0  0  2  0  0  0  0  0  0
  183.4620  178.3160  141.4490 C   0  0  0  0  0  2  0  0  0  0  0  0
  183.0020  178.9360  142.7590 C   0  0  0  0  0  2  0  0  0  0  0  0
  180.9560  180.1650  143.0330 F   0  0  0  0  0  0  0  0  0  0  0  0
  181.2220  178.2320  144.1160 F   0  0  0  0  0  0  0  0  0  0  0  0
  181.4810  178.8820  142.9250 C   0  0  0  0  0  0  0  0  0  0  0  0
  180.8850  178.1310  141.8870 O   0  0  0  0  0  0  0  0  0  0  0  0
  180.1080  179.2480  139.9310 C   0  0  0  0  0  2  0  0  0  0  0  0
  179.7910  178.8320  141.3500 C   0  0  0  0  0  3  0  0  0  0  0  0
  179.2290  178.0460  140.1860 C   0  0  0  0  0  2  0  0  0  0  0  0
  1  2  1  0  0  0  0
  2  5  1  0  0  0  0
  2 25  1  0  0  0  0
  3  1  2  0  0  0  0
  3  4  1  0  0  0  0
  5  4  1  6  0  0  0
  5  7  1  0  0  0  0
  6  9  1  1  0  0  0
  6 11  1  0  0  0  0
  7  8  1  6  0  0  0
  7  6  1  0  0  0  0
  8  6  1  0  0  0  0
 10  9  1  0  0  0  0
 11 15  1  0  0  0  0
 12 14  1  0  0  0  0
 13 15  1  0  0  0  0
 13 12  2  0  0  0  0
 14 17  2  0  0  0  0
 15 16  2  0  0  0  0
 16 17  1  0  0  0  0
 18 19  2  0  0  0  0
 19  3  1  0  0  0  0
 20 19  1  0  0  0  0
 21 24  1  0  0  0  0
 21 20  1  0  0  0  0
 24 23  1  0  0  0  0
 24 22  1  1  0  0  0
 26 27  1  0  0  0  0
 26 25  1  0  0  0  0
 27 28  1  0  0  0  0
 28 31  1  0  0  0  0
 31 29  1  0  0  0  0
 31 30  1  0  0  0  0
 32 31  1  0  0  0  0
 33 35  1  0  0  0  0
 33 34  1  0  0  0  0
 34 32  1  0  0  0  0
 35 34  1  0  0  0  0
M  END
>  <MODEL>
6

>  <REMARK>
 VINA RESULT:      -6.4      1.941      3.159
  Name = 
  15 active torsions:
  status: ('A' for Active; 'I' for Inactive)
    1  A    between atoms: C_4  and  C_22
    2  A    between atoms: C_4  and  N_28
    3  A    between atoms: C_5  and  C_11
    4  A    between atoms: C_5  and  C_23
    5  A    between atoms: N_9  and  C_23
    6  A    between atoms: C_10  and  C_14
    7  A    between atoms: C_10  and  N_20
    8  A    between atoms: C_11  and  C_19
    9  A    between atoms: C_13  and  C_19
   10  A    between atoms: C_13  and  O_29
   11  A    between atoms: C_14  and  C_25
   12  A    between atoms: C_15  and  O_29
   13  A    between atoms: C_17  and  C_35
   14  A    between atoms: N_20  and  C_31
   15  A    between atoms: C_24  and  N_28
                            x       y       z     vdW  Elec       q    Type
                         _______ _______ _______ _____ _____    ______ ____

>  <TORSDO>
F 15

$$$$
=
 OpenBabel11042410293D

 35 38  0  0  1  0  0  0  0  0999 V2000
  187.3600  178.6880  139.6740 N   0  0  0  0  0  0  0  0  0  0  0  0
  187.3330  178.2950  141.0100 N   0  0  0  0  0  0  0  0  0  0  0  0
  188.4040  178.2890  139.0350 C   0  0  0  0  0  0  0  0  0  0  0  0
  189.5760  177.3340  139.9990 S   0  0  0  0  0  0  0  0  0  0  0  0
  188.4680  177.4980  141.4500 C   0  0  1  0  0  3  0  0  0  0  0  0
  189.7790  177.2600  143.5770 C   0  0  2  0  0  0  0  0  0  0  0  0
  189.2010  178.2090  142.5860 C   0  0  1  0  0  3  0  0  0  0  0  0
  190.5670  177.8500  142.5760 O   0  0  0  0  0  0  0  0  0  0  0  0
  189.7830  175.7470  143.4110 C   0  0  0  0  0  2  0  0  0  0  0  0
  191.0830  175.2830  143.2450 O   0  0  0  0  0  1  0  0  0  0  0  0
  190.1400  177.8040  144.8800 N   0  0  0  0  0  2  0  0  0  0  0  0
  188.9720  177.8660  148.4190 C   0  0  0  0  0  3  0  0  0  0  0  0
  189.8090  177.8480  147.2980 C   0  0  0  0  0  3  0  0  0  0  0  0
  187.5820  177.8780  148.2540 C   0  0  0  0  0  3  0  0  0  0  0  0
  189.2640  177.8350  146.0090 C   0  0  0  0  0  0  0  0  0  0  0  0
  187.8710  177.8590  145.8500 C   0  0  0  0  0  3  0  0  0  0  0  0
  187.0350  177.8780  146.9700 C   0  0  0  0  0  3  0  0  0  0  0  0
  189.0590  179.6860  137.2430 O   0  0  0  0  0  0  0  0  0  0  0  0
  188.5870  178.5750  137.6050 C   0  0  0  0  0  0  0  0  0  0  0  0
  188.1520  177.5820  136.5770 C   0  0  0  0  0  2  0  0  0  0  0  0
  186.7640  177.8010  136.2110 N   0  0  0  0  0  2  0  0  0  0  0  0
  184.6490  177.4660  137.3450 C   0  0  0  0  0  1  0  0  0  0  0  0
  185.7430  175.7100  136.1770 O   0  0  0  0  0  1  0  0  0  0  0  0
  185.9740  176.8390  136.9630 C   0  0  1  0  0  3  0  0  0  0  0  0
  186.1830  178.5620  141.8580 C   0  0  0  0  0  2  0  0  0  0  0  0
  184.9810  178.9120  140.9970 C   0  0  0  0  0  2  0  0  0  0  0  0
  183.8680  177.9150  141.2440 C   0  0  0  0  0  2  0  0  0  0  0  0
  182.5920  178.6300  141.6590 C   0  0  0  0  0  2  0  0  0  0  0  0
  180.2650  178.9540  141.1570 F   0  0  0  0  0  0  0  0  0  0  0  0
  181.2220  176.9940  140.6830 F   0  0  0  0  0  0  0  0  0  0  0  0
  181.4340  178.3590  140.6940 C   0  0  0  0  0  0  0  0  0  0  0  0
  181.7680  178.7540  139.3790 O   0  0  0  0  0  0  0  0  0  0  0  0
  181.5990  181.0130  138.6420 C   0  0  0  0  0  2  0  0  0  0  0  0
  180.8600  179.7230  138.9210 C   0  0  0  0  0  3  0  0  0  0  0  0
  181.2190  180.0990  137.5010 C   0  0  0  0  0  2  0  0  0  0  0  0
  1  2  1  0  0  0  0
  2  5  1  0  0  0  0
  2 25  1  0  0  0  0
  3  1  2  0  0  0  0
  3  4  1  0  0  0  0
  5  4  1  6  0  0  0
  5  7  1  0  0  0  0
  6  9  1  6  0  0  0
  6 11  1  0  0  0  0
  7  8  1  6  0  0  0
  7  6  1  0  0  0  0
  8  6  1  0  0  0  0
 10  9  1  0  0  0  0
 11 15  1  0  0  0  0
 13 12  2  0  0  0  0
 14 12  1  0  0  0  0
 15 13  1  0  0  0  0
 16 15  2  0  0  0  0
 16 17  1  0  0  0  0
 17 14  2  0  0  0  0
 18 19  2  0  0  0  0
 19  3  1  0  0  0  0
 20 19  1  0  0  0  0
 21 20  1  0  0  0  0
 21 24  1  0  0  0  0
 23 24  1  0  0  0  0
 24 22  1  6  0  0  0
 26 27  1  0  0  0  0
 26 25  1  0  0  0  0
 27 28  1  0  0  0  0
 30 31  1  0  0  0  0
 31 29  1  0  0  0  0
 31 28  1  0  0  0  0
 32 31  1  0  0  0  0
 33 34  1  0  0  0  0
 34 32  1  0  0  0  0
 35 33  1  0  0  0  0
 35 34  1  0  0  0  0
M  END
>  <MODEL>
7

>  <REMARK>
 VINA RESULT:      -6.4      2.493      4.018
  Name = 
  15 active torsions:
  status: ('A' for Active; 'I' for Inactive)
    1  A    between atoms: C_4  and  C_22
    2  A    between atoms: C_4  and  N_28
    3  A    between atoms: C_5  and  C_11
    4  A    between atoms: C_5  and  C_23
    5  A    between atoms: N_9  and  C_23
    6  A    between atoms: C_10  and  C_14
    7  A    between atoms: C_10  and  N_20
    8  A    between atoms: C_11  and  C_19
    9  A    between atoms: C_13  and  C_19
   10  A    between atoms: C_13  and  O_29
   11  A    between atoms: C_14  and  C_25
   12  A    between atoms: C_15  and  O_29
   13  A    between atoms: C_17  and  C_35
   14  A    between atoms: N_20  and  C_31
   15  A    between atoms: C_24  and  N_28
                            x       y       z     vdW  Elec       q    Type
                         _______ _______ _______ _____ _____    ______ ____

>  <TORSDO>
F 15

$$$$
=
 OpenBabel11042410293D

 35 38  0  0  1  0  0  0  0  0999 V2000
  187.0280  178.2560  139.6600 N   0  0  0  0  0  0  0  0  0  0  0  0
  185.7370  178.7410  139.8610 N   0  0  0  0  0  0  0  0  0  0  0  0
  187.2390  177.8180  138.4670 C   0  0  0  0  0  0  0  0  0  0  0  0
  185.8390  177.9240  137.3510 S   0  0  0  0  0  0  0  0  0  0  0  0
  184.8600  178.6830  138.7020 C   0  0  1  0  0  3  0  0  0  0  0  0
  182.3870  178.6170  139.1270 C   0  0  2  0  0  0  0  0  0  0  0  0
  183.6380  177.8190  139.0080 C   0  0  1  0  0  3  0  0  0  0  0  0
  182.7040  177.9150  137.9530 O   0  0  0  0  0  0  0  0  0  0  0  0
  182.2900  180.1060  138.8290 C   0  0  0  0  0  2  0  0  0  0  0  0
  181.4470  180.3270  137.7460 O   0  0  0  0  0  1  0  0  0  0  0  0
  181.2600  177.9810  139.7980 N   0  0  0  0  0  2  0  0  0  0  0  0
  181.2350  178.9970  143.3840 C   0  0  0  0  0  3  0  0  0  0  0  0
  181.6870  178.6370  142.1100 C   0  0  0  0  0  3  0  0  0  0  0  0
  179.8620  179.0860  143.6390 C   0  0  0  0  0  3  0  0  0  0  0  0
  180.7740  178.3590  141.0880 C   0  0  0  0  0  0  0  0  0  0  0  0
  179.3990  178.4600  141.3460 C   0  0  0  0  0  3  0  0  0  0  0  0
  178.9460  178.8210  142.6190 C   0  0  0  0  0  3  0  0  0  0  0  0
  188.6430  176.5310  137.0670 O   0  0  0  0  0  0  0  0  0  0  0  0
  188.5530  177.3050  138.0570 C   0  0  0  0  0  0  0  0  0  0  0  0
  189.7740  177.6410  138.8510 C   0  0  0  0  0  2  0  0  0  0  0  0
  190.2330  176.4820  139.5970 N   0  0  0  0  0  2  0  0  0  0  0  0
  191.8160  177.4930  141.1260 C   0  0  0  0  0  1  0  0  0  0  0  0
  189.4800  177.8930  141.2880 O   0  0  0  0  0  1  0  0  0  0  0  0
  190.4240  176.9160  140.9710 C   0  0  1  0  0  3  0  0  0  0  0  0
  185.3490  179.3720  141.1120 C   0  0  0  0  0  2  0  0  0  0  0  0
  186.0790  178.7110  142.2680 C   0  0  0  0  0  2  0  0  0  0  0  0
  185.0800  178.2620  143.3140 C   0  0  0  0  0  2  0  0  0  0  0  0
  184.9880  179.2810  144.4380 C   0  0  0  0  0  2  0  0  0  0  0  0
  184.3150  178.2010  146.4760 F   0  0  0  0  0  0  0  0  0  0  0  0
  185.9320  179.7370  146.5380 F   0  0  0  0  0  0  0  0  0  0  0  0
  185.4160  178.6980  145.7880 C   0  0  0  0  0  0  0  0  0  0  0  0
  186.4390  177.7370  145.6220 O   0  0  0  0  0  0  0  0  0  0  0  0
  188.0110  177.2900  147.3560 C   0  0  0  0  0  2  0  0  0  0  0  0
  187.6320  178.1970  146.2070 C   0  0  0  0  0  3  0  0  0  0  0  0
  188.7050  177.1460  146.0220 C   0  0  0  0  0  2  0  0  0  0  0  0
  1  2  1  0  0  0  0
  2 25  1  0  0  0  0
  3  1  2  0  0  0  0
  4  3  1  0  0  0  0
  5  4  1  6  0  0  0
  5  7  1  0  0  0  0
  5  2  1  0  0  0  0
  6  9  1  6  0  0  0
  6 11  1  0  0  0  0
  7  8  1  6  0  0  0
  7  6  1  0  0  0  0
  8  6  1  0  0  0  0
 10  9  1  0  0  0  0
 11 15  1  0  0  0  0
 12 14  1  0  0  0  0
 13 12  2  0  0  0  0
 15 16  2  0  0  0  0
 15 13  1  0  0  0  0
 16 17  1  0  0  0  0
 17 14  2  0  0  0  0
 18 19  2  0  0  0  0
 19  3  1  0  0  0  0
 19 20  1  0  0  0  0
 20 21  1  0  0  0  0
 21 24  1  0  0  0  0
 24 22  1  6  0  0  0
 24 23  1  0  0  0  0
 25 26  1  0  0  0  0
 26 27  1  0  0  0  0
 27 28  1  0  0  0  0
 28 31  1  0  0  0  0
 31 29  1  0  0  0  0
 31 30  1  0  0  0  0
 32 31  1  0  0  0  0
 32 34  1  0  0  0  0
 34 33  1  0  0  0  0
 35 34  1  0  0  0  0
 35 33  1  0  0  0  0
M  END
>  <MODEL>
8

>  <REMARK>
 VINA RESULT:      -6.3      2.944      6.569
  Name = 
  15 active torsions:
  status: ('A' for Active; 'I' for Inactive)
    1  A    between atoms: C_4  and  C_22
    2  A    between atoms: C_4  and  N_28
    3  A    between atoms: C_5  and  C_11
    4  A    between atoms: C_5  and  C_23
    5  A    between atoms: N_9  and  C_23
    6  A    between atoms: C_10  and  C_14
    7  A    between atoms: C_10  and  N_20
    8  A    between atoms: C_11  and  C_19
    9  A    between atoms: C_13  and  C_19
   10  A    between atoms: C_13  and  O_29
   11  A    between atoms: C_14  and  C_25
   12  A    between atoms: C_15  and  O_29
   13  A    between atoms: C_17  and  C_35
   14  A    between atoms: N_20  and  C_31
   15  A    between atoms: C_24  and  N_28
                            x       y       z     vdW  Elec       q    Type
                         _______ _______ _______ _____ _____    ______ ____

>  <TORSDO>
F 15

$$$$
=
 OpenBabel11042410293D

 35 38  0  0  1  0  0  0  0  0999 V2000
  187.3130  178.3320  139.7010 N   0  0  0  0  0  0  0  0  0  0  0  0
  187.3510  178.6330  141.0610 N   0  0  0  0  0  0  0  0  0  0  0  0
  186.1310  178.3760  139.1920 C   0  0  0  0  0  0  0  0  0  0  0  0
  184.8170  178.8020  140.3340 S   0  0  0  0  0  0  0  0  0  0  0  0
  186.0670  178.9540  141.6660 C   0  0  1  0  0  3  0  0  0  0  0  0
  185.0620  178.6110  143.9400 C   0  0  2  0  0  0  0  0  0  0  0  0
  185.7530  177.9680  142.7890 C   0  0  1  0  0  3  0  0  0  0  0  0
  184.3560  177.8770  142.9730 O   0  0  0  0  0  0  0  0  0  0  0  0
  184.5760  180.0540  143.9490 C   0  0  0  0  0  2  0  0  0  0  0  0
  183.1880  180.0960  143.8880 O   0  0  0  0  0  1  0  0  0  0  0  0
  185.0720  177.8880  145.2050 N   0  0  0  0  0  2  0  0  0  0  0  0
  188.1790  177.2270  147.1550 C   0  0  0  0  0  3  0  0  0  0  0  0
  187.1740  177.1290  146.1860 C   0  0  0  0  0  3  0  0  0  0  0  0
  188.1070  178.2200  148.1380 C   0  0  0  0  0  3  0  0  0  0  0  0
  186.0920  178.0160  146.1980 C   0  0  0  0  0  0  0  0  0  0  0  0
  186.0320  179.0160  147.1790 C   0  0  0  0  0  3  0  0  0  0  0  0
  187.0350  179.1150  148.1470 C   0  0  0  0  0  3  0  0  0  0  0  0
  186.7500  178.5070  136.9130 O   0  0  0  0  0  0  0  0  0  0  0  0
  185.9000  178.1270  137.7620 C   0  0  0  0  0  0  0  0  0  0  0  0
  184.6290  177.4870  137.3050 C   0  0  0  0  0  2  0  0  0  0  0  0
  184.7470  177.0460  135.9260 N   0  0  0  0  0  2  0  0  0  0  0  0
  185.3640  174.8720  136.8000 C   0  0  0  0  0  1  0  0  0  0  0  0
  183.1020  175.4610  136.3730 O   0  0  0  0  0  1  0  0  0  0  0  0
  184.4050  175.6330  135.9070 C   0  0  1  0  0  3  0  0  0  0  0  0
  188.6090  178.7380  141.7810 C   0  0  0  0  0  2  0  0  0  0  0  0
  189.3770  177.4330  141.6640 C   0  0  0  0  0  2  0  0  0  0  0  0
  189.5330  176.8070  143.0340 C   0  0  0  0  0  2  0  0  0  0  0  0
  189.9490  177.8520  144.0560 C   0  0  0  0  0  2  0  0  0  0  0  0
  192.0600  178.9950  143.9540 F   0  0  0  0  0  0  0  0  0  0  0  0
  191.9910  176.7950  143.5860 F   0  0  0  0  0  0  0  0  0  0  0  0
  191.4510  177.8100  144.3520 C   0  0  0  0  0  0  0  0  0  0  0  0
  191.6900  177.4990  145.7090 O   0  0  0  0  0  0  0  0  0  0  0  0
  192.4540  175.6410  146.9910 C   0  0  0  0  0  2  0  0  0  0  0  0
  191.4880  176.1260  145.9330 C   0  0  0  0  0  3  0  0  0  0  0  0
  191.0160  175.9260  147.3560 C   0  0  0  0  0  2  0  0  0  0  0  0
  1  2  1  0  0  0  0
  2  5  1  0  0  0  0
  2 25  1  0  0  0  0
  3  1  2  0  0  0  0
  3  4  1  0  0  0  0
  5  4  1  6  0  0  0
  5  7  1  0  0  0  0
  6  9  1  1  0  0  0
  6 11  1  0  0  0  0
  7  8  1  6  0  0  0
  7  6  1  0  0  0  0
  8  6  1  0  0  0  0
 10  9  1  0  0  0  0
 11 15  1  0  0  0  0
 12 14  1  0  0  0  0
 13 15  1  0  0  0  0
 13 12  2  0  0  0  0
 14 17  2  0  0  0  0
 15 16  2  0  0  0  0
 16 17  1  0  0  0  0
 18 19  2  0  0  0  0
 19  3  1  0  0  0  0
 20 19  1  0  0  0  0
 21 20  1  0  0  0  0
 24 21  1  0  0  0  0
 24 23  1  0  0  0  0
 24 22  1  1  0  0  0
 26 25  1  0  0  0  0
 26 27  1  0  0  0  0
 27 28  1  0  0  0  0
 28 31  1  0  0  0  0
 29 31  1  0  0  0  0
 30 31  1  0  0  0  0
 31 32  1  0  0  0  0
 32 34  1  0  0  0  0
 33 35  1  0  0  0  0
 34 33  1  0  0  0  0
 34 35  1  0  0  0  0
M  END
>  <MODEL>
9

>  <REMARK>
 VINA RESULT:      -6.3      3.339      5.334
  Name = 
  15 active torsions:
  status: ('A' for Active; 'I' for Inactive)
    1  A    between atoms: C_4  and  C_22
    2  A    between atoms: C_4  and  N_28
    3  A    between atoms: C_5  and  C_11
    4  A    between atoms: C_5  and  C_23
    5  A    between atoms: N_9  and  C_23
    6  A    between atoms: C_10  and  C_14
    7  A    between atoms: C_10  and  N_20
    8  A    between atoms: C_11  and  C_19
    9  A    between atoms: C_13  and  C_19
   10  A    between atoms: C_13  and  O_29
   11  A    between atoms: C_14  and  C_25
   12  A    between atoms: C_15  and  O_29
   13  A    between atoms: C_17  and  C_35
   14  A    between atoms: N_20  and  C_31
   15  A    between atoms: C_24  and  N_28
                            x       y       z     vdW  Elec       q    Type
                         _______ _______ _______ _____ _____    ______ ____

>  <TORSDO>
F 15

$$$$
