=
 OpenBabel11042412283D

 27 32  0  0  1  0  0  0  0  0999 V2000
  189.5300  177.4150  141.5850 N   0  0  0  0  0  0  0  0  0  0  0  0
  187.9160  176.5480  143.1760 C   0  0  0  0  0  2  0  0  0  0  0  0
  184.1320  178.5540  145.9080 C   0  0  0  0  0  3  0  0  0  0  0  0
  186.8270  178.2530  145.3540 C   0  0  0  0  0  0  0  0  0  0  0  0
  191.1050  175.8700  144.5010 C   0  0  0  0  0  2  0  0  0  0  0  0
  192.6020  175.3750  146.4660 C   0  0  0  0  0  3  0  0  0  0  0  0
  190.5880  177.3720  142.5550 C   0  0  0  0  0  0  0  0  0  0  0  0
  186.3430  178.1610  146.6490 C   0  0  0  0  0  0  0  0  0  0  0  0
  191.1540  176.9760  146.9250 C   0  0  0  0  0  0  0  0  0  0  0  0
  185.0180  178.3130  146.9120 N   0  0  0  0  0  0  0  0  0  0  0  0
  188.3140  178.1520  145.2130 C   0  0  2  0  0  3  0  0  0  0  0  0
  188.7970  176.9330  144.3700 C   0  0  2  0  0  3  0  0  0  0  0  0
  185.9430  178.5370  144.3100 C   0  0  0  0  0  3  0  0  0  0  0  0
  190.2980  177.0690  144.0020 C   0  0  1  0  0  3  0  0  0  0  0  0
  188.1460  177.5050  142.0200 C   0  0  0  0  0  2  0  0  0  0  0  0
  191.7790  177.5870  142.1990 O   0  0  0  0  0  0  0  0  0  0  0  0
  187.5620  177.9830  147.9280 S   0  0  0  0  0  0  0  0  0  0  0  0
  189.9910  177.5560  146.8790 C   0  0  0  0  0  0  0  0  0  0  0  0
  184.5800  178.6760  144.5860 C   0  0  0  0  0  3  0  0  0  0  0  0
  192.7150  175.7740  147.8380 N   0  0  0  0  0  0  0  0  0  0  0  0
  191.6570  176.0990  145.8830 C   0  0  0  0  0  0  0  0  0  0  0  0
  191.8650  176.6790  148.1120 N   0  0  0  0  0  0  0  0  0  0  0  0
  188.8140  178.0620  146.6440 C   0  0  0  0  0  0  0  0  0  0  0  0
  189.8110  177.4640  140.1570 C   0  0  0  0  0  2  0  0  0  0  0  0
  188.6870  178.1740  139.4220 C   0  0  0  0  0  3  0  0  0  0  0  0
  188.2640  177.3360  138.2360 C   0  0  0  0  0  2  0  0  0  0  0  0
  189.1560  178.5420  138.0300 C   0  0  0  0  0  2  0  0  0  0  0  0
  1 15  1  0  0  0  0
  1  7  1  0  0  0  0
  3 10  1  0  0  0  0
  4  8  1  0  0  0  0
  5 21  1  0  0  0  0
  6 20  1  0  0  0  0
  7 14  1  0  0  0  0
  8 10  2  0  0  0  0
  8 17  1  0  0  0  0
  9 22  1  0  0  0  0
 11  4  1  1  0  0  0
 11 23  1  0  0  0  0
 12  2  1  6  0  0  0
 12 11  1  0  0  0  0
 13 19  1  0  0  0  0
 13  4  2  0  0  0  0
 14 12  1  0  0  0  0
 14  5  1  6  0  0  0
 15  2  1  0  0  0  0
 16  7  2  0  0  0  0
 18  9  2  0  0  0  0
 19  3  2  0  0  0  0
 20 22  2  0  0  0  0
 21  6  2  0  0  0  0
 21  9  1  0  0  0  0
 23 18  2  0  0  0  0
 23 17  1  0  0  0  0
 24  1  1  0  0  0  0
 25 24  1  0  0  0  0
 26 25  1  0  0  0  0
 27 26  1  0  0  0  0
 27 25  1  0  0  0  0
M  END
>  <MODEL>
1

>  <REMARK>
 VINA RESULT:     -10.4      0.000      0.000
  Name = 
  2 active torsions:
  status: ('A' for Active; 'I' for Inactive)
    1  A    between atoms: C_1  and  N_2
    2  A    between atoms: C_1  and  C_5
                            x       y       z     vdW  Elec       q    Type
                         _______ _______ _______ _____ _____    ______ ____

>  <TORSDO>
F 2

$$$$
=
 OpenBabel11042412283D

 27 32  0  0  1  0  0  0  0  0999 V2000
  190.2750  177.1900  144.5510 N   0  0  0  0  0  0  0  0  0  0  0  0
  188.9010  176.2780  142.7720 C   0  0  0  0  0  2  0  0  0  0  0  0
  188.2920  177.2840  137.8290 C   0  0  0  0  0  3  0  0  0  0  0  0
  188.0020  177.9660  140.4960 C   0  0  0  0  0  0  0  0  0  0  0  0
  186.6950  177.4290  145.2620 C   0  0  0  0  0  2  0  0  0  0  0  0
  184.4160  178.2360  145.9680 C   0  0  0  0  0  3  0  0  0  0  0  0
  189.1600  177.8920  145.1230 C   0  0  0  0  0  0  0  0  0  0  0  0
  186.9510  178.0920  139.6020 C   0  0  0  0  0  0  0  0  0  0  0  0
  185.0530  179.1510  144.0630 C   0  0  0  0  0  0  0  0  0  0  0  0
  187.1030  177.7580  138.2930 N   0  0  0  0  0  0  0  0  0  0  0  0
  187.7270  178.4500  141.8860 C   0  0  2  0  0  3  0  0  0  0  0  0
  187.8180  177.3440  142.9800 C   0  0  2  0  0  3  0  0  0  0  0  0
  189.2430  177.5190  140.0370 C   0  0  0  0  0  3  0  0  0  0  0  0
  187.8400  177.9660  144.4010 C   0  0  1  0  0  3  0  0  0  0  0  0
  190.2640  176.8310  143.1420 C   0  0  0  0  0  2  0  0  0  0  0  0
  189.2790  178.4570  146.2450 O   0  0  0  0  0  0  0  0  0  0  0  0
  185.4710  178.8420  140.2350 S   0  0  0  0  0  0  0  0  0  0  0  0
  185.6210  179.1530  142.8930 C   0  0  0  0  0  0  0  0  0  0  0  0
  189.3870  177.1610  138.6930 C   0  0  0  0  0  3  0  0  0  0  0  0
  183.3680  179.0530  145.4290 N   0  0  0  0  0  0  0  0  0  0  0  0
  185.4600  178.2830  145.1530 C   0  0  0  0  0  0  0  0  0  0  0  0
  183.7230  179.5620  144.3190 N   0  0  0  0  0  0  0  0  0  0  0  0
  186.3240  179.0260  141.8040 C   0  0  0  0  0  0  0  0  0  0  0  0
  191.4710  176.9020  145.3300 C   0  0  0  0  0  2  0  0  0  0  0  0
  191.1290  176.0060  146.5080 C   0  0  0  0  0  3  0  0  0  0  0  0
  191.7230  176.5980  147.7680 C   0  0  0  0  0  2  0  0  0  0  0  0
  192.4070  175.4320  147.0850 C   0  0  0  0  0  2  0  0  0  0  0  0
  1  7  1  0  0  0  0
  1 24  1  0  0  0  0
  2 15  1  0  0  0  0
  3 10  2  0  0  0  0
  3 19  1  0  0  0  0
  7 16  2  0  0  0  0
  8 17  1  0  0  0  0
  8  4  2  0  0  0  0
  9 22  1  0  0  0  0
  9 21  1  0  0  0  0
 10  8  1  0  0  0  0
 11  4  1  6  0  0  0
 11 12  1  0  0  0  0
 12  2  1  6  0  0  0
 12 14  1  0  0  0  0
 13  4  1  0  0  0  0
 14  7  1  0  0  0  0
 14  5  1  1  0  0  0
 15  1  1  0  0  0  0
 17 23  1  0  0  0  0
 18  9  2  0  0  0  0
 19 13  2  0  0  0  0
 20  6  1  0  0  0  0
 21  5  1  0  0  0  0
 21  6  2  0  0  0  0
 22 20  2  0  0  0  0
 23 11  1  0  0  0  0
 23 18  2  0  0  0  0
 24 25  1  0  0  0  0
 25 27  1  0  0  0  0
 25 26  1  0  0  0  0
 27 26  1  0  0  0  0
M  END
>  <MODEL>
2

>  <REMARK>
 VINA RESULT:      -9.1      2.450      6.701
  Name = 
  2 active torsions:
  status: ('A' for Active; 'I' for Inactive)
    1  A    between atoms: C_1  and  N_2
    2  A    between atoms: C_1  and  C_5
                            x       y       z     vdW  Elec       q    Type
                         _______ _______ _______ _____ _____    ______ ____

>  <TORSDO>
F 2

$$$$
=
 OpenBabel11042412283D

 27 32  0  0  1  0  0  0  0  0999 V2000
  190.7660  177.2380  140.5660 N   0  0  0  0  0  0  0  0  0  0  0  0
  190.6830  178.3460  142.7230 C   0  0  0  0  0  2  0  0  0  0  0  0
  191.2190  176.8540  147.5500 C   0  0  0  0  0  3  0  0  0  0  0  0
  189.8090  176.8990  145.1680 C   0  0  0  0  0  0  0  0  0  0  0  0
  187.5520  178.8640  141.1990 C   0  0  0  0  0  2  0  0  0  0  0  0
  185.0930  179.3820  141.3650 C   0  0  0  0  0  3  0  0  0  0  0  0
  189.3360  177.2690  140.4360 C   0  0  0  0  0  0  0  0  0  0  0  0
  189.1800  177.1240  146.3820 C   0  0  0  0  0  0  0  0  0  0  0  0
  185.7300  177.9400  142.9090 C   0  0  0  0  0  0  0  0  0  0  0  0
  189.8800  177.0970  147.5470 N   0  0  0  0  0  0  0  0  0  0  0  0
  188.9100  176.8700  143.9720 C   0  0  2  0  0  3  0  0  0  0  0  0
  189.2060  177.9810  142.9190 C   0  0  2  0  0  3  0  0  0  0  0  0
  191.1760  176.6090  145.1470 C   0  0  0  0  0  3  0  0  0  0  0  0
  188.4640  177.6990  141.5860 C   0  0  1  0  0  3  0  0  0  0  0  0
  191.3790  177.2910  141.8830 C   0  0  0  0  0  2  0  0  0  0  0  0
  188.7950  176.9340  139.3470 O   0  0  0  0  0  0  0  0  0  0  0  0
  187.4140  177.2980  146.3270 S   0  0  0  0  0  0  0  0  0  0  0  0
  186.5490  177.4520  143.7950 C   0  0  0  0  0  0  0  0  0  0  0  0
  191.8920  176.6000  146.3470 C   0  0  0  0  0  3  0  0  0  0  0  0
  184.0040  179.0770  142.2460 N   0  0  0  0  0  0  0  0  0  0  0  0
  186.1600  178.6950  141.7470 C   0  0  0  0  0  0  0  0  0  0  0  0
  184.3750  178.2650  143.1520 N   0  0  0  0  0  0  0  0  0  0  0  0
  187.5160  177.0260  144.5560 C   0  0  0  0  0  0  0  0  0  0  0  0
  191.6300  177.0620  139.4070 C   0  0  0  0  0  2  0  0  0  0  0  0
  191.1690  175.8740  138.5810 C   0  0  0  0  0  3  0  0  0  0  0  0
  192.3480  175.3170  137.8140 C   0  0  0  0  0  2  0  0  0  0  0  0
  191.3340  176.1940  137.1100 C   0  0  0  0  0  2  0  0  0  0  0  0
  1 15  1  0  0  0  0
  4  8  1  0  0  0  0
  5 21  1  0  0  0  0
  6 21  2  0  0  0  0
  6 20  1  0  0  0  0
  7  1  1  0  0  0  0
  7 14  1  0  0  0  0
  8 10  2  0  0  0  0
  9 22  1  0  0  0  0
  9 18  2  0  0  0  0
 10  3  1  0  0  0  0
 11 23  1  1  0  0  0
 11  4  1  0  0  0  0
 12  2  1  6  0  0  0
 12 11  1  0  0  0  0
 13  4  2  0  0  0  0
 13 19  1  0  0  0  0
 14  5  1  6  0  0  0
 14 12  1  0  0  0  0
 15  2  1  0  0  0  0
 16  7  2  0  0  0  0
 17  8  1  0  0  0  0
 18 23  2  0  0  0  0
 19  3  2  0  0  0  0
 20 22  2  0  0  0  0
 21  9  1  0  0  0  0
 23 17  1  0  0  0  0
 24  1  1  0  0  0  0
 25 24  1  0  0  0  0
 26 25  1  0  0  0  0
 27 26  1  0  0  0  0
 27 25  1  0  0  0  0
M  END
>  <MODEL>
3

>  <REMARK>
 VINA RESULT:      -8.7      2.261      5.343
  Name = 
  2 active torsions:
  status: ('A' for Active; 'I' for Inactive)
    1  A    between atoms: C_1  and  N_2
    2  A    between atoms: C_1  and  C_5
                            x       y       z     vdW  Elec       q    Type
                         _______ _______ _______ _____ _____    ______ ____

>  <TORSDO>
F 2

$$$$
=
 OpenBabel11042412283D

 27 32  0  0  1  0  0  0  0  0999 V2000
  186.0560  178.5290  141.7490 N   0  0  0  0  0  0  0  0  0  0  0  0
  187.0520  176.8910  143.2370 C   0  0  0  0  0  2  0  0  0  0  0  0
  188.9140  176.9960  147.9630 C   0  0  0  0  0  3  0  0  0  0  0  0
  189.0550  177.6840  145.2850 C   0  0  0  0  0  0  0  0  0  0  0  0
  189.0780  177.0070  140.3610 C   0  0  0  0  0  2  0  0  0  0  0  0
  191.2930  176.6250  139.2240 C   0  0  0  0  0  3  0  0  0  0  0  0
  187.2580  178.6280  140.9680 C   0  0  0  0  0  0  0  0  0  0  0  0
  190.1570  177.1830  145.9600 C   0  0  0  0  0  0  0  0  0  0  0  0
  191.5430  177.5550  141.2090 C   0  0  0  0  0  0  0  0  0  0  0  0
  190.0790  176.8500  147.2750 N   0  0  0  0  0  0  0  0  0  0  0  0
  189.2980  178.0910  143.8650 C   0  0  2  0  0  3  0  0  0  0  0  0
  188.4730  177.2860  142.8160 C   0  0  2  0  0  3  0  0  0  0  0  0
  187.8580  177.8780  145.9780 C   0  0  0  0  0  3  0  0  0  0  0  0
  188.5310  177.9630  141.4220 C   0  0  1  0  0  3  0  0  0  0  0  0
  186.1210  178.0850  143.1320 C   0  0  0  0  0  2  0  0  0  0  0  0
  187.2560  179.2770  139.8870 O   0  0  0  0  0  0  0  0  0  0  0  0
  191.6800  177.1450  145.0480 S   0  0  0  0  0  0  0  0  0  0  0  0
  191.2630  177.7330  142.4670 C   0  0  0  0  0  0  0  0  0  0  0  0
  187.7800  177.5180  147.3260 C   0  0  0  0  0  3  0  0  0  0  0  0
  192.6840  176.7520  139.5450 N   0  0  0  0  0  0  0  0  0  0  0  0
  190.5740  177.1130  140.2240 C   0  0  0  0  0  0  0  0  0  0  0  0
  192.8310  177.2660  140.6990 N   0  0  0  0  0  0  0  0  0  0  0  0
  190.7900  177.8750  143.6720 C   0  0  0  0  0  0  0  0  0  0  0  0
  184.7690  178.9530  141.2170 C   0  0  0  0  0  2  0  0  0  0  0  0
  183.7030  177.9170  141.5290 C   0  0  0  0  0  3  0  0  0  0  0  0
  183.0550  177.4700  140.2370 C   0  0  0  0  0  2  0  0  0  0  0  0
  182.3460  178.4630  141.1350 C   0  0  0  0  0  2  0  0  0  0  0  0
  1 15  1  0  0  0  0
  4  8  2  0  0  0  0
  4 13  1  0  0  0  0
  6 20  1  0  0  0  0
  6 21  2  0  0  0  0
  7 14  1  0  0  0  0
  7  1  1  0  0  0  0
  8 10  1  0  0  0  0
  9 18  2  0  0  0  0
 10  3  2  0  0  0  0
 11 23  1  6  0  0  0
 11  4  1  0  0  0  0
 12  2  1  1  0  0  0
 12 11  1  0  0  0  0
 13 19  2  0  0  0  0
 14  5  1  6  0  0  0
 14 12  1  0  0  0  0
 15  2  1  0  0  0  0
 16  7  2  0  0  0  0
 17  8  1  0  0  0  0
 18 23  2  0  0  0  0
 19  3  1  0  0  0  0
 20 22  2  0  0  0  0
 21  5  1  0  0  0  0
 21  9  1  0  0  0  0
 22  9  1  0  0  0  0
 23 17  1  0  0  0  0
 24 25  1  0  0  0  0
 24  1  1  0  0  0  0
 26 27  1  0  0  0  0
 26 25  1  0  0  0  0
 27 25  1  0  0  0  0
M  END
>  <MODEL>
4

>  <REMARK>
 VINA RESULT:      -8.5      2.620      4.948
  Name = 
  2 active torsions:
  status: ('A' for Active; 'I' for Inactive)
    1  A    between atoms: C_1  and  N_2
    2  A    between atoms: C_1  and  C_5
                            x       y       z     vdW  Elec       q    Type
                         _______ _______ _______ _____ _____    ______ ____

>  <TORSDO>
F 2

$$$$
=
 OpenBabel11042412283D

 27 32  0  0  1  0  0  0  0  0999 V2000
  185.4120  178.9050  143.6860 N   0  0  0  0  0  0  0  0  0  0  0  0
  186.8680  177.0610  144.2960 C   0  0  0  0  0  2  0  0  0  0  0  0
  190.8590  176.5090  147.3900 C   0  0  0  0  0  3  0  0  0  0  0  0
  189.6930  177.5250  145.0940 C   0  0  0  0  0  0  0  0  0  0  0  0
  187.1680  177.4760  140.8130 C   0  0  0  0  0  2  0  0  0  0  0  0
  188.4620  177.1720  138.6730 C   0  0  0  0  0  3  0  0  0  0  0  0
  186.0600  179.0630  142.4130 C   0  0  0  0  0  0  0  0  0  0  0  0
  190.9340  176.9090  145.0610 C   0  0  0  0  0  0  0  0  0  0  0  0
  189.7630  177.8350  140.3280 C   0  0  0  0  0  0  0  0  0  0  0  0
  191.5000  176.4150  146.1930 N   0  0  0  0  0  0  0  0  0  0  0  0
  189.2240  178.1010  143.7950 C   0  0  2  0  0  3  0  0  0  0  0  0
  187.9120  177.4610  143.2460 C   0  0  2  0  0  3  0  0  0  0  0  0
  189.0320  177.6680  146.3170 C   0  0  0  0  0  3  0  0  0  0  0  0
  187.3210  178.3070  142.0880 C   0  0  1  0  0  3  0  0  0  0  0  0
  186.1240  178.2870  144.7930 C   0  0  0  0  0  2  0  0  0  0  0  0
  185.5720  179.8440  141.5510 O   0  0  0  0  0  0  0  0  0  0  0  0
  191.7790  176.9390  143.4990 S   0  0  0  0  0  0  0  0  0  0  0  0
  190.1730  177.8620  141.5620 C   0  0  0  0  0  0  0  0  0  0  0  0
  189.6130  177.1430  147.4750 C   0  0  0  0  0  3  0  0  0  0  0  0
  189.8300  177.2140  138.2480 N   0  0  0  0  0  0  0  0  0  0  0  0
  188.3930  177.5520  139.9410 C   0  0  0  0  0  0  0  0  0  0  0  0
  190.5860  177.5720  139.2070 N   0  0  0  0  0  0  0  0  0  0  0  0
  190.3870  177.8650  142.8470 C   0  0  0  0  0  0  0  0  0  0  0  0
  184.0770  179.4320  143.9290 C   0  0  0  0  0  2  0  0  0  0  0  0
  183.0280  178.3880  143.5890 C   0  0  0  0  0  3  0  0  0  0  0  0
  182.2020  178.8790  142.4210 C   0  0  0  0  0  2  0  0  0  0  0  0
  181.6500  178.9690  143.8280 C   0  0  0  0  0  2  0  0  0  0  0  0
  1 24  1  0  0  0  0
  1 15  1  0  0  0  0
  2 15  1  0  0  0  0
  3 19  1  0  0  0  0
  4 13  1  0  0  0  0
  6 21  2  0  0  0  0
  7  1  1  0  0  0  0
  8  4  2  0  0  0  0
  8 10  1  0  0  0  0
  9 18  2  0  0  0  0
 10  3  2  0  0  0  0
 11 23  1  6  0  0  0
 11  4  1  0  0  0  0
 12 11  1  0  0  0  0
 12  2  1  1  0  0  0
 13 19  2  0  0  0  0
 14  5  1  6  0  0  0
 14  7  1  0  0  0  0
 14 12  1  0  0  0  0
 16  7  2  0  0  0  0
 17  8  1  0  0  0  0
 18 23  2  0  0  0  0
 20  6  1  0  0  0  0
 20 22  2  0  0  0  0
 21  9  1  0  0  0  0
 21  5  1  0  0  0  0
 22  9  1  0  0  0  0
 23 17  1  0  0  0  0
 25 27  1  0  0  0  0
 25 24  1  0  0  0  0
 26 25  1  0  0  0  0
 26 27  1  0  0  0  0
M  END
>  <MODEL>
5

>  <REMARK>
 VINA RESULT:      -8.4      2.438      6.175
  Name = 
  2 active torsions:
  status: ('A' for Active; 'I' for Inactive)
    1  A    between atoms: C_1  and  N_2
    2  A    between atoms: C_1  and  C_5
                            x       y       z     vdW  Elec       q    Type
                         _______ _______ _______ _____ _____    ______ ____

>  <TORSDO>
F 2

$$$$
=
 OpenBabel11042412283D

 27 32  0  0  1  0  0  0  0  0999 V2000
  186.8180  178.2140  145.6820 N   0  0  0  0  0  0  0  0  0  0  0  0
  187.5420  176.7980  143.8490 C   0  0  0  0  0  2  0  0  0  0  0  0
  191.3880  176.9070  140.5300 C   0  0  0  0  0  3  0  0  0  0  0  0
  189.0090  177.9210  141.5190 C   0  0  0  0  0  0  0  0  0  0  0  0
  184.2850  177.8780  143.0650 C   0  0  0  0  0  2  0  0  0  0  0  0
  182.4760  178.3390  141.3730 C   0  0  0  0  0  3  0  0  0  0  0  0
  185.7510  178.7720  144.8980 C   0  0  0  0  0  0  0  0  0  0  0  0
  189.1930  177.7080  140.1620 C   0  0  0  0  0  0  0  0  0  0  0  0
  184.4450  179.0560  140.6810 C   0  0  0  0  0  0  0  0  0  0  0  0
  190.3650  177.2130  139.6850 N   0  0  0  0  0  0  0  0  0  0  0  0
  187.7060  178.5500  141.9030 C   0  0  2  0  0  3  0  0  0  0  0  0
  186.8080  177.6600  142.8140 C   0  0  2  0  0  3  0  0  0  0  0  0
  190.0560  177.6510  142.4030 C   0  0  0  0  0  3  0  0  0  0  0  0
  185.6430  178.4840  143.4240 C   0  0  1  0  0  3  0  0  0  0  0  0
  187.9860  177.6490  145.0250 C   0  0  0  0  0  2  0  0  0  0  0  0
  184.8890  179.5130  145.4440 O   0  0  0  0  0  0  0  0  0  0  0  0
  187.8780  178.2530  139.1010 S   0  0  0  0  0  0  0  0  0  0  0  0
  185.7360  178.9880  140.5350 C   0  0  0  0  0  0  0  0  0  0  0  0
  191.2530  177.1260  141.9070 C   0  0  0  0  0  3  0  0  0  0  0  0
  182.3820  178.8510  140.0380 N   0  0  0  0  0  0  0  0  0  0  0  0
  183.7280  178.4580  141.7920 C   0  0  0  0  0  0  0  0  0  0  0  0
  183.5200  179.2430  139.6270 N   0  0  0  0  0  0  0  0  0  0  0  0
  187.0280  178.8310  140.5720 C   0  0  0  0  0  0  0  0  0  0  0  0
  186.8060  178.2790  147.1360 C   0  0  0  0  0  2  0  0  0  0  0  0
  187.9410  177.4490  147.7110 C   0  0  0  0  0  3  0  0  0  0  0  0
  187.9300  177.5740  149.2180 C   0  0  0  0  0  2  0  0  0  0  0  0
  188.9290  178.3660  148.4010 C   0  0  0  0  0  2  0  0  0  0  0  0
  1 24  1  0  0  0  0
  2 15  1  0  0  0  0
  3 19  1  0  0  0  0
  4 11  1  0  0  0  0
  4 13  1  0  0  0  0
  6 21  2  0  0  0  0
  7 16  2  0  0  0  0
  7  1  1  0  0  0  0
  8  4  2  0  0  0  0
  9 21  1  0  0  0  0
 10  8  1  0  0  0  0
 10  3  2  0  0  0  0
 11 23  1  6  0  0  0
 11 12  1  0  0  0  0
 12 14  1  0  0  0  0
 12  2  1  1  0  0  0
 14  5  1  1  0  0  0
 14  7  1  0  0  0  0
 15  1  1  0  0  0  0
 17  8  1  0  0  0  0
 17 23  1  0  0  0  0
 18 23  2  0  0  0  0
 18  9  2  0  0  0  0
 19 13  2  0  0  0  0
 20  6  1  0  0  0  0
 21  5  1  0  0  0  0
 22 20  2  0  0  0  0
 22  9  1  0  0  0  0
 24 25  1  0  0  0  0
 25 27  1  0  0  0  0
 25 26  1  0  0  0  0
 27 26  1  0  0  0  0
M  END
>  <MODEL>
6

>  <REMARK>
 VINA RESULT:      -8.4      3.490      7.948
  Name = 
  2 active torsions:
  status: ('A' for Active; 'I' for Inactive)
    1  A    between atoms: C_1  and  N_2
    2  A    between atoms: C_1  and  C_5
                            x       y       z     vdW  Elec       q    Type
                         _______ _______ _______ _____ _____    ______ ____

>  <TORSDO>
F 2

$$$$
=
 OpenBabel11042412283D

 27 32  0  0  1  0  0  0  0  0999 V2000
  191.3830  176.2200  145.8170 N   0  0  0  0  0  0  0  0  0  0  0  0
  189.9080  178.1300  145.5620 C   0  0  0  0  0  2  0  0  0  0  0  0
  184.9700  178.9910  146.3900 C   0  0  0  0  0  3  0  0  0  0  0  0
  187.0160  177.7790  144.9730 C   0  0  0  0  0  0  0  0  0  0  0  0
  191.2420  177.4530  142.3760 C   0  0  0  0  0  2  0  0  0  0  0  0
  191.1100  177.6140  139.8660 C   0  0  0  0  0  3  0  0  0  0  0  0
  191.3950  175.9750  144.4010 C   0  0  0  0  0  0  0  0  0  0  0  0
  185.9670  178.4130  144.3250 C   0  0  0  0  0  0  0  0  0  0  0  0
  189.1560  177.1030  140.7560 C   0  0  0  0  0  0  0  0  0  0  0  0
  184.9650  179.0030  145.0290 N   0  0  0  0  0  0  0  0  0  0  0  0
  188.0060  177.0970  144.0810 C   0  0  2  0  0  3  0  0  0  0  0  0
  189.4530  177.6690  144.1720 C   0  0  2  0  0  3  0  0  0  0  0  0
  187.0240  177.7200  146.3680 C   0  0  0  0  0  3  0  0  0  0  0  0
  190.4710  176.7260  143.4790 C   0  0  1  0  0  3  0  0  0  0  0  0
  190.2700  176.9340  146.4230 C   0  0  0  0  0  2  0  0  0  0  0  0
  192.1870  175.1220  143.9160 O   0  0  0  0  0  0  0  0  0  0  0  0
  185.9450  178.2770  142.5550 S   0  0  0  0  0  0  0  0  0  0  0  0
  188.2180  177.1790  141.6540 C   0  0  0  0  0  0  0  0  0  0  0  0
  185.9990  178.3430  147.0860 C   0  0  0  0  0  3  0  0  0  0  0  0
  190.0970  177.5630  138.8530 N   0  0  0  0  0  0  0  0  0  0  0  0
  190.5620  177.3310  141.0390 C   0  0  0  0  0  0  0  0  0  0  0  0
  188.9650  177.2930  139.3670 N   0  0  0  0  0  0  0  0  0  0  0  0
  187.4310  177.2790  142.6870 C   0  0  0  0  0  0  0  0  0  0  0  0
  192.4220  175.6900  146.6880 C   0  0  0  0  0  2  0  0  0  0  0  0
  191.9900  175.7830  148.1400 C   0  0  0  0  0  3  0  0  0  0  0  0
  192.5590  177.0470  148.7460 C   0  0  0  0  0  2  0  0  0  0  0  0
  193.2140  175.7110  149.0310 C   0  0  0  0  0  2  0  0  0  0  0  0
  1 15  1  0  0  0  0
  1 24  1  0  0  0  0
  2 15  1  0  0  0  0
  3 19  1  0  0  0  0
  4 13  1  0  0  0  0
  6 21  2  0  0  0  0
  7  1  1  0  0  0  0
  8  4  2  0  0  0  0
  8 10  1  0  0  0  0
  9 21  1  0  0  0  0
  9 18  2  0  0  0  0
 10  3  2  0  0  0  0
 11 23  1  6  0  0  0
 11 12  1  0  0  0  0
 11  4  1  0  0  0  0
 12  2  1  1  0  0  0
 13 19  2  0  0  0  0
 14  5  1  6  0  0  0
 14 12  1  0  0  0  0
 14  7  1  0  0  0  0
 16  7  2  0  0  0  0
 17 23  1  0  0  0  0
 17  8  1  0  0  0  0
 18 23  2  0  0  0  0
 20 22  2  0  0  0  0
 20  6  1  0  0  0  0
 21  5  1  0  0  0  0
 22  9  1  0  0  0  0
 24 25  1  0  0  0  0
 25 26  1  0  0  0  0
 25 27  1  0  0  0  0
 26 27  1  0  0  0  0
M  END
>  <MODEL>
7

>  <REMARK>
 VINA RESULT:      -8.3      1.882      5.793
  Name = 
  2 active torsions:
  status: ('A' for Active; 'I' for Inactive)
    1  A    between atoms: C_1  and  N_2
    2  A    between atoms: C_1  and  C_5
                            x       y       z     vdW  Elec       q    Type
                         _______ _______ _______ _____ _____    ______ ____

>  <TORSDO>
F 2

$$$$
=
 OpenBabel11042412283D

 27 32  0  0  1  0  0  0  0  0999 V2000
  184.4040  178.6220  141.2600 N   0  0  0  0  0  0  0  0  0  0  0  0
  186.7310  179.3040  141.3440 C   0  0  0  0  0  2  0  0  0  0  0  0
  191.1290  177.2620  139.8270 C   0  0  0  0  0  3  0  0  0  0  0  0
  188.9220  177.3010  141.4980 C   0  0  0  0  0  0  0  0  0  0  0  0
  185.5940  179.1860  144.6730 C   0  0  0  0  0  2  0  0  0  0  0  0
  186.0550  178.9790  147.1400 C   0  0  0  0  0  3  0  0  0  0  0  0
  184.3990  178.2820  142.6560 C   0  0  0  0  0  0  0  0  0  0  0  0
  190.2040  177.1490  142.0010 C   0  0  0  0  0  0  0  0  0  0  0  0
  187.2420  177.5380  145.9630 C   0  0  0  0  0  0  0  0  0  0  0  0
  191.2820  177.1280  141.1730 N   0  0  0  0  0  0  0  0  0  0  0  0
  187.8190  177.2200  142.5070 C   0  0  2  0  0  3  0  0  0  0  0  0
  186.9750  178.5240  142.6410 C   0  0  2  0  0  3  0  0  0  0  0  0
  188.7350  177.4030  140.1170 C   0  0  0  0  0  3  0  0  0  0  0  0
  185.6780  178.2670  143.4520 C   0  0  1  0  0  3  0  0  0  0  0  0
  185.6530  178.6280  140.5170 C   0  0  0  0  0  2  0  0  0  0  0  0
  183.3150  177.9910  143.2310 O   0  0  0  0  0  0  0  0  0  0  0  0
  190.3270  176.8410  143.7450 S   0  0  0  0  0  0  0  0  0  0  0  0
  187.9490  177.1560  144.9410 C   0  0  0  0  0  0  0  0  0  0  0  0
  189.8490  177.3970  139.2730 C   0  0  0  0  0  3  0  0  0  0  0  0
  186.9490  178.2520  147.9930 N   0  0  0  0  0  0  0  0  0  0  0  0
  186.2120  178.5580  145.8940 C   0  0  0  0  0  0  0  0  0  0  0  0
  187.6520  177.4380  147.3140 N   0  0  0  0  0  0  0  0  0  0  0  0
  188.5340  176.8940  143.8070 C   0  0  0  0  0  0  0  0  0  0  0  0
  183.1660  178.8760  140.5380 C   0  0  0  0  0  2  0  0  0  0  0  0
  183.4670  179.4100  139.1480 C   0  0  0  0  0  3  0  0  0  0  0  0
  182.3460  180.3310  138.7190 C   0  0  0  0  0  2  0  0  0  0  0  0
  182.4090  178.9160  138.1830 C   0  0  0  0  0  2  0  0  0  0  0  0
  1  7  1  0  0  0  0
  3 10  1  0  0  0  0
  4  8  1  0  0  0  0
  5 21  1  0  0  0  0
  6 20  1  0  0  0  0
  7 16  2  0  0  0  0
  7 14  1  0  0  0  0
  8 17  1  0  0  0  0
  9 22  1  0  0  0  0
 10  8  2  0  0  0  0
 11  4  1  6  0  0  0
 11 12  1  0  0  0  0
 11 23  1  0  0  0  0
 12  2  1  6  0  0  0
 12 14  1  0  0  0  0
 13  4  2  0  0  0  0
 14  5  1  1  0  0  0
 15  1  1  0  0  0  0
 15  2  1  0  0  0  0
 17 23  1  0  0  0  0
 18  9  2  0  0  0  0
 19  3  2  0  0  0  0
 19 13  1  0  0  0  0
 21  9  1  0  0  0  0
 21  6  2  0  0  0  0
 22 20  2  0  0  0  0
 23 18  2  0  0  0  0
 24  1  1  0  0  0  0
 25 24  1  0  0  0  0
 26 25  1  0  0  0  0
 27 26  1  0  0  0  0
 27 25  1  0  0  0  0
M  END
>  <MODEL>
8

>  <REMARK>
 VINA RESULT:      -8.2      3.346      5.846
  Name = 
  2 active torsions:
  status: ('A' for Active; 'I' for Inactive)
    1  A    between atoms: C_1  and  N_2
    2  A    between atoms: C_1  and  C_5
                            x       y       z     vdW  Elec       q    Type
                         _______ _______ _______ _____ _____    ______ ____

>  <TORSDO>
F 2

$$$$
=
 OpenBabel11042412283D

 27 32  0  0  1  0  0  0  0  0999 V2000
  186.0990  177.7040  144.6250 N   0  0  0  0  0  0  0  0  0  0  0  0
  184.8700  179.4680  143.4990 C   0  0  0  0  0  2  0  0  0  0  0  0
  180.1650  179.9430  141.6410 C   0  0  0  0  0  3  0  0  0  0  0  0
  182.7040  178.8440  141.5610 C   0  0  0  0  0  0  0  0  0  0  0  0
  187.6740  178.7530  141.4950 C   0  0  0  0  0  2  0  0  0  0  0  0
  188.8340  178.7800  139.2590 C   0  0  0  0  0  3  0  0  0  0  0  0
  186.8440  177.3930  143.4370 C   0  0  0  0  0  0  0  0  0  0  0  0
  182.1030  179.3540  140.4210 C   0  0  0  0  0  0  0  0  0  0  0  0
  186.7270  178.1490  139.0790 C   0  0  0  0  0  0  0  0  0  0  0  0
  180.8550  179.8890  140.4690 N   0  0  0  0  0  0  0  0  0  0  0  0
  184.0420  178.2050  141.3540 C   0  0  2  0  0  3  0  0  0  0  0  0
  185.2100  178.9030  142.1150 C   0  0  2  0  0  3  0  0  0  0  0  0
  182.0020  178.8530  142.7680 C   0  0  0  0  0  3  0  0  0  0  0  0
  186.4840  178.0170  142.1140 C   0  0  1  0  0  3  0  0  0  0  0  0
  184.8000  178.3490  144.5230 C   0  0  0  0  0  2  0  0  0  0  0  0
  187.8120  176.5870  143.4930 O   0  0  0  0  0  0  0  0  0  0  0  0
  182.9950  179.1310  138.9010 S   0  0  0  0  0  0  0  0  0  0  0  0
  185.4590  178.1880  139.3700 C   0  0  0  0  0  0  0  0  0  0  0  0
  180.7250  179.4210  142.8140 C   0  0  0  0  0  3  0  0  0  0  0  0
  188.4830  178.5940  137.8820 N   0  0  0  0  0  0  0  0  0  0  0  0
  187.7780  178.5090  140.0130 C   0  0  0  0  0  0  0  0  0  0  0  0
  187.2620  178.2540  137.7740 N   0  0  0  0  0  0  0  0  0  0  0  0
  184.2520  178.2700  139.8500 C   0  0  0  0  0  0  0  0  0  0  0  0
  186.5730  177.3070  145.9430 C   0  0  0  0  0  2  0  0  0  0  0  0
  187.6960  178.2220  146.3970 C   0  0  0  0  0  3  0  0  0  0  0  0
  188.8790  177.3800  146.8230 C   0  0  0  0  0  2  0  0  0  0  0  0
  187.9680  177.9880  147.8690 C   0  0  0  0  0  2  0  0  0  0  0  0
  1 24  1  0  0  0  0
  2 15  1  0  0  0  0
  3 19  1  0  0  0  0
  4 13  1  0  0  0  0
  6 21  2  0  0  0  0
  7 16  2  0  0  0  0
  7  1  1  0  0  0  0
  8 10  1  0  0  0  0
  8  4  2  0  0  0  0
  9 18  2  0  0  0  0
  9 21  1  0  0  0  0
 10  3  2  0  0  0  0
 11 23  1  6  0  0  0
 11  4  1  0  0  0  0
 11 12  1  0  0  0  0
 12  2  1  1  0  0  0
 13 19  2  0  0  0  0
 14  5  1  1  0  0  0
 14 12  1  0  0  0  0
 14  7  1  0  0  0  0
 15  1  1  0  0  0  0
 17 23  1  0  0  0  0
 17  8  1  0  0  0  0
 18 23  2  0  0  0  0
 20  6  1  0  0  0  0
 21  5  1  0  0  0  0
 22 20  2  0  0  0  0
 22  9  1  0  0  0  0
 24 25  1  0  0  0  0
 25 26  1  0  0  0  0
 25 27  1  0  0  0  0
 26 27  1  0  0  0  0
M  END
>  <MODEL>
9

>  <REMARK>
 VINA RESULT:      -8.0      3.788      7.207
  Name = 
  2 active torsions:
  status: ('A' for Active; 'I' for Inactive)
    1  A    between atoms: C_1  and  N_2
    2  A    between atoms: C_1  and  C_5
                            x       y       z     vdW  Elec       q    Type
                         _______ _______ _______ _____ _____    ______ ____

>  <TORSDO>
F 2

$$$$
