=
 OpenBabel11042411103D

 33 36  0  0  1  0  0  0  0  0999 V2000
  186.3100  178.8620  141.3400 C   0  0  0  0  0  0  0  0  0  0  0  0
  188.5580  177.7170  141.4960 C   0  0  1  0  0  3  0  0  0  0  0  0
  190.0170  176.5290  140.0240 C   0  0  1  0  0  3  0  0  0  0  0  0
  185.9650  178.8070  139.9520 N   0  0  0  0  0  2  0  0  0  0  0  0
  186.7700  178.2480  138.9100 C   0  0  0  0  0  0  0  0  0  0  0  0
  185.8740  179.8250  142.0280 O   0  0  0  0  0  0  0  0  0  0  0  0
  188.2520  178.1270  139.0410 C   0  0  0  0  0  2  0  0  0  0  0  0
  187.1080  177.7560  141.9990 C   0  0  1  0  0  3  0  0  0  0  0  0
  189.4460  176.7740  142.2910 C   0  0  0  0  0  2  0  0  0  0  0  0
  186.2280  177.9190  137.8230 O   0  0  0  0  0  0  0  0  0  0  0  0
  190.4410  176.2040  141.3850 N   0  0  0  0  0  2  0  0  0  0  0  0
  188.6130  177.1180  140.1190 C   0  0  2  0  0  3  0  0  0  0  0  0
  188.9230  178.4580  148.8200 C   0  0  0  0  0  1  0  0  0  0  0  0
  186.9960  177.7840  143.5020 C   0  0  0  0  0  0  0  0  0  0  0  0
  188.1170  177.4390  144.2760 C   0  0  0  0  0  3  0  0  0  0  0  0
  187.9960  177.4640  145.6650 C   0  0  0  0  0  0  0  0  0  0  0  0
  188.2570  177.3630  148.0110 C   0  0  2  0  0  3  0  0  0  0  0  0
  185.7830  178.1420  144.1380 C   0  0  0  0  0  3  0  0  0  0  0  0
  185.6910  178.1580  145.5390 C   0  0  0  0  0  3  0  0  0  0  0  0
  189.0250  177.1530  146.6870 C   0  0  0  0  0  2  0  0  0  0  0  0
  186.8250  177.8130  146.2700 C   0  0  0  0  0  0  0  0  0  0  0  0
  186.9390  177.7700  147.6410 O   0  0  0  0  0  0  0  0  0  0  0  0
  191.0440  177.4490  139.3490 C   0  0  1  0  0  3  0  0  0  0  0  0
  192.2000  177.5680  140.1280 O   0  0  0  0  0  1  0  0  0  0  0  0
  191.3960  176.9250  137.9650 C   0  0  0  0  0  2  0  0  0  0  0  0
  192.8250  176.4010  137.9190 C   0  0  0  0  0  2  0  0  0  0  0  0
  191.9190  174.7010  136.4040 N   0  0  0  0  0  1  0  0  0  0  0  0
  192.8640  174.9410  137.4840 C   0  0  1  0  0  3  0  0  0  0  0  0
  194.2690  174.5430  137.0490 C   0  0  0  0  0  2  0  0  0  0  0  0
  195.3620  172.9900  139.1660 O   0  0  0  0  0  0  0  0  0  0  0  0
  195.7690  174.1760  139.0430 C   0  0  0  0  0  0  0  0  0  0  0  0
  196.7170  174.6730  139.9270 O   0  0  0  0  0  1  0  0  0  0  0  0
  195.2650  175.0130  138.0030 N   0  0  0  0  0  2  0  0  0  0  0  0
  1  8  1  0  0  0  0
  1  6  2  0  0  0  0
  2  8  1  0  0  0  0
  2  9  1  1  0  0  0
  3 23  1  1  0  0  0
  3 12  1  0  0  0  0
  3 11  1  0  0  0  0
  4  1  1  0  0  0  0
  5  7  1  0  0  0  0
  5  4  1  0  0  0  0
  8 14  1  1  0  0  0
 10  5  2  0  0  0  0
 11  9  1  0  0  0  0
 12  7  1  6  0  0  0
 12  2  1  0  0  0  0
 14 18  2  0  0  0  0
 14 15  1  0  0  0  0
 15 16  2  0  0  0  0
 16 21  1  0  0  0  0
 16 20  1  0  0  0  0
 17 13  1  1  0  0  0
 18 19  1  0  0  0  0
 19 21  2  0  0  0  0
 20 17  1  0  0  0  0
 21 22  1  0  0  0  0
 22 17  1  0  0  0  0
 23 24  1  1  0  0  0
 25 23  1  0  0  0  0
 26 25  1  0  0  0  0
 28 27  1  6  0  0  0
 28 26  1  0  0  0  0
 29 28  1  0  0  0  0
 29 33  1  0  0  0  0
 31 30  2  0  0  0  0
 31 32  1  0  0  0  0
 33 31  1  0  0  0  0
M  END
>  <MODEL>
1

>  <REMARK>
 VINA RESULT:      -9.3      0.000      0.000
  Name = 
  7 active torsions:
  status: ('A' for Active; 'I' for Inactive)
    1  A    between atoms: C_3  and  C_19
    2  A    between atoms: C_5  and  C_8
    3  A    between atoms: C_5  and  C_21
    4  A    between atoms: C_16  and  N_26
    5  A    between atoms: C_16  and  C_33
    6  A    between atoms: C_21  and  C_30
    7  A    between atoms: C_30  and  C_33
                            x       y       z     vdW  Elec       q    Type
                         _______ _______ _______ _____ _____    ______ ____

>  <TORSDO>
F 7

$$$$
=
 OpenBabel11042411103D

 33 36  0  0  1  0  0  0  0  0999 V2000
  187.3140  177.3360  144.6230 C   0  0  0  0  0  0  0  0  0  0  0  0
  187.3990  177.7800  142.1360 C   0  0  1  0  0  3  0  0  0  0  0  0
  189.0840  178.1880  140.4920 C   0  0  1  0  0  3  0  0  0  0  0  0
  188.6840  177.2250  145.0230 N   0  0  0  0  0  2  0  0  0  0  0  0
  189.8200  177.3160  144.1580 C   0  0  0  0  0  0  0  0  0  0  0  0
  186.4470  176.6900  145.2720 O   0  0  0  0  0  0  0  0  0  0  0  0
  189.7220  177.0210  142.6980 C   0  0  0  0  0  2  0  0  0  0  0  0
  186.8920  178.2620  143.5020 C   0  0  1  0  0  3  0  0  0  0  0  0
  186.8110  178.5540  140.9670 C   0  0  0  0  0  2  0  0  0  0  0  0
  190.9480  177.5770  144.6490 O   0  0  0  0  0  0  0  0  0  0  0  0
  187.8170  178.6260  139.9100 N   0  0  0  0  0  2  0  0  0  0  0  0
  188.8680  178.0640  141.9970 C   0  0  2  0  0  3  0  0  0  0  0  0
  179.9720  177.8060  142.0120 C   0  0  0  0  0  1  0  0  0  0  0  0
  185.4140  178.5540  143.5250 C   0  0  0  0  0  0  0  0  0  0  0  0
  184.6570  178.3290  142.3620 C   0  0  0  0  0  3  0  0  0  0  0  0
  183.2910  178.6080  142.3960 C   0  0  0  0  0  0  0  0  0  0  0  0
  180.9860  178.9330  141.9890 C   0  0  2  0  0  3  0  0  0  0  0  0
  184.7840  179.0550  144.6890 C   0  0  0  0  0  3  0  0  0  0  0  0
  183.4070  179.3270  144.6940 C   0  0  0  0  0  3  0  0  0  0  0  0
  182.2880  178.4490  141.3140 C   0  0  0  0  0  2  0  0  0  0  0  0
  182.6910  179.0880  143.5230 C   0  0  0  0  0  0  0  0  0  0  0  0
  181.3440  179.2860  143.3260 O   0  0  0  0  0  0  0  0  0  0  0  0
  189.5660  176.8970  139.8150 C   0  0  1  0  0  3  0  0  0  0  0  0
  188.8680  176.6640  138.6260 O   0  0  0  0  0  1  0  0  0  0  0  0
  191.0610  176.9690  139.5420 C   0  0  0  0  0  2  0  0  0  0  0  0
  191.4700  175.9950  138.4460 C   0  0  0  0  0  2  0  0  0  0  0  0
  193.5870  177.1530  138.8730 N   0  0  0  0  0  1  0  0  0  0  0  0
  192.8770  176.2900  137.9410 C   0  0  1  0  0  3  0  0  0  0  0  0
  193.6570  174.9990  137.7250 C   0  0  0  0  0  2  0  0  0  0  0  0
  195.4840  173.3240  139.1170 O   0  0  0  0  0  1  0  0  0  0  0  0
  195.9500  174.3450  138.5470 C   0  0  0  0  0  0  0  0  0  0  0  0
  197.3100  174.6120  138.6150 O   0  0  0  0  0  0  0  0  0  0  0  0
  195.0910  175.2310  137.8280 N   0  0  0  0  0  2  0  0  0  0  0  0
  1  4  1  0  0  0  0
  1  6  2  0  0  0  0
  2  9  1  6  0  0  0
  2  8  1  0  0  0  0
  3 23  1  6  0  0  0
  3 12  1  0  0  0  0
  5 10  2  0  0  0  0
  5  4  1  0  0  0  0
  7  5  1  0  0  0  0
  8 14  1  6  0  0  0
  8  1  1  0  0  0  0
 11  3  1  0  0  0  0
 11  9  1  0  0  0  0
 12  2  1  0  0  0  0
 12  7  1  6  0  0  0
 14 18  1  0  0  0  0
 15 16  1  0  0  0  0
 15 14  2  0  0  0  0
 16 21  2  0  0  0  0
 17 13  1  1  0  0  0
 17 22  1  0  0  0  0
 18 19  2  0  0  0  0
 20 17  1  0  0  0  0
 20 16  1  0  0  0  0
 21 19  1  0  0  0  0
 22 21  1  0  0  0  0
 23 24  1  6  0  0  0
 25 23  1  0  0  0  0
 26 25  1  0  0  0  0
 28 26  1  0  0  0  0
 28 27  1  1  0  0  0
 29 33  1  0  0  0  0
 29 28  1  0  0  0  0
 31 32  2  0  0  0  0
 31 30  1  0  0  0  0
 33 31  1  0  0  0  0
M  END
>  <MODEL>
2

>  <REMARK>
 VINA RESULT:      -9.0      2.576      4.644
  Name = 
  7 active torsions:
  status: ('A' for Active; 'I' for Inactive)
    1  A    between atoms: C_3  and  C_19
    2  A    between atoms: C_5  and  C_8
    3  A    between atoms: C_5  and  C_21
    4  A    between atoms: C_16  and  N_26
    5  A    between atoms: C_16  and  C_33
    6  A    between atoms: C_21  and  C_30
    7  A    between atoms: C_30  and  C_33
                            x       y       z     vdW  Elec       q    Type
                         _______ _______ _______ _____ _____    ______ ____

>  <TORSDO>
F 7

$$$$
=
 OpenBabel11042411103D

 33 36  0  0  1  0  0  0  0  0999 V2000
  185.0120  178.9260  145.3330 C   0  0  0  0  0  0  0  0  0  0  0  0
  185.4990  178.6810  142.8650 C   0  0  1  0  0  3  0  0  0  0  0  0
  184.2470  178.2850  140.8700 C   0  0  1  0  0  3  0  0  0  0  0  0
  183.5850  178.9020  145.4290 N   0  0  0  0  0  2  0  0  0  0  0  0
  182.6710  178.7980  144.3320 C   0  0  0  0  0  0  0  0  0  0  0  0
  185.6600  179.5800  146.1960 O   0  0  0  0  0  0  0  0  0  0  0  0
  183.0520  179.2190  142.9510 C   0  0  0  0  0  2  0  0  0  0  0  0
  185.7450  178.1280  144.2750 C   0  0  1  0  0  3  0  0  0  0  0  0
  186.3900  178.0500  141.8060 C   0  0  0  0  0  2  0  0  0  0  0  0
  181.4930  178.4160  144.5470 O   0  0  0  0  0  0  0  0  0  0  0  0
  185.6430  177.9900  140.5520 N   0  0  0  0  0  2  0  0  0  0  0  0
  184.1260  178.3010  142.3900 C   0  0  2  0  0  3  0  0  0  0  0  0
  191.6550  175.5380  147.2200 C   0  0  0  0  0  1  0  0  0  0  0  0
  187.2050  177.9450  144.6020 C   0  0  0  0  0  0  0  0  0  0  0  0
  187.5640  177.4910  145.8830 C   0  0  0  0  0  3  0  0  0  0  0  0
  188.9190  177.3320  146.1740 C   0  0  0  0  0  0  0  0  0  0  0  0
  191.0520  176.9240  147.1040 C   0  0  2  0  0  3  0  0  0  0  0  0
  188.2100  178.2310  143.6480 C   0  0  0  0  0  3  0  0  0  0  0  0
  189.5660  178.0620  143.9690 C   0  0  0  0  0  3  0  0  0  0  0  0
  189.5440  176.8650  147.4350 C   0  0  0  0  0  2  0  0  0  0  0  0
  189.8820  177.6080  145.2480 C   0  0  0  0  0  0  0  0  0  0  0  0
  191.1410  177.3760  145.7530 O   0  0  0  0  0  0  0  0  0  0  0  0
  183.8060  179.5870  140.1870 C   0  0  1  0  0  3  0  0  0  0  0  0
  184.7740  180.0310  139.2800 O   0  0  0  0  0  1  0  0  0  0  0  0
  182.4750  179.3900  139.4780 C   0  0  0  0  0  2  0  0  0  0  0  0
  182.3050  180.3790  138.3340 C   0  0  0  0  0  2  0  0  0  0  0  0
  180.0130  180.1370  139.1670 N   0  0  0  0  0  1  0  0  0  0  0  0
  180.8540  180.8300  138.2030 C   0  0  1  0  0  3  0  0  0  0  0  0
  180.7360  182.3360  138.3910 C   0  0  0  0  0  2  0  0  0  0  0  0
  182.1980  184.5860  137.4510 O   0  0  0  0  0  1  0  0  0  0  0  0
  181.2850  184.1340  136.7110 C   0  0  0  0  0  0  0  0  0  0  0  0
  181.0300  184.7380  135.4870 O   0  0  0  0  0  0  0  0  0  0  0  0
  180.5110  183.0070  137.1180 N   0  0  0  0  0  2  0  0  0  0  0  0
  1  4  1  0  0  0  0
  1  6  2  0  0  0  0
  2  9  1  6  0  0  0
  2  8  1  0  0  0  0
  3 23  1  1  0  0  0
  3 12  1  0  0  0  0
  5 10  2  0  0  0  0
  5  4  1  0  0  0  0
  7  5  1  0  0  0  0
  8 14  1  1  0  0  0
  8  1  1  0  0  0  0
 11  3  1  0  0  0  0
 11  9  1  0  0  0  0
 12  2  1  0  0  0  0
 12  7  1  6  0  0  0
 14 15  1  0  0  0  0
 15 16  2  0  0  0  0
 16 20  1  0  0  0  0
 17 13  1  6  0  0  0
 17 20  1  0  0  0  0
 18 19  1  0  0  0  0
 18 14  2  0  0  0  0
 19 21  2  0  0  0  0
 21 22  1  0  0  0  0
 21 16  1  0  0  0  0
 22 17  1  0  0  0  0
 23 24  1  6  0  0  0
 25 23  1  0  0  0  0
 26 25  1  0  0  0  0
 28 26  1  0  0  0  0
 28 29  1  0  0  0  0
 28 27  1  1  0  0  0
 31 33  1  0  0  0  0
 31 30  1  0  0  0  0
 32 31  2  0  0  0  0
 33 29  1  0  0  0  0
M  END
>  <MODEL>
3

>  <REMARK>
 VINA RESULT:      -9.0      4.985      8.964
  Name = 
  7 active torsions:
  status: ('A' for Active; 'I' for Inactive)
    1  A    between atoms: C_3  and  C_19
    2  A    between atoms: C_5  and  C_8
    3  A    between atoms: C_5  and  C_21
    4  A    between atoms: C_16  and  N_26
    5  A    between atoms: C_16  and  C_33
    6  A    between atoms: C_21  and  C_30
    7  A    between atoms: C_30  and  C_33
                            x       y       z     vdW  Elec       q    Type
                         _______ _______ _______ _____ _____    ______ ____

>  <TORSDO>
F 7

$$$$
=
 OpenBabel11042411103D

 33 36  0  0  1  0  0  0  0  0999 V2000
  184.9650  178.9330  145.3100 C   0  0  0  0  0  0  0  0  0  0  0  0
  185.4360  178.6370  142.8440 C   0  0  1  0  0  3  0  0  0  0  0  0
  184.1700  178.2100  140.8640 C   0  0  1  0  0  3  0  0  0  0  0  0
  183.5380  178.9180  145.4150 N   0  0  0  0  0  2  0  0  0  0  0  0
  182.6180  178.7980  144.3250 C   0  0  0  0  0  0  0  0  0  0  0  0
  185.6210  179.5990  146.1560 O   0  0  0  0  0  0  0  0  0  0  0  0
  182.9920  179.1890  142.9340 C   0  0  0  0  0  2  0  0  0  0  0  0
  185.6870  178.1100  144.2640 C   0  0  1  0  0  3  0  0  0  0  0  0
  186.3170  177.9810  141.7930 C   0  0  0  0  0  2  0  0  0  0  0  0
  181.4380  178.4260  144.5550 O   0  0  0  0  0  0  0  0  0  0  0  0
  185.5630  177.9010  140.5440 N   0  0  0  0  0  2  0  0  0  0  0  0
  184.0580  178.2560  142.3850 C   0  0  2  0  0  3  0  0  0  0  0  0
  191.5960  175.5950  147.2780 C   0  0  0  0  0  1  0  0  0  0  0  0
  187.1480  177.9260  144.5860 C   0  0  0  0  0  0  0  0  0  0  0  0
  187.5150  177.5310  145.8840 C   0  0  0  0  0  3  0  0  0  0  0  0
  188.8700  177.3700  146.1690 C   0  0  0  0  0  0  0  0  0  0  0  0
  191.0080  176.9810  147.0990 C   0  0  2  0  0  3  0  0  0  0  0  0
  188.1470  178.1520  143.6100 C   0  0  0  0  0  3  0  0  0  0  0  0
  189.5040  177.9830  143.9260 C   0  0  0  0  0  3  0  0  0  0  0  0
  189.5020  176.9570  147.4470 C   0  0  0  0  0  2  0  0  0  0  0  0
  189.8270  177.5870  145.2220 C   0  0  0  0  0  0  0  0  0  0  0  0
  191.0880  177.3660  145.7270 O   0  0  0  0  0  0  0  0  0  0  0  0
  183.7320  179.5010  140.1590 C   0  0  1  0  0  3  0  0  0  0  0  0
  184.7860  180.0520  139.4220 O   0  0  0  0  0  1  0  0  0  0  0  0
  182.5410  179.2310  139.2520 C   0  0  0  0  0  2  0  0  0  0  0  0
  181.7860  177.9830  139.6860 C   0  0  0  0  0  2  0  0  0  0  0  0
  180.1400  179.7330  140.1680 N   0  0  0  0  0  1  0  0  0  0  0  0
  180.4930  178.3420  140.4080 C   0  0  1  0  0  3  0  0  0  0  0  0
  179.3560  177.4290  139.9690 C   0  0  0  0  0  2  0  0  0  0  0  0
  179.9750  174.6540  140.0190 O   0  0  0  0  0  0  0  0  0  0  0  0
  179.3280  175.1240  140.9910 C   0  0  0  0  0  0  0  0  0  0  0  0
  178.9470  174.2880  142.0320 O   0  0  0  0  0  1  0  0  0  0  0  0
  178.9830  176.5080  141.0340 N   0  0  0  0  0  2  0  0  0  0  0  0
  1  4  1  0  0  0  0
  1  6  2  0  0  0  0
  2  9  1  6  0  0  0
  2  8  1  0  0  0  0
  3 23  1  6  0  0  0
  3 12  1  0  0  0  0
  5 10  2  0  0  0  0
  5  4  1  0  0  0  0
  7  5  1  0  0  0  0
  8 14  1  1  0  0  0
  8  1  1  0  0  0  0
 11  3  1  0  0  0  0
 11  9  1  0  0  0  0
 12  2  1  0  0  0  0
 12  7  1  6  0  0  0
 14 15  1  0  0  0  0
 15 16  2  0  0  0  0
 16 20  1  0  0  0  0
 17 13  1  6  0  0  0
 17 20  1  0  0  0  0
 18 19  1  0  0  0  0
 18 14  2  0  0  0  0
 19 21  2  0  0  0  0
 21 22  1  0  0  0  0
 21 16  1  0  0  0  0
 22 17  1  0  0  0  0
 23 24  1  6  0  0  0
 25 26  1  0  0  0  0
 25 23  1  0  0  0  0
 26 28  1  0  0  0  0
 28 27  1  6  0  0  0
 29 28  1  0  0  0  0
 29 33  1  0  0  0  0
 30 31  2  0  0  0  0
 31 33  1  0  0  0  0
 31 32  1  0  0  0  0
M  END
>  <MODEL>
4

>  <REMARK>
 VINA RESULT:      -8.9      4.981      8.661
  Name = 
  7 active torsions:
  status: ('A' for Active; 'I' for Inactive)
    1  A    between atoms: C_3  and  C_19
    2  A    between atoms: C_5  and  C_8
    3  A    between atoms: C_5  and  C_21
    4  A    between atoms: C_16  and  N_26
    5  A    between atoms: C_16  and  C_33
    6  A    between atoms: C_21  and  C_30
    7  A    between atoms: C_30  and  C_33
                            x       y       z     vdW  Elec       q    Type
                         _______ _______ _______ _____ _____    ______ ____

>  <TORSDO>
F 7

$$$$
=
 OpenBabel11042411103D

 33 36  0  0  1  0  0  0  0  0999 V2000
  185.8460  178.5240  141.9720 C   0  0  0  0  0  0  0  0  0  0  0  0
  183.4810  178.4460  142.8590 C   0  0  1  0  0  3  0  0  0  0  0  0
  181.3130  179.1130  142.1100 C   0  0  1  0  0  3  0  0  0  0  0  0
  185.7210  179.0250  140.6370 N   0  0  0  0  0  2  0  0  0  0  0  0
  184.4960  179.3590  139.9780 C   0  0  0  0  0  0  0  0  0  0  0  0
  186.8050  177.7460  142.2320 O   0  0  0  0  0  0  0  0  0  0  0  0
  183.1940  178.7550  140.3870 C   0  0  0  0  0  2  0  0  0  0  0  0
  184.9080  178.9700  143.0730 C   0  0  1  0  0  3  0  0  0  0  0  0
  182.5670  178.6820  144.0510 C   0  0  0  0  0  2  0  0  0  0  0  0
  184.5230  180.1230  138.9790 O   0  0  0  0  0  0  0  0  0  0  0  0
  181.2120  178.9100  143.5550 N   0  0  0  0  0  2  0  0  0  0  0  0
  182.7970  179.2290  141.7760 C   0  0  2  0  0  3  0  0  0  0  0  0
  189.5400  178.1710  148.3850 C   0  0  0  0  0  1  0  0  0  0  0  0
  185.4540  178.6780  144.4470 C   0  0  0  0  0  0  0  0  0  0  0  0
  186.7550  178.1580  144.5660 C   0  0  0  0  0  3  0  0  0  0  0  0
  187.2460  177.8880  145.8430 C   0  0  0  0  0  0  0  0  0  0  0  0
  188.4770  177.2840  147.7680 C   0  0  2  0  0  3  0  0  0  0  0  0
  184.6790  178.9100  145.6080 C   0  0  0  0  0  3  0  0  0  0  0  0
  185.2000  178.6280  146.8810 C   0  0  0  0  0  3  0  0  0  0  0  0
  188.5740  177.3500  146.2270 C   0  0  0  0  0  2  0  0  0  0  0  0
  186.4940  178.1170  146.9570 C   0  0  0  0  0  0  0  0  0  0  0  0
  187.1800  177.7810  148.1010 O   0  0  0  0  0  0  0  0  0  0  0  0
  180.5820  177.9920  141.3590 C   0  0  1  0  0  3  0  0  0  0  0  0
  179.8130  177.2200  142.2360 O   0  0  0  0  0  1  0  0  0  0  0  0
  179.7020  178.5740  140.2630 C   0  0  0  0  0  2  0  0  0  0  0  0
  179.9170  180.0750  140.1210 C   0  0  0  0  0  2  0  0  0  0  0  0
  180.4120  179.2890  137.8530 N   0  0  0  0  0  1  0  0  0  0  0  0
  180.5120  180.4210  138.7610 C   0  0  1  0  0  3  0  0  0  0  0  0
  179.8180  181.6380  138.1610 C   0  0  0  0  0  2  0  0  0  0  0  0
  180.7980  183.1080  135.9330 O   0  0  0  0  0  0  0  0  0  0  0  0
  181.1230  183.5070  137.0820 C   0  0  0  0  0  0  0  0  0  0  0  0
  181.9300  184.6280  137.2190 O   0  0  0  0  0  1  0  0  0  0  0  0
  180.6670  182.8190  138.2460 N   0  0  0  0  0  2  0  0  0  0  0  0
  1  6  2  0  0  0  0
  1  8  1  0  0  0  0
  2  8  1  0  0  0  0
  2  9  1  1  0  0  0
  3 23  1  6  0  0  0
  3 11  1  0  0  0  0
  4  1  1  0  0  0  0
  5  7  1  0  0  0  0
  5  4  1  0  0  0  0
  8 14  1  1  0  0  0
 10  5  2  0  0  0  0
 11  9  1  0  0  0  0
 12  7  1  6  0  0  0
 12  3  1  0  0  0  0
 12  2  1  0  0  0  0
 14 15  2  0  0  0  0
 14 18  1  0  0  0  0
 15 16  1  0  0  0  0
 16 20  1  0  0  0  0
 16 21  2  0  0  0  0
 17 22  1  0  0  0  0
 17 13  1  1  0  0  0
 18 19  2  0  0  0  0
 19 21  1  0  0  0  0
 20 17  1  0  0  0  0
 21 22  1  0  0  0  0
 23 24  1  1  0  0  0
 25 23  1  0  0  0  0
 26 25  1  0  0  0  0
 28 27  1  6  0  0  0
 28 26  1  0  0  0  0
 29 33  1  0  0  0  0
 29 28  1  0  0  0  0
 30 31  2  0  0  0  0
 31 32  1  0  0  0  0
 31 33  1  0  0  0  0
M  END
>  <MODEL>
5

>  <REMARK>
 VINA RESULT:      -8.7      5.618      9.232
  Name = 
  7 active torsions:
  status: ('A' for Active; 'I' for Inactive)
    1  A    between atoms: C_3  and  C_19
    2  A    between atoms: C_5  and  C_8
    3  A    between atoms: C_5  and  C_21
    4  A    between atoms: C_16  and  N_26
    5  A    between atoms: C_16  and  C_33
    6  A    between atoms: C_21  and  C_30
    7  A    between atoms: C_30  and  C_33
                            x       y       z     vdW  Elec       q    Type
                         _______ _______ _______ _____ _____    ______ ____

>  <TORSDO>
F 7

$$$$
=
 OpenBabel11042411103D

 33 36  0  0  1  0  0  0  0  0999 V2000
  189.0990  178.3210  138.5270 C   0  0  0  0  0  0  0  0  0  0  0  0
  189.0030  177.6170  140.9530 C   0  0  1  0  0  3  0  0  0  0  0  0
  190.2680  176.2150  142.4150 C   0  0  1  0  0  3  0  0  0  0  0  0
  190.3140  177.7520  138.0280 N   0  0  0  0  0  2  0  0  0  0  0  0
  191.2580  176.9900  138.7880 C   0  0  0  0  0  0  0  0  0  0  0  0
  188.6810  179.3900  138.0060 O   0  0  0  0  0  0  0  0  0  0  0  0
  191.3650  177.1260  140.2700 C   0  0  0  0  0  2  0  0  0  0  0  0
  188.2840  177.6250  139.5960 C   0  0  1  0  0  3  0  0  0  0  0  0
  188.1270  177.1310  142.0960 C   0  0  0  0  0  2  0  0  0  0  0  0
  192.0710  176.2420  138.1860 O   0  0  0  0  0  0  0  0  0  0  0  0
  188.9740  176.4300  143.0590 N   0  0  0  0  0  2  0  0  0  0  0  0
  190.1100  176.6020  140.9480 C   0  0  2  0  0  3  0  0  0  0  0  0
  181.2710  178.0570  138.6250 C   0  0  0  0  0  1  0  0  0  0  0  0
  186.8710  178.1430  139.6690 C   0  0  0  0  0  0  0  0  0  0  0  0
  185.9940  177.8850  138.6010 C   0  0  0  0  0  3  0  0  0  0  0  0
  184.6910  178.3750  138.6800 C   0  0  0  0  0  0  0  0  0  0  0  0
  182.4320  178.9980  138.3750 C   0  0  2  0  0  3  0  0  0  0  0  0
  186.4210  178.8880  140.7850 C   0  0  0  0  0  3  0  0  0  0  0  0
  185.1030  179.3700  140.8370 C   0  0  0  0  0  3  0  0  0  0  0  0
  183.5890  178.2310  137.6970 C   0  0  0  0  0  2  0  0  0  0  0  0
  184.2650  179.0900  139.7600 C   0  0  0  0  0  0  0  0  0  0  0  0
  182.9490  179.4680  139.6210 O   0  0  0  0  0  0  0  0  0  0  0  0
  191.3700  176.9840  143.1560 C   0  0  1  0  0  3  0  0  0  0  0  0
  191.0000  178.3170  143.3610 O   0  0  0  0  0  1  0  0  0  0  0  0
  191.6800  176.3150  144.4860 C   0  0  0  0  0  2  0  0  0  0  0  0
  191.3810  177.2430  145.6560 C   0  0  0  0  0  2  0  0  0  0  0  0
  192.0550  176.7580  147.9610 N   0  0  0  0  0  1  0  0  0  0  0  0
  191.0810  176.4540  146.9250 C   0  0  1  0  0  3  0  0  0  0  0  0
  189.6730  176.7490  147.4260 C   0  0  0  0  0  2  0  0  0  0  0  0
  187.2480  178.2040  147.7180 O   0  0  0  0  0  1  0  0  0  0  0  0
  187.5940  177.8780  146.5520 C   0  0  0  0  0  0  0  0  0  0  0  0
  186.7970  178.2330  145.4730 O   0  0  0  0  0  0  0  0  0  0  0  0
  188.8000  177.1480  146.3300 N   0  0  0  0  0  2  0  0  0  0  0  0
  1  8  1  0  0  0  0
  2  9  1  1  0  0  0
  3 11  1  0  0  0  0
  3 23  1  1  0  0  0
  4  1  1  0  0  0  0
  4  5  1  0  0  0  0
  5  7  1  0  0  0  0
  6  1  2  0  0  0  0
  8 14  1  1  0  0  0
  8  2  1  0  0  0  0
  9 11  1  0  0  0  0
 10  5  2  0  0  0  0
 12  7  1  1  0  0  0
 12  2  1  0  0  0  0
 12  3  1  0  0  0  0
 14 18  1  0  0  0  0
 15 16  1  0  0  0  0
 15 14  2  0  0  0  0
 16 21  2  0  0  0  0
 17 13  1  1  0  0  0
 17 22  1  0  0  0  0
 18 19  2  0  0  0  0
 20 17  1  0  0  0  0
 20 16  1  0  0  0  0
 21 19  1  0  0  0  0
 22 21  1  0  0  0  0
 23 24  1  1  0  0  0
 23 25  1  0  0  0  0
 25 26  1  0  0  0  0
 26 28  1  0  0  0  0
 28 29  1  0  0  0  0
 28 27  1  1  0  0  0
 31 30  1  0  0  0  0
 32 31  2  0  0  0  0
 33 31  1  0  0  0  0
 33 29  1  0  0  0  0
M  END
>  <MODEL>
6

>  <REMARK>
 VINA RESULT:      -8.6      2.766      7.596
  Name = 
  7 active torsions:
  status: ('A' for Active; 'I' for Inactive)
    1  A    between atoms: C_3  and  C_19
    2  A    between atoms: C_5  and  C_8
    3  A    between atoms: C_5  and  C_21
    4  A    between atoms: C_16  and  N_26
    5  A    between atoms: C_16  and  C_33
    6  A    between atoms: C_21  and  C_30
    7  A    between atoms: C_30  and  C_33
                            x       y       z     vdW  Elec       q    Type
                         _______ _______ _______ _____ _____    ______ ____

>  <TORSDO>
F 7

$$$$
=
 OpenBabel11042411103D

 33 36  0  0  1  0  0  0  0  0999 V2000
  181.9990  178.6240  142.1110 C   0  0  0  0  0  0  0  0  0  0  0  0
  184.3570  178.5400  141.2040 C   0  0  1  0  0  3  0  0  0  0  0  0
  186.5680  178.8250  142.0610 C   0  0  1  0  0  3  0  0  0  0  0  0
  182.1560  178.7960  143.5230 N   0  0  0  0  0  2  0  0  0  0  0  0
  183.3990  178.8630  144.2270 C   0  0  0  0  0  0  0  0  0  0  0  0
  180.9780  178.0140  141.6910 O   0  0  0  0  0  0  0  0  0  0  0  0
  184.6470  178.2540  143.6780 C   0  0  0  0  0  2  0  0  0  0  0  0
  182.9850  179.2230  141.1290 C   0  0  1  0  0  3  0  0  0  0  0  0
  185.3000  178.9570  140.0860 C   0  0  0  0  0  2  0  0  0  0  0  0
  183.4300  179.3800  145.3740 O   0  0  0  0  0  0  0  0  0  0  0  0
  186.6650  178.9460  140.6070 N   0  0  0  0  0  2  0  0  0  0  0  0
  185.0970  178.9930  142.4290 C   0  0  2  0  0  3  0  0  0  0  0  0
  180.8070  181.9360  134.9480 C   0  0  0  0  0  1  0  0  0  0  0  0
  182.4280  179.2990  139.7310 C   0  0  0  0  0  0  0  0  0  0  0  0
  181.7220  180.4510  139.3410 C   0  0  0  0  0  3  0  0  0  0  0  0
  181.2080  180.5060  138.0460 C   0  0  0  0  0  0  0  0  0  0  0  0
  180.1720  181.0360  135.9890 C   0  0  2  0  0  3  0  0  0  0  0  0
  182.5960  178.2320  138.8170 C   0  0  0  0  0  3  0  0  0  0  0  0
  182.0660  178.3150  137.5190 C   0  0  0  0  0  3  0  0  0  0  0  0
  180.4430  181.6010  137.4010 C   0  0  0  0  0  2  0  0  0  0  0  0
  181.3770  179.4740  137.1700 C   0  0  0  0  0  0  0  0  0  0  0  0
  180.7890  179.7490  135.9560 O   0  0  0  0  0  0  0  0  0  0  0  0
  187.1900  177.5020  142.5310 C   0  0  1  0  0  3  0  0  0  0  0  0
  188.2600  177.1310  141.7100 O   0  0  0  0  0  1  0  0  0  0  0  0
  187.6510  177.6170  143.9760 C   0  0  0  0  0  2  0  0  0  0  0  0
  189.0590  177.0650  144.1520 C   0  0  0  0  0  2  0  0  0  0  0  0
  189.2700  177.9250  146.4370 N   0  0  0  0  0  1  0  0  0  0  0  0
  189.8730  177.9230  145.1130 C   0  0  1  0  0  3  0  0  0  0  0  0
  191.3120  177.4300  145.1940 C   0  0  0  0  0  2  0  0  0  0  0  0
  192.4310  174.9640  146.0610 O   0  0  0  0  0  0  0  0  0  0  0  0
  192.2390  175.8540  146.9310 C   0  0  0  0  0  0  0  0  0  0  0  0
  192.5730  175.6050  148.2550 O   0  0  0  0  0  1  0  0  0  0  0  0
  191.6810  177.1160  146.5680 N   0  0  0  0  0  2  0  0  0  0  0  0
  1  4  1  0  0  0  0
  2  9  1  6  0  0  0
  2 12  1  0  0  0  0
  3 12  1  0  0  0  0
  3 23  1  6  0  0  0
  4  5  1  0  0  0  0
  5 10  2  0  0  0  0
  6  1  2  0  0  0  0
  7  5  1  0  0  0  0
  8 14  1  6  0  0  0
  8  2  1  0  0  0  0
  8  1  1  0  0  0  0
  9 11  1  0  0  0  0
 11  3  1  0  0  0  0
 12  7  1  1  0  0  0
 15 14  1  0  0  0  0
 16 15  2  0  0  0  0
 17 13  1  6  0  0  0
 17 20  1  0  0  0  0
 18 14  2  0  0  0  0
 19 18  1  0  0  0  0
 20 16  1  0  0  0  0
 21 19  2  0  0  0  0
 21 16  1  0  0  0  0
 22 17  1  0  0  0  0
 22 21  1  0  0  0  0
 23 24  1  6  0  0  0
 23 25  1  0  0  0  0
 25 26  1  0  0  0  0
 26 28  1  0  0  0  0
 28 29  1  0  0  0  0
 28 27  1  1  0  0  0
 29 33  1  0  0  0  0
 30 31  2  0  0  0  0
 31 32  1  0  0  0  0
 33 31  1  0  0  0  0
M  END
>  <MODEL>
7

>  <REMARK>
 VINA RESULT:      -8.6      4.888      8.517
  Name = 
  7 active torsions:
  status: ('A' for Active; 'I' for Inactive)
    1  A    between atoms: C_3  and  C_19
    2  A    between atoms: C_5  and  C_8
    3  A    between atoms: C_5  and  C_21
    4  A    between atoms: C_16  and  N_26
    5  A    between atoms: C_16  and  C_33
    6  A    between atoms: C_21  and  C_30
    7  A    between atoms: C_30  and  C_33
                            x       y       z     vdW  Elec       q    Type
                         _______ _______ _______ _____ _____    ______ ____

>  <TORSDO>
F 7

$$$$
=
 OpenBabel11042411103D

 33 36  0  0  1  0  0  0  0  0999 V2000
  186.4110  178.8910  141.3310 C   0  0  0  0  0  0  0  0  0  0  0  0
  188.6490  177.7410  141.5800 C   0  0  1  0  0  3  0  0  0  0  0  0
  190.1570  176.5360  140.1730 C   0  0  1  0  0  3  0  0  0  0  0  0
  186.1180  178.8240  139.9330 N   0  0  0  0  0  2  0  0  0  0  0  0
  186.9580  178.2520  138.9250 C   0  0  0  0  0  0  0  0  0  0  0  0
  185.9550  179.8630  141.9930 O   0  0  0  0  0  0  0  0  0  0  0  0
  188.4340  178.1290  139.1120 C   0  0  0  0  0  2  0  0  0  0  0  0
  187.1820  177.7900  142.0290 C   0  0  1  0  0  3  0  0  0  0  0  0
  189.5050  176.8030  142.4160 C   0  0  0  0  0  2  0  0  0  0  0  0
  186.4550  177.9150  137.8230 O   0  0  0  0  0  0  0  0  0  0  0  0
  190.5300  176.2220  141.5520 N   0  0  0  0  0  2  0  0  0  0  0  0
  188.7520  177.1300  140.2120 C   0  0  2  0  0  3  0  0  0  0  0  0
  188.7620  178.4980  148.9080 C   0  0  0  0  0  1  0  0  0  0  0  0
  187.0150  177.8330  143.5260 C   0  0  0  0  0  0  0  0  0  0  0  0
  188.0970  177.4640  144.3440 C   0  0  0  0  0  3  0  0  0  0  0  0
  187.9260  177.5040  145.7270 C   0  0  0  0  0  0  0  0  0  0  0  0
  188.0980  177.4140  148.0830 C   0  0  2  0  0  3  0  0  0  0  0  0
  185.7890  178.2270  144.1150 C   0  0  0  0  0  3  0  0  0  0  0  0
  185.6460  178.2560  145.5110 C   0  0  0  0  0  3  0  0  0  0  0  0
  188.9080  177.1740  146.7890 C   0  0  0  0  0  2  0  0  0  0  0  0
  186.7430  177.8870  146.2870 C   0  0  0  0  0  0  0  0  0  0  0  0
  186.8050  177.8520  147.6610 O   0  0  0  0  0  0  0  0  0  0  0  0
  191.2100  177.4460  139.5280 C   0  0  1  0  0  3  0  0  0  0  0  0
  192.1470  177.8780  140.4730 O   0  0  0  0  0  1  0  0  0  0  0  0
  191.9110  176.7210  138.3880 C   0  0  0  0  0  2  0  0  0  0  0  0
  190.9400  175.8420  137.6120 C   0  0  0  0  0  2  0  0  0  0  0  0
  191.9770  175.5670  135.4090 N   0  0  0  0  0  1  0  0  0  0  0  0
  190.9050  176.2270  136.1370 C   0  0  1  0  0  3  0  0  0  0  0  0
  189.5580  175.8760  135.5180 C   0  0  0  0  0  2  0  0  0  0  0  0
  186.9840  174.7820  135.0030 O   0  0  0  0  0  0  0  0  0  0  0  0
  187.3250  174.9280  136.2060 C   0  0  0  0  0  0  0  0  0  0  0  0
  186.4500  174.5570  137.2190 O   0  0  0  0  0  1  0  0  0  0  0  0
  188.6020  175.4690  136.5400 N   0  0  0  0  0  2  0  0  0  0  0  0
  1  6  2  0  0  0  0
  1  8  1  0  0  0  0
  2  8  1  0  0  0  0
  2  9  1  1  0  0  0
  3 23  1  1  0  0  0
  3 12  1  0  0  0  0
  3 11  1  0  0  0  0
  4  1  1  0  0  0  0
  5  7  1  0  0  0  0
  5  4  1  0  0  0  0
  8 14  1  1  0  0  0
 10  5  2  0  0  0  0
 11  9  1  0  0  0  0
 12  7  1  6  0  0  0
 12  2  1  0  0  0  0
 14 18  2  0  0  0  0
 14 15  1  0  0  0  0
 15 16  2  0  0  0  0
 16 21  1  0  0  0  0
 16 20  1  0  0  0  0
 17 13  1  1  0  0  0
 18 19  1  0  0  0  0
 19 21  2  0  0  0  0
 20 17  1  0  0  0  0
 21 22  1  0  0  0  0
 22 17  1  0  0  0  0
 23 24  1  1  0  0  0
 25 23  1  0  0  0  0
 26 25  1  0  0  0  0
 28 27  1  6  0  0  0
 28 26  1  0  0  0  0
 29 28  1  0  0  0  0
 29 33  1  0  0  0  0
 30 31  2  0  0  0  0
 31 33  1  0  0  0  0
 31 32  1  0  0  0  0
M  END
>  <MODEL>
8

>  <REMARK>
 VINA RESULT:      -8.6      1.968      3.352
  Name = 
  7 active torsions:
  status: ('A' for Active; 'I' for Inactive)
    1  A    between atoms: C_3  and  C_19
    2  A    between atoms: C_5  and  C_8
    3  A    between atoms: C_5  and  C_21
    4  A    between atoms: C_16  and  N_26
    5  A    between atoms: C_16  and  C_33
    6  A    between atoms: C_21  and  C_30
    7  A    between atoms: C_30  and  C_33
                            x       y       z     vdW  Elec       q    Type
                         _______ _______ _______ _____ _____    ______ ____

>  <TORSDO>
F 7

$$$$
=
 OpenBabel11042411103D

 33 36  0  0  1  0  0  0  0  0999 V2000
  191.2780  176.7690  142.4270 C   0  0  0  0  0  0  0  0  0  0  0  0
  189.3150  177.4740  140.9990 C   0  0  1  0  0  3  0  0  0  0  0  0
  188.9860  178.4240  138.8320 C   0  0  1  0  0  3  0  0  0  0  0  0
  192.4230  176.9360  141.5860 N   0  0  0  0  0  2  0  0  0  0  0  0
  192.4060  177.3740  140.2230 C   0  0  0  0  0  0  0  0  0  0  0  0
  191.3150  175.8780  143.3200 O   0  0  0  0  0  0  0  0  0  0  0  0
  191.1970  177.2150  139.3620 C   0  0  0  0  0  2  0  0  0  0  0  0
  190.0760  177.6840  142.3150 C   0  0  1  0  0  3  0  0  0  0  0  0
  187.9850  178.2090  140.9480 C   0  0  0  0  0  2  0  0  0  0  0  0
  193.4590  177.8350  139.7120 O   0  0  0  0  0  0  0  0  0  0  0  0
  187.7370  178.6180  139.5670 N   0  0  0  0  0  2  0  0  0  0  0  0
  190.0670  178.1010  139.8590 C   0  0  2  0  0  3  0  0  0  0  0  0
  187.8070  178.6290  148.9690 C   0  0  0  0  0  1  0  0  0  0  0  0
  189.1940  177.6250  143.5350 C   0  0  0  0  0  0  0  0  0  0  0  0
  189.7910  177.5870  144.8070 C   0  0  0  0  0  3  0  0  0  0  0  0
  188.9610  177.5260  145.9270 C   0  0  0  0  0  0  0  0  0  0  0  0
  187.9760  177.4190  148.0720 C   0  0  2  0  0  3  0  0  0  0  0  0
  187.7830  177.5980  143.4170 C   0  0  0  0  0  3  0  0  0  0  0  0
  186.9740  177.5360  144.5630 C   0  0  0  0  0  3  0  0  0  0  0  0
  189.3450  177.4860  147.3590 C   0  0  0  0  0  2  0  0  0  0  0  0
  187.6030  177.5030  145.8050 C   0  0  0  0  0  0  0  0  0  0  0  0
  186.9920  177.4460  147.0370 O   0  0  0  0  0  0  0  0  0  0  0  0
  188.8070  177.3550  137.7450 C   0  0  1  0  0  3  0  0  0  0  0  0
  187.4840  176.9050  137.6970 O   0  0  0  0  0  1  0  0  0  0  0  0
  189.2240  177.9040  136.3890 C   0  0  0  0  0  2  0  0  0  0  0  0
  189.6240  176.7840  135.4380 C   0  0  0  0  0  2  0  0  0  0  0  0
  189.7110  174.3930  135.9680 N   0  0  0  0  0  1  0  0  0  0  0  0
  190.3680  175.6740  136.1730 C   0  0  1  0  0  3  0  0  0  0  0  0
  191.8180  175.5990  135.7150 C   0  0  0  0  0  2  0  0  0  0  0  0
  194.3060  176.7550  136.4630 O   0  0  0  0  0  0  0  0  0  0  0  0
  193.9190  175.7420  137.1030 C   0  0  0  0  0  0  0  0  0  0  0  0
  194.7030  175.2360  138.1310 O   0  0  0  0  0  1  0  0  0  0  0  0
  192.6800  175.1100  136.7830 N   0  0  0  0  0  2  0  0  0  0  0  0
  1  6  2  0  0  0  0
  2  9  1  1  0  0  0
  2  8  1  0  0  0  0
  3 23  1  6  0  0  0
  3 11  1  0  0  0  0
  3 12  1  0  0  0  0
  4  1  1  0  0  0  0
  5  4  1  0  0  0  0
  7  5  1  0  0  0  0
  8  1  1  0  0  0  0
  8 14  1  1  0  0  0
 10  5  2  0  0  0  0
 11  9  1  0  0  0  0
 12  7  1  6  0  0  0
 12  2  1  0  0  0  0
 14 15  1  0  0  0  0
 15 16  2  0  0  0  0
 16 20  1  0  0  0  0
 17 13  1  1  0  0  0
 18 14  2  0  0  0  0
 18 19  1  0  0  0  0
 19 21  2  0  0  0  0
 20 17  1  0  0  0  0
 21 16  1  0  0  0  0
 21 22  1  0  0  0  0
 22 17  1  0  0  0  0
 23 24  1  6  0  0  0
 25 23  1  0  0  0  0
 26 28  1  0  0  0  0
 26 25  1  0  0  0  0
 28 27  1  6  0  0  0
 29 28  1  0  0  0  0
 29 33  1  0  0  0  0
 30 31  2  0  0  0  0
 31 32  1  0  0  0  0
 33 31  1  0  0  0  0
M  END
>  <MODEL>
9

>  <REMARK>
 VINA RESULT:      -8.6      1.833      3.558
  Name = 
  7 active torsions:
  status: ('A' for Active; 'I' for Inactive)
    1  A    between atoms: C_3  and  C_19
    2  A    between atoms: C_5  and  C_8
    3  A    between atoms: C_5  and  C_21
    4  A    between atoms: C_16  and  N_26
    5  A    between atoms: C_16  and  C_33
    6  A    between atoms: C_21  and  C_30
    7  A    between atoms: C_30  and  C_33
                            x       y       z     vdW  Elec       q    Type
                         _______ _______ _______ _____ _____    ______ ____

>  <TORSDO>
F 7

$$$$
