=
 OpenBabel11042410323D

 35 38  0  0  1  0  0  0  0  0999 V2000
  192.4930  176.5610  137.6650 O   0  0  0  0  0  0  0  0  0  0  0  0
  193.3300  175.4180  137.8170 C   0  0  0  0  0  2  0  0  0  0  0  0
  192.5410  174.1980  137.6850 N   0  0  0  0  0  2  0  0  0  0  0  0
  189.1770  177.7950  138.0240 C   0  0  0  0  0  0  0  0  0  0  0  0
  191.3950  176.7760  138.5030 C   0  0  0  0  0  0  0  0  0  0  0  0
  192.1670  173.6950  135.4430 O   0  0  0  0  0  0  0  0  0  0  0  0
  188.8940  178.3790  139.1970 C   0  0  0  0  0  3  0  0  0  0  0  0
  190.2190  174.2990  136.7110 C   0  0  1  0  0  3  0  0  0  0  0  0
  190.5390  177.3960  140.7720 C   0  0  0  0  0  0  0  0  0  0  0  0
  191.6000  177.1180  139.7760 C   0  0  0  0  0  3  0  0  0  0  0  0
  191.6810  174.0020  136.5650 C   0  0  0  0  0  0  0  0  0  0  0  0
  189.4000  177.9630  140.4770 N   0  0  0  0  0  0  0  0  0  0  0  0
  190.0000  176.3770  135.6070 O   0  0  0  0  0  0  0  0  0  0  0  0
  190.0080  176.5430  137.9860 C   0  0  2  0  0  3  0  0  0  0  0  0
  190.0030  175.7860  136.6780 C   0  0  0  0  0  0  0  0  0  0  0  0
  190.8350  177.1410  142.1910 C   0  0  0  0  0  0  0  0  0  0  0  0
  191.5350  177.9510  142.9450 O   0  0  0  0  0  0  0  0  0  0  0  0
  190.9430  176.2400  144.1870 C   0  0  0  0  0  3  0  0  0  0  0  0
  191.6230  177.4460  144.1520 C   0  0  0  0  0  3  0  0  0  0  0  0
  190.4300  176.0390  142.9170 C   0  0  0  0  0  3  0  0  0  0  0  0
  189.4670  173.6620  135.7170 O   0  0  0  0  0  0  0  0  0  0  0  0
  188.2950  173.2610  136.3610 C   0  0  0  0  0  2  0  0  0  0  0  0
  187.0960  173.7920  135.6020 C   0  0  0  0  0  1  0  0  0  0  0  0
  188.6820  178.3370  136.8290 O   0  0  0  0  0  0  0  0  0  0  0  0
  187.3360  178.7620  136.6620 C   0  0  0  0  0  2  0  0  0  0  0  0
  186.4350  177.5490  136.5460 C   0  0  0  0  0  2  0  0  0  0  0  0
  185.2870  177.6500  137.5390 C   0  0  0  0  0  2  0  0  0  0  0  0
  185.5660  178.6700  138.5430 N   0  0  0  0  0  2  0  0  0  0  0  0
  183.0510  179.4360  139.0650 S   0  0  0  0  0  0  0  0  0  0  0  0
  184.6060  179.1490  139.4960 C   0  0  0  0  0  0  0  0  0  0  0  0
  184.9910  179.3530  140.8560 N   0  0  0  0  0  2  0  0  0  0  0  0
  183.7690  178.6080  144.1530 O   0  0  0  0  0  1  0  0  0  0  0  0
  184.6470  179.1950  143.2440 C   0  0  1  0  0  3  0  0  0  0  0  0
  185.7040  178.1870  142.8530 C   0  0  0  0  0  2  0  0  0  0  0  0
  184.5460  178.4670  141.9170 C   0  0  2  0  0  3  0  0  0  0  0  0
  1  2  1  0  0  0  0
  1  5  1  0  0  0  0
  3  2  1  0  0  0  0
  4  7  2  0  0  0  0
  5 10  2  0  0  0  0
  6 11  2  0  0  0  0
  7 12  1  0  0  0  0
  8 21  1  6  0  0  0
  9 16  1  0  0  0  0
 10  9  1  0  0  0  0
 11  8  1  0  0  0  0
 11  3  1  0  0  0  0
 12  9  2  0  0  0  0
 13 15  2  0  0  0  0
 14 15  1  6  0  0  0
 14  4  1  0  0  0  0
 14  5  1  0  0  0  0
 15  8  1  0  0  0  0
 16 20  2  0  0  0  0
 16 17  1  0  0  0  0
 17 19  1  0  0  0  0
 19 18  2  0  0  0  0
 20 18  1  0  0  0  0
 21 22  1  0  0  0  0
 23 22  1  0  0  0  0
 24  4  1  0  0  0  0
 25 24  1  0  0  0  0
 26 25  1  0  0  0  0
 26 27  1  0  0  0  0
 27 28  1  0  0  0  0
 28 30  1  0  0  0  0
 29 30  2  0  0  0  0
 30 31  1  0  0  0  0
 33 32  1  1  0  0  0
 34 33  1  0  0  0  0
 35 31  1  6  0  0  0
 35 34  1  0  0  0  0
 35 33  1  0  0  0  0
M  END
>  <MODEL>
1

>  <REMARK>
 VINA RESULT:      -6.6      0.000      0.000
  Name = 
  11 active torsions:
  status: ('A' for Active; 'I' for Inactive)
    1  A    between atoms: C_1  and  C_20
    2  A    between atoms: C_1  and  C_25
    3  A    between atoms: C_4  and  C_26
    4  A    between atoms: C_9  and  O_14
    5  A    between atoms: N_11  and  C_20
    6  A    between atoms: N_11  and  C_33
    7  A    between atoms: O_14  and  C_23
    8  A    between atoms: C_16  and  O_29
    9  A    between atoms: C_21  and  N_30
   10  A    between atoms: C_25  and  O_29
   11  A    between atoms: N_30  and  C_33
                            x       y       z     vdW  Elec       q    Type
                         _______ _______ _______ _____ _____    ______ ____

>  <TORSDO>
F 11

$$$$
=
 OpenBabel11042410323D

 35 38  0  0  1  0  0  0  0  0999 V2000
  182.2200  179.9990  139.2100 O   0  0  0  0  0  0  0  0  0  0  0  0
  181.6400  179.7200  137.9390 C   0  0  0  0  0  2  0  0  0  0  0  0
  181.1480  178.3470  137.9020 N   0  0  0  0  0  2  0  0  0  0  0  0
  183.8410  178.5680  142.0340 C   0  0  0  0  0  0  0  0  0  0  0  0
  183.2870  179.2440  139.7050 C   0  0  0  0  0  0  0  0  0  0  0  0
  179.0740  178.1850  138.9460 O   0  0  0  0  0  0  0  0  0  0  0  0
  185.1800  178.5580  141.9960 C   0  0  0  0  0  3  0  0  0  0  0  0
  180.8810  177.0480  140.0450 C   0  0  1  0  0  3  0  0  0  0  0  0
  185.7170  178.6540  139.5760 C   0  0  0  0  0  0  0  0  0  0  0  0
  184.4920  179.3710  139.1480 C   0  0  0  0  0  3  0  0  0  0  0  0
  180.2890  177.8510  138.9270 C   0  0  0  0  0  0  0  0  0  0  0  0
  185.9790  178.3490  140.8180 N   0  0  0  0  0  0  0  0  0  0  0  0
  180.9270  178.5980  141.8280 O   0  0  0  0  0  0  0  0  0  0  0  0
  183.0500  178.2460  140.7970 C   0  0  2  0  0  3  0  0  0  0  0  0
  181.5790  177.9650  141.0080 C   0  0  0  0  0  0  0  0  0  0  0  0
  186.7540  178.3890  138.5670 C   0  0  0  0  0  0  0  0  0  0  0  0
  186.6550  178.7470  137.3110 O   0  0  0  0  0  0  0  0  0  0  0  0
  188.5860  177.7310  137.5570 C   0  0  0  0  0  3  0  0  0  0  0  0
  187.7350  178.3700  136.6700 C   0  0  0  0  0  3  0  0  0  0  0  0
  187.9530  177.7420  138.7880 C   0  0  0  0  0  3  0  0  0  0  0  0
  179.9050  176.2860  140.6980 O   0  0  0  0  0  0  0  0  0  0  0  0
  180.0730  174.9920  140.2020 C   0  0  0  0  0  2  0  0  0  0  0  0
  179.5240  173.9940  141.2000 C   0  0  0  0  0  1  0  0  0  0  0  0
  183.1720  178.8580  143.2310 O   0  0  0  0  0  0  0  0  0  0  0  0
  183.7340  179.6500  144.2690 C   0  0  0  0  0  2  0  0  0  0  0  0
  184.1180  178.7570  145.4330 C   0  0  0  0  0  2  0  0  0  0  0  0
  185.5240  179.0890  145.9080 C   0  0  0  0  0  2  0  0  0  0  0  0
  186.2130  177.8840  146.3530 N   0  0  0  0  0  2  0  0  0  0  0  0
  188.4480  177.2860  147.7050 S   0  0  0  0  0  0  0  0  0  0  0  0
  187.6380  177.7200  146.3480 C   0  0  0  0  0  0  0  0  0  0  0  0
  188.3730  177.9020  145.1380 N   0  0  0  0  0  2  0  0  0  0  0  0
  190.1240  176.3740  142.3960 O   0  0  0  0  0  1  0  0  0  0  0  0
  189.1630  177.2110  142.9600 C   0  0  1  0  0  3  0  0  0  0  0  0
  187.9310  176.3990  143.2930 C   0  0  0  0  0  2  0  0  0  0  0  0
  188.9060  176.7770  144.3890 C   0  0  2  0  0  3  0  0  0  0  0  0
  1  5  1  0  0  0  0
  2  1  1  0  0  0  0
  3  2  1  0  0  0  0
  3 11  1  0  0  0  0
  4 24  1  0  0  0  0
  7  4  2  0  0  0  0
  8 21  1  1  0  0  0
  8 15  1  0  0  0  0
  9 12  2  0  0  0  0
 10  9  1  0  0  0  0
 10  5  2  0  0  0  0
 11  6  2  0  0  0  0
 11  8  1  0  0  0  0
 12  7  1  0  0  0  0
 14  5  1  6  0  0  0
 14 15  1  0  0  0  0
 14  4  1  0  0  0  0
 15 13  2  0  0  0  0
 16 20  2  0  0  0  0
 16  9  1  0  0  0  0
 17 16  1  0  0  0  0
 18 20  1  0  0  0  0
 19 17  1  0  0  0  0
 19 18  2  0  0  0  0
 22 21  1  0  0  0  0
 22 23  1  0  0  0  0
 24 25  1  0  0  0  0
 25 26  1  0  0  0  0
 26 27  1  0  0  0  0
 27 28  1  0  0  0  0
 30 28  1  0  0  0  0
 30 29  2  0  0  0  0
 31 30  1  0  0  0  0
 33 32  1  6  0  0  0
 33 34  1  0  0  0  0
 33 35  1  0  0  0  0
 34 35  1  0  0  0  0
 35 31  1  1  0  0  0
M  END
>  <MODEL>
2

>  <REMARK>
 VINA RESULT:      -6.6      3.907      8.621
  Name = 
  11 active torsions:
  status: ('A' for Active; 'I' for Inactive)
    1  A    between atoms: C_1  and  C_20
    2  A    between atoms: C_1  and  C_25
    3  A    between atoms: C_4  and  C_26
    4  A    between atoms: C_9  and  O_14
    5  A    between atoms: N_11  and  C_20
    6  A    between atoms: N_11  and  C_33
    7  A    between atoms: O_14  and  C_23
    8  A    between atoms: C_16  and  O_29
    9  A    between atoms: C_21  and  N_30
   10  A    between atoms: C_25  and  O_29
   11  A    between atoms: N_30  and  C_33
                            x       y       z     vdW  Elec       q    Type
                         _______ _______ _______ _____ _____    ______ ____

>  <TORSDO>
F 11

$$$$
=
 OpenBabel11042410323D

 35 38  0  0  1  0  0  0  0  0999 V2000
  191.0060  177.1450  137.8580 O   0  0  0  0  0  0  0  0  0  0  0  0
  191.9490  176.0940  137.6600 C   0  0  0  0  0  2  0  0  0  0  0  0
  191.2600  174.8100  137.5860 N   0  0  0  0  0  2  0  0  0  0  0  0
  187.8040  177.9570  139.1760 C   0  0  0  0  0  0  0  0  0  0  0  0
  190.1500  177.1560  138.9630 C   0  0  0  0  0  0  0  0  0  0  0  0
  190.3600  174.4760  135.4650 O   0  0  0  0  0  0  0  0  0  0  0  0
  187.7870  178.3940  140.4420 C   0  0  0  0  0  3  0  0  0  0  0  0
  188.7650  174.7370  137.2410 C   0  0  1  0  0  3  0  0  0  0  0  0
  189.8630  177.4630  141.4300 C   0  0  0  0  0  0  0  0  0  0  0  0
  190.6480  177.4000  140.1750 C   0  0  0  0  0  3  0  0  0  0  0  0
  190.1580  174.6210  136.7010 C   0  0  0  0  0  0  0  0  0  0  0  0
  188.6430  177.9220  141.4970 N   0  0  0  0  0  0  0  0  0  0  0  0
  188.0890  176.8690  136.4800 O   0  0  0  0  0  0  0  0  0  0  0  0
  188.7010  176.8160  138.7840 C   0  0  2  0  0  3  0  0  0  0  0  0
  188.4210  176.1860  137.4390 C   0  0  0  0  0  0  0  0  0  0  0  0
  190.5400  177.1140  142.6900 C   0  0  0  0  0  0  0  0  0  0  0  0
  190.9010  175.8960  143.0070 O   0  0  0  0  0  0  0  0  0  0  0  0
  191.4900  177.2120  144.6630 C   0  0  0  0  0  3  0  0  0  0  0  0
  191.4750  175.9120  144.1860 C   0  0  0  0  0  3  0  0  0  0  0  0
  190.8840  177.9950  143.6960 C   0  0  0  0  0  3  0  0  0  0  0  0
  187.8380  174.1130  136.3990 O   0  0  0  0  0  0  0  0  0  0  0  0
  186.7170  173.8950  137.2030 C   0  0  0  0  0  2  0  0  0  0  0  0
  186.0100  172.6350  136.7520 C   0  0  0  0  0  1  0  0  0  0  0  0
  186.9710  178.5460  138.2150 O   0  0  0  0  0  0  0  0  0  0  0  0
  185.5990  178.2080  138.0560 C   0  0  0  0  0  2  0  0  0  0  0  0
  184.7460  179.1830  138.8440 C   0  0  0  0  0  2  0  0  0  0  0  0
  184.2260  178.5220  140.1100 C   0  0  0  0  0  2  0  0  0  0  0  0
  184.6210  179.2860  141.2880 N   0  0  0  0  0  2  0  0  0  0  0  0
  182.7350  178.8110  143.1310 S   0  0  0  0  0  0  0  0  0  0  0  0
  184.2930  178.9210  142.6350 C   0  0  0  0  0  0  0  0  0  0  0  0
  185.3320  178.6130  143.5650 N   0  0  0  0  0  2  0  0  0  0  0  0
  185.4530  179.3000  147.0910 O   0  0  0  0  0  1  0  0  0  0  0  0
  186.0140  179.1250  145.8270 C   0  0  1  0  0  3  0  0  0  0  0  0
  186.2500  177.6510  145.5870 C   0  0  0  0  0  2  0  0  0  0  0  0
  185.0510  178.3350  144.9630 C   0  0  2  0  0  3  0  0  0  0  0  0
  1  5  1  0  0  0  0
  2  1  1  0  0  0  0
  3  2  1  0  0  0  0
  4  7  2  0  0  0  0
  5 10  2  0  0  0  0
  6 11  2  0  0  0  0
  7 12  1  0  0  0  0
  8 21  1  6  0  0  0
  8 15  1  0  0  0  0
  9 12  2  0  0  0  0
  9 16  1  0  0  0  0
 10  9  1  0  0  0  0
 11  8  1  0  0  0  0
 11  3  1  0  0  0  0
 13 15  2  0  0  0  0
 14 15  1  6  0  0  0
 14  5  1  0  0  0  0
 14  4  1  0  0  0  0
 16 17  1  0  0  0  0
 16 20  2  0  0  0  0
 17 19  1  0  0  0  0
 19 18  2  0  0  0  0
 20 18  1  0  0  0  0
 21 22  1  0  0  0  0
 23 22  1  0  0  0  0
 24  4  1  0  0  0  0
 25 24  1  0  0  0  0
 25 26  1  0  0  0  0
 26 27  1  0  0  0  0
 27 28  1  0  0  0  0
 28 30  1  0  0  0  0
 30 29  2  0  0  0  0
 30 31  1  0  0  0  0
 33 32  1  1  0  0  0
 34 33  1  0  0  0  0
 35 31  1  6  0  0  0
 35 34  1  0  0  0  0
 35 33  1  0  0  0  0
M  END
>  <MODEL>
3

>  <REMARK>
 VINA RESULT:      -6.5      1.756      2.228
  Name = 
  11 active torsions:
  status: ('A' for Active; 'I' for Inactive)
    1  A    between atoms: C_1  and  C_20
    2  A    between atoms: C_1  and  C_25
    3  A    between atoms: C_4  and  C_26
    4  A    between atoms: C_9  and  O_14
    5  A    between atoms: N_11  and  C_20
    6  A    between atoms: N_11  and  C_33
    7  A    between atoms: O_14  and  C_23
    8  A    between atoms: C_16  and  O_29
    9  A    between atoms: C_21  and  N_30
   10  A    between atoms: C_25  and  O_29
   11  A    between atoms: N_30  and  C_33
                            x       y       z     vdW  Elec       q    Type
                         _______ _______ _______ _____ _____    ______ ____

>  <TORSDO>
F 11

$$$$
=
 OpenBabel11042410323D

 35 38  0  0  1  0  0  0  0  0999 V2000
  182.0850  179.4180  141.3530 O   0  0  0  0  0  0  0  0  0  0  0  0
  181.5860  179.3140  142.6830 C   0  0  0  0  0  2  0  0  0  0  0  0
  182.5350  178.5880  143.5200 N   0  0  0  0  0  2  0  0  0  0  0  0
  184.1920  177.9040  138.9200 C   0  0  0  0  0  0  0  0  0  0  0  0
  182.3980  178.2810  140.6020 C   0  0  0  0  0  0  0  0  0  0  0  0
  184.2600  179.9880  144.2170 O   0  0  0  0  0  0  0  0  0  0  0  0
  183.5950  177.0440  138.0830 C   0  0  0  0  0  3  0  0  0  0  0  0
  184.8970  178.2230  142.7190 C   0  0  1  0  0  3  0  0  0  0  0  0
  181.5900  176.2820  139.3300 C   0  0  0  0  0  0  0  0  0  0  0  0
  181.4130  177.5030  140.1510 C   0  0  0  0  0  3  0  0  0  0  0  0
  183.9090  178.9690  143.5650 C   0  0  0  0  0  0  0  0  0  0  0  0
  182.5310  176.1430  138.4350 N   0  0  0  0  0  0  0  0  0  0  0  0
  185.2820  179.7200  140.9320 O   0  0  0  0  0  0  0  0  0  0  0  0
  183.8320  177.9080  140.3800 C   0  0  2  0  0  3  0  0  0  0  0  0
  184.7700  178.6670  141.2900 C   0  0  0  0  0  0  0  0  0  0  0  0
  180.5740  175.2230  139.4340 C   0  0  0  0  0  0  0  0  0  0  0  0
  180.0360  174.8400  140.5650 O   0  0  0  0  0  0  0  0  0  0  0  0
  179.1420  173.6300  138.9650 C   0  0  0  0  0  3  0  0  0  0  0  0
  179.1710  173.8830  140.3260 C   0  0  0  0  0  3  0  0  0  0  0  0
  180.0510  174.4960  138.3830 C   0  0  0  0  0  3  0  0  0  0  0  0
  186.2040  178.4020  143.1850 O   0  0  0  0  0  0  0  0  0  0  0  0
  186.4950  177.2300  143.8870 C   0  0  0  0  0  2  0  0  0  0  0  0
  186.8910  177.5780  145.3060 C   0  0  0  0  0  1  0  0  0  0  0  0
  185.1700  178.7880  138.4430 O   0  0  0  0  0  0  0  0  0  0  0  0
  186.2440  178.3860  137.6040 C   0  0  0  0  0  2  0  0  0  0  0  0
  187.4000  177.9060  138.4590 C   0  0  0  0  0  2  0  0  0  0  0  0
  188.7090  178.4890  137.9500 C   0  0  0  0  0  2  0  0  0  0  0  0
  189.8020  178.1680  138.8600 N   0  0  0  0  0  2  0  0  0  0  0  0
  190.5400  175.7570  137.9540 S   0  0  0  0  0  0  0  0  0  0  0  0
  190.2470  176.8360  139.1510 C   0  0  0  0  0  0  0  0  0  0  0  0
  190.4740  176.4400  140.5040 N   0  0  0  0  0  2  0  0  0  0  0  0
  189.9760  178.2770  143.5530 O   0  0  0  0  0  1  0  0  0  0  0  0
  190.5980  177.3210  142.7520 C   0  0  1  0  0  3  0  0  0  0  0  0
  189.7930  176.0410  142.7920 C   0  0  0  0  0  2  0  0  0  0  0  0
  189.6780  176.9680  141.5990 C   0  0  2  0  0  3  0  0  0  0  0  0
  1  2  1  0  0  0  0
  2  3  1  0  0  0  0
  3 11  1  0  0  0  0
  5  1  1  0  0  0  0
  7 12  1  0  0  0  0
  7  4  2  0  0  0  0
  8 21  1  1  0  0  0
  8 11  1  0  0  0  0
  9 16  1  0  0  0  0
  9 10  1  0  0  0  0
 10  5  2  0  0  0  0
 11  6  2  0  0  0  0
 12  9  2  0  0  0  0
 13 15  2  0  0  0  0
 14  4  1  6  0  0  0
 14  5  1  0  0  0  0
 14 15  1  0  0  0  0
 15  8  1  0  0  0  0
 16 17  1  0  0  0  0
 18 19  2  0  0  0  0
 19 17  1  0  0  0  0
 20 18  1  0  0  0  0
 20 16  2  0  0  0  0
 21 22  1  0  0  0  0
 22 23  1  0  0  0  0
 24  4  1  0  0  0  0
 25 24  1  0  0  0  0
 25 26  1  0  0  0  0
 27 26  1  0  0  0  0
 27 28  1  0  0  0  0
 28 30  1  0  0  0  0
 29 30  2  0  0  0  0
 30 31  1  0  0  0  0
 33 34  1  0  0  0  0
 33 32  1  1  0  0  0
 35 31  1  6  0  0  0
 35 33  1  0  0  0  0
 35 34  1  0  0  0  0
M  END
>  <MODEL>
4

>  <REMARK>
 VINA RESULT:      -6.4      3.715      8.873
  Name = 
  11 active torsions:
  status: ('A' for Active; 'I' for Inactive)
    1  A    between atoms: C_1  and  C_20
    2  A    between atoms: C_1  and  C_25
    3  A    between atoms: C_4  and  C_26
    4  A    between atoms: C_9  and  O_14
    5  A    between atoms: N_11  and  C_20
    6  A    between atoms: N_11  and  C_33
    7  A    between atoms: O_14  and  C_23
    8  A    between atoms: C_16  and  O_29
    9  A    between atoms: C_21  and  N_30
   10  A    between atoms: C_25  and  O_29
   11  A    between atoms: N_30  and  C_33
                            x       y       z     vdW  Elec       q    Type
                         _______ _______ _______ _____ _____    ______ ____

>  <TORSDO>
F 11

$$$$
=
 OpenBabel11042410323D

 35 38  0  0  1  0  0  0  0  0999 V2000
  182.5010  178.1890  137.5310 O   0  0  0  0  0  0  0  0  0  0  0  0
  181.2550  178.0140  138.2020 C   0  0  0  0  0  2  0  0  0  0  0  0
  181.4760  177.8440  139.6340 N   0  0  0  0  0  2  0  0  0  0  0  0
  185.9830  177.4780  137.6520 C   0  0  0  0  0  0  0  0  0  0  0  0
  183.5090  177.2240  137.6050 C   0  0  0  0  0  0  0  0  0  0  0  0
  181.8080  179.9020  140.6690 O   0  0  0  0  0  0  0  0  0  0  0  0
  186.3760  176.3690  137.0100 C   0  0  0  0  0  3  0  0  0  0  0  0
  183.7090  178.4350  140.6430 C   0  0  1  0  0  3  0  0  0  0  0  0
  184.3370  174.9570  136.9420 C   0  0  0  0  0  0  0  0  0  0  0  0
  183.3510  176.0620  136.9700 C   0  0  0  0  0  3  0  0  0  0  0  0
  182.2750  178.7720  140.3660 C   0  0  0  0  0  0  0  0  0  0  0  0
  185.6300  175.1420  136.9360 N   0  0  0  0  0  0  0  0  0  0  0  0
  184.8670  179.7710  139.0760 O   0  0  0  0  0  0  0  0  0  0  0  0
  184.7150  177.4720  138.4590 C   0  0  2  0  0  3  0  0  0  0  0  0
  184.5230  178.6410  139.3970 C   0  0  0  0  0  0  0  0  0  0  0  0
  183.8360  173.5830  136.7790 C   0  0  0  0  0  0  0  0  0  0  0  0
  182.7280  173.2840  136.1480 O   0  0  0  0  0  0  0  0  0  0  0  0
  183.6110  171.4040  136.8610 C   0  0  0  0  0  3  0  0  0  0  0  0
  182.5560  171.9840  136.1760 C   0  0  0  0  0  3  0  0  0  0  0  0
  184.4430  172.4370  137.2530 C   0  0  0  0  0  3  0  0  0  0  0  0
  184.2150  179.1940  141.7040 O   0  0  0  0  0  0  0  0  0  0  0  0
  184.1460  178.3470  142.8120 C   0  0  0  0  0  2  0  0  0  0  0  0
  184.8630  178.9870  143.9820 C   0  0  0  0  0  1  0  0  0  0  0  0
  186.7630  178.6410  137.5920 O   0  0  0  0  0  0  0  0  0  0  0  0
  188.1150  178.6540  137.1520 C   0  0  0  0  0  2  0  0  0  0  0  0
  189.0230  178.9730  138.3240 C   0  0  0  0  0  2  0  0  0  0  0  0
  189.2340  177.7320  139.1770 C   0  0  0  0  0  2  0  0  0  0  0  0
  188.5600  177.8730  140.4630 N   0  0  0  0  0  2  0  0  0  0  0  0
  190.5240  176.6090  141.7780 S   0  0  0  0  0  0  0  0  0  0  0  0
  189.0710  177.3630  141.7020 C   0  0  0  0  0  0  0  0  0  0  0  0
  188.3240  177.5390  142.9070 N   0  0  0  0  0  2  0  0  0  0  0  0
  188.1430  177.0270  146.4600 O   0  0  0  0  0  1  0  0  0  0  0  0
  188.1290  177.8030  145.3030 C   0  0  1  0  0  3  0  0  0  0  0  0
  189.5520  178.1300  144.9070 C   0  0  0  0  0  2  0  0  0  0  0  0
  188.8010  177.0320  144.1830 C   0  0  2  0  0  3  0  0  0  0  0  0
  1  5  1  0  0  0  0
  1  2  1  0  0  0  0
  2  3  1  0  0  0  0
  3 11  1  0  0  0  0
  4 14  1  0  0  0  0
  7  4  2  0  0  0  0
  8 21  1  1  0  0  0
  9 10  1  0  0  0  0
 10  5  2  0  0  0  0
 11  8  1  0  0  0  0
 11  6  2  0  0  0  0
 12  9  2  0  0  0  0
 12  7  1  0  0  0  0
 13 15  2  0  0  0  0
 14  5  1  6  0  0  0
 14 15  1  0  0  0  0
 15  8  1  0  0  0  0
 16  9  1  0  0  0  0
 16 20  2  0  0  0  0
 17 19  1  0  0  0  0
 17 16  1  0  0  0  0
 18 20  1  0  0  0  0
 19 18  2  0  0  0  0
 21 22  1  0  0  0  0
 22 23  1  0  0  0  0
 24  4  1  0  0  0  0
 25 24  1  0  0  0  0
 25 26  1  0  0  0  0
 26 27  1  0  0  0  0
 27 28  1  0  0  0  0
 28 30  1  0  0  0  0
 30 29  2  0  0  0  0
 30 31  1  0  0  0  0
 33 32  1  1  0  0  0
 34 33  1  0  0  0  0
 35 31  1  6  0  0  0
 35 34  1  0  0  0  0
 35 33  1  0  0  0  0
M  END
>  <MODEL>
5

>  <REMARK>
 VINA RESULT:      -6.0      3.678      8.130
  Name = 
  11 active torsions:
  status: ('A' for Active; 'I' for Inactive)
    1  A    between atoms: C_1  and  C_20
    2  A    between atoms: C_1  and  C_25
    3  A    between atoms: C_4  and  C_26
    4  A    between atoms: C_9  and  O_14
    5  A    between atoms: N_11  and  C_20
    6  A    between atoms: N_11  and  C_33
    7  A    between atoms: O_14  and  C_23
    8  A    between atoms: C_16  and  O_29
    9  A    between atoms: C_21  and  N_30
   10  A    between atoms: C_25  and  O_29
   11  A    between atoms: N_30  and  C_33
                            x       y       z     vdW  Elec       q    Type
                         _______ _______ _______ _____ _____    ______ ____

>  <TORSDO>
F 11

$$$$
=
 OpenBabel11042410323D

 35 38  0  0  1  0  0  0  0  0999 V2000
  188.9580  178.8680  138.9220 O   0  0  0  0  0  0  0  0  0  0  0  0
  190.0560  178.0010  138.6520 C   0  0  0  0  0  2  0  0  0  0  0  0
  189.5700  176.6850  138.2540 N   0  0  0  0  0  2  0  0  0  0  0  0
  185.5570  179.0030  139.9540 C   0  0  0  0  0  0  0  0  0  0  0  0
  188.0030  178.5520  139.8920 C   0  0  0  0  0  0  0  0  0  0  0  0
  188.9430  176.6790  136.0120 O   0  0  0  0  0  0  0  0  0  0  0  0
  185.3520  179.1710  141.2680 C   0  0  0  0  0  3  0  0  0  0  0  0
  187.1570  176.3800  137.5900 C   0  0  1  0  0  3  0  0  0  0  0  0
  187.4310  178.3190  142.3180 C   0  0  0  0  0  0  0  0  0  0  0  0
  188.3380  178.6060  141.1820 C   0  0  0  0  0  3  0  0  0  0  0  0
  188.6000  176.5460  137.2170 C   0  0  0  0  0  0  0  0  0  0  0  0
  186.1570  178.6040  142.3160 N   0  0  0  0  0  0  0  0  0  0  0  0
  186.2620  178.5240  137.1610 O   0  0  0  0  0  0  0  0  0  0  0  0
  186.6430  178.0820  139.4730 C   0  0  2  0  0  3  0  0  0  0  0  0
  186.5910  177.7070  138.0100 C   0  0  0  0  0  0  0  0  0  0  0  0
  188.0220  177.8070  143.5650 C   0  0  0  0  0  0  0  0  0  0  0  0
  189.2840  177.4810  143.6910 O   0  0  0  0  0  0  0  0  0  0  0  0
  188.3110  177.1190  145.6260 C   0  0  0  0  0  3  0  0  0  0  0  0
  189.4980  177.0610  144.9150 C   0  0  0  0  0  3  0  0  0  0  0  0
  187.3510  177.6020  144.7550 C   0  0  0  0  0  3  0  0  0  0  0  0
  186.4180  175.8310  136.5370 O   0  0  0  0  0  0  0  0  0  0  0  0
  185.6170  174.8570  137.1340 C   0  0  0  0  0  2  0  0  0  0  0  0
  186.3860  173.5550  137.2200 C   0  0  0  0  0  1  0  0  0  0  0  0
  184.7480  179.6690  139.0240 O   0  0  0  0  0  0  0  0  0  0  0  0
  183.3500  179.8600  139.1980 C   0  0  0  0  0  2  0  0  0  0  0  0
  182.5940  178.8460  138.3630 C   0  0  0  0  0  2  0  0  0  0  0  0
  181.0950  179.0490  138.5180 C   0  0  0  0  0  2  0  0  0  0  0  0
  180.6610  180.2390  137.7970 N   0  0  0  0  0  2  0  0  0  0  0  0
  179.2890  181.5540  139.6870 S   0  0  0  0  0  0  0  0  0  0  0  0
  180.3290  181.4870  138.4220 C   0  0  0  0  0  0  0  0  0  0  0  0
  180.9350  182.6970  137.9660 N   0  0  0  0  0  2  0  0  0  0  0  0
  180.4400  184.6220  134.9710 O   0  0  0  0  0  1  0  0  0  0  0  0
  181.1750  184.1730  136.0670 C   0  0  1  0  0  3  0  0  0  0  0  0
  180.8290  185.0140  137.2750 C   0  0  0  0  0  2  0  0  0  0  0  0
  180.2220  183.6350  137.1160 C   0  0  2  0  0  3  0  0  0  0  0  0
  1  5  1  0  0  0  0
  2  1  1  0  0  0  0
  3  2  1  0  0  0  0
  4  7  2  0  0  0  0
  5 10  2  0  0  0  0
  6 11  2  0  0  0  0
  7 12  1  0  0  0  0
  8 21  1  6  0  0  0
  8 15  1  0  0  0  0
  9 16  1  0  0  0  0
 10  9  1  0  0  0  0
 11  8  1  0  0  0  0
 11  3  1  0  0  0  0
 12  9  2  0  0  0  0
 13 15  2  0  0  0  0
 14 15  1  6  0  0  0
 14  5  1  0  0  0  0
 14  4  1  0  0  0  0
 16 17  1  0  0  0  0
 16 20  2  0  0  0  0
 17 19  1  0  0  0  0
 19 18  2  0  0  0  0
 20 18  1  0  0  0  0
 21 22  1  0  0  0  0
 22 23  1  0  0  0  0
 24 25  1  0  0  0  0
 24  4  1  0  0  0  0
 26 27  1  0  0  0  0
 26 25  1  0  0  0  0
 28 30  1  0  0  0  0
 28 27  1  0  0  0  0
 30 29  2  0  0  0  0
 31 30  1  0  0  0  0
 33 32  1  6  0  0  0
 33 35  1  0  0  0  0
 33 34  1  0  0  0  0
 35 34  1  0  0  0  0
 35 31  1  1  0  0  0
M  END
>  <MODEL>
6

>  <REMARK>
 VINA RESULT:      -5.9      3.811      5.096
  Name = 
  11 active torsions:
  status: ('A' for Active; 'I' for Inactive)
    1  A    between atoms: C_1  and  C_20
    2  A    between atoms: C_1  and  C_25
    3  A    between atoms: C_4  and  C_26
    4  A    between atoms: C_9  and  O_14
    5  A    between atoms: N_11  and  C_20
    6  A    between atoms: N_11  and  C_33
    7  A    between atoms: O_14  and  C_23
    8  A    between atoms: C_16  and  O_29
    9  A    between atoms: C_21  and  N_30
   10  A    between atoms: C_25  and  O_29
   11  A    between atoms: N_30  and  C_33
                            x       y       z     vdW  Elec       q    Type
                         _______ _______ _______ _____ _____    ______ ____

>  <TORSDO>
F 11

$$$$
=
 OpenBabel11042410323D

 35 38  0  0  1  0  0  0  0  0999 V2000
  191.6550  176.8060  137.9600 O   0  0  0  0  0  0  0  0  0  0  0  0
  192.6320  175.7710  138.0240 C   0  0  0  0  0  2  0  0  0  0  0  0
  191.9850  174.4660  137.9600 N   0  0  0  0  0  2  0  0  0  0  0  0
  188.2650  177.6390  138.6410 C   0  0  0  0  0  0  0  0  0  0  0  0
  190.6240  176.8930  138.9000 C   0  0  0  0  0  0  0  0  0  0  0  0
  191.4610  173.9110  135.7600 O   0  0  0  0  0  0  0  0  0  0  0  0
  188.0280  178.1900  139.8390 C   0  0  0  0  0  3  0  0  0  0  0  0
  189.5850  174.2850  137.2110 C   0  0  1  0  0  3  0  0  0  0  0  0
  189.9200  177.4180  141.2440 C   0  0  0  0  0  0  0  0  0  0  0  0
  190.9070  177.2630  140.1500 C   0  0  0  0  0  3  0  0  0  0  0  0
  191.0510  174.1630  136.9250 C   0  0  0  0  0  0  0  0  0  0  0  0
  188.6990  177.8440  141.0630 N   0  0  0  0  0  0  0  0  0  0  0  0
  189.0170  176.3170  136.1470 O   0  0  0  0  0  0  0  0  0  0  0  0
  189.2320  176.4940  138.5160 C   0  0  2  0  0  3  0  0  0  0  0  0
  189.1920  175.7350  137.2090 C   0  0  0  0  0  0  0  0  0  0  0  0
  190.3790  177.2060  142.6270 C   0  0  0  0  0  0  0  0  0  0  0  0
  189.5840  176.8810  143.6150 O   0  0  0  0  0  0  0  0  0  0  0  0
  191.6180  177.0300  144.4260 C   0  0  0  0  0  3  0  0  0  0  0  0
  190.2900  176.7660  144.7140 C   0  0  0  0  0  3  0  0  0  0  0  0
  191.6810  177.3160  143.0740 C   0  0  0  0  0  3  0  0  0  0  0  0
  188.8230  173.5590  136.2900 O   0  0  0  0  0  0  0  0  0  0  0  0
  187.7070  173.1300  137.0110 C   0  0  0  0  0  2  0  0  0  0  0  0
  186.4460  173.5580  136.2900 C   0  0  0  0  0  1  0  0  0  0  0  0
  187.5980  178.1120  137.5020 O   0  0  0  0  0  0  0  0  0  0  0  0
  186.2290  178.4980  137.5020 C   0  0  0  0  0  2  0  0  0  0  0  0
  185.3570  177.2590  137.4770 C   0  0  0  0  0  2  0  0  0  0  0  0
  184.0060  177.5540  138.1100 C   0  0  0  0  0  2  0  0  0  0  0  0
  184.1070  178.6800  139.0310 N   0  0  0  0  0  2  0  0  0  0  0  0
  184.9630  179.0090  141.5490 S   0  0  0  0  0  0  0  0  0  0  0  0
  183.8320  178.6000  140.4370 C   0  0  0  0  0  0  0  0  0  0  0  0
  182.5410  178.1900  140.8890 N   0  0  0  0  0  2  0  0  0  0  0  0
  180.0680  180.5040  142.0940 O   0  0  0  0  0  1  0  0  0  0  0  0
  180.8020  179.3210  142.1330 C   0  0  1  0  0  3  0  0  0  0  0  0
  180.1470  178.2990  141.2300 C   0  0  0  0  0  2  0  0  0  0  0  0
  181.3760  179.0480  140.7560 C   0  0  2  0  0  3  0  0  0  0  0  0
  1  2  1  0  0  0  0
  1  5  1  0  0  0  0
  3  2  1  0  0  0  0
  4  7  2  0  0  0  0
  5 10  2  0  0  0  0
  6 11  2  0  0  0  0
  7 12  1  0  0  0  0
  8 21  1  6  0  0  0
  9 16  1  0  0  0  0
 10  9  1  0  0  0  0
 11  8  1  0  0  0  0
 11  3  1  0  0  0  0
 12  9  2  0  0  0  0
 13 15  2  0  0  0  0
 14 15  1  6  0  0  0
 14  4  1  0  0  0  0
 14  5  1  0  0  0  0
 15  8  1  0  0  0  0
 16 20  2  0  0  0  0
 16 17  1  0  0  0  0
 17 19  1  0  0  0  0
 18 19  2  0  0  0  0
 20 18  1  0  0  0  0
 21 22  1  0  0  0  0
 23 22  1  0  0  0  0
 24 25  1  0  0  0  0
 24  4  1  0  0  0  0
 26 25  1  0  0  0  0
 26 27  1  0  0  0  0
 27 28  1  0  0  0  0
 28 30  1  0  0  0  0
 30 31  1  0  0  0  0
 30 29  2  0  0  0  0
 33 32  1  6  0  0  0
 34 33  1  0  0  0  0
 35 31  1  1  0  0  0
 35 34  1  0  0  0  0
 35 33  1  0  0  0  0
M  END
>  <MODEL>
7

>  <REMARK>
 VINA RESULT:      -5.8      1.834      1.997
  Name = 
  11 active torsions:
  status: ('A' for Active; 'I' for Inactive)
    1  A    between atoms: C_1  and  C_20
    2  A    between atoms: C_1  and  C_25
    3  A    between atoms: C_4  and  C_26
    4  A    between atoms: C_9  and  O_14
    5  A    between atoms: N_11  and  C_20
    6  A    between atoms: N_11  and  C_33
    7  A    between atoms: O_14  and  C_23
    8  A    between atoms: C_16  and  O_29
    9  A    between atoms: C_21  and  N_30
   10  A    between atoms: C_25  and  O_29
   11  A    between atoms: N_30  and  C_33
                            x       y       z     vdW  Elec       q    Type
                         _______ _______ _______ _____ _____    ______ ____

>  <TORSDO>
F 11

$$$$
=
 OpenBabel11042410323D

 35 38  0  0  1  0  0  0  0  0999 V2000
  185.4750  179.8250  142.2390 O   0  0  0  0  0  0  0  0  0  0  0  0
  184.6780  179.5370  143.3850 C   0  0  0  0  0  2  0  0  0  0  0  0
  185.0660  178.2520  143.9540 N   0  0  0  0  0  2  0  0  0  0  0  0
  187.3680  178.3950  139.5890 C   0  0  0  0  0  0  0  0  0  0  0  0
  185.5060  178.9640  141.1390 C   0  0  0  0  0  0  0  0  0  0  0  0
  186.9750  178.4720  145.2680 O   0  0  0  0  0  0  0  0  0  0  0  0
  186.7050  178.1880  138.4430 C   0  0  0  0  0  3  0  0  0  0  0  0
  187.2370  177.1720  143.2660 C   0  0  1  0  0  3  0  0  0  0  0  0
  184.3310  178.0200  139.1410 C   0  0  0  0  0  0  0  0  0  0  0  0
  184.4370  178.8720  140.3480 C   0  0  0  0  0  3  0  0  0  0  0  0
  186.4320  177.9650  144.2510 C   0  0  0  0  0  0  0  0  0  0  0  0
  185.3310  177.7750  138.3390 N   0  0  0  0  0  0  0  0  0  0  0  0
  188.5570  178.8310  142.2220 O   0  0  0  0  0  0  0  0  0  0  0  0
  186.7070  178.0970  140.9060 C   0  0  2  0  0  3  0  0  0  0  0  0
  187.6210  178.0500  142.1090 C   0  0  0  0  0  0  0  0  0  0  0  0
  182.9980  177.5310  138.7510 C   0  0  0  0  0  0  0  0  0  0  0  0
  182.6050  177.4040  137.5090 O   0  0  0  0  0  0  0  0  0  0  0  0
  180.9440  176.7660  138.7950 C   0  0  0  0  0  3  0  0  0  0  0  0
  181.3750  176.9480  137.4920 C   0  0  0  0  0  3  0  0  0  0  0  0
  181.9930  177.1430  139.6150 C   0  0  0  0  0  3  0  0  0  0  0  0
  188.3700  176.6120  143.8680 O   0  0  0  0  0  0  0  0  0  0  0  0
  189.0140  175.9220  142.8390 C   0  0  0  0  0  2  0  0  0  0  0  0
  190.4860  175.7870  143.1670 C   0  0  0  0  0  1  0  0  0  0  0  0
  188.6870  178.8690  139.5650 O   0  0  0  0  0  0  0  0  0  0  0  0
  189.7250  178.2550  138.8130 C   0  0  0  0  0  2  0  0  0  0  0  0
  190.4330  177.2290  139.6750 C   0  0  0  0  0  2  0  0  0  0  0  0
  191.5050  176.5140  138.8680 C   0  0  0  0  0  2  0  0  0  0  0  0
  190.9970  175.2520  138.3440 N   0  0  0  0  0  2  0  0  0  0  0  0
  192.3410  174.6250  136.1120 S   0  0  0  0  0  0  0  0  0  0  0  0
  190.9630  174.9110  136.9510 C   0  0  0  0  0  0  0  0  0  0  0  0
  189.7100  174.7820  136.2780 N   0  0  0  0  0  2  0  0  0  0  0  0
  186.2440  174.6190  137.2170 O   0  0  0  0  0  1  0  0  0  0  0  0
  187.3090  174.5000  136.3260 C   0  0  1  0  0  3  0  0  0  0  0  0
  187.6120  175.8560  135.7290 C   0  0  0  0  0  2  0  0  0  0  0  0
  188.4810  175.3110  136.8440 C   0  0  2  0  0  3  0  0  0  0  0  0
  1  2  1  0  0  0  0
  2  3  1  0  0  0  0
  3 11  1  0  0  0  0
  5  1  1  0  0  0  0
  7  4  2  0  0  0  0
  8 21  1  1  0  0  0
  8 11  1  0  0  0  0
  9 10  1  0  0  0  0
 10  5  2  0  0  0  0
 11  6  2  0  0  0  0
 12  7  1  0  0  0  0
 12  9  2  0  0  0  0
 14  4  1  6  0  0  0
 14  5  1  0  0  0  0
 14 15  1  0  0  0  0
 15 13  2  0  0  0  0
 15  8  1  0  0  0  0
 16  9  1  0  0  0  0
 16 20  2  0  0  0  0
 17 16  1  0  0  0  0
 18 20  1  0  0  0  0
 19 17  1  0  0  0  0
 19 18  2  0  0  0  0
 22 23  1  0  0  0  0
 22 21  1  0  0  0  0
 24  4  1  0  0  0  0
 25 24  1  0  0  0  0
 25 26  1  0  0  0  0
 27 26  1  0  0  0  0
 28 27  1  0  0  0  0
 29 30  2  0  0  0  0
 30 28  1  0  0  0  0
 31 30  1  0  0  0  0
 33 35  1  0  0  0  0
 33 32  1  1  0  0  0
 34 33  1  0  0  0  0
 34 35  1  0  0  0  0
 35 31  1  6  0  0  0
M  END
>  <MODEL>
8

>  <REMARK>
 VINA RESULT:      -5.7      3.102      8.088
  Name = 
  11 active torsions:
  status: ('A' for Active; 'I' for Inactive)
    1  A    between atoms: C_1  and  C_20
    2  A    between atoms: C_1  and  C_25
    3  A    between atoms: C_4  and  C_26
    4  A    between atoms: C_9  and  O_14
    5  A    between atoms: N_11  and  C_20
    6  A    between atoms: N_11  and  C_33
    7  A    between atoms: O_14  and  C_23
    8  A    between atoms: C_16  and  O_29
    9  A    between atoms: C_21  and  N_30
   10  A    between atoms: C_25  and  O_29
   11  A    between atoms: N_30  and  C_33
                            x       y       z     vdW  Elec       q    Type
                         _______ _______ _______ _____ _____    ______ ____

>  <TORSDO>
F 11

$$$$
=
 OpenBabel11042410323D

 35 38  0  0  1  0  0  0  0  0999 V2000
  191.5080  176.9140  137.9980 O   0  0  0  0  0  0  0  0  0  0  0  0
  192.4650  175.8580  138.0050 C   0  0  0  0  0  2  0  0  0  0  0  0
  191.7900  174.5690  137.9100 N   0  0  0  0  0  2  0  0  0  0  0  0
  188.1510  177.7890  138.7800 C   0  0  0  0  0  0  0  0  0  0  0  0
  190.4990  176.9890  138.9620 C   0  0  0  0  0  0  0  0  0  0  0  0
  191.2080  174.1020  135.7040 O   0  0  0  0  0  0  0  0  0  0  0  0
  187.9500  178.3030  140.0020 C   0  0  0  0  0  3  0  0  0  0  0  0
  189.3710  174.4620  137.2080 C   0  0  1  0  0  3  0  0  0  0  0  0
  189.8560  177.4450  141.3380 C   0  0  0  0  0  0  0  0  0  0  0  0
  190.8160  177.3090  140.2170 C   0  0  0  0  0  3  0  0  0  0  0  0
  190.8280  174.3210  136.8860 C   0  0  0  0  0  0  0  0  0  0  0  0
  188.6400  177.9010  141.1980 N   0  0  0  0  0  0  0  0  0  0  0  0
  188.8230  176.5400  136.2270 O   0  0  0  0  0  0  0  0  0  0  0  0
  189.0910  176.6310  138.5950 C   0  0  2  0  0  3  0  0  0  0  0  0
  189.0080  175.9190  137.2650 C   0  0  0  0  0  0  0  0  0  0  0  0
  190.3390  177.1760  142.7020 C   0  0  0  0  0  0  0  0  0  0  0  0
  190.0900  177.9510  143.7280 O   0  0  0  0  0  0  0  0  0  0  0  0
  191.3090  176.2730  144.4490 C   0  0  0  0  0  3  0  0  0  0  0  0
  190.6560  177.4440  144.7970 C   0  0  0  0  0  3  0  0  0  0  0  0
  191.1060  176.0960  143.0910 C   0  0  0  0  0  3  0  0  0  0  0  0
  188.5750  173.7830  136.2790 O   0  0  0  0  0  0  0  0  0  0  0  0
  188.0950  172.6690  136.9700 C   0  0  0  0  0  2  0  0  0  0  0  0
  186.6060  172.8210  137.2000 C   0  0  0  0  0  1  0  0  0  0  0  0
  187.4690  178.3150  137.6740 O   0  0  0  0  0  0  0  0  0  0  0  0
  186.0520  178.3700  137.5830 C   0  0  0  0  0  2  0  0  0  0  0  0
  185.5350  177.0820  136.9730 C   0  0  0  0  0  2  0  0  0  0  0  0
  184.2020  176.7030  137.5970 C   0  0  0  0  0  2  0  0  0  0  0  0
  183.8850  177.5910  138.7090 N   0  0  0  0  0  2  0  0  0  0  0  0
  182.6240  178.3450  140.9500 S   0  0  0  0  0  0  0  0  0  0  0  0
  182.9660  177.2690  139.7630 C   0  0  0  0  0  0  0  0  0  0  0  0
  182.3050  176.0030  139.7710 N   0  0  0  0  0  2  0  0  0  0  0  0
  179.1640  174.3310  139.2660 O   0  0  0  0  0  1  0  0  0  0  0  0
  180.4120  174.8030  138.8650 C   0  0  1  0  0  3  0  0  0  0  0  0
  180.2880  176.2540  138.4570 C   0  0  0  0  0  2  0  0  0  0  0  0
  180.8570  175.8970  139.8150 C   0  0  2  0  0  3  0  0  0  0  0  0
  1  2  1  0  0  0  0
  1  5  1  0  0  0  0
  3  2  1  0  0  0  0
  4  7  2  0  0  0  0
  5 10  2  0  0  0  0
  6 11  2  0  0  0  0
  7 12  1  0  0  0  0
  8 21  1  6  0  0  0
  8 15  1  0  0  0  0
  9 16  1  0  0  0  0
 10  9  1  0  0  0  0
 11  8  1  0  0  0  0
 11  3  1  0  0  0  0
 12  9  2  0  0  0  0
 13 15  2  0  0  0  0
 14 15  1  6  0  0  0
 14  4  1  0  0  0  0
 14  5  1  0  0  0  0
 16 20  2  0  0  0  0
 16 17  1  0  0  0  0
 17 19  1  0  0  0  0
 18 19  2  0  0  0  0
 20 18  1  0  0  0  0
 21 22  1  0  0  0  0
 22 23  1  0  0  0  0
 24  4  1  0  0  0  0
 25 24  1  0  0  0  0
 26 25  1  0  0  0  0
 26 27  1  0  0  0  0
 27 28  1  0  0  0  0
 28 30  1  0  0  0  0
 30 31  1  0  0  0  0
 30 29  2  0  0  0  0
 33 32  1  1  0  0  0
 33 35  1  0  0  0  0
 34 33  1  0  0  0  0
 34 35  1  0  0  0  0
 35 31  1  6  0  0  0
M  END
>  <MODEL>
9

>  <REMARK>
 VINA RESULT:      -5.7      2.488      2.767
  Name = 
  11 active torsions:
  status: ('A' for Active; 'I' for Inactive)
    1  A    between atoms: C_1  and  C_20
    2  A    between atoms: C_1  and  C_25
    3  A    between atoms: C_4  and  C_26
    4  A    between atoms: C_9  and  O_14
    5  A    between atoms: N_11  and  C_20
    6  A    between atoms: N_11  and  C_33
    7  A    between atoms: O_14  and  C_23
    8  A    between atoms: C_16  and  O_29
    9  A    between atoms: C_21  and  N_30
   10  A    between atoms: C_25  and  O_29
   11  A    between atoms: N_30  and  C_33
                            x       y       z     vdW  Elec       q    Type
                         _______ _______ _______ _____ _____    ______ ____

>  <TORSDO>
F 11

$$$$
