=
 OpenBabel11042412333D

 41 44  0  0  1  0  0  0  0  0999 V2000
  183.3720  178.6510  141.9800 C   0  0  0  0  0  0  0  0  0  0  0  0
  186.5490  178.4820  141.9820 C   0  0  0  0  0  0  0  0  0  0  0  0
  186.1560  178.2840  143.3900 C   0  0  0  0  0  3  0  0  0  0  0  0
  184.2420  178.6610  140.9750 C   0  0  0  0  0  3  0  0  0  0  0  0
  185.7160  178.5700  140.9210 C   0  0  0  0  0  0  0  0  0  0  0  0
  184.9700  178.2860  143.9820 C   0  0  0  0  0  3  0  0  0  0  0  0
  183.7070  178.4910  143.3570 N   0  0  0  0  0  2  0  0  0  0  0  0
  188.7000  177.0720  142.1320 C   0  0  2  0  0  3  0  0  0  0  0  0
  188.8340  178.2670  143.0470 C   0  0  2  0  0  3  0  0  0  0  0  0
  188.0470  178.4120  141.7490 C   0  0  2  0  0  3  0  0  0  0  0  0
  187.8080  176.1670  142.7130 O   0  0  0  0  0  1  0  0  0  0  0  0
  190.2070  178.8830  142.8660 C   0  0  0  0  0  2  0  0  0  0  0  0
  190.9470  178.9230  144.1940 C   0  0  0  0  0  2  0  0  0  0  0  0
  192.0850  177.1080  143.1320 O   0  0  0  0  0  1  0  0  0  0  0  0
  191.8300  177.6940  144.3750 C   0  0  2  0  0  3  0  0  0  0  0  0
  191.1950  176.6730  145.3160 C   0  0  0  0  0  2  0  0  0  0  0  0
  191.3840  177.0560  146.7100 N   0  0  0  0  0  0  0  0  0  0  0  0
  192.3570  176.2570  147.2070 O   0  0  0  0  0  1  0  0  0  0  0  0
  190.1610  176.7150  147.4190 C   0  0  0  0  0  2  0  0  0  0  0  0
  189.1920  177.8890  147.4060 C   0  0  0  0  0  2  0  0  0  0  0  0
  186.7350  178.3170  147.2670 C   0  0  0  0  0  1  0  0  0  0  0  0
  187.8970  177.5310  146.6910 C   0  0  0  0  0  2  0  0  0  0  0  0
  181.9310  178.7700  141.6310 C   0  0  0  0  0  2  0  0  0  0  0  0
  181.1380  179.2340  142.8390 C   0  0  0  0  0  2  0  0  0  0  0  0
  180.4130  180.3770  142.5100 O   0  0  0  0  0  1  0  0  0  0  0  0
  186.3000  178.5780  139.6430 O   0  0  0  0  0  0  0  0  0  0  0  0
  185.6170  178.1990  138.4510 C   0  0  0  0  0  2  0  0  0  0  0  0
  186.5800  178.1630  137.2710 C   0  0  0  0  0  2  0  0  0  0  0  0
  187.0500  176.7430  136.9680 C   0  0  0  0  0  2  0  0  0  0  0  0
  188.2410  176.3580  137.8300 C   0  0  0  0  0  2  0  0  0  0  0  0
  189.4150  175.9590  136.9570 C   0  0  0  0  0  2  0  0  0  0  0  0
  189.7480  174.5010  137.1880 C   0  0  0  0  0  2  0  0  0  0  0  0
  191.0070  174.4030  137.7830 O   0  0  0  0  0  0  0  0  0  0  0  0
  192.5370  176.0890  138.1650 N   0  0  0  0  0  0  0  0  0  0  0  0
  193.1980  175.2280  137.0940 C   0  0  2  0  0  0  0  0  0  0  0  0
  193.8270  177.2490  139.8740 O   0  0  0  0  0  1  0  0  0  0  0  0
  191.5390  177.3850  139.8150 O   0  0  0  0  0  0  0  0  0  0  0  0
  191.7870  175.3800  137.1310 C   0  0  1  0  0  3  0  0  0  0  0  0
  193.8940  174.3020  137.9330 O   0  0  0  0  0  0  0  0  0  0  0  0
  192.5980  176.9300  139.3100 C   0  0  0  0  0  0  0  0  0  0  0  0
  193.2590  173.7240  136.8730 C   0  0  0  0  0  2  0  0  0  0  0  0
  1  7  1  0  0  0  0
  2  3  1  0  0  0  0
  3  6  2  0  0  0  0
  4  1  2  0  0  0  0
  5  4  1  0  0  0  0
  5  2  2  0  0  0  0
  7  6  1  0  0  0  0
  8 11  1  1  0  0  0
  8  9  1  0  0  0  0
  9 12  1  6  0  0  0
 10  2  1  1  0  0  0
 10  8  1  0  0  0  0
 10  9  1  0  0  0  0
 12 13  1  0  0  0  0
 13 15  1  0  0  0  0
 15 14  1  6  0  0  0
 15 16  1  0  0  0  0
 16 17  1  0  0  0  0
 17 18  1  0  0  0  0
 17 19  1  0  0  0  0
 20 19  1  0  0  0  0
 22 21  1  0  0  0  0
 22 20  1  0  0  0  0
 23  1  1  0  0  0  0
 23 24  1  0  0  0  0
 25 24  1  0  0  0  0
 26  5  1  0  0  0  0
 27 26  1  0  0  0  0
 28 27  1  0  0  0  0
 29 28  1  0  0  0  0
 29 30  1  0  0  0  0
 31 32  1  0  0  0  0
 31 30  1  0  0  0  0
 32 33  1  0  0  0  0
 34 40  1  0  0  0  0
 35 41  1  6  0  0  0
 35 38  1  0  0  0  0
 35 39  1  0  0  0  0
 35 34  1  0  0  0  0
 38 33  1  1  0  0  0
 38 34  1  0  0  0  0
 40 37  2  0  0  0  0
 40 36  1  0  0  0  0
 41 39  1  0  0  0  0
M  END
>  <MODEL>
1

>  <REMARK>
 VINA RESULT:      -6.8      0.000      0.000
  Name = 
  20 active torsions:
  status: ('A' for Active; 'I' for Inactive)
    1  A    between atoms: C_1  and  C_22
    2  A    between atoms: C_1  and  O_28
    3  A    between atoms: C_4  and  C_12
    4  A    between atoms: C_4  and  C_22
    5  A    between atoms: C_5  and  C_12
    6  A    between atoms: C_5  and  C_25
    7  A    between atoms: C_6  and  C_30
    8  A    between atoms: C_7  and  C_14
    9  A    between atoms: C_7  and  C_40
   10  A    between atoms: C_9  and  C_30
   11  A    between atoms: C_10  and  C_18
   12  A    between atoms: C_11  and  N_34
   13  A    between atoms: C_11  and  C_40
   14  A    between atoms: C_14  and  C_17
   15  A    between atoms: O_16  and  C_25
   16  A    between atoms: O_16  and  C_27
   17  A    between atoms: C_20  and  O_28
   18  A    between atoms: C_26  and  C_35
   19  A    between atoms: C_26  and  C_39
   20  A    between atoms: N_34  and  C_39
                            x       y       z     vdW  Elec       q    Type
                         _______ _______ _______ _____ _____    ______ ____

>  <TORSDO>
F 20

$$$$
=
 OpenBabel11042412333D

 41 44  0  0  1  0  0  0  0  0999 V2000
  188.6680  177.5580  146.0130 C   0  0  0  0  0  0  0  0  0  0  0  0
  185.7490  178.0030  144.8280 C   0  0  0  0  0  0  0  0  0  0  0  0
  185.6370  178.3520  146.2570 C   0  0  0  0  0  3  0  0  0  0  0  0
  188.2190  177.4900  144.7630 C   0  0  0  0  0  3  0  0  0  0  0  0
  186.8860  177.7010  144.1620 C   0  0  0  0  0  0  0  0  0  0  0  0
  186.5250  178.3250  147.2420 C   0  0  0  0  0  3  0  0  0  0  0  0
  187.8890  177.9290  147.1490 N   0  0  0  0  0  2  0  0  0  0  0  0
  184.1800  179.6010  143.5550 C   0  0  2  0  0  3  0  0  0  0  0  0
  183.4580  179.0740  144.7720 C   0  0  2  0  0  3  0  0  0  0  0  0
  184.4540  178.1720  144.0540 C   0  0  2  0  0  3  0  0  0  0  0  0
  185.1370  180.5280  143.9750 O   0  0  0  0  0  1  0  0  0  0  0  0
  182.0500  178.6680  144.3820 C   0  0  0  0  0  2  0  0  0  0  0  0
  181.7970  178.9840  142.9150 C   0  0  0  0  0  2  0  0  0  0  0  0
  179.6110  178.0390  143.1170 O   0  0  0  0  0  1  0  0  0  0  0  0
  180.3090  179.1470  142.6300 C   0  0  2  0  0  3  0  0  0  0  0  0
  180.0340  179.3270  141.1390 C   0  0  0  0  0  2  0  0  0  0  0  0
  180.1350  180.7290  140.7540 N   0  0  0  0  0  0  0  0  0  0  0  0
  179.3660  181.4300  141.6200 O   0  0  0  0  0  1  0  0  0  0  0  0
  179.5130  180.8610  139.4450 C   0  0  0  0  0  2  0  0  0  0  0  0
  179.7690  182.2470  138.8700 C   0  0  0  0  0  2  0  0  0  0  0  0
  180.7040  181.4510  136.6950 C   0  0  0  0  0  1  0  0  0  0  0  0
  180.9830  182.2510  137.9530 C   0  0  0  0  0  2  0  0  0  0  0  0
  190.1110  177.2680  146.2320 C   0  0  0  0  0  2  0  0  0  0  0  0
  190.8240  177.1410  144.8980 C   0  0  0  0  0  2  0  0  0  0  0  0
  191.8520  176.2060  145.0070 O   0  0  0  0  0  1  0  0  0  0  0  0
  186.7990  177.5740  142.7650 O   0  0  0  0  0  0  0  0  0  0  0  0
  187.4220  178.4640  141.8420 C   0  0  0  0  0  2  0  0  0  0  0  0
  188.5020  177.7400  141.0470 C   0  0  0  0  0  2  0  0  0  0  0  0
  188.5430  178.2070  139.5950 C   0  0  0  0  0  2  0  0  0  0  0  0
  189.1290  177.1380  138.6870 C   0  0  0  0  0  2  0  0  0  0  0  0
  188.4390  177.1600  137.3370 C   0  0  0  0  0  2  0  0  0  0  0  0
  187.5060  178.3500  137.2610 C   0  0  0  0  0  2  0  0  0  0  0  0
  186.3490  177.9870  136.5700 O   0  0  0  0  0  0  0  0  0  0  0  0
  184.5880  177.9240  138.0620 N   0  0  0  0  0  0  0  0  0  0  0  0
  184.3310  176.7370  137.1390 C   0  0  2  0  0  0  0  0  0  0  0  0
  182.7750  179.2160  139.0480 O   0  0  0  0  0  0  0  0  0  0  0  0
  184.9680  179.7470  139.4510 O   0  0  0  0  0  1  0  0  0  0  0  0
  185.6570  177.1340  137.4550 C   0  0  1  0  0  3  0  0  0  0  0  0
  183.5530  177.3880  136.1310 O   0  0  0  0  0  0  0  0  0  0  0  0
  184.1360  178.9960  138.8800 C   0  0  0  0  0  0  0  0  0  0  0  0
  184.5040  176.5400  135.6410 C   0  0  0  0  0  2  0  0  0  0  0  0
  1 23  1  0  0  0  0
  1  7  1  0  0  0  0
  2  3  1  0  0  0  0
  3  6  2  0  0  0  0
  4  1  2  0  0  0  0
  5  4  1  0  0  0  0
  5  2  2  0  0  0  0
  7  6  1  0  0  0  0
  8 11  1  1  0  0  0
  8 10  1  0  0  0  0
  8  9  1  0  0  0  0
  9 12  1  6  0  0  0
 10  9  1  0  0  0  0
 10  2  1  1  0  0  0
 13 12  1  0  0  0  0
 15 13  1  0  0  0  0
 15 14  1  6  0  0  0
 16 15  1  0  0  0  0
 17 16  1  0  0  0  0
 17 18  1  0  0  0  0
 19 17  1  0  0  0  0
 20 19  1  0  0  0  0
 21 22  1  0  0  0  0
 22 20  1  0  0  0  0
 24 25  1  0  0  0  0
 24 23  1  0  0  0  0
 26  5  1  0  0  0  0
 27 26  1  0  0  0  0
 28 27  1  0  0  0  0
 29 28  1  0  0  0  0
 30 29  1  0  0  0  0
 31 30  1  0  0  0  0
 32 31  1  0  0  0  0
 33 32  1  0  0  0  0
 34 40  1  0  0  0  0
 35 41  1  1  0  0  0
 35 38  1  0  0  0  0
 35 34  1  0  0  0  0
 38 33  1  6  0  0  0
 38 34  1  0  0  0  0
 39 35  1  0  0  0  0
 40 36  2  0  0  0  0
 40 37  1  0  0  0  0
 41 39  1  0  0  0  0
M  END
>  <MODEL>
2

>  <REMARK>
 VINA RESULT:      -6.8      3.179      8.622
  Name = 
  20 active torsions:
  status: ('A' for Active; 'I' for Inactive)
    1  A    between atoms: C_1  and  C_22
    2  A    between atoms: C_1  and  O_28
    3  A    between atoms: C_4  and  C_12
    4  A    between atoms: C_4  and  C_22
    5  A    between atoms: C_5  and  C_12
    6  A    between atoms: C_5  and  C_25
    7  A    between atoms: C_6  and  C_30
    8  A    between atoms: C_7  and  C_14
    9  A    between atoms: C_7  and  C_40
   10  A    between atoms: C_9  and  C_30
   11  A    between atoms: C_10  and  C_18
   12  A    between atoms: C_11  and  N_34
   13  A    between atoms: C_11  and  C_40
   14  A    between atoms: C_14  and  C_17
   15  A    between atoms: O_16  and  C_25
   16  A    between atoms: O_16  and  C_27
   17  A    between atoms: C_20  and  O_28
   18  A    between atoms: C_26  and  C_35
   19  A    between atoms: C_26  and  C_39
   20  A    between atoms: N_34  and  C_39
                            x       y       z     vdW  Elec       q    Type
                         _______ _______ _______ _____ _____    ______ ____

>  <TORSDO>
F 20

$$$$
=
 OpenBabel11042412333D

 41 44  0  0  1  0  0  0  0  0999 V2000
  188.8660  177.4390  145.9400 C   0  0  0  0  0  0  0  0  0  0  0  0
  185.9570  177.9500  144.7580 C   0  0  0  0  0  0  0  0  0  0  0  0
  185.8240  178.1820  146.2090 C   0  0  0  0  0  3  0  0  0  0  0  0
  188.4320  177.4670  144.6830 C   0  0  0  0  0  3  0  0  0  0  0  0
  187.1040  177.7130  144.0840 C   0  0  0  0  0  0  0  0  0  0  0  0
  186.7010  178.0840  147.1990 C   0  0  0  0  0  3  0  0  0  0  0  0
  188.0700  177.7100  147.0910 N   0  0  0  0  0  2  0  0  0  0  0  0
  184.3530  179.6370  143.6540 C   0  0  2  0  0  3  0  0  0  0  0  0
  183.6300  178.9440  144.7850 C   0  0  2  0  0  3  0  0  0  0  0  0
  184.6690  178.1680  143.9840 C   0  0  2  0  0  3  0  0  0  0  0  0
  185.2710  180.5380  144.2010 O   0  0  0  0  0  1  0  0  0  0  0  0
  182.2440  178.5420  144.3210 C   0  0  0  0  0  2  0  0  0  0  0  0
  182.0180  178.9890  142.8840 C   0  0  0  0  0  2  0  0  0  0  0  0
  179.8790  178.0310  143.3530 O   0  0  0  0  0  1  0  0  0  0  0  0
  180.5430  178.9230  142.5070 C   0  0  2  0  0  3  0  0  0  0  0  0
  180.3490  178.5080  141.0500 C   0  0  0  0  0  2  0  0  0  0  0  0
  181.4240  179.0230  140.2110 N   0  0  0  0  0  0  0  0  0  0  0  0
  180.9810  180.1840  139.6750 O   0  0  0  0  0  1  0  0  0  0  0  0
  181.5900  178.0920  139.1060 C   0  0  0  0  0  2  0  0  0  0  0  0
  183.0230  177.5790  139.0510 C   0  0  0  0  0  2  0  0  0  0  0  0
  184.9960  178.8450  139.9130 C   0  0  0  0  0  1  0  0  0  0  0  0
  183.8060  177.9850  140.2910 C   0  0  0  0  0  2  0  0  0  0  0  0
  190.3090  177.1450  146.1520 C   0  0  0  0  0  2  0  0  0  0  0  0
  191.0140  177.0070  144.8150 C   0  0  0  0  0  2  0  0  0  0  0  0
  191.7600  178.1560  144.5610 O   0  0  0  0  0  1  0  0  0  0  0  0
  187.0340  177.6980  142.6800 O   0  0  0  0  0  0  0  0  0  0  0  0
  187.9910  178.3210  141.8270 C   0  0  0  0  0  2  0  0  0  0  0  0
  188.7500  177.2740  141.0200 C   0  0  0  0  0  2  0  0  0  0  0  0
  190.2270  177.2320  141.3960 C   0  0  0  0  0  2  0  0  0  0  0  0
  191.1150  177.3760  140.1700 C   0  0  0  0  0  2  0  0  0  0  0  0
  190.7480  176.3340  139.1310 C   0  0  0  0  0  2  0  0  0  0  0  0
  191.5510  176.5700  137.8690 C   0  0  0  0  0  2  0  0  0  0  0  0
  190.7210  176.4160  136.7570 O   0  0  0  0  0  0  0  0  0  0  0  0
  188.6290  177.3320  137.0980 N   0  0  0  0  0  0  0  0  0  0  0  0
  188.3410  175.9960  136.4220 C   0  0  2  0  0  0  0  0  0  0  0  0
  187.2400  179.2980  136.7290 O   0  0  0  0  0  0  0  0  0  0  0  0
  189.0730  179.3790  138.1030 O   0  0  0  0  0  1  0  0  0  0  0  0
  189.4480  176.1390  137.2980 C   0  0  1  0  0  3  0  0  0  0  0  0
  188.3840  176.4100  135.0540 O   0  0  0  0  0  0  0  0  0  0  0  0
  188.3370  178.7030  137.3390 C   0  0  0  0  0  0  0  0  0  0  0  0
  189.0340  175.2360  135.3010 C   0  0  0  0  0  2  0  0  0  0  0  0
  1 23  1  0  0  0  0
  1  7  1  0  0  0  0
  2  3  1  0  0  0  0
  3  6  2  0  0  0  0
  4  1  2  0  0  0  0
  5  4  1  0  0  0  0
  5  2  2  0  0  0  0
  7  6  1  0  0  0  0
  8 10  1  0  0  0  0
  8 11  1  1  0  0  0
  8  9  1  0  0  0  0
  9 12  1  6  0  0  0
 10  2  1  1  0  0  0
 10  9  1  0  0  0  0
 13 12  1  0  0  0  0
 15 13  1  0  0  0  0
 15 14  1  1  0  0  0
 16 15  1  0  0  0  0
 17 16  1  0  0  0  0
 18 17  1  0  0  0  0
 19 17  1  0  0  0  0
 20 19  1  0  0  0  0
 20 22  1  0  0  0  0
 21 22  1  0  0  0  0
 24 23  1  0  0  0  0
 25 24  1  0  0  0  0
 26  5  1  0  0  0  0
 27 26  1  0  0  0  0
 28 29  1  0  0  0  0
 28 27  1  0  0  0  0
 30 29  1  0  0  0  0
 31 30  1  0  0  0  0
 32 31  1  0  0  0  0
 33 32  1  0  0  0  0
 34 38  1  0  0  0  0
 34 40  1  0  0  0  0
 35 41  1  1  0  0  0
 35 34  1  0  0  0  0
 35 38  1  0  0  0  0
 36 40  2  0  0  0  0
 38 33  1  6  0  0  0
 39 41  1  0  0  0  0
 39 35  1  0  0  0  0
 40 37  1  0  0  0  0
M  END
>  <MODEL>
3

>  <REMARK>
 VINA RESULT:      -6.8      2.205      7.327
  Name = 
  20 active torsions:
  status: ('A' for Active; 'I' for Inactive)
    1  A    between atoms: C_1  and  C_22
    2  A    between atoms: C_1  and  O_28
    3  A    between atoms: C_4  and  C_12
    4  A    between atoms: C_4  and  C_22
    5  A    between atoms: C_5  and  C_12
    6  A    between atoms: C_5  and  C_25
    7  A    between atoms: C_6  and  C_30
    8  A    between atoms: C_7  and  C_14
    9  A    between atoms: C_7  and  C_40
   10  A    between atoms: C_9  and  C_30
   11  A    between atoms: C_10  and  C_18
   12  A    between atoms: C_11  and  N_34
   13  A    between atoms: C_11  and  C_40
   14  A    between atoms: C_14  and  C_17
   15  A    between atoms: O_16  and  C_25
   16  A    between atoms: O_16  and  C_27
   17  A    between atoms: C_20  and  O_28
   18  A    between atoms: C_26  and  C_35
   19  A    between atoms: C_26  and  C_39
   20  A    between atoms: N_34  and  C_39
                            x       y       z     vdW  Elec       q    Type
                         _______ _______ _______ _____ _____    ______ ____

>  <TORSDO>
F 20

$$$$
=
 OpenBabel11042412333D

 41 44  0  0  1  0  0  0  0  0999 V2000
  188.4300  177.6220  146.6370 C   0  0  0  0  0  0  0  0  0  0  0  0
  185.6750  178.0630  145.1070 C   0  0  0  0  0  0  0  0  0  0  0  0
  185.4330  178.5540  146.4760 C   0  0  0  0  0  3  0  0  0  0  0  0
  188.1100  177.4490  145.3580 C   0  0  0  0  0  3  0  0  0  0  0  0
  186.8580  177.6530  144.5980 C   0  0  0  0  0  0  0  0  0  0  0  0
  186.2110  178.5890  147.5500 C   0  0  0  0  0  3  0  0  0  0  0  0
  187.5560  178.1330  147.6420 N   0  0  0  0  0  2  0  0  0  0  0  0
  184.3170  179.5940  143.5420 C   0  0  2  0  0  3  0  0  0  0  0  0
  183.4490  179.1990  144.7130 C   0  0  2  0  0  3  0  0  0  0  0  0
  184.4770  178.2060  144.1850 C   0  0  2  0  0  3  0  0  0  0  0  0
  185.2630  180.5230  143.9850 O   0  0  0  0  0  1  0  0  0  0  0  0
  182.0750  178.8070  144.2070 C   0  0  0  0  0  2  0  0  0  0  0  0
  182.0520  178.8090  142.6860 C   0  0  0  0  0  2  0  0  0  0  0  0
  180.3020  180.4290  142.8450 O   0  0  0  0  0  1  0  0  0  0  0  0
  180.7070  179.2870  142.1500 C   0  0  2  0  0  3  0  0  0  0  0  0
  179.6380  178.2020  142.2540 C   0  0  0  0  0  2  0  0  0  0  0  0
  179.1330  177.8370  140.9360 N   0  0  0  0  0  0  0  0  0  0  0  0
  178.9310  176.4990  140.9500 O   0  0  0  0  0  1  0  0  0  0  0  0
  180.2020  178.0870  139.9820 C   0  0  0  0  0  2  0  0  0  0  0  0
  180.7000  176.7780  139.3850 C   0  0  0  0  0  2  0  0  0  0  0  0
  182.6880  175.5170  138.5510 C   0  0  0  0  0  1  0  0  0  0  0  0
  182.1630  176.8730  138.9800 C   0  0  0  0  0  2  0  0  0  0  0  0
  189.8260  177.2980  147.0360 C   0  0  0  0  0  2  0  0  0  0  0  0
  190.6880  177.1040  145.8020 C   0  0  0  0  0  2  0  0  0  0  0  0
  191.9950  176.8130  146.1890 O   0  0  0  0  0  1  0  0  0  0  0  0
  186.9100  177.3930  143.2180 O   0  0  0  0  0  0  0  0  0  0  0  0
  188.0690  177.5930  142.4120 C   0  0  0  0  0  2  0  0  0  0  0  0
  187.7130  178.3670  141.1480 C   0  0  0  0  0  2  0  0  0  0  0  0
  188.8350  178.3110  140.1170 C   0  0  0  0  0  2  0  0  0  0  0  0
  188.2830  178.1970  138.7040 C   0  0  0  0  0  2  0  0  0  0  0  0
  188.9790  177.0750  137.9580 C   0  0  0  0  0  2  0  0  0  0  0  0
  189.7380  176.2050  138.9380 C   0  0  0  0  0  2  0  0  0  0  0  0
  190.7110  175.4770  138.2520 O   0  0  0  0  0  0  0  0  0  0  0  0
  192.6310  176.6920  138.6590 N   0  0  0  0  0  0  0  0  0  0  0  0
  192.8670  176.0810  137.2820 C   0  0  2  0  0  0  0  0  0  0  0  0
  194.4460  177.0660  140.2390 O   0  0  0  0  0  0  0  0  0  0  0  0
  192.2800  177.6010  140.7680 O   0  0  0  0  0  1  0  0  0  0  0  0
  191.5610  176.4530  137.6930 C   0  0  1  0  0  3  0  0  0  0  0  0
  193.4740  174.8460  137.6730 O   0  0  0  0  0  0  0  0  0  0  0  0
  193.0950  177.1400  139.9270 C   0  0  0  0  0  0  0  0  0  0  0  0
  192.5380  174.7200  136.6880 C   0  0  0  0  0  2  0  0  0  0  0  0
  1 23  1  0  0  0  0
  1  7  1  0  0  0  0
  2  3  1  0  0  0  0
  3  6  2  0  0  0  0
  4  1  2  0  0  0  0
  5  2  2  0  0  0  0
  5  4  1  0  0  0  0
  6  7  1  0  0  0  0
  8 11  1  1  0  0  0
  8 10  1  0  0  0  0
  8  9  1  0  0  0  0
  9 12  1  6  0  0  0
 10  9  1  0  0  0  0
 10  2  1  1  0  0  0
 13 12  1  0  0  0  0
 15 16  1  0  0  0  0
 15 13  1  0  0  0  0
 15 14  1  1  0  0  0
 17 18  1  0  0  0  0
 17 16  1  0  0  0  0
 19 17  1  0  0  0  0
 20 19  1  0  0  0  0
 21 22  1  0  0  0  0
 22 20  1  0  0  0  0
 24 25  1  0  0  0  0
 24 23  1  0  0  0  0
 26  5  1  0  0  0  0
 27 26  1  0  0  0  0
 28 27  1  0  0  0  0
 29 28  1  0  0  0  0
 30 29  1  0  0  0  0
 31 30  1  0  0  0  0
 31 32  1  0  0  0  0
 33 32  1  0  0  0  0
 34 40  1  0  0  0  0
 35 41  1  6  0  0  0
 35 39  1  0  0  0  0
 35 38  1  0  0  0  0
 35 34  1  0  0  0  0
 38 33  1  1  0  0  0
 38 34  1  0  0  0  0
 40 36  2  0  0  0  0
 40 37  1  0  0  0  0
 41 39  1  0  0  0  0
M  END
>  <MODEL>
4

>  <REMARK>
 VINA RESULT:      -6.7      2.103      7.308
  Name = 
  20 active torsions:
  status: ('A' for Active; 'I' for Inactive)
    1  A    between atoms: C_1  and  C_22
    2  A    between atoms: C_1  and  O_28
    3  A    between atoms: C_4  and  C_12
    4  A    between atoms: C_4  and  C_22
    5  A    between atoms: C_5  and  C_12
    6  A    between atoms: C_5  and  C_25
    7  A    between atoms: C_6  and  C_30
    8  A    between atoms: C_7  and  C_14
    9  A    between atoms: C_7  and  C_40
   10  A    between atoms: C_9  and  C_30
   11  A    between atoms: C_10  and  C_18
   12  A    between atoms: C_11  and  N_34
   13  A    between atoms: C_11  and  C_40
   14  A    between atoms: C_14  and  C_17
   15  A    between atoms: O_16  and  C_25
   16  A    between atoms: O_16  and  C_27
   17  A    between atoms: C_20  and  O_28
   18  A    between atoms: C_26  and  C_35
   19  A    between atoms: C_26  and  C_39
   20  A    between atoms: N_34  and  C_39
                            x       y       z     vdW  Elec       q    Type
                         _______ _______ _______ _____ _____    ______ ____

>  <TORSDO>
F 20

$$$$
=
 OpenBabel11042412333D

 41 44  0  0  1  0  0  0  0  0999 V2000
  189.8360  177.5200  147.1290 C   0  0  0  0  0  0  0  0  0  0  0  0
  190.2850  176.7640  144.0710 C   0  0  0  0  0  0  0  0  0  0  0  0
  191.4630  176.2220  144.7740 C   0  0  0  0  0  3  0  0  0  0  0  0
  189.0450  177.6750  146.0710 C   0  0  0  0  0  3  0  0  0  0  0  0
  189.1980  177.3290  144.6420 C   0  0  0  0  0  0  0  0  0  0  0  0
  191.8240  176.2660  146.0490 C   0  0  0  0  0  3  0  0  0  0  0  0
  191.1130  176.8850  147.1150 N   0  0  0  0  0  2  0  0  0  0  0  0
  191.3310  177.2790  141.7730 C   0  0  2  0  0  3  0  0  0  0  0  0
  189.8830  177.7110  141.7590 C   0  0  2  0  0  3  0  0  0  0  0  0
  190.2840  176.4890  142.5780 C   0  0  2  0  0  3  0  0  0  0  0  0
  192.0560  178.1880  142.5490 O   0  0  0  0  0  1  0  0  0  0  0  0
  189.2370  177.2510  140.4670 C   0  0  0  0  0  2  0  0  0  0  0  0
  188.7220  178.4470  139.6800 C   0  0  0  0  0  2  0  0  0  0  0  0
  188.6300  179.4580  137.5150 O   0  0  0  0  0  1  0  0  0  0  0  0
  189.2360  178.4320  138.2450 C   0  0  2  0  0  3  0  0  0  0  0  0
  188.9860  177.0870  137.5680 C   0  0  0  0  0  2  0  0  0  0  0  0
  189.3490  177.1360  136.1570 N   0  0  0  0  0  0  0  0  0  0  0  0
  188.2490  176.7740  135.4560 O   0  0  0  0  0  1  0  0  0  0  0  0
  190.3450  176.0990  135.9340 C   0  0  0  0  0  2  0  0  0  0  0  0
  190.7190  175.4270  137.2480 C   0  0  0  0  0  2  0  0  0  0  0  0
  192.6720  176.4960  138.3800 C   0  0  0  0  0  1  0  0  0  0  0  0
  192.2270  175.3890  137.4430 C   0  0  0  0  0  2  0  0  0  0  0  0
  189.3230  178.0090  148.4360 C   0  0  0  0  0  2  0  0  0  0  0  0
  187.8240  177.7850  148.5240 C   0  0  0  0  0  2  0  0  0  0  0  0
  187.1580  178.9740  148.2330 O   0  0  0  0  0  1  0  0  0  0  0  0
  188.1080  177.6190  143.8050 O   0  0  0  0  0  0  0  0  0  0  0  0
  186.7910  177.1100  144.0050 C   0  0  0  0  0  2  0  0  0  0  0  0
  185.9880  178.0440  144.9020 C   0  0  0  0  0  2  0  0  0  0  0  0
  184.9260  178.8070  144.1170 C   0  0  0  0  0  2  0  0  0  0  0  0
  183.6680  179.0160  144.9460 C   0  0  0  0  0  2  0  0  0  0  0  0
  182.4420  178.6050  144.1540 C   0  0  0  0  0  2  0  0  0  0  0  0
  182.4950  179.2290  142.7750 C   0  0  0  0  0  2  0  0  0  0  0  0
  182.1490  178.2710  141.8210 O   0  0  0  0  0  0  0  0  0  0  0  0
  183.3290  178.8440  139.9210 N   0  0  0  0  0  0  0  0  0  0  0  0
  182.0190  178.2790  139.3840 C   0  0  2  0  0  0  0  0  0  0  0  0
  185.4400  178.5700  138.7390 O   0  0  0  0  0  0  0  0  0  0  0  0
  185.3360  179.6800  140.7420 O   0  0  0  0  0  1  0  0  0  0  0  0
  182.0500  178.9900  140.6120 C   0  0  1  0  0  3  0  0  0  0  0  0
  182.3800  176.8990  139.2850 O   0  0  0  0  0  0  0  0  0  0  0  0
  184.7330  179.0550  139.8310 C   0  0  0  0  0  0  0  0  0  0  0  0
  181.1420  177.1140  139.8180 C   0  0  0  0  0  2  0  0  0  0  0  0
  1 23  1  0  0  0  0
  2  5  2  0  0  0  0
  2  3  1  0  0  0  0
  3  6  2  0  0  0  0
  4  1  2  0  0  0  0
  5  4  1  0  0  0  0
  6  7  1  0  0  0  0
  7  1  1  0  0  0  0
  8 11  1  1  0  0  0
  8 10  1  0  0  0  0
  9 12  1  6  0  0  0
  9  8  1  0  0  0  0
  9 10  1  0  0  0  0
 10  2  1  1  0  0  0
 13 12  1  0  0  0  0
 15 14  1  6  0  0  0
 15 13  1  0  0  0  0
 16 15  1  0  0  0  0
 17 16  1  0  0  0  0
 18 17  1  0  0  0  0
 19 17  1  0  0  0  0
 19 20  1  0  0  0  0
 20 22  1  0  0  0  0
 22 21  1  0  0  0  0
 23 24  1  0  0  0  0
 25 24  1  0  0  0  0
 26 27  1  0  0  0  0
 26  5  1  0  0  0  0
 27 28  1  0  0  0  0
 29 28  1  0  0  0  0
 29 30  1  0  0  0  0
 31 30  1  0  0  0  0
 32 31  1  0  0  0  0
 33 32  1  0  0  0  0
 34 38  1  0  0  0  0
 35 41  1  6  0  0  0
 35 34  1  0  0  0  0
 35 38  1  0  0  0  0
 36 40  2  0  0  0  0
 38 33  1  1  0  0  0
 39 35  1  0  0  0  0
 39 41  1  0  0  0  0
 40 34  1  0  0  0  0
 40 37  1  0  0  0  0
M  END
>  <MODEL>
5

>  <REMARK>
 VINA RESULT:      -6.7      2.289      8.540
  Name = 
  20 active torsions:
  status: ('A' for Active; 'I' for Inactive)
    1  A    between atoms: C_1  and  C_22
    2  A    between atoms: C_1  and  O_28
    3  A    between atoms: C_4  and  C_12
    4  A    between atoms: C_4  and  C_22
    5  A    between atoms: C_5  and  C_12
    6  A    between atoms: C_5  and  C_25
    7  A    between atoms: C_6  and  C_30
    8  A    between atoms: C_7  and  C_14
    9  A    between atoms: C_7  and  C_40
   10  A    between atoms: C_9  and  C_30
   11  A    between atoms: C_10  and  C_18
   12  A    between atoms: C_11  and  N_34
   13  A    between atoms: C_11  and  C_40
   14  A    between atoms: C_14  and  C_17
   15  A    between atoms: O_16  and  C_25
   16  A    between atoms: O_16  and  C_27
   17  A    between atoms: C_20  and  O_28
   18  A    between atoms: C_26  and  C_35
   19  A    between atoms: C_26  and  C_39
   20  A    between atoms: N_34  and  C_39
                            x       y       z     vdW  Elec       q    Type
                         _______ _______ _______ _____ _____    ______ ____

>  <TORSDO>
F 20

$$$$
=
 OpenBabel11042412333D

 41 44  0  0  1  0  0  0  0  0999 V2000
  188.5240  177.3850  146.5000 C   0  0  0  0  0  0  0  0  0  0  0  0
  186.0540  177.9310  144.5700 C   0  0  0  0  0  0  0  0  0  0  0  0
  185.6100  178.3960  145.8970 C   0  0  0  0  0  3  0  0  0  0  0  0
  188.4060  177.2500  145.1820 C   0  0  0  0  0  3  0  0  0  0  0  0
  187.2940  177.5030  144.2420 C   0  0  0  0  0  0  0  0  0  0  0  0
  186.2110  178.3860  147.0800 C   0  0  0  0  0  3  0  0  0  0  0  0
  187.5150  177.8940  147.3690 N   0  0  0  0  0  2  0  0  0  0  0  0
  184.8510  179.5780  142.9950 C   0  0  2  0  0  3  0  0  0  0  0  0
  183.8370  178.9700  143.9350 C   0  0  2  0  0  3  0  0  0  0  0  0
  185.0190  178.1260  143.4770 C   0  0  2  0  0  3  0  0  0  0  0  0
  185.6270  180.4930  143.7130 O   0  0  0  0  0  1  0  0  0  0  0  0
  182.6050  178.5680  143.1480 C   0  0  0  0  0  2  0  0  0  0  0  0
  182.9780  178.2530  141.7070 C   0  0  0  0  0  2  0  0  0  0  0  0
  180.8730  177.9180  140.6250 O   0  0  0  0  0  1  0  0  0  0  0  0
  181.9460  178.8070  140.7320 C   0  0  2  0  0  3  0  0  0  0  0  0
  182.5510  179.0670  139.3540 C   0  0  0  0  0  2  0  0  0  0  0  0
  184.0060  178.9920  139.3990 N   0  0  0  0  0  0  0  0  0  0  0  0
  184.4700  180.2440  139.1730 O   0  0  0  0  0  1  0  0  0  0  0  0
  184.4290  178.1820  138.2670 C   0  0  0  0  0  2  0  0  0  0  0  0
  185.9390  178.2610  138.0890 C   0  0  0  0  0  2  0  0  0  0  0  0
  187.6320  178.2110  136.2540 C   0  0  0  0  0  1  0  0  0  0  0  0
  186.3850  177.5570  136.8170 C   0  0  0  0  0  2  0  0  0  0  0  0
  189.8330  177.0160  147.1030 C   0  0  0  0  0  2  0  0  0  0  0  0
  190.9440  177.1890  146.0840 C   0  0  0  0  0  2  0  0  0  0  0  0
  191.8230  176.1110  146.1670 O   0  0  0  0  0  1  0  0  0  0  0  0
  187.5570  177.2750  142.8810 O   0  0  0  0  0  0  0  0  0  0  0  0
  188.5640  177.9560  142.1370 C   0  0  0  0  0  2  0  0  0  0  0  0
  189.7680  177.0500  141.9120 C   0  0  0  0  0  2  0  0  0  0  0  0
  190.4190  177.3010  140.5560 C   0  0  0  0  0  2  0  0  0  0  0  0
  189.4410  177.0520  139.4180 C   0  0  0  0  0  2  0  0  0  0  0  0
  190.1590  176.4360  138.2330 C   0  0  0  0  0  2  0  0  0  0  0  0
  191.6540  176.6030  138.4010 C   0  0  0  0  0  2  0  0  0  0  0  0
  192.2680  175.3510  138.3510 O   0  0  0  0  0  0  0  0  0  0  0  0
  194.4560  174.7390  137.9400 N   0  0  0  0  0  0  0  0  0  0  0  0
  193.7280  174.3940  136.6450 C   0  0  2  0  0  0  0  0  0  0  0  0
  196.3360  173.4250  138.7590 O   0  0  0  0  0  0  0  0  0  0  0  0
  195.5570  175.2390  139.9240 O   0  0  0  0  0  1  0  0  0  0  0  0
  193.3230  175.5070  137.4290 C   0  0  1  0  0  3  0  0  0  0  0  0
  193.3290  173.0550  136.9480 O   0  0  0  0  0  0  0  0  0  0  0  0
  195.4610  174.4920  138.9160 C   0  0  0  0  0  0  0  0  0  0  0  0
  192.3550  173.8070  136.3580 C   0  0  0  0  0  2  0  0  0  0  0  0
  1 23  1  0  0  0  0
  1  7  1  0  0  0  0
  2  3  1  0  0  0  0
  3  6  2  0  0  0  0
  4  1  2  0  0  0  0
  5  2  2  0  0  0  0
  5  4  1  0  0  0  0
  6  7  1  0  0  0  0
  8 10  1  0  0  0  0
  8 11  1  1  0  0  0
  8  9  1  0  0  0  0
  9 12  1  6  0  0  0
 10  9  1  0  0  0  0
 10  2  1  1  0  0  0
 13 12  1  0  0  0  0
 15 14  1  6  0  0  0
 15 13  1  0  0  0  0
 16 17  1  0  0  0  0
 16 15  1  0  0  0  0
 18 17  1  0  0  0  0
 19 17  1  0  0  0  0
 20 19  1  0  0  0  0
 21 22  1  0  0  0  0
 22 20  1  0  0  0  0
 24 25  1  0  0  0  0
 24 23  1  0  0  0  0
 26  5  1  0  0  0  0
 27 26  1  0  0  0  0
 28 27  1  0  0  0  0
 29 28  1  0  0  0  0
 30 29  1  0  0  0  0
 31 32  1  0  0  0  0
 31 30  1  0  0  0  0
 33 32  1  0  0  0  0
 34 40  1  0  0  0  0
 35 41  1  6  0  0  0
 35 39  1  0  0  0  0
 35 38  1  0  0  0  0
 35 34  1  0  0  0  0
 36 40  2  0  0  0  0
 38 34  1  0  0  0  0
 38 33  1  1  0  0  0
 40 37  1  0  0  0  0
 41 39  1  0  0  0  0
M  END
>  <MODEL>
6

>  <REMARK>
 VINA RESULT:      -6.6      1.939      6.938
  Name = 
  20 active torsions:
  status: ('A' for Active; 'I' for Inactive)
    1  A    between atoms: C_1  and  C_22
    2  A    between atoms: C_1  and  O_28
    3  A    between atoms: C_4  and  C_12
    4  A    between atoms: C_4  and  C_22
    5  A    between atoms: C_5  and  C_12
    6  A    between atoms: C_5  and  C_25
    7  A    between atoms: C_6  and  C_30
    8  A    between atoms: C_7  and  C_14
    9  A    between atoms: C_7  and  C_40
   10  A    between atoms: C_9  and  C_30
   11  A    between atoms: C_10  and  C_18
   12  A    between atoms: C_11  and  N_34
   13  A    between atoms: C_11  and  C_40
   14  A    between atoms: C_14  and  C_17
   15  A    between atoms: O_16  and  C_25
   16  A    between atoms: O_16  and  C_27
   17  A    between atoms: C_20  and  O_28
   18  A    between atoms: C_26  and  C_35
   19  A    between atoms: C_26  and  C_39
   20  A    between atoms: N_34  and  C_39
                            x       y       z     vdW  Elec       q    Type
                         _______ _______ _______ _____ _____    ______ ____

>  <TORSDO>
F 20

$$$$
=
 OpenBabel11042412333D

 41 44  0  0  1  0  0  0  0  0999 V2000
  191.1970  177.0960  146.8200 C   0  0  0  0  0  0  0  0  0  0  0  0
  189.2190  177.8130  144.4340 C   0  0  0  0  0  0  0  0  0  0  0  0
  190.5470  177.6960  143.8050 C   0  0  0  0  0  3  0  0  0  0  0  0
  189.8730  177.2180  146.7980 C   0  0  0  0  0  2  0  0  0  0  0  0
  188.9110  177.5320  145.7200 C   0  0  0  0  0  0  0  0  0  0  0  0
  191.7450  177.4460  144.3160 C   0  0  0  0  0  3  0  0  0  0  0  0
  192.0540  177.2120  145.6860 N   0  0  0  0  0  0  0  0  0  0  0  0
  187.4370  176.9020  142.8110 C   0  0  2  0  0  3  0  0  0  0  0  0
  188.4430  177.7130  142.0280 C   0  0  2  0  0  3  0  0  0  0  0  0
  188.1040  178.1310  143.4540 C   0  0  2  0  0  3  0  0  0  0  0  0
  188.0330  175.6920  143.1780 O   0  0  0  0  0  1  0  0  0  0  0  0
  187.7080  178.6180  141.0580 C   0  0  0  0  0  2  0  0  0  0  0  0
  187.7550  178.0360  139.6540 C   0  0  0  0  0  2  0  0  0  0  0  0
  189.0510  179.3770  138.1570 O   0  0  0  0  0  1  0  0  0  0  0  0
  189.1140  178.2660  139.0030 C   0  0  2  0  0  3  0  0  0  0  0  0
  189.5840  177.0400  138.2240 C   0  0  0  0  0  2  0  0  0  0  0  0
  190.7660  176.4490  138.8400 N   0  0  0  0  0  0  0  0  0  0  0  0
  191.1270  177.2670  139.8570 O   0  0  0  0  0  1  0  0  0  0  0  0
  191.8370  176.5080  137.8580 C   0  0  0  0  0  2  0  0  0  0  0  0
  192.7340  175.2830  137.9740 C   0  0  0  0  0  2  0  0  0  0  0  0
  193.7010  173.9970  136.0640 C   0  0  0  0  0  1  0  0  0  0  0  0
  193.7960  175.2680  136.8850 C   0  0  0  0  0  2  0  0  0  0  0  0
  191.8250  176.7670  148.1280 C   0  0  0  0  0  2  0  0  0  0  0  0
  192.4360  175.3790  148.0780 C   0  0  0  0  0  2  0  0  0  0  0  0
  192.6020  174.9910  146.7500 O   0  0  0  0  0  1  0  0  0  0  0  0
  187.5510  177.5370  146.0730 O   0  0  0  0  0  0  0  0  0  0  0  0
  187.0430  178.0900  147.2850 C   0  0  0  0  0  2  0  0  0  0  0  0
  185.6620  178.6940  147.0600 C   0  0  0  0  0  2  0  0  0  0  0  0
  185.1940  178.5100  145.6200 C   0  0  0  0  0  2  0  0  0  0  0  0
  183.7380  178.9160  145.4550 C   0  0  0  0  0  2  0  0  0  0  0  0
  183.4840  179.4020  144.0420 C   0  0  0  0  0  2  0  0  0  0  0  0
  184.3020  178.5820  143.0670 C   0  0  0  0  0  2  0  0  0  0  0  0
  184.1790  179.1260  141.7870 O   0  0  0  0  0  0  0  0  0  0  0  0
  182.1820  178.4940  140.8170 N   0  0  0  0  0  0  0  0  0  0  0  0
  183.1940  178.3810  139.6830 C   0  0  2  0  0  0  0  0  0  0  0  0
  179.8690  179.1490  140.4300 O   0  0  0  0  0  0  0  0  0  0  0  0
  180.6360  178.6930  142.5410 O   0  0  0  0  0  1  0  0  0  0  0  0
  183.5750  178.1070  141.0220 C   0  0  1  0  0  3  0  0  0  0  0  0
  183.1140  179.7100  139.1620 O   0  0  0  0  0  0  0  0  0  0  0  0
  180.8770  178.7770  141.3090 C   0  0  0  0  0  0  0  0  0  0  0  0
  184.3870  179.2320  139.2760 C   0  0  0  0  0  2  0  0  0  0  0  0
  1 23  1  0  0  0  0
  2  5  2  0  0  0  0
  3  6  2  0  0  0  0
  3  2  1  0  0  0  0
  4  1  1  0  0  0  0
  5 26  1  0  0  0  0
  5  4  1  0  0  0  0
  6  7  1  0  0  0  0
  7  1  2  0  0  0  0
  8 11  1  1  0  0  0
  8 10  1  0  0  0  0
  9 12  1  6  0  0  0
  9  8  1  0  0  0  0
  9 10  1  0  0  0  0
 10  2  1  1  0  0  0
 13 12  1  0  0  0  0
 15 14  1  6  0  0  0
 15 13  1  0  0  0  0
 16 17  1  0  0  0  0
 16 15  1  0  0  0  0
 17 18  1  0  0  0  0
 19 20  1  0  0  0  0
 19 17  1  0  0  0  0
 21 22  1  0  0  0  0
 22 20  1  0  0  0  0
 24 23  1  0  0  0  0
 25 24  1  0  0  0  0
 26 27  1  0  0  0  0
 28 27  1  0  0  0  0
 29 28  1  0  0  0  0
 30 29  1  0  0  0  0
 31 30  1  0  0  0  0
 32 31  1  0  0  0  0
 33 32  1  0  0  0  0
 34 38  1  0  0  0  0
 34 40  1  0  0  0  0
 35 41  1  6  0  0  0
 35 34  1  0  0  0  0
 35 38  1  0  0  0  0
 36 40  2  0  0  0  0
 38 33  1  1  0  0  0
 39 41  1  0  0  0  0
 39 35  1  0  0  0  0
 40 37  1  0  0  0  0
M  END
>  <MODEL>
7

>  <REMARK>
 VINA RESULT:      -6.6      1.888      9.098
  Name = 
  20 active torsions:
  status: ('A' for Active; 'I' for Inactive)
    1  A    between atoms: C_1  and  C_22
    2  A    between atoms: C_1  and  O_28
    3  A    between atoms: C_4  and  C_12
    4  A    between atoms: C_4  and  C_22
    5  A    between atoms: C_5  and  C_12
    6  A    between atoms: C_5  and  C_25
    7  A    between atoms: C_6  and  C_30
    8  A    between atoms: C_7  and  C_14
    9  A    between atoms: C_7  and  C_40
   10  A    between atoms: C_9  and  C_30
   11  A    between atoms: C_10  and  C_18
   12  A    between atoms: C_11  and  N_34
   13  A    between atoms: C_11  and  C_40
   14  A    between atoms: C_14  and  C_17
   15  A    between atoms: O_16  and  C_25
   16  A    between atoms: O_16  and  C_27
   17  A    between atoms: C_20  and  O_28
   18  A    between atoms: C_26  and  C_35
   19  A    between atoms: C_26  and  C_39
   20  A    between atoms: N_34  and  C_39
                            x       y       z     vdW  Elec       q    Type
                         _______ _______ _______ _____ _____    ______ ____

>  <TORSDO>
F 20

$$$$
=
 OpenBabel11042412333D

 41 44  0  0  1  0  0  0  0  0999 V2000
  188.0050  177.8020  146.9580 C   0  0  0  0  0  0  0  0  0  0  0  0
  190.0250  177.0350  144.6230 C   0  0  0  0  0  0  0  0  0  0  0  0
  190.7630  176.7600  145.8690 C   0  0  0  0  0  3  0  0  0  0  0  0
  187.8320  177.7600  145.6410 C   0  0  0  0  0  3  0  0  0  0  0  0
  188.7260  177.3970  144.5210 C   0  0  0  0  0  0  0  0  0  0  0  0
  190.4300  176.9210  147.1430 C   0  0  0  0  0  3  0  0  0  0  0  0
  189.1990  177.4300  147.6440 N   0  0  0  0  0  2  0  0  0  0  0  0
  191.7690  177.8150  142.8950 C   0  0  2  0  0  3  0  0  0  0  0  0
  190.4440  177.6180  142.1970 C   0  0  2  0  0  3  0  0  0  0  0  0
  190.8080  176.7080  143.3640 C   0  0  2  0  0  3  0  0  0  0  0  0
  191.6950  178.9770  143.6670 O   0  0  0  0  0  1  0  0  0  0  0  0
  190.6690  176.8720  140.8970 C   0  0  0  0  0  2  0  0  0  0  0  0
  189.4600  177.0210  139.9860 C   0  0  0  0  0  2  0  0  0  0  0  0
  188.9440  179.0060  138.7570 O   0  0  0  0  0  1  0  0  0  0  0  0
  189.7810  177.8880  138.7730 C   0  0  2  0  0  3  0  0  0  0  0  0
  189.6420  177.1090  137.4680 C   0  0  0  0  0  2  0  0  0  0  0  0
  189.6840  175.6710  137.7080 N   0  0  0  0  0  0  0  0  0  0  0  0
  190.8530  175.2220  137.1950 O   0  0  0  0  0  1  0  0  0  0  0  0
  188.6230  175.0720  136.9140 C   0  0  0  0  0  2  0  0  0  0  0  0
  188.8860  173.5870  136.7070 C   0  0  0  0  0  2  0  0  0  0  0  0
  186.4400  173.5890  137.2110 C   0  0  0  0  0  1  0  0  0  0  0  0
  187.6990  172.7460  137.1540 C   0  0  0  0  0  2  0  0  0  0  0  0
  186.8420  178.2310  147.7810 C   0  0  0  0  0  2  0  0  0  0  0  0
  185.8530  178.9990  146.9230 C   0  0  0  0  0  2  0  0  0  0  0  0
  184.5990  178.3970  147.0080 O   0  0  0  0  0  1  0  0  0  0  0  0
  188.1680  177.4360  143.2320 O   0  0  0  0  0  0  0  0  0  0  0  0
  186.7710  177.5550  142.9710 C   0  0  0  0  0  2  0  0  0  0  0  0
  186.5140  178.6220  141.9140 C   0  0  0  0  0  2  0  0  0  0  0  0
  185.1400  179.2630  142.0810 C   0  0  0  0  0  2  0  0  0  0  0  0
  184.7250  179.3090  143.5430 C   0  0  0  0  0  2  0  0  0  0  0  0
  183.3830  178.6280  143.7300 C   0  0  0  0  0  2  0  0  0  0  0  0
  182.3190  179.3790  142.9580 C   0  0  0  0  0  2  0  0  0  0  0  0
  181.7200  178.5160  142.0380 O   0  0  0  0  0  0  0  0  0  0  0  0
  181.2740  179.2930  139.9100 N   0  0  0  0  0  0  0  0  0  0  0  0
  179.9380  178.7320  140.3850 C   0  0  2  0  0  0  0  0  0  0  0  0
  181.9660  179.1970  137.5780 O   0  0  0  0  0  0  0  0  0  0  0  0
  183.3180  180.1240  139.1810 O   0  0  0  0  0  1  0  0  0  0  0  0
  180.8370  179.3340  141.3040 C   0  0  1  0  0  3  0  0  0  0  0  0
  180.0810  177.3790  139.9440 O   0  0  0  0  0  0  0  0  0  0  0  0
  182.2300  179.5600  138.8920 C   0  0  0  0  0  0  0  0  0  0  0  0
  179.5670  177.5040  141.2010 C   0  0  0  0  0  2  0  0  0  0  0  0
  1  7  1  0  0  0  0
  1 23  1  0  0  0  0
  2  3  1  0  0  0  0
  3  6  2  0  0  0  0
  4  1  2  0  0  0  0
  5  2  2  0  0  0  0
  5  4  1  0  0  0  0
  6  7  1  0  0  0  0
  8 10  1  0  0  0  0
  8 11  1  1  0  0  0
  9 12  1  6  0  0  0
  9  8  1  0  0  0  0
  9 10  1  0  0  0  0
 10  2  1  1  0  0  0
 13 12  1  0  0  0  0
 15 14  1  6  0  0  0
 15 13  1  0  0  0  0
 16 17  1  0  0  0  0
 16 15  1  0  0  0  0
 18 17  1  0  0  0  0
 19 17  1  0  0  0  0
 20 19  1  0  0  0  0
 20 22  1  0  0  0  0
 22 21  1  0  0  0  0
 24 25  1  0  0  0  0
 24 23  1  0  0  0  0
 26  5  1  0  0  0  0
 27 26  1  0  0  0  0
 28 29  1  0  0  0  0
 28 27  1  0  0  0  0
 29 30  1  0  0  0  0
 30 31  1  0  0  0  0
 32 31  1  0  0  0  0
 33 32  1  0  0  0  0
 34 35  1  0  0  0  0
 34 38  1  0  0  0  0
 35 41  1  6  0  0  0
 35 38  1  0  0  0  0
 36 40  2  0  0  0  0
 38 33  1  1  0  0  0
 39 35  1  0  0  0  0
 39 41  1  0  0  0  0
 40 37  1  0  0  0  0
 40 34  1  0  0  0  0
M  END
>  <MODEL>
8

>  <REMARK>
 VINA RESULT:      -6.5      2.369      8.572
  Name = 
  20 active torsions:
  status: ('A' for Active; 'I' for Inactive)
    1  A    between atoms: C_1  and  C_22
    2  A    between atoms: C_1  and  O_28
    3  A    between atoms: C_4  and  C_12
    4  A    between atoms: C_4  and  C_22
    5  A    between atoms: C_5  and  C_12
    6  A    between atoms: C_5  and  C_25
    7  A    between atoms: C_6  and  C_30
    8  A    between atoms: C_7  and  C_14
    9  A    between atoms: C_7  and  C_40
   10  A    between atoms: C_9  and  C_30
   11  A    between atoms: C_10  and  C_18
   12  A    between atoms: C_11  and  N_34
   13  A    between atoms: C_11  and  C_40
   14  A    between atoms: C_14  and  C_17
   15  A    between atoms: O_16  and  C_25
   16  A    between atoms: O_16  and  C_27
   17  A    between atoms: C_20  and  O_28
   18  A    between atoms: C_26  and  C_35
   19  A    between atoms: C_26  and  C_39
   20  A    between atoms: N_34  and  C_39
                            x       y       z     vdW  Elec       q    Type
                         _______ _______ _______ _____ _____    ______ ____

>  <TORSDO>
F 20

$$$$
=
 OpenBabel11042412333D

 41 44  0  0  1  0  0  0  0  0999 V2000
  184.5620  178.8100  140.2780 C   0  0  0  0  0  0  0  0  0  0  0  0
  186.2780  178.4760  142.9360 C   0  0  0  0  0  0  0  0  0  0  0  0
  184.8810  178.2660  143.3560 C   0  0  0  0  0  3  0  0  0  0  0  0
  185.8790  178.8000  140.4650 C   0  0  0  0  0  3  0  0  0  0  0  0
  186.7210  178.6340  141.6680 C   0  0  0  0  0  0  0  0  0  0  0  0
  183.7410  178.3150  142.6800 C   0  0  0  0  0  3  0  0  0  0  0  0
  183.5840  178.6000  141.2940 N   0  0  0  0  0  2  0  0  0  0  0  0
  187.9530  176.9520  144.1660 C   0  0  2  0  0  3  0  0  0  0  0  0
  186.8420  177.3270  145.1180 C   0  0  2  0  0  3  0  0  0  0  0  0
  187.2840  178.3340  144.0640 C   0  0  2  0  0  3  0  0  0  0  0  0
  187.4540  176.0270  143.2450 O   0  0  0  0  0  1  0  0  0  0  0  0
  187.4400  177.7130  146.4570 C   0  0  0  0  0  2  0  0  0  0  0  0
  188.5500  176.7450  146.8380 C   0  0  0  0  0  2  0  0  0  0  0  0
  189.0500  178.6190  148.2370 O   0  0  0  0  0  1  0  0  0  0  0  0
  189.3820  177.2830  147.9970 C   0  0  2  0  0  3  0  0  0  0  0  0
  190.8790  177.1540  147.7260 C   0  0  0  0  0  2  0  0  0  0  0  0
  191.1280  176.4010  146.5030 N   0  0  0  0  0  0  0  0  0  0  0  0
  192.1060  175.5080  146.7840 O   0  0  0  0  0  1  0  0  0  0  0  0
  191.6810  177.3320  145.5310 C   0  0  0  0  0  2  0  0  0  0  0  0
  191.4610  176.8170  144.1150 C   0  0  0  0  0  2  0  0  0  0  0  0
  190.9570  179.2420  143.7920 C   0  0  0  0  0  1  0  0  0  0  0  0
  191.4000  177.9600  143.1130 C   0  0  0  0  0  2  0  0  0  0  0  0
  184.0780  179.0130  138.8860 C   0  0  0  0  0  2  0  0  0  0  0  0
  184.4890  177.8400  138.0160 C   0  0  0  0  0  2  0  0  0  0  0  0
  183.6650  176.7480  138.2870 O   0  0  0  0  0  1  0  0  0  0  0  0
  188.1120  178.6420  141.4690 O   0  0  0  0  0  0  0  0  0  0  0  0
  188.7410  178.3590  140.2210 C   0  0  0  0  0  2  0  0  0  0  0  0
  189.5580  177.0760  140.3130 C   0  0  0  0  0  2  0  0  0  0  0  0
  190.7840  177.1210  139.4070 C   0  0  0  0  0  2  0  0  0  0  0  0
  190.3930  177.0260  137.9400 C   0  0  0  0  0  2  0  0  0  0  0  0
  191.5160  176.4010  137.1360 C   0  0  0  0  0  2  0  0  0  0  0  0
  192.2130  175.3470  137.9710 C   0  0  0  0  0  2  0  0  0  0  0  0
  193.5940  175.5400  137.9000 O   0  0  0  0  0  0  0  0  0  0  0  0
  195.1490  175.5610  136.1940 N   0  0  0  0  0  0  0  0  0  0  0  0
  195.2180  174.1380  136.7380 C   0  0  2  0  0  0  0  0  0  0  0  0
  197.1070  176.7060  135.3080 O   0  0  0  0  0  0  0  0  0  0  0  0
  195.0610  177.7370  135.3860 O   0  0  0  0  0  1  0  0  0  0  0  0
  193.9920  174.8520  136.7350 C   0  0  1  0  0  3  0  0  0  0  0  0
  196.2120  174.3200  137.7500 O   0  0  0  0  0  0  0  0  0  0  0  0
  195.7530  176.7120  135.6160 C   0  0  0  0  0  0  0  0  0  0  0  0
  195.1450  173.5670  138.1460 C   0  0  0  0  0  2  0  0  0  0  0  0
  1  4  2  0  0  0  0
  1  7  1  0  0  0  0
  2  3  1  0  0  0  0
  4  5  1  0  0  0  0
  5  2  2  0  0  0  0
  6  3  2  0  0  0  0
  7  6  1  0  0  0  0
  8 11  1  6  0  0  0
  8  9  1  0  0  0  0
  9 12  1  1  0  0  0
 10  2  1  6  0  0  0
 10  8  1  0  0  0  0
 10  9  1  0  0  0  0
 12 13  1  0  0  0  0
 13 15  1  0  0  0  0
 15 14  1  6  0  0  0
 16 15  1  0  0  0  0
 17 18  1  0  0  0  0
 17 16  1  0  0  0  0
 19 17  1  0  0  0  0
 20 19  1  0  0  0  0
 22 21  1  0  0  0  0
 22 20  1  0  0  0  0
 23  1  1  0  0  0  0
 24 25  1  0  0  0  0
 24 23  1  0  0  0  0
 26  5  1  0  0  0  0
 27 28  1  0  0  0  0
 27 26  1  0  0  0  0
 29 28  1  0  0  0  0
 30 29  1  0  0  0  0
 31 30  1  0  0  0  0
 31 32  1  0  0  0  0
 33 32  1  0  0  0  0
 34 38  1  0  0  0  0
 34 35  1  0  0  0  0
 35 39  1  0  0  0  0
 35 41  1  6  0  0  0
 36 40  2  0  0  0  0
 37 40  1  0  0  0  0
 38 35  1  0  0  0  0
 38 33  1  1  0  0  0
 39 41  1  0  0  0  0
 40 34  1  0  0  0  0
M  END
>  <MODEL>
9

>  <REMARK>
 VINA RESULT:      -6.4      2.078      3.549
  Name = 
  20 active torsions:
  status: ('A' for Active; 'I' for Inactive)
    1  A    between atoms: C_1  and  C_22
    2  A    between atoms: C_1  and  O_28
    3  A    between atoms: C_4  and  C_12
    4  A    between atoms: C_4  and  C_22
    5  A    between atoms: C_5  and  C_12
    6  A    between atoms: C_5  and  C_25
    7  A    between atoms: C_6  and  C_30
    8  A    between atoms: C_7  and  C_14
    9  A    between atoms: C_7  and  C_40
   10  A    between atoms: C_9  and  C_30
   11  A    between atoms: C_10  and  C_18
   12  A    between atoms: C_11  and  N_34
   13  A    between atoms: C_11  and  C_40
   14  A    between atoms: C_14  and  C_17
   15  A    between atoms: O_16  and  C_25
   16  A    between atoms: O_16  and  C_27
   17  A    between atoms: C_20  and  O_28
   18  A    between atoms: C_26  and  C_35
   19  A    between atoms: C_26  and  C_39
   20  A    between atoms: N_34  and  C_39
                            x       y       z     vdW  Elec       q    Type
                         _______ _______ _______ _____ _____    ______ ____

>  <TORSDO>
F 20

$$$$
