=
 OpenBabel11032419193D

 25 28  0  0  1  0  0  0  0  0999 V2000
  187.1180  177.8710  145.3810 C   0  0  0  0  0  0  0  0  0  0  0  0
  188.3930  177.4260  144.9680 C   0  0  0  0  0  0  0  0  0  0  0  0
  187.8120  177.8440  147.7190 C   0  0  0  0  0  3  0  0  0  0  0  0
  185.9910  178.1630  144.5850 C   0  0  0  0  0  0  0  0  0  0  0  0
  190.5290  176.8670  141.9810 C   0  0  0  0  0  0  0  0  0  0  0  0
  183.5720  178.8340  143.3520 C   0  0  0  0  0  3  0  0  0  0  0  0
  189.0780  177.4030  147.3220 C   0  0  0  0  0  3  0  0  0  0  0  0
  184.8920  178.5780  145.3360 C   0  0  0  0  0  0  0  0  0  0  0  0
  183.6770  178.9190  144.7480 C   0  0  0  0  0  3  0  0  0  0  0  0
  190.7400  176.7440  145.5770 C   0  0  0  0  0  0  0  0  0  0  0  0
  191.9500  176.3720  146.7950 Cl  0  0  0  0  0  0  0  0  0  0  0  0
  190.9160  176.7970  140.7370 C   0  0  0  0  0  3  0  0  0  0  0  0
  188.6800  177.1440  143.5140 C   0  0  0  0  0  2  0  0  0  0  0  0
  184.6700  178.4180  142.5790 C   0  0  0  0  0  3  0  0  0  0  0  0
  186.8570  178.0710  146.7370 C   0  0  0  0  0  0  0  0  0  0  0  0
  185.2730  178.5980  146.9760 S   0  0  0  0  0  0  0  0  0  0  0  0
  191.0890  176.6440  144.2960 C   0  0  0  0  0  3  0  0  0  0  0  0
  185.8860  178.0800  143.1920 C   0  0  0  0  0  3  0  0  0  0  0  0
  190.1350  176.9380  143.2210 C   0  0  0  0  0  0  0  0  0  0  0  0
  189.3800  177.1890  145.9620 C   0  0  0  0  0  0  0  0  0  0  0  0
  190.1420  177.4780  139.6590 C   0  0  2  0  0  3  0  0  0  0  0  0
  188.7910  177.5540  140.0090 O   0  0  0  0  0  1  0  0  0  0  0  0
  190.2950  176.7420  138.3710 C   0  0  0  0  0  0  0  0  0  0  0  0
  190.5770  175.3840  138.3850 O   0  0  0  0  0  1  0  0  0  0  0  0
  190.1500  177.3390  137.2710 O   0  0  0  0  0  0  0  0  0  0  0  0
  1 15  1  0  0  0  0
  2  1  2  0  0  0  0
  2 20  1  0  0  0  0
  4  8  1  0  0  0  0
  4  1  1  0  0  0  0
  5 19  2  0  0  0  0
  6  9  1  0  0  0  0
  7  3  1  0  0  0  0
  8 16  1  0  0  0  0
  9  8  2  0  0  0  0
 10 20  1  0  0  0  0
 10 11  1  0  0  0  0
 12  5  2  0  0  0  0
 13  2  1  0  0  0  0
 14 18  1  0  0  0  0
 14  6  2  0  0  0  0
 15 16  1  0  0  0  0
 15  3  2  0  0  0  0
 17 10  2  0  0  0  0
 18  4  2  0  0  0  0
 19 13  1  0  0  0  0
 19 17  1  0  0  0  0
 20  7  2  0  0  0  0
 21 22  1  1  0  0  0
 21 12  1  0  0  0  0
 23 24  1  0  0  0  0
 23 21  1  0  0  0  0
 25 23  2  0  0  0  0
M  END
>  <MODEL>
1

>  <REMARK>
 VINA RESULT:     -11.3      0.000      0.000
  Name = 
  2 active torsions:
  status: ('A' for Active; 'I' for Inactive)
    1  A    between atoms: C_2  and  C_21
    2  A    between atoms: C_15  and  C_21
                            x       y       z     vdW  Elec       q    Type
                         _______ _______ _______ _____ _____    ______ ____

>  <TORSDO>
F 2

$$$$
=
 OpenBabel11032419193D

 25 28  0  0  1  0  0  0  0  0999 V2000
  186.8020  177.8630  144.4390 C   0  0  0  0  0  0  0  0  0  0  0  0
  188.0070  177.4730  143.8140 C   0  0  0  0  0  0  0  0  0  0  0  0
  187.8040  177.5910  146.6470 C   0  0  0  0  0  3  0  0  0  0  0  0
  185.5810  178.2300  143.8370 C   0  0  0  0  0  0  0  0  0  0  0  0
  189.7180  177.2490  140.5240 C   0  0  0  0  0  0  0  0  0  0  0  0
  183.0240  179.0130  143.0190 C   0  0  0  0  0  3  0  0  0  0  0  0
  189.0020  177.2030  146.0380 C   0  0  0  0  0  3  0  0  0  0  0  0
  184.5970  178.5550  144.7690 C   0  0  0  0  0  0  0  0  0  0  0  0
  183.3160  178.9490  144.3890 C   0  0  0  0  0  3  0  0  0  0  0  0
  190.4090  176.7450  144.0260 C   0  0  0  0  0  0  0  0  0  0  0  0
  191.7690  176.2530  145.0240 Cl  0  0  0  0  0  0  0  0  0  0  0  0
  189.9340  177.3160  139.2390 C   0  0  0  0  0  3  0  0  0  0  0  0
  188.0940  177.3490  142.3120 C   0  0  0  0  0  2  0  0  0  0  0  0
  184.0050  178.6890  142.0650 C   0  0  0  0  0  3  0  0  0  0  0  0
  186.7270  177.9150  145.8310 C   0  0  0  0  0  0  0  0  0  0  0  0
  185.1940  178.4030  146.3350 S   0  0  0  0  0  0  0  0  0  0  0  0
  190.5820  176.7850  142.7060 C   0  0  0  0  0  3  0  0  0  0  0  0
  185.2900  178.2960  142.4710 C   0  0  0  0  0  3  0  0  0  0  0  0
  189.4950  177.1860  141.8060 C   0  0  0  0  0  0  0  0  0  0  0  0
  189.1170  177.1380  144.6350 C   0  0  0  0  0  0  0  0  0  0  0  0
  189.0270  178.1020  138.3540 C   0  0  2  0  0  3  0  0  0  0  0  0
  189.0460  179.4510  138.7180 O   0  0  0  0  0  1  0  0  0  0  0  0
  187.6370  177.5700  138.4370 C   0  0  0  0  0  0  0  0  0  0  0  0
  186.6510  178.3150  139.0670 O   0  0  0  0  0  1  0  0  0  0  0  0
  187.3460  176.4570  137.9220 O   0  0  0  0  0  0  0  0  0  0  0  0
  1 15  1  0  0  0  0
  2  1  2  0  0  0  0
  2 20  1  0  0  0  0
  4  1  1  0  0  0  0
  4  8  1  0  0  0  0
  5 19  2  0  0  0  0
  6  9  1  0  0  0  0
  7  3  1  0  0  0  0
  8 16  1  0  0  0  0
  9  8  2  0  0  0  0
 10 20  1  0  0  0  0
 10 11  1  0  0  0  0
 12  5  2  0  0  0  0
 13  2  1  0  0  0  0
 14 18  1  0  0  0  0
 14  6  2  0  0  0  0
 15 16  1  0  0  0  0
 15  3  2  0  0  0  0
 17 10  2  0  0  0  0
 18  4  2  0  0  0  0
 19 13  1  0  0  0  0
 19 17  1  0  0  0  0
 20  7  2  0  0  0  0
 21 23  1  0  0  0  0
 21 22  1  1  0  0  0
 21 12  1  0  0  0  0
 23 24  1  0  0  0  0
 25 23  2  0  0  0  0
M  END
>  <MODEL>
2

>  <REMARK>
 VINA RESULT:     -10.8      1.351      1.802
  Name = 
  2 active torsions:
  status: ('A' for Active; 'I' for Inactive)
    1  A    between atoms: C_2  and  C_21
    2  A    between atoms: C_15  and  C_21
                            x       y       z     vdW  Elec       q    Type
                         _______ _______ _______ _____ _____    ______ ____

>  <TORSDO>
F 2

$$$$
=
 OpenBabel11032419193D

 25 28  0  0  1  0  0  0  0  0999 V2000
  187.6810  177.8060  145.6610 C   0  0  0  0  0  0  0  0  0  0  0  0
  186.9200  178.1760  144.5310 C   0  0  0  0  0  0  0  0  0  0  0  0
  185.7470  178.0990  147.1190 C   0  0  0  0  0  3  0  0  0  0  0  0
  189.0410  177.4410  145.7210 C   0  0  0  0  0  0  0  0  0  0  0  0
  186.9840  178.3390  140.8200 C   0  0  0  0  0  0  0  0  0  0  0  0
  191.6810  176.6710  146.2340 C   0  0  0  0  0  3  0  0  0  0  0  0
  184.9840  178.4670  146.0070 C   0  0  0  0  0  3  0  0  0  0  0  0
  189.4620  177.1380  147.0150 C   0  0  0  0  0  0  0  0  0  0  0  0
  190.7700  176.7510  147.2980 C   0  0  0  0  0  3  0  0  0  0  0  0
  184.7060  178.8840  143.5600 C   0  0  0  0  0  0  0  0  0  0  0  0
  183.0340  179.3770  143.7800 Cl  0  0  0  0  0  0  0  0  0  0  0  0
  187.4070  178.2530  139.5890 C   0  0  0  0  0  3  0  0  0  0  0  0
  187.5590  178.2780  143.1680 C   0  0  0  0  0  2  0  0  0  0  0  0
  191.2720  176.9730  144.9230 C   0  0  0  0  0  3  0  0  0  0  0  0
  187.0820  177.7730  146.9210 C   0  0  0  0  0  0  0  0  0  0  0  0
  188.1900  177.3060  148.1040 S   0  0  0  0  0  0  0  0  0  0  0  0
  185.1830  178.8250  142.3180 C   0  0  0  0  0  3  0  0  0  0  0  0
  189.9490  177.3600  144.6600 C   0  0  0  0  0  3  0  0  0  0  0  0
  186.5690  178.4220  142.0520 C   0  0  0  0  0  0  0  0  0  0  0  0
  185.5520  178.5120  144.7180 C   0  0  0  0  0  0  0  0  0  0  0  0
  188.6280  177.4630  139.2570 C   0  0  2  0  0  3  0  0  0  0  0  0
  189.4850  177.4100  140.3590 O   0  0  0  0  0  1  0  0  0  0  0  0
  189.3320  178.0690  138.0910 C   0  0  0  0  0  0  0  0  0  0  0  0
  189.0550  179.3780  137.7250 O   0  0  0  0  0  1  0  0  0  0  0  0
  190.1910  177.4080  137.4470 O   0  0  0  0  0  0  0  0  0  0  0  0
  1  4  1  0  0  0  0
  1 15  2  0  0  0  0
  2 20  2  0  0  0  0
  2  1  1  0  0  0  0
  4  8  1  0  0  0  0
  5 19  2  0  0  0  0
  6  9  1  0  0  0  0
  7  3  2  0  0  0  0
  8  9  2  0  0  0  0
  8 16  1  0  0  0  0
 10 11  1  0  0  0  0
 10 20  1  0  0  0  0
 12  5  2  0  0  0  0
 13  2  1  0  0  0  0
 14  6  2  0  0  0  0
 15  3  1  0  0  0  0
 15 16  1  0  0  0  0
 17 10  2  0  0  0  0
 18 14  1  0  0  0  0
 18  4  2  0  0  0  0
 19 17  1  0  0  0  0
 19 13  1  0  0  0  0
 20  7  1  0  0  0  0
 21 12  1  0  0  0  0
 21 22  1  1  0  0  0
 23 21  1  0  0  0  0
 24 23  1  0  0  0  0
 25 23  2  0  0  0  0
M  END
>  <MODEL>
3

>  <REMARK>
 VINA RESULT:     -10.6      2.470      4.759
  Name = 
  2 active torsions:
  status: ('A' for Active; 'I' for Inactive)
    1  A    between atoms: C_2  and  C_21
    2  A    between atoms: C_15  and  C_21
                            x       y       z     vdW  Elec       q    Type
                         _______ _______ _______ _____ _____    ______ ____

>  <TORSDO>
F 2

$$$$
=
 OpenBabel11032419193D

 25 28  0  0  1  0  0  0  0  0999 V2000
  189.3180  177.4520  144.0120 C   0  0  0  0  0  0  0  0  0  0  0  0
  188.3130  177.7740  144.9510 C   0  0  0  0  0  0  0  0  0  0  0  0
  190.8710  176.8720  145.8020 C   0  0  0  0  0  3  0  0  0  0  0  0
  189.2550  177.5130  142.6050 C   0  0  0  0  0  0  0  0  0  0  0  0
  184.7120  178.6250  145.2850 C   0  0  0  0  0  0  0  0  0  0  0  0
  189.5100  177.5000  139.8200 C   0  0  0  0  0  3  0  0  0  0  0  0
  189.8830  177.1880  146.7400 C   0  0  0  0  0  3  0  0  0  0  0  0
  190.4450  177.1210  141.9950 C   0  0  0  0  0  0  0  0  0  0  0  0
  190.5990  177.1040  140.6100 C   0  0  0  0  0  3  0  0  0  0  0  0
  187.5820  177.9410  147.3560 C   0  0  0  0  0  0  0  0  0  0  0  0
  187.9550  177.8540  149.0710 Cl  0  0  0  0  0  0  0  0  0  0  0  0
  183.4750  178.8980  144.9730 C   0  0  0  0  0  3  0  0  0  0  0  0
  186.9770  178.3130  144.5000 C   0  0  0  0  0  2  0  0  0  0  0  0
  188.3020  177.8990  140.4200 C   0  0  0  0  0  3  0  0  0  0  0  0
  190.5650  177.0090  144.4540 C   0  0  0  0  0  0  0  0  0  0  0  0
  191.5890  176.6930  143.1530 S   0  0  0  0  0  0  0  0  0  0  0  0
  186.3380  178.2580  147.0010 C   0  0  0  0  0  3  0  0  0  0  0  0
  188.1690  177.9070  141.8170 C   0  0  0  0  0  3  0  0  0  0  0  0
  185.9490  178.3510  145.5890 C   0  0  0  0  0  0  0  0  0  0  0  0
  188.6110  177.6380  146.3330 C   0  0  0  0  0  0  0  0  0  0  0  0
  182.9480  178.5910  143.6120 C   0  0  2  0  0  3  0  0  0  0  0  0
  183.7180  179.2310  142.6390 O   0  0  0  0  0  1  0  0  0  0  0  0
  181.5250  179.0220  143.5020 C   0  0  0  0  0  0  0  0  0  0  0  0
  180.5450  178.3500  144.2190 O   0  0  0  0  0  1  0  0  0  0  0  0
  181.2070  180.0050  142.7790 O   0  0  0  0  0  0  0  0  0  0  0  0
  1 15  1  0  0  0  0
  1  2  2  0  0  0  0
  2 20  1  0  0  0  0
  3  7  1  0  0  0  0
  4  1  1  0  0  0  0
  5 19  2  0  0  0  0
  6 14  2  0  0  0  0
  6  9  1  0  0  0  0
  8  4  1  0  0  0  0
  8 16  1  0  0  0  0
  9  8  2  0  0  0  0
 10 11  1  0  0  0  0
 12  5  2  0  0  0  0
 13  2  1  0  0  0  0
 13 19  1  0  0  0  0
 14 18  1  0  0  0  0
 15  3  2  0  0  0  0
 16 15  1  0  0  0  0
 17 10  2  0  0  0  0
 18  4  2  0  0  0  0
 19 17  1  0  0  0  0
 20  7  2  0  0  0  0
 20 10  1  0  0  0  0
 21 22  1  6  0  0  0
 21 12  1  0  0  0  0
 23 21  1  0  0  0  0
 23 24  1  0  0  0  0
 25 23  2  0  0  0  0
M  END
>  <MODEL>
4

>  <REMARK>
 VINA RESULT:     -10.5      3.435      6.334
  Name = 
  2 active torsions:
  status: ('A' for Active; 'I' for Inactive)
    1  A    between atoms: C_2  and  C_21
    2  A    between atoms: C_15  and  C_21
                            x       y       z     vdW  Elec       q    Type
                         _______ _______ _______ _____ _____    ______ ____

>  <TORSDO>
F 2

$$$$
=
 OpenBabel11032419193D

 25 28  0  0  1  0  0  0  0  0999 V2000
  188.5220  177.6190  143.1560 C   0  0  0  0  0  0  0  0  0  0  0  0
  187.1910  177.9430  143.5000 C   0  0  0  0  0  0  0  0  0  0  0  0
  189.0900  177.2550  145.5000 C   0  0  0  0  0  3  0  0  0  0  0  0
  189.1120  177.5810  141.8760 C   0  0  0  0  0  0  0  0  0  0  0  0
  183.8230  178.5970  142.0780 C   0  0  0  0  0  0  0  0  0  0  0  0
  190.6190  177.3960  139.5280 C   0  0  0  0  0  3  0  0  0  0  0  0
  187.7750  177.5740  145.8520 C   0  0  0  0  0  3  0  0  0  0  0  0
  190.4580  177.2210  141.9130 C   0  0  0  0  0  0  0  0  0  0  0  0
  191.2310  177.1200  140.7590 C   0  0  0  0  0  3  0  0  0  0  0  0
  185.4330  178.2280  145.2810 C   0  0  0  0  0  0  0  0  0  0  0  0
  184.9770  178.2790  146.9780 Cl  0  0  0  0  0  0  0  0  0  0  0  0
  182.8620  178.7750  141.2130 C   0  0  0  0  0  3  0  0  0  0  0  0
  186.2010  178.3690  142.4440 C   0  0  0  0  0  2  0  0  0  0  0  0
  189.2630  177.7610  139.4720 C   0  0  0  0  0  3  0  0  0  0  0  0
  189.4350  177.2820  144.1560 C   0  0  0  0  0  0  0  0  0  0  0  0
  190.9500  176.9410  143.4980 S   0  0  0  0  0  0  0  0  0  0  0  0
  184.4850  178.4460  144.3710 C   0  0  0  0  0  3  0  0  0  0  0  0
  188.5020  177.8560  140.6480 C   0  0  0  0  0  3  0  0  0  0  0  0
  184.7860  178.4190  142.9360 C   0  0  0  0  0  0  0  0  0  0  0  0
  186.8230  177.9190  144.8720 C   0  0  0  0  0  0  0  0  0  0  0  0
  183.0260  178.3450  139.7940 C   0  0  2  0  0  3  0  0  0  0  0  0
  183.1490  176.9560  139.7200 O   0  0  0  0  0  1  0  0  0  0  0  0
  184.2260  178.9970  139.1940 C   0  0  0  0  0  0  0  0  0  0  0  0
  185.2820  178.2150  138.7480 O   0  0  0  0  0  0  0  0  0  0  0  0
  184.2790  180.2500  139.0700 O   0  0  0  0  0  1  0  0  0  0  0  0
  1  2  2  0  0  0  0
  1 15  1  0  0  0  0
  2 20  1  0  0  0  0
  3  7  1  0  0  0  0
  4  8  1  0  0  0  0
  4  1  1  0  0  0  0
  5 19  2  0  0  0  0
  6  9  1  0  0  0  0
  8 16  1  0  0  0  0
  9  8  2  0  0  0  0
 10 11  1  0  0  0  0
 12  5  2  0  0  0  0
 13 19  1  0  0  0  0
 13  2  1  0  0  0  0
 14  6  2  0  0  0  0
 14 18  1  0  0  0  0
 15  3  2  0  0  0  0
 16 15  1  0  0  0  0
 17 10  2  0  0  0  0
 18  4  2  0  0  0  0
 19 17  1  0  0  0  0
 20 10  1  0  0  0  0
 20  7  2  0  0  0  0
 21 22  1  1  0  0  0
 21 12  1  0  0  0  0
 23 21  1  0  0  0  0
 24 23  2  0  0  0  0
 25 23  1  0  0  0  0
M  END
>  <MODEL>
5

>  <REMARK>
 VINA RESULT:     -10.2      2.951      5.779
  Name = 
  2 active torsions:
  status: ('A' for Active; 'I' for Inactive)
    1  A    between atoms: C_2  and  C_21
    2  A    between atoms: C_15  and  C_21
                            x       y       z     vdW  Elec       q    Type
                         _______ _______ _______ _____ _____    ______ ____

>  <TORSDO>
F 2

$$$$
=
 OpenBabel11032419193D

 25 28  0  0  1  0  0  0  0  0999 V2000
  187.2570  178.0520  142.0780 C   0  0  0  0  0  0  0  0  0  0  0  0
  187.1580  177.9010  143.4780 C   0  0  0  0  0  0  0  0  0  0  0  0
  184.9620  178.8710  141.9560 C   0  0  0  0  0  3  0  0  0  0  0  0
  188.3570  177.7730  141.2420 C   0  0  0  0  0  0  0  0  0  0  0  0
  189.1320  177.1870  146.5430 C   0  0  0  0  0  0  0  0  0  0  0  0
  190.3060  177.3470  139.2810 C   0  0  0  0  0  3  0  0  0  0  0  0
  184.8530  178.7250  143.3420 C   0  0  0  0  0  3  0  0  0  0  0  0
  188.0960  178.0410  139.8990 C   0  0  0  0  0  0  0  0  0  0  0  0
  189.0480  177.8390  138.9020 C   0  0  0  0  0  3  0  0  0  0  0  0
  185.7870  178.1240  145.5800 C   0  0  0  0  0  0  0  0  0  0  0  0
  184.2560  178.4700  146.3700 Cl  0  0  0  0  0  0  0  0  0  0  0  0
  190.1350  176.8940  147.3240 C   0  0  0  0  0  3  0  0  0  0  0  0
  188.3020  177.3260  144.2770 C   0  0  0  0  0  2  0  0  0  0  0  0
  190.5870  177.0720  140.6310 C   0  0  0  0  0  3  0  0  0  0  0  0
  186.1660  178.5320  141.3520 C   0  0  0  0  0  0  0  0  0  0  0  0
  186.5270  178.6200  139.7070 S   0  0  0  0  0  0  0  0  0  0  0  0
  186.8230  177.7820  146.3430 C   0  0  0  0  0  3  0  0  0  0  0  0
  189.6120  177.2840  141.6190 C   0  0  0  0  0  3  0  0  0  0  0  0
  188.1340  177.4790  145.7580 C   0  0  0  0  0  0  0  0  0  0  0  0
  185.9330  178.2430  144.1100 C   0  0  0  0  0  0  0  0  0  0  0  0
  191.5390  176.9960  146.8300 C   0  0  2  0  0  3  0  0  0  0  0  0
  191.5520  177.2130  145.4500 O   0  0  0  0  0  1  0  0  0  0  0  0
  192.2930  175.7530  147.1590 C   0  0  0  0  0  0  0  0  0  0  0  0
  192.8280  175.5880  148.4280 O   0  0  0  0  0  1  0  0  0  0  0  0
  192.4290  174.8410  146.2990 O   0  0  0  0  0  0  0  0  0  0  0  0
  1  2  2  0  0  0  0
  2 20  1  0  0  0  0
  2 13  1  0  0  0  0
  3  7  1  0  0  0  0
  4 18  1  0  0  0  0
  4  1  1  0  0  0  0
  5 12  2  0  0  0  0
  6 14  1  0  0  0  0
  7 20  2  0  0  0  0
  8  4  2  0  0  0  0
  9  6  2  0  0  0  0
  9  8  1  0  0  0  0
 10 17  2  0  0  0  0
 10 11  1  0  0  0  0
 13 19  1  0  0  0  0
 14 18  2  0  0  0  0
 15  3  2  0  0  0  0
 15  1  1  0  0  0  0
 16  8  1  0  0  0  0
 16 15  1  0  0  0  0
 19 17  1  0  0  0  0
 19  5  2  0  0  0  0
 20 10  1  0  0  0  0
 21 22  1  6  0  0  0
 21 23  1  0  0  0  0
 21 12  1  0  0  0  0
 23 24  1  0  0  0  0
 25 23  2  0  0  0  0
M  END
>  <MODEL>
6

>  <REMARK>
 VINA RESULT:     -10.0      3.704      6.326
  Name = 
  2 active torsions:
  status: ('A' for Active; 'I' for Inactive)
    1  A    between atoms: C_2  and  C_21
    2  A    between atoms: C_15  and  C_21
                            x       y       z     vdW  Elec       q    Type
                         _______ _______ _______ _____ _____    ______ ____

>  <TORSDO>
F 2

$$$$
=
 OpenBabel11032419193D

 25 28  0  0  1  0  0  0  0  0999 V2000
  186.3960  178.2590  144.3150 C   0  0  0  0  0  0  0  0  0  0  0  0
  186.4270  178.3930  142.9100 C   0  0  0  0  0  0  0  0  0  0  0  0
  184.0200  178.8100  144.3640 C   0  0  0  0  0  3  0  0  0  0  0  0
  187.4530  177.9280  145.1870 C   0  0  0  0  0  0  0  0  0  0  0  0
  188.5440  177.8280  139.9100 C   0  0  0  0  0  0  0  0  0  0  0  0
  189.2780  177.3010  147.2120 C   0  0  0  0  0  3  0  0  0  0  0  0
  184.0400  178.9460  142.9720 C   0  0  0  0  0  3  0  0  0  0  0  0
  187.0580  177.8880  146.5230 C   0  0  0  0  0  0  0  0  0  0  0  0
  187.9450  177.5780  147.5510 C   0  0  0  0  0  3  0  0  0  0  0  0
  185.2010  178.8740  140.7620 C   0  0  0  0  0  0  0  0  0  0  0  0
  183.7450  179.3820  139.9200 Cl  0  0  0  0  0  0  0  0  0  0  0  0
  189.5640  177.5080  139.1630 C   0  0  0  0  0  3  0  0  0  0  0  0
  187.7180  178.2340  142.1450 C   0  0  0  0  0  2  0  0  0  0  0  0
  189.6940  177.3370  145.8690 C   0  0  0  0  0  3  0  0  0  0  0  0
  185.2030  178.4670  145.0070 C   0  0  0  0  0  0  0  0  0  0  0  0
  185.4210  178.2520  146.6650 S   0  0  0  0  0  0  0  0  0  0  0  0
  186.2760  178.5780  140.0320 C   0  0  0  0  0  3  0  0  0  0  0  0
  188.7820  177.6510  144.8490 C   0  0  0  0  0  3  0  0  0  0  0  0
  187.5280  178.1460  140.6610 C   0  0  0  0  0  0  0  0  0  0  0  0
  185.2250  178.7440  142.2380 C   0  0  0  0  0  0  0  0  0  0  0  0
  190.6790  176.6810  139.7100 C   0  0  2  0  0  3  0  0  0  0  0  0
  191.5290  177.4700  140.4890 O   0  0  0  0  0  1  0  0  0  0  0  0
  191.4450  176.0490  138.5980 C   0  0  0  0  0  0  0  0  0  0  0  0
  191.0520  174.8120  138.1080 O   0  0  0  0  0  1  0  0  0  0  0  0
  192.4350  176.6380  138.0860 O   0  0  0  0  0  0  0  0  0  0  0  0
  1 15  2  0  0  0  0
  1  4  1  0  0  0  0
  2  1  1  0  0  0  0
  3 15  1  0  0  0  0
  4  8  1  0  0  0  0
  5 19  2  0  0  0  0
  6  9  1  0  0  0  0
  7  3  2  0  0  0  0
  8 16  1  0  0  0  0
  8  9  2  0  0  0  0
 10 20  1  0  0  0  0
 11 10  1  0  0  0  0
 12 21  1  0  0  0  0
 12  5  2  0  0  0  0
 13  2  1  0  0  0  0
 14  6  2  0  0  0  0
 15 16  1  0  0  0  0
 17 19  1  0  0  0  0
 17 10  2  0  0  0  0
 18  4  2  0  0  0  0
 18 14  1  0  0  0  0
 19 13  1  0  0  0  0
 20  2  2  0  0  0  0
 20  7  1  0  0  0  0
 21 22  1  6  0  0  0
 23 21  1  0  0  0  0
 24 23  1  0  0  0  0
 25 23  2  0  0  0  0
M  END
>  <MODEL>
7

>  <REMARK>
 VINA RESULT:      -9.9      2.619      4.633
  Name = 
  2 active torsions:
  status: ('A' for Active; 'I' for Inactive)
    1  A    between atoms: C_2  and  C_21
    2  A    between atoms: C_15  and  C_21
                            x       y       z     vdW  Elec       q    Type
                         _______ _______ _______ _____ _____    ______ ____

>  <TORSDO>
F 2

$$$$
=
 OpenBabel11032419193D

 25 28  0  0  1  0  0  0  0  0999 V2000
  187.1680  178.0250  145.2100 C   0  0  0  0  0  0  0  0  0  0  0  0
  186.2860  178.3760  144.1650 C   0  0  0  0  0  0  0  0  0  0  0  0
  185.3640  178.1750  146.8460 C   0  0  0  0  0  3  0  0  0  0  0  0
  188.5460  177.7390  145.1360 C   0  0  0  0  0  0  0  0  0  0  0  0
  185.9990  178.6220  140.4690 C   0  0  0  0  0  0  0  0  0  0  0  0
  191.2600  177.1100  145.3860 C   0  0  0  0  0  3  0  0  0  0  0  0
  184.4820  178.5230  145.8180 C   0  0  0  0  0  3  0  0  0  0  0  0
  189.1010  177.4320  146.3780 C   0  0  0  0  0  0  0  0  0  0  0  0
  190.4490  177.1150  146.5300 C   0  0  0  0  0  3  0  0  0  0  0  0
  183.9560  178.9760  143.4180 C   0  0  0  0  0  0  0  0  0  0  0  0
  182.2870  179.3670  143.8030 Cl  0  0  0  0  0  0  0  0  0  0  0  0
  186.3100  178.5870  139.2030 C   0  0  0  0  0  3  0  0  0  0  0  0
  186.7900  178.5440  142.7520 C   0  0  0  0  0  2  0  0  0  0  0  0
  190.7160  177.4160  144.1260 C   0  0  0  0  0  3  0  0  0  0  0  0
  186.6910  177.9310  146.5180 C   0  0  0  0  0  0  0  0  0  0  0  0
  187.9280  177.5040  147.5820 S   0  0  0  0  0  0  0  0  0  0  0  0
  184.3200  178.9710  142.1370 C   0  0  0  0  0  3  0  0  0  0  0  0
  189.3550  177.7320  143.9950 C   0  0  0  0  0  3  0  0  0  0  0  0
  185.6940  178.6540  141.7350 C   0  0  0  0  0  0  0  0  0  0  0  0
  184.9250  178.6280  144.4840 C   0  0  0  0  0  0  0  0  0  0  0  0
  187.5360  177.8760  138.7390 C   0  0  2  0  0  3  0  0  0  0  0  0
  188.5310  177.9390  139.7180 O   0  0  0  0  0  1  0  0  0  0  0  0
  188.0310  178.4770  137.4680 C   0  0  0  0  0  0  0  0  0  0  0  0
  187.5030  178.0560  136.2560 O   0  0  0  0  0  0  0  0  0  0  0  0
  188.9110  179.3800  137.4870 O   0  0  0  0  0  1  0  0  0  0  0  0
  1 15  2  0  0  0  0
  2 20  2  0  0  0  0
  2  1  1  0  0  0  0
  4  1  1  0  0  0  0
  4  8  1  0  0  0  0
  5 19  2  0  0  0  0
  6  9  1  0  0  0  0
  7  3  2  0  0  0  0
  8  9  2  0  0  0  0
  8 16  1  0  0  0  0
 10 11  1  0  0  0  0
 10 20  1  0  0  0  0
 12  5  2  0  0  0  0
 13  2  1  0  0  0  0
 14  6  2  0  0  0  0
 15  3  1  0  0  0  0
 15 16  1  0  0  0  0
 17 10  2  0  0  0  0
 18 14  1  0  0  0  0
 18  4  2  0  0  0  0
 19 17  1  0  0  0  0
 19 13  1  0  0  0  0
 20  7  1  0  0  0  0
 21 12  1  0  0  0  0
 21 22  1  1  0  0  0
 23 25  1  0  0  0  0
 23 21  1  0  0  0  0
 24 23  2  0  0  0  0
M  END
>  <MODEL>
8

>  <REMARK>
 VINA RESULT:      -9.8      2.715      4.977
  Name = 
  2 active torsions:
  status: ('A' for Active; 'I' for Inactive)
    1  A    between atoms: C_2  and  C_21
    2  A    between atoms: C_15  and  C_21
                            x       y       z     vdW  Elec       q    Type
                         _______ _______ _______ _____ _____    ______ ____

>  <TORSDO>
F 2

$$$$
=
 OpenBabel11032419193D

 25 28  0  0  1  0  0  0  0  0999 V2000
  185.6020  178.3950  144.2840 C   0  0  0  0  0  0  0  0  0  0  0  0
  186.7170  177.9840  145.0460 C   0  0  0  0  0  0  0  0  0  0  0  0
  184.2890  178.7500  146.3090 C   0  0  0  0  0  3  0  0  0  0  0  0
  185.4850  178.4920  142.8820 C   0  0  0  0  0  0  0  0  0  0  0  0
  190.3310  177.1510  144.8260 C   0  0  0  0  0  0  0  0  0  0  0  0
  184.8800  178.8120  140.1710 C   0  0  0  0  0  3  0  0  0  0  0  0
  185.3870  178.3450  147.0730 C   0  0  0  0  0  3  0  0  0  0  0  0
  184.2280  178.9330  142.4740 C   0  0  0  0  0  0  0  0  0  0  0  0
  183.9000  179.1020  141.1310 C   0  0  0  0  0  3  0  0  0  0  0  0
  187.7470  177.5590  147.3060 C   0  0  0  0  0  0  0  0  0  0  0  0
  187.5940  177.4490  149.0530 Cl  0  0  0  0  0  0  0  0  0  0  0  0
  191.5180  176.9320  144.3320 C   0  0  0  0  0  3  0  0  0  0  0  0
  187.9850  177.5170  144.3730 C   0  0  0  0  0  2  0  0  0  0  0  0
  186.1530  178.3660  140.5640 C   0  0  0  0  0  3  0  0  0  0  0  0
  184.4210  178.7680  144.9270 C   0  0  0  0  0  0  0  0  0  0  0  0
  183.2400  179.2140  143.8080 S   0  0  0  0  0  0  0  0  0  0  0  0
  188.9350  177.3010  146.7630 C   0  0  0  0  0  3  0  0  0  0  0  0
  186.4630  178.2030  141.9240 C   0  0  0  0  0  3  0  0  0  0  0  0
  189.1430  177.3720  145.3130 C   0  0  0  0  0  0  0  0  0  0  0  0
  186.5970  177.9610  146.4610 C   0  0  0  0  0  0  0  0  0  0  0  0
  191.8690  177.3960  142.9580 C   0  0  2  0  0  3  0  0  0  0  0  0
  191.7930  178.7890  142.8850 O   0  0  0  0  0  1  0  0  0  0  0  0
  190.9520  176.7810  141.9560 C   0  0  0  0  0  0  0  0  0  0  0  0
  190.7450  177.4100  140.7370 O   0  0  0  0  0  0  0  0  0  0  0  0
  190.3800  175.6850  142.2000 O   0  0  0  0  0  1  0  0  0  0  0  0
  1 15  1  0  0  0  0
  1  2  2  0  0  0  0
  2 20  1  0  0  0  0
  3  7  1  0  0  0  0
  4  1  1  0  0  0  0
  5 19  2  0  0  0  0
  6 14  2  0  0  0  0
  6  9  1  0  0  0  0
  8  4  1  0  0  0  0
  8 16  1  0  0  0  0
  9  8  2  0  0  0  0
 10 11  1  0  0  0  0
 12  5  2  0  0  0  0
 13  2  1  0  0  0  0
 13 19  1  0  0  0  0
 14 18  1  0  0  0  0
 15  3  2  0  0  0  0
 16 15  1  0  0  0  0
 17 10  2  0  0  0  0
 18  4  2  0  0  0  0
 19 17  1  0  0  0  0
 20  7  2  0  0  0  0
 20 10  1  0  0  0  0
 21 22  1  1  0  0  0
 21 12  1  0  0  0  0
 23 25  1  0  0  0  0
 23 21  1  0  0  0  0
 24 23  2  0  0  0  0
M  END
>  <MODEL>
9

>  <REMARK>
 VINA RESULT:      -9.7      2.028      3.316
  Name = 
  2 active torsions:
  status: ('A' for Active; 'I' for Inactive)
    1  A    between atoms: C_2  and  C_21
    2  A    between atoms: C_15  and  C_21
                            x       y       z     vdW  Elec       q    Type
                         _______ _______ _______ _____ _____    ______ ____

>  <TORSDO>
F 2

$$$$
