=
 OpenBabel11042413153D

 61 64  0  0  1  0  0  0  0  0999 V2000
  187.2870  177.8790  142.0370 C   0  0  0  0  0  2  0  0  0  0  0  0
  188.3630  178.2670  141.0360 C   0  0  0  0  0  2  0  0  0  0  0  0
  186.4630  178.3750  139.3320 C   0  0  0  0  0  0  0  0  0  0  0  0
  185.6050  178.6300  140.3350 C   0  0  0  0  0  3  0  0  0  0  0  0
  187.9000  177.9590  139.6080 C   0  0  1  0  0  3  0  0  0  0  0  0
  186.0450  178.7260  141.7770 C   0  0  1  0  0  3  0  0  0  0  0  0
  183.6270  178.3980  142.1010 N   0  0  0  0  0  1  0  0  0  0  0  0
  184.9310  178.3430  142.7490 C   0  0  2  0  0  3  0  0  0  0  0  0
  184.9480  179.2260  143.9860 C   0  0  0  0  0  2  0  0  0  0  0  0
  185.8400  178.6470  144.9930 C   0  0  0  0  0  0  0  0  0  0  0  0
  186.5540  178.1680  145.8370 C   0  0  0  0  0  0  0  0  0  0  0  0
  187.4780  178.4630  147.9650 O   0  0  0  0  0  1  0  0  0  0  0  0
  187.4030  177.5880  146.8800 C   0  0  2  0  0  3  0  0  0  0  0  0
  189.0700  177.3020  146.2190 P   0  0  2  0  0  0  0  0  0  0  0  0
  189.9040  176.2730  147.2730 O   0  0  0  0  0  1  0  0  0  0  0  0
  189.7910  178.6280  146.1340 O   0  0  0  0  0  0  0  0  0  0  0  0
  188.9210  176.6120  144.6720 O   0  0  0  0  0  0  0  0  0  0  0  0
  191.6500  176.2500  145.1640 O   0  0  0  0  0  1  0  0  0  0  0  0
  190.7690  177.8890  143.3390 O   0  0  0  0  0  1  0  0  0  0  0  0
  190.5450  175.3510  142.7930 O   0  0  0  0  0  0  0  0  0  0  0  0
  190.4760  176.5520  143.9820 P   0  0  0  0  0  0  0  0  0  0  0  0
  185.7800  178.1640  137.6800 S   0  0  0  0  0  0  0  0  0  0  0  0
  184.0480  178.2900  138.2270 C   0  0  0  0  0  2  0  0  0  0  0  0
  183.4050  176.9050  138.2570 C   0  0  0  0  0  2  0  0  0  0  0  0
  182.2580  176.7860  137.3450 N   0  0  0  0  0  0  0  0  0  0  0  0
  182.6020  176.0210  136.1210 C   0  0  1  0  0  3  0  0  0  0  0  0
  182.8940  174.5510  136.4560 C   0  0  1  0  0  3  0  0  0  0  0  0
  181.7760  173.7370  136.2480 O   0  0  0  0  0  1  0  0  0  0  0  0
  184.1220  172.6100  135.7380 O   0  0  0  0  0  1  0  0  0  0  0  0
  184.1170  174.0060  135.7280 C   0  0  0  0  0  2  0  0  0  0  0  0
  181.4910  176.1140  135.0680 C   0  0  0  0  0  2  0  0  0  0  0  0
  181.3360  177.5550  134.6170 C   0  0  0  0  0  1  0  0  0  0  0  0
  181.1100  176.2680  138.1210 C   0  0  1  0  0  3  0  0  0  0  0  0
  180.5250  175.0290  140.1050 O   0  0  0  0  0  1  0  0  0  0  0  0
  181.5520  175.7450  139.4860 C   0  0  0  0  0  2  0  0  0  0  0  0
  179.8820  177.1900  138.1850 C   0  0  0  0  0  2  0  0  0  0  0  0
  179.8390  180.1280  140.6760 C   0  0  0  0  0  0  0  0  0  0  0  0
  180.0980  181.0170  138.3470 C   0  0  1  0  0  3  0  0  0  0  0  0
  179.7560  178.7040  140.1780 C   0  0  0  0  0  2  0  0  0  0  0  0
  179.6270  179.6420  137.8660 C   0  0  0  0  0  2  0  0  0  0  0  0
  179.6660  180.3920  142.1320 C   0  0  0  0  0  1  0  0  0  0  0  0
  179.9150  181.1730  139.8370 C   0  0  0  0  0  3  0  0  0  0  0  0
  180.2490  178.5570  138.7370 C   0  0  2  0  0  3  0  0  0  0  0  0
  181.4480  181.1880  138.0240 O   0  0  0  0  0  0  0  0  0  0  0  0
  181.7070  182.5420  138.2590 C   0  0  0  0  0  2  0  0  0  0  0  0
  181.2780  183.3530  137.0540 C   0  0  0  0  0  2  0  0  0  0  0  0
  181.8300  184.6330  137.1250 O   0  0  0  0  0  1  0  0  0  0  0  0
  188.8690  178.5910  138.6250 C   0  0  0  0  0  2  0  0  0  0  0  0
  188.9420  177.7740  137.3460 C   0  0  0  0  0  2  0  0  0  0  0  0
  189.6040  176.5070  137.6170 N   0  0  0  0  0  2  0  0  0  0  0  0
  191.0390  176.7530  137.6260 C   0  0  0  0  0  2  0  0  0  0  0  0
  191.8040  175.5120  138.0960 C   0  0  0  0  0  2  0  0  0  0  0  0
  196.6730  172.8690  137.3970 C   0  0  0  0  0  2  0  0  0  0  0  0
  194.3250  175.3230  138.3040 C   0  0  0  0  0  2  0  0  0  0  0  0
  196.2920  173.7940  138.2570 C   0  0  0  0  0  2  0  0  0  0  0  0
  193.1570  173.8690  136.7060 C   0  0  0  0  0  2  0  0  0  0  0  0
  193.2910  176.3060  136.2780 C   0  0  0  0  0  1  0  0  0  0  0  0
  194.8910  173.9940  138.3060 N   0  0  2  0  0  0  0  0  0  0  0  0
  194.1380  173.0460  137.5180 C   0  0  2  0  0  3  0  0  0  0  0  0
  193.1280  175.2550  137.3590 C   0  0  1  0  0  0  0  0  0  0  0  0
  195.3230  172.1730  136.4450 S   0  0  0  0  0  0  0  0  0  0  0  0
  2  1  1  0  0  0  0
  3  5  1  0  0  0  0
  3  4  2  0  0  0  0
  4  6  1  0  0  0  0
  5 48  1  6  0  0  0
  5  2  1  0  0  0  0
  6  1  1  0  0  0  0
  6  8  1  1  0  0  0
  8  7  1  6  0  0  0
  8  9  1  0  0  0  0
  9 10  1  0  0  0  0
 10 11  3  0  0  0  0
 11 13  1  0  0  0  0
 13 12  1  1  0  0  0
 14 16  2  6  0  0  0
 14 13  1  0  0  0  0
 14 15  1  0  0  0  0
 17 14  1  0  0  0  0
 19 21  1  0  0  0  0
 20 21  2  0  0  0  0
 21 17  1  0  0  0  0
 21 18  1  0  0  0  0
 22 23  1  0  0  0  0
 22  3  1  0  0  0  0
 23 24  1  0  0  0  0
 25 33  1  0  0  0  0
 25 24  1  0  0  0  0
 26 31  1  6  0  0  0
 26 27  1  0  0  0  0
 26 25  1  0  0  0  0
 27 28  1  6  0  0  0
 30 29  1  0  0  0  0
 30 27  1  0  0  0  0
 32 31  1  0  0  0  0
 33 36  1  1  0  0  0
 33 35  1  0  0  0  0
 35 34  1  0  0  0  0
 37 41  1  0  0  0  0
 38 44  1  1  0  0  0
 38 42  1  0  0  0  0
 39 37  1  0  0  0  0
 40 38  1  0  0  0  0
 40 43  1  0  0  0  0
 42 37  2  0  0  0  0
 43 36  1  6  0  0  0
 43 39  1  0  0  0  0
 44 45  1  0  0  0  0
 46 47  1  0  0  0  0
 46 45  1  0  0  0  0
 49 50  1  0  0  0  0
 49 48  1  0  0  0  0
 50 51  1  0  0  0  0
 51 52  1  0  0  0  0
 53 55  1  0  0  0  0
 54 58  1  0  0  0  0
 56 60  1  0  0  0  0
 58 55  1  6  0  0  0
 59 56  1  6  0  0  0
 59 58  1  0  0  0  0
 60 57  1  6  0  0  0
 60 52  1  0  0  0  0
 60 54  1  0  0  0  0
 61 53  1  0  0  0  0
 61 59  1  0  0  0  0
M  END
>  <MODEL>
1

>  <REMARK>
 VINA RESULT:      -5.9      0.000      0.000
  Name = 
  28 active torsions:
  status: ('A' for Active; 'I' for Inactive)
    1  A    between atoms: N_1  and  C_24
    2  A    between atoms: N_1  and  C_35
    3  A    between atoms: N_1  and  C_52
    4  A    between atoms: C_3  and  C_52
    5  A    between atoms: C_6  and  C_35
    6  A    between atoms: C_6  and  C_61
    7  A    between atoms: C_7  and  C_15
    8  A    between atoms: P_10  and  O_27
    9  A    between atoms: P_10  and  C_60
   10  A    between atoms: C_15  and  C_29
   11  A    between atoms: O_16  and  C_28
   12  A    between atoms: O_16  and  C_47
   13  A    between atoms: C_17  and  C_52
   14  A    between atoms: C_17  and  C_57
   15  A    between atoms: C_18  and  C_24
   16  A    between atoms: C_18  and  S_43
   17  A    between atoms: C_19  and  C_25
   18  A    between atoms: C_19  and  N_39
   19  A    between atoms: C_21  and  C_50
   20  A    between atoms: C_21  and  C_53
   21  A    between atoms: C_23  and  C_60
   22  A    between atoms: C_25  and  C_49
   23  A    between atoms: O_27  and  P_58
   24  A    between atoms: C_29  and  C_59
   25  A    between atoms: C_34  and  C_47
   26  A    between atoms: C_35  and  C_56
   27  A    between atoms: N_39  and  C_53
   28  A    between atoms: C_42  and  S_43
                            x       y       z     vdW  Elec       q    Type
                         _______ _______ _______ _____ _____    ______ ____

>  <TORSDO>
F 28

$$$$
=
 OpenBabel11042413153D

 61 64  0  0  1  0  0  0  0  0999 V2000
  186.9200  178.4900  141.9490 C   0  0  0  0  0  2  0  0  0  0  0  0
  187.7920  178.5100  140.7050 C   0  0  0  0  0  2  0  0  0  0  0  0
  185.5970  178.4490  139.4020 C   0  0  0  0  0  0  0  0  0  0  0  0
  184.9830  179.0250  140.4490 C   0  0  0  0  0  3  0  0  0  0  0  0
  187.0270  177.9410  139.5060 C   0  0  1  0  0  3  0  0  0  0  0  0
  185.7140  179.3950  141.7180 C   0  0  1  0  0  3  0  0  0  0  0  0
  185.2370  180.3440  143.9390 N   0  0  0  0  0  1  0  0  0  0  0  0
  184.7980  179.3770  142.9410 C   0  0  2  0  0  3  0  0  0  0  0  0
  184.7150  177.9860  143.5490 C   0  0  0  0  0  2  0  0  0  0  0  0
  185.8390  177.7810  144.4660 C   0  0  0  0  0  0  0  0  0  0  0  0
  186.7470  177.6060  145.2380 C   0  0  0  0  0  0  0  0  0  0  0  0
  187.8360  178.4220  147.1390 O   0  0  0  0  0  1  0  0  0  0  0  0
  187.8340  177.3930  146.1960 C   0  0  2  0  0  3  0  0  0  0  0  0
  189.4240  177.3750  145.3190 P   0  0  2  0  0  0  0  0  0  0  0  0
  190.5940  176.6830  146.3270 O   0  0  0  0  0  1  0  0  0  0  0  0
  189.8150  178.8000  144.9970 O   0  0  0  0  0  0  0  0  0  0  0  0
  189.2340  176.4790  143.8870 O   0  0  0  0  0  0  0  0  0  0  0  0
  191.8110  175.3980  143.7660 O   0  0  0  0  0  1  0  0  0  0  0  0
  191.3140  177.8850  143.1630 O   0  0  0  0  0  1  0  0  0  0  0  0
  190.5050  176.1100  141.4350 O   0  0  0  0  0  0  0  0  0  0  0  0
  190.7270  176.4950  143.0670 P   0  0  0  0  0  0  0  0  0  0  0  0
  184.5780  177.9480  138.0050 S   0  0  0  0  0  0  0  0  0  0  0  0
  183.0020  178.2550  138.8640 C   0  0  0  0  0  2  0  0  0  0  0  0
  182.0120  178.9330  137.9190 C   0  0  0  0  0  2  0  0  0  0  0  0
  180.6640  179.0560  138.4930 N   0  0  0  0  0  0  0  0  0  0  0  0
  180.3780  180.4420  138.9390 C   0  0  1  0  0  3  0  0  0  0  0  0
  180.3150  180.5230  140.4720 C   0  0  1  0  0  3  0  0  0  0  0  0
  179.3120  181.3960  140.9070 O   0  0  0  0  0  1  0  0  0  0  0  0
  181.3110  178.8620  141.8990 O   0  0  0  0  0  1  0  0  0  0  0  0
  180.1820  179.1570  141.1350 C   0  0  0  0  0  2  0  0  0  0  0  0
  181.4160  181.4330  138.3990 C   0  0  0  0  0  2  0  0  0  0  0  0
  180.7080  182.6270  137.7850 C   0  0  0  0  0  1  0  0  0  0  0  0
  179.7020  178.4850  137.5260 C   0  0  1  0  0  3  0  0  0  0  0  0
  179.1910  178.5630  135.1710 O   0  0  0  0  0  1  0  0  0  0  0  0
  180.2350  178.5650  136.0970 C   0  0  0  0  0  2  0  0  0  0  0  0
  179.1340  177.1040  137.8920 C   0  0  0  0  0  2  0  0  0  0  0  0
  179.6600  173.7610  136.0500 C   0  0  0  0  0  0  0  0  0  0  0  0
  181.6060  174.1870  137.5720 C   0  0  1  0  0  3  0  0  0  0  0  0
  178.9710  175.0310  136.4930 C   0  0  0  0  0  2  0  0  0  0  0  0
  180.7220  175.2270  138.2640 C   0  0  0  0  0  2  0  0  0  0  0  0
  178.9590  172.8580  135.0950 C   0  0  0  0  0  1  0  0  0  0  0  0
  180.8130  173.3480  136.5990 C   0  0  0  0  0  3  0  0  0  0  0  0
  179.9180  175.9900  137.2180 C   0  0  2  0  0  3  0  0  0  0  0  0
  182.6420  174.8340  136.8890 O   0  0  0  0  0  0  0  0  0  0  0  0
  183.4370  173.8030  136.3780 C   0  0  0  0  0  2  0  0  0  0  0  0
  184.8020  173.8490  137.0320 C   0  0  0  0  0  2  0  0  0  0  0  0
  184.8940  172.8520  138.0060 O   0  0  0  0  0  1  0  0  0  0  0  0
  187.8170  178.2140  138.2380 C   0  0  0  0  0  2  0  0  0  0  0  0
  189.3080  178.2050  138.5270 C   0  0  0  0  0  2  0  0  0  0  0  0
  190.0190  177.6310  137.3940 N   0  0  0  0  0  2  0  0  0  0  0  0
  190.2880  176.2350  137.7040 C   0  0  0  0  0  2  0  0  0  0  0  0
  191.7740  176.0160  138.0040 C   0  0  0  0  0  2  0  0  0  0  0  0
  196.4450  174.0640  135.6490 C   0  0  0  0  0  2  0  0  0  0  0  0
  193.6230  176.0670  136.2690 C   0  0  0  0  0  2  0  0  0  0  0  0
  195.9030  175.2660  135.6560 C   0  0  0  0  0  2  0  0  0  0  0  0
  193.2300  173.9900  137.5200 C   0  0  0  0  0  2  0  0  0  0  0  0
  191.5510  174.7690  135.8730 C   0  0  0  0  0  1  0  0  0  0  0  0
  194.8730  175.4280  136.6150 N   0  0  2  0  0  0  0  0  0  0  0  0
  194.7150  174.2970  137.4990 C   0  0  2  0  0  3  0  0  0  0  0  0
  192.5370  175.2240  136.9310 C   0  0  1  0  0  0  0  0  0  0  0  0
  195.6710  172.9180  136.7910 S   0  0  0  0  0  0  0  0  0  0  0  0
  2  1  1  0  0  0  0
  3  5  1  0  0  0  0
  3  4  2  0  0  0  0
  4  6  1  0  0  0  0
  5 48  1  6  0  0  0
  5  2  1  0  0  0  0
  6  1  1  0  0  0  0
  6  8  1  1  0  0  0
  8  9  1  0  0  0  0
  8  7  1  1  0  0  0
  9 10  1  0  0  0  0
 10 11  3  0  0  0  0
 11 13  1  0  0  0  0
 13 12  1  1  0  0  0
 14 16  2  6  0  0  0
 14 13  1  0  0  0  0
 14 15  1  0  0  0  0
 17 14  1  0  0  0  0
 20 21  2  0  0  0  0
 21 19  1  0  0  0  0
 21 18  1  0  0  0  0
 21 17  1  0  0  0  0
 22 23  1  0  0  0  0
 22  3  1  0  0  0  0
 24 25  1  0  0  0  0
 24 23  1  0  0  0  0
 25 26  1  0  0  0  0
 26 31  1  1  0  0  0
 26 27  1  0  0  0  0
 27 28  1  6  0  0  0
 27 30  1  0  0  0  0
 30 29  1  0  0  0  0
 32 31  1  0  0  0  0
 33 35  1  6  0  0  0
 33 36  1  0  0  0  0
 33 25  1  0  0  0  0
 34 35  1  0  0  0  0
 37 39  1  0  0  0  0
 37 42  2  0  0  0  0
 38 44  1  6  0  0  0
 38 40  1  0  0  0  0
 39 43  1  0  0  0  0
 41 37  1  0  0  0  0
 42 38  1  0  0  0  0
 43 36  1  1  0  0  0
 43 40  1  0  0  0  0
 45 44  1  0  0  0  0
 45 46  1  0  0  0  0
 46 47  1  0  0  0  0
 48 49  1  0  0  0  0
 50 51  1  0  0  0  0
 50 49  1  0  0  0  0
 51 52  1  0  0  0  0
 53 55  1  0  0  0  0
 53 61  1  0  0  0  0
 54 58  1  0  0  0  0
 54 60  1  0  0  0  0
 58 55  1  6  0  0  0
 58 59  1  0  0  0  0
 59 56  1  6  0  0  0
 60 57  1  6  0  0  0
 60 56  1  0  0  0  0
 60 52  1  0  0  0  0
 61 59  1  0  0  0  0
M  END
>  <MODEL>
2

>  <REMARK>
 VINA RESULT:      -5.6      1.798      4.599
  Name = 
  28 active torsions:
  status: ('A' for Active; 'I' for Inactive)
    1  A    between atoms: N_1  and  C_24
    2  A    between atoms: N_1  and  C_35
    3  A    between atoms: N_1  and  C_52
    4  A    between atoms: C_3  and  C_52
    5  A    between atoms: C_6  and  C_35
    6  A    between atoms: C_6  and  C_61
    7  A    between atoms: C_7  and  C_15
    8  A    between atoms: P_10  and  O_27
    9  A    between atoms: P_10  and  C_60
   10  A    between atoms: C_15  and  C_29
   11  A    between atoms: O_16  and  C_28
   12  A    between atoms: O_16  and  C_47
   13  A    between atoms: C_17  and  C_52
   14  A    between atoms: C_17  and  C_57
   15  A    between atoms: C_18  and  C_24
   16  A    between atoms: C_18  and  S_43
   17  A    between atoms: C_19  and  C_25
   18  A    between atoms: C_19  and  N_39
   19  A    between atoms: C_21  and  C_50
   20  A    between atoms: C_21  and  C_53
   21  A    between atoms: C_23  and  C_60
   22  A    between atoms: C_25  and  C_49
   23  A    between atoms: O_27  and  P_58
   24  A    between atoms: C_29  and  C_59
   25  A    between atoms: C_34  and  C_47
   26  A    between atoms: C_35  and  C_56
   27  A    between atoms: N_39  and  C_53
   28  A    between atoms: C_42  and  S_43
                            x       y       z     vdW  Elec       q    Type
                         _______ _______ _______ _____ _____    ______ ____

>  <TORSDO>
F 28

$$$$
=
 OpenBabel11042413153D

 61 64  0  0  1  0  0  0  0  0999 V2000
  187.0780  178.1160  142.6780 C   0  0  0  0  0  2  0  0  0  0  0  0
  188.2790  178.0790  141.7480 C   0  0  0  0  0  2  0  0  0  0  0  0
  186.5810  178.3550  139.8610 C   0  0  0  0  0  0  0  0  0  0  0  0
  185.7480  178.9590  140.7270 C   0  0  0  0  0  3  0  0  0  0  0  0
  187.8490  177.6640  140.3370 C   0  0  1  0  0  3  0  0  0  0  0  0
  186.1020  179.1770  142.1790 C   0  0  1  0  0  3  0  0  0  0  0  0
  184.9180  180.3640  143.9810 N   0  0  0  0  0  1  0  0  0  0  0  0
  184.8670  179.2230  143.0760 C   0  0  2  0  0  3  0  0  0  0  0  0
  184.7030  177.9310  143.8590 C   0  0  0  0  0  2  0  0  0  0  0  0
  185.4620  178.0130  145.1090 C   0  0  0  0  0  0  0  0  0  0  0  0
  186.0640  178.0800  146.1510 C   0  0  0  0  0  0  0  0  0  0  0  0
  186.6400  179.4550  147.9520 O   0  0  0  0  0  1  0  0  0  0  0  0
  186.7740  178.1680  147.4290 C   0  0  2  0  0  3  0  0  0  0  0  0
  188.5340  177.8010  147.1730 P   0  0  2  0  0  0  0  0  0  0  0  0
  188.7830  176.1430  147.4060 O   0  0  0  0  0  0  0  0  0  0  0  0
  189.3430  178.5790  148.1880 O   0  0  0  0  0  1  0  0  0  0  0  0
  188.9560  178.2750  145.5960 O   0  0  0  0  0  0  0  0  0  0  0  0
  191.4490  178.6060  144.3710 O   0  0  0  0  0  1  0  0  0  0  0  0
  190.1740  176.3330  144.3440 O   0  0  0  0  0  0  0  0  0  0  0  0
  191.2220  177.0240  146.6270 O   0  0  0  0  0  1  0  0  0  0  0  0
  190.4430  177.5380  145.2170 P   0  0  0  0  0  0  0  0  0  0  0  0
  185.9770  178.0510  138.1930 S   0  0  0  0  0  0  0  0  0  0  0  0
  184.2450  177.8250  138.7090 C   0  0  0  0  0  2  0  0  0  0  0  0
  183.3060  178.1550  137.5510 C   0  0  0  0  0  2  0  0  0  0  0  0
  181.9270  177.7000  137.7850 N   0  0  0  0  0  0  0  0  0  0  0  0
  180.9900  178.8390  137.9470 C   0  0  1  0  0  3  0  0  0  0  0  0
  180.0910  178.6390  139.1770 C   0  0  1  0  0  3  0  0  0  0  0  0
  178.9560  177.8780  138.8750 O   0  0  0  0  0  1  0  0  0  0  0  0
  180.3120  176.8250  140.7420 O   0  0  0  0  0  1  0  0  0  0  0  0
  180.8390  178.0630  140.3740 C   0  0  0  0  0  2  0  0  0  0  0  0
  181.7370  180.1730  138.0490 C   0  0  0  0  0  2  0  0  0  0  0  0
  180.8580  181.2910  137.5180 C   0  0  0  0  0  1  0  0  0  0  0  0
  181.5790  176.7330  136.7210 C   0  0  1  0  0  3  0  0  0  0  0  0
  182.0330  177.8930  134.6580 O   0  0  0  0  0  1  0  0  0  0  0  0
  182.4930  176.8860  135.5080 C   0  0  0  0  0  2  0  0  0  0  0  0
  181.4090  175.2760  137.1800 C   0  0  0  0  0  2  0  0  0  0  0  0
  183.4510  172.0900  136.4580 C   0  0  0  0  0  0  0  0  0  0  0  0
  184.8700  173.7150  137.7340 C   0  0  1  0  0  3  0  0  0  0  0  0
  182.2610  173.0200  136.4980 C   0  0  0  0  0  2  0  0  0  0  0  0
  183.5680  174.4380  138.0860 C   0  0  0  0  0  2  0  0  0  0  0  0
  183.2910  170.7420  135.8450 C   0  0  0  0  0  1  0  0  0  0  0  0
  184.6020  172.3790  137.0860 C   0  0  0  0  0  3  0  0  0  0  0  0
  182.6480  174.4520  136.8710 C   0  0  2  0  0  3  0  0  0  0  0  0
  185.6250  174.5100  136.8650 O   0  0  0  0  0  0  0  0  0  0  0  0
  186.7780  173.7630  136.6030 C   0  0  0  0  0  2  0  0  0  0  0  0
  187.8870  174.6910  136.1530 C   0  0  0  0  0  2  0  0  0  0  0  0
  188.7400  174.0180  135.2760 O   0  0  0  0  0  1  0  0  0  0  0  0
  189.0070  177.8900  139.3800 C   0  0  0  0  0  2  0  0  0  0  0  0
  190.3080  177.3980  139.9910 C   0  0  0  0  0  2  0  0  0  0  0  0
  191.3350  177.3360  138.9630 N   0  0  0  0  0  2  0  0  0  0  0  0
  190.7480  176.7040  137.7910 C   0  0  0  0  0  2  0  0  0  0  0  0
  191.2290  175.2560  137.6510 C   0  0  0  0  0  2  0  0  0  0  0  0
  196.2650  173.5460  135.9480 C   0  0  0  0  0  2  0  0  0  0  0  0
  193.6470  175.6480  136.9920 C   0  0  0  0  0  2  0  0  0  0  0  0
  195.8840  174.6090  136.6300 C   0  0  0  0  0  2  0  0  0  0  0  0
  192.5630  173.5480  136.3230 C   0  0  0  0  0  2  0  0  0  0  0  0
  191.8500  175.6840  135.2880 C   0  0  0  0  0  1  0  0  0  0  0  0
  194.5570  174.5330  137.1220 N   0  0  2  0  0  0  0  0  0  0  0  0
  193.9290  173.2500  136.9100 C   0  0  2  0  0  3  0  0  0  0  0  0
  192.3110  175.0380  136.5810 C   0  0  1  0  0  0  0  0  0  0  0  0
  194.9710  172.3230  135.7390 S   0  0  0  0  0  0  0  0  0  0  0  0
  2  1  1  0  0  0  0
  3  5  1  0  0  0  0
  3  4  2  0  0  0  0
  4  6  1  0  0  0  0
  5 48  1  6  0  0  0
  5  2  1  0  0  0  0
  6  1  1  0  0  0  0
  6  8  1  1  0  0  0
  8  9  1  0  0  0  0
  8  7  1  1  0  0  0
  9 10  1  0  0  0  0
 10 11  3  0  0  0  0
 11 13  1  0  0  0  0
 13 12  1  6  0  0  0
 14 15  2  1  0  0  0
 14 13  1  0  0  0  0
 14 16  1  0  0  0  0
 17 14  1  0  0  0  0
 18 21  1  0  0  0  0
 19 21  2  0  0  0  0
 21 17  1  0  0  0  0
 21 20  1  0  0  0  0
 22 23  1  0  0  0  0
 22  3  1  0  0  0  0
 24 25  1  0  0  0  0
 24 23  1  0  0  0  0
 25 26  1  0  0  0  0
 26 31  1  1  0  0  0
 26 27  1  0  0  0  0
 27 28  1  6  0  0  0
 27 30  1  0  0  0  0
 30 29  1  0  0  0  0
 32 31  1  0  0  0  0
 33 35  1  6  0  0  0
 33 36  1  0  0  0  0
 33 25  1  0  0  0  0
 34 35  1  0  0  0  0
 37 39  1  0  0  0  0
 37 42  2  0  0  0  0
 38 44  1  6  0  0  0
 38 40  1  0  0  0  0
 39 43  1  0  0  0  0
 41 37  1  0  0  0  0
 42 38  1  0  0  0  0
 43 36  1  1  0  0  0
 43 40  1  0  0  0  0
 45 44  1  0  0  0  0
 46 45  1  0  0  0  0
 47 46  1  0  0  0  0
 48 49  1  0  0  0  0
 50 49  1  0  0  0  0
 51 50  1  0  0  0  0
 52 51  1  0  0  0  0
 53 55  1  0  0  0  0
 54 58  1  0  0  0  0
 56 60  1  0  0  0  0
 58 55  1  6  0  0  0
 59 56  1  6  0  0  0
 59 58  1  0  0  0  0
 60 57  1  6  0  0  0
 60 54  1  0  0  0  0
 60 52  1  0  0  0  0
 61 53  1  0  0  0  0
 61 59  1  0  0  0  0
M  END
>  <MODEL>
3

>  <REMARK>
 VINA RESULT:      -5.2      1.863      4.780
  Name = 
  28 active torsions:
  status: ('A' for Active; 'I' for Inactive)
    1  A    between atoms: N_1  and  C_24
    2  A    between atoms: N_1  and  C_35
    3  A    between atoms: N_1  and  C_52
    4  A    between atoms: C_3  and  C_52
    5  A    between atoms: C_6  and  C_35
    6  A    between atoms: C_6  and  C_61
    7  A    between atoms: C_7  and  C_15
    8  A    between atoms: P_10  and  O_27
    9  A    between atoms: P_10  and  C_60
   10  A    between atoms: C_15  and  C_29
   11  A    between atoms: O_16  and  C_28
   12  A    between atoms: O_16  and  C_47
   13  A    between atoms: C_17  and  C_52
   14  A    between atoms: C_17  and  C_57
   15  A    between atoms: C_18  and  C_24
   16  A    between atoms: C_18  and  S_43
   17  A    between atoms: C_19  and  C_25
   18  A    between atoms: C_19  and  N_39
   19  A    between atoms: C_21  and  C_50
   20  A    between atoms: C_21  and  C_53
   21  A    between atoms: C_23  and  C_60
   22  A    between atoms: C_25  and  C_49
   23  A    between atoms: O_27  and  P_58
   24  A    between atoms: C_29  and  C_59
   25  A    between atoms: C_34  and  C_47
   26  A    between atoms: C_35  and  C_56
   27  A    between atoms: N_39  and  C_53
   28  A    between atoms: C_42  and  S_43
                            x       y       z     vdW  Elec       q    Type
                         _______ _______ _______ _____ _____    ______ ____

>  <TORSDO>
F 28

$$$$
=
 OpenBabel11042413153D

 61 64  0  0  1  0  0  0  0  0999 V2000
  183.9980  176.6150  138.5190 C   0  0  0  0  0  2  0  0  0  0  0  0
  182.9790  177.2470  139.4520 C   0  0  0  0  0  2  0  0  0  0  0  0
  184.9550  178.5520  140.4080 C   0  0  0  0  0  0  0  0  0  0  0  0
  185.5870  178.4200  139.2290 C   0  0  0  0  0  3  0  0  0  0  0  0
  183.6690  177.7950  140.7050 C   0  0  1  0  0  3  0  0  0  0  0  0
  184.9750  177.6900  138.0560 C   0  0  1  0  0  3  0  0  0  0  0  0
  187.3280  177.7230  137.3310 N   0  0  0  0  0  1  0  0  0  0  0  0
  186.0330  177.0830  137.1370 C   0  0  2  0  0  3  0  0  0  0  0  0
  185.6130  177.1670  135.6780 C   0  0  0  0  0  2  0  0  0  0  0  0
  184.2840  176.5720  135.5130 C   0  0  0  0  0  0  0  0  0  0  0  0
  183.1980  176.0760  135.3540 C   0  0  0  0  0  0  0  0  0  0  0  0
  180.9470  176.0600  135.9870 O   0  0  0  0  0  1  0  0  0  0  0  0
  181.8820  175.4710  135.1350 C   0  0  2  0  0  3  0  0  0  0  0  0
  181.9690  173.6890  135.4750 P   0  0  2  0  0  0  0  0  0  0  0  0
  180.6780  172.9230  134.6930 O   0  0  0  0  0  0  0  0  0  0  0  0
  181.8530  173.4750  136.9680 O   0  0  0  0  0  1  0  0  0  0  0  0
  183.4640  173.1090  134.9120 O   0  0  0  0  0  0  0  0  0  0  0  0
  184.6470  173.2580  137.4420 O   0  0  0  0  0  1  0  0  0  0  0  0
  185.4210  171.5390  135.6420 O   0  0  0  0  0  0  0  0  0  0  0  0
  183.1180  171.0560  136.7620 O   0  0  0  0  0  1  0  0  0  0  0  0
  184.1870  172.2290  136.1780 P   0  0  0  0  0  0  0  0  0  0  0  0
  185.8540  179.3360  141.7560 S   0  0  0  0  0  0  0  0  0  0  0  0
  185.6870  177.9160  142.8820 C   0  0  0  0  0  2  0  0  0  0  0  0
  187.0140  177.1670  142.9830 C   0  0  0  0  0  2  0  0  0  0  0  0
  188.1730  178.0660  143.0810 N   0  0  0  0  0  0  0  0  0  0  0  0
  188.5040  178.3890  144.4910 C   0  0  1  0  0  3  0  0  0  0  0  0
  187.8340  177.3970  145.4530 C   0  0  1  0  0  3  0  0  0  0  0  0
  188.7720  176.6030  146.1210 O   0  0  0  0  0  1  0  0  0  0  0  0
  187.5410  178.4000  147.6200 O   0  0  0  0  0  1  0  0  0  0  0  0
  186.8820  178.0700  146.4350 C   0  0  0  0  0  2  0  0  0  0  0  0
  190.0200  178.4100  144.7230 C   0  0  0  0  0  2  0  0  0  0  0  0
  190.6300  179.5940  143.9950 C   0  0  0  0  0  1  0  0  0  0  0  0
  189.2740  177.4800  142.2840 C   0  0  1  0  0  3  0  0  0  0  0  0
  190.4590  175.6000  143.2190 O   0  0  0  0  0  1  0  0  0  0  0  0
  189.3450  175.9650  142.4610 C   0  0  0  0  0  2  0  0  0  0  0  0
  189.3410  177.9300  140.8160 C   0  0  0  0  0  2  0  0  0  0  0  0
  192.6890  176.7610  139.3080 C   0  0  0  0  0  0  0  0  0  0  0  0
  190.8270  176.2120  137.7230 C   0  0  1  0  0  3  0  0  0  0  0  0
  191.7350  177.4100  140.2840 C   0  0  0  0  0  2  0  0  0  0  0  0
  189.9730  177.1970  138.5250 C   0  0  0  0  0  2  0  0  0  0  0  0
  194.1490  176.7890  139.6030 C   0  0  0  0  0  1  0  0  0  0  0  0
  192.2810  176.2910  138.1190 C   0  0  0  0  0  3  0  0  0  0  0  0
  190.2750  177.0410  140.0110 C   0  0  2  0  0  3  0  0  0  0  0  0
  190.3590  174.9100  137.9330 O   0  0  0  0  0  0  0  0  0  0  0  0
  189.8950  174.4870  136.6830 C   0  0  0  0  0  2  0  0  0  0  0  0
  188.6960  173.5800  136.8720 C   0  0  0  0  0  2  0  0  0  0  0  0
  188.7120  172.5700  135.9090 O   0  0  0  0  0  1  0  0  0  0  0  0
  182.6810  178.6450  141.4850 C   0  0  0  0  0  2  0  0  0  0  0  0
  181.6220  179.2160  140.5580 C   0  0  0  0  0  2  0  0  0  0  0  0
  180.5530  179.8070  141.3490 N   0  0  0  0  0  2  0  0  0  0  0  0
  180.0020  180.9170  140.5860 C   0  0  0  0  0  2  0  0  0  0  0  0
  179.3940  180.4280  139.2680 C   0  0  0  0  0  2  0  0  0  0  0  0
  179.9670  184.4500  135.4370 C   0  0  0  0  0  2  0  0  0  0  0  0
  178.9650  181.4600  136.9910 C   0  0  0  0  0  2  0  0  0  0  0  0
  179.0290  183.5410  135.6210 C   0  0  0  0  0  2  0  0  0  0  0  0
  180.8580  182.2800  138.3250 C   0  0  0  0  0  2  0  0  0  0  0  0
  180.9270  179.9950  137.3680 C   0  0  0  0  0  1  0  0  0  0  0  0
  179.0910  182.8950  136.8810 N   0  0  2  0  0  0  0  0  0  0  0  0
  180.0750  183.4570  137.7760 C   0  0  2  0  0  3  0  0  0  0  0  0
  180.0240  181.0340  138.0040 C   0  0  1  0  0  0  0  0  0  0  0  0
  181.1360  184.5620  136.7920 S   0  0  0  0  0  0  0  0  0  0  0  0
  1  2  1  0  0  0  0
  2  5  1  0  0  0  0
  3  5  1  0  0  0  0
  3 22  1  0  0  0  0
  4  3  2  0  0  0  0
  5 48  1  6  0  0  0
  6  8  1  1  0  0  0
  6  1  1  0  0  0  0
  6  4  1  0  0  0  0
  8  7  1  6  0  0  0
  9  8  1  0  0  0  0
 10  9  1  0  0  0  0
 11 10  3  0  0  0  0
 13 11  1  0  0  0  0
 13 14  1  0  0  0  0
 13 12  1  1  0  0  0
 14 15  2  6  0  0  0
 14 16  1  0  0  0  0
 17 14  1  0  0  0  0
 17 21  1  0  0  0  0
 19 21  2  0  0  0  0
 21 20  1  0  0  0  0
 21 18  1  0  0  0  0
 22 23  1  0  0  0  0
 23 24  1  0  0  0  0
 24 25  1  0  0  0  0
 25 26  1  0  0  0  0
 26 31  1  6  0  0  0
 26 27  1  0  0  0  0
 27 28  1  1  0  0  0
 27 30  1  0  0  0  0
 30 29  1  0  0  0  0
 32 31  1  0  0  0  0
 33 36  1  6  0  0  0
 33 35  1  0  0  0  0
 33 25  1  0  0  0  0
 35 34  1  0  0  0  0
 37 41  1  0  0  0  0
 37 39  1  0  0  0  0
 38 44  1  1  0  0  0
 38 42  1  0  0  0  0
 38 40  1  0  0  0  0
 40 43  1  0  0  0  0
 42 37  2  0  0  0  0
 43 39  1  0  0  0  0
 43 36  1  1  0  0  0
 45 46  1  0  0  0  0
 45 44  1  0  0  0  0
 47 46  1  0  0  0  0
 49 50  1  0  0  0  0
 49 48  1  0  0  0  0
 51 50  1  0  0  0  0
 52 51  1  0  0  0  0
 53 55  1  0  0  0  0
 53 61  1  0  0  0  0
 54 60  1  0  0  0  0
 58 55  1  6  0  0  0
 58 54  1  0  0  0  0
 58 59  1  0  0  0  0
 59 56  1  6  0  0  0
 60 57  1  6  0  0  0
 60 56  1  0  0  0  0
 60 52  1  0  0  0  0
 61 59  1  0  0  0  0
M  END
>  <MODEL>
4

>  <REMARK>
 VINA RESULT:      -4.9      3.784     11.822
  Name = 
  28 active torsions:
  status: ('A' for Active; 'I' for Inactive)
    1  A    between atoms: N_1  and  C_24
    2  A    between atoms: N_1  and  C_35
    3  A    between atoms: N_1  and  C_52
    4  A    between atoms: C_3  and  C_52
    5  A    between atoms: C_6  and  C_35
    6  A    between atoms: C_6  and  C_61
    7  A    between atoms: C_7  and  C_15
    8  A    between atoms: P_10  and  O_27
    9  A    between atoms: P_10  and  C_60
   10  A    between atoms: C_15  and  C_29
   11  A    between atoms: O_16  and  C_28
   12  A    between atoms: O_16  and  C_47
   13  A    between atoms: C_17  and  C_52
   14  A    between atoms: C_17  and  C_57
   15  A    between atoms: C_18  and  C_24
   16  A    between atoms: C_18  and  S_43
   17  A    between atoms: C_19  and  C_25
   18  A    between atoms: C_19  and  N_39
   19  A    between atoms: C_21  and  C_50
   20  A    between atoms: C_21  and  C_53
   21  A    between atoms: C_23  and  C_60
   22  A    between atoms: C_25  and  C_49
   23  A    between atoms: O_27  and  P_58
   24  A    between atoms: C_29  and  C_59
   25  A    between atoms: C_34  and  C_47
   26  A    between atoms: C_35  and  C_56
   27  A    between atoms: N_39  and  C_53
   28  A    between atoms: C_42  and  S_43
                            x       y       z     vdW  Elec       q    Type
                         _______ _______ _______ _____ _____    ______ ____

>  <TORSDO>
F 28

$$$$
=
 OpenBabel11042413153D

 61 64  0  0  1  0  0  0  0  0999 V2000
  183.7780  178.8450  144.1940 C   0  0  0  0  0  2  0  0  0  0  0  0
  182.3800  178.6340  143.6360 C   0  0  0  0  0  2  0  0  0  0  0  0
  183.4950  178.7250  141.3400 C   0  0  0  0  0  0  0  0  0  0  0  0
  184.6410  178.3050  141.9030 C   0  0  0  0  0  3  0  0  0  0  0  0
  182.3010  179.1340  142.1890 C   0  0  1  0  0  3  0  0  0  0  0  0
  184.7620  178.0120  143.3800 C   0  0  1  0  0  3  0  0  0  0  0  0
  187.0710  177.1600  143.4370 N   0  0  0  0  0  1  0  0  0  0  0  0
  186.1850  178.2220  143.8970 C   0  0  2  0  0  3  0  0  0  0  0  0
  186.2140  178.3190  145.4130 C   0  0  0  0  0  2  0  0  0  0  0  0
  187.4620  177.7440  145.9200 C   0  0  0  0  0  0  0  0  0  0  0  0
  188.5000  177.2950  146.3360 C   0  0  0  0  0  0  0  0  0  0  0  0
  190.1900  177.5190  147.9370 O   0  0  0  0  0  1  0  0  0  0  0  0
  189.7730  176.7700  146.8350 C   0  0  2  0  0  3  0  0  0  0  0  0
  191.0280  176.8750  145.5260 P   0  0  2  0  0  0  0  0  0  0  0  0
  192.2330  175.7270  145.8350 O   0  0  0  0  0  1  0  0  0  0  0  0
  191.6340  178.2600  145.5460 O   0  0  0  0  0  0  0  0  0  0  0  0
  190.2680  176.5860  144.0320 O   0  0  0  0  0  0  0  0  0  0  0  0
  191.6190  176.8890  141.6010 O   0  0  0  0  0  0  0  0  0  0  0  0
  191.9580  178.5300  143.5980 O   0  0  0  0  0  1  0  0  0  0  0  0
  189.6840  178.7210  142.3410 O   0  0  0  0  0  1  0  0  0  0  0  0
  190.9030  177.6960  142.9080 P   0  0  0  0  0  0  0  0  0  0  0  0
  183.5290  179.1550  139.5920 S   0  0  0  0  0  0  0  0  0  0  0  0
  185.2160  178.5240  139.3250 C   0  0  0  0  0  2  0  0  0  0  0  0
  185.1830  177.3200  138.3850 C   0  0  0  0  0  2  0  0  0  0  0  0
  186.0210  177.5030  137.1910 N   0  0  0  0  0  0  0  0  0  0  0  0
  187.4660  177.5090  137.5260 C   0  0  1  0  0  3  0  0  0  0  0  0
  188.2310  178.5020  136.6380 C   0  0  1  0  0  3  0  0  0  0  0  0
  188.8410  179.5120  137.3890 O   0  0  0  0  0  1  0  0  0  0  0  0
  190.2540  177.2140  136.4420 O   0  0  0  0  0  1  0  0  0  0  0  0
  189.2330  177.8220  135.7110 C   0  0  0  0  0  2  0  0  0  0  0  0
  187.7000  177.8350  139.0060 C   0  0  0  0  0  2  0  0  0  0  0  0
  188.8140  176.9590  139.5500 C   0  0  0  0  0  1  0  0  0  0  0  0
  185.6030  176.5040  136.1830 C   0  0  1  0  0  3  0  0  0  0  0  0
  185.9930  178.2920  134.6140 O   0  0  0  0  0  1  0  0  0  0  0  0
  185.2020  177.1710  134.8700 C   0  0  0  0  0  2  0  0  0  0  0  0
  186.5550  175.3110  135.9990 C   0  0  0  0  0  2  0  0  0  0  0  0
  186.0180  171.5700  135.2460 C   0  0  0  0  0  0  0  0  0  0  0  0
  183.9130  172.8310  134.7350 C   0  0  1  0  0  3  0  0  0  0  0  0
  186.7420  172.8370  135.6390 C   0  0  0  0  0  2  0  0  0  0  0  0
  184.7720  174.0980  134.7600 C   0  0  0  0  0  2  0  0  0  0  0  0
  186.7710  170.2850  135.2380 C   0  0  0  0  0  1  0  0  0  0  0  0
  184.7650  171.5860  134.7650 C   0  0  0  0  0  3  0  0  0  0  0  0
  185.7850  174.0040  135.8950 C   0  0  2  0  0  3  0  0  0  0  0  0
  183.0500  172.8300  135.8360 O   0  0  0  0  0  0  0  0  0  0  0  0
  182.7470  171.4820  136.0560 C   0  0  0  0  0  2  0  0  0  0  0  0
  181.2740  171.3430  136.3790 C   0  0  0  0  0  2  0  0  0  0  0  0
  180.9770  172.0530  137.5430 O   0  0  0  0  0  1  0  0  0  0  0  0
  180.9890  178.6770  141.5770 C   0  0  0  0  0  2  0  0  0  0  0  0
  180.3750  179.7870  140.7420 C   0  0  0  0  0  2  0  0  0  0  0  0
  179.5300  179.2060  139.7090 N   0  0  0  0  0  2  0  0  0  0  0  0
  179.3610  180.2050  138.6640 C   0  0  0  0  0  2  0  0  0  0  0  0
  180.5950  180.2680  137.7610 C   0  0  0  0  0  2  0  0  0  0  0  0
  180.5840  175.4170  134.9950 C   0  0  0  0  0  2  0  0  0  0  0  0
  181.6860  178.4730  136.3380 C   0  0  0  0  0  2  0  0  0  0  0  0
  181.5640  176.1180  135.5330 C   0  0  0  0  0  2  0  0  0  0  0  0
  179.2350  178.5570  136.4630 C   0  0  0  0  0  2  0  0  0  0  0  0
  180.4680  180.3560  135.2860 C   0  0  0  0  0  1  0  0  0  0  0  0
  181.1270  177.1420  136.4070 N   0  0  2  0  0  0  0  0  0  0  0  0
  179.7040  177.1290  136.6570 C   0  0  2  0  0  3  0  0  0  0  0  0
  180.5000  179.4220  136.4810 C   0  0  1  0  0  0  0  0  0  0  0  0
  178.9510  176.0070  135.4360 S   0  0  0  0  0  0  0  0  0  0  0  0
  2  1  1  0  0  0  0
  3  4  2  0  0  0  0
  3  5  1  0  0  0  0
  4  6  1  0  0  0  0
  5 48  1  6  0  0  0
  5  2  1  0  0  0  0
  6  8  1  1  0  0  0
  6  1  1  0  0  0  0
  8  7  1  1  0  0  0
  8  9  1  0  0  0  0
  9 10  1  0  0  0  0
 10 11  3  0  0  0  0
 11 13  1  0  0  0  0
 13 12  1  1  0  0  0
 14 16  2  6  0  0  0
 14 15  1  0  0  0  0
 14 13  1  0  0  0  0
 17 14  1  0  0  0  0
 18 21  2  0  0  0  0
 20 21  1  0  0  0  0
 21 19  1  0  0  0  0
 21 17  1  0  0  0  0
 22  3  1  0  0  0  0
 23 22  1  0  0  0  0
 24 23  1  0  0  0  0
 25 26  1  0  0  0  0
 25 24  1  0  0  0  0
 26 31  1  1  0  0  0
 27 28  1  1  0  0  0
 27 26  1  0  0  0  0
 30 29  1  0  0  0  0
 30 27  1  0  0  0  0
 31 32  1  0  0  0  0
 33 35  1  6  0  0  0
 33 25  1  0  0  0  0
 34 35  1  0  0  0  0
 36 33  1  0  0  0  0
 37 39  1  0  0  0  0
 38 40  1  0  0  0  0
 38 42  1  0  0  0  0
 38 44  1  1  0  0  0
 39 43  1  0  0  0  0
 40 43  1  0  0  0  0
 41 37  1  0  0  0  0
 42 37  2  0  0  0  0
 43 36  1  6  0  0  0
 44 45  1  0  0  0  0
 45 46  1  0  0  0  0
 46 47  1  0  0  0  0
 49 48  1  0  0  0  0
 50 49  1  0  0  0  0
 51 50  1  0  0  0  0
 52 51  1  0  0  0  0
 53 61  1  0  0  0  0
 53 55  1  0  0  0  0
 54 58  1  0  0  0  0
 54 60  1  0  0  0  0
 56 60  1  0  0  0  0
 58 55  1  6  0  0  0
 58 59  1  0  0  0  0
 59 56  1  6  0  0  0
 60 57  1  6  0  0  0
 60 52  1  0  0  0  0
 61 59  1  0  0  0  0
M  END
>  <MODEL>
5

>  <REMARK>
 VINA RESULT:      -4.5      3.849      8.753
  Name = 
  28 active torsions:
  status: ('A' for Active; 'I' for Inactive)
    1  A    between atoms: N_1  and  C_24
    2  A    between atoms: N_1  and  C_35
    3  A    between atoms: N_1  and  C_52
    4  A    between atoms: C_3  and  C_52
    5  A    between atoms: C_6  and  C_35
    6  A    between atoms: C_6  and  C_61
    7  A    between atoms: C_7  and  C_15
    8  A    between atoms: P_10  and  O_27
    9  A    between atoms: P_10  and  C_60
   10  A    between atoms: C_15  and  C_29
   11  A    between atoms: O_16  and  C_28
   12  A    between atoms: O_16  and  C_47
   13  A    between atoms: C_17  and  C_52
   14  A    between atoms: C_17  and  C_57
   15  A    between atoms: C_18  and  C_24
   16  A    between atoms: C_18  and  S_43
   17  A    between atoms: C_19  and  C_25
   18  A    between atoms: C_19  and  N_39
   19  A    between atoms: C_21  and  C_50
   20  A    between atoms: C_21  and  C_53
   21  A    between atoms: C_23  and  C_60
   22  A    between atoms: C_25  and  C_49
   23  A    between atoms: O_27  and  P_58
   24  A    between atoms: C_29  and  C_59
   25  A    between atoms: C_34  and  C_47
   26  A    between atoms: C_35  and  C_56
   27  A    between atoms: N_39  and  C_53
   28  A    between atoms: C_42  and  S_43
                            x       y       z     vdW  Elec       q    Type
                         _______ _______ _______ _____ _____    ______ ____

>  <TORSDO>
F 28

$$$$
=
 OpenBabel11042413153D

 61 64  0  0  1  0  0  0  0  0999 V2000
  191.4250  176.6800  143.7920 C   0  0  0  0  0  2  0  0  0  0  0  0
  191.9270  176.7550  142.3590 C   0  0  0  0  0  2  0  0  0  0  0  0
  189.6140  177.6840  141.8040 C   0  0  0  0  0  0  0  0  0  0  0  0
  189.5120  178.1310  143.0680 C   0  0  0  0  0  3  0  0  0  0  0  0
  190.7480  176.7640  141.3800 C   0  0  1  0  0  3  0  0  0  0  0  0
  190.6050  177.9310  144.0910 C   0  0  1  0  0  3  0  0  0  0  0  0
  191.1110  177.5360  146.4680 N   0  0  0  0  0  1  0  0  0  0  0  0
  190.0600  177.8760  145.5170 C   0  0  2  0  0  3  0  0  0  0  0  0
  188.9040  176.8960  145.6310 C   0  0  0  0  0  2  0  0  0  0  0  0
  187.6420  177.6320  145.7300 C   0  0  0  0  0  0  0  0  0  0  0  0
  186.6140  178.2570  145.8000 C   0  0  0  0  0  0  0  0  0  0  0  0
  184.5760  178.5460  146.9090 O   0  0  0  0  0  1  0  0  0  0  0  0
  185.3770  179.0390  145.8790 C   0  0  2  0  0  3  0  0  0  0  0  0
  184.4800  178.9160  144.3040 P   0  0  2  0  0  0  0  0  0  0  0  0
  185.3080  177.8440  143.2890 O   0  0  0  0  0  0  0  0  0  0  0  0
  184.4380  180.2860  143.6640 O   0  0  0  0  0  1  0  0  0  0  0  0
  182.9040  178.3680  144.6280 O   0  0  0  0  0  0  0  0  0  0  0  0
  182.6840  178.5860  141.8480 O   0  0  0  0  0  0  0  0  0  0  0  0
  181.6290  180.3320  143.4690 O   0  0  0  0  0  1  0  0  0  0  0  0
  180.4460  178.0130  143.3670 O   0  0  0  0  0  1  0  0  0  0  0  0
  181.9130  178.8530  143.3310 P   0  0  0  0  0  0  0  0  0  0  0  0
  188.1840  177.8830  140.7290 S   0  0  0  0  0  0  0  0  0  0  0  0
  189.0590  177.3400  139.2280 C   0  0  0  0  0  2  0  0  0  0  0  0
  188.6830  178.2340  138.0480 C   0  0  0  0  0  2  0  0  0  0  0  0
  187.9520  177.5140  136.9940 N   0  0  0  0  0  0  0  0  0  0  0  0
  188.1060  176.0440  137.1210 C   0  0  1  0  0  3  0  0  0  0  0  0
  186.9740  175.3080  136.3870 C   0  0  1  0  0  3  0  0  0  0  0  0
  187.3780  174.8570  135.1260 O   0  0  0  0  0  1  0  0  0  0  0  0
  186.5090  172.9530  136.5540 O   0  0  0  0  0  1  0  0  0  0  0  0
  186.3680  174.1770  137.2090 C   0  0  0  0  0  2  0  0  0  0  0  0
  189.4690  175.5730  136.6000 C   0  0  0  0  0  2  0  0  0  0  0  0
  189.8240  174.2410  137.2350 C   0  0  0  0  0  1  0  0  0  0  0  0
  186.5590  178.0120  136.9830 C   0  0  1  0  0  3  0  0  0  0  0  0
  186.7350  178.2820  134.5940 O   0  0  0  0  0  1  0  0  0  0  0  0
  185.9080  177.8140  135.6160 C   0  0  0  0  0  2  0  0  0  0  0  0
  185.6790  177.5470  138.1540 C   0  0  0  0  0  2  0  0  0  0  0  0
  182.0840  178.9170  138.3480 C   0  0  0  0  0  0  0  0  0  0  0  0
  182.0110  176.4570  137.8740 C   0  0  1  0  0  3  0  0  0  0  0  0
  183.5930  178.9110  138.4180 C   0  0  0  0  0  2  0  0  0  0  0  0
  183.4710  176.4170  138.3300 C   0  0  0  0  0  2  0  0  0  0  0  0
  181.3560  180.1840  138.6380 C   0  0  0  0  0  1  0  0  0  0  0  0
  181.3740  177.7900  138.1790 C   0  0  0  0  0  3  0  0  0  0  0  0
  184.2030  177.6470  137.8070 C   0  0  2  0  0  3  0  0  0  0  0  0
  181.9450  176.2150  136.4970 O   0  0  0  0  0  0  0  0  0  0  0  0
  180.6240  175.8190  136.2630 C   0  0  0  0  0  2  0  0  0  0  0  0
  180.5610  174.3090  136.1650 C   0  0  0  0  0  2  0  0  0  0  0  0
  179.9850  173.7840  137.3220 O   0  0  0  0  0  1  0  0  0  0  0  0
  191.2600  177.1030  139.9910 C   0  0  0  0  0  2  0  0  0  0  0  0
  192.6860  177.6210  140.0590 C   0  0  0  0  0  2  0  0  0  0  0  0
  193.5940  176.6170  139.5250 N   0  0  0  0  0  2  0  0  0  0  0  0
  193.7250  176.8560  138.0960 C   0  0  0  0  0  2  0  0  0  0  0  0
  193.1200  175.7040  137.2900 C   0  0  0  0  0  2  0  0  0  0  0  0
  196.1690  171.1740  136.1210 C   0  0  0  0  0  2  0  0  0  0  0  0
  195.2780  174.3710  137.2810 C   0  0  0  0  0  2  0  0  0  0  0  0
  196.3130  172.1170  137.0320 C   0  0  0  0  0  2  0  0  0  0  0  0
  193.4730  173.7100  135.7520 C   0  0  0  0  0  2  0  0  0  0  0  0
  194.6880  175.8370  135.3730 C   0  0  0  0  0  1  0  0  0  0  0  0
  195.1670  172.9320  137.2040 N   0  0  2  0  0  0  0  0  0  0  0  0
  194.0140  172.4830  136.4580 C   0  0  2  0  0  3  0  0  0  0  0  0
  194.1280  174.9140  136.4390 C   0  0  1  0  0  0  0  0  0  0  0  0
  194.5930  171.2300  135.2700 S   0  0  0  0  0  0  0  0  0  0  0  0
  1  6  1  0  0  0  0
  2  1  1  0  0  0  0
  3  4  2  0  0  0  0
  4  6  1  0  0  0  0
  5 48  1  6  0  0  0
  5  3  1  0  0  0  0
  5  2  1  0  0  0  0
  6  8  1  1  0  0  0
  8  9  1  0  0  0  0
  8  7  1  1  0  0  0
  9 10  1  0  0  0  0
 10 11  3  0  0  0  0
 11 13  1  0  0  0  0
 13 12  1  1  0  0  0
 14 15  2  6  0  0  0
 14 17  1  0  0  0  0
 14 13  1  0  0  0  0
 16 14  1  0  0  0  0
 18 21  2  0  0  0  0
 21 20  1  0  0  0  0
 21 19  1  0  0  0  0
 21 17  1  0  0  0  0
 22  3  1  0  0  0  0
 23 22  1  0  0  0  0
 24 23  1  0  0  0  0
 25 26  1  0  0  0  0
 25 24  1  0  0  0  0
 26 31  1  6  0  0  0
 27 28  1  6  0  0  0
 27 26  1  0  0  0  0
 27 30  1  0  0  0  0
 29 30  1  0  0  0  0
 31 32  1  0  0  0  0
 33 35  1  6  0  0  0
 33 25  1  0  0  0  0
 33 36  1  0  0  0  0
 34 35  1  0  0  0  0
 37 39  1  0  0  0  0
 37 41  1  0  0  0  0
 38 44  1  6  0  0  0
 38 42  1  0  0  0  0
 38 40  1  0  0  0  0
 42 37  2  0  0  0  0
 43 36  1  1  0  0  0
 43 40  1  0  0  0  0
 43 39  1  0  0  0  0
 45 44  1  0  0  0  0
 46 45  1  0  0  0  0
 46 47  1  0  0  0  0
 48 49  1  0  0  0  0
 50 49  1  0  0  0  0
 51 50  1  0  0  0  0
 52 51  1  0  0  0  0
 53 55  1  0  0  0  0
 56 60  1  0  0  0  0
 58 55  1  6  0  0  0
 58 54  1  0  0  0  0
 59 56  1  6  0  0  0
 59 58  1  0  0  0  0
 60 57  1  6  0  0  0
 60 54  1  0  0  0  0
 60 52  1  0  0  0  0
 61 53  1  0  0  0  0
 61 59  1  0  0  0  0
M  END
>  <MODEL>
6

>  <REMARK>
 VINA RESULT:      -4.4      3.219      5.477
  Name = 
  28 active torsions:
  status: ('A' for Active; 'I' for Inactive)
    1  A    between atoms: N_1  and  C_24
    2  A    between atoms: N_1  and  C_35
    3  A    between atoms: N_1  and  C_52
    4  A    between atoms: C_3  and  C_52
    5  A    between atoms: C_6  and  C_35
    6  A    between atoms: C_6  and  C_61
    7  A    between atoms: C_7  and  C_15
    8  A    between atoms: P_10  and  O_27
    9  A    between atoms: P_10  and  C_60
   10  A    between atoms: C_15  and  C_29
   11  A    between atoms: O_16  and  C_28
   12  A    between atoms: O_16  and  C_47
   13  A    between atoms: C_17  and  C_52
   14  A    between atoms: C_17  and  C_57
   15  A    between atoms: C_18  and  C_24
   16  A    between atoms: C_18  and  S_43
   17  A    between atoms: C_19  and  C_25
   18  A    between atoms: C_19  and  N_39
   19  A    between atoms: C_21  and  C_50
   20  A    between atoms: C_21  and  C_53
   21  A    between atoms: C_23  and  C_60
   22  A    between atoms: C_25  and  C_49
   23  A    between atoms: O_27  and  P_58
   24  A    between atoms: C_29  and  C_59
   25  A    between atoms: C_34  and  C_47
   26  A    between atoms: C_35  and  C_56
   27  A    between atoms: N_39  and  C_53
   28  A    between atoms: C_42  and  S_43
                            x       y       z     vdW  Elec       q    Type
                         _______ _______ _______ _____ _____    ______ ____

>  <TORSDO>
F 28

$$$$
=
 OpenBabel11042413153D

 61 64  0  0  1  0  0  0  0  0999 V2000
  183.9380  177.0540  138.7970 C   0  0  0  0  0  2  0  0  0  0  0  0
  182.9670  177.6980  139.7720 C   0  0  0  0  0  2  0  0  0  0  0  0
  185.0340  178.7810  140.8110 C   0  0  0  0  0  0  0  0  0  0  0  0
  185.6580  178.6810  139.6250 C   0  0  0  0  0  3  0  0  0  0  0  0
  183.6940  178.1060  141.0590 C   0  0  1  0  0  3  0  0  0  0  0  0
  184.9960  178.0810  138.4060 C   0  0  1  0  0  3  0  0  0  0  0  0
  186.9860  178.4430  137.0030 N   0  0  0  0  0  1  0  0  0  0  0  0
  186.0080  177.4580  137.4460 C   0  0  2  0  0  3  0  0  0  0  0  0
  185.3170  176.8210  136.2510 C   0  0  0  0  0  2  0  0  0  0  0  0
  185.0960  175.3970  136.5100 C   0  0  0  0  0  0  0  0  0  0  0  0
  184.9030  174.2310  136.7460 C   0  0  0  0  0  0  0  0  0  0  0  0
  185.6440  172.0330  136.4540 O   0  0  0  0  0  1  0  0  0  0  0  0
  184.6620  172.8200  137.0570 C   0  0  2  0  0  3  0  0  0  0  0  0
  183.0280  172.3300  136.4330 P   0  0  2  0  0  0  0  0  0  0  0  0
  182.7530  170.7110  136.8430 O   0  0  0  0  0  1  0  0  0  0  0  0
  183.0210  172.4770  134.9280 O   0  0  0  0  0  0  0  0  0  0  0  0
  181.8610  173.3510  137.1290 O   0  0  0  0  0  0  0  0  0  0  0  0
  179.9120  171.5490  136.2490 O   0  0  0  0  0  0  0  0  0  0  0  0
  179.4530  173.2830  138.1390 O   0  0  0  0  0  1  0  0  0  0  0  0
  180.9940  171.2820  138.7800 O   0  0  0  0  0  1  0  0  0  0  0  0
  180.5350  172.3850  137.5830 P   0  0  0  0  0  0  0  0  0  0  0  0
  185.9860  179.4020  142.2070 S   0  0  0  0  0  0  0  0  0  0  0  0
  185.5670  178.0040  143.2960 C   0  0  0  0  0  2  0  0  0  0  0  0
  186.7680  177.0710  143.4360 C   0  0  0  0  0  2  0  0  0  0  0  0
  187.8300  177.6280  144.2870 N   0  0  0  0  0  0  0  0  0  0  0  0
  187.7780  177.0810  145.6650 C   0  0  1  0  0  3  0  0  0  0  0  0
  189.0120  177.5110  146.4730 C   0  0  1  0  0  3  0  0  0  0  0  0
  188.6870  178.4430  147.4640 O   0  0  0  0  0  1  0  0  0  0  0  0
  191.1150  176.3550  146.6460 O   0  0  0  0  0  1  0  0  0  0  0  0
  189.7820  176.3320  147.0570 C   0  0  0  0  0  2  0  0  0  0  0  0
  186.4960  177.5040  146.3910 C   0  0  0  0  0  2  0  0  0  0  0  0
  186.4470  179.0170  146.4960 C   0  0  0  0  0  1  0  0  0  0  0  0
  189.1180  177.4560  143.5800 C   0  0  1  0  0  3  0  0  0  0  0  0
  190.5330  175.5340  143.9180 O   0  0  0  0  0  1  0  0  0  0  0  0
  189.3880  175.9870  143.2620 C   0  0  0  0  0  2  0  0  0  0  0  0
  189.3480  178.3950  142.3840 C   0  0  0  0  0  2  0  0  0  0  0  0
  192.1570  177.2750  139.9960 C   0  0  0  0  0  0  0  0  0  0  0  0
  189.9990  177.4240  138.7300 C   0  0  1  0  0  3  0  0  0  0  0  0
  191.4990  177.7450  141.2730 C   0  0  0  0  0  2  0  0  0  0  0  0
  189.4690  178.2490  139.9050 C   0  0  0  0  0  2  0  0  0  0  0  0
  193.6270  177.0370  139.9910 C   0  0  0  0  0  1  0  0  0  0  0  0
  191.4890  177.2070  138.8340 C   0  0  0  0  0  3  0  0  0  0  0  0
  189.9720  177.6520  141.2140 C   0  0  2  0  0  3  0  0  0  0  0  0
  189.3510  176.1850  138.6990 O   0  0  0  0  0  0  0  0  0  0  0  0
  189.3480  175.8110  137.3510 C   0  0  0  0  0  2  0  0  0  0  0  0
  189.6530  174.3320  137.2390 C   0  0  0  0  0  2  0  0  0  0  0  0
  190.9570  174.1520  136.7760 O   0  0  0  0  0  1  0  0  0  0  0  0
  182.7710  178.9740  141.8960 C   0  0  0  0  0  2  0  0  0  0  0  0
  181.8970  179.8380  141.0030 C   0  0  0  0  0  2  0  0  0  0  0  0
  180.5150  179.7610  141.4550 N   0  0  0  0  0  2  0  0  0  0  0  0
  179.6720  180.2680  140.3830 C   0  0  0  0  0  2  0  0  0  0  0  0
  180.1670  179.7800  139.0190 C   0  0  0  0  0  2  0  0  0  0  0  0
  179.9490  185.0070  137.0660 C   0  0  0  0  0  2  0  0  0  0  0  0
  178.9360  181.8140  138.1350 C   0  0  0  0  0  2  0  0  0  0  0  0
  179.0510  184.2630  137.6830 C   0  0  0  0  0  2  0  0  0  0  0  0
  181.3530  181.6280  137.7390 C   0  0  0  0  0  2  0  0  0  0  0  0
  179.7960  180.0830  136.5860 C   0  0  0  0  0  1  0  0  0  0  0  0
  179.5850  183.0970  138.2860 N   0  0  2  0  0  0  0  0  0  0  0  0
  181.0260  183.0220  138.2370 C   0  0  2  0  0  3  0  0  0  0  0  0
  180.0620  180.8150  137.8870 C   0  0  1  0  0  0  0  0  0  0  0  0
  181.5950  184.2980  137.0690 S   0  0  0  0  0  0  0  0  0  0  0  0
  1  2  1  0  0  0  0
  2  5  1  0  0  0  0
  3  5  1  0  0  0  0
  3 22  1  0  0  0  0
  4  3  2  0  0  0  0
  5 48  1  6  0  0  0
  6  8  1  6  0  0  0
  6  1  1  0  0  0  0
  6  4  1  0  0  0  0
  8  7  1  6  0  0  0
  9 10  1  0  0  0  0
  9  8  1  0  0  0  0
 10 11  3  0  0  0  0
 11 13  1  0  0  0  0
 13 12  1  6  0  0  0
 14 16  2  6  0  0  0
 14 15  1  0  0  0  0
 14 13  1  0  0  0  0
 14 17  1  0  0  0  0
 17 21  1  0  0  0  0
 18 21  2  0  0  0  0
 21 19  1  0  0  0  0
 21 20  1  0  0  0  0
 22 23  1  0  0  0  0
 23 24  1  0  0  0  0
 24 25  1  0  0  0  0
 25 26  1  0  0  0  0
 26 31  1  1  0  0  0
 26 27  1  0  0  0  0
 27 30  1  0  0  0  0
 27 28  1  1  0  0  0
 29 30  1  0  0  0  0
 31 32  1  0  0  0  0
 33 36  1  6  0  0  0
 33 25  1  0  0  0  0
 35 33  1  0  0  0  0
 35 34  1  0  0  0  0
 37 39  1  0  0  0  0
 38 44  1  1  0  0  0
 38 42  1  0  0  0  0
 38 40  1  0  0  0  0
 40 43  1  0  0  0  0
 41 37  1  0  0  0  0
 42 37  2  0  0  0  0
 43 39  1  0  0  0  0
 43 36  1  1  0  0  0
 45 44  1  0  0  0  0
 46 45  1  0  0  0  0
 47 46  1  0  0  0  0
 49 50  1  0  0  0  0
 49 48  1  0  0  0  0
 51 50  1  0  0  0  0
 52 51  1  0  0  0  0
 53 61  1  0  0  0  0
 53 55  1  0  0  0  0
 54 58  1  0  0  0  0
 56 60  1  0  0  0  0
 58 55  1  6  0  0  0
 59 56  1  6  0  0  0
 59 58  1  0  0  0  0
 60 57  1  6  0  0  0
 60 54  1  0  0  0  0
 60 52  1  0  0  0  0
 61 59  1  0  0  0  0
M  END
>  <MODEL>
7

>  <REMARK>
 VINA RESULT:      -4.2      4.160     11.776
  Name = 
  28 active torsions:
  status: ('A' for Active; 'I' for Inactive)
    1  A    between atoms: N_1  and  C_24
    2  A    between atoms: N_1  and  C_35
    3  A    between atoms: N_1  and  C_52
    4  A    between atoms: C_3  and  C_52
    5  A    between atoms: C_6  and  C_35
    6  A    between atoms: C_6  and  C_61
    7  A    between atoms: C_7  and  C_15
    8  A    between atoms: P_10  and  O_27
    9  A    between atoms: P_10  and  C_60
   10  A    between atoms: C_15  and  C_29
   11  A    between atoms: O_16  and  C_28
   12  A    between atoms: O_16  and  C_47
   13  A    between atoms: C_17  and  C_52
   14  A    between atoms: C_17  and  C_57
   15  A    between atoms: C_18  and  C_24
   16  A    between atoms: C_18  and  S_43
   17  A    between atoms: C_19  and  C_25
   18  A    between atoms: C_19  and  N_39
   19  A    between atoms: C_21  and  C_50
   20  A    between atoms: C_21  and  C_53
   21  A    between atoms: C_23  and  C_60
   22  A    between atoms: C_25  and  C_49
   23  A    between atoms: O_27  and  P_58
   24  A    between atoms: C_29  and  C_59
   25  A    between atoms: C_34  and  C_47
   26  A    between atoms: C_35  and  C_56
   27  A    between atoms: N_39  and  C_53
   28  A    between atoms: C_42  and  S_43
                            x       y       z     vdW  Elec       q    Type
                         _______ _______ _______ _____ _____    ______ ____

>  <TORSDO>
F 28

$$$$
=
 OpenBabel11042413153D

 61 64  0  0  1  0  0  0  0  0999 V2000
  186.7400  177.7230  142.6450 C   0  0  0  0  0  2  0  0  0  0  0  0
  187.5120  177.9260  141.3520 C   0  0  0  0  0  2  0  0  0  0  0  0
  185.3770  179.0220  140.4790 C   0  0  0  0  0  0  0  0  0  0  0  0
  185.0450  179.3350  141.7430 C   0  0  0  0  0  3  0  0  0  0  0  0
  186.5460  178.0980  140.1740 C   0  0  1  0  0  3  0  0  0  0  0  0
  185.9130  178.9730  142.9250 C   0  0  1  0  0  3  0  0  0  0  0  0
  185.3990  179.8450  145.1690 N   0  0  0  0  0  1  0  0  0  0  0  0
  185.1000  178.7930  144.2060 C   0  0  2  0  0  3  0  0  0  0  0  0
  185.3380  177.4240  144.8240 C   0  0  0  0  0  2  0  0  0  0  0  0
  186.6780  177.3750  145.4120 C   0  0  0  0  0  0  0  0  0  0  0  0
  187.7710  177.3320  145.9200 C   0  0  0  0  0  0  0  0  0  0  0  0
  189.1910  178.3140  147.4960 O   0  0  0  0  0  1  0  0  0  0  0  0
  189.0880  177.2850  146.5590 C   0  0  2  0  0  3  0  0  0  0  0  0
  190.3820  177.4800  145.3010 P   0  0  2  0  0  0  0  0  0  0  0  0
  190.2630  179.0320  144.6350 O   0  0  0  0  0  1  0  0  0  0  0  0
  190.1630  176.4490  144.2170 O   0  0  0  0  0  0  0  0  0  0  0  0
  191.8920  177.2410  146.0440 O   0  0  0  0  0  0  0  0  0  0  0  0
  191.9140  174.4940  145.5160 O   0  0  0  0  0  0  0  0  0  0  0  0
  190.6290  175.5120  147.5420 O   0  0  0  0  0  1  0  0  0  0  0  0
  193.2270  175.4810  147.7410 O   0  0  0  0  0  1  0  0  0  0  0  0
  191.8900  175.6800  146.7250 P   0  0  0  0  0  0  0  0  0  0  0  0
  184.1880  179.4050  139.1820 S   0  0  0  0  0  0  0  0  0  0  0  0
  183.8560  177.6620  138.7760 C   0  0  0  0  0  2  0  0  0  0  0  0
  182.3500  177.4160  138.7110 C   0  0  0  0  0  2  0  0  0  0  0  0
  181.9750  176.4230  137.6930 N   0  0  0  0  0  0  0  0  0  0  0  0
  181.0740  175.3810  138.2440 C   0  0  1  0  0  3  0  0  0  0  0  0
  180.1780  175.9590  139.3500 C   0  0  1  0  0  3  0  0  0  0  0  0
  179.1190  176.7070  138.8260 O   0  0  0  0  0  1  0  0  0  0  0  0
  180.1620  173.6370  139.9810 O   0  0  0  0  0  1  0  0  0  0  0  0
  179.6750  174.8980  140.3240 C   0  0  0  0  0  2  0  0  0  0  0  0
  180.2150  174.7410  137.1470 C   0  0  0  0  0  2  0  0  0  0  0  0
  181.0590  173.7710  136.3410 C   0  0  0  0  0  1  0  0  0  0  0  0
  181.4620  177.1510  136.5120 C   0  0  1  0  0  3  0  0  0  0  0  0
  181.2850  179.4390  135.7720 O   0  0  0  0  0  1  0  0  0  0  0  0
  181.0900  178.5900  136.8630 C   0  0  0  0  0  2  0  0  0  0  0  0
  182.3140  177.0310  135.2380 C   0  0  0  0  0  2  0  0  0  0  0  0
  186.1630  177.1140  135.3680 C   0  0  0  0  0  0  0  0  0  0  0  0
  185.3920  174.7480  135.0620 C   0  0  1  0  0  3  0  0  0  0  0  0
  184.7440  177.6330  135.3440 C   0  0  0  0  0  2  0  0  0  0  0  0
  184.0380  175.3360  134.6580 C   0  0  0  0  0  2  0  0  0  0  0  0
  187.2850  178.0900  135.4590 C   0  0  0  0  0  1  0  0  0  0  0  0
  186.4510  175.8190  135.1620 C   0  0  0  0  0  3  0  0  0  0  0  0
  183.7110  176.5240  135.5550 C   0  0  2  0  0  3  0  0  0  0  0  0
  185.2710  174.0980  136.2950 O   0  0  0  0  0  0  0  0  0  0  0  0
  185.6200  172.7690  136.0380 C   0  0  0  0  0  2  0  0  0  0  0  0
  184.6750  171.8480  136.7810 C   0  0  0  0  0  2  0  0  0  0  0  0
  183.8530  172.5960  137.6250 O   0  0  0  0  0  1  0  0  0  0  0  0
  187.3270  178.5580  138.9560 C   0  0  0  0  0  2  0  0  0  0  0  0
  188.8170  178.5640  139.2480 C   0  0  0  0  0  2  0  0  0  0  0  0
  189.5500  178.2020  138.0440 N   0  0  0  0  0  2  0  0  0  0  0  0
  189.9790  176.8190  138.1870 C   0  0  0  0  0  2  0  0  0  0  0  0
  191.4930  176.6920  137.9890 C   0  0  0  0  0  2  0  0  0  0  0  0
  195.1390  173.7930  134.9100 C   0  0  0  0  0  2  0  0  0  0  0  0
  192.3860  175.7940  135.7910 C   0  0  0  0  0  2  0  0  0  0  0  0
  194.3420  174.8000  134.6080 C   0  0  0  0  0  2  0  0  0  0  0  0
  193.1170  174.7400  137.8860 C   0  0  0  0  0  2  0  0  0  0  0  0
  190.7700  174.4800  137.1320 C   0  0  0  0  0  1  0  0  0  0  0  0
  193.7900  175.4560  135.7370 N   0  0  2  0  0  0  0  0  0  0  0  0
  194.3200  174.9920  136.9980 C   0  0  2  0  0  3  0  0  0  0  0  0
  191.9370  175.4460  137.2070 C   0  0  1  0  0  0  0  0  0  0  0  0
  195.2390  173.4560  136.6670 S   0  0  0  0  0  0  0  0  0  0  0  0
  1  6  1  0  0  0  0
  2  1  1  0  0  0  0
  3  4  2  0  0  0  0
  4  6  1  0  0  0  0
  5 48  1  6  0  0  0
  5  3  1  0  0  0  0
  5  2  1  0  0  0  0
  6  8  1  1  0  0  0
  8  9  1  0  0  0  0
  8  7  1  1  0  0  0
  9 10  1  0  0  0  0
 10 11  3  0  0  0  0
 11 13  1  0  0  0  0
 13 12  1  1  0  0  0
 14 16  2  6  0  0  0
 14 17  1  0  0  0  0
 14 13  1  0  0  0  0
 15 14  1  0  0  0  0
 17 21  1  0  0  0  0
 18 21  2  0  0  0  0
 21 19  1  0  0  0  0
 21 20  1  0  0  0  0
 22  3  1  0  0  0  0
 23 22  1  0  0  0  0
 24 23  1  0  0  0  0
 25 26  1  0  0  0  0
 25 24  1  0  0  0  0
 26 31  1  6  0  0  0
 26 27  1  0  0  0  0
 27 28  1  6  0  0  0
 27 30  1  0  0  0  0
 29 30  1  0  0  0  0
 32 31  1  0  0  0  0
 33 36  1  6  0  0  0
 33 35  1  0  0  0  0
 33 25  1  0  0  0  0
 34 35  1  0  0  0  0
 37 41  1  0  0  0  0
 38 42  1  0  0  0  0
 38 44  1  1  0  0  0
 39 37  1  0  0  0  0
 39 43  1  0  0  0  0
 40 38  1  0  0  0  0
 40 43  1  0  0  0  0
 42 37  2  0  0  0  0
 43 36  1  6  0  0  0
 45 44  1  0  0  0  0
 45 46  1  0  0  0  0
 46 47  1  0  0  0  0
 48 49  1  0  0  0  0
 50 51  1  0  0  0  0
 50 49  1  0  0  0  0
 52 51  1  0  0  0  0
 53 61  1  0  0  0  0
 54 60  1  0  0  0  0
 55 53  1  0  0  0  0
 58 55  1  6  0  0  0
 58 54  1  0  0  0  0
 58 59  1  0  0  0  0
 59 56  1  1  0  0  0
 60 57  1  6  0  0  0
 60 56  1  0  0  0  0
 60 52  1  0  0  0  0
 61 59  1  0  0  0  0
M  END
>  <MODEL>
8

>  <REMARK>
 VINA RESULT:      -4.0      2.205      4.818
  Name = 
  28 active torsions:
  status: ('A' for Active; 'I' for Inactive)
    1  A    between atoms: N_1  and  C_24
    2  A    between atoms: N_1  and  C_35
    3  A    between atoms: N_1  and  C_52
    4  A    between atoms: C_3  and  C_52
    5  A    between atoms: C_6  and  C_35
    6  A    between atoms: C_6  and  C_61
    7  A    between atoms: C_7  and  C_15
    8  A    between atoms: P_10  and  O_27
    9  A    between atoms: P_10  and  C_60
   10  A    between atoms: C_15  and  C_29
   11  A    between atoms: O_16  and  C_28
   12  A    between atoms: O_16  and  C_47
   13  A    between atoms: C_17  and  C_52
   14  A    between atoms: C_17  and  C_57
   15  A    between atoms: C_18  and  C_24
   16  A    between atoms: C_18  and  S_43
   17  A    between atoms: C_19  and  C_25
   18  A    between atoms: C_19  and  N_39
   19  A    between atoms: C_21  and  C_50
   20  A    between atoms: C_21  and  C_53
   21  A    between atoms: C_23  and  C_60
   22  A    between atoms: C_25  and  C_49
   23  A    between atoms: O_27  and  P_58
   24  A    between atoms: C_29  and  C_59
   25  A    between atoms: C_34  and  C_47
   26  A    between atoms: C_35  and  C_56
   27  A    between atoms: N_39  and  C_53
   28  A    between atoms: C_42  and  S_43
                            x       y       z     vdW  Elec       q    Type
                         _______ _______ _______ _____ _____    ______ ____

>  <TORSDO>
F 28

$$$$
=
 OpenBabel11042413153D

 61 64  0  0  1  0  0  0  0  0999 V2000
  186.0010  178.5340  137.9310 C   0  0  0  0  0  2  0  0  0  0  0  0
  187.2530  177.7070  138.1700 C   0  0  0  0  0  2  0  0  0  0  0  0
  186.9800  178.3620  140.6240 C   0  0  0  0  0  0  0  0  0  0  0  0
  185.6600  178.5140  140.4150 C   0  0  0  0  0  3  0  0  0  0  0  0
  187.9430  178.1450  139.4660 C   0  0  1  0  0  3  0  0  0  0  0  0
  185.0180  178.2780  139.0680 C   0  0  1  0  0  3  0  0  0  0  0  0
  184.0240  180.5300  139.1070 N   0  0  0  0  0  1  0  0  0  0  0  0
  183.7560  179.1170  138.8740 C   0  0  2  0  0  3  0  0  0  0  0  0
  182.6280  178.6360  139.7730 C   0  0  0  0  0  2  0  0  0  0  0  0
  181.8720  177.5810  139.0930 C   0  0  0  0  0  0  0  0  0  0  0  0
  181.2610  176.7200  138.5120 C   0  0  0  0  0  0  0  0  0  0  0  0
  180.6350  174.4680  138.4610 O   0  0  0  0  0  1  0  0  0  0  0  0
  180.5280  175.6830  137.7830 C   0  0  2  0  0  3  0  0  0  0  0  0
  181.2220  175.5060  136.1140 P   0  0  2  0  0  0  0  0  0  0  0  0
  180.3930  176.5470  135.0670 O   0  0  0  0  0  0  0  0  0  0  0  0
  181.0300  174.0770  135.6590 O   0  0  0  0  0  1  0  0  0  0  0  0
  182.8770  175.8870  136.1800 O   0  0  0  0  0  0  0  0  0  0  0  0
  182.7270  173.1010  136.3790 O   0  0  0  0  0  1  0  0  0  0  0  0
  184.1570  174.5390  138.0160 O   0  0  0  0  0  1  0  0  0  0  0  0
  185.0920  174.3010  135.5950 O   0  0  0  0  0  0  0  0  0  0  0  0
  183.7190  174.4590  136.5710 P   0  0  0  0  0  0  0  0  0  0  0  0
  187.6260  178.7980  142.2460 S   0  0  0  0  0  0  0  0  0  0  0  0
  187.2820  177.1670  142.9780 C   0  0  0  0  0  2  0  0  0  0  0  0
  186.2610  177.3040  144.1070 C   0  0  0  0  0  2  0  0  0  0  0  0
  186.3500  178.5940  144.8060 N   0  0  0  0  0  0  0  0  0  0  0  0
  185.0120  179.1060  145.1930 C   0  0  1  0  0  3  0  0  0  0  0  0
  184.3160  179.7780  143.9990 C   0  0  1  0  0  3  0  0  0  0  0  0
  185.2370  180.2880  143.0780 O   0  0  0  0  0  1  0  0  0  0  0  0
  181.9950  179.2680  143.6210 O   0  0  0  0  0  1  0  0  0  0  0  0
  183.2980  178.8720  143.3160 C   0  0  0  0  0  2  0  0  0  0  0  0
  184.1260  177.9930  145.7630 C   0  0  0  0  0  2  0  0  0  0  0  0
  184.3000  177.9260  147.2700 C   0  0  0  0  0  1  0  0  0  0  0  0
  187.3210  178.4470  145.9120 C   0  0  1  0  0  3  0  0  0  0  0  0
  187.7960  179.0930  148.1860 O   0  0  0  0  0  1  0  0  0  0  0  0
  186.9460  179.3250  147.1040 C   0  0  0  0  0  2  0  0  0  0  0  0
  187.6700  177.0020  146.3010 C   0  0  0  0  0  2  0  0  0  0  0  0
  191.4220  176.3550  146.8910 C   0  0  0  0  0  0  0  0  0  0  0  0
  191.1050  177.4120  144.6400 C   0  0  1  0  0  3  0  0  0  0  0  0
  189.9410  176.4160  147.1850 C   0  0  0  0  0  2  0  0  0  0  0  0
  189.7060  177.8060  145.1220 C   0  0  0  0  0  2  0  0  0  0  0  0
  192.3450  175.8490  147.9450 C   0  0  0  0  0  1  0  0  0  0  0  0
  191.9480  176.8780  145.7710 C   0  0  0  0  0  3  0  0  0  0  0  0
  189.1040  176.6620  145.9280 C   0  0  2  0  0  3  0  0  0  0  0  0
  190.9980  176.4380  143.6410 O   0  0  0  0  0  0  0  0  0  0  0  0
  192.0920  176.6620  142.7990 C   0  0  0  0  0  2  0  0  0  0  0  0
  191.7620  177.7810  141.8330 C   0  0  0  0  0  2  0  0  0  0  0  0
  192.4350  177.5770  140.6270 O   0  0  0  0  0  1  0  0  0  0  0  0
  189.0270  177.1410  139.8150 C   0  0  0  0  0  2  0  0  0  0  0  0
  189.4930  176.4050  138.5710 C   0  0  0  0  0  2  0  0  0  0  0  0
  190.5890  177.1390  137.9550 N   0  0  0  0  0  2  0  0  0  0  0  0
  191.2540  176.2390  137.0240 C   0  0  0  0  0  2  0  0  0  0  0  0
  192.0630  175.1760  137.7710 C   0  0  0  0  0  2  0  0  0  0  0  0
  197.3150  173.2890  137.9460 C   0  0  0  0  0  2  0  0  0  0  0  0
  194.5790  175.4930  137.8450 C   0  0  0  0  0  2  0  0  0  0  0  0
  196.7810  174.4320  138.3310 C   0  0  0  0  0  2  0  0  0  0  0  0
  193.6800  173.3130  137.1580 C   0  0  0  0  0  2  0  0  0  0  0  0
  193.3920  175.2810  135.6810 C   0  0  0  0  0  1  0  0  0  0  0  0
  195.3660  174.4130  138.3950 N   0  0  2  0  0  0  0  0  0  0  0  0
  194.7880  173.1090  138.1720 C   0  0  2  0  0  3  0  0  0  0  0  0
  193.4120  174.8220  137.1260 C   0  0  1  0  0  0  0  0  0  0  0  0
  196.1060  172.0390  137.5120 S   0  0  0  0  0  0  0  0  0  0  0  0
  1  2  1  0  0  0  0
  1  6  1  0  0  0  0
  2  5  1  0  0  0  0
  3 22  1  0  0  0  0
  4  3  2  0  0  0  0
  5 48  1  1  0  0  0
  5  3  1  0  0  0  0
  6  8  1  6  0  0  0
  6  4  1  0  0  0  0
  8  7  1  1  0  0  0
  8  9  1  0  0  0  0
 10  9  1  0  0  0  0
 11 10  3  0  0  0  0
 13 12  1  1  0  0  0
 13 11  1  0  0  0  0
 14 15  2  6  0  0  0
 14 17  1  0  0  0  0
 14 13  1  0  0  0  0
 16 14  1  0  0  0  0
 17 21  1  0  0  0  0
 18 21  1  0  0  0  0
 20 21  2  0  0  0  0
 21 19  1  0  0  0  0
 22 23  1  0  0  0  0
 23 24  1  0  0  0  0
 24 25  1  0  0  0  0
 25 26  1  0  0  0  0
 25 33  1  0  0  0  0
 26 31  1  6  0  0  0
 27 28  1  6  0  0  0
 27 26  1  0  0  0  0
 30 29  1  0  0  0  0
 30 27  1  0  0  0  0
 31 32  1  0  0  0  0
 33 36  1  1  0  0  0
 33 35  1  0  0  0  0
 35 34  1  0  0  0  0
 37 39  1  0  0  0  0
 37 41  1  0  0  0  0
 38 44  1  6  0  0  0
 38 40  1  0  0  0  0
 38 42  1  0  0  0  0
 40 43  1  0  0  0  0
 42 37  2  0  0  0  0
 43 36  1  1  0  0  0
 43 39  1  0  0  0  0
 45 44  1  0  0  0  0
 46 45  1  0  0  0  0
 47 46  1  0  0  0  0
 49 48  1  0  0  0  0
 50 49  1  0  0  0  0
 51 52  1  0  0  0  0
 51 50  1  0  0  0  0
 53 55  1  0  0  0  0
 55 58  1  0  0  0  0
 58 54  1  6  0  0  0
 59 56  1  6  0  0  0
 59 58  1  0  0  0  0
 60 57  1  6  0  0  0
 60 56  1  0  0  0  0
 60 52  1  0  0  0  0
 60 54  1  0  0  0  0
 61 53  1  0  0  0  0
 61 59  1  0  0  0  0
M  END
>  <MODEL>
9

>  <REMARK>
 VINA RESULT:      -3.8      3.262      9.034
  Name = 
  28 active torsions:
  status: ('A' for Active; 'I' for Inactive)
    1  A    between atoms: N_1  and  C_24
    2  A    between atoms: N_1  and  C_35
    3  A    between atoms: N_1  and  C_52
    4  A    between atoms: C_3  and  C_52
    5  A    between atoms: C_6  and  C_35
    6  A    between atoms: C_6  and  C_61
    7  A    between atoms: C_7  and  C_15
    8  A    between atoms: P_10  and  O_27
    9  A    between atoms: P_10  and  C_60
   10  A    between atoms: C_15  and  C_29
   11  A    between atoms: O_16  and  C_28
   12  A    between atoms: O_16  and  C_47
   13  A    between atoms: C_17  and  C_52
   14  A    between atoms: C_17  and  C_57
   15  A    between atoms: C_18  and  C_24
   16  A    between atoms: C_18  and  S_43
   17  A    between atoms: C_19  and  C_25
   18  A    between atoms: C_19  and  N_39
   19  A    between atoms: C_21  and  C_50
   20  A    between atoms: C_21  and  C_53
   21  A    between atoms: C_23  and  C_60
   22  A    between atoms: C_25  and  C_49
   23  A    between atoms: O_27  and  P_58
   24  A    between atoms: C_29  and  C_59
   25  A    between atoms: C_34  and  C_47
   26  A    between atoms: C_35  and  C_56
   27  A    between atoms: N_39  and  C_53
   28  A    between atoms: C_42  and  S_43
                            x       y       z     vdW  Elec       q    Type
                         _______ _______ _______ _____ _____    ______ ____

>  <TORSDO>
F 28

$$$$
