=
 OpenBabel11032419533D

 48 51  0  0  1  0  0  0  0  0999 V2000
  191.0710  176.6010  137.7550 C   0  0  0  0  0  0  0  0  0  0  0  0
  188.9320  177.4840  139.3220 C   0  0  0  0  0  3  0  0  0  0  0  0
  190.1230  177.0760  139.9470 C   0  0  0  0  0  0  0  0  0  0  0  0
  188.8110  177.4530  137.9290 C   0  0  0  0  0  0  0  0  0  0  0  0
  189.8770  177.0020  137.1470 C   0  0  0  0  0  3  0  0  0  0  0  0
  191.1910  176.6390  139.1490 C   0  0  0  0  0  3  0  0  0  0  0  0
  190.2430  177.1030  141.4250 C   0  0  0  0  0  0  0  0  0  0  0  0
  190.4640  177.1870  144.2410 C   0  0  0  0  0  0  0  0  0  0  0  0
  191.4500  177.4690  142.0370 C   0  0  0  0  0  3  0  0  0  0  0  0
  189.1480  176.7720  142.2380 C   0  0  0  0  0  3  0  0  0  0  0  0
  191.5600  177.5060  143.4290 C   0  0  0  0  0  3  0  0  0  0  0  0
  189.2600  176.8100  143.6300 C   0  0  0  0  0  3  0  0  0  0  0  0
  190.6150  177.2110  145.7160 C   0  0  0  0  0  0  0  0  0  0  0  0
  191.7450  176.9370  146.2060 O   0  0  0  0  0  0  0  0  0  0  0  0
  189.5070  177.5430  146.6440 C   0  0  0  0  0  0  0  0  0  0  0  0
  189.7900  177.8340  147.9870 C   0  0  0  0  0  3  0  0  0  0  0  0
  188.1750  177.6140  146.2030 C   0  0  0  0  0  3  0  0  0  0  0  0
  187.1480  177.9510  147.0900 C   0  0  0  0  0  3  0  0  0  0  0  0
  187.4440  178.2280  148.4270 C   0  0  0  0  0  3  0  0  0  0  0  0
  188.7650  178.1720  148.8750 C   0  0  0  0  0  3  0  0  0  0  0  0
  187.5330  177.8580  137.2850 C   0  0  0  0  0  2  0  0  0  0  0  0
  186.4120  177.3780  138.0760 N   0  0  0  0  0  2  0  0  0  0  0  0
  185.3080  178.2950  137.8530 C   0  0  1  0  0  3  0  0  0  0  0  0
  184.2170  177.6030  137.3570 F   0  0  0  0  0  0  0  0  0  0  0  0
  184.5850  180.1710  139.1210 O   0  0  0  0  0  0  0  0  0  0  0  0
  184.9460  178.9640  139.1340 C   0  0  0  0  0  0  0  0  0  0  0  0
  185.0480  178.2490  140.3670 N   0  0  0  0  0  2  0  0  0  0  0  0
  185.5320  178.1910  142.7560 C   0  0  0  0  0  2  0  0  0  0  0  0
  183.1990  178.6980  141.9160 C   0  0  0  0  0  2  0  0  0  0  0  0
  183.8390  179.4150  144.2510 C   0  0  0  0  0  2  0  0  0  0  0  0
  185.2590  178.8440  144.1190 C   0  0  0  0  0  2  0  0  0  0  0  0
  184.7070  178.8430  141.6500 C   0  0  0  0  0  3  0  0  0  0  0  0
  182.8460  178.6240  143.4090 C   0  0  0  0  0  2  0  0  0  0  0  0
  192.2040  176.1230  136.9160 C   0  0  0  0  0  2  0  0  0  0  0  0
  193.3950  175.7750  137.7880 C   0  0  0  0  0  2  0  0  0  0  0  0
  195.3950  174.8900  136.5400 C   0  0  0  0  0  0  0  0  0  0  0  0
  194.6220  175.9800  137.0390 N   0  0  0  0  0  2  0  0  0  0  0  0
  195.0550  173.7010  136.7860 O   0  0  0  0  0  0  0  0  0  0  0  0
  196.5810  176.5710  135.1510 C   0  0  0  0  0  1  0  0  0  0  0  0
  196.6320  175.1770  135.7510 C   0  0  1  0  0  3  0  0  0  0  0  0
  198.9810  175.1180  136.0610 O   0  0  0  0  0  0  0  0  0  0  0  0
  197.8760  174.9760  136.5630 C   0  0  0  0  0  0  0  0  0  0  0  0
  197.7550  174.5810  137.9990 C   0  0  0  0  0  2  0  0  0  0  0  0
  198.2150  175.6640  138.8520 N   0  0  0  0  0  2  0  0  0  0  0  0
  196.2950  174.4990  140.3070 O   0  0  0  0  0  0  0  0  0  0  0  0
  196.8990  176.9540  140.9870 O   0  0  0  0  0  1  0  0  0  0  0  0
  198.5890  174.8380  141.5080 O   0  0  0  0  0  1  0  0  0  0  0  0
  197.4560  175.4600  140.4190 P   0  0  0  0  0  0  0  0  0  0  0  0
  1  6  1  0  0  0  0
  2  3  1  0  0  0  0
  3  7  1  0  0  0  0
  4  2  2  0  0  0  0
  5  1  2  0  0  0  0
  5  4  1  0  0  0  0
  6  3  2  0  0  0  0
  7  9  2  0  0  0  0
  7 10  1  0  0  0  0
  8 13  1  0  0  0  0
  9 11  1  0  0  0  0
 10 12  2  0  0  0  0
 11  8  2  0  0  0  0
 12  8  1  0  0  0  0
 13 14  2  0  0  0  0
 13 15  1  0  0  0  0
 15 16  1  0  0  0  0
 16 20  2  0  0  0  0
 17 15  2  0  0  0  0
 17 18  1  0  0  0  0
 18 19  2  0  0  0  0
 19 20  1  0  0  0  0
 21  4  1  0  0  0  0
 21 22  1  0  0  0  0
 23 24  1  1  0  0  0
 23 22  1  0  0  0  0
 23 26  1  0  0  0  0
 25 26  2  0  0  0  0
 26 27  1  0  0  0  0
 27 32  1  0  0  0  0
 28 31  1  0  0  0  0
 29 33  1  0  0  0  0
 31 30  1  0  0  0  0
 32 29  1  0  0  0  0
 32 28  1  0  0  0  0
 33 30  1  0  0  0  0
 34  1  1  0  0  0  0
 34 35  1  0  0  0  0
 36 38  2  0  0  0  0
 36 37  1  0  0  0  0
 37 35  1  0  0  0  0
 40 39  1  1  0  0  0
 40 36  1  0  0  0  0
 40 42  1  0  0  0  0
 41 42  2  0  0  0  0
 42 43  1  0  0  0  0
 43 44  1  0  0  0  0
 44 48  1  0  0  0  0
 45 48  2  0  0  0  0
 48 46  1  0  0  0  0
 48 47  1  0  0  0  0
M  END
>  <MODEL>
1

>  <REMARK>
 VINA RESULT:      -9.7      0.000      0.000
  Name = 
  16 active torsions:
  status: ('A' for Active; 'I' for Inactive)
    1  A    between atoms: N_1  and  C_8
    2  A    between atoms: N_1  and  C_16
    3  A    between atoms: C_2  and  C_30
    4  A    between atoms: C_3  and  C_31
    5  A    between atoms: C_5  and  C_6
    6  A    between atoms: C_6  and  C_25
    7  A    between atoms: C_8  and  C_43
    8  A    between atoms: C_9  and  C_13
    9  A    between atoms: C_13  and  C_22
   10  A    between atoms: C_16  and  C_32
   11  A    between atoms: N_19  and  C_22
   12  A    between atoms: C_28  and  C_35
   13  A    between atoms: C_28  and  N_41
   14  A    between atoms: C_30  and  C_35
   15  A    between atoms: C_33  and  N_48
   16  A    between atoms: P_39  and  N_41
                            x       y       z     vdW  Elec       q    Type
                         _______ _______ _______ _____ _____    ______ ____

>  <TORSDO>
F 16

$$$$
=
 OpenBabel11032419533D

 48 51  0  0  1  0  0  0  0  0999 V2000
  182.9530  178.8210  144.0640 C   0  0  0  0  0  0  0  0  0  0  0  0
  185.7390  178.7680  144.2830 C   0  0  0  0  0  3  0  0  0  0  0  0
  185.1460  178.6970  143.0110 C   0  0  0  0  0  0  0  0  0  0  0  0
  184.9510  178.8680  145.4330 C   0  0  0  0  0  0  0  0  0  0  0  0
  183.5580  178.8830  145.3230 C   0  0  0  0  0  3  0  0  0  0  0  0
  183.7460  178.7290  142.9140 C   0  0  0  0  0  3  0  0  0  0  0  0
  185.9880  178.5830  141.7940 C   0  0  0  0  0  0  0  0  0  0  0  0
  187.5880  178.3340  139.4790 C   0  0  0  0  0  0  0  0  0  0  0  0
  187.3760  178.4170  141.8990 C   0  0  0  0  0  3  0  0  0  0  0  0
  185.4090  178.6320  140.5170 C   0  0  0  0  0  3  0  0  0  0  0  0
  188.1670  178.2980  140.7550 C   0  0  0  0  0  3  0  0  0  0  0  0
  186.2020  178.5120  139.3730 C   0  0  0  0  0  3  0  0  0  0  0  0
  188.4540  178.2300  138.2800 C   0  0  0  0  0  0  0  0  0  0  0  0
  188.4820  179.2010  137.4770 O   0  0  0  0  0  0  0  0  0  0  0  0
  189.2900  177.0420  137.9790 C   0  0  0  0  0  0  0  0  0  0  0  0
  190.6260  177.0070  138.4080 C   0  0  0  0  0  3  0  0  0  0  0  0
  188.7670  175.9260  137.3070 C   0  0  0  0  0  3  0  0  0  0  0  0
  189.5660  174.8070  137.0540 C   0  0  0  0  0  3  0  0  0  0  0  0
  190.8970  174.7900  137.4770 C   0  0  0  0  0  3  0  0  0  0  0  0
  191.4270  175.8900  138.1570 C   0  0  0  0  0  3  0  0  0  0  0  0
  185.5930  178.9110  146.7740 C   0  0  0  0  0  2  0  0  0  0  0  0
  186.3800  177.7060  146.9790 N   0  0  0  0  0  2  0  0  0  0  0  0
  187.5620  178.0900  147.7310 C   0  0  1  0  0  3  0  0  0  0  0  0
  187.5630  177.4550  148.9600 F   0  0  0  0  0  0  0  0  0  0  0  0
  189.8350  177.4080  147.5870 O   0  0  0  0  0  0  0  0  0  0  0  0
  188.7840  177.7190  146.9640 C   0  0  0  0  0  0  0  0  0  0  0  0
  188.7700  177.7530  145.5360 N   0  0  0  0  0  2  0  0  0  0  0  0
  190.4250  178.6260  143.9720 C   0  0  0  0  0  2  0  0  0  0  0  0
  189.5720  176.2520  143.7680 C   0  0  0  0  0  2  0  0  0  0  0  0
  191.7810  176.8520  142.7020 C   0  0  0  0  0  2  0  0  0  0  0  0
  191.6960  178.3130  143.1680 C   0  0  0  0  0  2  0  0  0  0  0  0
  189.9280  177.3980  144.7300 C   0  0  0  0  0  3  0  0  0  0  0  0
  190.3930  176.2660  142.4710 C   0  0  0  0  0  2  0  0  0  0  0  0
  181.4690  178.8400  143.9540 C   0  0  0  0  0  2  0  0  0  0  0  0
  181.0480  179.4130  142.6140 C   0  0  0  0  0  2  0  0  0  0  0  0
  181.0990  178.3640  140.3240 C   0  0  0  0  0  0  0  0  0  0  0  0
  180.7280  178.3290  141.7010 N   0  0  0  0  0  2  0  0  0  0  0  0
  181.6790  179.3760  139.8450 O   0  0  0  0  0  0  0  0  0  0  0  0
  179.8070  177.6090  138.3440 C   0  0  0  0  0  1  0  0  0  0  0  0
  180.7620  177.1990  139.4510 C   0  0  1  0  0  3  0  0  0  0  0  0
  182.7520  175.9230  139.6290 O   0  0  0  0  0  0  0  0  0  0  0  0
  181.9900  176.5390  138.8980 C   0  0  0  0  0  0  0  0  0  0  0  0
  182.2880  176.6540  137.4390 C   0  0  0  0  0  2  0  0  0  0  0  0
  183.4660  177.4820  137.2370 N   0  0  0  0  0  2  0  0  0  0  0  0
  185.2120  175.4540  137.2540 O   0  0  0  0  0  1  0  0  0  0  0  0
  185.8880  177.5200  135.7930 O   0  0  0  0  0  1  0  0  0  0  0  0
  183.8770  175.7920  135.0340 O   0  0  0  0  0  0  0  0  0  0  0  0
  184.6390  176.5240  136.3530 P   0  0  0  0  0  0  0  0  0  0  0  0
  1  5  1  0  0  0  0
  2  4  1  0  0  0  0
  3  2  2  0  0  0  0
  4 21  1  0  0  0  0
  5  4  2  0  0  0  0
  6  3  1  0  0  0  0
  6  1  2  0  0  0  0
  7  9  1  0  0  0  0
  7  3  1  0  0  0  0
  8 11  1  0  0  0  0
 10  7  2  0  0  0  0
 11  9  2  0  0  0  0
 12  8  2  0  0  0  0
 12 10  1  0  0  0  0
 13  8  1  0  0  0  0
 14 13  2  0  0  0  0
 15 13  1  0  0  0  0
 15 16  1  0  0  0  0
 17 15  2  0  0  0  0
 18 17  1  0  0  0  0
 18 19  2  0  0  0  0
 19 20  1  0  0  0  0
 20 16  2  0  0  0  0
 21 22  1  0  0  0  0
 22 23  1  0  0  0  0
 23 24  1  1  0  0  0
 26 25  2  0  0  0  0
 26 23  1  0  0  0  0
 27 26  1  0  0  0  0
 28 32  1  0  0  0  0
 29 32  1  0  0  0  0
 30 31  1  0  0  0  0
 31 28  1  0  0  0  0
 32 27  1  0  0  0  0
 33 30  1  0  0  0  0
 33 29  1  0  0  0  0
 34  1  1  0  0  0  0
 35 34  1  0  0  0  0
 36 37  1  0  0  0  0
 37 35  1  0  0  0  0
 38 36  2  0  0  0  0
 40 39  1  6  0  0  0
 40 36  1  0  0  0  0
 42 40  1  0  0  0  0
 42 41  2  0  0  0  0
 43 42  1  0  0  0  0
 44 43  1  0  0  0  0
 46 48  1  0  0  0  0
 47 48  2  0  0  0  0
 48 44  1  0  0  0  0
 48 45  1  0  0  0  0
M  END
>  <MODEL>
2

>  <REMARK>
 VINA RESULT:      -9.6      5.270     10.835
  Name = 
  16 active torsions:
  status: ('A' for Active; 'I' for Inactive)
    1  A    between atoms: N_1  and  C_8
    2  A    between atoms: N_1  and  C_16
    3  A    between atoms: C_2  and  C_30
    4  A    between atoms: C_3  and  C_31
    5  A    between atoms: C_5  and  C_6
    6  A    between atoms: C_6  and  C_25
    7  A    between atoms: C_8  and  C_43
    8  A    between atoms: C_9  and  C_13
    9  A    between atoms: C_13  and  C_22
   10  A    between atoms: C_16  and  C_32
   11  A    between atoms: N_19  and  C_22
   12  A    between atoms: C_28  and  C_35
   13  A    between atoms: C_28  and  N_41
   14  A    between atoms: C_30  and  C_35
   15  A    between atoms: C_33  and  N_48
   16  A    between atoms: P_39  and  N_41
                            x       y       z     vdW  Elec       q    Type
                         _______ _______ _______ _____ _____    ______ ____

>  <TORSDO>
F 16

$$$$
=
 OpenBabel11032419533D

 48 51  0  0  1  0  0  0  0  0999 V2000
  184.4700  178.8790  145.0580 C   0  0  0  0  0  0  0  0  0  0  0  0
  183.4370  178.7260  142.4650 C   0  0  0  0  0  3  0  0  0  0  0  0
  184.8290  178.6820  142.6560 C   0  0  0  0  0  0  0  0  0  0  0  0
  182.5700  178.8420  143.5550 C   0  0  0  0  0  0  0  0  0  0  0  0
  183.0880  178.9290  144.8500 C   0  0  0  0  0  3  0  0  0  0  0  0
  185.3350  178.7550  143.9640 C   0  0  0  0  0  3  0  0  0  0  0  0
  185.7440  178.5660  141.4950 C   0  0  0  0  0  0  0  0  0  0  0  0
  187.4910  178.3790  139.2820 C   0  0  0  0  0  0  0  0  0  0  0  0
  185.2490  178.6370  140.1850 C   0  0  0  0  0  3  0  0  0  0  0  0
  187.1230  178.3910  141.6860 C   0  0  0  0  0  3  0  0  0  0  0  0
  186.1120  178.5400  139.0920 C   0  0  0  0  0  3  0  0  0  0  0  0
  187.9850  178.2960  140.5910 C   0  0  0  0  0  3  0  0  0  0  0  0
  188.3820  178.2540  138.1030 C   0  0  0  0  0  0  0  0  0  0  0  0
  188.4050  179.1990  137.2680 O   0  0  0  0  0  0  0  0  0  0  0  0
  189.2480  177.0760  137.8570 C   0  0  0  0  0  0  0  0  0  0  0  0
  190.6030  177.1230  138.2180 C   0  0  0  0  0  3  0  0  0  0  0  0
  188.7370  175.8890  137.3050 C   0  0  0  0  0  3  0  0  0  0  0  0
  189.5660  174.7820  137.1030 C   0  0  0  0  0  3  0  0  0  0  0  0
  190.9150  174.8480  137.4570 C   0  0  0  0  0  3  0  0  0  0  0  0
  191.4340  176.0170  138.0170 C   0  0  0  0  0  3  0  0  0  0  0  0
  181.1020  178.9190  143.3330 C   0  0  0  0  0  2  0  0  0  0  0  0
  180.8050  179.9810  142.3870 N   0  0  0  0  0  2  0  0  0  0  0  0
  179.6280  179.5720  141.6400 C   0  0  1  0  0  3  0  0  0  0  0  0
  179.0960  180.6600  140.9710 F   0  0  0  0  0  0  0  0  0  0  0  0
  179.2910  177.4680  140.5870 O   0  0  0  0  0  0  0  0  0  0  0  0
  179.9990  178.5070  140.6660 C   0  0  0  0  0  0  0  0  0  0  0  0
  181.1690  178.6530  139.8600 N   0  0  0  0  0  2  0  0  0  0  0  0
  182.5270  176.6500  139.5510 C   0  0  0  0  0  2  0  0  0  0  0  0
  182.2470  178.3310  137.6780 C   0  0  0  0  0  2  0  0  0  0  0  0
  182.9460  175.9730  137.1080 C   0  0  0  0  0  2  0  0  0  0  0  0
  182.9260  175.5300  138.5790 C   0  0  0  0  0  2  0  0  0  0  0  0
  181.5840  177.6520  138.8880 C   0  0  0  0  0  3  0  0  0  0  0  0
  183.2950  177.4510  136.9820 C   0  0  0  0  0  2  0  0  0  0  0  0
  185.0140  178.9700  146.4400 C   0  0  0  0  0  2  0  0  0  0  0  0
  185.7280  177.6850  146.8100 C   0  0  0  0  0  2  0  0  0  0  0  0
  188.2310  177.5980  146.5480 C   0  0  0  0  0  0  0  0  0  0  0  0
  187.0690  177.9900  147.2760 N   0  0  0  0  0  2  0  0  0  0  0  0
  188.1230  176.9200  145.4900 O   0  0  0  0  0  0  0  0  0  0  0  0
  189.5360  178.1920  148.5740 C   0  0  0  0  0  1  0  0  0  0  0  0
  189.5800  177.9740  147.0720 C   0  0  1  0  0  3  0  0  0  0  0  0
  190.7190  175.9070  147.2900 O   0  0  0  0  0  0  0  0  0  0  0  0
  190.6280  176.9710  146.6950 C   0  0  0  0  0  0  0  0  0  0  0  0
  191.5810  177.2890  145.5900 C   0  0  0  0  0  2  0  0  0  0  0  0
  191.5330  176.2470  144.5780 N   0  0  0  0  0  2  0  0  0  0  0  0
  190.2560  178.3030  143.4370 O   0  0  0  0  0  1  0  0  0  0  0  0
  189.6790  175.9370  142.4750 O   0  0  0  0  0  1  0  0  0  0  0  0
  192.1020  177.1600  141.9850 O   0  0  0  0  0  0  0  0  0  0  0  0
  190.8660  176.9570  143.1200 P   0  0  0  0  0  0  0  0  0  0  0  0
  1 34  1  0  0  0  0
  2  3  2  0  0  0  0
  2  4  1  0  0  0  0
  3  6  1  0  0  0  0
  4  5  2  0  0  0  0
  5  1  1  0  0  0  0
  6  1  2  0  0  0  0
  7 10  1  0  0  0  0
  7  3  1  0  0  0  0
  8 12  1  0  0  0  0
  9  7  2  0  0  0  0
 11  8  2  0  0  0  0
 11  9  1  0  0  0  0
 12 10  2  0  0  0  0
 13  8  1  0  0  0  0
 14 13  2  0  0  0  0
 15 13  1  0  0  0  0
 15 16  1  0  0  0  0
 17 15  2  0  0  0  0
 18 17  1  0  0  0  0
 18 19  2  0  0  0  0
 19 20  1  0  0  0  0
 20 16  2  0  0  0  0
 21  4  1  0  0  0  0
 22 21  1  0  0  0  0
 23 24  1  6  0  0  0
 23 22  1  0  0  0  0
 25 26  2  0  0  0  0
 26 23  1  0  0  0  0
 27 26  1  0  0  0  0
 29 32  1  0  0  0  0
 30 31  1  0  0  0  0
 31 28  1  0  0  0  0
 32 28  1  0  0  0  0
 32 27  1  0  0  0  0
 33 30  1  0  0  0  0
 33 29  1  0  0  0  0
 34 35  1  0  0  0  0
 35 37  1  0  0  0  0
 36 40  1  0  0  0  0
 36 37  1  0  0  0  0
 38 36  2  0  0  0  0
 40 39  1  1  0  0  0
 42 40  1  0  0  0  0
 42 41  2  0  0  0  0
 43 42  1  0  0  0  0
 44 43  1  0  0  0  0
 46 48  1  0  0  0  0
 47 48  2  0  0  0  0
 48 45  1  0  0  0  0
 48 44  1  0  0  0  0
M  END
>  <MODEL>
3

>  <REMARK>
 VINA RESULT:      -9.3      4.079      8.956
  Name = 
  16 active torsions:
  status: ('A' for Active; 'I' for Inactive)
    1  A    between atoms: N_1  and  C_8
    2  A    between atoms: N_1  and  C_16
    3  A    between atoms: C_2  and  C_30
    4  A    between atoms: C_3  and  C_31
    5  A    between atoms: C_5  and  C_6
    6  A    between atoms: C_6  and  C_25
    7  A    between atoms: C_8  and  C_43
    8  A    between atoms: C_9  and  C_13
    9  A    between atoms: C_13  and  C_22
   10  A    between atoms: C_16  and  C_32
   11  A    between atoms: N_19  and  C_22
   12  A    between atoms: C_28  and  C_35
   13  A    between atoms: C_28  and  N_41
   14  A    between atoms: C_30  and  C_35
   15  A    between atoms: C_33  and  N_48
   16  A    between atoms: P_39  and  N_41
                            x       y       z     vdW  Elec       q    Type
                         _______ _______ _______ _____ _____    ______ ____

>  <TORSDO>
F 16

$$$$
=
 OpenBabel11032419533D

 48 51  0  0  1  0  0  0  0  0999 V2000
  182.1280  178.7770  142.2290 C   0  0  0  0  0  0  0  0  0  0  0  0
  184.7640  178.7980  143.1580 C   0  0  0  0  0  3  0  0  0  0  0  0
  184.5190  178.6650  141.7800 C   0  0  0  0  0  0  0  0  0  0  0  0
  183.7040  178.9220  144.0620 C   0  0  0  0  0  0  0  0  0  0  0  0
  182.3860  178.9010  143.5970 C   0  0  0  0  0  3  0  0  0  0  0  0
  183.1910  178.6610  141.3260 C   0  0  0  0  0  3  0  0  0  0  0  0
  185.6470  178.5270  140.8260 C   0  0  0  0  0  0  0  0  0  0  0  0
  187.7940  178.2960  139.0050 C   0  0  0  0  0  0  0  0  0  0  0  0
  185.4070  178.4040  139.4510 C   0  0  0  0  0  3  0  0  0  0  0  0
  186.9730  178.5240  141.2830 C   0  0  0  0  0  3  0  0  0  0  0  0
  186.4690  178.2860  138.5510 C   0  0  0  0  0  3  0  0  0  0  0  0
  188.0340  178.4060  140.3820 C   0  0  0  0  0  3  0  0  0  0  0  0
  188.9020  178.1440  138.0310 C   0  0  0  0  0  0  0  0  0  0  0  0
  189.2300  179.1450  137.3380 O   0  0  0  0  0  0  0  0  0  0  0  0
  189.6440  176.8750  137.8320 C   0  0  0  0  0  0  0  0  0  0  0  0
  188.9930  175.7740  137.2540 C   0  0  0  0  0  3  0  0  0  0  0  0
  191.0020  176.7560  138.1710 C   0  0  0  0  0  3  0  0  0  0  0  0
  191.6880  175.5580  137.9530 C   0  0  0  0  0  3  0  0  0  0  0  0
  191.0250  174.4670  137.3870 C   0  0  0  0  0  3  0  0  0  0  0  0
  189.6780  174.5750  137.0350 C   0  0  0  0  0  3  0  0  0  0  0  0
  183.9790  179.0310  145.5190 C   0  0  0  0  0  2  0  0  0  0  0  0
  185.3570  179.4440  145.7280 N   0  0  0  0  0  2  0  0  0  0  0  0
  185.8290  178.7690  146.9250 C   0  0  1  0  0  3  0  0  0  0  0  0
  184.8520  177.9100  147.3950 F   0  0  0  0  0  0  0  0  0  0  0  0
  187.7110  177.4560  147.5460 O   0  0  0  0  0  0  0  0  0  0  0  0
  187.0690  178.0050  146.6110 C   0  0  0  0  0  0  0  0  0  0  0  0
  187.5420  177.9330  145.2650 N   0  0  0  0  0  2  0  0  0  0  0  0
  189.9030  178.1750  144.7030 C   0  0  0  0  0  2  0  0  0  0  0  0
  188.4880  176.3790  143.6170 C   0  0  0  0  0  2  0  0  0  0  0  0
  190.9990  176.1080  143.6420 C   0  0  0  0  0  2  0  0  0  0  0  0
  191.2110  177.4350  144.3860 C   0  0  0  0  0  2  0  0  0  0  0  0
  188.7430  177.2000  144.8920 C   0  0  0  0  0  3  0  0  0  0  0  0
  189.7500  176.1590  142.7700 C   0  0  0  0  0  2  0  0  0  0  0  0
  180.7220  178.7560  141.7410 C   0  0  0  0  0  2  0  0  0  0  0  0
  180.5690  179.6670  140.5370 C   0  0  0  0  0  2  0  0  0  0  0  0
  181.4040  179.0660  138.2380 C   0  0  0  0  0  0  0  0  0  0  0  0
  180.5050  178.8660  139.3280 N   0  0  0  0  0  2  0  0  0  0  0  0
  182.2580  179.9930  138.2780 O   0  0  0  0  0  0  0  0  0  0  0  0
  181.1910  179.0080  135.7660 C   0  0  0  0  0  1  0  0  0  0  0  0
  181.2980  178.1830  137.0360 C   0  0  1  0  0  3  0  0  0  0  0  0
  183.4900  177.5110  136.4330 O   0  0  0  0  0  0  0  0  0  0  0  0
  182.4300  177.2030  136.9590 C   0  0  0  0  0  0  0  0  0  0  0  0
  182.2480  175.8310  137.5190 C   0  0  0  0  0  2  0  0  0  0  0  0
  183.5030  175.3500  138.0740 N   0  0  0  0  0  2  0  0  0  0  0  0
  182.7270  173.0210  137.0090 O   0  0  0  0  0  1  0  0  0  0  0  0
  185.1240  173.0420  138.0640 O   0  0  0  0  0  1  0  0  0  0  0  0
  184.5650  174.3250  135.6870 O   0  0  0  0  0  0  0  0  0  0  0  0
  183.9450  173.8960  137.2000 P   0  0  0  0  0  0  0  0  0  0  0  0
  1  5  1  0  0  0  0
  2  4  1  0  0  0  0
  3  2  2  0  0  0  0
  4 21  1  0  0  0  0
  5  4  2  0  0  0  0
  6  3  1  0  0  0  0
  6  1  2  0  0  0  0
  7 10  1  0  0  0  0
  7  3  1  0  0  0  0
  8 12  1  0  0  0  0
  9  7  2  0  0  0  0
 11  8  2  0  0  0  0
 11  9  1  0  0  0  0
 12 10  2  0  0  0  0
 13  8  1  0  0  0  0
 14 13  2  0  0  0  0
 15 13  1  0  0  0  0
 15 17  1  0  0  0  0
 16 15  2  0  0  0  0
 18 17  2  0  0  0  0
 19 18  1  0  0  0  0
 20 16  1  0  0  0  0
 20 19  2  0  0  0  0
 21 22  1  0  0  0  0
 22 23  1  0  0  0  0
 23 24  1  6  0  0  0
 26 23  1  0  0  0  0
 26 25  2  0  0  0  0
 27 26  1  0  0  0  0
 28 32  1  0  0  0  0
 29 32  1  0  0  0  0
 30 31  1  0  0  0  0
 31 28  1  0  0  0  0
 32 27  1  0  0  0  0
 33 29  1  0  0  0  0
 33 30  1  0  0  0  0
 34  1  1  0  0  0  0
 35 34  1  0  0  0  0
 36 38  2  0  0  0  0
 36 37  1  0  0  0  0
 37 35  1  0  0  0  0
 40 39  1  6  0  0  0
 40 36  1  0  0  0  0
 41 42  2  0  0  0  0
 42 40  1  0  0  0  0
 42 43  1  0  0  0  0
 43 44  1  0  0  0  0
 45 48  1  0  0  0  0
 47 48  2  0  0  0  0
 48 46  1  0  0  0  0
 48 44  1  0  0  0  0
M  END
>  <MODEL>
4

>  <REMARK>
 VINA RESULT:      -9.3      5.218     10.596
  Name = 
  16 active torsions:
  status: ('A' for Active; 'I' for Inactive)
    1  A    between atoms: N_1  and  C_8
    2  A    between atoms: N_1  and  C_16
    3  A    between atoms: C_2  and  C_30
    4  A    between atoms: C_3  and  C_31
    5  A    between atoms: C_5  and  C_6
    6  A    between atoms: C_6  and  C_25
    7  A    between atoms: C_8  and  C_43
    8  A    between atoms: C_9  and  C_13
    9  A    between atoms: C_13  and  C_22
   10  A    between atoms: C_16  and  C_32
   11  A    between atoms: N_19  and  C_22
   12  A    between atoms: C_28  and  C_35
   13  A    between atoms: C_28  and  N_41
   14  A    between atoms: C_30  and  C_35
   15  A    between atoms: C_33  and  N_48
   16  A    between atoms: P_39  and  N_41
                            x       y       z     vdW  Elec       q    Type
                         _______ _______ _______ _____ _____    ______ ____

>  <TORSDO>
F 16

$$$$
=
 OpenBabel11032419533D

 48 51  0  0  1  0  0  0  0  0999 V2000
  188.9130  175.8410  136.5910 C   0  0  0  0  0  0  0  0  0  0  0  0
  187.4140  177.3710  138.3870 C   0  0  0  0  0  3  0  0  0  0  0  0
  188.7080  176.9550  138.7480 C   0  0  0  0  0  0  0  0  0  0  0  0
  186.8760  177.0300  137.1430 C   0  0  0  0  0  0  0  0  0  0  0  0
  187.6220  176.2560  136.2500 C   0  0  0  0  0  3  0  0  0  0  0  0
  189.4520  176.1910  137.8350 C   0  0  0  0  0  3  0  0  0  0  0  0
  189.2710  177.3140  140.0720 C   0  0  0  0  0  0  0  0  0  0  0  0
  190.3320  177.9680  142.6070 C   0  0  0  0  0  0  0  0  0  0  0  0
  188.4750  177.9450  141.0390 C   0  0  0  0  0  3  0  0  0  0  0  0
  190.6070  177.0220  140.3840 C   0  0  0  0  0  3  0  0  0  0  0  0
  189.0020  178.2710  142.2910 C   0  0  0  0  0  3  0  0  0  0  0  0
  191.1320  177.3490  141.6370 C   0  0  0  0  0  3  0  0  0  0  0  0
  190.8730  178.3490  143.9350 C   0  0  0  0  0  0  0  0  0  0  0  0
  191.8120  179.1890  143.9800 O   0  0  0  0  0  0  0  0  0  0  0  0
  190.3640  177.7920  145.2120 C   0  0  0  0  0  0  0  0  0  0  0  0
  189.0200  177.9890  145.5680 C   0  0  0  0  0  3  0  0  0  0  0  0
  191.1840  177.0340  146.0630 C   0  0  0  0  0  3  0  0  0  0  0  0
  190.6780  176.4990  147.2520 C   0  0  0  0  0  3  0  0  0  0  0  0
  189.3410  176.7120  147.5980 C   0  0  0  0  0  3  0  0  0  0  0  0
  188.5120  177.4540  146.7550 C   0  0  0  0  0  3  0  0  0  0  0  0
  185.4940  177.4510  136.7900 C   0  0  0  0  0  2  0  0  0  0  0  0
  184.5780  177.0610  137.8470 N   0  0  0  0  0  2  0  0  0  0  0  0
  183.7340  178.2100  138.1280 C   0  0  1  0  0  3  0  0  0  0  0  0
  182.4080  177.8190  138.1730 F   0  0  0  0  0  0  0  0  0  0  0  0
  184.9110  179.8040  139.4420 O   0  0  0  0  0  0  0  0  0  0  0  0
  184.1310  178.8140  139.4310 C   0  0  0  0  0  0  0  0  0  0  0  0
  183.6560  178.2490  140.6540 N   0  0  0  0  0  2  0  0  0  0  0  0
  185.1030  177.9490  142.5950 C   0  0  0  0  0  2  0  0  0  0  0  0
  182.7550  178.8570  142.8550 C   0  0  0  0  0  2  0  0  0  0  0  0
  184.4450  179.3020  144.6770 C   0  0  0  0  0  2  0  0  0  0  0  0
  185.5540  178.5370  143.9400 C   0  0  0  0  0  2  0  0  0  0  0  0
  184.0030  178.7940  141.9580 C   0  0  0  0  0  3  0  0  0  0  0  0
  183.0710  178.7290  144.3520 C   0  0  0  0  0  2  0  0  0  0  0  0
  189.7030  175.0180  135.6350 C   0  0  0  0  0  2  0  0  0  0  0  0
  190.0220  173.6660  136.2440 C   0  0  0  0  0  2  0  0  0  0  0  0
  192.5170  173.5430  136.5610 C   0  0  0  0  0  0  0  0  0  0  0  0
  191.3410  173.2390  135.8130 N   0  0  0  0  0  2  0  0  0  0  0  0
  192.4460  174.2450  137.6050 O   0  0  0  0  0  0  0  0  0  0  0  0
  193.6580  171.9090  135.0800 C   0  0  0  0  0  1  0  0  0  0  0  0
  193.8390  173.0440  136.0720 C   0  0  1  0  0  3  0  0  0  0  0  0
  194.1760  175.0060  134.7860 O   0  0  0  0  0  0  0  0  0  0  0  0
  194.6770  174.1460  135.4950 C   0  0  0  0  0  0  0  0  0  0  0  0
  196.1420  174.1780  135.7820 C   0  0  0  0  0  2  0  0  0  0  0  0
  196.4290  175.1850  136.7900 N   0  0  0  0  0  2  0  0  0  0  0  0
  198.1630  173.3180  137.6080 O   0  0  0  0  0  0  0  0  0  0  0  0
  196.0660  173.6650  139.1370 O   0  0  0  0  0  1  0  0  0  0  0  0
  198.1050  175.5170  139.0160 O   0  0  0  0  0  1  0  0  0  0  0  0
  197.2230  174.3800  138.1300 P   0  0  0  0  0  0  0  0  0  0  0  0
  1  6  1  0  0  0  0
  2  3  1  0  0  0  0
  3  7  1  0  0  0  0
  4  2  2  0  0  0  0
  5  1  2  0  0  0  0
  5  4  1  0  0  0  0
  6  3  2  0  0  0  0
  7 10  2  0  0  0  0
  7  9  1  0  0  0  0
  8 13  1  0  0  0  0
  9 11  2  0  0  0  0
 10 12  1  0  0  0  0
 11  8  1  0  0  0  0
 12  8  2  0  0  0  0
 13 14  2  0  0  0  0
 13 15  1  0  0  0  0
 15 16  2  0  0  0  0
 15 17  1  0  0  0  0
 16 20  1  0  0  0  0
 17 18  2  0  0  0  0
 18 19  1  0  0  0  0
 20 19  2  0  0  0  0
 21  4  1  0  0  0  0
 21 22  1  0  0  0  0
 22 23  1  0  0  0  0
 23 24  1  1  0  0  0
 23 26  1  0  0  0  0
 26 25  2  0  0  0  0
 26 27  1  0  0  0  0
 27 32  1  0  0  0  0
 28 31  1  0  0  0  0
 29 33  1  0  0  0  0
 31 30  1  0  0  0  0
 32 28  1  0  0  0  0
 32 29  1  0  0  0  0
 33 30  1  0  0  0  0
 34 35  1  0  0  0  0
 34  1  1  0  0  0  0
 36 38  2  0  0  0  0
 37 35  1  0  0  0  0
 37 36  1  0  0  0  0
 40 39  1  6  0  0  0
 40 36  1  0  0  0  0
 41 42  2  0  0  0  0
 42 43  1  0  0  0  0
 42 40  1  0  0  0  0
 43 44  1  0  0  0  0
 44 48  1  0  0  0  0
 45 48  2  0  0  0  0
 48 47  1  0  0  0  0
 48 46  1  0  0  0  0
M  END
>  <MODEL>
5

>  <REMARK>
 VINA RESULT:      -9.1      1.843      2.695
  Name = 
  16 active torsions:
  status: ('A' for Active; 'I' for Inactive)
    1  A    between atoms: N_1  and  C_8
    2  A    between atoms: N_1  and  C_16
    3  A    between atoms: C_2  and  C_30
    4  A    between atoms: C_3  and  C_31
    5  A    between atoms: C_5  and  C_6
    6  A    between atoms: C_6  and  C_25
    7  A    between atoms: C_8  and  C_43
    8  A    between atoms: C_9  and  C_13
    9  A    between atoms: C_13  and  C_22
   10  A    between atoms: C_16  and  C_32
   11  A    between atoms: N_19  and  C_22
   12  A    between atoms: C_28  and  C_35
   13  A    between atoms: C_28  and  N_41
   14  A    between atoms: C_30  and  C_35
   15  A    between atoms: C_33  and  N_48
   16  A    between atoms: P_39  and  N_41
                            x       y       z     vdW  Elec       q    Type
                         _______ _______ _______ _____ _____    ______ ____

>  <TORSDO>
F 16

$$$$
=
 OpenBabel11032419533D

 48 51  0  0  1  0  0  0  0  0999 V2000
  181.8130  178.6800  139.4880 C   0  0  0  0  0  0  0  0  0  0  0  0
  184.5400  178.2440  139.9210 C   0  0  0  0  0  3  0  0  0  0  0  0
  183.6960  178.4790  141.0200 C   0  0  0  0  0  0  0  0  0  0  0  0
  184.0280  178.2240  138.6200 C   0  0  0  0  0  0  0  0  0  0  0  0
  182.6660  178.4530  138.4040 C   0  0  0  0  0  3  0  0  0  0  0  0
  182.3280  178.6920  140.7900 C   0  0  0  0  0  3  0  0  0  0  0  0
  184.2460  178.5070  142.3970 C   0  0  0  0  0  0  0  0  0  0  0  0
  185.2850  178.5270  145.0250 C   0  0  0  0  0  0  0  0  0  0  0  0
  183.4200  178.8030  143.4900 C   0  0  0  0  0  3  0  0  0  0  0  0
  185.6010  178.2280  142.6320 C   0  0  0  0  0  3  0  0  0  0  0  0
  183.9350  178.8170  144.7880 C   0  0  0  0  0  3  0  0  0  0  0  0
  186.1140  178.2420  143.9310 C   0  0  0  0  0  3  0  0  0  0  0  0
  185.8110  178.5740  146.4110 C   0  0  0  0  0  0  0  0  0  0  0  0
  185.0510  178.9940  147.3250 O   0  0  0  0  0  0  0  0  0  0  0  0
  187.1840  178.1490  146.7760 C   0  0  0  0  0  0  0  0  0  0  0  0
  187.6340  178.3160  148.0950 C   0  0  0  0  0  3  0  0  0  0  0  0
  188.0390  177.5420  145.8410 C   0  0  0  0  0  3  0  0  0  0  0  0
  189.3220  177.1280  146.2130 C   0  0  0  0  0  3  0  0  0  0  0  0
  189.7600  177.3110  147.5270 C   0  0  0  0  0  3  0  0  0  0  0  0
  188.9150  177.9020  148.4680 C   0  0  0  0  0  3  0  0  0  0  0  0
  184.9390  178.0050  137.4650 C   0  0  0  0  0  2  0  0  0  0  0  0
  186.1940  178.7020  137.6930 N   0  0  0  0  0  2  0  0  0  0  0  0
  187.2410  177.6960  137.7300 C   0  0  1  0  0  3  0  0  0  0  0  0
  187.8220  177.5780  136.4800 F   0  0  0  0  0  0  0  0  0  0  0  0
  188.8310  179.2070  138.6470 O   0  0  0  0  0  0  0  0  0  0  0  0
  188.2700  178.0820  138.7360 C   0  0  0  0  0  0  0  0  0  0  0  0
  188.6410  177.1650  139.7670 N   0  0  0  0  0  2  0  0  0  0  0  0
  191.0260  177.1100  140.2730 C   0  0  0  0  0  2  0  0  0  0  0  0
  189.3040  176.7530  142.0940 C   0  0  0  0  0  2  0  0  0  0  0  0
  191.6350  177.4770  142.7410 C   0  0  0  0  0  2  0  0  0  0  0  0
  192.1150  177.5020  141.2830 C   0  0  0  0  0  2  0  0  0  0  0  0
  189.6350  177.4830  140.7810 C   0  0  0  0  0  3  0  0  0  0  0  0
  190.5420  176.4340  142.9440 C   0  0  0  0  0  2  0  0  0  0  0  0
  180.3630  178.9210  139.2510 C   0  0  0  0  0  2  0  0  0  0  0  0
  179.5470  177.7400  139.7400 C   0  0  0  0  0  2  0  0  0  0  0  0
  180.3810  175.4510  139.1020 C   0  0  0  0  0  0  0  0  0  0  0  0
  179.6630  176.6440  138.7940 N   0  0  0  0  0  2  0  0  0  0  0  0
  180.9860  175.3360  140.2030 O   0  0  0  0  0  0  0  0  0  0  0  0
  179.1090  173.6110  138.0250 C   0  0  0  0  0  1  0  0  0  0  0  0
  180.4340  174.3510  138.0900 C   0  0  1  0  0  3  0  0  0  0  0  0
  180.0400  175.3880  135.9960 O   0  0  0  0  0  0  0  0  0  0  0  0
  180.8480  174.8520  136.7390 C   0  0  0  0  0  0  0  0  0  0  0  0
  182.2640  174.6740  136.2960 C   0  0  0  0  0  2  0  0  0  0  0  0
  183.1180  174.4360  137.4480 N   0  0  0  0  0  2  0  0  0  0  0  0
  185.1300  172.7510  137.9680 O   0  0  0  0  0  1  0  0  0  0  0  0
  185.7190  174.7710  136.4100 O   0  0  0  0  0  1  0  0  0  0  0  0
  184.1680  172.6630  135.5420 O   0  0  0  0  0  0  0  0  0  0  0  0
  184.5630  173.6250  136.8740 P   0  0  0  0  0  0  0  0  0  0  0  0
  1  6  1  0  0  0  0
  2  3  1  0  0  0  0
  3  7  1  0  0  0  0
  4  2  2  0  0  0  0
  5  4  1  0  0  0  0
  5  1  2  0  0  0  0
  6  3  2  0  0  0  0
  7 10  2  0  0  0  0
  7  9  1  0  0  0  0
  8 13  1  0  0  0  0
  9 11  2  0  0  0  0
 10 12  1  0  0  0  0
 11  8  1  0  0  0  0
 12  8  2  0  0  0  0
 13 15  1  0  0  0  0
 13 14  2  0  0  0  0
 15 16  1  0  0  0  0
 16 20  2  0  0  0  0
 17 18  1  0  0  0  0
 17 15  2  0  0  0  0
 18 19  2  0  0  0  0
 19 20  1  0  0  0  0
 21 22  1  0  0  0  0
 21  4  1  0  0  0  0
 22 23  1  0  0  0  0
 23 24  1  6  0  0  0
 23 26  1  0  0  0  0
 25 26  2  0  0  0  0
 26 27  1  0  0  0  0
 27 32  1  0  0  0  0
 28 32  1  0  0  0  0
 28 31  1  0  0  0  0
 29 33  1  0  0  0  0
 30 33  1  0  0  0  0
 31 30  1  0  0  0  0
 32 29  1  0  0  0  0
 34  1  1  0  0  0  0
 34 35  1  0  0  0  0
 36 38  2  0  0  0  0
 37 36  1  0  0  0  0
 37 35  1  0  0  0  0
 40 39  1  6  0  0  0
 40 36  1  0  0  0  0
 41 42  2  0  0  0  0
 42 40  1  0  0  0  0
 43 42  1  0  0  0  0
 43 44  1  0  0  0  0
 46 48  1  0  0  0  0
 47 48  2  0  0  0  0
 48 44  1  0  0  0  0
 48 45  1  0  0  0  0
M  END
>  <MODEL>
6

>  <REMARK>
 VINA RESULT:      -9.0      5.037      9.646
  Name = 
  16 active torsions:
  status: ('A' for Active; 'I' for Inactive)
    1  A    between atoms: N_1  and  C_8
    2  A    between atoms: N_1  and  C_16
    3  A    between atoms: C_2  and  C_30
    4  A    between atoms: C_3  and  C_31
    5  A    between atoms: C_5  and  C_6
    6  A    between atoms: C_6  and  C_25
    7  A    between atoms: C_8  and  C_43
    8  A    between atoms: C_9  and  C_13
    9  A    between atoms: C_13  and  C_22
   10  A    between atoms: C_16  and  C_32
   11  A    between atoms: N_19  and  C_22
   12  A    between atoms: C_28  and  C_35
   13  A    between atoms: C_28  and  N_41
   14  A    between atoms: C_30  and  C_35
   15  A    between atoms: C_33  and  N_48
   16  A    between atoms: P_39  and  N_41
                            x       y       z     vdW  Elec       q    Type
                         _______ _______ _______ _____ _____    ______ ____

>  <TORSDO>
F 16

$$$$
=
 OpenBabel11032419533D

 48 51  0  0  1  0  0  0  0  0999 V2000
  191.3460  176.3740  137.6950 C   0  0  0  0  0  0  0  0  0  0  0  0
  189.4590  177.8700  139.1150 C   0  0  0  0  0  3  0  0  0  0  0  0
  190.4250  177.1310  139.8200 C   0  0  0  0  0  0  0  0  0  0  0  0
  189.4370  177.8650  137.7170 C   0  0  0  0  0  0  0  0  0  0  0  0
  190.3750  177.1080  137.0080 C   0  0  0  0  0  3  0  0  0  0  0  0
  191.3700  176.3870  139.0950 C   0  0  0  0  0  3  0  0  0  0  0  0
  190.4390  177.1340  141.3030 C   0  0  0  0  0  0  0  0  0  0  0  0
  190.4850  177.1120  144.1280 C   0  0  0  0  0  0  0  0  0  0  0  0
  189.4990  176.3880  142.0270 C   0  0  0  0  0  3  0  0  0  0  0  0
  191.3990  177.8770  142.0070 C   0  0  0  0  0  3  0  0  0  0  0  0
  189.5190  176.3810  143.4230 C   0  0  0  0  0  3  0  0  0  0  0  0
  191.4180  177.8680  143.4040 C   0  0  0  0  0  3  0  0  0  0  0  0
  190.4690  177.1060  145.6100 C   0  0  0  0  0  0  0  0  0  0  0  0
  191.5190  176.7640  146.2190 O   0  0  0  0  0  0  0  0  0  0  0  0
  189.2810  177.4840  146.4140 C   0  0  0  0  0  0  0  0  0  0  0  0
  189.4070  177.6520  147.8020 C   0  0  0  0  0  3  0  0  0  0  0  0
  188.0320  177.7190  145.8150 C   0  0  0  0  0  3  0  0  0  0  0  0
  186.9300  178.0970  146.5890 C   0  0  0  0  0  3  0  0  0  0  0  0
  187.0680  178.2500  147.9700 C   0  0  0  0  0  3  0  0  0  0  0  0
  188.3070  178.0300  148.5770 C   0  0  0  0  0  3  0  0  0  0  0  0
  188.3900  178.6280  136.9870 C   0  0  0  0  0  2  0  0  0  0  0  0
  187.1330  178.5520  137.7130 N   0  0  0  0  0  2  0  0  0  0  0  0
  186.3160  177.5500  137.0510 C   0  0  1  0  0  3  0  0  0  0  0  0
  186.8270  176.2890  137.2990 F   0  0  0  0  0  0  0  0  0  0  0  0
  183.9650  177.3190  136.7830 O   0  0  0  0  0  0  0  0  0  0  0  0
  184.9150  177.6390  137.5480 C   0  0  0  0  0  0  0  0  0  0  0  0
  184.6550  178.1190  138.8680 N   0  0  0  0  0  2  0  0  0  0  0  0
  182.7550  179.6240  139.1470 C   0  0  0  0  0  2  0  0  0  0  0  0
  183.3230  177.9060  140.9190 C   0  0  0  0  0  2  0  0  0  0  0  0
  180.9840  178.8550  140.8420 C   0  0  0  0  0  2  0  0  0  0  0  0
  181.3050  179.7540  139.6390 C   0  0  0  0  0  2  0  0  0  0  0  0
  183.3100  178.2260  139.4140 C   0  0  0  0  0  3  0  0  0  0  0  0
  182.2190  178.6260  141.7060 C   0  0  0  0  0  2  0  0  0  0  0  0
  192.3420  175.5720  136.9350 C   0  0  0  0  0  2  0  0  0  0  0  0
  193.5990  176.3850  136.6930 C   0  0  0  0  0  2  0  0  0  0  0  0
  195.8430  175.7770  135.7240 C   0  0  0  0  0  0  0  0  0  0  0  0
  194.7410  175.4940  136.5840 N   0  0  0  0  0  2  0  0  0  0  0  0
  195.8300  176.7990  134.9850 O   0  0  0  0  0  0  0  0  0  0  0  0
  198.0500  175.2950  134.6940 C   0  0  0  0  0  1  0  0  0  0  0  0
  196.9990  174.8290  135.6860 C   0  0  1  0  0  3  0  0  0  0  0  0
  198.0540  175.5430  137.6850 O   0  0  0  0  0  0  0  0  0  0  0  0
  197.5890  174.6100  137.0470 C   0  0  0  0  0  0  0  0  0  0  0  0
  197.6210  173.2300  137.6160 C   0  0  0  0  0  2  0  0  0  0  0  0
  196.8880  172.3190  136.7530 N   0  0  0  0  0  2  0  0  0  0  0  0
  195.5540  170.4030  138.0610 O   0  0  0  0  0  1  0  0  0  0  0  0
  194.0900  171.9980  136.5880 O   0  0  0  0  0  0  0  0  0  0  0  0
  195.2280  172.8350  138.9570 O   0  0  0  0  0  1  0  0  0  0  0  0
  195.4330  171.8390  137.6060 P   0  0  0  0  0  0  0  0  0  0  0  0
  1  6  1  0  0  0  0
  2  3  1  0  0  0  0
  3  7  1  0  0  0  0
  4  2  2  0  0  0  0
  5  1  2  0  0  0  0
  5  4  1  0  0  0  0
  6  3  2  0  0  0  0
  7 10  2  0  0  0  0
  7  9  1  0  0  0  0
  8 13  1  0  0  0  0
  9 11  2  0  0  0  0
 10 12  1  0  0  0  0
 11  8  1  0  0  0  0
 12  8  2  0  0  0  0
 13 14  2  0  0  0  0
 13 15  1  0  0  0  0
 15 16  1  0  0  0  0
 16 20  2  0  0  0  0
 17 15  2  0  0  0  0
 17 18  1  0  0  0  0
 18 19  2  0  0  0  0
 19 20  1  0  0  0  0
 21 22  1  0  0  0  0
 21  4  1  0  0  0  0
 23 24  1  1  0  0  0
 23 26  1  0  0  0  0
 23 22  1  0  0  0  0
 25 26  2  0  0  0  0
 26 27  1  0  0  0  0
 27 32  1  0  0  0  0
 28 32  1  0  0  0  0
 28 31  1  0  0  0  0
 29 33  1  0  0  0  0
 30 33  1  0  0  0  0
 31 30  1  0  0  0  0
 32 29  1  0  0  0  0
 34  1  1  0  0  0  0
 35 34  1  0  0  0  0
 36 37  1  0  0  0  0
 37 35  1  0  0  0  0
 38 36  2  0  0  0  0
 40 39  1  6  0  0  0
 40 36  1  0  0  0  0
 40 42  1  0  0  0  0
 42 43  1  0  0  0  0
 42 41  2  0  0  0  0
 44 48  1  0  0  0  0
 44 43  1  0  0  0  0
 46 48  2  0  0  0  0
 48 45  1  0  0  0  0
 48 47  1  0  0  0  0
M  END
>  <MODEL>
7

>  <REMARK>
 VINA RESULT:      -8.6      1.850      2.577
  Name = 
  16 active torsions:
  status: ('A' for Active; 'I' for Inactive)
    1  A    between atoms: N_1  and  C_8
    2  A    between atoms: N_1  and  C_16
    3  A    between atoms: C_2  and  C_30
    4  A    between atoms: C_3  and  C_31
    5  A    between atoms: C_5  and  C_6
    6  A    between atoms: C_6  and  C_25
    7  A    between atoms: C_8  and  C_43
    8  A    between atoms: C_9  and  C_13
    9  A    between atoms: C_13  and  C_22
   10  A    between atoms: C_16  and  C_32
   11  A    between atoms: N_19  and  C_22
   12  A    between atoms: C_28  and  C_35
   13  A    between atoms: C_28  and  N_41
   14  A    between atoms: C_30  and  C_35
   15  A    between atoms: C_33  and  N_48
   16  A    between atoms: P_39  and  N_41
                            x       y       z     vdW  Elec       q    Type
                         _______ _______ _______ _____ _____    ______ ____

>  <TORSDO>
F 16

$$$$
=
 OpenBabel11032419533D

 48 51  0  0  1  0  0  0  0  0999 V2000
  189.3970  177.4930  137.8460 C   0  0  0  0  0  0  0  0  0  0  0  0
  188.4480  177.7140  140.4650 C   0  0  0  0  0  3  0  0  0  0  0  0
  187.5700  177.9440  139.3920 C   0  0  0  0  0  0  0  0  0  0  0  0
  189.7840  177.3750  140.2340 C   0  0  0  0  0  0  0  0  0  0  0  0
  190.2600  177.2750  138.9240 C   0  0  0  0  0  3  0  0  0  0  0  0
  188.0580  177.8250  138.0810 C   0  0  0  0  0  3  0  0  0  0  0  0
  186.1550  178.3120  139.6430 C   0  0  0  0  0  0  0  0  0  0  0  0
  183.4520  178.9790  140.1240 C   0  0  0  0  0  0  0  0  0  0  0  0
  185.2300  178.3500  138.5900 C   0  0  0  0  0  3  0  0  0  0  0  0
  185.7150  178.6200  140.9390 C   0  0  0  0  0  3  0  0  0  0  0  0
  183.8950  178.6840  138.8280 C   0  0  0  0  0  3  0  0  0  0  0  0
  184.3790  178.9530  141.1760 C   0  0  0  0  0  3  0  0  0  0  0  0
  182.0350  179.3550  140.3450 C   0  0  0  0  0  0  0  0  0  0  0  0
  181.4770  180.1070  139.5000 O   0  0  0  0  0  0  0  0  0  0  0  0
  181.2400  178.8900  141.5080 C   0  0  0  0  0  0  0  0  0  0  0  0
  181.5770  179.3280  142.7980 C   0  0  0  0  0  3  0  0  0  0  0  0
  180.1260  178.0500  141.3490 C   0  0  0  0  0  3  0  0  0  0  0  0
  179.3770  177.6430  142.4570 C   0  0  0  0  0  3  0  0  0  0  0  0
  179.7300  178.0780  143.7360 C   0  0  0  0  0  3  0  0  0  0  0  0
  180.8290  178.9230  143.9070 C   0  0  0  0  0  3  0  0  0  0  0  0
  190.7070  177.1650  141.3810 C   0  0  0  0  0  2  0  0  0  0  0  0
  190.3020  175.9850  142.1260 N   0  0  0  0  0  2  0  0  0  0  0  0
  190.9340  176.0660  143.4320 C   0  0  1  0  0  3  0  0  0  0  0  0
  192.2390  176.5050  143.2950 F   0  0  0  0  0  0  0  0  0  0  0  0
  190.7920  177.8610  144.9840 O   0  0  0  0  0  0  0  0  0  0  0  0
  190.1700  177.0040  144.3010 C   0  0  0  0  0  0  0  0  0  0  0  0
  188.7470  176.9030  144.3820 N   0  0  0  0  0  2  0  0  0  0  0  0
  187.9420  177.2930  146.6510 C   0  0  0  0  0  2  0  0  0  0  0  0
  186.5130  177.8850  144.6470 C   0  0  0  0  0  2  0  0  0  0  0  0
  186.0310  178.9970  146.8620 C   0  0  0  0  0  2  0  0  0  0  0  0
  187.1670  178.2470  147.5730 C   0  0  0  0  0  2  0  0  0  0  0  0
  187.9420  177.7910  145.2080 C   0  0  0  0  0  3  0  0  0  0  0  0
  185.4530  178.1690  145.7210 C   0  0  0  0  0  2  0  0  0  0  0  0
  189.9110  177.3830  136.4540 C   0  0  0  0  0  2  0  0  0  0  0  0
  189.5750  176.0220  135.8750 C   0  0  0  0  0  2  0  0  0  0  0  0
  191.0180  174.1230  136.6840 C   0  0  0  0  0  0  0  0  0  0  0  0
  190.7810  175.2150  135.7990 N   0  0  0  0  0  2  0  0  0  0  0  0
  190.1970  173.8560  137.6040 O   0  0  0  0  0  0  0  0  0  0  0  0
  192.1670  172.3880  135.3310 C   0  0  0  0  0  1  0  0  0  0  0  0
  192.2680  173.3170  136.5280 C   0  0  1  0  0  3  0  0  0  0  0  0
  194.1430  174.2480  135.4160 O   0  0  0  0  0  0  0  0  0  0  0  0
  193.4880  174.1850  136.4460 C   0  0  0  0  0  0  0  0  0  0  0  0
  193.9110  174.9670  137.6460 C   0  0  0  0  0  2  0  0  0  0  0  0
  195.3340  175.2520  137.5760 N   0  0  0  0  0  2  0  0  0  0  0  0
  195.1880  173.0230  139.0500 O   0  0  0  0  0  1  0  0  0  0  0  0
  196.7800  174.8870  139.9700 O   0  0  0  0  0  1  0  0  0  0  0  0
  197.4240  173.3860  137.7480 O   0  0  0  0  0  0  0  0  0  0  0  0
  196.1550  174.0980  138.6090 P   0  0  0  0  0  0  0  0  0  0  0  0
  1  6  2  0  0  0  0
  1  5  1  0  0  0  0
  3  7  1  0  0  0  0
  3  2  2  0  0  0  0
  4  2  1  0  0  0  0
  4 21  1  0  0  0  0
  5  4  2  0  0  0  0
  6  3  1  0  0  0  0
  7 10  1  0  0  0  0
  8 13  1  0  0  0  0
  8 12  1  0  0  0  0
  9 11  1  0  0  0  0
  9  7  2  0  0  0  0
 10 12  2  0  0  0  0
 11  8  2  0  0  0  0
 13 15  1  0  0  0  0
 14 13  2  0  0  0  0
 15 16  1  0  0  0  0
 16 20  2  0  0  0  0
 17 15  2  0  0  0  0
 17 18  1  0  0  0  0
 18 19  2  0  0  0  0
 19 20  1  0  0  0  0
 21 22  1  0  0  0  0
 22 23  1  0  0  0  0
 23 24  1  6  0  0  0
 23 26  1  0  0  0  0
 26 27  1  0  0  0  0
 26 25  2  0  0  0  0
 27 32  1  0  0  0  0
 28 31  1  0  0  0  0
 29 32  1  0  0  0  0
 29 33  1  0  0  0  0
 30 31  1  0  0  0  0
 32 28  1  0  0  0  0
 33 30  1  0  0  0  0
 34  1  1  0  0  0  0
 35 34  1  0  0  0  0
 36 38  2  0  0  0  0
 37 35  1  0  0  0  0
 37 36  1  0  0  0  0
 40 39  1  6  0  0  0
 40 36  1  0  0  0  0
 41 42  2  0  0  0  0
 42 40  1  0  0  0  0
 42 43  1  0  0  0  0
 44 43  1  0  0  0  0
 44 48  1  0  0  0  0
 47 48  2  0  0  0  0
 48 45  1  0  0  0  0
 48 46  1  0  0  0  0
M  END
>  <MODEL>
8

>  <REMARK>
 VINA RESULT:      -8.5      2.734      6.231
  Name = 
  16 active torsions:
  status: ('A' for Active; 'I' for Inactive)
    1  A    between atoms: N_1  and  C_8
    2  A    between atoms: N_1  and  C_16
    3  A    between atoms: C_2  and  C_30
    4  A    between atoms: C_3  and  C_31
    5  A    between atoms: C_5  and  C_6
    6  A    between atoms: C_6  and  C_25
    7  A    between atoms: C_8  and  C_43
    8  A    between atoms: C_9  and  C_13
    9  A    between atoms: C_13  and  C_22
   10  A    between atoms: C_16  and  C_32
   11  A    between atoms: N_19  and  C_22
   12  A    between atoms: C_28  and  C_35
   13  A    between atoms: C_28  and  N_41
   14  A    between atoms: C_30  and  C_35
   15  A    between atoms: C_33  and  N_48
   16  A    between atoms: P_39  and  N_41
                            x       y       z     vdW  Elec       q    Type
                         _______ _______ _______ _____ _____    ______ ____

>  <TORSDO>
F 16

$$$$
=
 OpenBabel11032419533D

 48 51  0  0  1  0  0  0  0  0999 V2000
  183.3590  178.6040  141.9450 C   0  0  0  0  0  0  0  0  0  0  0  0
  185.5540  178.5310  143.6740 C   0  0  0  0  0  3  0  0  0  0  0  0
  185.7490  178.3010  142.3010 C   0  0  0  0  0  0  0  0  0  0  0  0
  184.2770  178.7970  144.1780 C   0  0  0  0  0  0  0  0  0  0  0  0
  183.1790  178.8230  143.3140 C   0  0  0  0  0  3  0  0  0  0  0  0
  184.6400  178.3450  141.4430 C   0  0  0  0  0  3  0  0  0  0  0  0
  187.1050  178.0110  141.7730 C   0  0  0  0  0  0  0  0  0  0  0  0
  189.6990  177.4860  140.7840 C   0  0  0  0  0  0  0  0  0  0  0  0
  187.5540  178.6140  140.5900 C   0  0  0  0  0  3  0  0  0  0  0  0
  187.9650  177.1350  142.4530 C   0  0  0  0  0  3  0  0  0  0  0  0
  188.8350  178.3510  140.1000 C   0  0  0  0  0  3  0  0  0  0  0  0
  189.2460  176.8730  141.9610 C   0  0  0  0  0  3  0  0  0  0  0  0
  191.0440  177.2050  140.2280 C   0  0  0  0  0  0  0  0  0  0  0  0
  192.0540  177.5510  140.9000 O   0  0  0  0  0  0  0  0  0  0  0  0
  191.2630  176.5370  138.9220 C   0  0  0  0  0  0  0  0  0  0  0  0
  190.1690  176.0020  138.2240 C   0  0  0  0  0  3  0  0  0  0  0  0
  192.5390  176.4590  138.3400 C   0  0  0  0  0  3  0  0  0  0  0  0
  192.7190  175.8450  137.0960 C   0  0  0  0  0  3  0  0  0  0  0  0
  191.6220  175.3080  136.4190 C   0  0  0  0  0  3  0  0  0  0  0  0
  190.3470  175.3890  136.9810 C   0  0  0  0  0  3  0  0  0  0  0  0
  184.0820  179.0070  145.6370 C   0  0  0  0  0  2  0  0  0  0  0  0
  185.2990  179.5470  146.2210 N   0  0  0  0  0  2  0  0  0  0  0  0
  185.7160  178.6280  147.2660 C   0  0  1  0  0  3  0  0  0  0  0  0
  184.6430  177.8530  147.6640 F   0  0  0  0  0  0  0  0  0  0  0  0
  186.5290  176.7560  146.0470 O   0  0  0  0  0  0  0  0  0  0  0  0
  186.8130  177.7570  146.7580 C   0  0  0  0  0  0  0  0  0  0  0  0
  188.1690  178.0390  147.1080 N   0  0  0  0  0  2  0  0  0  0  0  0
  190.3600  177.1630  147.7230 C   0  0  0  0  0  2  0  0  0  0  0  0
  189.8450  177.8080  145.3300 C   0  0  0  0  0  2  0  0  0  0  0  0
  191.7480  176.2100  145.7820 C   0  0  0  0  0  2  0  0  0  0  0  0
  191.5240  176.2520  147.3010 C   0  0  0  0  0  2  0  0  0  0  0  0
  189.2850  177.2300  146.6410 C   0  0  0  0  0  3  0  0  0  0  0  0
  191.3410  177.5250  145.1280 C   0  0  0  0  0  2  0  0  0  0  0  0
  182.1850  178.6340  141.0300 C   0  0  0  0  0  2  0  0  0  0  0  0
  182.6010  178.2350  139.6270 C   0  0  0  0  0  2  0  0  0  0  0  0
  181.5290  176.3410  138.3580 C   0  0  0  0  0  0  0  0  0  0  0  0
  182.3430  176.8200  139.4290 N   0  0  0  0  0  2  0  0  0  0  0  0
  180.9640  177.1520  137.5760 O   0  0  0  0  0  0  0  0  0  0  0  0
  179.8730  174.4930  138.3890 C   0  0  0  0  0  1  0  0  0  0  0  0
  181.3320  174.8680  138.1970 C   0  0  1  0  0  3  0  0  0  0  0  0
  181.2140  174.5240  135.8560 O   0  0  0  0  0  0  0  0  0  0  0  0
  181.8570  174.3720  136.8830 C   0  0  0  0  0  0  0  0  0  0  0  0
  183.1740  173.6700  136.8400 C   0  0  0  0  0  2  0  0  0  0  0  0
  184.1570  174.4110  137.6130 N   0  0  0  0  0  2  0  0  0  0  0  0
  184.4970  176.5940  136.1030 O   0  0  0  0  0  1  0  0  0  0  0  0
  185.4140  174.3610  135.0890 O   0  0  0  0  0  0  0  0  0  0  0  0
  186.6570  175.6210  137.2040 O   0  0  0  0  0  1  0  0  0  0  0  0
  185.1650  175.2920  136.4800 P   0  0  0  0  0  0  0  0  0  0  0  0
  1  5  1  0  0  0  0
  2  4  1  0  0  0  0
  3  2  2  0  0  0  0
  4 21  1  0  0  0  0
  5  4  2  0  0  0  0
  6  1  2  0  0  0  0
  6  3  1  0  0  0  0
  7  3  1  0  0  0  0
  7 10  1  0  0  0  0
  8 12  1  0  0  0  0
  9  7  2  0  0  0  0
 11  9  1  0  0  0  0
 11  8  2  0  0  0  0
 12 10  2  0  0  0  0
 13  8  1  0  0  0  0
 13 14  2  0  0  0  0
 15 13  1  0  0  0  0
 16 15  2  0  0  0  0
 17 15  1  0  0  0  0
 18 17  2  0  0  0  0
 19 20  2  0  0  0  0
 19 18  1  0  0  0  0
 20 16  1  0  0  0  0
 21 22  1  0  0  0  0
 22 23  1  0  0  0  0
 23 24  1  6  0  0  0
 25 26  2  0  0  0  0
 26 27  1  0  0  0  0
 26 23  1  0  0  0  0
 29 32  1  0  0  0  0
 30 31  1  0  0  0  0
 31 28  1  0  0  0  0
 32 27  1  0  0  0  0
 32 28  1  0  0  0  0
 33 29  1  0  0  0  0
 33 30  1  0  0  0  0
 34  1  1  0  0  0  0
 35 34  1  0  0  0  0
 36 37  1  0  0  0  0
 37 35  1  0  0  0  0
 38 36  2  0  0  0  0
 40 36  1  0  0  0  0
 40 39  1  6  0  0  0
 41 42  2  0  0  0  0
 42 40  1  0  0  0  0
 43 42  1  0  0  0  0
 43 44  1  0  0  0  0
 45 48  1  0  0  0  0
 46 48  2  0  0  0  0
 48 47  1  0  0  0  0
 48 44  1  0  0  0  0
M  END
>  <MODEL>
9

>  <REMARK>
 VINA RESULT:      -8.4      4.604     10.266
  Name = 
  16 active torsions:
  status: ('A' for Active; 'I' for Inactive)
    1  A    between atoms: N_1  and  C_8
    2  A    between atoms: N_1  and  C_16
    3  A    between atoms: C_2  and  C_30
    4  A    between atoms: C_3  and  C_31
    5  A    between atoms: C_5  and  C_6
    6  A    between atoms: C_6  and  C_25
    7  A    between atoms: C_8  and  C_43
    8  A    between atoms: C_9  and  C_13
    9  A    between atoms: C_13  and  C_22
   10  A    between atoms: C_16  and  C_32
   11  A    between atoms: N_19  and  C_22
   12  A    between atoms: C_28  and  C_35
   13  A    between atoms: C_28  and  N_41
   14  A    between atoms: C_30  and  C_35
   15  A    between atoms: C_33  and  N_48
   16  A    between atoms: P_39  and  N_41
                            x       y       z     vdW  Elec       q    Type
                         _______ _______ _______ _____ _____    ______ ____

>  <TORSDO>
F 16

$$$$
