=
 OpenBabel11032419203D

 25 28  0  0  1  0  0  0  0  0999 V2000
  191.7050  176.0650  144.8750 C   0  0  0  0  0  2  0  0  0  0  0  0
  191.6060  178.5350  144.6060 C   0  0  0  0  0  1  0  0  0  0  0  0
  191.9230  175.8320  146.3730 C   0  0  0  0  0  2  0  0  0  0  0  0
  188.0660  177.9550  147.4160 N   0  0  0  0  0  0  0  0  0  0  0  0
  190.7800  177.2740  144.8010 C   0  0  2  0  0  0  0  0  0  0  0  0
  190.1610  177.2860  146.1620 C   0  0  2  0  0  3  0  0  0  0  0  0
  189.7270  177.1780  143.6920 C   0  0  0  0  0  0  0  0  0  0  0  0
  190.1350  176.7750  142.3840 N   0  0  0  0  0  2  0  0  0  0  0  0
  188.0520  177.9720  145.1980 C   0  0  0  0  0  0  0  0  0  0  0  0
  190.7450  176.4720  147.0170 C   0  0  0  0  0  2  0  0  0  0  0  0
  188.8150  177.8200  146.3080 C   0  0  0  0  0  0  0  0  0  0  0  0
  188.4880  177.5620  143.8960 N   0  0  0  0  0  0  0  0  0  0  0  0
  186.8230  178.2230  147.0200 N   0  0  0  0  0  2  0  0  0  0  0  0
  186.7850  178.2220  145.6660 C   0  0  0  0  0  0  0  0  0  0  0  0
  183.4640  178.7630  144.3310 N   0  0  0  0  0  0  0  0  0  0  0  0
  185.5620  178.3780  144.8700 C   0  0  0  0  0  0  0  0  0  0  0  0
  183.6570  178.3810  141.8750 C   0  0  0  0  0  1  0  0  0  0  0  0
  184.2110  178.4500  143.2540 C   0  0  0  0  0  0  0  0  0  0  0  0
  184.3230  178.7180  145.3670 C   0  0  0  0  0  2  0  0  0  0  0  0
  185.5040  178.2070  143.5370 N   0  0  0  0  0  0  0  0  0  0  0  0
  189.2200  176.7170  141.3230 N   0  0  0  0  0  2  0  0  0  0  0  0
  189.7780  177.5160  140.2480 C   0  0  0  0  0  2  0  0  0  0  0  0
  188.9720  179.1210  138.6840 O   0  0  0  0  0  0  0  0  0  0  0  0
  188.7320  178.4210  139.7030 C   0  0  0  0  0  0  0  0  0  0  0  0
  187.4730  178.5290  140.3560 N   0  0  0  0  0  1  0  0  0  0  0  0
  1  3  1  0  0  0  0
  3 10  1  0  0  0  0
  5  2  1  6  0  0  0
  5  1  1  0  0  0  0
  5  6  1  0  0  0  0
  6 11  1  0  0  0  0
  6 10  1  6  0  0  0
  7 12  2  0  0  0  0
  7  5  1  0  0  0  0
  8  7  1  0  0  0  0
  9 14  2  0  0  0  0
  9 11  1  0  0  0  0
 11  4  2  0  0  0  0
 12  9  1  0  0  0  0
 13  4  1  0  0  0  0
 14 13  1  0  0  0  0
 15 19  1  0  0  0  0
 16 19  1  0  0  0  0
 16 14  1  0  0  0  0
 17 18  1  0  0  0  0
 18 20  1  0  0  0  0
 18 15  2  0  0  0  0
 20 16  2  0  0  0  0
 21  8  1  0  0  0  0
 22 21  1  0  0  0  0
 23 24  2  0  0  0  0
 24 22  1  0  0  0  0
 24 25  1  0  0  0  0
M  END
>  <MODEL>
1

>  <REMARK>
 VINA RESULT:      -9.0      0.000      0.000
  Name = 
  4 active torsions:
  status: ('A' for Active; 'I' for Inactive)
    1  A    between atoms: C_3  and  C_23
    2  A    between atoms: N_8  and  N_13
    3  A    between atoms: N_8  and  C_16
    4  A    between atoms: C_16  and  C_19
                            x       y       z     vdW  Elec       q    Type
                         _______ _______ _______ _____ _____    ______ ____

>  <TORSDO>
F 4

$$$$
=
 OpenBabel11032419203D

 25 28  0  0  1  0  0  0  0  0999 V2000
  191.6590  176.3470  144.4990 C   0  0  0  0  0  2  0  0  0  0  0  0
  191.4410  178.8200  144.3590 C   0  0  0  0  0  1  0  0  0  0  0  0
  191.8540  176.0430  145.9870 C   0  0  0  0  0  2  0  0  0  0  0  0
  187.8690  177.9120  147.0410 N   0  0  0  0  0  0  0  0  0  0  0  0
  190.6760  177.5110  144.4650 C   0  0  2  0  0  0  0  0  0  0  0  0
  190.0250  177.4170  145.8080 C   0  0  2  0  0  3  0  0  0  0  0  0
  189.6550  177.4230  143.3260 C   0  0  0  0  0  0  0  0  0  0  0  0
  190.1130  177.1120  142.0080 N   0  0  0  0  0  2  0  0  0  0  0  0
  187.9070  178.0490  144.8270 C   0  0  0  0  0  0  0  0  0  0  0  0
  190.6300  176.5880  146.6330 C   0  0  0  0  0  2  0  0  0  0  0  0
  188.6510  177.8750  145.9470 C   0  0  0  0  0  0  0  0  0  0  0  0
  188.3940  177.7330  143.5170 N   0  0  0  0  0  0  0  0  0  0  0  0
  186.6240  178.1380  146.6270 N   0  0  0  0  0  2  0  0  0  0  0  0
  186.6180  178.2100  145.2740 C   0  0  0  0  0  0  0  0  0  0  0  0
  184.0710  178.4050  142.7100 N   0  0  0  0  0  0  0  0  0  0  0  0
  185.4070  178.3480  144.4560 C   0  0  0  0  0  0  0  0  0  0  0  0
  181.9510  178.9390  143.9080 C   0  0  0  0  0  1  0  0  0  0  0  0
  183.4110  178.6580  143.8570 C   0  0  0  0  0  0  0  0  0  0  0  0
  185.3480  178.2060  143.0870 C   0  0  0  0  0  2  0  0  0  0  0  0
  184.1900  178.6330  144.9540 N   0  0  0  0  0  0  0  0  0  0  0  0
  189.2280  177.0680  140.9230 N   0  0  0  0  0  2  0  0  0  0  0  0
  189.9750  177.5050  139.7580 C   0  0  0  0  0  2  0  0  0  0  0  0
  189.0340  179.2830  138.4830 O   0  0  0  0  0  0  0  0  0  0  0  0
  189.0380  178.0510  138.7400 C   0  0  0  0  0  0  0  0  0  0  0  0
  188.1180  177.1870  138.0840 N   0  0  0  0  0  1  0  0  0  0  0  0
  1  3  1  0  0  0  0
  3 10  1  0  0  0  0
  5  2  1  6  0  0  0
  5  1  1  0  0  0  0
  5  6  1  0  0  0  0
  6 11  1  0  0  0  0
  6 10  1  6  0  0  0
  7 12  2  0  0  0  0
  7  5  1  0  0  0  0
  8  7  1  0  0  0  0
  9 14  2  0  0  0  0
  9 11  1  0  0  0  0
 11  4  2  0  0  0  0
 12  9  1  0  0  0  0
 13  4  1  0  0  0  0
 14 13  1  0  0  0  0
 15 19  1  0  0  0  0
 15 18  2  0  0  0  0
 16 20  2  0  0  0  0
 16 14  1  0  0  0  0
 18 17  1  0  0  0  0
 18 20  1  0  0  0  0
 19 16  1  0  0  0  0
 21  8  1  0  0  0  0
 22 21  1  0  0  0  0
 23 24  2  0  0  0  0
 24 22  1  0  0  0  0
 25 24  1  0  0  0  0
M  END
>  <MODEL>
2

>  <REMARK>
 VINA RESULT:      -8.5      0.978      1.165
  Name = 
  4 active torsions:
  status: ('A' for Active; 'I' for Inactive)
    1  A    between atoms: C_3  and  C_23
    2  A    between atoms: N_8  and  N_13
    3  A    between atoms: N_8  and  C_16
    4  A    between atoms: C_16  and  C_19
                            x       y       z     vdW  Elec       q    Type
                         _______ _______ _______ _____ _____    ______ ____

>  <TORSDO>
F 4

$$$$
=
 OpenBabel11032419203D

 25 28  0  0  1  0  0  0  0  0999 V2000
  186.4910  177.0450  136.9940 C   0  0  0  0  0  2  0  0  0  0  0  0
  188.0190  179.0060  137.0210 C   0  0  0  0  0  1  0  0  0  0  0  0
  187.2840  175.9250  136.3130 C   0  0  0  0  0  2  0  0  0  0  0  0
  190.5140  176.0890  139.4780 N   0  0  0  0  0  0  0  0  0  0  0  0
  187.5230  177.8080  137.8150 C   0  0  2  0  0  0  0  0  0  0  0  0
  188.6240  176.8070  137.9540 C   0  0  2  0  0  3  0  0  0  0  0  0
  187.0010  178.2800  139.1760 C   0  0  0  0  0  0  0  0  0  0  0  0
  185.7270  178.9230  139.2450 N   0  0  0  0  0  2  0  0  0  0  0  0
  189.0290  177.5630  140.2140 C   0  0  0  0  0  0  0  0  0  0  0  0
  188.4850  175.7550  137.1740 C   0  0  0  0  0  2  0  0  0  0  0  0
  189.4630  176.8580  139.1420 C   0  0  0  0  0  0  0  0  0  0  0  0
  187.7470  178.2020  140.2540 N   0  0  0  0  0  0  0  0  0  0  0  0
  190.7760  176.3210  140.7630 N   0  0  0  0  0  2  0  0  0  0  0  0
  189.8700  177.2080  141.2410 C   0  0  0  0  0  0  0  0  0  0  0  0
  190.2340  178.6190  144.5550 N   0  0  0  0  0  0  0  0  0  0  0  0
  189.7790  177.6260  142.6450 C   0  0  0  0  0  0  0  0  0  0  0  0
  188.3380  177.7020  145.8870 C   0  0  0  0  0  1  0  0  0  0  0  0
  189.1330  177.8470  144.6390 C   0  0  0  0  0  0  0  0  0  0  0  0
  190.6520  178.4810  143.2820 C   0  0  0  0  0  2  0  0  0  0  0  0
  188.8160  177.2190  143.4910 N   0  0  0  0  0  0  0  0  0  0  0  0
  185.2260  179.4160  140.4570 N   0  0  0  0  0  2  0  0  0  0  0  0
  184.2200  178.4720  140.9070 C   0  0  0  0  0  2  0  0  0  0  0  0
  183.1530  178.7190  143.0220 O   0  0  0  0  0  0  0  0  0  0  0  0
  184.2040  178.4280  142.3930 C   0  0  0  0  0  0  0  0  0  0  0  0
  185.3890  178.0970  143.1070 N   0  0  0  0  0  1  0  0  0  0  0  0
  1  5  1  0  0  0  0
  3  1  1  0  0  0  0
  3 10  1  0  0  0  0
  4 13  1  0  0  0  0
  5  2  1  6  0  0  0
  5  6  1  0  0  0  0
  5  7  1  0  0  0  0
  6 10  1  1  0  0  0
  6 11  1  0  0  0  0
  7  8  1  0  0  0  0
  7 12  2  0  0  0  0
  8 21  1  0  0  0  0
  9 12  1  0  0  0  0
  9 14  2  0  0  0  0
 11  4  2  0  0  0  0
 11  9  1  0  0  0  0
 13 14  1  0  0  0  0
 14 16  1  0  0  0  0
 15 18  2  0  0  0  0
 16 19  1  0  0  0  0
 16 20  2  0  0  0  0
 18 17  1  0  0  0  0
 19 15  1  0  0  0  0
 20 18  1  0  0  0  0
 21 22  1  0  0  0  0
 22 24  1  0  0  0  0
 24 23  2  0  0  0  0
 24 25  1  0  0  0  0
M  END
>  <MODEL>
3

>  <REMARK>
 VINA RESULT:      -7.6      2.555      6.847
  Name = 
  4 active torsions:
  status: ('A' for Active; 'I' for Inactive)
    1  A    between atoms: C_3  and  C_23
    2  A    between atoms: N_8  and  N_13
    3  A    between atoms: N_8  and  C_16
    4  A    between atoms: C_16  and  C_19
                            x       y       z     vdW  Elec       q    Type
                         _______ _______ _______ _____ _____    ______ ____

>  <TORSDO>
F 4

$$$$
=
 OpenBabel11032419203D

 25 28  0  0  1  0  0  0  0  0999 V2000
  189.5160  176.4100  146.5910 C   0  0  0  0  0  2  0  0  0  0  0  0
  189.7830  178.7270  145.7300 C   0  0  0  0  0  1  0  0  0  0  0  0
  189.0810  176.5700  148.0510 C   0  0  0  0  0  2  0  0  0  0  0  0
  185.3660  178.8560  146.8460 N   0  0  0  0  0  0  0  0  0  0  0  0
  188.8280  177.5510  145.8530 C   0  0  2  0  0  0  0  0  0  0  0  0
  187.7130  177.9060  146.7830 C   0  0  2  0  0  3  0  0  0  0  0  0
  188.3140  177.1650  144.4620 C   0  0  0  0  0  0  0  0  0  0  0  0
  189.1760  176.4430  143.5810 N   0  0  0  0  0  2  0  0  0  0  0  0
  186.2590  178.3040  144.8930 C   0  0  0  0  0  0  0  0  0  0  0  0
  187.8130  177.3440  147.9700 C   0  0  0  0  0  2  0  0  0  0  0  0
  186.4850  178.4480  146.2210 C   0  0  1  0  0  3  0  0  0  0  0  0
  187.1440  177.5770  144.0310 N   0  0  0  0  0  0  0  0  0  0  0  0
  184.4270  179.0030  145.9150 N   0  0  0  0  0  0  0  0  0  0  0  0
  184.9430  178.6550  144.7120 C   0  0  0  0  0  0  0  0  0  0  0  0
  182.4810  178.6310  142.0580 N   0  0  0  0  0  0  0  0  0  0  0  0
  184.1720  178.5910  143.4650 C   0  0  0  0  0  0  0  0  0  0  0  0
  183.7560  178.1840  139.9640 C   0  0  0  0  0  1  0  0  0  0  0  0
  183.6510  178.3910  141.4330 C   0  0  0  0  0  0  0  0  0  0  0  0
  182.8090  178.7590  143.3580 C   0  0  0  0  0  2  0  0  0  0  0  0
  184.7150  178.3590  142.2560 N   0  0  0  0  0  0  0  0  0  0  0  0
  188.7720  176.1080  142.2820 N   0  0  0  0  0  2  0  0  0  0  0  0
  189.5870  176.8960  141.3750 C   0  0  0  0  0  2  0  0  0  0  0  0
  188.0240  178.6240  140.8840 O   0  0  0  0  0  0  0  0  0  0  0  0
  188.7100  177.6610  140.4510 C   0  0  0  0  0  0  0  0  0  0  0  0
  188.6110  177.2800  139.0840 N   0  0  0  0  0  1  0  0  0  0  0  0
  1  3  1  0  0  0  0
  5  2  1  6  0  0  0
  5  1  1  0  0  0  0
  5  6  1  0  0  0  0
  6 10  1  6  0  0  0
  7  5  1  0  0  0  0
  8  7  1  0  0  0  0
 10  3  1  0  0  0  0
 11  9  1  6  0  0  0
 11  6  1  0  0  0  0
 11  4  1  0  0  0  0
 12  7  2  0  0  0  0
 12  9  1  0  0  0  0
 13  4  2  0  0  0  0
 14  9  2  0  0  0  0
 14 13  1  0  0  0  0
 15 19  1  0  0  0  0
 16 14  1  0  0  0  0
 17 18  1  0  0  0  0
 18 15  2  0  0  0  0
 18 20  1  0  0  0  0
 19 16  1  0  0  0  0
 20 16  2  0  0  0  0
 21  8  1  0  0  0  0
 22 21  1  0  0  0  0
 24 23  2  0  0  0  0
 24 22  1  0  0  0  0
 25 24  1  0  0  0  0
M  END
>  <MODEL>
4

>  <REMARK>
 VINA RESULT:      -7.5      1.636      2.221
  Name = 
  4 active torsions:
  status: ('A' for Active; 'I' for Inactive)
    1  A    between atoms: C_3  and  C_23
    2  A    between atoms: N_8  and  N_13
    3  A    between atoms: N_8  and  C_16
    4  A    between atoms: C_16  and  C_19
                            x       y       z     vdW  Elec       q    Type
                         _______ _______ _______ _____ _____    ______ ____

>  <TORSDO>
F 4

$$$$
=
 OpenBabel11032419203D

 25 28  0  0  1  0  0  0  0  0999 V2000
  183.0330  178.4490  144.2780 C   0  0  0  0  0  2  0  0  0  0  0  0
  184.3970  180.5280  144.3160 C   0  0  0  0  0  1  0  0  0  0  0  0
  182.0770  178.6170  143.0930 C   0  0  0  0  0  2  0  0  0  0  0  0
  185.5190  178.9840  140.1780 N   0  0  0  0  0  0  0  0  0  0  0  0
  184.3360  179.0930  143.8190 C   0  0  2  0  0  0  0  0  0  0  0  0
  184.1910  179.0830  142.3310 C   0  0  2  0  0  3  0  0  0  0  0  0
  185.5900  178.3410  144.2780 C   0  0  0  0  0  0  0  0  0  0  0  0
  185.6870  177.9230  145.6410 N   0  0  0  0  0  2  0  0  0  0  0  0
  186.5450  178.5830  142.1030 C   0  0  0  0  0  0  0  0  0  0  0  0
  182.9770  178.7810  141.9190 C   0  0  0  0  0  2  0  0  0  0  0  0
  185.3930  178.9890  141.5170 C   0  0  1  0  0  3  0  0  0  0  0  0
  186.6140  178.1730  143.4740 N   0  0  0  0  0  0  0  0  0  0  0  0
  186.7640  178.6010  139.9020 N   0  0  0  0  0  0  0  0  0  0  0  0
  187.4080  178.3330  141.0630 C   0  0  0  0  0  0  0  0  0  0  0  0
  190.6730  176.8450  140.5850 N   0  0  0  0  0  0  0  0  0  0  0  0
  188.7670  177.7870  141.1510 C   0  0  0  0  0  0  0  0  0  0  0  0
  191.7910  176.9500  142.8110 C   0  0  0  0  0  1  0  0  0  0  0  0
  190.6490  177.1900  141.8880 C   0  0  0  0  0  0  0  0  0  0  0  0
  189.4720  177.2250  140.1100 C   0  0  0  0  0  2  0  0  0  0  0  0
  189.5000  177.7710  142.2800 N   0  0  0  0  0  0  0  0  0  0  0  0
  186.8320  177.2760  146.1230 N   0  0  0  0  0  2  0  0  0  0  0  0
  187.2420  177.9880  147.3200 C   0  0  0  0  0  2  0  0  0  0  0  0
  189.2650  178.2930  148.5380 O   0  0  0  0  0  0  0  0  0  0  0  0
  188.7170  177.8950  147.4770 C   0  0  0  0  0  0  0  0  0  0  0  0
  189.5160  177.3940  146.4120 N   0  0  0  0  0  1  0  0  0  0  0  0
  3  1  1  0  0  0  0
  5  7  1  0  0  0  0
  5  1  1  0  0  0  0
  5  2  1  1  0  0  0
  6 10  1  1  0  0  0
  6  5  1  0  0  0  0
  7  8  1  0  0  0  0
  8 21  1  0  0  0  0
  9 12  1  0  0  0  0
 10  3  1  0  0  0  0
 11  4  1  6  0  0  0
 11  9  1  0  0  0  0
 11  6  1  0  0  0  0
 12  7  2  0  0  0  0
 13  4  2  0  0  0  0
 13 14  1  0  0  0  0
 14 16  1  0  0  0  0
 14  9  2  0  0  0  0
 15 18  2  0  0  0  0
 16 20  2  0  0  0  0
 18 20  1  0  0  0  0
 18 17  1  0  0  0  0
 19 15  1  0  0  0  0
 19 16  1  0  0  0  0
 21 22  1  0  0  0  0
 22 24  1  0  0  0  0
 24 23  2  0  0  0  0
 25 24  1  0  0  0  0
M  END
>  <MODEL>
5

>  <REMARK>
 VINA RESULT:      -7.5      2.684      7.064
  Name = 
  4 active torsions:
  status: ('A' for Active; 'I' for Inactive)
    1  A    between atoms: C_3  and  C_23
    2  A    between atoms: N_8  and  N_13
    3  A    between atoms: N_8  and  C_16
    4  A    between atoms: C_16  and  C_19
                            x       y       z     vdW  Elec       q    Type
                         _______ _______ _______ _____ _____    ______ ____

>  <TORSDO>
F 4

$$$$
=
 OpenBabel11032419203D

 25 28  0  0  1  0  0  0  0  0999 V2000
  182.7220  179.5890  138.6150 C   0  0  0  0  0  2  0  0  0  0  0  0
  182.7060  177.1740  139.2060 C   0  0  0  0  0  1  0  0  0  0  0  0
  181.3190  180.0980  138.9620 C   0  0  0  0  0  2  0  0  0  0  0  0
  181.8180  178.9450  143.3100 N   0  0  0  0  0  0  0  0  0  0  0  0
  183.0450  178.5710  139.7010 C   0  0  2  0  0  0  0  0  0  0  0  0
  182.1020  178.9580  140.7940 C   0  0  2  0  0  3  0  0  0  0  0  0
  184.5050  178.6060  140.1640 C   0  0  0  0  0  0  0  0  0  0  0  0
  185.5430  178.6420  139.1820 N   0  0  0  0  0  2  0  0  0  0  0  0
  183.7990  178.4550  142.4400 C   0  0  0  0  0  0  0  0  0  0  0  0
  181.1830  179.8240  140.4180 C   0  0  0  0  0  2  0  0  0  0  0  0
  182.4950  178.7080  142.1720 C   0  0  0  0  0  0  0  0  0  0  0  0
  184.8190  178.4940  141.4340 N   0  0  0  0  0  0  0  0  0  0  0  0
  182.6820  178.8170  144.3150 N   0  0  0  0  0  2  0  0  0  0  0  0
  183.9060  178.5330  143.8080 C   0  0  0  0  0  0  0  0  0  0  0  0
  186.5560  178.6280  146.2710 N   0  0  0  0  0  0  0  0  0  0  0  0
  185.1310  178.4220  144.6080 C   0  0  0  0  0  0  0  0  0  0  0  0
  188.4710  177.4060  145.2450 C   0  0  0  0  0  1  0  0  0  0  0  0
  187.0850  177.9450  145.2360 C   0  0  0  0  0  0  0  0  0  0  0  0
  185.3060  178.9350  145.8750 C   0  0  0  0  0  2  0  0  0  0  0  0
  186.2460  177.7940  144.1950 N   0  0  0  0  0  0  0  0  0  0  0  0
  186.8940  178.6270  139.5520 N   0  0  0  0  0  2  0  0  0  0  0  0
  187.5960  177.8670  138.5340 C   0  0  0  0  0  2  0  0  0  0  0  0
  189.0140  179.5310  137.5890 O   0  0  0  0  0  0  0  0  0  0  0  0
  188.9260  178.4810  138.2790 C   0  0  0  0  0  0  0  0  0  0  0  0
  190.1040  177.8620  138.7810 N   0  0  0  0  0  1  0  0  0  0  0  0
  1  3  1  0  0  0  0
  1  5  1  0  0  0  0
  3 10  1  0  0  0  0
  4 13  1  0  0  0  0
  5  2  1  6  0  0  0
  5  7  1  0  0  0  0
  5  6  1  0  0  0  0
  6 10  1  1  0  0  0
  6 11  1  0  0  0  0
  7 12  2  0  0  0  0
  8 21  1  0  0  0  0
  8  7  1  0  0  0  0
  9 14  2  0  0  0  0
 11  9  1  0  0  0  0
 11  4  2  0  0  0  0
 12  9  1  0  0  0  0
 14 13  1  0  0  0  0
 14 16  1  0  0  0  0
 16 19  1  0  0  0  0
 18 17  1  0  0  0  0
 18 15  2  0  0  0  0
 19 15  1  0  0  0  0
 20 16  2  0  0  0  0
 20 18  1  0  0  0  0
 22 21  1  0  0  0  0
 23 24  2  0  0  0  0
 24 22  1  0  0  0  0
 24 25  1  0  0  0  0
M  END
>  <MODEL>
6

>  <REMARK>
 VINA RESULT:      -7.2      2.108      6.723
  Name = 
  4 active torsions:
  status: ('A' for Active; 'I' for Inactive)
    1  A    between atoms: C_3  and  C_23
    2  A    between atoms: N_8  and  N_13
    3  A    between atoms: N_8  and  C_16
    4  A    between atoms: C_16  and  C_19
                            x       y       z     vdW  Elec       q    Type
                         _______ _______ _______ _____ _____    ______ ____

>  <TORSDO>
F 4

$$$$
=
 OpenBabel11032419203D

 25 28  0  0  1  0  0  0  0  0999 V2000
  186.8070  178.6470  147.3200 C   0  0  0  0  0  2  0  0  0  0  0  0
  186.1290  176.4500  146.3730 C   0  0  0  0  0  1  0  0  0  0  0  0
  188.0410  178.3510  148.1780 C   0  0  0  0  0  2  0  0  0  0  0  0
  190.3220  176.7520  144.6120 N   0  0  0  0  0  0  0  0  0  0  0  0
  186.9360  177.7140  146.1220 C   0  0  2  0  0  0  0  0  0  0  0  0
  188.3940  177.3870  146.1270 C   0  0  2  0  0  3  0  0  0  0  0  0
  186.4940  178.3460  144.7980 C   0  0  0  0  0  0  0  0  0  0  0  0
  185.2560  179.0600  144.7500 N   0  0  0  0  0  2  0  0  0  0  0  0
  188.4160  177.4390  143.7100 C   0  0  0  0  0  0  0  0  0  0  0  0
  189.0190  177.7680  147.2220 C   0  0  0  0  0  2  0  0  0  0  0  0
  189.0440  177.0900  144.8590 C   0  0  1  0  0  3  0  0  0  0  0  0
  187.1730  178.1510  143.6910 N   0  0  0  0  0  0  0  0  0  0  0  0
  190.5100  176.8560  143.2990 N   0  0  0  0  0  0  0  0  0  0  0  0
  189.3620  177.2900  142.7240 C   0  0  0  0  0  0  0  0  0  0  0  0
  188.5190  178.5720  139.4460 N   0  0  0  0  0  0  0  0  0  0  0  0
  189.2190  177.6200  141.3020 C   0  0  0  0  0  0  0  0  0  0  0  0
  189.9610  177.3200  137.8440 C   0  0  0  0  0  1  0  0  0  0  0  0
  189.4660  177.6430  139.2090 C   0  0  0  0  0  0  0  0  0  0  0  0
  188.3570  178.5610  140.7830 C   0  0  0  0  0  2  0  0  0  0  0  0
  189.9250  177.0340  140.3180 N   0  0  0  0  0  0  0  0  0  0  0  0
  184.7840  179.6150  143.5540 N   0  0  0  0  0  2  0  0  0  0  0  0
  183.8370  178.6650  142.9990 C   0  0  0  0  0  2  0  0  0  0  0  0
  183.4600  177.6410  140.8820 O   0  0  0  0  0  0  0  0  0  0  0  0
  184.0580  178.5370  141.5340 C   0  0  0  0  0  0  0  0  0  0  0  0
  184.9760  179.4000  140.8750 N   0  0  0  0  0  1  0  0  0  0  0  0
  1  3  1  0  0  0  0
  4 11  1  0  0  0  0
  5  6  1  0  0  0  0
  5  2  1  1  0  0  0
  5  1  1  0  0  0  0
  6 10  1  6  0  0  0
  7  5  1  0  0  0  0
  8  7  1  0  0  0  0
 10  3  1  0  0  0  0
 11  9  1  6  0  0  0
 11  6  1  0  0  0  0
 12  9  1  0  0  0  0
 12  7  2  0  0  0  0
 13  4  2  0  0  0  0
 14 13  1  0  0  0  0
 14  9  2  0  0  0  0
 15 19  1  0  0  0  0
 16 14  1  0  0  0  0
 17 18  1  0  0  0  0
 18 15  2  0  0  0  0
 18 20  1  0  0  0  0
 19 16  1  0  0  0  0
 20 16  2  0  0  0  0
 21  8  1  0  0  0  0
 22 21  1  0  0  0  0
 23 24  2  0  0  0  0
 24 22  1  0  0  0  0
 25 24  1  0  0  0  0
M  END
>  <MODEL>
7

>  <REMARK>
 VINA RESULT:      -7.1      2.226      5.028
  Name = 
  4 active torsions:
  status: ('A' for Active; 'I' for Inactive)
    1  A    between atoms: C_3  and  C_23
    2  A    between atoms: N_8  and  N_13
    3  A    between atoms: N_8  and  C_16
    4  A    between atoms: C_16  and  C_19
                            x       y       z     vdW  Elec       q    Type
                         _______ _______ _______ _____ _____    ______ ____

>  <TORSDO>
F 4

$$$$
=
 OpenBabel11032419203D

 25 28  0  0  1  0  0  0  0  0999 V2000
  191.6010  176.4720  143.6950 C   0  0  0  0  0  2  0  0  0  0  0  0
  191.3750  178.9480  143.7500 C   0  0  0  0  0  1  0  0  0  0  0  0
  191.5280  176.0280  145.1590 C   0  0  0  0  0  2  0  0  0  0  0  0
  187.3910  177.7970  145.6420 N   0  0  0  0  0  0  0  0  0  0  0  0
  190.6230  177.6360  143.5920 C   0  0  2  0  0  0  0  0  0  0  0  0
  189.7420  177.4170  144.7800 C   0  0  2  0  0  3  0  0  0  0  0  0
  189.8270  177.6580  142.2830 C   0  0  0  0  0  0  0  0  0  0  0  0
  190.5200  177.4730  141.0480 N   0  0  0  0  0  2  0  0  0  0  0  0
  187.8270  178.1430  143.4950 C   0  0  0  0  0  0  0  0  0  0  0  0
  190.1990  176.5120  145.6200 C   0  0  0  0  0  2  0  0  0  0  0  0
  188.3580  177.8630  144.7100 C   0  0  0  0  0  0  0  0  0  0  0  0
  188.5470  177.9510  142.2710 N   0  0  0  0  0  0  0  0  0  0  0  0
  186.2390  178.0650  145.0330 N   0  0  0  0  0  2  0  0  0  0  0  0
  186.4750  178.2640  143.7140 C   0  0  0  0  0  0  0  0  0  0  0  0
  183.4550  178.5890  141.7460 N   0  0  0  0  0  0  0  0  0  0  0  0
  185.4310  178.4820  142.7060 C   0  0  0  0  0  0  0  0  0  0  0  0
  184.1950  179.3930  139.5060 C   0  0  0  0  0  1  0  0  0  0  0  0
  184.4420  178.9630  140.9080 C   0  0  0  0  0  0  0  0  0  0  0  0
  184.0820  178.2810  142.8970 C   0  0  0  0  0  2  0  0  0  0  0  0
  185.6710  178.9130  141.4540 N   0  0  0  0  0  0  0  0  0  0  0  0
  189.8470  177.5330  139.8210 N   0  0  0  0  0  2  0  0  0  0  0  0
  190.5430  176.6350  138.9180 C   0  0  0  0  0  2  0  0  0  0  0  0
  190.7100  176.3270  136.5620 O   0  0  0  0  0  0  0  0  0  0  0  0
  190.1590  176.9400  137.5140 C   0  0  0  0  0  0  0  0  0  0  0  0
  189.1990  177.9540  137.2430 N   0  0  0  0  0  1  0  0  0  0  0  0
  1  3  1  0  0  0  0
  3 10  1  0  0  0  0
  5  1  1  0  0  0  0
  5  2  1  1  0  0  0
  5  6  1  0  0  0  0
  6 10  1  6  0  0  0
  7  5  1  0  0  0  0
  8  7  1  0  0  0  0
  9 14  2  0  0  0  0
  9 11  1  0  0  0  0
 11  6  1  0  0  0  0
 11  4  2  0  0  0  0
 12  7  2  0  0  0  0
 12  9  1  0  0  0  0
 13  4  1  0  0  0  0
 14 13  1  0  0  0  0
 15 19  1  0  0  0  0
 16 19  1  0  0  0  0
 16 14  1  0  0  0  0
 17 18  1  0  0  0  0
 18 20  1  0  0  0  0
 18 15  2  0  0  0  0
 20 16  2  0  0  0  0
 21  8  1  0  0  0  0
 22 21  1  0  0  0  0
 23 24  2  0  0  0  0
 24 22  1  0  0  0  0
 25 24  1  0  0  0  0
M  END
>  <MODEL>
8

>  <REMARK>
 VINA RESULT:      -7.1      1.882      2.139
  Name = 
  4 active torsions:
  status: ('A' for Active; 'I' for Inactive)
    1  A    between atoms: C_3  and  C_23
    2  A    between atoms: N_8  and  N_13
    3  A    between atoms: N_8  and  C_16
    4  A    between atoms: C_16  and  C_19
                            x       y       z     vdW  Elec       q    Type
                         _______ _______ _______ _____ _____    ______ ____

>  <TORSDO>
F 4

$$$$
=
 OpenBabel11032419203D

 25 28  0  0  1  0  0  0  0  0999 V2000
  182.1500  177.3950  137.7250 C   0  0  0  0  0  2  0  0  0  0  0  0
  181.9440  179.8110  138.2750 C   0  0  0  0  0  1  0  0  0  0  0  0
  183.4300  177.2800  136.8920 C   0  0  0  0  0  2  0  0  0  0  0  0
  185.9510  178.9390  140.2630 N   0  0  0  0  0  0  0  0  0  0  0  0
  182.4580  178.4670  138.7640 C   0  0  2  0  0  0  0  0  0  0  0  0
  183.9530  178.4770  138.7780 C   0  0  2  0  0  3  0  0  0  0  0  0
  181.8730  178.1700  140.1480 C   0  0  0  0  0  0  0  0  0  0  0  0
  180.5120  177.7470  140.2490 N   0  0  0  0  0  2  0  0  0  0  0  0
  183.9300  178.8250  141.1700 C   0  0  0  0  0  0  0  0  0  0  0  0
  184.4970  177.7970  137.7890 C   0  0  0  0  0  2  0  0  0  0  0  0
  184.6330  178.8390  140.0120 C   0  0  0  0  0  0  0  0  0  0  0  0
  182.5630  178.4000  141.2420 N   0  0  0  0  0  0  0  0  0  0  0  0
  186.0940  179.0200  141.5840 N   0  0  0  0  0  2  0  0  0  0  0  0
  184.8730  178.9350  142.1640 C   0  0  0  0  0  0  0  0  0  0  0  0
  183.6420  179.0170  145.5670 N   0  0  0  0  0  0  0  0  0  0  0  0
  184.6420  178.8840  143.6120 C   0  0  0  0  0  0  0  0  0  0  0  0
  185.5670  178.3300  146.9940 C   0  0  0  0  0  1  0  0  0  0  0  0
  184.9270  178.6280  145.6850 C   0  0  0  0  0  0  0  0  0  0  0  0
  183.4550  179.1820  144.2430 C   0  0  0  0  0  2  0  0  0  0  0  0
  185.5790  178.5320  144.5120 N   0  0  0  0  0  0  0  0  0  0  0  0
  179.9150  177.5100  141.4940 N   0  0  0  0  0  2  0  0  0  0  0  0
  179.0510  178.6440  141.7660 C   0  0  0  0  0  2  0  0  0  0  0  0
  180.0380  180.4300  142.9930 O   0  0  0  0  0  0  0  0  0  0  0  0
  179.4740  179.3040  143.0290 C   0  0  0  0  0  0  0  0  0  0  0  0
  179.2810  178.6470  144.2750 N   0  0  0  0  0  1  0  0  0  0  0  0
  1  5  1  0  0  0  0
  3  1  1  0  0  0  0
  3 10  1  0  0  0  0
  4 13  1  0  0  0  0
  5  2  1  6  0  0  0
  5  6  1  0  0  0  0
  5  7  1  0  0  0  0
  6 10  1  1  0  0  0
  6 11  1  0  0  0  0
  7  8  1  0  0  0  0
  7 12  2  0  0  0  0
  8 21  1  0  0  0  0
  9 12  1  0  0  0  0
  9 14  2  0  0  0  0
 11  4  2  0  0  0  0
 11  9  1  0  0  0  0
 13 14  1  0  0  0  0
 14 16  1  0  0  0  0
 15 18  2  0  0  0  0
 16 19  1  0  0  0  0
 16 20  2  0  0  0  0
 18 17  1  0  0  0  0
 19 15  1  0  0  0  0
 20 18  1  0  0  0  0
 21 22  1  0  0  0  0
 22 24  1  0  0  0  0
 23 24  2  0  0  0  0
 24 25  1  0  0  0  0
M  END
>  <MODEL>
9

>  <REMARK>
 VINA RESULT:      -7.1      4.468      8.277
  Name = 
  4 active torsions:
  status: ('A' for Active; 'I' for Inactive)
    1  A    between atoms: C_3  and  C_23
    2  A    between atoms: N_8  and  N_13
    3  A    between atoms: N_8  and  C_16
    4  A    between atoms: C_16  and  C_19
                            x       y       z     vdW  Elec       q    Type
                         _______ _______ _______ _____ _____    ______ ____

>  <TORSDO>
F 4

$$$$
