=
 OpenBabel11042412503D

 46 48  0  0  1  0  0  0  0  0999 V2000
  189.0360  176.7720  143.1730 C   0  0  1  0  0  3  0  0  0  0  0  0
  189.3560  177.8750  140.7560 C   0  0  0  0  0  0  0  0  0  0  0  0
  189.2340  177.3740  141.8470 C   0  0  0  0  0  0  0  0  0  0  0  0
  189.4590  178.4910  139.4290 C   0  0  0  0  0  2  0  0  0  0  0  0
  191.3810  174.9240  137.2690 C   0  0  0  0  0  0  0  0  0  0  0  0
  190.4900  174.2280  136.6070 N   0  0  0  0  0  0  0  0  0  0  0  0
  188.9140  177.6080  138.4030 N   0  0  0  0  0  0  0  0  0  0  0  0
  189.5880  176.6220  137.7770 C   0  0  0  0  0  0  0  0  0  0  0  0
  187.6110  177.4340  138.0700 C   0  0  0  0  0  0  0  0  0  0  0  0
  188.7300  175.8560  137.0480 C   0  0  0  0  0  0  0  0  0  0  0  0
  192.7190  174.4100  137.3360 N   0  0  0  0  0  2  0  0  0  0  0  0
  189.1420  174.6260  136.4680 N   0  0  0  0  0  2  0  0  0  0  0  0
  187.4590  176.3500  137.2140 C   0  0  0  0  0  0  0  0  0  0  0  0
  193.7320  176.1350  138.5680 O   0  0  0  0  0  0  0  0  0  0  0  0
  193.8440  175.0270  137.9750 C   0  0  0  0  0  0  0  0  0  0  0  0
  191.0240  176.2420  137.9640 C   0  0  0  0  0  2  0  0  0  0  0  0
  186.5370  178.1720  138.6430 N   0  0  0  0  0  1  0  0  0  0  0  0
  186.1850  175.7440  136.7370 C   0  0  0  0  0  1  0  0  0  0  0  0
  195.8230  174.4040  139.2950 C   0  0  0  0  0  1  0  0  0  0  0  0
  195.1820  174.3470  137.9090 C   0  0  2  0  0  3  0  0  0  0  0  0
  197.4350  174.7620  137.2530 C   0  0  0  0  0  1  0  0  0  0  0  0
  195.8750  174.2440  135.6360 C   0  0  0  0  0  1  0  0  0  0  0  0
  196.0410  174.9700  136.8870 N   0  0  0  0  0  0  0  0  0  0  0  0
  189.8730  177.5320  144.1970 C   0  0  0  0  0  2  0  0  0  0  0  0
  190.6430  176.5840  145.1070 C   0  0  0  0  0  2  0  0  0  0  0  0
  190.8780  177.2020  146.4080 N   0  0  0  0  0  0  0  0  0  0  0  0
  192.0850  176.7830  146.8610 O   0  0  0  0  0  1  0  0  0  0  0  0
  189.0700  177.9120  147.9750 C   0  0  0  0  0  1  0  0  0  0  0  0
  189.8460  176.7540  147.3450 C   0  0  0  0  0  2  0  0  0  0  0  0
  187.5600  176.8230  143.5550 C   0  0  0  0  0  2  0  0  0  0  0  0
  187.3410  177.7040  144.7470 C   0  0  0  0  0  2  0  0  0  0  0  0
  186.1900  178.3300  144.9670 C   0  0  0  0  0  3  0  0  0  0  0  0
  185.1000  178.2350  144.0480 N   0  0  0  0  0  0  0  0  0  0  0  0
  183.8000  178.7420  144.3650 C   0  0  0  0  0  0  0  0  0  0  0  0
  183.5350  179.1360  145.5370 O   0  0  0  0  0  0  0  0  0  0  0  0
  182.7670  178.8050  143.3240 C   0  0  0  0  0  0  0  0  0  0  0  0
  180.8730  178.9220  142.3840 C   0  0  1  0  0  3  0  0  0  0  0  0
  179.3980  178.9760  142.1700 C   0  0  0  0  0  1  0  0  0  0  0  0
  181.4510  178.9400  143.5970 N   0  0  0  0  0  0  0  0  0  0  0  0
  183.0450  178.7040  142.0030 N   0  0  0  0  0  0  0  0  0  0  0  0
  181.8440  178.7860  141.4140 C   0  0  0  0  0  0  0  0  0  0  0  0
  181.6470  178.6770  139.9300 C   0  0  0  0  0  2  0  0  0  0  0  0
  182.9250  178.3370  139.2220 C   0  0  0  0  0  3  0  0  0  0  0  0
  183.2470  177.1020  138.8080 C   0  0  0  0  0  3  0  0  0  0  0  0
  182.3510  175.9200  139.0040 C   0  0  0  0  0  2  0  0  0  0  0  0
  182.5890  174.9120  137.8960 C   0  0  0  0  0  1  0  0  0  0  0  0
  1  3  1  6  0  0  0
  1 30  1  0  0  0  0
  1 24  1  0  0  0  0
  2  3  3  0  0  0  0
  4  2  1  0  0  0  0
  5 11  1  0  0  0  0
  5 16  1  0  0  0  0
  6  5  2  0  0  0  0
  7  4  1  0  0  0  0
  8 16  1  0  0  0  0
  8  7  1  0  0  0  0
  9  7  1  0  0  0  0
  9 17  1  0  0  0  0
 10 13  1  0  0  0  0
 10  8  2  0  0  0  0
 11 15  1  0  0  0  0
 12  6  1  0  0  0  0
 12 10  1  0  0  0  0
 13  9  2  0  0  0  0
 15 14  2  0  0  0  0
 18 13  1  0  0  0  0
 20 15  1  0  0  0  0
 20 19  1  1  0  0  0
 22 23  1  0  0  0  0
 23 21  1  0  0  0  0
 23 20  1  0  0  0  0
 24 25  1  0  0  0  0
 25 26  1  0  0  0  0
 26 27  1  0  0  0  0
 26 29  1  0  0  0  0
 29 28  1  0  0  0  0
 30 31  1  0  0  0  0
 31 32  1  0  0  0  0
 33 34  1  0  0  0  0
 33 32  2  0  0  0  0
 34 35  2  0  0  0  0
 36 39  2  0  0  0  0
 36 34  1  0  0  0  0
 37 38  1  1  0  0  0
 37 39  1  0  0  0  0
 40 36  1  0  0  0  0
 41 40  2  0  0  0  0
 41 37  1  0  0  0  0
 42 41  1  0  0  0  0
 43 42  1  0  0  0  0
 44 45  1  0  0  0  0
 44 43  2  0  0  0  0
 46 45  1  0  0  0  0
M  END
>  <MODEL>
1

>  <REMARK>
 VINA RESULT:      -8.0      0.000      0.000
  Name = 
  16 active torsions:
  status: ('A' for Active; 'I' for Inactive)
    1  A    between atoms: N_2  and  C_28
    2  A    between atoms: N_2  and  C_45
    3  A    between atoms: C_3  and  C_19
    4  A    between atoms: C_4  and  C_27
    5  A    between atoms: C_5  and  C_25
    6  A    between atoms: N_9  and  C_14
    7  A    between atoms: N_12  and  C_46
    8  A    between atoms: C_13  and  C_15
    9  A    between atoms: C_17  and  C_46
   10  A    between atoms: C_18  and  C_20
   11  A    between atoms: C_18  and  C_28
   12  A    between atoms: C_19  and  C_20
   13  A    between atoms: C_20  and  C_41
   14  A    between atoms: C_21  and  N_34
   15  A    between atoms: C_21  and  C_38
   16  A    between atoms: C_27  and  C_32
                            x       y       z     vdW  Elec       q    Type
                         _______ _______ _______ _____ _____    ______ ____

>  <TORSDO>
F 16

$$$$
=
 OpenBabel11042412503D

 46 48  0  0  1  0  0  0  0  0999 V2000
  184.4600  178.6130  143.0600 C   0  0  1  0  0  3  0  0  0  0  0  0
  181.9440  178.6510  142.1510 C   0  0  0  0  0  0  0  0  0  0  0  0
  183.0860  178.6310  142.5400 C   0  0  0  0  0  0  0  0  0  0  0  0
  180.5420  178.6820  141.7210 C   0  0  0  0  0  2  0  0  0  0  0  0
  180.7540  177.5090  137.2870 C   0  0  0  0  0  0  0  0  0  0  0  0
  180.3020  178.4670  136.5160 N   0  0  0  0  0  0  0  0  0  0  0  0
  180.3830  179.5000  140.5230 N   0  0  0  0  0  0  0  0  0  0  0  0
  180.5320  179.0710  139.2540 C   0  0  0  0  0  0  0  0  0  0  0  0
  179.8250  180.7320  140.4340 C   0  0  0  0  0  0  0  0  0  0  0  0
  180.0970  180.0220  138.3830 C   0  0  0  0  0  0  0  0  0  0  0  0
  181.0880  176.2550  136.6740 N   0  0  0  0  0  2  0  0  0  0  0  0
  179.9400  179.7440  136.9980 N   0  0  0  0  0  2  0  0  0  0  0  0
  179.6400  181.0970  139.1050 C   0  0  0  0  0  0  0  0  0  0  0  0
  181.8560  175.0940  138.5670 O   0  0  0  0  0  0  0  0  0  0  0  0
  181.6270  175.0980  137.3260 C   0  0  0  0  0  0  0  0  0  0  0  0
  180.9200  177.6980  138.7990 C   0  0  0  0  0  2  0  0  0  0  0  0
  179.3580  181.4800  141.5510 N   0  0  0  0  0  1  0  0  0  0  0  0
  178.9310  182.2990  138.5850 C   0  0  0  0  0  1  0  0  0  0  0  0
  181.0060  173.8530  135.2980 C   0  0  0  0  0  1  0  0  0  0  0  0
  181.9450  173.8820  136.5040 C   0  0  2  0  0  3  0  0  0  0  0  0
  180.4950  172.1000  137.1390 C   0  0  0  0  0  1  0  0  0  0  0  0
  182.7230  171.6480  136.7520 C   0  0  0  0  0  1  0  0  0  0  0  0
  181.8310  172.6550  137.3100 N   0  0  0  0  0  0  0  0  0  0  0  0
  185.4230  179.0040  141.9440 C   0  0  0  0  0  2  0  0  0  0  0  0
  185.0340  178.3640  140.6170 C   0  0  0  0  0  2  0  0  0  0  0  0
  185.4700  179.1980  139.5010 N   0  0  0  0  0  0  0  0  0  0  0  0
  184.4500  180.0300  139.1750 O   0  0  0  0  0  1  0  0  0  0  0  0
  184.5020  177.7420  137.7200 C   0  0  0  0  0  1  0  0  0  0  0  0
  185.7610  178.3430  138.3490 C   0  0  0  0  0  2  0  0  0  0  0  0
  184.5890  179.5820  144.2310 C   0  0  0  0  0  2  0  0  0  0  0  0
  184.1360  178.9470  145.5110 C   0  0  0  0  0  3  0  0  0  0  0  0
  184.9630  178.2700  146.3000 C   0  0  0  0  0  3  0  0  0  0  0  0
  186.3330  178.0670  145.9490 N   0  0  0  0  0  2  0  0  0  0  0  0
  187.3550  177.9370  146.9420 C   0  0  0  0  0  0  0  0  0  0  0  0
  187.0990  178.1700  148.1580 O   0  0  0  0  0  0  0  0  0  0  0  0
  188.7090  177.5310  146.5470 C   0  0  0  0  0  0  0  0  0  0  0  0
  190.6660  176.7240  146.6340 C   0  0  1  0  0  3  0  0  0  0  0  0
  191.9190  176.0980  147.1450 C   0  0  0  0  0  1  0  0  0  0  0  0
  189.5490  176.8630  147.3680 N   0  0  0  0  0  0  0  0  0  0  0  0
  189.2410  177.8170  145.3360 N   0  0  0  0  0  0  0  0  0  0  0  0
  190.4760  177.2980  145.3940 C   0  0  0  0  0  0  0  0  0  0  0  0
  191.4690  177.4120  144.2760 C   0  0  0  0  0  2  0  0  0  0  0  0
  191.2670  176.3460  143.2400 C   0  0  0  0  0  3  0  0  0  0  0  0
  190.4670  176.4820  142.1710 C   0  0  0  0  0  3  0  0  0  0  0  0
  189.6890  177.7290  141.8920 C   0  0  0  0  0  2  0  0  0  0  0  0
  188.8590  177.5410  140.6370 C   0  0  0  0  0  1  0  0  0  0  0  0
  1 24  1  6  0  0  0
  1 30  1  0  0  0  0
  2  3  3  0  0  0  0
  3  1  1  0  0  0  0
  4  2  1  0  0  0  0
  5 16  1  0  0  0  0
  6 12  1  0  0  0  0
  6  5  2  0  0  0  0
  7  4  1  0  0  0  0
  8  7  1  0  0  0  0
  9  7  1  0  0  0  0
  9 17  1  0  0  0  0
 10 13  1  0  0  0  0
 10  8  2  0  0  0  0
 11  5  1  0  0  0  0
 11 15  1  0  0  0  0
 12 10  1  0  0  0  0
 13  9  2  0  0  0  0
 15 14  2  0  0  0  0
 16  8  1  0  0  0  0
 18 13  1  0  0  0  0
 20 19  1  6  0  0  0
 20 23  1  0  0  0  0
 20 15  1  0  0  0  0
 21 23  1  0  0  0  0
 22 23  1  0  0  0  0
 25 24  1  0  0  0  0
 26 25  1  0  0  0  0
 27 26  1  0  0  0  0
 28 29  1  0  0  0  0
 29 26  1  0  0  0  0
 30 31  1  0  0  0  0
 31 32  2  0  0  0  0
 33 32  1  0  0  0  0
 33 34  1  0  0  0  0
 34 35  2  0  0  0  0
 36 34  1  0  0  0  0
 36 39  2  0  0  0  0
 37 38  1  1  0  0  0
 37 39  1  0  0  0  0
 40 41  2  0  0  0  0
 40 36  1  0  0  0  0
 41 37  1  0  0  0  0
 42 41  1  0  0  0  0
 43 42  1  0  0  0  0
 44 43  2  0  0  0  0
 45 44  1  0  0  0  0
 46 45  1  0  0  0  0
M  END
>  <MODEL>
2

>  <REMARK>
 VINA RESULT:      -7.8      4.440      9.733
  Name = 
  16 active torsions:
  status: ('A' for Active; 'I' for Inactive)
    1  A    between atoms: N_2  and  C_28
    2  A    between atoms: N_2  and  C_45
    3  A    between atoms: C_3  and  C_19
    4  A    between atoms: C_4  and  C_27
    5  A    between atoms: C_5  and  C_25
    6  A    between atoms: N_9  and  C_14
    7  A    between atoms: N_12  and  C_46
    8  A    between atoms: C_13  and  C_15
    9  A    between atoms: C_17  and  C_46
   10  A    between atoms: C_18  and  C_20
   11  A    between atoms: C_18  and  C_28
   12  A    between atoms: C_19  and  C_20
   13  A    between atoms: C_20  and  C_41
   14  A    between atoms: C_21  and  N_34
   15  A    between atoms: C_21  and  C_38
   16  A    between atoms: C_27  and  C_32
                            x       y       z     vdW  Elec       q    Type
                         _______ _______ _______ _____ _____    ______ ____

>  <TORSDO>
F 16

$$$$
=
 OpenBabel11042412503D

 46 48  0  0  1  0  0  0  0  0999 V2000
  183.1950  179.1420  143.0410 C   0  0  1  0  0  3  0  0  0  0  0  0
  180.6550  178.5750  142.4200 C   0  0  0  0  0  0  0  0  0  0  0  0
  181.8040  178.8380  142.6790 C   0  0  0  0  0  0  0  0  0  0  0  0
  179.2530  178.2400  142.1480 C   0  0  0  0  0  2  0  0  0  0  0  0
  179.5540  179.3270  137.6970 C   0  0  0  0  0  0  0  0  0  0  0  0
  179.6580  178.2560  136.9490 N   0  0  0  0  0  0  0  0  0  0  0  0
  179.1410  177.3950  140.9640 N   0  0  0  0  0  0  0  0  0  0  0  0
  179.1760  177.8240  139.6870 C   0  0  0  0  0  0  0  0  0  0  0  0
  179.2330  176.0440  140.9030 C   0  0  0  0  0  0  0  0  0  0  0  0
  179.2690  176.7640  138.8370 C   0  0  0  0  0  0  0  0  0  0  0  0
  179.6920  180.6060  137.0620 N   0  0  0  0  0  2  0  0  0  0  0  0
  179.5410  176.9430  137.4540 N   0  0  0  0  0  2  0  0  0  0  0  0
  179.3060  175.6120  139.5840 C   0  0  0  0  0  0  0  0  0  0  0  0
  179.3410  181.9980  138.9210 O   0  0  0  0  0  0  0  0  0  0  0  0
  179.5790  181.8910  137.6860 C   0  0  0  0  0  0  0  0  0  0  0  0
  179.3020  179.2370  139.2060 C   0  0  0  0  0  2  0  0  0  0  0  0
  179.3870  175.2020  142.0400 N   0  0  0  0  0  1  0  0  0  0  0  0
  179.5610  174.2280  139.0950 C   0  0  0  0  0  1  0  0  0  0  0  0
  180.5490  182.7720  135.6060 C   0  0  0  0  0  1  0  0  0  0  0  0
  179.7230  183.1250  136.8420 C   0  0  2  0  0  3  0  0  0  0  0  0
  181.3110  184.9010  136.7680 C   0  0  0  0  0  1  0  0  0  0  0  0
  179.3180  185.2260  137.8820 C   0  0  0  0  0  1  0  0  0  0  0  0
  180.3370  184.2210  137.6110 N   0  0  0  0  0  0  0  0  0  0  0  0
  183.4350  178.7390  144.4920 C   0  0  0  0  0  2  0  0  0  0  0  0
  184.8750  178.9970  144.9170 C   0  0  0  0  0  2  0  0  0  0  0  0
  185.1610  178.3300  146.1830 N   0  0  0  0  0  0  0  0  0  0  0  0
  185.3140  179.2840  147.1350 O   0  0  0  0  0  1  0  0  0  0  0  0
  187.0060  177.6420  144.6490 C   0  0  0  0  0  1  0  0  0  0  0  0
  186.4170  177.5880  146.0600 C   0  0  0  0  0  2  0  0  0  0  0  0
  184.1520  178.3910  142.1200 C   0  0  0  0  0  2  0  0  0  0  0  0
  184.1550  178.9840  140.7440 C   0  0  0  0  0  2  0  0  0  0  0  0
  185.2330  178.9780  139.9690 C   0  0  0  0  0  3  0  0  0  0  0  0
  186.4780  178.4440  140.4250 N   0  0  0  0  0  0  0  0  0  0  0  0
  187.5940  178.2750  139.5440 C   0  0  0  0  0  0  0  0  0  0  0  0
  187.4550  178.4350  138.2980 O   0  0  0  0  0  0  0  0  0  0  0  0
  188.9070  177.9140  140.0920 C   0  0  0  0  0  0  0  0  0  0  0  0
  190.9710  177.4530  140.2110 C   0  0  1  0  0  3  0  0  0  0  0  0
  192.3830  177.1640  139.8280 C   0  0  0  0  0  1  0  0  0  0  0  0
  190.0250  177.8360  139.3370 N   0  0  0  0  0  0  0  0  0  0  0  0
  189.1020  177.6000  141.3930 N   0  0  0  0  0  0  0  0  0  0  0  0
  190.4110  177.3160  141.4640 C   0  0  0  0  0  0  0  0  0  0  0  0
  191.0870  176.8660  142.7250 C   0  0  0  0  0  2  0  0  0  0  0  0
  191.2340  177.9880  143.7100 C   0  0  0  0  0  3  0  0  0  0  0  0
  191.4630  177.8090  145.0200 C   0  0  0  0  0  3  0  0  0  0  0  0
  191.6040  176.4560  145.6440 C   0  0  0  0  0  2  0  0  0  0  0  0
  191.2770  176.5400  147.1220 C   0  0  0  0  0  1  0  0  0  0  0  0
  1 30  1  6  0  0  0
  1 24  1  0  0  0  0
  2  3  3  0  0  0  0
  3  1  1  0  0  0  0
  4  2  1  0  0  0  0
  5 16  1  0  0  0  0
  6 12  1  0  0  0  0
  6  5  2  0  0  0  0
  7  4  1  0  0  0  0
  8  7  1  0  0  0  0
  9  7  1  0  0  0  0
  9 17  1  0  0  0  0
 10 13  1  0  0  0  0
 10  8  2  0  0  0  0
 11 15  1  0  0  0  0
 11  5  1  0  0  0  0
 12 10  1  0  0  0  0
 13  9  2  0  0  0  0
 15 14  2  0  0  0  0
 16  8  1  0  0  0  0
 18 13  1  0  0  0  0
 20 19  1  6  0  0  0
 20 23  1  0  0  0  0
 20 15  1  0  0  0  0
 21 23  1  0  0  0  0
 23 22  1  0  0  0  0
 24 25  1  0  0  0  0
 25 26  1  0  0  0  0
 26 27  1  0  0  0  0
 28 29  1  0  0  0  0
 29 26  1  0  0  0  0
 31 30  1  0  0  0  0
 32 33  2  0  0  0  0
 32 31  1  0  0  0  0
 34 36  1  0  0  0  0
 34 33  1  0  0  0  0
 35 34  2  0  0  0  0
 36 40  1  0  0  0  0
 37 38  1  6  0  0  0
 37 41  1  0  0  0  0
 39 36  2  0  0  0  0
 39 37  1  0  0  0  0
 40 41  2  0  0  0  0
 41 42  1  0  0  0  0
 42 43  1  0  0  0  0
 43 44  2  0  0  0  0
 44 45  1  0  0  0  0
 45 46  1  0  0  0  0
M  END
>  <MODEL>
3

>  <REMARK>
 VINA RESULT:      -7.6      3.743     10.798
  Name = 
  16 active torsions:
  status: ('A' for Active; 'I' for Inactive)
    1  A    between atoms: N_2  and  C_28
    2  A    between atoms: N_2  and  C_45
    3  A    between atoms: C_3  and  C_19
    4  A    between atoms: C_4  and  C_27
    5  A    between atoms: C_5  and  C_25
    6  A    between atoms: N_9  and  C_14
    7  A    between atoms: N_12  and  C_46
    8  A    between atoms: C_13  and  C_15
    9  A    between atoms: C_17  and  C_46
   10  A    between atoms: C_18  and  C_20
   11  A    between atoms: C_18  and  C_28
   12  A    between atoms: C_19  and  C_20
   13  A    between atoms: C_20  and  C_41
   14  A    between atoms: C_21  and  N_34
   15  A    between atoms: C_21  and  C_38
   16  A    between atoms: C_27  and  C_32
                            x       y       z     vdW  Elec       q    Type
                         _______ _______ _______ _____ _____    ______ ____

>  <TORSDO>
F 16

$$$$
=
 OpenBabel11042412503D

 46 48  0  0  1  0  0  0  0  0999 V2000
  188.3300  178.3910  140.2310 C   0  0  1  0  0  3  0  0  0  0  0  0
  187.0160  177.8040  137.9750 C   0  0  0  0  0  0  0  0  0  0  0  0
  187.5920  178.0600  139.0040 C   0  0  0  0  0  0  0  0  0  0  0  0
  186.3510  177.5120  136.7010 C   0  0  0  0  0  2  0  0  0  0  0  0
  188.9980  173.7810  137.0970 C   0  0  0  0  0  0  0  0  0  0  0  0
  188.2770  172.6920  137.2110 N   0  0  0  0  0  0  0  0  0  0  0  0
  186.0030  176.0980  136.6080 N   0  0  0  0  0  0  0  0  0  0  0  0
  186.8720  175.0700  136.6710 C   0  0  0  0  0  0  0  0  0  0  0  0
  184.7680  175.5440  136.6950 C   0  0  0  0  0  0  0  0  0  0  0  0
  186.1990  173.8910  136.7760 C   0  0  0  0  0  0  0  0  0  0  0  0
  190.4190  173.6640  137.2540 N   0  0  0  0  0  2  0  0  0  0  0  0
  186.8710  172.6760  137.0760 N   0  0  0  0  0  2  0  0  0  0  0  0
  184.8520  174.1600  136.7920 C   0  0  0  0  0  0  0  0  0  0  0  0
  191.0330  175.8990  136.8730 O   0  0  0  0  0  0  0  0  0  0  0  0
  191.3840  174.7170  137.1350 C   0  0  0  0  0  0  0  0  0  0  0  0
  188.3610  175.1460  136.8140 C   0  0  0  0  0  2  0  0  0  0  0  0
  183.5650  176.2940  136.8220 N   0  0  0  0  0  1  0  0  0  0  0  0
  183.7430  173.2010  137.0500 C   0  0  0  0  0  1  0  0  0  0  0  0
  193.5520  175.6210  137.8620 C   0  0  0  0  0  1  0  0  0  0  0  0
  192.8410  174.3900  137.3020 C   0  0  2  0  0  3  0  0  0  0  0  0
  194.4590  174.9120  135.6310 C   0  0  0  0  0  1  0  0  0  0  0  0
  194.1580  172.7110  136.2510 C   0  0  0  0  0  1  0  0  0  0  0  0
  193.4340  173.9540  136.0260 N   0  0  0  0  0  0  0  0  0  0  0  0
  187.3420  178.8290  141.3070 C   0  0  0  0  0  2  0  0  0  0  0  0
  187.3430  177.8720  142.4930 C   0  0  0  0  0  2  0  0  0  0  0  0
  186.3140  178.2500  143.4550 N   0  0  0  0  0  0  0  0  0  0  0  0
  186.0330  177.1660  144.2190 O   0  0  0  0  0  1  0  0  0  0  0  0
  183.8520  178.6280  143.6160 C   0  0  0  0  0  1  0  0  0  0  0  0
  185.1010  178.6380  142.7330 C   0  0  0  0  0  2  0  0  0  0  0  0
  189.1260  177.1790  140.7060 C   0  0  0  0  0  2  0  0  0  0  0  0
  190.5460  177.2450  140.2320 C   0  0  0  0  0  3  0  0  0  0  0  0
  191.5690  177.3780  141.0670 C   0  0  0  0  0  3  0  0  0  0  0  0
  191.3720  177.5160  142.4760 N   0  0  0  0  0  2  0  0  0  0  0  0
  191.1070  176.3860  143.3140 C   0  0  0  0  0  0  0  0  0  0  0  0
  190.8710  175.2530  142.8050 O   0  0  0  0  0  0  0  0  0  0  0  0
  191.1100  176.5440  144.7740 C   0  0  0  0  0  0  0  0  0  0  0  0
  191.6510  176.3380  146.8110 C   0  0  1  0  0  3  0  0  0  0  0  0
  192.3330  175.8840  148.0570 C   0  0  0  0  0  1  0  0  0  0  0  0
  192.0310  175.9670  145.5760 N   0  0  0  0  0  0  0  0  0  0  0  0
  190.1720  177.2560  145.4400 N   0  0  0  0  0  0  0  0  0  0  0  0
  190.5240  177.1280  146.7270 C   0  0  0  0  0  0  0  0  0  0  0  0
  189.7370  177.7240  147.8580 C   0  0  0  0  0  2  0  0  0  0  0  0
  188.4660  176.9690  148.1110 C   0  0  0  0  0  3  0  0  0  0  0  0
  187.2570  177.3790  147.6980 C   0  0  0  0  0  3  0  0  0  0  0  0
  187.0470  178.6430  146.9250 C   0  0  0  0  0  2  0  0  0  0  0  0
  185.6130  179.1080  147.0890 C   0  0  0  0  0  1  0  0  0  0  0  0
  1  3  1  6  0  0  0
  1 30  1  0  0  0  0
  1 24  1  0  0  0  0
  2  3  3  0  0  0  0
  4  2  1  0  0  0  0
  5  6  2  0  0  0  0
  5 11  1  0  0  0  0
  7  8  1  0  0  0  0
  7  9  1  0  0  0  0
  7  4  1  0  0  0  0
  8 10  2  0  0  0  0
  8 16  1  0  0  0  0
  9 13  2  0  0  0  0
  9 17  1  0  0  0  0
 10 13  1  0  0  0  0
 10 12  1  0  0  0  0
 12  6  1  0  0  0  0
 13 18  1  0  0  0  0
 14 15  2  0  0  0  0
 15 11  1  0  0  0  0
 15 20  1  0  0  0  0
 16  5  1  0  0  0  0
 20 19  1  6  0  0  0
 21 23  1  0  0  0  0
 23 22  1  0  0  0  0
 23 20  1  0  0  0  0
 24 25  1  0  0  0  0
 25 26  1  0  0  0  0
 26 27  1  0  0  0  0
 29 26  1  0  0  0  0
 29 28  1  0  0  0  0
 31 30  1  0  0  0  0
 31 32  2  0  0  0  0
 32 33  1  0  0  0  0
 33 34  1  0  0  0  0
 34 36  1  0  0  0  0
 35 34  2  0  0  0  0
 36 40  1  0  0  0  0
 36 39  2  0  0  0  0
 37 38  1  1  0  0  0
 39 37  1  0  0  0  0
 40 41  2  0  0  0  0
 41 37  1  0  0  0  0
 41 42  1  0  0  0  0
 42 43  1  0  0  0  0
 44 43  2  0  0  0  0
 45 46  1  0  0  0  0
 45 44  1  0  0  0  0
M  END
>  <MODEL>
4

>  <REMARK>
 VINA RESULT:      -7.5      2.508      6.553
  Name = 
  16 active torsions:
  status: ('A' for Active; 'I' for Inactive)
    1  A    between atoms: N_2  and  C_28
    2  A    between atoms: N_2  and  C_45
    3  A    between atoms: C_3  and  C_19
    4  A    between atoms: C_4  and  C_27
    5  A    between atoms: C_5  and  C_25
    6  A    between atoms: N_9  and  C_14
    7  A    between atoms: N_12  and  C_46
    8  A    between atoms: C_13  and  C_15
    9  A    between atoms: C_17  and  C_46
   10  A    between atoms: C_18  and  C_20
   11  A    between atoms: C_18  and  C_28
   12  A    between atoms: C_19  and  C_20
   13  A    between atoms: C_20  and  C_41
   14  A    between atoms: C_21  and  N_34
   15  A    between atoms: C_21  and  C_38
   16  A    between atoms: C_27  and  C_32
                            x       y       z     vdW  Elec       q    Type
                         _______ _______ _______ _____ _____    ______ ____

>  <TORSDO>
F 16

$$$$
=
 OpenBabel11042412503D

 46 48  0  0  1  0  0  0  0  0999 V2000
  189.8840  177.8680  140.1820 C   0  0  1  0  0  3  0  0  0  0  0  0
  188.7520  176.8210  142.3690 C   0  0  0  0  0  0  0  0  0  0  0  0
  189.2640  177.3130  141.3930 C   0  0  0  0  0  0  0  0  0  0  0  0
  188.1260  176.1830  143.5320 C   0  0  0  0  0  2  0  0  0  0  0  0
  184.6960  178.8160  145.0760 C   0  0  0  0  0  0  0  0  0  0  0  0
  184.9610  179.2970  146.2660 N   0  0  0  0  0  0  0  0  0  0  0  0
  188.0820  177.0990  144.6660 N   0  0  0  0  0  0  0  0  0  0  0  0
  187.0390  177.8860  145.0000 C   0  0  0  0  0  0  0  0  0  0  0  0
  188.9380  177.1550  145.7170 C   0  0  0  0  0  0  0  0  0  0  0  0
  187.2430  178.4410  146.2260 C   0  0  0  0  0  0  0  0  0  0  0  0
  183.3900  179.0500  144.5320 N   0  0  0  0  0  2  0  0  0  0  0  0
  186.2080  179.1360  146.9080 N   0  0  0  0  0  2  0  0  0  0  0  0
  188.4480  177.9950  146.7100 C   0  0  0  0  0  0  0  0  0  0  0  0
  183.6480  178.0030  142.4450 O   0  0  0  0  0  0  0  0  0  0  0  0
  182.9110  178.6430  143.2440 C   0  0  0  0  0  0  0  0  0  0  0  0
  185.7340  178.0190  144.2780 C   0  0  0  0  0  2  0  0  0  0  0  0
  190.1010  176.3450  145.8420 N   0  0  0  0  0  1  0  0  0  0  0  0
  189.0110  178.2120  148.0720 C   0  0  0  0  0  1  0  0  0  0  0  0
  180.5610  178.6260  143.9700 C   0  0  0  0  0  1  0  0  0  0  0  0
  181.5120  179.0130  142.8370 C   0  0  2  0  0  3  0  0  0  0  0  0
  179.7960  177.8170  141.6960 C   0  0  0  0  0  1  0  0  0  0  0  0
  181.0330  179.3800  140.5370 C   0  0  0  0  0  1  0  0  0  0  0  0
  181.1420  178.3600  141.5700 N   0  0  0  0  0  0  0  0  0  0  0  0
  191.2730  177.2640  140.0100 C   0  0  0  0  0  2  0  0  0  0  0  0
  191.3810  176.4630  138.7180 C   0  0  0  0  0  2  0  0  0  0  0  0
  192.7630  176.0560  138.4830 N   0  0  0  0  0  0  0  0  0  0  0  0
  193.5460  177.1600  138.5680 O   0  0  0  0  0  1  0  0  0  0  0  0
  193.9760  176.1790  136.3050 C   0  0  0  0  0  1  0  0  0  0  0  0
  192.8760  175.5070  137.1300 C   0  0  0  0  0  2  0  0  0  0  0  0
  189.0200  177.5610  138.9630 C   0  0  0  0  0  2  0  0  0  0  0  0
  188.9680  178.7310  138.0280 C   0  0  0  0  0  3  0  0  0  0  0  0
  187.9390  178.9480  137.2170 C   0  0  0  0  0  3  0  0  0  0  0  0
  186.8330  178.0460  137.1540 N   0  0  0  0  0  2  0  0  0  0  0  0
  185.7200  178.1520  138.0490 C   0  0  0  0  0  0  0  0  0  0  0  0
  185.7650  178.9440  139.0330 O   0  0  0  0  0  0  0  0  0  0  0  0
  184.5210  177.3370  137.8220 C   0  0  0  0  0  0  0  0  0  0  0  0
  182.5780  176.5220  138.0470 C   0  0  1  0  0  3  0  0  0  0  0  0
  181.2210  176.2250  138.5850 C   0  0  0  0  0  1  0  0  0  0  0  0
  183.3960  177.4580  138.5600 N   0  0  0  0  0  0  0  0  0  0  0  0
  184.4520  176.3740  136.8730 N   0  0  0  0  0  0  0  0  0  0  0  0
  183.2190  175.8680  137.0150 C   0  0  0  0  0  0  0  0  0  0  0  0
  182.7000  174.7270  136.1920 C   0  0  0  0  0  2  0  0  0  0  0  0
  183.8120  173.9400  135.5640 C   0  0  0  0  0  3  0  0  0  0  0  0
  184.0200  172.6320  135.7830 C   0  0  0  0  0  3  0  0  0  0  0  0
  183.1500  171.8090  136.6800 C   0  0  0  0  0  2  0  0  0  0  0  0
  183.4450  170.3370  136.4640 C   0  0  0  0  0  1  0  0  0  0  0  0
  1 30  1  6  0  0  0
  1  3  1  0  0  0  0
  2  4  1  0  0  0  0
  3  2  3  0  0  0  0
  4  7  1  0  0  0  0
  5  6  2  0  0  0  0
  6 12  1  0  0  0  0
  7  8  1  0  0  0  0
  7  9  1  0  0  0  0
  8 10  2  0  0  0  0
  9 17  1  0  0  0  0
  9 13  2  0  0  0  0
 10 13  1  0  0  0  0
 10 12  1  0  0  0  0
 11  5  1  0  0  0  0
 13 18  1  0  0  0  0
 14 15  2  0  0  0  0
 15 11  1  0  0  0  0
 16  8  1  0  0  0  0
 16  5  1  0  0  0  0
 20 15  1  0  0  0  0
 20 19  1  1  0  0  0
 22 23  1  0  0  0  0
 23 21  1  0  0  0  0
 23 20  1  0  0  0  0
 24  1  1  0  0  0  0
 25 24  1  0  0  0  0
 26 27  1  0  0  0  0
 26 25  1  0  0  0  0
 28 29  1  0  0  0  0
 29 26  1  0  0  0  0
 31 30  1  0  0  0  0
 32 31  2  0  0  0  0
 33 32  1  0  0  0  0
 33 34  1  0  0  0  0
 34 35  2  0  0  0  0
 36 34  1  0  0  0  0
 36 39  2  0  0  0  0
 37 39  1  0  0  0  0
 37 38  1  1  0  0  0
 40 41  2  0  0  0  0
 40 36  1  0  0  0  0
 41 37  1  0  0  0  0
 42 41  1  0  0  0  0
 43 44  2  0  0  0  0
 43 42  1  0  0  0  0
 44 45  1  0  0  0  0
 46 45  1  0  0  0  0
M  END
>  <MODEL>
5

>  <REMARK>
 VINA RESULT:      -7.4      2.376      9.287
  Name = 
  16 active torsions:
  status: ('A' for Active; 'I' for Inactive)
    1  A    between atoms: N_2  and  C_28
    2  A    between atoms: N_2  and  C_45
    3  A    between atoms: C_3  and  C_19
    4  A    between atoms: C_4  and  C_27
    5  A    between atoms: C_5  and  C_25
    6  A    between atoms: N_9  and  C_14
    7  A    between atoms: N_12  and  C_46
    8  A    between atoms: C_13  and  C_15
    9  A    between atoms: C_17  and  C_46
   10  A    between atoms: C_18  and  C_20
   11  A    between atoms: C_18  and  C_28
   12  A    between atoms: C_19  and  C_20
   13  A    between atoms: C_20  and  C_41
   14  A    between atoms: C_21  and  N_34
   15  A    between atoms: C_21  and  C_38
   16  A    between atoms: C_27  and  C_32
                            x       y       z     vdW  Elec       q    Type
                         _______ _______ _______ _____ _____    ______ ____

>  <TORSDO>
F 16

$$$$
=
 OpenBabel11042412503D

 46 48  0  0  1  0  0  0  0  0999 V2000
  183.5190  175.6710  136.4510 C   0  0  1  0  0  3  0  0  0  0  0  0
  185.3230  177.3610  137.4750 C   0  0  0  0  0  0  0  0  0  0  0  0
  184.5080  176.5890  137.0330 C   0  0  0  0  0  0  0  0  0  0  0  0
  186.3160  178.3200  137.9700 C   0  0  0  0  0  2  0  0  0  0  0  0
  190.0150  176.7890  140.2180 C   0  0  0  0  0  0  0  0  0  0  0  0
  190.9380  176.3660  139.3890 N   0  0  0  0  0  0  0  0  0  0  0  0
  187.6480  177.9920  137.4750 N   0  0  0  0  0  0  0  0  0  0  0  0
  188.6960  177.6110  138.2320 C   0  0  0  0  0  0  0  0  0  0  0  0
  188.0170  177.7610  136.1900 C   0  0  0  0  0  0  0  0  0  0  0  0
  189.7120  177.1690  137.4410 C   0  0  0  0  0  0  0  0  0  0  0  0
  190.2290  176.5840  141.6220 N   0  0  0  0  0  2  0  0  0  0  0  0
  190.8460  176.5100  137.9870 N   0  0  0  0  0  2  0  0  0  0  0  0
  189.3100  177.2540  136.1310 C   0  0  0  0  0  0  0  0  0  0  0  0
  188.2870  177.6070  142.4590 O   0  0  0  0  0  0  0  0  0  0  0  0
  189.3680  176.9980  142.6900 C   0  0  0  0  0  0  0  0  0  0  0  0
  188.7380  177.4770  139.7230 C   0  0  0  0  0  2  0  0  0  0  0  0
  187.1420  177.8820  135.0750 N   0  0  0  0  0  1  0  0  0  0  0  0
  190.0260  176.7380  134.9310 C   0  0  0  0  0  1  0  0  0  0  0  0
  188.9740  177.6280  145.0340 C   0  0  0  0  0  1  0  0  0  0  0  0
  189.7810  176.7200  144.1070 C   0  0  2  0  0  3  0  0  0  0  0  0
  191.5370  178.3320  144.1330 C   0  0  0  0  0  1  0  0  0  0  0  0
  191.5780  176.6060  145.6620 C   0  0  0  0  0  1  0  0  0  0  0  0
  191.2310  176.9150  144.2820 N   0  0  0  0  0  0  0  0  0  0  0  0
  184.2370  174.4400  135.9080 C   0  0  0  0  0  2  0  0  0  0  0  0
  183.7890  173.1680  136.6170 C   0  0  0  0  0  2  0  0  0  0  0  0
  184.9440  172.4180  137.1000 N   0  0  0  0  0  0  0  0  0  0  0  0
  185.3360  172.9630  138.2780 O   0  0  0  0  0  1  0  0  0  0  0  0
  187.4020  172.7330  136.8050 C   0  0  0  0  0  1  0  0  0  0  0  0
  186.0380  172.5500  136.1360 C   0  0  0  0  0  2  0  0  0  0  0  0
  182.4990  175.2610  137.5100 C   0  0  0  0  0  2  0  0  0  0  0  0
  181.1040  175.5950  137.0740 C   0  0  0  0  0  3  0  0  0  0  0  0
  180.2390  176.2110  137.8700 C   0  0  0  0  0  3  0  0  0  0  0  0
  180.5730  176.5530  139.2170 N   0  0  0  0  0  2  0  0  0  0  0  0
  180.7930  177.9090  139.6190 C   0  0  0  0  0  0  0  0  0  0  0  0
  180.8640  178.8290  138.7550 O   0  0  0  0  0  0  0  0  0  0  0  0
  180.9350  178.2330  141.0430 C   0  0  0  0  0  0  0  0  0  0  0  0
  180.4590  178.5730  143.0800 C   0  0  1  0  0  3  0  0  0  0  0  0
  179.6910  178.7370  144.3470 C   0  0  0  0  0  1  0  0  0  0  0  0
  179.9090  178.1750  141.9200 N   0  0  0  0  0  0  0  0  0  0  0  0
  182.1010  178.6470  141.5920 N   0  0  0  0  0  0  0  0  0  0  0  0
  181.7950  178.8530  142.8810 C   0  0  0  0  0  0  0  0  0  0  0  0
  182.7820  179.3680  143.8870 C   0  0  0  0  0  2  0  0  0  0  0  0
  184.1580  178.8190  143.6510 C   0  0  0  0  0  3  0  0  0  0  0  0
  185.0190  178.5100  144.6320 C   0  0  0  0  0  3  0  0  0  0  0  0
  184.6920  178.6740  146.0830 C   0  0  0  0  0  2  0  0  0  0  0  0
  185.9750  178.7490  146.8890 C   0  0  0  0  0  1  0  0  0  0  0  0
  1 24  1  1  0  0  0
  1  3  1  0  0  0  0
  1 30  1  0  0  0  0
  2  4  1  0  0  0  0
  3  2  3  0  0  0  0
  5 11  1  0  0  0  0
  6  5  2  0  0  0  0
  7  4  1  0  0  0  0
  7  8  1  0  0  0  0
  8 16  1  0  0  0  0
  9  7  1  0  0  0  0
 10 12  1  0  0  0  0
 10  8  2  0  0  0  0
 11 15  1  0  0  0  0
 12  6  1  0  0  0  0
 13  9  2  0  0  0  0
 13 10  1  0  0  0  0
 14 15  2  0  0  0  0
 15 20  1  0  0  0  0
 16  5  1  0  0  0  0
 17  9  1  0  0  0  0
 18 13  1  0  0  0  0
 20 23  1  0  0  0  0
 20 19  1  1  0  0  0
 21 23  1  0  0  0  0
 23 22  1  0  0  0  0
 24 25  1  0  0  0  0
 25 26  1  0  0  0  0
 26 27  1  0  0  0  0
 29 28  1  0  0  0  0
 29 26  1  0  0  0  0
 31 30  1  0  0  0  0
 31 32  2  0  0  0  0
 32 33  1  0  0  0  0
 33 34  1  0  0  0  0
 34 36  1  0  0  0  0
 35 34  2  0  0  0  0
 36 40  1  0  0  0  0
 36 39  2  0  0  0  0
 37 38  1  6  0  0  0
 39 37  1  0  0  0  0
 40 41  2  0  0  0  0
 41 37  1  0  0  0  0
 41 42  1  0  0  0  0
 43 42  1  0  0  0  0
 43 44  2  0  0  0  0
 44 45  1  0  0  0  0
 45 46  1  0  0  0  0
M  END
>  <MODEL>
6

>  <REMARK>
 VINA RESULT:      -7.3      3.224      7.126
  Name = 
  16 active torsions:
  status: ('A' for Active; 'I' for Inactive)
    1  A    between atoms: N_2  and  C_28
    2  A    between atoms: N_2  and  C_45
    3  A    between atoms: C_3  and  C_19
    4  A    between atoms: C_4  and  C_27
    5  A    between atoms: C_5  and  C_25
    6  A    between atoms: N_9  and  C_14
    7  A    between atoms: N_12  and  C_46
    8  A    between atoms: C_13  and  C_15
    9  A    between atoms: C_17  and  C_46
   10  A    between atoms: C_18  and  C_20
   11  A    between atoms: C_18  and  C_28
   12  A    between atoms: C_19  and  C_20
   13  A    between atoms: C_20  and  C_41
   14  A    between atoms: C_21  and  N_34
   15  A    between atoms: C_21  and  C_38
   16  A    between atoms: C_27  and  C_32
                            x       y       z     vdW  Elec       q    Type
                         _______ _______ _______ _____ _____    ______ ____

>  <TORSDO>
F 16

$$$$
=
 OpenBabel11042412503D

 46 48  0  0  1  0  0  0  0  0999 V2000
  183.1500  175.9660  137.8710 C   0  0  1  0  0  3  0  0  0  0  0  0
  183.8770  177.7800  139.6980 C   0  0  0  0  0  0  0  0  0  0  0  0
  183.5290  176.9720  138.8730 C   0  0  0  0  0  0  0  0  0  0  0  0
  184.3400  178.7420  140.7040 C   0  0  0  0  0  2  0  0  0  0  0  0
  185.6130  178.4290  145.1040 C   0  0  0  0  0  0  0  0  0  0  0  0
  184.6020  178.6400  145.9110 N   0  0  0  0  0  0  0  0  0  0  0  0
  183.5290  178.6610  141.9140 N   0  0  0  0  0  0  0  0  0  0  0  0
  184.0010  178.5010  143.1660 C   0  0  0  0  0  0  0  0  0  0  0  0
  182.2170  178.9730  142.0500 C   0  0  0  0  0  0  0  0  0  0  0  0
  183.0030  178.6890  144.0720 C   0  0  0  0  0  0  0  0  0  0  0  0
  186.9170  178.2890  145.6850 N   0  0  0  0  0  2  0  0  0  0  0  0
  183.2720  178.7940  145.4630 N   0  0  0  0  0  2  0  0  0  0  0  0
  181.8490  178.9910  143.3900 C   0  0  0  0  0  0  0  0  0  0  0  0
  188.1650  177.8870  143.7350 O   0  0  0  0  0  0  0  0  0  0  0  0
  188.1420  178.0210  144.9890 C   0  0  0  0  0  0  0  0  0  0  0  0
  185.4300  178.3410  143.5850 C   0  0  0  0  0  2  0  0  0  0  0  0
  181.3760  179.3740  140.9740 N   0  0  0  0  0  1  0  0  0  0  0  0
  180.5470  179.4270  143.9670 C   0  0  0  0  0  1  0  0  0  0  0  0
  190.4450  177.1630  144.9080 C   0  0  0  0  0  1  0  0  0  0  0  0
  189.4100  177.8740  145.7800 C   0  0  2  0  0  3  0  0  0  0  0  0
  190.3350  176.3300  147.3430 C   0  0  0  0  0  1  0  0  0  0  0  0
  189.0950  178.1100  148.1260 C   0  0  0  0  0  1  0  0  0  0  0  0
  189.1670  177.1460  147.0370 N   0  0  0  0  0  0  0  0  0  0  0  0
  181.9310  176.4610  137.1000 C   0  0  0  0  0  2  0  0  0  0  0  0
  180.6330  175.9500  137.7120 C   0  0  0  0  0  2  0  0  0  0  0  0
  180.8790  174.7500  138.5050 N   0  0  0  0  0  0  0  0  0  0  0  0
  180.5480  173.6730  137.7510 O   0  0  0  0  0  1  0  0  0  0  0  0
  180.0090  176.1330  140.3920 C   0  0  0  0  0  1  0  0  0  0  0  0
  180.0190  174.7740  139.6890 C   0  0  0  0  0  2  0  0  0  0  0  0
  184.3130  175.7160  136.9150 C   0  0  0  0  0  2  0  0  0  0  0  0
  184.3610  176.7580  135.8390 C   0  0  0  0  0  3  0  0  0  0  0  0
  185.4870  177.3710  135.4930 C   0  0  0  0  0  3  0  0  0  0  0  0
  186.7200  177.1040  136.1630 N   0  0  0  0  0  2  0  0  0  0  0  0
  187.1600  177.8910  137.2760 C   0  0  0  0  0  0  0  0  0  0  0  0
  186.5490  178.9520  137.5890 O   0  0  0  0  0  0  0  0  0  0  0  0
  188.3260  177.4610  138.0580 C   0  0  0  0  0  0  0  0  0  0  0  0
  189.6230  177.1140  139.6960 C   0  0  1  0  0  3  0  0  0  0  0  0
  190.2010  177.1120  141.0700 C   0  0  0  0  0  1  0  0  0  0  0  0
  188.4030  177.5930  139.4000 N   0  0  0  0  0  0  0  0  0  0  0  0
  189.4330  176.9250  137.4960 N   0  0  0  0  0  0  0  0  0  0  0  0
  190.2470  176.7000  138.5370 C   0  0  0  0  0  0  0  0  0  0  0  0
  191.6320  176.1420  138.3920 C   0  0  0  0  0  2  0  0  0  0  0  0
  191.6420  174.8730  137.5930 C   0  0  0  0  0  3  0  0  0  0  0  0
  192.7320  174.3770  136.9870 C   0  0  0  0  0  3  0  0  0  0  0  0
  194.0710  175.0420  137.0520 C   0  0  0  0  0  2  0  0  0  0  0  0
  194.9120  174.3880  138.1320 C   0  0  0  0  0  1  0  0  0  0  0  0
  1 30  1  6  0  0  0
  1  3  1  0  0  0  0
  2  4  1  0  0  0  0
  3  2  3  0  0  0  0
  4  7  1  0  0  0  0
  5 11  1  0  0  0  0
  5  6  2  0  0  0  0
  7  9  1  0  0  0  0
  7  8  1  0  0  0  0
  8 16  1  0  0  0  0
  8 10  2  0  0  0  0
  9 13  2  0  0  0  0
 10 12  1  0  0  0  0
 12  6  1  0  0  0  0
 13 18  1  0  0  0  0
 13 10  1  0  0  0  0
 14 15  2  0  0  0  0
 15 11  1  0  0  0  0
 15 20  1  0  0  0  0
 16  5  1  0  0  0  0
 17  9  1  0  0  0  0
 20 19  1  6  0  0  0
 20 23  1  0  0  0  0
 23 21  1  0  0  0  0
 23 22  1  0  0  0  0
 24 25  1  0  0  0  0
 24  1  1  0  0  0  0
 25 26  1  0  0  0  0
 26 29  1  0  0  0  0
 27 26  1  0  0  0  0
 29 28  1  0  0  0  0
 31 30  1  0  0  0  0
 32 31  2  0  0  0  0
 32 33  1  0  0  0  0
 33 34  1  0  0  0  0
 34 35  2  0  0  0  0
 34 36  1  0  0  0  0
 36 39  2  0  0  0  0
 37 38  1  6  0  0  0
 39 37  1  0  0  0  0
 40 36  1  0  0  0  0
 40 41  2  0  0  0  0
 41 37  1  0  0  0  0
 42 41  1  0  0  0  0
 43 42  1  0  0  0  0
 44 45  1  0  0  0  0
 44 43  2  0  0  0  0
 45 46  1  0  0  0  0
M  END
>  <MODEL>
7

>  <REMARK>
 VINA RESULT:      -7.2      2.634      9.909
  Name = 
  16 active torsions:
  status: ('A' for Active; 'I' for Inactive)
    1  A    between atoms: N_2  and  C_28
    2  A    between atoms: N_2  and  C_45
    3  A    between atoms: C_3  and  C_19
    4  A    between atoms: C_4  and  C_27
    5  A    between atoms: C_5  and  C_25
    6  A    between atoms: N_9  and  C_14
    7  A    between atoms: N_12  and  C_46
    8  A    between atoms: C_13  and  C_15
    9  A    between atoms: C_17  and  C_46
   10  A    between atoms: C_18  and  C_20
   11  A    between atoms: C_18  and  C_28
   12  A    between atoms: C_19  and  C_20
   13  A    between atoms: C_20  and  C_41
   14  A    between atoms: C_21  and  N_34
   15  A    between atoms: C_21  and  C_38
   16  A    between atoms: C_27  and  C_32
                            x       y       z     vdW  Elec       q    Type
                         _______ _______ _______ _____ _____    ______ ____

>  <TORSDO>
F 16

$$$$
=
 OpenBabel11042412503D

 46 48  0  0  1  0  0  0  0  0999 V2000
  183.8390  178.4590  142.8930 C   0  0  1  0  0  3  0  0  0  0  0  0
  181.2070  178.7650  142.5220 C   0  0  0  0  0  0  0  0  0  0  0  0
  182.3950  178.6480  142.6970 C   0  0  0  0  0  0  0  0  0  0  0  0
  179.7620  178.8640  142.2920 C   0  0  0  0  0  2  0  0  0  0  0  0
  179.1660  179.6850  137.8140 C   0  0  0  0  0  0  0  0  0  0  0  0
  179.0380  178.5710  137.1360 N   0  0  0  0  0  0  0  0  0  0  0  0
  179.3440  177.9680  141.2190 N   0  0  0  0  0  0  0  0  0  0  0  0
  179.1310  178.3240  139.9370 C   0  0  0  0  0  0  0  0  0  0  0  0
  179.3350  176.6120  141.2320 C   0  0  0  0  0  0  0  0  0  0  0  0
  178.9710  177.2170  139.1620 C   0  0  0  0  0  0  0  0  0  0  0  0
  179.2450  180.9140  137.0780 N   0  0  0  0  0  2  0  0  0  0  0  0
  178.9490  177.2990  137.7430 N   0  0  0  0  0  2  0  0  0  0  0  0
  179.0940  176.1060  139.9600 C   0  0  0  0  0  0  0  0  0  0  0  0
  179.3910  182.4270  138.8690 O   0  0  0  0  0  0  0  0  0  0  0  0
  179.3510  182.2350  137.6230 C   0  0  0  0  0  0  0  0  0  0  0  0
  179.2390  179.6960  139.3450 C   0  0  0  0  0  2  0  0  0  0  0  0
  179.6760  175.8230  142.3670 N   0  0  0  0  0  1  0  0  0  0  0  0
  179.1490  174.6830  139.5260 C   0  0  0  0  0  1  0  0  0  0  0  0
  180.2100  183.0200  135.4570 C   0  0  0  0  0  1  0  0  0  0  0  0
  179.3880  183.4080  136.6850 C   0  0  2  0  0  3  0  0  0  0  0  0
  181.1830  184.9760  136.6940 C   0  0  0  0  0  1  0  0  0  0  0  0
  179.0420  185.7220  137.1140 C   0  0  0  0  0  1  0  0  0  0  0  0
  179.9390  184.6000  137.3530 N   0  0  0  0  0  0  0  0  0  0  0  0
  184.5620  178.7300  141.5780 C   0  0  0  0  0  2  0  0  0  0  0  0
  186.0090  179.1490  141.8070 C   0  0  0  0  0  2  0  0  0  0  0  0
  186.9150  178.0460  141.5060 N   0  0  0  0  0  0  0  0  0  0  0  0
  187.3310  177.5110  142.6810 O   0  0  0  0  0  1  0  0  0  0  0  0
  188.2560  177.9400  139.4040 C   0  0  0  0  0  1  0  0  0  0  0  0
  188.0810  178.5650  140.7900 C   0  0  0  0  0  2  0  0  0  0  0  0
  184.3480  179.4040  143.9780 C   0  0  0  0  0  2  0  0  0  0  0  0
  183.8870  178.9660  145.3350 C   0  0  0  0  0  3  0  0  0  0  0  0
  184.7010  178.3890  146.2110 C   0  0  0  0  0  3  0  0  0  0  0  0
  186.0650  178.1070  145.8910 N   0  0  0  0  0  2  0  0  0  0  0  0
  187.0820  178.0570  146.8970 C   0  0  0  0  0  0  0  0  0  0  0  0
  186.8310  178.4300  148.0790 O   0  0  0  0  0  0  0  0  0  0  0  0
  188.4240  177.5700  146.5550 C   0  0  0  0  0  0  0  0  0  0  0  0
  190.3690  176.7520  146.7460 C   0  0  1  0  0  3  0  0  0  0  0  0
  191.6190  176.1930  147.3350 C   0  0  0  0  0  1  0  0  0  0  0  0
  189.2650  177.0260  147.4620 N   0  0  0  0  0  0  0  0  0  0  0  0
  188.9420  177.6520  145.3080 N   0  0  0  0  0  0  0  0  0  0  0  0
  190.1690  177.1260  145.4330 C   0  0  0  0  0  0  0  0  0  0  0  0
  191.1480  177.0440  144.2990 C   0  0  0  0  0  2  0  0  0  0  0  0
  190.6730  176.1190  143.2180 C   0  0  0  0  0  3  0  0  0  0  0  0
  190.8830  176.3260  141.9090 C   0  0  0  0  0  3  0  0  0  0  0  0
  191.6280  177.5120  141.3830 C   0  0  0  0  0  2  0  0  0  0  0  0
  191.8240  177.3680  139.8860 C   0  0  0  0  0  1  0  0  0  0  0  0
  1 24  1  6  0  0  0
  1 30  1  0  0  0  0
  2  3  3  0  0  0  0
  3  1  1  0  0  0  0
  4  2  1  0  0  0  0
  5 16  1  0  0  0  0
  6 12  1  0  0  0  0
  6  5  2  0  0  0  0
  7  9  1  0  0  0  0
  7  4  1  0  0  0  0
  8  7  1  0  0  0  0
  9 17  1  0  0  0  0
 10  8  2  0  0  0  0
 10 13  1  0  0  0  0
 11 15  1  0  0  0  0
 11  5  1  0  0  0  0
 12 10  1  0  0  0  0
 13  9  2  0  0  0  0
 15 14  2  0  0  0  0
 16  8  1  0  0  0  0
 18 13  1  0  0  0  0
 20 19  1  6  0  0  0
 20 23  1  0  0  0  0
 20 15  1  0  0  0  0
 21 23  1  0  0  0  0
 22 23  1  0  0  0  0
 24 25  1  0  0  0  0
 26 25  1  0  0  0  0
 26 27  1  0  0  0  0
 28 29  1  0  0  0  0
 29 26  1  0  0  0  0
 30 31  1  0  0  0  0
 31 32  2  0  0  0  0
 33 32  1  0  0  0  0
 33 34  1  0  0  0  0
 34 35  2  0  0  0  0
 36 34  1  0  0  0  0
 36 39  2  0  0  0  0
 37 38  1  1  0  0  0
 37 39  1  0  0  0  0
 40 41  2  0  0  0  0
 40 36  1  0  0  0  0
 41 37  1  0  0  0  0
 42 41  1  0  0  0  0
 43 42  1  0  0  0  0
 44 43  2  0  0  0  0
 45 44  1  0  0  0  0
 46 45  1  0  0  0  0
M  END
>  <MODEL>
8

>  <REMARK>
 VINA RESULT:      -7.1      4.017     10.771
  Name = 
  16 active torsions:
  status: ('A' for Active; 'I' for Inactive)
    1  A    between atoms: N_2  and  C_28
    2  A    between atoms: N_2  and  C_45
    3  A    between atoms: C_3  and  C_19
    4  A    between atoms: C_4  and  C_27
    5  A    between atoms: C_5  and  C_25
    6  A    between atoms: N_9  and  C_14
    7  A    between atoms: N_12  and  C_46
    8  A    between atoms: C_13  and  C_15
    9  A    between atoms: C_17  and  C_46
   10  A    between atoms: C_18  and  C_20
   11  A    between atoms: C_18  and  C_28
   12  A    between atoms: C_19  and  C_20
   13  A    between atoms: C_20  and  C_41
   14  A    between atoms: C_21  and  N_34
   15  A    between atoms: C_21  and  C_38
   16  A    between atoms: C_27  and  C_32
                            x       y       z     vdW  Elec       q    Type
                         _______ _______ _______ _____ _____    ______ ____

>  <TORSDO>
F 16

$$$$
=
 OpenBabel11042412503D

 46 48  0  0  1  0  0  0  0  0999 V2000
  185.6710  178.8800  140.5260 C   0  0  1  0  0  3  0  0  0  0  0  0
  185.7960  177.8830  138.0460 C   0  0  0  0  0  0  0  0  0  0  0  0
  185.7290  178.3150  139.1710 C   0  0  0  0  0  0  0  0  0  0  0  0
  185.8980  177.3990  136.6650 C   0  0  0  0  0  2  0  0  0  0  0  0
  188.9960  174.0530  137.2020 C   0  0  0  0  0  0  0  0  0  0  0  0
  188.4200  172.8840  137.3390 N   0  0  0  0  0  0  0  0  0  0  0  0
  185.7360  175.9500  136.6100 N   0  0  0  0  0  0  0  0  0  0  0  0
  186.7300  175.0440  136.7140 C   0  0  0  0  0  0  0  0  0  0  0  0
  184.5820  175.2440  136.6980 C   0  0  0  0  0  0  0  0  0  0  0  0
  186.2120  173.7920  136.8440 C   0  0  0  0  0  0  0  0  0  0  0  0
  190.4180  174.1250  137.3790 N   0  0  0  0  0  2  0  0  0  0  0  0
  187.0300  172.6820  137.1890 N   0  0  0  0  0  2  0  0  0  0  0  0
  184.8420  173.8860  136.8370 C   0  0  0  0  0  0  0  0  0  0  0  0
  190.7450  176.4090  136.9400 O   0  0  0  0  0  0  0  0  0  0  0  0
  191.2420  175.2900  137.2410 C   0  0  0  0  0  0  0  0  0  0  0  0
  188.1940  175.3160  136.8710 C   0  0  0  0  0  2  0  0  0  0  0  0
  183.2900  175.8350  136.7880 N   0  0  0  0  0  1  0  0  0  0  0  0
  183.8610  172.7980  137.1090 C   0  0  0  0  0  1  0  0  0  0  0  0
  193.2380  176.4250  138.1210 C   0  0  0  0  0  1  0  0  0  0  0  0
  192.7260  175.1580  137.4350 C   0  0  2  0  0  3  0  0  0  0  0  0
  194.6850  175.6210  136.1600 C   0  0  0  0  0  1  0  0  0  0  0  0
  193.7580  173.5120  136.0640 C   0  0  0  0  0  1  0  0  0  0  0  0
  193.4070  174.9230  136.1510 N   0  0  0  0  0  0  0  0  0  0  0  0
  184.5110  178.2440  141.2850 C   0  0  0  0  0  2  0  0  0  0  0  0
  183.1950  178.9550  141.0000 C   0  0  0  0  0  2  0  0  0  0  0  0
  182.1950  178.0080  140.5190 N   0  0  0  0  0  0  0  0  0  0  0  0
  182.1970  178.0470  139.1630 O   0  0  0  0  0  1  0  0  0  0  0  0
  180.8280  178.6360  142.5100 C   0  0  0  0  0  1  0  0  0  0  0  0
  180.8740  178.4210  140.9960 C   0  0  0  0  0  2  0  0  0  0  0  0
  186.9850  178.6220  141.2570 C   0  0  0  0  0  2  0  0  0  0  0  0
  188.0470  178.1520  140.3100 C   0  0  0  0  0  3  0  0  0  0  0  0
  189.1060  177.4610  140.7150 C   0  0  0  0  0  3  0  0  0  0  0  0
  189.3200  177.1620  142.0960 N   0  0  0  0  0  2  0  0  0  0  0  0
  190.5450  177.4930  142.7590 C   0  0  0  0  0  0  0  0  0  0  0  0
  191.5400  177.9050  142.0960 O   0  0  0  0  0  0  0  0  0  0  0  0
  190.6480  177.3520  144.2170 C   0  0  0  0  0  0  0  0  0  0  0  0
  191.3080  176.7210  146.1280 C   0  0  1  0  0  3  0  0  0  0  0  0
  192.0470  176.0050  147.2060 C   0  0  0  0  0  1  0  0  0  0  0  0
  191.5930  176.5980  144.8200 N   0  0  0  0  0  0  0  0  0  0  0  0
  189.7850  177.9410  145.0770 N   0  0  0  0  0  0  0  0  0  0  0  0
  190.2130  177.5450  146.2840 C   0  0  0  0  0  0  0  0  0  0  0  0
  189.5250  177.9220  147.5630 C   0  0  0  0  0  2  0  0  0  0  0  0
  188.3270  177.0580  147.8280 C   0  0  0  0  0  3  0  0  0  0  0  0
  187.0750  177.3860  147.4740 C   0  0  0  0  0  3  0  0  0  0  0  0
  186.7390  178.6580  146.7610 C   0  0  0  0  0  2  0  0  0  0  0  0
  185.3220  178.5810  146.2250 C   0  0  0  0  0  1  0  0  0  0  0  0
  1  3  1  6  0  0  0
  1 30  1  0  0  0  0
  1 24  1  0  0  0  0
  2  3  3  0  0  0  0
  4  2  1  0  0  0  0
  5  6  2  0  0  0  0
  5 11  1  0  0  0  0
  7  4  1  0  0  0  0
  7  9  1  0  0  0  0
  7  8  1  0  0  0  0
  8 10  2  0  0  0  0
  8 16  1  0  0  0  0
  9 17  1  0  0  0  0
  9 13  2  0  0  0  0
 10 12  1  0  0  0  0
 12  6  1  0  0  0  0
 13 10  1  0  0  0  0
 13 18  1  0  0  0  0
 14 15  2  0  0  0  0
 15 11  1  0  0  0  0
 15 20  1  0  0  0  0
 16  5  1  0  0  0  0
 20 19  1  6  0  0  0
 22 23  1  0  0  0  0
 23 21  1  0  0  0  0
 23 20  1  0  0  0  0
 25 24  1  0  0  0  0
 26 29  1  0  0  0  0
 26 25  1  0  0  0  0
 27 26  1  0  0  0  0
 29 28  1  0  0  0  0
 31 32  2  0  0  0  0
 31 30  1  0  0  0  0
 32 33  1  0  0  0  0
 33 34  1  0  0  0  0
 34 36  1  0  0  0  0
 35 34  2  0  0  0  0
 36 39  2  0  0  0  0
 36 40  1  0  0  0  0
 37 41  1  0  0  0  0
 37 38  1  6  0  0  0
 39 37  1  0  0  0  0
 40 41  2  0  0  0  0
 41 42  1  0  0  0  0
 42 43  1  0  0  0  0
 44 43  2  0  0  0  0
 45 44  1  0  0  0  0
 46 45  1  0  0  0  0
M  END
>  <MODEL>
9

>  <REMARK>
 VINA RESULT:      -7.1      2.424      6.974
  Name = 
  16 active torsions:
  status: ('A' for Active; 'I' for Inactive)
    1  A    between atoms: N_2  and  C_28
    2  A    between atoms: N_2  and  C_45
    3  A    between atoms: C_3  and  C_19
    4  A    between atoms: C_4  and  C_27
    5  A    between atoms: C_5  and  C_25
    6  A    between atoms: N_9  and  C_14
    7  A    between atoms: N_12  and  C_46
    8  A    between atoms: C_13  and  C_15
    9  A    between atoms: C_17  and  C_46
   10  A    between atoms: C_18  and  C_20
   11  A    between atoms: C_18  and  C_28
   12  A    between atoms: C_19  and  C_20
   13  A    between atoms: C_20  and  C_41
   14  A    between atoms: C_21  and  N_34
   15  A    between atoms: C_21  and  C_38
   16  A    between atoms: C_27  and  C_32
                            x       y       z     vdW  Elec       q    Type
                         _______ _______ _______ _____ _____    ______ ____

>  <TORSDO>
F 16

$$$$
