=
 OpenBabel11032420133D

 36 39  0  0  1  0  0  0  0  0999 V2000
  184.7030  178.4020  138.6010 C   0  0  0  0  0  0  0  0  0  0  0  0
  181.6790  179.1730  139.2960 C   0  0  2  0  0  3  0  0  0  0  0  0
  186.6060  174.7820  135.9370 O   0  0  0  0  0  0  0  0  0  0  0  0
  182.8540  180.0690  138.9030 C   0  0  0  0  0  2  0  0  0  0  0  0
  184.8940  176.3700  137.5530 C   0  0  0  0  0  2  0  0  0  0  0  0
  181.6450  177.8840  138.4620 C   0  0  1  0  0  3  0  0  0  0  0  0
  185.9700  178.3990  137.9650 N   0  0  0  0  0  0  0  0  0  0  0  0
  182.7120  176.9080  138.9400 C   0  0  0  0  0  2  0  0  0  0  0  0
  187.4880  175.6840  135.9350 C   0  0  0  0  0  0  0  0  0  0  0  0
  186.0870  177.2580  137.3710 C   0  0  0  0  0  0  0  0  0  0  0  0
  184.2060  179.5630  139.4110 C   0  0  1  0  0  3  0  0  0  0  0  0
  180.4150  177.2610  138.5780 F   0  0  0  0  0  0  0  0  0  0  0  0
  184.0560  177.2640  138.3940 C   0  0  0  0  0  0  0  0  0  0  0  0
  187.2630  176.9190  136.6300 N   0  0  0  0  0  2  0  0  0  0  0  0
  188.7230  175.4730  135.2340 N   0  0  0  0  0  0  0  0  0  0  0  0
  189.0060  174.1890  134.6130 C   0  0  0  0  0  1  0  0  0  0  0  0
  186.3650  179.7120  141.2720 O   0  0  0  0  0  0  0  0  0  0  0  0
  185.2640  179.2790  141.7070 C   0  0  0  0  0  0  0  0  0  0  0  0
  184.1360  179.2250  140.8290 N   0  0  0  0  0  2  0  0  0  0  0  0
  184.8880  178.5500  145.8800 C   0  0  0  0  0  0  0  0  0  0  0  0
  186.6320  178.3570  147.1650 C   0  0  0  0  0  3  0  0  0  0  0  0
  185.1540  178.8710  143.1330 C   0  0  0  0  0  0  0  0  0  0  0  0
  186.9420  177.5960  146.1210 C   0  0  0  0  0  3  0  0  0  0  0  0
  183.9690  179.3810  143.8860 C   0  0  0  0  0  3  0  0  0  0  0  0
  185.7840  177.6000  145.1770 C   0  0  2  0  0  3  0  0  0  0  0  0
  185.3600  178.9720  147.0010 N   0  0  0  0  0  0  0  0  0  0  0  0
  183.8640  179.2460  145.1760 N   0  0  0  0  0  0  0  0  0  0  0  0
  187.3190  177.6000  143.1160 C   0  0  0  0  0  1  0  0  0  0  0  0
  186.0790  178.1080  143.7830 C   0  0  0  0  0  0  0  0  0  0  0  0
  190.7810  176.2100  136.3180 C   0  0  0  0  0  1  0  0  0  0  0  0
  189.7680  176.4870  135.2220 C   0  0  0  0  0  2  0  0  0  0  0  0
  180.3960  179.9750  139.1220 C   0  0  0  0  0  2  0  0  0  0  0  0
  179.9120  180.4800  140.4430 C   0  0  0  0  0  0  0  0  0  0  0  0
  179.3980  181.5860  140.5250 O   0  0  0  0  0  0  0  0  0  0  0  0
  180.0180  179.6140  141.6530 C   0  0  0  0  0  2  0  0  0  0  0  0
  180.2260  180.4370  142.8320 N   0  0  0  0  0  1  0  0  0  0  0  0
  1 11  1  0  0  0  0
  2 32  1  6  0  0  0
  4  2  1  0  0  0  0
  4 11  1  0  0  0  0
  5 13  1  0  0  0  0
  6 12  1  1  0  0  0
  6  8  1  0  0  0  0
  6  2  1  0  0  0  0
  7  1  1  0  0  0  0
  9  3  2  0  0  0  0
  9 14  1  0  0  0  0
 10  5  1  0  0  0  0
 10  7  2  0  0  0  0
 11 19  1  1  0  0  0
 13  1  2  0  0  0  0
 13  8  1  0  0  0  0
 14 10  1  0  0  0  0
 15  9  1  0  0  0  0
 16 15  1  0  0  0  0
 17 18  2  0  0  0  0
 18 22  1  0  0  0  0
 19 18  1  0  0  0  0
 20 26  2  0  0  0  0
 22 29  2  0  0  0  0
 22 24  1  0  0  0  0
 23 21  2  0  0  0  0
 24 27  2  0  0  0  0
 25 20  1  0  0  0  0
 25 23  1  1  0  0  0
 26 21  1  0  0  0  0
 27 20  1  0  0  0  0
 28 29  1  0  0  0  0
 29 25  1  0  0  0  0
 31 15  1  0  0  0  0
 31 30  1  0  0  0  0
 32 33  1  0  0  0  0
 33 34  2  0  0  0  0
 33 35  1  0  0  0  0
 35 36  1  0  0  0  0
M  END
>  <MODEL>
1

>  <REMARK>
 VINA RESULT:      -8.5      0.000      0.000
  Name = 
  6 active torsions:
  status: ('A' for Active; 'I' for Inactive)
    1  A    between atoms: C_4  and  C_11
    2  A    between atoms: C_5  and  C_21
    3  A    between atoms: C_6  and  C_27
    4  A    between atoms: C_11  and  C_21
    5  A    between atoms: C_28  and  N_34
    6  A    between atoms: N_29  and  C_30
                            x       y       z     vdW  Elec       q    Type
                         _______ _______ _______ _____ _____    ______ ____

>  <TORSDO>
F 6

$$$$
=
 OpenBabel11032420133D

 36 39  0  0  1  0  0  0  0  0999 V2000
  190.6530  176.4500  138.1330 C   0  0  0  0  0  0  0  0  0  0  0  0
  187.5880  177.1790  137.5880 C   0  0  2  0  0  3  0  0  0  0  0  0
  193.5010  172.8770  136.4160 O   0  0  0  0  0  0  0  0  0  0  0  0
  188.8100  178.0920  137.6920 C   0  0  0  0  0  2  0  0  0  0  0  0
  191.2700  174.4300  137.2360 C   0  0  0  0  0  2  0  0  0  0  0  0
  187.9040  175.8980  136.8020 C   0  0  1  0  0  3  0  0  0  0  0  0
  192.0680  176.4680  138.0460 N   0  0  0  0  0  0  0  0  0  0  0  0
  188.7110  174.9300  137.6570 C   0  0  0  0  0  2  0  0  0  0  0  0
  194.3000  173.7890  136.7640 C   0  0  0  0  0  0  0  0  0  0  0  0
  192.4250  175.3340  137.5410 C   0  0  0  0  0  0  0  0  0  0  0  0
  189.8620  177.5970  138.6870 C   0  0  1  0  0  3  0  0  0  0  0  0
  186.7350  175.2590  136.4230 F   0  0  0  0  0  0  0  0  0  0  0  0
  190.1550  175.3070  137.6840 C   0  0  0  0  0  0  0  0  0  0  0  0
  193.8020  175.0150  137.3200 N   0  0  0  0  0  2  0  0  0  0  0  0
  195.7140  173.5990  136.6040 N   0  0  0  0  0  0  0  0  0  0  0  0
  196.2370  172.3240  136.1380 C   0  0  0  0  0  1  0  0  0  0  0  0
  188.6420  179.4220  140.5120 O   0  0  0  0  0  0  0  0  0  0  0  0
  188.6840  178.2100  140.8570 C   0  0  0  0  0  0  0  0  0  0  0  0
  189.2450  177.2450  139.9620 N   0  0  0  0  0  2  0  0  0  0  0  0
  186.8550  177.4610  144.6230 C   0  0  0  0  0  0  0  0  0  0  0  0
  187.9150  177.7970  146.4930 C   0  0  0  0  0  3  0  0  0  0  0  0
  188.1170  177.8070  142.1720 C   0  0  0  0  0  0  0  0  0  0  0  0
  188.8070  177.1440  145.7550 C   0  0  0  0  0  3  0  0  0  0  0  0
  186.6410  177.9640  142.3400 C   0  0  0  0  0  3  0  0  0  0  0  0
  188.1710  176.8010  144.4460 C   0  0  2  0  0  3  0  0  0  0  0  0
  186.7060  178.0160  145.7750 N   0  0  0  0  0  0  0  0  0  0  0  0
  186.0620  177.8220  143.4970 N   0  0  0  0  0  0  0  0  0  0  0  0
  190.3510  177.2150  143.1510 C   0  0  0  0  0  1  0  0  0  0  0  0
  188.8630  177.3530  143.2200 C   0  0  0  0  0  0  0  0  0  0  0  0
  197.2390  175.3190  135.7850 C   0  0  0  0  0  1  0  0  0  0  0  0
  196.6650  174.6250  137.0070 C   0  0  0  0  0  2  0  0  0  0  0  0
  186.4650  177.9680  136.9280 C   0  0  0  0  0  2  0  0  0  0  0  0
  185.2470  177.9690  137.7940 C   0  0  0  0  0  0  0  0  0  0  0  0
  184.2180  177.4390  137.4050 O   0  0  0  0  0  0  0  0  0  0  0  0
  185.3050  178.5820  139.1530 C   0  0  0  0  0  2  0  0  0  0  0  0
  184.5420  179.8180  139.1690 N   0  0  0  0  0  1  0  0  0  0  0  0
  1 11  1  0  0  0  0
  2 32  1  6  0  0  0
  2  4  1  0  0  0  0
  3  9  2  0  0  0  0
  4 11  1  0  0  0  0
  5 10  1  0  0  0  0
  5 13  1  0  0  0  0
  6 12  1  1  0  0  0
  6  2  1  0  0  0  0
  6  8  1  0  0  0  0
  7  1  1  0  0  0  0
  8 13  1  0  0  0  0
  9 14  1  0  0  0  0
 10  7  2  0  0  0  0
 11 19  1  1  0  0  0
 13  1  2  0  0  0  0
 14 10  1  0  0  0  0
 15  9  1  0  0  0  0
 15 31  1  0  0  0  0
 16 15  1  0  0  0  0
 17 18  2  0  0  0  0
 18 22  1  0  0  0  0
 19 18  1  0  0  0  0
 20 26  2  0  0  0  0
 22 24  1  0  0  0  0
 22 29  2  0  0  0  0
 23 21  2  0  0  0  0
 24 27  2  0  0  0  0
 25 20  1  0  0  0  0
 25 23  1  1  0  0  0
 26 21  1  0  0  0  0
 27 20  1  0  0  0  0
 28 29  1  0  0  0  0
 29 25  1  0  0  0  0
 30 31  1  0  0  0  0
 32 33  1  0  0  0  0
 33 35  1  0  0  0  0
 34 33  2  0  0  0  0
 35 36  1  0  0  0  0
M  END
>  <MODEL>
2

>  <REMARK>
 VINA RESULT:      -7.8      3.637      5.660
  Name = 
  6 active torsions:
  status: ('A' for Active; 'I' for Inactive)
    1  A    between atoms: C_4  and  C_11
    2  A    between atoms: C_5  and  C_21
    3  A    between atoms: C_6  and  C_27
    4  A    between atoms: C_11  and  C_21
    5  A    between atoms: C_28  and  N_34
    6  A    between atoms: N_29  and  C_30
                            x       y       z     vdW  Elec       q    Type
                         _______ _______ _______ _____ _____    ______ ____

>  <TORSDO>
F 6

$$$$
=
 OpenBabel11032420133D

 36 39  0  0  1  0  0  0  0  0999 V2000
  186.7040  178.6280  141.3800 C   0  0  0  0  0  0  0  0  0  0  0  0
  189.3700  178.1730  143.0850 C   0  0  2  0  0  3  0  0  0  0  0  0
  181.9850  178.1570  142.5360 O   0  0  0  0  0  0  0  0  0  0  0  0
  189.0110  179.2910  142.1060 C   0  0  0  0  0  2  0  0  0  0  0  0
  184.8130  177.9070  142.4600 C   0  0  0  0  0  2  0  0  0  0  0  0
  188.1810  177.8010  143.9820 C   0  0  1  0  0  3  0  0  0  0  0  0
  185.6130  179.2810  140.7520 N   0  0  0  0  0  0  0  0  0  0  0  0
  187.1660  176.9700  143.2090 C   0  0  0  0  0  2  0  0  0  0  0  0
  182.0020  178.9660  141.5680 C   0  0  0  0  0  0  0  0  0  0  0  0
  184.5430  178.8810  141.3550 C   0  0  0  0  0  0  0  0  0  0  0  0
  188.1250  178.8290  140.9460 C   0  0  1  0  0  3  0  0  0  0  0  0
  188.6050  177.0540  145.0670 F   0  0  0  0  0  0  0  0  0  0  0  0
  186.2940  177.8340  142.3580 C   0  0  0  0  0  0  0  0  0  0  0  0
  183.2470  179.3460  140.9630 N   0  0  0  0  0  2  0  0  0  0  0  0
  180.7700  179.5070  141.0670 N   0  0  0  0  0  0  0  0  0  0  0  0
  179.4960  179.0520  141.6020 C   0  0  0  0  0  1  0  0  0  0  0  0
  189.2420  178.6480  138.3260 O   0  0  0  0  0  0  0  0  0  0  0  0
  189.1750  177.5810  138.9940 C   0  0  0  0  0  0  0  0  0  0  0  0
  188.6650  177.6220  140.3300 N   0  0  0  0  0  2  0  0  0  0  0  0
  190.9270  174.1880  137.1220 C   0  0  0  0  0  0  0  0  0  0  0  0
  190.3300  173.5500  135.1300 C   0  0  0  0  0  3  0  0  0  0  0  0
  189.6630  176.3120  138.3900 C   0  0  0  0  0  0  0  0  0  0  0  0
  189.1680  173.7720  135.7350 C   0  0  0  0  0  3  0  0  0  0  0  0
  191.0740  175.9260  138.6920 C   0  0  0  0  0  3  0  0  0  0  0  0
  189.4440  174.1670  137.1500 C   0  0  2  0  0  3  0  0  0  0  0  0
  191.4270  173.8350  135.9890 N   0  0  0  0  0  0  0  0  0  0  0  0
  191.6650  174.9440  138.0760 N   0  0  0  0  0  0  0  0  0  0  0  0
  187.5150  175.8640  137.1700 C   0  0  0  0  0  1  0  0  0  0  0  0
  188.9190  175.5240  137.5620 C   0  0  0  0  0  0  0  0  0  0  0  0
  179.5730  181.3790  140.0610 C   0  0  0  0  0  1  0  0  0  0  0  0
  180.7520  180.4310  139.9430 C   0  0  0  0  0  2  0  0  0  0  0  0
  190.5620  178.6350  143.9120 C   0  0  0  0  0  2  0  0  0  0  0  0
  191.3730  177.4640  144.3620 C   0  0  0  0  0  0  0  0  0  0  0  0
  191.8360  177.4370  145.4920 O   0  0  0  0  0  0  0  0  0  0  0  0
  191.5800  176.3080  143.4420 C   0  0  0  0  0  2  0  0  0  0  0  0
  192.0000  175.1430  144.2000 N   0  0  0  0  0  1  0  0  0  0  0  0
  1 13  2  0  0  0  0
  2 32  1  1  0  0  0
  2  6  1  0  0  0  0
  4  2  1  0  0  0  0
  6 12  1  1  0  0  0
  7 10  2  0  0  0  0
  7  1  1  0  0  0  0
  8  6  1  0  0  0  0
  9  3  2  0  0  0  0
 10  5  1  0  0  0  0
 11 19  1  1  0  0  0
 11  1  1  0  0  0  0
 11  4  1  0  0  0  0
 13  5  1  0  0  0  0
 13  8  1  0  0  0  0
 14 10  1  0  0  0  0
 14  9  1  0  0  0  0
 15  9  1  0  0  0  0
 15 16  1  0  0  0  0
 17 18  2  0  0  0  0
 18 19  1  0  0  0  0
 20 25  1  0  0  0  0
 20 27  1  0  0  0  0
 21 23  2  0  0  0  0
 21 26  1  0  0  0  0
 22 24  1  0  0  0  0
 22 18  1  0  0  0  0
 25 23  1  6  0  0  0
 25 29  1  0  0  0  0
 26 20  2  0  0  0  0
 27 24  2  0  0  0  0
 28 29  1  0  0  0  0
 29 22  2  0  0  0  0
 31 30  1  0  0  0  0
 31 15  1  0  0  0  0
 32 33  1  0  0  0  0
 33 34  2  0  0  0  0
 35 36  1  0  0  0  0
 35 33  1  0  0  0  0
M  END
>  <MODEL>
3

>  <REMARK>
 VINA RESULT:      -7.3      3.520      9.342
  Name = 
  6 active torsions:
  status: ('A' for Active; 'I' for Inactive)
    1  A    between atoms: C_4  and  C_11
    2  A    between atoms: C_5  and  C_21
    3  A    between atoms: C_6  and  C_27
    4  A    between atoms: C_11  and  C_21
    5  A    between atoms: C_28  and  N_34
    6  A    between atoms: N_29  and  C_30
                            x       y       z     vdW  Elec       q    Type
                         _______ _______ _______ _____ _____    ______ ____

>  <TORSDO>
F 6

$$$$
=
 OpenBabel11032420133D

 36 39  0  0  1  0  0  0  0  0999 V2000
  188.6480  176.9010  137.2010 C   0  0  0  0  0  0  0  0  0  0  0  0
  185.4580  176.8680  136.9890 C   0  0  2  0  0  3  0  0  0  0  0  0
  192.0430  173.7650  135.6290 O   0  0  0  0  0  0  0  0  0  0  0  0
  186.4420  178.0210  136.7910 C   0  0  0  0  0  2  0  0  0  0  0  0
  189.6130  174.9320  136.5220 C   0  0  0  0  0  2  0  0  0  0  0  0
  185.9740  175.5680  136.3580 C   0  0  1  0  0  3  0  0  0  0  0  0
  190.0040  177.1990  136.9150 N   0  0  0  0  0  0  0  0  0  0  0  0
  187.0660  174.9490  137.2200 C   0  0  0  0  0  2  0  0  0  0  0  0
  192.6430  174.8700  135.7280 C   0  0  0  0  0  0  0  0  0  0  0  0
  190.5560  176.0960  136.5320 C   0  0  0  0  0  0  0  0  0  0  0  0
  187.6770  177.9330  137.6910 C   0  0  1  0  0  3  0  0  0  0  0  0
  184.9500  174.6430  136.2410 F   0  0  0  0  0  0  0  0  0  0  0  0
  188.3810  175.6190  136.9920 C   0  0  0  0  0  0  0  0  0  0  0  0
  191.9390  176.0400  136.1690 N   0  0  0  0  0  2  0  0  0  0  0  0
  194.0390  174.9560  135.4010 N   0  0  0  0  0  0  0  0  0  0  0  0
  194.7870  173.7590  135.0530 C   0  0  0  0  0  1  0  0  0  0  0  0
  188.9100  179.0760  139.9970 O   0  0  0  0  0  0  0  0  0  0  0  0
  187.9770  178.2520  140.1960 C   0  0  0  0  0  0  0  0  0  0  0  0
  187.2940  177.6820  139.0760 N   0  0  0  0  0  2  0  0  0  0  0  0
  186.7530  177.7430  144.2380 C   0  0  0  0  0  0  0  0  0  0  0  0
  188.1900  177.7200  145.8700 C   0  0  0  0  0  3  0  0  0  0  0  0
  187.5840  177.9210  141.5920 C   0  0  0  0  0  0  0  0  0  0  0  0
  188.7480  176.9190  144.9680 C   0  0  0  0  0  3  0  0  0  0  0  0
  186.2460  178.4070  142.0440 C   0  0  0  0  0  3  0  0  0  0  0  0
  187.8170  176.8050  143.8040 C   0  0  2  0  0  3  0  0  0  0  0  0
  186.9580  178.2530  145.4020 N   0  0  0  0  0  0  0  0  0  0  0  0
  185.8750  178.3400  143.2900 N   0  0  0  0  0  0  0  0  0  0  0  0
  189.7540  176.7720  142.1150 C   0  0  0  0  0  1  0  0  0  0  0  0
  188.3810  177.2480  142.4720 C   0  0  0  0  0  0  0  0  0  0  0  0
  196.2540  175.9750  135.3370 C   0  0  0  0  0  1  0  0  0  0  0  0
  194.7660  176.2110  135.5180 C   0  0  0  0  0  2  0  0  0  0  0  0
  184.1210  177.2810  136.3870 C   0  0  0  0  0  2  0  0  0  0  0  0
  183.1760  177.7180  137.4590 C   0  0  0  0  0  0  0  0  0  0  0  0
  183.6060  178.2090  138.4920 O   0  0  0  0  0  0  0  0  0  0  0  0
  181.7050  177.5940  137.2470 C   0  0  0  0  0  2  0  0  0  0  0  0
  181.3330  178.2250  135.9920 N   0  0  0  0  0  1  0  0  0  0  0  0
  1 11  1  0  0  0  0
  2 32  1  6  0  0  0
  3  9  2  0  0  0  0
  4  2  1  0  0  0  0
  4 11  1  0  0  0  0
  5 10  1  0  0  0  0
  5 13  1  0  0  0  0
  6 12  1  1  0  0  0
  6  2  1  0  0  0  0
  6  8  1  0  0  0  0
  7  1  1  0  0  0  0
  9 14  1  0  0  0  0
 10  7  2  0  0  0  0
 11 19  1  1  0  0  0
 13  1  2  0  0  0  0
 13  8  1  0  0  0  0
 14 10  1  0  0  0  0
 15 31  1  0  0  0  0
 15  9  1  0  0  0  0
 16 15  1  0  0  0  0
 17 18  2  0  0  0  0
 18 22  1  0  0  0  0
 19 18  1  0  0  0  0
 20 26  2  0  0  0  0
 22 24  1  0  0  0  0
 22 29  2  0  0  0  0
 23 21  2  0  0  0  0
 24 27  2  0  0  0  0
 25 20  1  0  0  0  0
 25 23  1  1  0  0  0
 26 21  1  0  0  0  0
 27 20  1  0  0  0  0
 28 29  1  0  0  0  0
 29 25  1  0  0  0  0
 30 31  1  0  0  0  0
 32 33  1  0  0  0  0
 33 34  2  0  0  0  0
 35 33  1  0  0  0  0
 36 35  1  0  0  0  0
M  END
>  <MODEL>
4

>  <REMARK>
 VINA RESULT:      -6.8      2.954      4.515
  Name = 
  6 active torsions:
  status: ('A' for Active; 'I' for Inactive)
    1  A    between atoms: C_4  and  C_11
    2  A    between atoms: C_5  and  C_21
    3  A    between atoms: C_6  and  C_27
    4  A    between atoms: C_11  and  C_21
    5  A    between atoms: C_28  and  N_34
    6  A    between atoms: N_29  and  C_30
                            x       y       z     vdW  Elec       q    Type
                         _______ _______ _______ _____ _____    ______ ____

>  <TORSDO>
F 6

$$$$
=
 OpenBabel11032420133D

 36 39  0  0  1  0  0  0  0  0999 V2000
  183.2560  178.3810  141.6430 C   0  0  0  0  0  0  0  0  0  0  0  0
  180.1610  178.0470  140.9130 C   0  0  2  0  0  3  0  0  0  0  0  0
  185.5870  178.5240  145.9290 O   0  0  0  0  0  0  0  0  0  0  0  0
  181.3940  177.4100  140.2720 C   0  0  0  0  0  2  0  0  0  0  0  0
  183.6200  178.6890  143.8880 C   0  0  0  0  0  2  0  0  0  0  0  0
  180.2710  178.0800  142.4430 C   0  0  1  0  0  3  0  0  0  0  0  0
  184.6180  178.0610  141.8740 N   0  0  0  0  0  0  0  0  0  0  0  0
  181.2260  179.1800  142.8890 C   0  0  0  0  0  2  0  0  0  0  0  0
  186.4610  178.1550  145.0980 C   0  0  0  0  0  0  0  0  0  0  0  0
  184.8320  178.2310  143.1360 C   0  0  0  0  0  0  0  0  0  0  0  0
  182.6270  178.3160  140.2830 C   0  0  1  0  0  3  0  0  0  0  0  0
  179.0360  178.3320  143.0150 F   0  0  0  0  0  0  0  0  0  0  0  0
  182.6490  178.7450  142.7640 C   0  0  0  0  0  0  0  0  0  0  0  0
  186.1220  177.9990  143.7120 N   0  0  0  0  0  2  0  0  0  0  0  0
  187.8020  177.8940  145.5390 N   0  0  0  0  0  0  0  0  0  0  0  0
  188.1840  178.1470  146.9190 C   0  0  0  0  0  1  0  0  0  0  0  0
  182.0550  179.0010  137.5720 O   0  0  0  0  0  0  0  0  0  0  0  0
  182.0590  179.9420  138.4110 C   0  0  0  0  0  0  0  0  0  0  0  0
  182.2970  179.6500  139.7910 N   0  0  0  0  0  2  0  0  0  0  0  0
  181.3180  184.0350  137.5260 C   0  0  0  0  0  0  0  0  0  0  0  0
  179.2950  184.8240  137.3870 C   0  0  0  0  0  3  0  0  0  0  0  0
  181.7810  181.3290  137.9510 C   0  0  0  0  0  0  0  0  0  0  0  0
  179.2300  183.7010  136.6790 C   0  0  0  0  0  3  0  0  0  0  0  0
  182.7540  182.3820  138.3710 C   0  0  0  0  0  3  0  0  0  0  0  0
  180.5910  183.0850  136.6510 C   0  0  2  0  0  3  0  0  0  0  0  0
  180.5930  185.0170  137.9360 N   0  0  0  0  0  0  0  0  0  0  0  0
  182.5180  183.6480  138.1880 N   0  0  0  0  0  0  0  0  0  0  0  0
  179.6390  180.7030  136.8010 C   0  0  0  0  0  1  0  0  0  0  0  0
  180.6860  181.6870  137.2190 C   0  0  0  0  0  0  0  0  0  0  0  0
  189.9430  176.7420  145.3370 C   0  0  0  0  0  1  0  0  0  0  0  0
  188.8380  177.4810  144.6040 C   0  0  0  0  0  2  0  0  0  0  0  0
  178.9370  177.2590  140.4650 C   0  0  0  0  0  2  0  0  0  0  0  0
  179.2540  175.8010  140.3860 C   0  0  0  0  0  0  0  0  0  0  0  0
  179.3900  175.1470  141.4090 O   0  0  0  0  0  0  0  0  0  0  0  0
  179.3600  175.1360  139.0550 C   0  0  0  0  0  2  0  0  0  0  0  0
  179.8320  173.7720  139.2210 N   0  0  0  0  0  1  0  0  0  0  0  0
  1  7  1  0  0  0  0
  1 13  2  0  0  0  0
  2 32  1  1  0  0  0
  2  6  1  0  0  0  0
  4 11  1  0  0  0  0
  4  2  1  0  0  0  0
  6  8  1  0  0  0  0
  6 12  1  1  0  0  0
  7 10  2  0  0  0  0
  9 15  1  0  0  0  0
  9  3  2  0  0  0  0
 10 14  1  0  0  0  0
 10  5  1  0  0  0  0
 11 19  1  1  0  0  0
 11  1  1  0  0  0  0
 13  8  1  0  0  0  0
 13  5  1  0  0  0  0
 14  9  1  0  0  0  0
 15 16  1  0  0  0  0
 17 18  2  0  0  0  0
 18 19  1  0  0  0  0
 20 26  2  0  0  0  0
 20 27  1  0  0  0  0
 21 26  1  0  0  0  0
 22 24  1  0  0  0  0
 22 18  1  0  0  0  0
 23 21  2  0  0  0  0
 25 23  1  1  0  0  0
 25 29  1  0  0  0  0
 25 20  1  0  0  0  0
 27 24  2  0  0  0  0
 28 29  1  0  0  0  0
 29 22  2  0  0  0  0
 31 30  1  0  0  0  0
 31 15  1  0  0  0  0
 33 32  1  0  0  0  0
 33 34  2  0  0  0  0
 35 36  1  0  0  0  0
 35 33  1  0  0  0  0
M  END
>  <MODEL>
5

>  <REMARK>
 VINA RESULT:      -6.3      4.271      7.925
  Name = 
  6 active torsions:
  status: ('A' for Active; 'I' for Inactive)
    1  A    between atoms: C_4  and  C_11
    2  A    between atoms: C_5  and  C_21
    3  A    between atoms: C_6  and  C_27
    4  A    between atoms: C_11  and  C_21
    5  A    between atoms: C_28  and  N_34
    6  A    between atoms: N_29  and  C_30
                            x       y       z     vdW  Elec       q    Type
                         _______ _______ _______ _____ _____    ______ ____

>  <TORSDO>
F 6

$$$$
=
 OpenBabel11032420133D

 36 39  0  0  1  0  0  0  0  0999 V2000
  186.1240  178.7820  141.9620 C   0  0  0  0  0  0  0  0  0  0  0  0
  189.1220  178.0940  142.8340 C   0  0  2  0  0  3  0  0  0  0  0  0
  181.8450  178.0900  144.2080 O   0  0  0  0  0  0  0  0  0  0  0  0
  188.5580  179.3480  142.1630 C   0  0  0  0  0  2  0  0  0  0  0  0
  184.5510  177.8820  143.3700 C   0  0  0  0  0  2  0  0  0  0  0  0
  188.1920  177.5760  143.9390 C   0  0  1  0  0  3  0  0  0  0  0  0
  184.9280  179.5130  141.7440 N   0  0  0  0  0  0  0  0  0  0  0  0
  186.9870  176.8650  143.3370 C   0  0  0  0  0  2  0  0  0  0  0  0
  181.6390  179.0390  143.4030 C   0  0  0  0  0  0  0  0  0  0  0  0
  184.0370  179.0130  142.5330 C   0  0  0  0  0  0  0  0  0  0  0  0
  187.3930  179.0620  141.2130 C   0  0  1  0  0  3  0  0  0  0  0  0
  188.8560  176.6740  144.7520 F   0  0  0  0  0  0  0  0  0  0  0  0
  185.9540  177.8410  142.8800 C   0  0  0  0  0  0  0  0  0  0  0  0
  182.6980  179.5200  142.5630 N   0  0  0  0  0  2  0  0  0  0  0  0
  180.3370  179.6380  143.3240 N   0  0  0  0  0  0  0  0  0  0  0  0
  179.2290  179.0930  144.0930 C   0  0  0  0  0  1  0  0  0  0  0  0
  188.7020  179.3270  138.6910 O   0  0  0  0  0  0  0  0  0  0  0  0
  188.3410  178.1670  139.0290 C   0  0  0  0  0  0  0  0  0  0  0  0
  187.7190  177.9700  140.3030 N   0  0  0  0  0  2  0  0  0  0  0  0
  188.7600  174.6870  136.6210 C   0  0  0  0  0  0  0  0  0  0  0  0
  190.2590  173.1710  137.0590 C   0  0  0  0  0  3  0  0  0  0  0  0
  188.6040  177.0260  138.1120 C   0  0  0  0  0  0  0  0  0  0  0  0
  190.9400  174.3070  137.1640 C   0  0  0  0  0  3  0  0  0  0  0  0
  187.4200  176.4440  137.4120 C   0  0  0  0  0  3  0  0  0  0  0  0
  190.0220  175.4380  136.8260 C   0  0  2  0  0  3  0  0  0  0  0  0
  188.8920  173.4120  136.7450 N   0  0  0  0  0  0  0  0  0  0  0  0
  187.4980  175.3350  136.7350 N   0  0  0  0  0  0  0  0  0  0  0  0
  191.0630  176.9630  138.6130 C   0  0  0  0  0  1  0  0  0  0  0  0
  189.8350  176.4720  137.9130 C   0  0  0  0  0  0  0  0  0  0  0  0
  179.4000  180.1870  141.1390 C   0  0  0  0  0  1  0  0  0  0  0  0
  180.0600  180.7250  142.3960 C   0  0  0  0  0  2  0  0  0  0  0  0
  190.4990  178.4350  143.3870 C   0  0  0  0  0  2  0  0  0  0  0  0
  191.4450  177.2970  143.1760 C   0  0  0  0  0  0  0  0  0  0  0  0
  191.9790  177.1380  142.0900 O   0  0  0  0  0  0  0  0  0  0  0  0
  191.7680  176.3820  144.3090 C   0  0  0  0  0  2  0  0  0  0  0  0
  191.7750  177.1260  145.5570 N   0  0  0  0  0  1  0  0  0  0  0  0
  1 13  2  0  0  0  0
  2 32  1  1  0  0  0
  2  6  1  0  0  0  0
  4  2  1  0  0  0  0
  6 12  1  1  0  0  0
  7  1  1  0  0  0  0
  7 10  2  0  0  0  0
  8  6  1  0  0  0  0
  9  3  2  0  0  0  0
 10 14  1  0  0  0  0
 10  5  1  0  0  0  0
 11 19  1  1  0  0  0
 11  1  1  0  0  0  0
 11  4  1  0  0  0  0
 13  8  1  0  0  0  0
 13  5  1  0  0  0  0
 14  9  1  0  0  0  0
 15  9  1  0  0  0  0
 15 16  1  0  0  0  0
 17 18  2  0  0  0  0
 18 19  1  0  0  0  0
 20 27  1  0  0  0  0
 20 26  2  0  0  0  0
 20 25  1  0  0  0  0
 21 23  2  0  0  0  0
 22 18  1  0  0  0  0
 24 22  1  0  0  0  0
 25 23  1  1  0  0  0
 25 29  1  0  0  0  0
 26 21  1  0  0  0  0
 27 24  2  0  0  0  0
 29 22  2  0  0  0  0
 29 28  1  0  0  0  0
 30 31  1  0  0  0  0
 31 15  1  0  0  0  0
 33 32  1  0  0  0  0
 33 35  1  0  0  0  0
 34 33  2  0  0  0  0
 35 36  1  0  0  0  0
M  END
>  <MODEL>
6

>  <REMARK>
 VINA RESULT:      -6.3      3.343      9.328
  Name = 
  6 active torsions:
  status: ('A' for Active; 'I' for Inactive)
    1  A    between atoms: C_4  and  C_11
    2  A    between atoms: C_5  and  C_21
    3  A    between atoms: C_6  and  C_27
    4  A    between atoms: C_11  and  C_21
    5  A    between atoms: C_28  and  N_34
    6  A    between atoms: N_29  and  C_30
                            x       y       z     vdW  Elec       q    Type
                         _______ _______ _______ _____ _____    ______ ____

>  <TORSDO>
F 6

$$$$
=
 OpenBabel11032420133D

 36 39  0  0  1  0  0  0  0  0999 V2000
  182.1920  178.6620  138.0090 C   0  0  0  0  0  0  0  0  0  0  0  0
  182.4980  175.5170  137.5220 C   0  0  2  0  0  3  0  0  0  0  0  0
  179.9420  182.1470  135.4360 O   0  0  0  0  0  0  0  0  0  0  0  0
  182.1990  176.2860  138.8100 C   0  0  0  0  0  2  0  0  0  0  0  0
  181.2720  179.7630  136.2180 C   0  0  0  0  0  2  0  0  0  0  0  0
  181.7290  176.0950  136.3260 C   0  0  1  0  0  3  0  0  0  0  0  0
  181.7050  179.8970  138.5080 N   0  0  0  0  0  0  0  0  0  0  0  0
  182.3730  177.3910  135.8510 C   0  0  0  0  0  2  0  0  0  0  0  0
  179.9960  182.5970  136.6130 C   0  0  0  0  0  0  0  0  0  0  0  0
  181.1850  180.5240  137.5050 C   0  0  0  0  0  0  0  0  0  0  0  0
  182.8820  177.6530  138.8790 C   0  0  1  0  0  3  0  0  0  0  0  0
  181.7340  175.2030  135.2670 F   0  0  0  0  0  0  0  0  0  0  0  0
  181.9670  178.5430  136.7080 C   0  0  0  0  0  0  0  0  0  0  0  0
  180.6010  181.8220  137.6590 N   0  0  0  0  0  2  0  0  0  0  0  0
  179.4520  183.8930  136.9080 N   0  0  0  0  0  0  0  0  0  0  0  0
  178.9310  184.7310  135.8400 C   0  0  0  0  0  1  0  0  0  0  0  0
  184.9450  179.4240  139.7470 O   0  0  0  0  0  0  0  0  0  0  0  0
  185.2830  178.4890  138.9720 C   0  0  0  0  0  0  0  0  0  0  0  0
  184.2970  177.5460  138.5400 N   0  0  0  0  0  2  0  0  0  0  0  0
  189.2210  177.7820  137.5310 C   0  0  0  0  0  0  0  0  0  0  0  0
  190.6770  176.6600  138.6940 C   0  0  0  0  0  3  0  0  0  0  0  0
  186.7050  178.3670  138.5540 C   0  0  0  0  0  0  0  0  0  0  0  0
  190.1580  177.4960  139.5880 C   0  0  0  0  0  3  0  0  0  0  0  0
  186.9640  178.2500  137.0870 C   0  0  0  0  0  3  0  0  0  0  0  0
  189.1700  178.3740  138.8900 C   0  0  2  0  0  3  0  0  0  0  0  0
  190.0720  176.8230  137.4170 N   0  0  0  0  0  0  0  0  0  0  0  0
  188.1410  177.9530  136.6190 N   0  0  0  0  0  0  0  0  0  0  0  0
  187.5780  178.3760  140.9070 C   0  0  0  0  0  1  0  0  0  0  0  0
  187.7550  178.3160  139.4220 C   0  0  0  0  0  0  0  0  0  0  0  0
  178.9790  185.8710  138.2550 C   0  0  0  0  0  1  0  0  0  0  0  0
  179.5100  184.4490  138.2510 C   0  0  0  0  0  2  0  0  0  0  0  0
  182.1400  174.0550  137.7530 C   0  0  0  0  0  2  0  0  0  0  0  0
  183.1970  173.1620  137.1860 C   0  0  0  0  0  0  0  0  0  0  0  0
  182.9070  172.0410  136.7960 O   0  0  0  0  0  0  0  0  0  0  0  0
  184.5970  173.6590  137.0580 C   0  0  0  0  0  2  0  0  0  0  0  0
  185.4460  172.9980  138.0340 N   0  0  0  0  0  1  0  0  0  0  0  0
  1  7  1  0  0  0  0
  1 11  1  0  0  0  0
  2 32  1  1  0  0  0
  2  4  1  0  0  0  0
  3  9  2  0  0  0  0
  4 11  1  0  0  0  0
  5 13  1  0  0  0  0
  5 10  1  0  0  0  0
  6 12  1  6  0  0  0
  6  2  1  0  0  0  0
  8  6  1  0  0  0  0
  8 13  1  0  0  0  0
  9 15  1  0  0  0  0
  9 14  1  0  0  0  0
 10 14  1  0  0  0  0
 10  7  2  0  0  0  0
 11 19  1  6  0  0  0
 13  1  2  0  0  0  0
 15 31  1  0  0  0  0
 16 15  1  0  0  0  0
 18 17  2  0  0  0  0
 19 18  1  0  0  0  0
 20 25  1  0  0  0  0
 21 23  2  0  0  0  0
 22 18  1  0  0  0  0
 22 29  2  0  0  0  0
 24 22  1  0  0  0  0
 25 29  1  0  0  0  0
 25 23  1  1  0  0  0
 26 20  2  0  0  0  0
 26 21  1  0  0  0  0
 27 24  2  0  0  0  0
 27 20  1  0  0  0  0
 29 28  1  0  0  0  0
 31 30  1  0  0  0  0
 33 32  1  0  0  0  0
 34 33  2  0  0  0  0
 35 33  1  0  0  0  0
 35 36  1  0  0  0  0
M  END
>  <MODEL>
7

>  <REMARK>
 VINA RESULT:      -6.1      3.764      7.941
  Name = 
  6 active torsions:
  status: ('A' for Active; 'I' for Inactive)
    1  A    between atoms: C_4  and  C_11
    2  A    between atoms: C_5  and  C_21
    3  A    between atoms: C_6  and  C_27
    4  A    between atoms: C_11  and  C_21
    5  A    between atoms: C_28  and  N_34
    6  A    between atoms: N_29  and  C_30
                            x       y       z     vdW  Elec       q    Type
                         _______ _______ _______ _____ _____    ______ ____

>  <TORSDO>
F 6

$$$$
=
 OpenBabel11032420133D

 36 39  0  0  1  0  0  0  0  0999 V2000
  187.1870  176.5320  136.9940 C   0  0  0  0  0  0  0  0  0  0  0  0
  184.1470  176.1080  136.0980 C   0  0  2  0  0  3  0  0  0  0  0  0
  191.0710  173.5810  136.8180 O   0  0  0  0  0  0  0  0  0  0  0  0
  185.0660  177.3160  135.9090 C   0  0  0  0  0  2  0  0  0  0  0  0
  188.4230  174.6000  136.9230 C   0  0  0  0  0  2  0  0  0  0  0  0
  184.8890  174.7870  135.8480 C   0  0  1  0  0  3  0  0  0  0  0  0
  188.5480  176.9300  136.9630 N   0  0  0  0  0  0  0  0  0  0  0  0
  185.7880  174.4460  137.0290 C   0  0  0  0  0  2  0  0  0  0  0  0
  191.5510  174.7470  136.8400 C   0  0  0  0  0  0  0  0  0  0  0  0
  189.2510  175.8480  136.9230 C   0  0  0  0  0  0  0  0  0  0  0  0
  186.0570  177.5160  137.0580 C   0  0  1  0  0  3  0  0  0  0  0  0
  183.9910  173.7470  135.6830 F   0  0  0  0  0  0  0  0  0  0  0  0
  187.0690  175.2120  136.9740 C   0  0  0  0  0  0  0  0  0  0  0  0
  190.6820  175.8880  136.8890 N   0  0  0  0  0  2  0  0  0  0  0  0
  192.9740  174.9350  136.8170 N   0  0  0  0  0  0  0  0  0  0  0  0
  193.8680  173.7880  136.8710 C   0  0  0  0  0  1  0  0  0  0  0  0
  185.0000  179.7440  138.4960 O   0  0  0  0  0  0  0  0  0  0  0  0
  184.9030  178.6120  139.0430 C   0  0  0  0  0  0  0  0  0  0  0  0
  185.3770  177.4540  138.3480 N   0  0  0  0  0  2  0  0  0  0  0  0
  182.8040  178.6340  142.7420 C   0  0  0  0  0  0  0  0  0  0  0  0
  183.5570  179.7130  144.4740 C   0  0  0  0  0  3  0  0  0  0  0  0
  184.2650  178.5030  140.3820 C   0  0  0  0  0  0  0  0  0  0  0  0
  184.6330  179.0720  144.0280 C   0  0  0  0  0  3  0  0  0  0  0  0
  182.7760  178.3930  140.4070 C   0  0  0  0  0  3  0  0  0  0  0  0
  184.2290  178.2380  142.8550 C   0  0  2  0  0  3  0  0  0  0  0  0
  182.4230  179.4580  143.6540 N   0  0  0  0  0  0  0  0  0  0  0  0
  182.0990  178.4780  141.5150 N   0  0  0  0  0  0  0  0  0  0  0  0
  186.4370  178.6970  141.6250 C   0  0  0  0  0  1  0  0  0  0  0  0
  184.9510  178.5380  141.5610 C   0  0  0  0  0  0  0  0  0  0  0  0
  194.4290  176.4930  135.6300 C   0  0  0  0  0  1  0  0  0  0  0  0
  193.5620  176.2660  136.8550 C   0  0  0  0  0  2  0  0  0  0  0  0
  182.9650  176.2630  135.1500 C   0  0  0  0  0  2  0  0  0  0  0  0
  181.6830  176.3100  135.9170 C   0  0  0  0  0  0  0  0  0  0  0  0
  180.7690  175.5530  135.6300 O   0  0  0  0  0  0  0  0  0  0  0  0
  181.5380  177.2550  137.0620 C   0  0  0  0  0  2  0  0  0  0  0  0
  180.9950  178.5180  136.5930 N   0  0  0  0  0  1  0  0  0  0  0  0
  1 11  1  0  0  0  0
  2 32  1  6  0  0  0
  3  9  2  0  0  0  0
  4  2  1  0  0  0  0
  4 11  1  0  0  0  0
  5 13  1  0  0  0  0
  6 12  1  1  0  0  0
  6  2  1  0  0  0  0
  6  8  1  0  0  0  0
  7  1  1  0  0  0  0
  9 14  1  0  0  0  0
 10  5  1  0  0  0  0
 10  7  2  0  0  0  0
 11 19  1  1  0  0  0
 13  1  2  0  0  0  0
 13  8  1  0  0  0  0
 14 10  1  0  0  0  0
 15  9  1  0  0  0  0
 15 31  1  0  0  0  0
 15 16  1  0  0  0  0
 17 18  2  0  0  0  0
 18 22  1  0  0  0  0
 19 18  1  0  0  0  0
 20 25  1  0  0  0  0
 20 26  2  0  0  0  0
 22 24  1  0  0  0  0
 22 29  2  0  0  0  0
 23 21  2  0  0  0  0
 24 27  2  0  0  0  0
 25 23  1  1  0  0  0
 26 21  1  0  0  0  0
 27 20  1  0  0  0  0
 29 28  1  0  0  0  0
 29 25  1  0  0  0  0
 30 31  1  0  0  0  0
 32 33  1  0  0  0  0
 33 35  1  0  0  0  0
 34 33  2  0  0  0  0
 36 35  1  0  0  0  0
M  END
>  <MODEL>
8

>  <REMARK>
 VINA RESULT:      -6.1      2.726      4.418
  Name = 
  6 active torsions:
  status: ('A' for Active; 'I' for Inactive)
    1  A    between atoms: C_4  and  C_11
    2  A    between atoms: C_5  and  C_21
    3  A    between atoms: C_6  and  C_27
    4  A    between atoms: C_11  and  C_21
    5  A    between atoms: C_28  and  N_34
    6  A    between atoms: N_29  and  C_30
                            x       y       z     vdW  Elec       q    Type
                         _______ _______ _______ _____ _____    ______ ____

>  <TORSDO>
F 6

$$$$
=
 OpenBabel11032420133D

 36 39  0  0  1  0  0  0  0  0999 V2000
  181.2870  179.2140  139.3410 C   0  0  0  0  0  0  0  0  0  0  0  0
  181.6310  176.0380  139.2010 C   0  0  2  0  0  3  0  0  0  0  0  0
  180.2900  182.5320  135.9030 O   0  0  0  0  0  0  0  0  0  0  0  0
  180.9050  176.9010  140.2330 C   0  0  0  0  0  2  0  0  0  0  0  0
  181.1410  180.1940  137.2720 C   0  0  0  0  0  2  0  0  0  0  0  0
  181.3840  176.5380  137.7700 C   0  0  1  0  0  3  0  0  0  0  0  0
  180.6980  180.4880  139.5440 N   0  0  0  0  0  0  0  0  0  0  0  0
  182.2080  177.7880  137.4900 C   0  0  0  0  0  2  0  0  0  0  0  0
  179.9200  183.0650  136.9840 C   0  0  0  0  0  0  0  0  0  0  0  0
  180.6120  181.0470  138.3830 C   0  0  0  0  0  0  0  0  0  0  0  0
  181.5650  178.2620  140.4660 C   0  0  1  0  0  3  0  0  0  0  0  0
  181.7480  175.5720  136.8470 F   0  0  0  0  0  0  0  0  0  0  0  0
  181.5570  179.0040  138.0610 C   0  0  0  0  0  0  0  0  0  0  0  0
  180.0630  182.3590  138.2260 N   0  0  0  0  0  2  0  0  0  0  0  0
  179.3560  184.3850  136.9740 N   0  0  0  0  0  0  0  0  0  0  0  0
  179.3010  185.1510  135.7380 C   0  0  0  0  0  1  0  0  0  0  0  0
  183.0030  179.1590  142.7640 O   0  0  0  0  0  0  0  0  0  0  0  0
  183.6740  178.6200  141.8430 C   0  0  0  0  0  0  0  0  0  0  0  0
  183.0000  178.1120  140.6880 N   0  0  0  0  0  2  0  0  0  0  0  0
  187.8740  177.9590  141.9380 C   0  0  0  0  0  0  0  0  0  0  0  0
  188.7740  176.5370  143.3160 C   0  0  0  0  0  3  0  0  0  0  0  0
  185.1480  178.4910  141.9970 C   0  0  0  0  0  0  0  0  0  0  0  0
  187.9290  177.2110  144.0890 C   0  0  0  0  0  3  0  0  0  0  0  0
  185.9670  178.6500  140.7580 C   0  0  0  0  0  3  0  0  0  0  0  0
  187.2800  178.2720  143.2600 C   0  0  2  0  0  3  0  0  0  0  0  0
  188.7200  176.9890  141.9680 N   0  0  0  0  0  0  0  0  0  0  0  0
  187.2390  178.3770  140.7350 N   0  0  0  0  0  0  0  0  0  0  0  0
  185.0220  177.9770  144.4510 C   0  0  0  0  0  1  0  0  0  0  0  0
  185.7720  178.2010  143.1750 C   0  0  0  0  0  0  0  0  0  0  0  0
  178.9520  186.5440  138.0350 C   0  0  0  0  0  1  0  0  0  0  0  0
  178.9320  185.0360  138.2050 C   0  0  0  0  0  2  0  0  0  0  0  0
  181.1570  174.6010  139.3710 C   0  0  0  0  0  2  0  0  0  0  0  0
  179.6640  174.5340  139.3370 C   0  0  0  0  0  0  0  0  0  0  0  0
  179.0490  175.0510  138.4180 O   0  0  0  0  0  0  0  0  0  0  0  0
  178.9310  173.7970  140.4070 C   0  0  0  0  0  2  0  0  0  0  0  0
  178.9720  174.5550  141.6450 N   0  0  0  0  0  1  0  0  0  0  0  0
  1  7  1  0  0  0  0
  1 11  1  0  0  0  0
  2 32  1  6  0  0  0
  2  4  1  0  0  0  0
  3  9  2  0  0  0  0
  4 11  1  0  0  0  0
  5 13  1  0  0  0  0
  5 10  1  0  0  0  0
  6 12  1  6  0  0  0
  6  2  1  0  0  0  0
  8  6  1  0  0  0  0
  8 13  1  0  0  0  0
  9 14  1  0  0  0  0
 10  7  2  0  0  0  0
 11 19  1  6  0  0  0
 13  1  2  0  0  0  0
 14 10  1  0  0  0  0
 15  9  1  0  0  0  0
 15 31  1  0  0  0  0
 16 15  1  0  0  0  0
 18 22  1  0  0  0  0
 18 17  2  0  0  0  0
 19 18  1  0  0  0  0
 20 26  2  0  0  0  0
 20 25  1  0  0  0  0
 21 23  2  0  0  0  0
 22 29  2  0  0  0  0
 24 22  1  0  0  0  0
 25 23  1  1  0  0  0
 26 21  1  0  0  0  0
 27 24  2  0  0  0  0
 27 20  1  0  0  0  0
 29 25  1  0  0  0  0
 29 28  1  0  0  0  0
 30 31  1  0  0  0  0
 33 32  1  0  0  0  0
 33 35  1  0  0  0  0
 34 33  2  0  0  0  0
 35 36  1  0  0  0  0
M  END
>  <MODEL>
9

>  <REMARK>
 VINA RESULT:      -6.0      3.837      6.817
  Name = 
  6 active torsions:
  status: ('A' for Active; 'I' for Inactive)
    1  A    between atoms: C_4  and  C_11
    2  A    between atoms: C_5  and  C_21
    3  A    between atoms: C_6  and  C_27
    4  A    between atoms: C_11  and  C_21
    5  A    between atoms: C_28  and  N_34
    6  A    between atoms: N_29  and  C_30
                            x       y       z     vdW  Elec       q    Type
                         _______ _______ _______ _____ _____    ______ ____

>  <TORSDO>
F 6

$$$$
