=
 OpenBabel11032420513D

 44 45  0  0  1  0  0  0  0  0999 V2000
  184.7740  178.7180  139.1450 N   0  0  0  0  0  0  0  0  0  0  0  0
  182.6690  179.3620  138.1740 N   0  0  0  0  0  0  0  0  0  0  0  0
  183.7430  179.6650  138.8430 C   0  0  0  0  0  3  0  0  0  0  0  0
  182.2540  178.0470  137.7790 C   0  0  0  0  0  0  0  0  0  0  0  0
  181.5010  175.5080  136.8980 C   0  0  0  0  0  0  0  0  0  0  0  0
  181.3230  175.8540  138.3480 C   0  0  0  0  0  2  0  0  0  0  0  0
  181.1660  174.3370  136.4760 N   0  0  0  0  0  2  0  0  0  0  0  0
  182.1870  177.7190  136.3470 C   0  0  0  0  0  3  0  0  0  0  0  0
  181.8570  177.1810  138.6670 N   0  0  0  0  0  0  0  0  0  0  0  0
  181.8420  176.5300  135.9570 N   0  0  0  0  0  0  0  0  0  0  0  0
  185.5170  178.8980  140.3820 C   0  0  0  0  0  2  0  0  0  0  0  0
  184.8270  178.1540  141.5130 C   0  0  0  0  0  2  0  0  0  0  0  0
  185.3020  178.6710  142.8610 C   0  0  0  0  0  2  0  0  0  0  0  0
  184.1800  179.3660  143.6240 C   0  0  1  0  0  3  0  0  0  0  0  0
  182.8330  179.0170  143.0500 C   0  0  0  0  0  3  0  0  0  0  0  0
  181.7420  178.9090  143.8130 C   0  0  0  0  0  3  0  0  0  0  0  0
  179.3770  180.0560  143.1430 S   0  0  0  0  0  0  0  0  0  0  0  0
  180.4190  178.5670  143.2130 C   0  0  1  0  0  3  0  0  0  0  0  0
  180.5920  178.0370  141.8030 C   0  0  0  0  0  2  0  0  0  0  0  0
  178.9310  179.7460  141.4070 C   0  0  0  0  0  2  0  0  0  0  0  0
  179.3040  178.3210  141.0740 C   0  0  0  0  0  2  0  0  0  0  0  0
  184.2800  179.0120  145.1030 C   0  0  0  0  0  2  0  0  0  0  0  0
  185.6990  179.1830  145.6220 C   0  0  0  0  0  2  0  0  0  0  0  0
  185.7000  179.2060  147.0170 O   0  0  0  0  0  0  0  0  0  0  0  0
  186.3000  178.0050  147.3880 C   0  0  0  0  0  1  0  0  0  0  0  0
  185.3970  177.9770  138.0520 C   0  0  0  0  0  2  0  0  0  0  0  0
  186.9090  178.1470  138.0570 C   0  0  2  0  0  3  0  0  0  0  0  0
  187.3500  178.9000  136.8110 C   0  0  0  0  0  2  0  0  0  0  0  0
  188.3680  179.8010  137.1280 O   0  0  0  0  0  1  0  0  0  0  0  0
  187.5570  176.7740  138.0940 C   0  0  0  0  0  2  0  0  0  0  0  0
  188.9710  176.9030  138.4050 N   0  0  0  0  0  2  0  0  0  0  0  0
  189.0680  177.5240  139.7140 C   0  0  0  0  0  2  0  0  0  0  0  0
  190.4940  177.4250  140.2200 C   0  0  1  0  0  3  0  0  0  0  0  0
  190.5060  177.1160  141.9840 S   0  0  0  0  0  0  0  0  0  0  0  0
  191.7420  177.7170  142.5890 O   0  0  0  0  0  0  0  0  0  0  0  0
  190.5010  175.6330  142.2340 O   0  0  0  0  0  0  0  0  0  0  0  0
  189.0690  177.8520  142.7450 C   0  0  0  0  0  2  0  0  0  0  0  0
  187.5730  176.1840  143.5600 O   0  0  0  0  0  0  0  0  0  0  0  0
  189.0630  177.0160  145.0890 O   0  0  0  0  0  1  0  0  0  0  0  0
  188.5300  176.9630  143.8100 C   0  0  0  0  0  0  0  0  0  0  0  0
  191.2040  176.3070  139.4750 C   0  0  0  0  0  2  0  0  0  0  0  0
  192.7680  176.6790  137.7160 O   0  0  0  0  0  0  0  0  0  0  0  0
  193.4600  177.3230  139.8040 O   0  0  0  0  0  1  0  0  0  0  0  0
  192.5170  176.7730  138.9440 C   0  0  0  0  0  0  0  0  0  0  0  0
  1 11  1  0  0  0  0
  2  3  2  0  0  0  0
  3  1  1  0  0  0  0
  4  2  1  0  0  0  0
  4  9  2  0  0  0  0
  5  6  1  0  0  0  0
  6  9  1  0  0  0  0
  7  5  2  0  0  0  0
  8  4  1  0  0  0  0
 10  8  2  0  0  0  0
 10  5  1  0  0  0  0
 11 12  1  0  0  0  0
 12 13  1  0  0  0  0
 14 13  1  6  0  0  0
 14 22  1  0  0  0  0
 15 14  1  0  0  0  0
 15 16  2  0  0  0  0
 17 18  1  0  0  0  0
 18 16  1  6  0  0  0
 19 18  1  0  0  0  0
 20 17  1  0  0  0  0
 21 20  1  0  0  0  0
 21 19  1  0  0  0  0
 22 23  1  0  0  0  0
 23 24  1  0  0  0  0
 24 25  1  0  0  0  0
 26 27  1  0  0  0  0
 26  1  1  0  0  0  0
 27 28  1  6  0  0  0
 27 30  1  0  0  0  0
 28 29  1  0  0  0  0
 30 31  1  0  0  0  0
 31 32  1  0  0  0  0
 32 33  1  0  0  0  0
 33 41  1  6  0  0  0
 33 34  1  0  0  0  0
 34 36  2  0  0  0  0
 34 35  2  0  0  0  0
 34 37  1  0  0  0  0
 37 40  1  0  0  0  0
 38 40  2  0  0  0  0
 40 39  1  0  0  0  0
 42 44  2  0  0  0  0
 44 41  1  0  0  0  0
 44 43  1  0  0  0  0
M  END
>  <MODEL>
1

>  <REMARK>
 VINA RESULT:      -5.9      0.000      0.000
  Name = 
  22 active torsions:
  status: ('A' for Active; 'I' for Inactive)
    1  A    between atoms: C_1  and  C_3
    2  A    between atoms: C_1  and  C_9
    3  A    between atoms: C_1  and  C_18
    4  A    between atoms: C_5  and  C_18
    5  A    between atoms: C_5  and  C_38
    6  A    between atoms: C_6  and  N_32
    7  A    between atoms: C_6  and  C_43
    8  A    between atoms: C_7  and  N_13
    9  A    between atoms: C_7  and  C_35
   10  A    between atoms: C_8  and  N_29
   11  A    between atoms: C_9  and  C_36
   12  A    between atoms: C_10  and  C_25
   13  A    between atoms: C_11  and  S_15
   14  A    between atoms: C_11  and  C_30
   15  A    between atoms: O_12  and  C_36
   16  A    between atoms: N_13  and  C_38
   17  A    between atoms: S_15  and  C_43
   18  A    between atoms: C_22  and  C_35
   19  A    between atoms: C_23  and  C_40
   20  A    between atoms: C_23  and  C_43
   21  A    between atoms: C_26  and  N_32
   22  A    between atoms: C_26  and  C_35
                            x       y       z     vdW  Elec       q    Type
                         _______ _______ _______ _____ _____    ______ ____

>  <TORSDO>
F 22

$$$$
=
 OpenBabel11032420513D

 44 45  0  0  1  0  0  0  0  0999 V2000
  184.5880  178.6160  139.4960 N   0  0  0  0  0  0  0  0  0  0  0  0
  182.6500  180.0010  139.1550 N   0  0  0  0  0  0  0  0  0  0  0  0
  183.9410  179.8400  139.1310 C   0  0  0  0  0  3  0  0  0  0  0  0
  181.6870  179.0820  139.6890 C   0  0  0  0  0  0  0  0  0  0  0  0
  179.8020  177.2420  140.6120 C   0  0  0  0  0  0  0  0  0  0  0  0
  180.5430  178.0830  141.6110 C   0  0  0  0  0  2  0  0  0  0  0  0
  178.9350  176.3820  141.0230 N   0  0  0  0  0  2  0  0  0  0  0  0
  180.7690  178.3940  138.7690 C   0  0  0  0  0  3  0  0  0  0  0  0
  181.5640  178.9210  140.9760 N   0  0  0  0  0  0  0  0  0  0  0  0
  179.9050  177.5360  139.2160 N   0  0  0  0  0  0  0  0  0  0  0  0
  185.9110  178.7000  140.0920 C   0  0  0  0  0  2  0  0  0  0  0  0
  185.7970  179.1440  141.5410 C   0  0  0  0  0  2  0  0  0  0  0  0
  184.9300  178.1750  142.3310 C   0  0  0  0  0  2  0  0  0  0  0  0
  185.5440  177.8490  143.6870 C   0  0  1  0  0  3  0  0  0  0  0  0
  186.9950  177.4720  143.5530 C   0  0  0  0  0  3  0  0  0  0  0  0
  187.8310  177.4800  144.5950 C   0  0  0  0  0  3  0  0  0  0  0  0
  189.5460  176.5020  142.7340 S   0  0  0  0  0  0  0  0  0  0  0  0
  189.2630  177.0950  144.4310 C   0  0  1  0  0  3  0  0  0  0  0  0
  190.1690  178.2850  144.6790 C   0  0  0  0  0  2  0  0  0  0  0  0
  191.0190  177.5530  142.5390 C   0  0  0  0  0  2  0  0  0  0  0  0
  191.4380  178.0300  143.9090 C   0  0  0  0  0  2  0  0  0  0  0  0
  185.3460  179.0310  144.6280 C   0  0  0  0  0  2  0  0  0  0  0  0
  184.1120  178.8500  145.4980 C   0  0  0  0  0  2  0  0  0  0  0  0
  184.4860  178.4960  146.7950 O   0  0  0  0  0  0  0  0  0  0  0  0
  185.7250  179.1050  146.9810 C   0  0  0  0  0  1  0  0  0  0  0  0
  184.1990  177.3810  138.8190 C   0  0  0  0  0  2  0  0  0  0  0  0
  184.5940  177.4050  137.3500 C   0  0  2  0  0  3  0  0  0  0  0  0
  183.4360  176.9190  136.4930 C   0  0  0  0  0  2  0  0  0  0  0  0
  183.6060  177.3330  135.1710 O   0  0  0  0  0  1  0  0  0  0  0  0
  185.8040  176.5080  137.1520 C   0  0  0  0  0  2  0  0  0  0  0  0
  186.9720  177.3140  136.8420 N   0  0  0  0  0  2  0  0  0  0  0  0
  187.8630  176.4900  136.0420 C   0  0  0  0  0  2  0  0  0  0  0  0
  188.9570  175.9210  136.9250 C   0  0  1  0  0  3  0  0  0  0  0  0
  189.5860  174.3970  136.2260 S   0  0  0  0  0  0  0  0  0  0  0  0
  190.0220  173.4810  137.3330 O   0  0  0  0  0  0  0  0  0  0  0  0
  190.7630  174.7000  135.3390 O   0  0  0  0  0  0  0  0  0  0  0  0
  188.3140  173.5900  135.2700 C   0  0  0  0  0  2  0  0  0  0  0  0
  187.9530  171.5310  136.4180 O   0  0  0  0  0  0  0  0  0  0  0  0
  186.2700  173.0750  136.5960 O   0  0  0  0  0  1  0  0  0  0  0  0
  187.5150  172.6760  136.1320 C   0  0  0  0  0  0  0  0  0  0  0  0
  190.0680  176.9500  137.0580 C   0  0  0  0  0  2  0  0  0  0  0  0
  192.2870  176.6490  137.8720 O   0  0  0  0  0  0  0  0  0  0  0  0
  190.6140  176.0290  139.3120 O   0  0  0  0  0  1  0  0  0  0  0  0
  191.0540  176.5340  138.0950 C   0  0  0  0  0  0  0  0  0  0  0  0
  1 11  1  0  0  0  0
  2  4  1  0  0  0  0
  3  2  2  0  0  0  0
  3  1  1  0  0  0  0
  4  9  2  0  0  0  0
  5  7  2  0  0  0  0
  5  6  1  0  0  0  0
  8 10  2  0  0  0  0
  8  4  1  0  0  0  0
  9  6  1  0  0  0  0
 10  5  1  0  0  0  0
 11 12  1  0  0  0  0
 12 13  1  0  0  0  0
 14 13  1  6  0  0  0
 14 22  1  0  0  0  0
 15 14  1  0  0  0  0
 15 16  2  0  0  0  0
 17 18  1  0  0  0  0
 18 16  1  6  0  0  0
 18 19  1  0  0  0  0
 20 17  1  0  0  0  0
 20 21  1  0  0  0  0
 21 19  1  0  0  0  0
 22 23  1  0  0  0  0
 23 24  1  0  0  0  0
 24 25  1  0  0  0  0
 26  1  1  0  0  0  0
 27 28  1  6  0  0  0
 27 26  1  0  0  0  0
 29 28  1  0  0  0  0
 30 27  1  0  0  0  0
 31 30  1  0  0  0  0
 32 31  1  0  0  0  0
 33 32  1  6  0  0  0
 33 41  1  0  0  0  0
 34 33  1  0  0  0  0
 34 35  2  0  0  0  0
 36 34  2  0  0  0  0
 37 40  1  0  0  0  0
 37 34  1  0  0  0  0
 40 38  2  0  0  0  0
 40 39  1  0  0  0  0
 41 44  1  0  0  0  0
 42 44  2  0  0  0  0
 44 43  1  0  0  0  0
M  END
>  <MODEL>
2

>  <REMARK>
 VINA RESULT:      -5.8      2.859      5.576
  Name = 
  22 active torsions:
  status: ('A' for Active; 'I' for Inactive)
    1  A    between atoms: C_1  and  C_3
    2  A    between atoms: C_1  and  C_9
    3  A    between atoms: C_1  and  C_18
    4  A    between atoms: C_5  and  C_18
    5  A    between atoms: C_5  and  C_38
    6  A    between atoms: C_6  and  N_32
    7  A    between atoms: C_6  and  C_43
    8  A    between atoms: C_7  and  N_13
    9  A    between atoms: C_7  and  C_35
   10  A    between atoms: C_8  and  N_29
   11  A    between atoms: C_9  and  C_36
   12  A    between atoms: C_10  and  C_25
   13  A    between atoms: C_11  and  S_15
   14  A    between atoms: C_11  and  C_30
   15  A    between atoms: O_12  and  C_36
   16  A    between atoms: N_13  and  C_38
   17  A    between atoms: S_15  and  C_43
   18  A    between atoms: C_22  and  C_35
   19  A    between atoms: C_23  and  C_40
   20  A    between atoms: C_23  and  C_43
   21  A    between atoms: C_26  and  N_32
   22  A    between atoms: C_26  and  C_35
                            x       y       z     vdW  Elec       q    Type
                         _______ _______ _______ _____ _____    ______ ____

>  <TORSDO>
F 22

$$$$
=
 OpenBabel11032420513D

 44 45  0  0  1  0  0  0  0  0999 V2000
  188.5940  178.0850  142.4130 N   0  0  0  0  0  0  0  0  0  0  0  0
  187.7900  176.2680  143.7710 N   0  0  0  0  0  0  0  0  0  0  0  0
  187.9190  176.8370  142.6080 C   0  0  0  0  0  3  0  0  0  0  0  0
  188.1340  176.8390  145.0410 C   0  0  0  0  0  0  0  0  0  0  0  0
  188.6810  177.9650  147.5350 C   0  0  0  0  0  0  0  0  0  0  0  0
  189.7980  177.3100  146.7750 C   0  0  0  0  0  2  0  0  0  0  0  0
  188.9160  178.4830  148.6920 N   0  0  0  0  0  2  0  0  0  0  0  0
  187.1530  177.6880  145.7330 C   0  0  0  0  0  3  0  0  0  0  0  0
  189.3280  176.6820  145.5370 N   0  0  0  0  0  0  0  0  0  0  0  0
  187.4230  178.1960  146.8960 N   0  0  0  0  0  0  0  0  0  0  0  0
  188.1290  178.9470  141.3390 C   0  0  0  0  0  2  0  0  0  0  0  0
  186.7220  178.5480  140.9290 C   0  0  0  0  0  2  0  0  0  0  0  0
  185.6910  179.3590  141.6990 C   0  0  0  0  0  2  0  0  0  0  0  0
  184.2800  179.1190  141.1720 C   0  0  1  0  0  3  0  0  0  0  0  0
  184.3050  178.3640  139.8710 C   0  0  0  0  0  3  0  0  0  0  0  0
  183.2610  178.3500  139.0370 C   0  0  0  0  0  3  0  0  0  0  0  0
  183.1720  175.8130  138.0790 S   0  0  0  0  0  0  0  0  0  0  0  0
  183.3190  177.5970  137.7500 C   0  0  1  0  0  3  0  0  0  0  0  0
  182.1810  178.0100  136.8370 C   0  0  0  0  0  2  0  0  0  0  0  0
  181.9030  175.6100  136.7910 C   0  0  0  0  0  2  0  0  0  0  0  0
  181.9170  176.8440  135.9200 C   0  0  0  0  0  2  0  0  0  0  0  0
  183.4610  178.3970  142.2350 C   0  0  0  0  0  2  0  0  0  0  0  0
  184.0840  178.5450  143.6150 C   0  0  0  0  0  2  0  0  0  0  0  0
  183.1440  179.0490  144.5150 O   0  0  0  0  0  0  0  0  0  0  0  0
  181.9150  178.8340  143.8960 C   0  0  0  0  0  1  0  0  0  0  0  0
  189.9700  178.2250  142.8820 C   0  0  0  0  0  2  0  0  0  0  0  0
  190.8870  177.2010  142.2270 C   0  0  2  0  0  3  0  0  0  0  0  0
  191.8340  176.6150  143.2630 C   0  0  0  0  0  2  0  0  0  0  0  0
  191.4610  175.3070  143.5720 O   0  0  0  0  0  1  0  0  0  0  0  0
  191.6760  177.8840  141.1230 C   0  0  0  0  0  2  0  0  0  0  0  0
  191.7520  177.0150  139.9610 N   0  0  0  0  0  2  0  0  0  0  0  0
  190.4030  176.5570  139.6780 C   0  0  0  0  0  2  0  0  0  0  0  0
  190.0530  176.8640  138.2340 C   0  0  1  0  0  3  0  0  0  0  0  0
  190.3960  175.4430  137.2000 S   0  0  0  0  0  0  0  0  0  0  0  0
  191.0870  174.3860  138.0130 O   0  0  0  0  0  0  0  0  0  0  0  0
  191.2880  175.8550  136.0600 O   0  0  0  0  0  0  0  0  0  0  0  0
  188.8730  174.7750  136.5520 C   0  0  0  0  0  2  0  0  0  0  0  0
  189.7890  172.8320  135.5150 O   0  0  0  0  0  0  0  0  0  0  0  0
  188.1870  172.4470  137.1080 O   0  0  0  0  0  1  0  0  0  0  0  0
  188.9870  173.3020  136.3650 C   0  0  0  0  0  0  0  0  0  0  0  0
  188.5840  177.2450  138.1540 C   0  0  0  0  0  2  0  0  0  0  0  0
  189.0180  179.5430  137.6960 O   0  0  0  0  0  1  0  0  0  0  0  0
  187.5690  178.5050  136.2540 O   0  0  0  0  0  0  0  0  0  0  0  0
  188.4050  178.4960  137.3640 C   0  0  0  0  0  0  0  0  0  0  0  0
  1  3  1  0  0  0  0
  1 26  1  0  0  0  0
  2  4  1  0  0  0  0
  3  2  2  0  0  0  0
  4  9  2  0  0  0  0
  4  8  1  0  0  0  0
  5  7  2  0  0  0  0
  6  5  1  0  0  0  0
  8 10  2  0  0  0  0
  9  6  1  0  0  0  0
 10  5  1  0  0  0  0
 11  1  1  0  0  0  0
 12 11  1  0  0  0  0
 12 13  1  0  0  0  0
 14 15  1  6  0  0  0
 14 13  1  0  0  0  0
 14 22  1  0  0  0  0
 16 15  2  0  0  0  0
 18 17  1  0  0  0  0
 18 16  1  1  0  0  0
 19 18  1  0  0  0  0
 20 17  1  0  0  0  0
 21 20  1  0  0  0  0
 21 19  1  0  0  0  0
 22 23  1  0  0  0  0
 23 24  1  0  0  0  0
 25 24  1  0  0  0  0
 27 30  1  6  0  0  0
 27 26  1  0  0  0  0
 27 28  1  0  0  0  0
 28 29  1  0  0  0  0
 31 30  1  0  0  0  0
 32 31  1  0  0  0  0
 33 41  1  1  0  0  0
 33 32  1  0  0  0  0
 34 35  2  0  0  0  0
 34 33  1  0  0  0  0
 36 34  2  0  0  0  0
 37 34  1  0  0  0  0
 38 40  2  0  0  0  0
 40 37  1  0  0  0  0
 40 39  1  0  0  0  0
 43 44  2  0  0  0  0
 44 42  1  0  0  0  0
 44 41  1  0  0  0  0
M  END
>  <MODEL>
3

>  <REMARK>
 VINA RESULT:      -5.7      3.647      7.077
  Name = 
  22 active torsions:
  status: ('A' for Active; 'I' for Inactive)
    1  A    between atoms: C_1  and  C_3
    2  A    between atoms: C_1  and  C_9
    3  A    between atoms: C_1  and  C_18
    4  A    between atoms: C_5  and  C_18
    5  A    between atoms: C_5  and  C_38
    6  A    between atoms: C_6  and  N_32
    7  A    between atoms: C_6  and  C_43
    8  A    between atoms: C_7  and  N_13
    9  A    between atoms: C_7  and  C_35
   10  A    between atoms: C_8  and  N_29
   11  A    between atoms: C_9  and  C_36
   12  A    between atoms: C_10  and  C_25
   13  A    between atoms: C_11  and  S_15
   14  A    between atoms: C_11  and  C_30
   15  A    between atoms: O_12  and  C_36
   16  A    between atoms: N_13  and  C_38
   17  A    between atoms: S_15  and  C_43
   18  A    between atoms: C_22  and  C_35
   19  A    between atoms: C_23  and  C_40
   20  A    between atoms: C_23  and  C_43
   21  A    between atoms: C_26  and  N_32
   22  A    between atoms: C_26  and  C_35
                            x       y       z     vdW  Elec       q    Type
                         _______ _______ _______ _____ _____    ______ ____

>  <TORSDO>
F 22

$$$$
=
 OpenBabel11032420513D

 44 45  0  0  1  0  0  0  0  0999 V2000
  183.6280  178.7590  143.1000 N   0  0  0  0  0  0  0  0  0  0  0  0
  181.2920  179.3350  143.0770 N   0  0  0  0  0  0  0  0  0  0  0  0
  182.4230  179.2340  143.7120 C   0  0  0  0  0  3  0  0  0  0  0  0
  181.0100  178.8540  141.7560 C   0  0  0  0  0  0  0  0  0  0  0  0
  180.5000  178.0290  139.1390 C   0  0  0  0  0  0  0  0  0  0  0  0
  180.4430  177.0130  140.2430 C   0  0  0  0  0  2  0  0  0  0  0  0
  180.2750  177.6630  137.9240 N   0  0  0  0  0  2  0  0  0  0  0  0
  180.8260  179.8240  140.6660 C   0  0  0  0  0  3  0  0  0  0  0  0
  180.8320  177.5830  141.5360 N   0  0  0  0  0  0  0  0  0  0  0  0
  180.5970  179.4210  139.4540 N   0  0  0  0  0  0  0  0  0  0  0  0
  184.5790  178.0470  143.9380 C   0  0  0  0  0  2  0  0  0  0  0  0
  185.1900  179.0000  144.9520 C   0  0  0  0  0  2  0  0  0  0  0  0
  185.3250  178.3240  146.3070 C   0  0  0  0  0  2  0  0  0  0  0  0
  186.7230  177.7520  146.5130 C   0  0  1  0  0  3  0  0  0  0  0  0
  187.6210  178.0750  145.3490 C   0  0  0  0  0  3  0  0  0  0  0  0
  188.1810  177.1230  144.5970 C   0  0  0  0  0  3  0  0  0  0  0  0
  190.4620  178.4790  144.0330 S   0  0  0  0  0  0  0  0  0  0  0  0
  189.0620  177.4760  143.4460 C   0  0  1  0  0  3  0  0  0  0  0  0
  189.6120  176.2240  142.7900 C   0  0  0  0  0  2  0  0  0  0  0  0
  191.6640  177.4540  143.1300 C   0  0  0  0  0  2  0  0  0  0  0  0
  190.9060  176.6170  142.1270 C   0  0  0  0  0  2  0  0  0  0  0  0
  187.2900  178.2650  147.8310 C   0  0  0  0  0  2  0  0  0  0  0  0
  188.7980  178.0780  147.9000 C   0  0  0  0  0  2  0  0  0  0  0  0
  189.1150  176.7200  147.8620 O   0  0  0  0  0  0  0  0  0  0  0  0
  190.4260  176.6790  147.3940 C   0  0  0  0  0  1  0  0  0  0  0  0
  184.1130  179.4150  141.8890 C   0  0  0  0  0  2  0  0  0  0  0  0
  184.9420  178.4650  141.0370 C   0  0  2  0  0  3  0  0  0  0  0  0
  186.3520  179.0130  140.8720 C   0  0  0  0  0  2  0  0  0  0  0  0
  187.2740  177.9670  140.8330 O   0  0  0  0  0  1  0  0  0  0  0  0
  184.2780  178.3160  139.6790 C   0  0  0  0  0  2  0  0  0  0  0  0
  185.1670  178.8030  138.6380 N   0  0  0  0  0  2  0  0  0  0  0  0
  185.2210  177.7810  137.6070 C   0  0  0  0  0  2  0  0  0  0  0  0
  186.6400  177.2600  137.4820 C   0  0  1  0  0  3  0  0  0  0  0  0
  186.6490  175.6930  136.6150 S   0  0  0  0  0  0  0  0  0  0  0  0
  187.8510  174.8950  137.0350 O   0  0  0  0  0  0  0  0  0  0  0  0
  186.7120  175.9400  135.1320 O   0  0  0  0  0  0  0  0  0  0  0  0
  185.1740  174.7680  137.0020 C   0  0  0  0  0  2  0  0  0  0  0  0
  184.4880  173.5450  135.0730 O   0  0  0  0  0  0  0  0  0  0  0  0
  183.4290  175.5490  135.4060 O   0  0  0  0  0  1  0  0  0  0  0  0
  184.3430  174.5760  135.7810 C   0  0  0  0  0  0  0  0  0  0  0  0
  187.4790  178.2880  136.7420 C   0  0  0  0  0  2  0  0  0  0  0  0
  189.0030  179.8520  137.6960 O   0  0  0  0  0  0  0  0  0  0  0  0
  189.4830  177.6430  138.0810 O   0  0  0  0  0  1  0  0  0  0  0  0
  188.6950  178.6440  137.5270 C   0  0  0  0  0  0  0  0  0  0  0  0
  1  3  1  0  0  0  0
  1 11  1  0  0  0  0
  2  3  2  0  0  0  0
  4  2  1  0  0  0  0
  5 10  1  0  0  0  0
  5  6  1  0  0  0  0
  6  9  1  0  0  0  0
  7  5  2  0  0  0  0
  8  4  1  0  0  0  0
  9  4  2  0  0  0  0
 10  8  2  0  0  0  0
 11 12  1  0  0  0  0
 12 13  1  0  0  0  0
 13 14  1  0  0  0  0
 14 15  1  6  0  0  0
 14 22  1  0  0  0  0
 16 15  2  0  0  0  0
 18 17  1  0  0  0  0
 18 16  1  1  0  0  0
 19 18  1  0  0  0  0
 20 17  1  0  0  0  0
 21 19  1  0  0  0  0
 21 20  1  0  0  0  0
 22 23  1  0  0  0  0
 24 23  1  0  0  0  0
 25 24  1  0  0  0  0
 26  1  1  0  0  0  0
 27 30  1  6  0  0  0
 27 26  1  0  0  0  0
 28 27  1  0  0  0  0
 29 28  1  0  0  0  0
 31 30  1  0  0  0  0
 32 31  1  0  0  0  0
 33 41  1  6  0  0  0
 33 32  1  0  0  0  0
 34 37  1  0  0  0  0
 34 35  2  0  0  0  0
 34 33  1  0  0  0  0
 36 34  2  0  0  0  0
 38 40  2  0  0  0  0
 39 40  1  0  0  0  0
 40 37  1  0  0  0  0
 41 44  1  0  0  0  0
 44 42  2  0  0  0  0
 44 43  1  0  0  0  0
M  END
>  <MODEL>
4

>  <REMARK>
 VINA RESULT:      -5.7      2.949      6.271
  Name = 
  22 active torsions:
  status: ('A' for Active; 'I' for Inactive)
    1  A    between atoms: C_1  and  C_3
    2  A    between atoms: C_1  and  C_9
    3  A    between atoms: C_1  and  C_18
    4  A    between atoms: C_5  and  C_18
    5  A    between atoms: C_5  and  C_38
    6  A    between atoms: C_6  and  N_32
    7  A    between atoms: C_6  and  C_43
    8  A    between atoms: C_7  and  N_13
    9  A    between atoms: C_7  and  C_35
   10  A    between atoms: C_8  and  N_29
   11  A    between atoms: C_9  and  C_36
   12  A    between atoms: C_10  and  C_25
   13  A    between atoms: C_11  and  S_15
   14  A    between atoms: C_11  and  C_30
   15  A    between atoms: O_12  and  C_36
   16  A    between atoms: N_13  and  C_38
   17  A    between atoms: S_15  and  C_43
   18  A    between atoms: C_22  and  C_35
   19  A    between atoms: C_23  and  C_40
   20  A    between atoms: C_23  and  C_43
   21  A    between atoms: C_26  and  N_32
   22  A    between atoms: C_26  and  C_35
                            x       y       z     vdW  Elec       q    Type
                         _______ _______ _______ _____ _____    ______ ____

>  <TORSDO>
F 22

$$$$
=
 OpenBabel11032420513D

 44 45  0  0  1  0  0  0  0  0999 V2000
  189.4930  177.5820  138.5980 N   0  0  0  0  0  0  0  0  0  0  0  0
  190.5330  175.4120  138.5920 N   0  0  0  0  0  0  0  0  0  0  0  0
  189.6130  176.2210  139.0300 C   0  0  0  0  0  3  0  0  0  0  0  0
  191.6500  175.7600  137.7630 C   0  0  0  0  0  0  0  0  0  0  0  0
  193.8900  176.4630  136.2540 C   0  0  0  0  0  0  0  0  0  0  0  0
  192.7220  175.8220  135.5610 C   0  0  0  0  0  2  0  0  0  0  0  0
  194.9350  176.7860  135.5720 N   0  0  0  0  0  2  0  0  0  0  0  0
  192.7270  176.5900  138.3250 C   0  0  0  0  0  3  0  0  0  0  0  0
  191.6740  175.4240  136.5040 N   0  0  0  0  0  0  0  0  0  0  0  0
  193.7640  176.9000  137.6100 N   0  0  0  0  0  0  0  0  0  0  0  0
  188.9710  178.5500  139.5490 C   0  0  0  0  0  2  0  0  0  0  0  0
  188.3070  177.8290  140.7100 C   0  0  0  0  0  2  0  0  0  0  0  0
  187.5810  178.8180  141.6080 C   0  0  0  0  0  2  0  0  0  0  0  0
  186.3360  178.2000  142.2340 C   0  0  1  0  0  3  0  0  0  0  0  0
  186.5270  177.9610  143.7070 C   0  0  0  0  0  3  0  0  0  0  0  0
  187.4580  177.1260  144.1770 C   0  0  0  0  0  3  0  0  0  0  0  0
  189.3720  177.1570  146.1000 S   0  0  0  0  0  0  0  0  0  0  0  0
  187.6270  176.9150  145.6450 C   0  0  1  0  0  3  0  0  0  0  0  0
  186.7870  177.9050  146.4280 C   0  0  0  0  0  2  0  0  0  0  0  0
  188.9300  178.2440  147.4900 C   0  0  0  0  0  2  0  0  0  0  0  0
  187.4550  178.0740  147.7670 C   0  0  0  0  0  2  0  0  0  0  0  0
  185.1330  179.0920  141.9520 C   0  0  0  0  0  2  0  0  0  0  0  0
  184.1690  178.4350  140.9760 C   0  0  0  0  0  2  0  0  0  0  0  0
  184.7030  178.4520  139.6870 O   0  0  0  0  0  0  0  0  0  0  0  0
  184.2090  179.6230  139.1170 C   0  0  0  0  0  1  0  0  0  0  0  0
  189.3730  177.8630  137.1700 C   0  0  0  0  0  2  0  0  0  0  0  0
  188.3150  176.9840  136.5180 C   0  0  2  0  0  3  0  0  0  0  0  0
  188.6020  176.8430  135.0320 C   0  0  0  0  0  2  0  0  0  0  0  0
  188.7930  175.5010  134.7030 O   0  0  0  0  0  1  0  0  0  0  0  0
  186.9510  177.6200  136.7290 C   0  0  0  0  0  2  0  0  0  0  0  0
  186.0120  177.1120  135.7440 N   0  0  0  0  0  2  0  0  0  0  0  0
  184.6950  177.1290  136.3570 C   0  0  0  0  0  2  0  0  0  0  0  0
  184.5260  175.9030  137.2330 C   0  0  1  0  0  3  0  0  0  0  0  0
  182.8390  175.7910  137.8230 S   0  0  0  0  0  0  0  0  0  0  0  0
  182.8380  175.6890  139.3220 O   0  0  0  0  0  0  0  0  0  0  0  0
  182.1840  174.5680  137.2420 O   0  0  0  0  0  0  0  0  0  0  0  0
  181.9230  177.2440  137.3390 C   0  0  0  0  0  2  0  0  0  0  0  0
  179.7820  176.7210  138.2520 O   0  0  0  0  0  0  0  0  0  0  0  0
  180.8230  178.5560  139.1470 O   0  0  0  0  0  1  0  0  0  0  0  0
  180.7880  177.4790  138.2730 C   0  0  0  0  0  0  0  0  0  0  0  0
  184.8960  174.6680  136.4280 C   0  0  0  0  0  2  0  0  0  0  0  0
  185.2180  172.8760  137.9660 O   0  0  0  0  0  1  0  0  0  0  0  0
  187.1340  173.8440  137.1620 O   0  0  0  0  0  0  0  0  0  0  0  0
  185.7500  173.7480  137.2310 C   0  0  0  0  0  0  0  0  0  0  0  0
  1  3  1  0  0  0  0
  1 11  1  0  0  0  0
  2  3  2  0  0  0  0
  4  8  1  0  0  0  0
  4  2  1  0  0  0  0
  5 10  1  0  0  0  0
  6  5  1  0  0  0  0
  6  9  1  0  0  0  0
  7  5  2  0  0  0  0
  9  4  2  0  0  0  0
 10  8  2  0  0  0  0
 11 12  1  0  0  0  0
 12 13  1  0  0  0  0
 14 13  1  1  0  0  0
 14 15  1  0  0  0  0
 15 16  2  0  0  0  0
 17 20  1  0  0  0  0
 18 16  1  6  0  0  0
 18 17  1  0  0  0  0
 18 19  1  0  0  0  0
 19 21  1  0  0  0  0
 20 21  1  0  0  0  0
 22 14  1  0  0  0  0
 23 22  1  0  0  0  0
 24 23  1  0  0  0  0
 25 24  1  0  0  0  0
 26  1  1  0  0  0  0
 27 28  1  6  0  0  0
 27 30  1  0  0  0  0
 27 26  1  0  0  0  0
 29 28  1  0  0  0  0
 31 32  1  0  0  0  0
 31 30  1  0  0  0  0
 33 32  1  6  0  0  0
 33 34  1  0  0  0  0
 34 35  2  0  0  0  0
 36 34  2  0  0  0  0
 37 34  1  0  0  0  0
 37 40  1  0  0  0  0
 38 40  2  0  0  0  0
 40 39  1  0  0  0  0
 41 44  1  0  0  0  0
 41 33  1  0  0  0  0
 43 44  2  0  0  0  0
 44 42  1  0  0  0  0
M  END
>  <MODEL>
5

>  <REMARK>
 VINA RESULT:      -5.6      3.924      8.072
  Name = 
  22 active torsions:
  status: ('A' for Active; 'I' for Inactive)
    1  A    between atoms: C_1  and  C_3
    2  A    between atoms: C_1  and  C_9
    3  A    between atoms: C_1  and  C_18
    4  A    between atoms: C_5  and  C_18
    5  A    between atoms: C_5  and  C_38
    6  A    between atoms: C_6  and  N_32
    7  A    between atoms: C_6  and  C_43
    8  A    between atoms: C_7  and  N_13
    9  A    between atoms: C_7  and  C_35
   10  A    between atoms: C_8  and  N_29
   11  A    between atoms: C_9  and  C_36
   12  A    between atoms: C_10  and  C_25
   13  A    between atoms: C_11  and  S_15
   14  A    between atoms: C_11  and  C_30
   15  A    between atoms: O_12  and  C_36
   16  A    between atoms: N_13  and  C_38
   17  A    between atoms: S_15  and  C_43
   18  A    between atoms: C_22  and  C_35
   19  A    between atoms: C_23  and  C_40
   20  A    between atoms: C_23  and  C_43
   21  A    between atoms: C_26  and  N_32
   22  A    between atoms: C_26  and  C_35
                            x       y       z     vdW  Elec       q    Type
                         _______ _______ _______ _____ _____    ______ ____

>  <TORSDO>
F 22

$$$$
=
 OpenBabel11032420513D

 44 45  0  0  1  0  0  0  0  0999 V2000
  188.1560  178.0000  142.7120 N   0  0  0  0  0  0  0  0  0  0  0  0
  187.2090  176.3910  144.2300 N   0  0  0  0  0  0  0  0  0  0  0  0
  187.3210  176.8790  143.0290 C   0  0  0  0  0  3  0  0  0  0  0  0
  187.7410  176.9590  145.4350 C   0  0  0  0  0  0  0  0  0  0  0  0
  188.6590  178.0880  147.8160 C   0  0  0  0  0  0  0  0  0  0  0  0
  189.6350  177.3630  146.9350 C   0  0  0  0  0  2  0  0  0  0  0  0
  189.0650  178.6080  148.9230 N   0  0  0  0  0  2  0  0  0  0  0  0
  186.9010  177.8690  146.2280 C   0  0  0  0  0  3  0  0  0  0  0  0
  188.9790  176.7450  145.7790 N   0  0  0  0  0  0  0  0  0  0  0  0
  187.3430  178.3780  147.3360 N   0  0  0  0  0  0  0  0  0  0  0  0
  187.7340  178.8730  141.6290 C   0  0  0  0  0  2  0  0  0  0  0  0
  186.2180  178.9750  141.6080 C   0  0  0  0  0  2  0  0  0  0  0  0
  185.6870  178.7500  140.2000 C   0  0  0  0  0  2  0  0  0  0  0  0
  184.1770  178.9500  140.1310 C   0  0  1  0  0  3  0  0  0  0  0  0
  183.5660  178.1110  139.0410 C   0  0  0  0  0  3  0  0  0  0  0  0
  184.2210  177.8240  137.9120 C   0  0  0  0  0  3  0  0  0  0  0  0
  183.8250  175.2250  137.2460 S   0  0  0  0  0  0  0  0  0  0  0  0
  183.5900  176.9850  136.8530 C   0  0  1  0  0  3  0  0  0  0  0  0
  182.1010  177.2620  136.7670 C   0  0  0  0  0  2  0  0  0  0  0  0
  182.0690  174.8530  136.9480 C   0  0  0  0  0  2  0  0  0  0  0  0
  181.4630  176.0190  136.2040 C   0  0  0  0  0  2  0  0  0  0  0  0
  183.5650  178.6480  141.4940 C   0  0  0  0  0  2  0  0  0  0  0  0
  182.0960  178.2720  141.3740 C   0  0  0  0  0  2  0  0  0  0  0  0
  181.3550  178.9100  142.3690 O   0  0  0  0  0  0  0  0  0  0  0  0
  182.2200  178.9850  143.4580 C   0  0  0  0  0  1  0  0  0  0  0  0
  189.5720  177.9490  143.0630 C   0  0  0  0  0  2  0  0  0  0  0  0
  190.3100  176.9000  142.2440 C   0  0  2  0  0  3  0  0  0  0  0  0
  190.5510  175.6580  143.0880 C   0  0  0  0  0  2  0  0  0  0  0  0
  191.7270  175.7970  143.8250 O   0  0  0  0  0  1  0  0  0  0  0  0
  191.6350  177.4820  141.7800 C   0  0  0  0  0  2  0  0  0  0  0  0
  191.6830  177.5050  140.3280 N   0  0  0  0  0  2  0  0  0  0  0  0
  190.5570  176.7230  139.8490 C   0  0  0  0  0  2  0  0  0  0  0  0
  190.9270  176.0480  138.5410 C   0  0  1  0  0  3  0  0  0  0  0  0
  189.5560  176.1330  137.3920 S   0  0  0  0  0  0  0  0  0  0  0  0
  189.0790  174.7440  137.0780 O   0  0  0  0  0  0  0  0  0  0  0  0
  190.0060  176.8020  136.1220 O   0  0  0  0  0  0  0  0  0  0  0  0
  188.2110  177.0610  138.1090 C   0  0  0  0  0  2  0  0  0  0  0  0
  187.3880  178.7410  136.6300 O   0  0  0  0  0  0  0  0  0  0  0  0
  189.0540  179.4030  138.0570 O   0  0  0  0  0  1  0  0  0  0  0  0
  188.1820  178.4450  137.5610 C   0  0  0  0  0  0  0  0  0  0  0  0
  192.1540  176.7340  137.9640 C   0  0  0  0  0  2  0  0  0  0  0  0
  192.9910  175.0350  136.5170 O   0  0  0  0  0  0  0  0  0  0  0  0
  194.3360  175.5680  138.2950 O   0  0  0  0  0  1  0  0  0  0  0  0
  193.1750  175.7300  137.5490 C   0  0  0  0  0  0  0  0  0  0  0  0
  1  3  1  0  0  0  0
  1 26  1  0  0  0  0
  2  4  1  0  0  0  0
  3  2  2  0  0  0  0
  4  9  2  0  0  0  0
  4  8  1  0  0  0  0
  5  7  2  0  0  0  0
  6  5  1  0  0  0  0
  8 10  2  0  0  0  0
  9  6  1  0  0  0  0
 10  5  1  0  0  0  0
 11  1  1  0  0  0  0
 12 11  1  0  0  0  0
 13 12  1  0  0  0  0
 14 15  1  6  0  0  0
 14 13  1  0  0  0  0
 14 22  1  0  0  0  0
 16 15  2  0  0  0  0
 18 17  1  0  0  0  0
 18 16  1  1  0  0  0
 19 18  1  0  0  0  0
 20 17  1  0  0  0  0
 21 19  1  0  0  0  0
 21 20  1  0  0  0  0
 23 22  1  0  0  0  0
 23 24  1  0  0  0  0
 24 25  1  0  0  0  0
 27 30  1  1  0  0  0
 27 26  1  0  0  0  0
 27 28  1  0  0  0  0
 28 29  1  0  0  0  0
 31 30  1  0  0  0  0
 32 31  1  0  0  0  0
 33 41  1  6  0  0  0
 33 32  1  0  0  0  0
 34 37  1  0  0  0  0
 34 33  1  0  0  0  0
 35 34  2  0  0  0  0
 36 34  2  0  0  0  0
 38 40  2  0  0  0  0
 40 39  1  0  0  0  0
 40 37  1  0  0  0  0
 42 44  2  0  0  0  0
 44 41  1  0  0  0  0
 44 43  1  0  0  0  0
M  END
>  <MODEL>
6

>  <REMARK>
 VINA RESULT:      -5.5      3.672      7.022
  Name = 
  22 active torsions:
  status: ('A' for Active; 'I' for Inactive)
    1  A    between atoms: C_1  and  C_3
    2  A    between atoms: C_1  and  C_9
    3  A    between atoms: C_1  and  C_18
    4  A    between atoms: C_5  and  C_18
    5  A    between atoms: C_5  and  C_38
    6  A    between atoms: C_6  and  N_32
    7  A    between atoms: C_6  and  C_43
    8  A    between atoms: C_7  and  N_13
    9  A    between atoms: C_7  and  C_35
   10  A    between atoms: C_8  and  N_29
   11  A    between atoms: C_9  and  C_36
   12  A    between atoms: C_10  and  C_25
   13  A    between atoms: C_11  and  S_15
   14  A    between atoms: C_11  and  C_30
   15  A    between atoms: O_12  and  C_36
   16  A    between atoms: N_13  and  C_38
   17  A    between atoms: S_15  and  C_43
   18  A    between atoms: C_22  and  C_35
   19  A    between atoms: C_23  and  C_40
   20  A    between atoms: C_23  and  C_43
   21  A    between atoms: C_26  and  N_32
   22  A    between atoms: C_26  and  C_35
                            x       y       z     vdW  Elec       q    Type
                         _______ _______ _______ _____ _____    ______ ____

>  <TORSDO>
F 22

$$$$
=
 OpenBabel11032420513D

 44 45  0  0  1  0  0  0  0  0999 V2000
  182.2550  177.9370  139.7110 N   0  0  0  0  0  0  0  0  0  0  0  0
  179.9540  178.3630  139.1470 N   0  0  0  0  0  0  0  0  0  0  0  0
  180.8900  177.5420  139.5270 C   0  0  0  0  0  3  0  0  0  0  0  0
  180.1360  179.7130  138.6990 C   0  0  0  0  0  0  0  0  0  0  0  0
  180.4680  182.3800  137.9460 C   0  0  0  0  0  0  0  0  0  0  0  0
  180.8140  181.3010  136.9620 C   0  0  0  0  0  2  0  0  0  0  0  0
  180.6230  183.6160  137.6170 N   0  0  0  0  0  2  0  0  0  0  0  0
  179.6080  180.8150  139.5180 C   0  0  0  0  0  3  0  0  0  0  0  0
  180.6800  179.9620  137.5430 N   0  0  0  0  0  0  0  0  0  0  0  0
  179.7790  182.0490  139.1550 N   0  0  0  0  0  0  0  0  0  0  0  0
  183.2870  176.9470  139.4510 C   0  0  0  0  0  2  0  0  0  0  0  0
  184.4790  177.6080  138.7780 C   0  0  0  0  0  2  0  0  0  0  0  0
  184.3380  177.5490  137.2650 C   0  0  0  0  0  2  0  0  0  0  0  0
  185.5170  176.8310  136.6180 C   0  0  1  0  0  3  0  0  0  0  0  0
  186.7960  177.1000  137.3650 C   0  0  0  0  0  3  0  0  0  0  0  0
  187.8520  177.6740  136.7840 C   0  0  0  0  0  3  0  0  0  0  0  0
  188.6910  178.2880  139.2900 S   0  0  0  0  0  0  0  0  0  0  0  0
  189.1040  177.9330  137.5540 C   0  0  1  0  0  3  0  0  0  0  0  0
  190.0150  176.7220  137.5160 C   0  0  0  0  0  2  0  0  0  0  0  0
  189.9460  177.1190  139.8980 C   0  0  0  0  0  2  0  0  0  0  0  0
  190.8730  176.7880  138.7530 C   0  0  0  0  0  2  0  0  0  0  0  0
  185.2120  175.3410  136.5260 C   0  0  0  0  0  2  0  0  0  0  0  0
  183.7420  175.0900  136.2260 C   0  0  0  0  0  2  0  0  0  0  0  0
  183.2160  174.1730  137.1360 O   0  0  0  0  0  0  0  0  0  0  0  0
  183.5500  172.9260  136.6100 C   0  0  0  0  0  1  0  0  0  0  0  0
  182.5550  179.0460  140.6120 C   0  0  0  0  0  2  0  0  0  0  0  0
  182.8660  178.5500  142.0170 C   0  0  2  0  0  3  0  0  0  0  0  0
  181.8210  179.0680  142.9930 C   0  0  0  0  0  2  0  0  0  0  0  0
  182.1190  178.6450  144.2890 O   0  0  0  0  0  1  0  0  0  0  0  0
  184.2460  179.0450  142.4180 C   0  0  0  0  0  2  0  0  0  0  0  0
  184.9950  177.9680  143.0420 N   0  0  0  0  0  2  0  0  0  0  0  0
  185.8590  178.5690  144.0430 C   0  0  0  0  0  2  0  0  0  0  0  0
  186.6220  177.4820  144.7750 C   0  0  1  0  0  3  0  0  0  0  0  0
  188.1230  177.0750  143.8880 S   0  0  0  0  0  0  0  0  0  0  0  0
  188.3940  178.1290  142.8530 O   0  0  0  0  0  0  0  0  0  0  0  0
  187.9600  175.7430  143.2090 O   0  0  0  0  0  0  0  0  0  0  0  0
  189.5030  177.0020  145.0170 C   0  0  0  0  0  2  0  0  0  0  0  0
  191.6870  177.8550  144.5820 O   0  0  0  0  0  1  0  0  0  0  0  0
  190.9910  176.1570  143.2090 O   0  0  0  0  0  0  0  0  0  0  0  0
  190.7900  177.0270  144.2700 C   0  0  0  0  0  0  0  0  0  0  0  0
  186.9430  177.9660  146.1800 C   0  0  0  0  0  2  0  0  0  0  0  0
  185.9950  179.8230  147.3330 O   0  0  0  0  0  1  0  0  0  0  0  0
  184.5040  178.2260  146.6400 O   0  0  0  0  0  0  0  0  0  0  0  0
  185.7950  178.7250  146.7540 C   0  0  0  0  0  0  0  0  0  0  0  0
  1 26  1  0  0  0  0
  2  3  2  0  0  0  0
  3  1  1  0  0  0  0
  4  2  1  0  0  0  0
  4  8  1  0  0  0  0
  5 10  1  0  0  0  0
  6  9  1  0  0  0  0
  6  5  1  0  0  0  0
  7  5  2  0  0  0  0
  9  4  2  0  0  0  0
 10  8  2  0  0  0  0
 11  1  1  0  0  0  0
 12 11  1  0  0  0  0
 13 12  1  0  0  0  0
 14 22  1  1  0  0  0
 14 13  1  0  0  0  0
 14 15  1  0  0  0  0
 16 15  2  0  0  0  0
 17 20  1  0  0  0  0
 18 16  1  6  0  0  0
 18 17  1  0  0  0  0
 19 18  1  0  0  0  0
 19 21  1  0  0  0  0
 21 20  1  0  0  0  0
 23 22  1  0  0  0  0
 23 24  1  0  0  0  0
 25 24  1  0  0  0  0
 27 26  1  6  0  0  0
 27 30  1  0  0  0  0
 27 28  1  0  0  0  0
 28 29  1  0  0  0  0
 30 31  1  0  0  0  0
 31 32  1  0  0  0  0
 33 32  1  6  0  0  0
 33 41  1  0  0  0  0
 34 33  1  0  0  0  0
 34 37  1  0  0  0  0
 35 34  2  0  0  0  0
 36 34  2  0  0  0  0
 39 40  2  0  0  0  0
 40 38  1  0  0  0  0
 40 37  1  0  0  0  0
 41 44  1  0  0  0  0
 43 44  2  0  0  0  0
 44 42  1  0  0  0  0
M  END
>  <MODEL>
7

>  <REMARK>
 VINA RESULT:      -5.3      2.893      7.498
  Name = 
  22 active torsions:
  status: ('A' for Active; 'I' for Inactive)
    1  A    between atoms: C_1  and  C_3
    2  A    between atoms: C_1  and  C_9
    3  A    between atoms: C_1  and  C_18
    4  A    between atoms: C_5  and  C_18
    5  A    between atoms: C_5  and  C_38
    6  A    between atoms: C_6  and  N_32
    7  A    between atoms: C_6  and  C_43
    8  A    between atoms: C_7  and  N_13
    9  A    between atoms: C_7  and  C_35
   10  A    between atoms: C_8  and  N_29
   11  A    between atoms: C_9  and  C_36
   12  A    between atoms: C_10  and  C_25
   13  A    between atoms: C_11  and  S_15
   14  A    between atoms: C_11  and  C_30
   15  A    between atoms: O_12  and  C_36
   16  A    between atoms: N_13  and  C_38
   17  A    between atoms: S_15  and  C_43
   18  A    between atoms: C_22  and  C_35
   19  A    between atoms: C_23  and  C_40
   20  A    between atoms: C_23  and  C_43
   21  A    between atoms: C_26  and  N_32
   22  A    between atoms: C_26  and  C_35
                            x       y       z     vdW  Elec       q    Type
                         _______ _______ _______ _____ _____    ______ ____

>  <TORSDO>
F 22

$$$$
=
 OpenBabel11032420513D

 44 45  0  0  1  0  0  0  0  0999 V2000
  190.5100  176.9970  139.9290 N   0  0  0  0  0  0  0  0  0  0  0  0
  190.8400  175.3440  138.2120 N   0  0  0  0  0  0  0  0  0  0  0  0
  191.1600  175.8520  139.3660 C   0  0  0  0  0  3  0  0  0  0  0  0
  189.9340  175.9100  137.2540 C   0  0  0  0  0  0  0  0  0  0  0  0
  188.0840  176.9290  135.4300 C   0  0  0  0  0  0  0  0  0  0  0  0
  189.3800  177.6600  135.6320 C   0  0  0  0  0  2  0  0  0  0  0  0
  187.2160  177.3910  134.5980 N   0  0  0  0  0  2  0  0  0  0  0  0
  188.7550  175.1340  136.8400 C   0  0  0  0  0  3  0  0  0  0  0  0
  190.1940  177.0550  136.6910 N   0  0  0  0  0  0  0  0  0  0  0  0
  187.9020  175.6280  135.9960 N   0  0  0  0  0  0  0  0  0  0  0  0
  191.2980  177.8740  140.7800 C   0  0  0  0  0  2  0  0  0  0  0  0
  191.3160  177.3350  142.2010 C   0  0  0  0  0  2  0  0  0  0  0  0
  190.8500  178.3990  143.1820 C   0  0  0  0  0  2  0  0  0  0  0  0
  190.5670  177.8100  144.5590 C   0  0  1  0  0  3  0  0  0  0  0  0
  189.1290  178.0150  144.9550 C   0  0  0  0  0  3  0  0  0  0  0  0
  188.3340  176.9970  145.2960 C   0  0  0  0  0  3  0  0  0  0  0  0
  186.8590  178.2660  147.1860 S   0  0  0  0  0  0  0  0  0  0  0  0
  186.9140  177.2330  145.6890 C   0  0  1  0  0  3  0  0  0  0  0  0
  186.1650  177.9520  144.5840 C   0  0  0  0  0  2  0  0  0  0  0  0
  185.6180  179.3780  146.4570 C   0  0  0  0  0  2  0  0  0  0  0  0
  185.0330  178.6960  145.2430 C   0  0  0  0  0  2  0  0  0  0  0  0
  190.9560  176.3360  144.5670 C   0  0  0  0  0  2  0  0  0  0  0  0
  192.0570  176.0560  145.5790 C   0  0  0  0  0  2  0  0  0  0  0  0
  191.6450  176.4400  146.8550 O   0  0  0  0  0  0  0  0  0  0  0  0
  192.4090  175.6590  147.7200 C   0  0  0  0  0  1  0  0  0  0  0  0
  189.0590  176.9780  140.0910 C   0  0  0  0  0  2  0  0  0  0  0  0
  188.4860  178.3880  140.1230 C   0  0  2  0  0  3  0  0  0  0  0  0
  187.5560  178.5430  141.3170 C   0  0  0  0  0  2  0  0  0  0  0  0
  186.4000  179.2270  140.9410 O   0  0  0  0  0  1  0  0  0  0  0  0
  187.7250  178.6370  138.8320 C   0  0  0  0  0  2  0  0  0  0  0  0
  186.7420  177.5870  138.6270 N   0  0  0  0  0  2  0  0  0  0  0  0
  185.6480  178.1650  137.8660 C   0  0  0  0  0  2  0  0  0  0  0  0
  184.4560  177.2270  137.8960 C   0  0  1  0  0  3  0  0  0  0  0  0
  183.1680  177.8970  138.9450 S   0  0  0  0  0  0  0  0  0  0  0  0
  183.4960  177.6130  140.3830 O   0  0  0  0  0  0  0  0  0  0  0  0
  181.8530  177.2520  138.5990 O   0  0  0  0  0  0  0  0  0  0  0  0
  183.0450  179.6620  138.7140 C   0  0  0  0  0  2  0  0  0  0  0  0
  180.9390  180.0430  139.7680 O   0  0  0  0  0  1  0  0  0  0  0  0
  181.0270  180.5070  137.5250 O   0  0  0  0  0  0  0  0  0  0  0  0
  181.6180  180.0880  138.7080 C   0  0  0  0  0  0  0  0  0  0  0  0
  183.9460  177.0330  136.4770 C   0  0  0  0  0  2  0  0  0  0  0  0
  184.5490  174.7460  136.7690 O   0  0  0  0  0  1  0  0  0  0  0  0
  184.3820  175.4540  134.5950 O   0  0  0  0  0  0  0  0  0  0  0  0
  184.3120  175.6830  135.9630 C   0  0  0  0  0  0  0  0  0  0  0  0
  1 26  1  0  0  0  0
  1 11  1  0  0  0  0
  2  3  2  0  0  0  0
  3  1  1  0  0  0  0
  4  2  1  0  0  0  0
  5  6  1  0  0  0  0
  5 10  1  0  0  0  0
  6  9  1  0  0  0  0
  7  5  2  0  0  0  0
  8  4  1  0  0  0  0
  9  4  2  0  0  0  0
 10  8  2  0  0  0  0
 11 12  1  0  0  0  0
 12 13  1  0  0  0  0
 14 13  1  6  0  0  0
 14 22  1  0  0  0  0
 14 15  1  0  0  0  0
 15 16  2  0  0  0  0
 18 16  1  6  0  0  0
 18 17  1  0  0  0  0
 19 21  1  0  0  0  0
 19 18  1  0  0  0  0
 20 17  1  0  0  0  0
 21 20  1  0  0  0  0
 22 23  1  0  0  0  0
 23 24  1  0  0  0  0
 24 25  1  0  0  0  0
 26 27  1  0  0  0  0
 27 30  1  6  0  0  0
 27 28  1  0  0  0  0
 29 28  1  0  0  0  0
 31 30  1  0  0  0  0
 32 33  1  0  0  0  0
 32 31  1  0  0  0  0
 33 41  1  6  0  0  0
 33 34  1  0  0  0  0
 34 35  2  0  0  0  0
 36 34  2  0  0  0  0
 37 34  1  0  0  0  0
 39 40  2  0  0  0  0
 40 37  1  0  0  0  0
 40 38  1  0  0  0  0
 43 44  2  0  0  0  0
 44 41  1  0  0  0  0
 44 42  1  0  0  0  0
M  END
>  <MODEL>
8

>  <REMARK>
 VINA RESULT:      -5.3      3.732      7.287
  Name = 
  22 active torsions:
  status: ('A' for Active; 'I' for Inactive)
    1  A    between atoms: C_1  and  C_3
    2  A    between atoms: C_1  and  C_9
    3  A    between atoms: C_1  and  C_18
    4  A    between atoms: C_5  and  C_18
    5  A    between atoms: C_5  and  C_38
    6  A    between atoms: C_6  and  N_32
    7  A    between atoms: C_6  and  C_43
    8  A    between atoms: C_7  and  N_13
    9  A    between atoms: C_7  and  C_35
   10  A    between atoms: C_8  and  N_29
   11  A    between atoms: C_9  and  C_36
   12  A    between atoms: C_10  and  C_25
   13  A    between atoms: C_11  and  S_15
   14  A    between atoms: C_11  and  C_30
   15  A    between atoms: O_12  and  C_36
   16  A    between atoms: N_13  and  C_38
   17  A    between atoms: S_15  and  C_43
   18  A    between atoms: C_22  and  C_35
   19  A    between atoms: C_23  and  C_40
   20  A    between atoms: C_23  and  C_43
   21  A    between atoms: C_26  and  N_32
   22  A    between atoms: C_26  and  C_35
                            x       y       z     vdW  Elec       q    Type
                         _______ _______ _______ _____ _____    ______ ____

>  <TORSDO>
F 22

$$$$
=
 OpenBabel11032420513D

 44 45  0  0  1  0  0  0  0  0999 V2000
  185.0620  178.5130  139.3630 N   0  0  0  0  0  0  0  0  0  0  0  0
  182.8480  179.2520  138.7760 N   0  0  0  0  0  0  0  0  0  0  0  0
  184.0500  179.5130  139.2010 C   0  0  0  0  0  3  0  0  0  0  0  0
  182.2850  177.9500  138.5610 C   0  0  0  0  0  0  0  0  0  0  0  0
  181.1630  175.4120  138.2650 C   0  0  0  0  0  0  0  0  0  0  0  0
  181.5140  176.1960  137.0340 C   0  0  0  0  0  2  0  0  0  0  0  0
  180.6370  174.2420  138.1450 N   0  0  0  0  0  2  0  0  0  0  0  0
  182.1280  177.0410  139.7060 C   0  0  0  0  0  3  0  0  0  0  0  0
  181.9970  177.5420  137.3580 N   0  0  0  0  0  0  0  0  0  0  0  0
  181.5970  175.8670  139.5500 N   0  0  0  0  0  0  0  0  0  0  0  0
  186.0440  178.7070  140.4160 C   0  0  0  0  0  2  0  0  0  0  0  0
  185.3440  179.0620  141.7180 C   0  0  0  0  0  2  0  0  0  0  0  0
  186.0700  178.4420  142.9010 C   0  0  0  0  0  2  0  0  0  0  0  0
  185.1790  178.3760  144.1360 C   0  0  1  0  0  3  0  0  0  0  0  0
  185.9940  178.4080  145.4000 C   0  0  0  0  0  3  0  0  0  0  0  0
  186.0960  177.3490  146.2080 C   0  0  0  0  0  3  0  0  0  0  0  0
  188.4410  176.4420  147.2260 S   0  0  0  0  0  0  0  0  0  0  0  0
  186.9180  177.4100  147.4520 C   0  0  1  0  0  3  0  0  0  0  0  0
  187.3030  178.8420  147.7680 C   0  0  0  0  0  2  0  0  0  0  0  0
  189.4760  177.7920  147.8720 C   0  0  0  0  0  2  0  0  0  0  0  0
  188.5750  178.7790  148.5730 C   0  0  0  0  0  2  0  0  0  0  0  0
  184.1600  179.5090  144.0840 C   0  0  0  0  0  2  0  0  0  0  0  0
  182.7420  178.9920  144.2730 C   0  0  0  0  0  2  0  0  0  0  0  0
  182.2280  178.5460  143.0550 O   0  0  0  0  0  0  0  0  0  0  0  0
  181.1370  179.3770  142.8090 C   0  0  0  0  0  1  0  0  0  0  0  0
  185.4100  177.6680  138.2240 C   0  0  0  0  0  2  0  0  0  0  0  0
  186.7310  178.0950  137.6000 C   0  0  2  0  0  3  0  0  0  0  0  0
  186.5860  178.1810  136.0880 C   0  0  0  0  0  2  0  0  0  0  0  0
  186.7580  176.9210  135.5150 O   0  0  0  0  0  1  0  0  0  0  0  0
  187.7980  177.0770  137.9650 C   0  0  0  0  0  2  0  0  0  0  0  0
  189.0520  177.7560  138.2460 N   0  0  0  0  0  2  0  0  0  0  0  0
  189.2350  177.7410  139.6870 C   0  0  0  0  0  2  0  0  0  0  0  0
  190.6850  177.4380  140.0130 C   0  0  1  0  0  3  0  0  0  0  0  0
  190.8680  177.0910  141.7600 S   0  0  0  0  0  0  0  0  0  0  0  0
  192.3250  177.1040  142.1240 O   0  0  0  0  0  0  0  0  0  0  0  0
  190.2930  175.7340  142.0650 O   0  0  0  0  0  0  0  0  0  0  0  0
  190.0170  178.3280  142.7240 C   0  0  0  0  0  2  0  0  0  0  0  0
  191.1980  179.7710  144.2110 O   0  0  0  0  0  0  0  0  0  0  0  0
  191.0000  177.5910  144.8890 O   0  0  0  0  0  1  0  0  0  0  0  0
  190.7610  178.6120  143.9810 C   0  0  0  0  0  0  0  0  0  0  0  0
  191.1390  176.2510  139.1790 C   0  0  0  0  0  2  0  0  0  0  0  0
  192.4960  176.3530  137.2230 O   0  0  0  0  0  0  0  0  0  0  0  0
  193.4880  177.0940  139.1530 O   0  0  0  0  0  1  0  0  0  0  0  0
  192.4070  176.5630  138.4600 C   0  0  0  0  0  0  0  0  0  0  0  0
  1 11  1  0  0  0  0
  2  3  2  0  0  0  0
  3  1  1  0  0  0  0
  4  2  1  0  0  0  0
  4  8  1  0  0  0  0
  5 10  1  0  0  0  0
  6  9  1  0  0  0  0
  6  5  1  0  0  0  0
  7  5  2  0  0  0  0
  9  4  2  0  0  0  0
 10  8  2  0  0  0  0
 11 12  1  0  0  0  0
 12 13  1  0  0  0  0
 14 13  1  6  0  0  0
 14 15  1  0  0  0  0
 15 16  2  0  0  0  0
 17 18  1  0  0  0  0
 17 20  1  0  0  0  0
 18 16  1  6  0  0  0
 18 19  1  0  0  0  0
 19 21  1  0  0  0  0
 20 21  1  0  0  0  0
 22 14  1  0  0  0  0
 22 23  1  0  0  0  0
 24 23  1  0  0  0  0
 25 24  1  0  0  0  0
 26  1  1  0  0  0  0
 27 28  1  6  0  0  0
 27 30  1  0  0  0  0
 27 26  1  0  0  0  0
 29 28  1  0  0  0  0
 30 31  1  0  0  0  0
 31 32  1  0  0  0  0
 32 33  1  0  0  0  0
 33 41  1  6  0  0  0
 33 34  1  0  0  0  0
 34 36  2  0  0  0  0
 34 35  2  0  0  0  0
 34 37  1  0  0  0  0
 37 40  1  0  0  0  0
 40 38  2  0  0  0  0
 40 39  1  0  0  0  0
 42 44  2  0  0  0  0
 44 43  1  0  0  0  0
 44 41  1  0  0  0  0
M  END
>  <MODEL>
9

>  <REMARK>
 VINA RESULT:      -5.3      2.234      4.223
  Name = 
  22 active torsions:
  status: ('A' for Active; 'I' for Inactive)
    1  A    between atoms: C_1  and  C_3
    2  A    between atoms: C_1  and  C_9
    3  A    between atoms: C_1  and  C_18
    4  A    between atoms: C_5  and  C_18
    5  A    between atoms: C_5  and  C_38
    6  A    between atoms: C_6  and  N_32
    7  A    between atoms: C_6  and  C_43
    8  A    between atoms: C_7  and  N_13
    9  A    between atoms: C_7  and  C_35
   10  A    between atoms: C_8  and  N_29
   11  A    between atoms: C_9  and  C_36
   12  A    between atoms: C_10  and  C_25
   13  A    between atoms: C_11  and  S_15
   14  A    between atoms: C_11  and  C_30
   15  A    between atoms: O_12  and  C_36
   16  A    between atoms: N_13  and  C_38
   17  A    between atoms: S_15  and  C_43
   18  A    between atoms: C_22  and  C_35
   19  A    between atoms: C_23  and  C_40
   20  A    between atoms: C_23  and  C_43
   21  A    between atoms: C_26  and  N_32
   22  A    between atoms: C_26  and  C_35
                            x       y       z     vdW  Elec       q    Type
                         _______ _______ _______ _____ _____    ______ ____

>  <TORSDO>
F 22

$$$$
