=
 OpenBabel11042412163D

 34 39  0  0  0  0  0  0  0  0999 V2000
  189.5800  177.4630  144.9370 C   0  0  0  0  0  0  0  0  0  0  0  0
  191.7830  176.9470  142.0070 C   0  0  0  0  0  3  0  0  0  0  0  0
  191.9840  176.2290  144.1820 N   0  0  0  0  0  0  0  0  0  0  0  0
  188.1210  177.8330  146.8000 C   0  0  0  0  0  0  0  0  0  0  0  0
  188.3980  177.9290  145.4500 N   0  0  0  0  0  0  0  0  0  0  0  0
  190.2370  176.7570  147.1330 C   0  0  0  0  0  0  0  0  0  0  0  0
  191.3050  175.9920  147.7010 N   0  0  0  0  0  0  0  0  0  0  0  0
  189.0440  177.2150  147.6910 C   0  0  0  0  0  3  0  0  0  0  0  0
  191.5820  176.2770  145.4750 C   0  0  0  0  0  0  0  0  0  0  0  0
  190.4590  176.9060  145.8180 C   0  0  0  0  0  0  0  0  0  0  0  0
  192.1790  175.6840  146.6280 N   0  0  0  0  0  0  0  0  0  0  0  0
  191.3050  177.8220  140.8980 C   0  0  0  0  0  2  0  0  0  0  0  0
  189.9510  177.4530  140.4070 C   0  0  0  0  0  0  0  0  0  0  0  0
  188.9010  177.5020  141.2250 C   0  0  0  0  0  3  0  0  0  0  0  0
  191.2130  176.8330  143.2110 C   0  0  0  0  0  0  0  0  0  0  0  0
  188.9350  177.6930  142.6860 C   0  0  0  0  0  3  0  0  0  0  0  0
  189.9170  177.4000  143.5600 C   0  0  0  0  0  0  0  0  0  0  0  0
  189.7590  177.2040  139.0070 N   0  0  0  0  0  0  0  0  0  0  0  0
  189.3660  178.2250  138.1720 O   0  0  0  0  0  0  0  0  0  0  0  0
  189.9590  176.0690  138.5260 O   0  0  0  0  0  0  0  0  0  0  0  0
  186.8410  178.3790  147.3320 C   0  0  0  0  0  2  0  0  0  0  0  0
  183.5970  178.9250  145.5630 C   0  0  0  0  0  3  0  0  0  0  0  0
  186.2230  178.2810  144.9100 C   0  0  0  0  0  3  0  0  0  0  0  0
  183.3240  178.5810  141.8830 C   0  0  0  0  0  0  0  0  0  0  0  0
  182.9720  178.8060  143.2210 C   0  0  0  0  0  3  0  0  0  0  0  0
  183.9360  178.7080  144.2270 C   0  0  0  0  0  0  0  0  0  0  0  0
  185.6200  178.1550  142.5660 C   0  0  0  0  0  3  0  0  0  0  0  0
  185.2680  178.3810  143.8990 C   0  0  0  0  0  0  0  0  0  0  0  0
  184.6520  178.2550  141.5620 C   0  0  0  0  0  3  0  0  0  0  0  0
  185.8410  178.5130  146.2350 C   0  0  0  0  0  0  0  0  0  0  0  0
  184.5480  178.8210  146.5300 N   0  0  0  0  0  0  0  0  0  0  0  0
  182.3050  178.6830  140.8260 C   0  0  0  0  0  0  0  0  0  0  0  0
  181.1350  178.2560  141.0230 O   0  0  0  0  0  1  0  0  0  0  0  0
  182.6240  179.2520  139.5990 O   0  0  0  0  0  0  0  0  0  0  0  0
  1  5  2  0  0  0  0
  1 10  1  0  0  0  0
  2 15  2  0  0  0  0
  3  9  2  0  0  0  0
  4 21  1  0  0  0  0
  4  8  2  0  0  0  0
  5  4  1  0  0  0  0
  6  8  1  0  0  0  0
  6  7  1  0  0  0  0
  9 10  1  0  0  0  0
  9 11  1  0  0  0  0
 10  6  2  0  0  0  0
 11  7  2  0  0  0  0
 12  2  1  0  0  0  0
 13 12  1  0  0  0  0
 13 14  2  0  0  0  0
 14 16  1  0  0  0  0
 15 17  1  0  0  0  0
 15  3  1  0  0  0  0
 16 17  2  0  0  0  0
 17  1  1  0  0  0  0
 18 13  1  0  0  0  0
 19 18  2  0  0  0  0
 20 18  2  0  0  0  0
 22 31  1  0  0  0  0
 23 30  1  0  0  0  0
 24 25  2  0  0  0  0
 25 26  1  0  0  0  0
 26 22  2  0  0  0  0
 27 28  1  0  0  0  0
 28 26  1  0  0  0  0
 28 23  2  0  0  0  0
 29 24  1  0  0  0  0
 29 27  2  0  0  0  0
 30 31  2  0  0  0  0
 30 21  1  0  0  0  0
 32 33  1  0  0  0  0
 32 24  1  0  0  0  0
 34 32  2  0  0  0  0
M  END
>  <MODEL>
1

>  <REMARK>
 VINA RESULT:     -11.5      0.000      0.000
  Name = 
  4 active torsions:
  status: ('A' for Active; 'I' for Inactive)
    1  A    between atoms: N_3  and  C_25
    2  A    between atoms: C_7  and  C_11
    3  A    between atoms: C_8  and  C_18
    4  A    between atoms: C_18  and  C_30
                            x       y       z     vdW  Elec       q    Type
                         _______ _______ _______ _____ _____    ______ ____

>  <TORSDO>
F 4

$$$$
=
 OpenBabel11042412163D

 34 39  0  0  0  0  0  0  0  0999 V2000
  184.2810  178.5540  141.7180 C   0  0  0  0  0  0  0  0  0  0  0  0
  185.3480  178.1810  138.1920 C   0  0  0  0  0  3  0  0  0  0  0  0
  183.3410  178.8520  139.0910 N   0  0  0  0  0  0  0  0  0  0  0  0
  183.6430  178.7730  144.0160 C   0  0  0  0  0  0  0  0  0  0  0  0
  184.6040  178.5440  143.0500 N   0  0  0  0  0  0  0  0  0  0  0  0
  182.0060  179.0560  142.2880 C   0  0  0  0  0  0  0  0  0  0  0  0
  180.8150  179.4190  141.5820 N   0  0  0  0  0  0  0  0  0  0  0  0
  182.2970  179.0580  143.6520 C   0  0  0  0  0  3  0  0  0  0  0  0
  182.5220  178.9860  140.1620 C   0  0  0  0  0  0  0  0  0  0  0  0
  182.9780  178.7980  141.3990 C   0  0  0  0  0  0  0  0  0  0  0  0
  181.1470  179.3700  140.2040 N   0  0  0  0  0  0  0  0  0  0  0  0
  186.6710  177.4930  138.1700 C   0  0  0  0  0  2  0  0  0  0  0  0
  187.7550  178.2940  138.7980 C   0  0  0  0  0  0  0  0  0  0  0  0
  187.6820  178.6380  140.0820 C   0  0  0  0  0  3  0  0  0  0  0  0
  184.6660  178.5230  139.2900 C   0  0  0  0  0  0  0  0  0  0  0  0
  186.5100  178.4930  140.9640 C   0  0  0  0  0  3  0  0  0  0  0  0
  185.2020  178.4530  140.6430 C   0  0  0  0  0  0  0  0  0  0  0  0
  188.9550  178.5510  138.0530 N   0  0  0  0  0  0  0  0  0  0  0  0
  189.0370  179.6560  137.2370 O   0  0  0  0  0  0  0  0  0  0  0  0
  189.9400  177.7890  138.1460 O   0  0  0  0  0  0  0  0  0  0  0  0
  184.0180  178.7220  145.4570 C   0  0  0  0  0  2  0  0  0  0  0  0
  187.3570  177.2400  144.6760 C   0  0  0  0  0  3  0  0  0  0  0  0
  186.1060  178.5010  146.8170 C   0  0  0  0  0  3  0  0  0  0  0  0
  190.0790  177.1810  147.1920 C   0  0  0  0  0  0  0  0  0  0  0  0
  189.3820  176.9900  145.9900 C   0  0  0  0  0  3  0  0  0  0  0  0
  188.0620  177.4300  145.8660 C   0  0  0  0  0  0  0  0  0  0  0  0
  188.1180  178.2590  148.1480 C   0  0  0  0  0  3  0  0  0  0  0  0
  187.4260  178.0690  146.9490 C   0  0  0  0  0  0  0  0  0  0  0  0
  189.4390  177.8180  148.2670 C   0  0  0  0  0  3  0  0  0  0  0  0
  185.4390  178.2960  145.6060 C   0  0  0  0  0  0  0  0  0  0  0  0
  186.0710  177.6710  144.5740 N   0  0  0  0  0  0  0  0  0  0  0  0
  191.4680  176.7140  147.3200 C   0  0  0  0  0  0  0  0  0  0  0  0
  192.1480  177.0030  148.3410 O   0  0  0  0  0  1  0  0  0  0  0  0
  192.0450  175.9500  146.3110 O   0  0  0  0  0  0  0  0  0  0  0  0
  1  5  1  0  0  0  0
  2 15  2  0  0  0  0
  3 15  1  0  0  0  0
  3  9  2  0  0  0  0
  4 21  1  0  0  0  0
  5  4  2  0  0  0  0
  6  8  2  0  0  0  0
  7  6  1  0  0  0  0
  8  4  1  0  0  0  0
  9 11  1  0  0  0  0
  9 10  1  0  0  0  0
 10  1  2  0  0  0  0
 10  6  1  0  0  0  0
 11  7  2  0  0  0  0
 12  2  1  0  0  0  0
 12 13  1  0  0  0  0
 13 14  2  0  0  0  0
 14 16  1  0  0  0  0
 15 17  1  0  0  0  0
 17 16  2  0  0  0  0
 17  1  1  0  0  0  0
 18 20  2  0  0  0  0
 18 13  1  0  0  0  0
 19 18  2  0  0  0  0
 21 30  1  0  0  0  0
 22 26  1  0  0  0  0
 23 28  1  0  0  0  0
 24 32  1  0  0  0  0
 24 29  1  0  0  0  0
 25 24  2  0  0  0  0
 26 25  1  0  0  0  0
 26 28  2  0  0  0  0
 27 29  2  0  0  0  0
 28 27  1  0  0  0  0
 30 23  2  0  0  0  0
 31 22  2  0  0  0  0
 31 30  1  0  0  0  0
 32 33  1  0  0  0  0
 34 32  2  0  0  0  0
M  END
>  <MODEL>
2

>  <REMARK>
 VINA RESULT:     -11.2      3.386      7.401
  Name = 
  4 active torsions:
  status: ('A' for Active; 'I' for Inactive)
    1  A    between atoms: N_3  and  C_25
    2  A    between atoms: C_7  and  C_11
    3  A    between atoms: C_8  and  C_18
    4  A    between atoms: C_18  and  C_30
                            x       y       z     vdW  Elec       q    Type
                         _______ _______ _______ _____ _____    ______ ____

>  <TORSDO>
F 4

$$$$
=
 OpenBabel11042412163D

 34 39  0  0  0  0  0  0  0  0999 V2000
  186.9590  178.2170  144.2900 C   0  0  0  0  0  0  0  0  0  0  0  0
  189.1440  177.3150  147.1400 C   0  0  0  0  0  3  0  0  0  0  0  0
  186.8860  177.7430  147.0550 N   0  0  0  0  0  0  0  0  0  0  0  0
  185.5930  178.8030  142.4120 C   0  0  0  0  0  0  0  0  0  0  0  0
  186.8030  178.3950  142.9400 N   0  0  0  0  0  0  0  0  0  0  0  0
  184.6640  178.8300  144.6210 C   0  0  0  0  0  0  0  0  0  0  0  0
  183.7380  178.8350  145.7130 N   0  0  0  0  0  0  0  0  0  0  0  0
  184.4650  179.0180  143.2530 C   0  0  0  0  0  3  0  0  0  0  0  0
  185.8040  178.2000  146.3800 C   0  0  0  0  0  0  0  0  0  0  0  0
  185.8710  178.4600  145.0760 C   0  0  0  0  0  0  0  0  0  0  0  0
  184.4770  178.4300  146.8540 N   0  0  0  0  0  0  0  0  0  0  0  0
  190.5620  177.3790  146.6850 C   0  0  0  0  0  2  0  0  0  0  0  0
  190.8860  176.3700  145.6420 C   0  0  0  0  0  0  0  0  0  0  0  0
  190.2540  176.3860  144.4700 C   0  0  0  0  0  3  0  0  0  0  0  0
  188.0690  177.5380  146.3760 C   0  0  0  0  0  0  0  0  0  0  0  0
  189.0700  177.1920  144.1220 C   0  0  0  0  0  3  0  0  0  0  0  0
  188.1110  177.6880  144.9280 C   0  0  0  0  0  0  0  0  0  0  0  0
  191.9970  175.4850  145.8460 N   0  0  0  0  0  0  0  0  0  0  0  0
  192.4090  174.6480  144.8340 O   0  0  0  0  0  0  0  0  0  0  0  0
  192.6130  175.4720  146.9330 O   0  0  0  0  0  0  0  0  0  0  0  0
  185.4650  179.0210  140.9440 C   0  0  0  0  0  2  0  0  0  0  0  0
  187.6590  177.6460  138.2510 C   0  0  0  0  0  3  0  0  0  0  0  0
  187.8740  178.3480  140.9340 C   0  0  0  0  0  3  0  0  0  0  0  0
  191.2070  176.7930  138.9000 C   0  0  0  0  0  0  0  0  0  0  0  0
  189.9870  176.9610  138.2300 C   0  0  0  0  0  3  0  0  0  0  0  0
  188.8800  177.4790  138.9060 C   0  0  0  0  0  0  0  0  0  0  0  0
  190.2010  177.6680  140.9360 C   0  0  0  0  0  3  0  0  0  0  0  0
  188.9860  177.8350  140.2660 C   0  0  0  0  0  0  0  0  0  0  0  0
  191.3060  177.1500  140.2550 C   0  0  0  0  0  3  0  0  0  0  0  0
  186.6720  178.5050  140.2380 C   0  0  0  0  0  0  0  0  0  0  0  0
  186.5900  178.1480  138.9260 N   0  0  0  0  0  0  0  0  0  0  0  0
  192.3700  176.2450  138.1850 C   0  0  0  0  0  0  0  0  0  0  0  0
  193.4360  176.9120  138.0900 O   0  0  0  0  0  1  0  0  0  0  0  0
  192.3040  174.9830  137.6050 O   0  0  0  0  0  0  0  0  0  0  0  0
  1 17  1  0  0  0  0
  1 10  1  0  0  0  0
  4  5  1  0  0  0  0
  4  8  2  0  0  0  0
  5  1  2  0  0  0  0
  6 10  2  0  0  0  0
  6  7  1  0  0  0  0
  7 11  2  0  0  0  0
  8  6  1  0  0  0  0
  9 11  1  0  0  0  0
  9  3  2  0  0  0  0
 10  9  1  0  0  0  0
 12  2  1  0  0  0  0
 13 18  1  0  0  0  0
 13 12  1  0  0  0  0
 14 13  2  0  0  0  0
 15  3  1  0  0  0  0
 15  2  2  0  0  0  0
 16 14  1  0  0  0  0
 16 17  2  0  0  0  0
 17 15  1  0  0  0  0
 18 20  2  0  0  0  0
 19 18  2  0  0  0  0
 21  4  1  0  0  0  0
 22 26  2  0  0  0  0
 22 31  1  0  0  0  0
 24 29  1  0  0  0  0
 25 24  2  0  0  0  0
 25 26  1  0  0  0  0
 26 28  1  0  0  0  0
 28 23  2  0  0  0  0
 28 27  1  0  0  0  0
 29 27  2  0  0  0  0
 30 23  1  0  0  0  0
 30 21  1  0  0  0  0
 31 30  2  0  0  0  0
 32 24  1  0  0  0  0
 33 32  1  0  0  0  0
 34 32  2  0  0  0  0
M  END
>  <MODEL>
3

>  <REMARK>
 VINA RESULT:     -11.0      3.218      6.925
  Name = 
  4 active torsions:
  status: ('A' for Active; 'I' for Inactive)
    1  A    between atoms: N_3  and  C_25
    2  A    between atoms: C_7  and  C_11
    3  A    between atoms: C_8  and  C_18
    4  A    between atoms: C_18  and  C_30
                            x       y       z     vdW  Elec       q    Type
                         _______ _______ _______ _____ _____    ______ ____

>  <TORSDO>
F 4

$$$$
=
 OpenBabel11042412163D

 34 39  0  0  0  0  0  0  0  0999 V2000
  186.7210  178.1620  141.3760 C   0  0  0  0  0  0  0  0  0  0  0  0
  189.0200  177.4230  138.5700 C   0  0  0  0  0  3  0  0  0  0  0  0
  186.9730  178.4700  138.5990 N   0  0  0  0  0  0  0  0  0  0  0  0
  185.2690  178.6100  143.2270 C   0  0  0  0  0  0  0  0  0  0  0  0
  186.4790  178.1710  142.7250 N   0  0  0  0  0  0  0  0  0  0  0  0
  184.5340  179.0700  140.9930 C   0  0  0  0  0  0  0  0  0  0  0  0
  183.8070  179.5890  139.8740 N   0  0  0  0  0  0  0  0  0  0  0  0
  184.2520  179.0980  142.3590 C   0  0  0  0  0  3  0  0  0  0  0  0
  185.8330  178.7990  139.2520 C   0  0  0  0  0  0  0  0  0  0  0  0
  185.7180  178.6040  140.5650 C   0  0  0  0  0  0  0  0  0  0  0  0
  184.6470  179.4100  138.7460 N   0  0  0  0  0  0  0  0  0  0  0  0
  190.0980  176.5220  139.0690 C   0  0  0  0  0  2  0  0  0  0  0  0
  190.9650  177.1630  140.0930 C   0  0  0  0  0  0  0  0  0  0  0  0
  190.4480  177.5840  141.2460 C   0  0  0  0  0  3  0  0  0  0  0  0
  188.0290  177.9350  139.3070 C   0  0  0  0  0  0  0  0  0  0  0  0
  189.0160  177.6860  141.5800 C   0  0  0  0  0  3  0  0  0  0  0  0
  187.9600  177.8490  140.7600 C   0  0  0  0  0  0  0  0  0  0  0  0
  192.3870  177.1730  139.8980 N   0  0  0  0  0  0  0  0  0  0  0  0
  192.9190  176.8170  138.6800 O   0  0  0  0  0  0  0  0  0  0  0  0
  193.1570  177.5170  140.8200 O   0  0  0  0  0  0  0  0  0  0  0  0
  185.0240  178.5760  144.6970 C   0  0  0  0  0  2  0  0  0  0  0  0
  187.4050  177.8260  147.4750 C   0  0  0  0  0  3  0  0  0  0  0  0
  187.4000  177.7940  144.6930 C   0  0  0  0  0  3  0  0  0  0  0  0
  190.8780  176.7250  146.7960 C   0  0  0  0  0  0  0  0  0  0  0  0
  189.7200  177.0960  147.4920 C   0  0  0  0  0  3  0  0  0  0  0  0
  188.5630  177.4500  146.7930 C   0  0  0  0  0  0  0  0  0  0  0  0
  189.7130  177.0670  144.6880 C   0  0  0  0  0  3  0  0  0  0  0  0
  188.5580  177.4350  145.3830 C   0  0  0  0  0  0  0  0  0  0  0  0
  190.8670  176.7120  145.3920 C   0  0  0  0  0  3  0  0  0  0  0  0
  186.2610  178.1580  145.4170 C   0  0  0  0  0  0  0  0  0  0  0  0
  186.2890  178.1720  146.7780 N   0  0  0  0  0  0  0  0  0  0  0  0
  192.0950  176.3540  147.5360 C   0  0  0  0  0  0  0  0  0  0  0  0
  192.4750  177.0380  148.5250 O   0  0  0  0  0  1  0  0  0  0  0  0
  192.8390  175.2450  147.1500 O   0  0  0  0  0  0  0  0  0  0  0  0
  1  5  1  0  0  0  0
  2 12  1  0  0  0  0
  2 15  2  0  0  0  0
  3  9  2  0  0  0  0
  3 15  1  0  0  0  0
  4 21  1  0  0  0  0
  5  4  2  0  0  0  0
  6  8  2  0  0  0  0
  7  6  1  0  0  0  0
  8  4  1  0  0  0  0
  9 10  1  0  0  0  0
 10  6  1  0  0  0  0
 10  1  2  0  0  0  0
 11  9  1  0  0  0  0
 11  7  2  0  0  0  0
 12 13  1  0  0  0  0
 13 14  2  0  0  0  0
 14 16  1  0  0  0  0
 15 17  1  0  0  0  0
 17  1  1  0  0  0  0
 17 16  2  0  0  0  0
 18 13  1  0  0  0  0
 18 20  2  0  0  0  0
 19 18  2  0  0  0  0
 21 30  1  0  0  0  0
 23 28  1  0  0  0  0
 23 30  2  0  0  0  0
 24 25  1  0  0  0  0
 24 32  1  0  0  0  0
 26 22  1  0  0  0  0
 26 25  2  0  0  0  0
 27 28  2  0  0  0  0
 27 29  1  0  0  0  0
 28 26  1  0  0  0  0
 29 24  2  0  0  0  0
 30 31  1  0  0  0  0
 31 22  2  0  0  0  0
 32 33  1  0  0  0  0
 34 32  2  0  0  0  0
M  END
>  <MODEL>
4

>  <REMARK>
 VINA RESULT:     -10.8      3.526      6.792
  Name = 
  4 active torsions:
  status: ('A' for Active; 'I' for Inactive)
    1  A    between atoms: N_3  and  C_25
    2  A    between atoms: C_7  and  C_11
    3  A    between atoms: C_8  and  C_18
    4  A    between atoms: C_18  and  C_30
                            x       y       z     vdW  Elec       q    Type
                         _______ _______ _______ _____ _____    ______ ____

>  <TORSDO>
F 4

$$$$
=
 OpenBabel11042412163D

 34 39  0  0  0  0  0  0  0  0999 V2000
  188.3410  177.6970  141.1920 C   0  0  0  0  0  0  0  0  0  0  0  0
  188.1910  177.4360  144.8810 C   0  0  0  0  0  3  0  0  0  0  0  0
  189.9910  177.5460  143.4550 N   0  0  0  0  0  0  0  0  0  0  0  0
  188.3790  177.8600  138.8030 C   0  0  0  0  0  0  0  0  0  0  0  0
  187.6870  177.8630  139.9980 N   0  0  0  0  0  0  0  0  0  0  0  0
  190.4240  177.5470  140.0120 C   0  0  0  0  0  0  0  0  0  0  0  0
  191.8120  177.5040  140.3590 N   0  0  0  0  0  0  0  0  0  0  0  0
  189.7950  177.7180  138.7790 C   0  0  0  0  0  3  0  0  0  0  0  0
  190.4970  177.5020  142.1990 C   0  0  0  0  0  0  0  0  0  0  0  0
  189.6930  177.5300  141.1380 C   0  0  0  0  0  0  0  0  0  0  0  0
  191.8600  177.4700  141.7760 N   0  0  0  0  0  0  0  0  0  0  0  0
  186.7800  177.1630  145.2780 C   0  0  0  0  0  2  0  0  0  0  0  0
  185.8570  178.2820  144.9520 C   0  0  0  0  0  0  0  0  0  0  0  0
  185.6840  178.6680  143.6900 C   0  0  0  0  0  3  0  0  0  0  0  0
  188.6260  177.6310  143.6330 C   0  0  0  0  0  0  0  0  0  0  0  0
  186.4800  178.2420  142.5250 C   0  0  0  0  0  3  0  0  0  0  0  0
  187.7530  177.8030  142.4790 C   0  0  0  0  0  0  0  0  0  0  0  0
  185.0310  178.8320  145.9900 N   0  0  0  0  0  0  0  0  0  0  0  0
  185.5870  179.1930  147.1960 O   0  0  0  0  0  0  0  0  0  0  0  0
  183.8070  179.0030  145.8110 O   0  0  0  0  0  0  0  0  0  0  0  0
  187.6360  178.0100  137.5200 C   0  0  0  0  0  2  0  0  0  0  0  0
  184.3430  176.2530  137.3530 C   0  0  0  0  0  3  0  0  0  0  0  0
  187.0430  175.5980  137.2180 C   0  0  0  0  0  3  0  0  0  0  0  0
  184.1360  172.5770  136.9290 C   0  0  0  0  0  0  0  0  0  0  0  0
  183.7490  173.9150  137.0920 C   0  0  0  0  0  3  0  0  0  0  0  0
  184.7160  174.9190  137.1860 C   0  0  0  0  0  0  0  0  0  0  0  0
  186.4720  173.2560  136.9570 C   0  0  0  0  0  3  0  0  0  0  0  0
  186.0850  174.5890  137.1180 C   0  0  0  0  0  0  0  0  0  0  0  0
  185.5010  172.2550  136.8620 C   0  0  0  0  0  3  0  0  0  0  0  0
  186.6250  176.9220  137.3780 C   0  0  0  0  0  0  0  0  0  0  0  0
  185.2980  177.2170  137.4480 N   0  0  0  0  0  0  0  0  0  0  0  0
  183.1140  171.5220  136.8310 C   0  0  0  0  0  0  0  0  0  0  0  0
  183.4300  170.3570  136.4670 O   0  0  0  0  0  0  0  0  0  0  0  0
  181.7880  171.8020  137.1400 O   0  0  0  0  0  1  0  0  0  0  0  0
  1 17  1  0  0  0  0
  2 12  1  0  0  0  0
  3 15  1  0  0  0  0
  4  5  1  0  0  0  0
  5  1  2  0  0  0  0
  6  7  1  0  0  0  0
  6 10  2  0  0  0  0
  7 11  2  0  0  0  0
  8  4  2  0  0  0  0
  8  6  1  0  0  0  0
  9  3  2  0  0  0  0
 10  1  1  0  0  0  0
 10  9  1  0  0  0  0
 11  9  1  0  0  0  0
 13 12  1  0  0  0  0
 13 18  1  0  0  0  0
 14 13  2  0  0  0  0
 15  2  2  0  0  0  0
 16 14  1  0  0  0  0
 17 16  2  0  0  0  0
 17 15  1  0  0  0  0
 18 19  2  0  0  0  0
 20 18  2  0  0  0  0
 21  4  1  0  0  0  0
 22 31  1  0  0  0  0
 23 30  1  0  0  0  0
 24 25  2  0  0  0  0
 25 26  1  0  0  0  0
 26 22  2  0  0  0  0
 27 28  1  0  0  0  0
 28 26  1  0  0  0  0
 28 23  2  0  0  0  0
 29 24  1  0  0  0  0
 29 27  2  0  0  0  0
 30 31  2  0  0  0  0
 30 21  1  0  0  0  0
 32 24  1  0  0  0  0
 32 34  1  0  0  0  0
 33 32  2  0  0  0  0
M  END
>  <MODEL>
5

>  <REMARK>
 VINA RESULT:     -10.8      4.521      7.202
  Name = 
  4 active torsions:
  status: ('A' for Active; 'I' for Inactive)
    1  A    between atoms: N_3  and  C_25
    2  A    between atoms: C_7  and  C_11
    3  A    between atoms: C_8  and  C_18
    4  A    between atoms: C_18  and  C_30
                            x       y       z     vdW  Elec       q    Type
                         _______ _______ _______ _____ _____    ______ ____

>  <TORSDO>
F 4

$$$$
=
 OpenBabel11042412163D

 34 39  0  0  0  0  0  0  0  0999 V2000
  188.4820  177.8000  144.5650 C   0  0  0  0  0  0  0  0  0  0  0  0
  191.4220  176.9920  142.4660 C   0  0  0  0  0  3  0  0  0  0  0  0
  191.0330  176.6400  144.7050 N   0  0  0  0  0  0  0  0  0  0  0  0
  186.5550  178.3520  145.8770 C   0  0  0  0  0  0  0  0  0  0  0  0
  187.1920  178.2550  144.6540 N   0  0  0  0  0  0  0  0  0  0  0  0
  188.5240  177.4980  146.9440 C   0  0  0  0  0  0  0  0  0  0  0  0
  189.4130  176.9110  147.9000 N   0  0  0  0  0  0  0  0  0  0  0  0
  187.2110  177.9500  147.0740 C   0  0  0  0  0  3  0  0  0  0  0  0
  190.2870  176.8620  145.8140 C   0  0  0  0  0  0  0  0  0  0  0  0
  189.0970  177.4540  145.7320 C   0  0  0  0  0  0  0  0  0  0  0  0
  190.5580  176.5020  147.1690 N   0  0  0  0  0  0  0  0  0  0  0  0
  191.2470  177.6440  141.1370 C   0  0  0  0  0  2  0  0  0  0  0  0
  190.0910  177.1060  140.3720 C   0  0  0  0  0  0  0  0  0  0  0  0
  188.8550  177.2070  140.8570 C   0  0  0  0  0  3  0  0  0  0  0  0
  190.5450  177.0270  143.4740 C   0  0  0  0  0  0  0  0  0  0  0  0
  188.4790  177.6270  142.2180 C   0  0  0  0  0  3  0  0  0  0  0  0
  189.1880  177.5470  143.3610 C   0  0  0  0  0  0  0  0  0  0  0  0
  190.3010  176.6270  139.0350 N   0  0  0  0  0  0  0  0  0  0  0  0
  189.9580  177.4120  137.9590 O   0  0  0  0  0  0  0  0  0  0  0  0
  190.8090  175.5040  138.8300 O   0  0  0  0  0  0  0  0  0  0  0  0
  185.1640  178.8810  145.9440 C   0  0  0  0  0  2  0  0  0  0  0  0
  182.5740  178.5790  143.2700 C   0  0  0  0  0  3  0  0  0  0  0  0
  185.3230  178.9660  143.4490 C   0  0  0  0  0  3  0  0  0  0  0  0
  183.4780  178.7500  139.6790 C   0  0  0  0  0  0  0  0  0  0  0  0
  182.7120  178.6290  140.8470 C   0  0  0  0  0  3  0  0  0  0  0  0
  183.3250  178.7020  142.1000 C   0  0  0  0  0  0  0  0  0  0  0  0
  185.4840  179.0180  141.0310 C   0  0  0  0  0  3  0  0  0  0  0  0
  184.7180  178.8980  142.1940 C   0  0  0  0  0  0  0  0  0  0  0  0
  184.8650  178.9450  139.7790 C   0  0  0  0  0  3  0  0  0  0  0  0
  184.5310  178.8430  144.5950 C   0  0  0  0  0  0  0  0  0  0  0  0
  183.1880  178.6480  144.4810 N   0  0  0  0  0  0  0  0  0  0  0  0
  182.8290  178.6700  138.3610 C   0  0  0  0  0  0  0  0  0  0  0  0
  183.0470  177.6900  137.5990 O   0  0  0  0  0  0  0  0  0  0  0  0
  181.9670  179.6790  137.9430 O   0  0  0  0  0  1  0  0  0  0  0  0
  1  5  2  0  0  0  0
  1 10  1  0  0  0  0
  2 15  2  0  0  0  0
  3  9  2  0  0  0  0
  4 21  1  0  0  0  0
  4  8  2  0  0  0  0
  5  4  1  0  0  0  0
  6  8  1  0  0  0  0
  6  7  1  0  0  0  0
  9 11  1  0  0  0  0
 10  9  1  0  0  0  0
 10  6  2  0  0  0  0
 11  7  2  0  0  0  0
 12  2  1  0  0  0  0
 13 14  2  0  0  0  0
 13 12  1  0  0  0  0
 14 16  1  0  0  0  0
 15  3  1  0  0  0  0
 16 17  2  0  0  0  0
 17 15  1  0  0  0  0
 17  1  1  0  0  0  0
 18 13  1  0  0  0  0
 19 18  2  0  0  0  0
 20 18  2  0  0  0  0
 22 31  1  0  0  0  0
 23 30  1  0  0  0  0
 24 29  1  0  0  0  0
 24 25  2  0  0  0  0
 25 26  1  0  0  0  0
 26 28  1  0  0  0  0
 26 22  2  0  0  0  0
 27 28  1  0  0  0  0
 28 23  2  0  0  0  0
 29 27  2  0  0  0  0
 30 21  1  0  0  0  0
 31 30  2  0  0  0  0
 32 24  1  0  0  0  0
 33 32  2  0  0  0  0
 34 32  1  0  0  0  0
M  END
>  <MODEL>
6

>  <REMARK>
 VINA RESULT:     -10.8      1.228      1.803
  Name = 
  4 active torsions:
  status: ('A' for Active; 'I' for Inactive)
    1  A    between atoms: N_3  and  C_25
    2  A    between atoms: C_7  and  C_11
    3  A    between atoms: C_8  and  C_18
    4  A    between atoms: C_18  and  C_30
                            x       y       z     vdW  Elec       q    Type
                         _______ _______ _______ _____ _____    ______ ____

>  <TORSDO>
F 4

$$$$
=
 OpenBabel11042412163D

 34 39  0  0  0  0  0  0  0  0999 V2000
  189.0490  177.6820  143.3640 C   0  0  0  0  0  0  0  0  0  0  0  0
  190.4930  177.5380  139.9580 C   0  0  0  0  0  3  0  0  0  0  0  0
  191.2080  176.6030  141.9340 N   0  0  0  0  0  0  0  0  0  0  0  0
  188.0740  177.8140  145.5480 C   0  0  0  0  0  0  0  0  0  0  0  0
  188.0210  178.0590  144.1890 N   0  0  0  0  0  0  0  0  0  0  0  0
  190.2120  176.7710  145.2540 C   0  0  0  0  0  0  0  0  0  0  0  0
  191.3870  175.9820  145.4670 N   0  0  0  0  0  0  0  0  0  0  0  0
  189.1840  177.1340  146.1240 C   0  0  0  0  0  3  0  0  0  0  0  0
  191.1250  176.5050  143.2820 C   0  0  0  0  0  0  0  0  0  0  0  0
  190.1140  177.0620  143.9470 C   0  0  0  0  0  0  0  0  0  0  0  0
  191.9810  175.8120  144.1910 N   0  0  0  0  0  0  0  0  0  0  0  0
  189.7620  178.5090  139.0950 C   0  0  0  0  0  2  0  0  0  0  0  0
  188.3310  178.1550  138.9010 C   0  0  0  0  0  0  0  0  0  0  0  0
  187.5060  178.0890  139.9440 C   0  0  0  0  0  3  0  0  0  0  0  0
  190.2260  177.2820  141.2430 C   0  0  0  0  0  0  0  0  0  0  0  0
  187.8860  178.1270  141.3670 C   0  0  0  0  0  3  0  0  0  0  0  0
  189.0490  177.7730  141.9480 C   0  0  0  0  0  0  0  0  0  0  0  0
  187.8120  178.0470  137.5670 N   0  0  0  0  0  0  0  0  0  0  0  0
  188.1850  176.9930  136.7650 O   0  0  0  0  0  0  0  0  0  0  0  0
  187.0090  178.8940  137.1230 O   0  0  0  0  0  0  0  0  0  0  0  0
  186.9560  178.2650  146.4230 C   0  0  0  0  0  2  0  0  0  0  0  0
  183.4090  179.0300  145.5360 C   0  0  0  0  0  3  0  0  0  0  0  0
  185.7360  178.2270  144.2390 C   0  0  0  0  0  3  0  0  0  0  0  0
  182.1850  178.7350  142.0500 C   0  0  0  0  0  0  0  0  0  0  0  0
  182.2010  178.9700  143.4320 C   0  0  0  0  0  3  0  0  0  0  0  0
  183.3820  178.8030  144.1590 C   0  0  0  0  0  0  0  0  0  0  0  0
  184.5480  178.1600  142.1280 C   0  0  0  0  0  3  0  0  0  0  0  0
  184.5620  178.3960  143.5040 C   0  0  0  0  0  0  0  0  0  0  0  0
  183.3640  178.3290  141.4040 C   0  0  0  0  0  3  0  0  0  0  0  0
  185.7200  178.4720  145.6160 C   0  0  0  0  0  0  0  0  0  0  0  0
  184.5670  178.8580  146.2290 N   0  0  0  0  0  0  0  0  0  0  0  0
  180.9380  178.9100  141.2880 C   0  0  0  0  0  0  0  0  0  0  0  0
  180.0790  179.7570  141.6540 O   0  0  0  0  0  1  0  0  0  0  0  0
  180.6960  178.1410  140.1550 O   0  0  0  0  0  0  0  0  0  0  0  0
  1 10  2  0  0  0  0
  1  5  1  0  0  0  0
  2 15  2  0  0  0  0
  3  9  2  0  0  0  0
  4  8  1  0  0  0  0
  4 21  1  0  0  0  0
  5  4  2  0  0  0  0
  6  7  1  0  0  0  0
  6  8  2  0  0  0  0
  9 10  1  0  0  0  0
  9 11  1  0  0  0  0
 10  6  1  0  0  0  0
 11  7  2  0  0  0  0
 12  2  1  0  0  0  0
 13 12  1  0  0  0  0
 13 14  2  0  0  0  0
 14 16  1  0  0  0  0
 15  3  1  0  0  0  0
 15 17  1  0  0  0  0
 16 17  2  0  0  0  0
 17  1  1  0  0  0  0
 18 13  1  0  0  0  0
 19 18  2  0  0  0  0
 20 18  2  0  0  0  0
 22 31  1  0  0  0  0
 23 30  1  0  0  0  0
 24 25  2  0  0  0  0
 25 26  1  0  0  0  0
 26 22  2  0  0  0  0
 27 28  1  0  0  0  0
 28 26  1  0  0  0  0
 28 23  2  0  0  0  0
 29 24  1  0  0  0  0
 29 27  2  0  0  0  0
 30 31  2  0  0  0  0
 30 21  1  0  0  0  0
 32 33  1  0  0  0  0
 32 24  1  0  0  0  0
 34 32  2  0  0  0  0
M  END
>  <MODEL>
7

>  <REMARK>
 VINA RESULT:     -10.5      1.335      1.880
  Name = 
  4 active torsions:
  status: ('A' for Active; 'I' for Inactive)
    1  A    between atoms: N_3  and  C_25
    2  A    between atoms: C_7  and  C_11
    3  A    between atoms: C_8  and  C_18
    4  A    between atoms: C_18  and  C_30
                            x       y       z     vdW  Elec       q    Type
                         _______ _______ _______ _____ _____    ______ ____

>  <TORSDO>
F 4

$$$$
=
 OpenBabel11042412163D

 34 39  0  0  0  0  0  0  0  0999 V2000
  184.6970  178.6780  142.6160 C   0  0  0  0  0  0  0  0  0  0  0  0
  185.0930  178.6780  146.2960 C   0  0  0  0  0  3  0  0  0  0  0  0
  183.2010  178.6620  144.9890 N   0  0  0  0  0  0  0  0  0  0  0  0
  184.4990  178.6850  140.2290 C   0  0  0  0  0  0  0  0  0  0  0  0
  185.2690  178.6000  141.3730 N   0  0  0  0  0  0  0  0  0  0  0  0
  182.5400  178.9020  141.5910 C   0  0  0  0  0  0  0  0  0  0  0  0
  181.1780  178.9160  142.0320 N   0  0  0  0  0  0  0  0  0  0  0  0
  183.0850  178.8230  140.3100 C   0  0  0  0  0  3  0  0  0  0  0  0
  182.6130  178.7930  143.7760 C   0  0  0  0  0  0  0  0  0  0  0  0
  183.3440  178.8430  142.6640 C   0  0  0  0  0  0  0  0  0  0  0  0
  181.2240  178.8490  143.4470 N   0  0  0  0  0  0  0  0  0  0  0  0
  186.5270  178.9280  146.6160 C   0  0  0  0  0  2  0  0  0  0  0  0
  187.4260  177.8380  146.1510 C   0  0  0  0  0  0  0  0  0  0  0  0
  187.5140  177.5440  144.8560 C   0  0  0  0  0  3  0  0  0  0  0  0
  184.5750  178.5700  145.0690 C   0  0  0  0  0  0  0  0  0  0  0  0
  186.6420  178.0480  143.7800 C   0  0  0  0  0  3  0  0  0  0  0  0
  185.3690  178.4840  143.8500 C   0  0  0  0  0  0  0  0  0  0  0  0
  188.3180  177.2200  147.0910 N   0  0  0  0  0  0  0  0  0  0  0  0
  187.9710  177.1360  148.4190 O   0  0  0  0  0  0  0  0  0  0  0  0
  189.4080  176.7390  146.7160 O   0  0  0  0  0  0  0  0  0  0  0  0
  185.1550  178.6300  138.8920 C   0  0  0  0  0  2  0  0  0  0  0  0
  188.5920  178.3280  140.3240 C   0  0  0  0  0  3  0  0  0  0  0  0
  187.2500  177.5930  138.0000 C   0  0  0  0  0  3  0  0  0  0  0  0
  191.3290  176.6810  138.4430 C   0  0  0  0  0  0  0  0  0  0  0  0
  190.6420  177.3530  139.4640 C   0  0  0  0  0  3  0  0  0  0  0  0
  189.2860  177.6550  139.3170 C   0  0  0  0  0  0  0  0  0  0  0  0
  189.2870  176.6150  137.1220 C   0  0  0  0  0  3  0  0  0  0  0  0
  188.6030  177.2840  138.1400 C   0  0  0  0  0  0  0  0  0  0  0  0
  190.6440  176.3150  137.2730 C   0  0  0  0  0  3  0  0  0  0  0  0
  186.5930  178.2620  139.0370 C   0  0  0  0  0  0  0  0  0  0  0  0
  187.2730  178.6170  140.1620 N   0  0  0  0  0  0  0  0  0  0  0  0
  192.7580  176.3670  138.6010 C   0  0  0  0  0  0  0  0  0  0  0  0
  193.2740  175.4050  137.9720 O   0  0  0  0  0  0  0  0  0  0  0  0
  193.5520  177.1310  139.4480 O   0  0  0  0  0  1  0  0  0  0  0  0
  1 10  1  0  0  0  0
  1 17  1  0  0  0  0
  2 12  1  0  0  0  0
  3 15  1  0  0  0  0
  4  8  2  0  0  0  0
  4  5  1  0  0  0  0
  5  1  2  0  0  0  0
  6  7  1  0  0  0  0
  6 10  2  0  0  0  0
  7 11  2  0  0  0  0
  8  6  1  0  0  0  0
  9  3  2  0  0  0  0
 10  9  1  0  0  0  0
 11  9  1  0  0  0  0
 13 12  1  0  0  0  0
 13 18  1  0  0  0  0
 14 13  2  0  0  0  0
 15  2  2  0  0  0  0
 16 17  2  0  0  0  0
 16 14  1  0  0  0  0
 17 15  1  0  0  0  0
 18 19  2  0  0  0  0
 20 18  2  0  0  0  0
 21 30  1  0  0  0  0
 21  4  1  0  0  0  0
 23 28  2  0  0  0  0
 23 30  1  0  0  0  0
 24 32  1  0  0  0  0
 24 25  2  0  0  0  0
 26 25  1  0  0  0  0
 26 22  2  0  0  0  0
 27 29  2  0  0  0  0
 27 28  1  0  0  0  0
 28 26  1  0  0  0  0
 29 24  1  0  0  0  0
 30 31  2  0  0  0  0
 31 22  1  0  0  0  0
 32 34  1  0  0  0  0
 33 32  2  0  0  0  0
M  END
>  <MODEL>
8

>  <REMARK>
 VINA RESULT:     -10.3      3.458      8.341
  Name = 
  4 active torsions:
  status: ('A' for Active; 'I' for Inactive)
    1  A    between atoms: N_3  and  C_25
    2  A    between atoms: C_7  and  C_11
    3  A    between atoms: C_8  and  C_18
    4  A    between atoms: C_18  and  C_30
                            x       y       z     vdW  Elec       q    Type
                         _______ _______ _______ _____ _____    ______ ____

>  <TORSDO>
F 4

$$$$
=
 OpenBabel11042412163D

 34 39  0  0  0  0  0  0  0  0999 V2000
  188.5010  177.5630  141.3140 C   0  0  0  0  0  0  0  0  0  0  0  0
  188.0970  177.4840  144.9930 C   0  0  0  0  0  3  0  0  0  0  0  0
  189.9910  177.5580  143.6910 N   0  0  0  0  0  0  0  0  0  0  0  0
  188.7040  177.6070  138.9280 C   0  0  0  0  0  0  0  0  0  0  0  0
  187.9300  177.6560  140.0710 N   0  0  0  0  0  0  0  0  0  0  0  0
  190.6640  177.3960  140.2900 C   0  0  0  0  0  0  0  0  0  0  0  0
  192.0250  177.3970  140.7350 N   0  0  0  0  0  0  0  0  0  0  0  0
  190.1200  177.4920  139.0100 C   0  0  0  0  0  3  0  0  0  0  0  0
  190.5840  177.4610  142.4770 C   0  0  0  0  0  0  0  0  0  0  0  0
  189.8560  177.4210  141.3620 C   0  0  0  0  0  0  0  0  0  0  0  0
  191.9740  177.4350  142.1510 N   0  0  0  0  0  0  0  0  0  0  0  0
  186.6660  177.2040  145.3040 C   0  0  0  0  0  2  0  0  0  0  0  0
  185.7500  178.2870  144.8580 C   0  0  0  0  0  0  0  0  0  0  0  0
  185.6600  178.6060  143.5690 C   0  0  0  0  0  3  0  0  0  0  0  0
  188.6150  177.6250  143.7690 C   0  0  0  0  0  0  0  0  0  0  0  0
  186.5430  178.1370  142.4850 C   0  0  0  0  0  3  0  0  0  0  0  0
  187.8230  177.7220  142.5500 C   0  0  0  0  0  0  0  0  0  0  0  0
  184.8450  178.8710  145.8070 N   0  0  0  0  0  0  0  0  0  0  0  0
  183.5390  179.1220  145.4510 O   0  0  0  0  0  0  0  0  0  0  0  0
  185.2210  179.1450  146.9660 O   0  0  0  0  0  0  0  0  0  0  0  0
  188.0500  177.6770  137.5910 C   0  0  0  0  0  2  0  0  0  0  0  0
  184.5540  176.3950  137.3020 C   0  0  0  0  0  3  0  0  0  0  0  0
  185.8600  178.6120  138.3590 C   0  0  0  0  0  3  0  0  0  0  0  0
  181.6770  178.3150  138.6350 C   0  0  0  0  0  0  0  0  0  0  0  0
  182.4170  177.2990  138.0130 C   0  0  0  0  0  3  0  0  0  0  0  0
  183.8070  177.3970  137.9230 C   0  0  0  0  0  0  0  0  0  0  0  0
  183.7360  179.5340  139.0760 C   0  0  0  0  0  3  0  0  0  0  0  0
  184.4720  178.5200  138.4570 C   0  0  0  0  0  0  0  0  0  0  0  0
  182.3450  179.4300  139.1650 C   0  0  0  0  0  3  0  0  0  0  0  0
  186.5690  177.5810  137.7340 C   0  0  0  0  0  0  0  0  0  0  0  0
  185.9060  176.5090  137.2190 N   0  0  0  0  0  0  0  0  0  0  0  0
  180.2120  178.2080  138.7260 C   0  0  0  0  0  0  0  0  0  0  0  0
  179.4740  179.1010  138.2290 O   0  0  0  0  0  0  0  0  0  0  0  0
  179.6280  177.1200  139.3640 O   0  0  0  0  0  1  0  0  0  0  0  0
  1 10  1  0  0  0  0
  1 17  1  0  0  0  0
  2 12  1  0  0  0  0
  3 15  1  0  0  0  0
  4  8  2  0  0  0  0
  4  5  1  0  0  0  0
  5  1  2  0  0  0  0
  6  7  1  0  0  0  0
  6 10  2  0  0  0  0
  7 11  2  0  0  0  0
  8  6  1  0  0  0  0
  9  3  2  0  0  0  0
 10  9  1  0  0  0  0
 11  9  1  0  0  0  0
 13 12  1  0  0  0  0
 13 18  1  0  0  0  0
 14 13  2  0  0  0  0
 15  2  2  0  0  0  0
 16 17  2  0  0  0  0
 16 14  1  0  0  0  0
 17 15  1  0  0  0  0
 18 20  2  0  0  0  0
 19 18  2  0  0  0  0
 21 30  1  0  0  0  0
 21  4  1  0  0  0  0
 22 26  1  0  0  0  0
 23 28  1  0  0  0  0
 24 32  1  0  0  0  0
 24 29  1  0  0  0  0
 25 24  2  0  0  0  0
 26 25  1  0  0  0  0
 26 28  2  0  0  0  0
 27 29  2  0  0  0  0
 28 27  1  0  0  0  0
 30 23  2  0  0  0  0
 31 22  2  0  0  0  0
 31 30  1  0  0  0  0
 32 34  1  0  0  0  0
 33 32  2  0  0  0  0
M  END
>  <MODEL>
9

>  <REMARK>
 VINA RESULT:     -10.3      3.203      6.199
  Name = 
  4 active torsions:
  status: ('A' for Active; 'I' for Inactive)
    1  A    between atoms: N_3  and  C_25
    2  A    between atoms: C_7  and  C_11
    3  A    between atoms: C_8  and  C_18
    4  A    between atoms: C_18  and  C_30
                            x       y       z     vdW  Elec       q    Type
                         _______ _______ _______ _____ _____    ______ ____

>  <TORSDO>
F 4

$$$$
