=
 OpenBabel11032420253D

 39 41  0  0  0  0  0  0  0  0999 V2000
  186.8220  177.4300  143.7390 C   0  0  0  0  0  0  0  0  0  0  0  0
  187.0230  177.8740  145.0760 C   0  0  0  0  0  0  0  0  0  0  0  0
  185.6290  177.7330  143.0750 C   0  0  0  0  0  3  0  0  0  0  0  0
  185.9780  178.5860  145.6930 C   0  0  0  0  0  3  0  0  0  0  0  0
  184.7930  178.8760  145.0180 C   0  0  0  0  0  3  0  0  0  0  0  0
  184.6070  178.4680  143.6920 C   0  0  0  0  0  0  0  0  0  0  0  0
  189.4800  177.2510  145.2730 C   0  0  0  0  0  3  0  0  0  0  0  0
  190.6090  177.2770  147.4160 C   0  0  0  0  0  0  0  0  0  0  0  0
  190.6410  177.0710  146.0300 C   0  0  0  0  0  0  0  0  0  0  0  0
  188.2620  177.8470  147.2660 C   0  0  0  0  0  3  0  0  0  0  0  0
  189.4190  177.6680  148.0300 C   0  0  0  0  0  3  0  0  0  0  0  0
  188.2710  177.6370  145.8720 C   0  0  0  0  0  0  0  0  0  0  0  0
  191.7530  177.0970  148.1850 O   0  0  0  0  0  1  0  0  0  0  0  0
  191.8970  176.6580  145.3440 C   0  0  0  0  0  1  0  0  0  0  0  0
  180.9580  179.2360  143.0620 C   0  0  0  0  0  3  0  0  0  0  0  0
  182.1820  179.0040  143.6900 C   0  0  0  0  0  3  0  0  0  0  0  0
  180.8730  179.2260  141.6730 C   0  0  0  0  0  3  0  0  0  0  0  0
  183.3500  178.7610  142.9440 C   0  0  0  0  0  0  0  0  0  0  0  0
  183.2510  178.7530  141.5230 C   0  0  0  0  0  0  0  0  0  0  0  0
  182.0140  178.9850  140.9100 C   0  0  0  0  0  3  0  0  0  0  0  0
  184.4130  178.4850  140.6250 C   0  0  0  0  0  2  0  0  0  0  0  0
  184.6830  179.6590  139.8100 N   0  0  0  0  0  1  0  0  0  0  0  0
  187.7950  176.6240  142.9880 C   0  0  0  0  0  0  0  0  0  0  0  0
  188.4310  177.1320  141.8140 N   0  0  0  0  0  2  0  0  0  0  0  0
  188.0410  175.4490  143.3650 O   0  0  0  0  0  0  0  0  0  0  0  0
  188.3100  178.5210  141.3930 C   0  0  0  0  0  2  0  0  0  0  0  0
  189.0140  178.7250  140.0610 C   0  0  0  0  0  2  0  0  0  0  0  0
  190.8150  175.8130  138.7830 O   0  0  0  0  0  0  0  0  0  0  0  0
  189.2610  177.4530  139.3900 N   0  0  0  0  0  0  0  0  0  0  0  0
  190.5270  176.7900  139.5220 C   0  0  0  0  0  0  0  0  0  0  0  0
  191.4540  177.2230  140.4630 O   0  0  0  0  0  1  0  0  0  0  0  0
  188.2650  176.9650  138.4440 C   0  0  0  0  0  2  0  0  0  0  0  0
  187.9500  178.0410  137.4190 C   0  0  0  0  0  2  0  0  0  0  0  0
  186.4710  177.9960  137.0920 C   0  0  0  0  0  2  0  0  0  0  0  0
  184.1500  175.1390  137.4900 N   0  0  0  0  0  2  0  0  0  0  0  0
  185.9300  176.6760  137.3930 N   0  0  0  0  0  2  0  0  0  0  0  0
  184.5470  176.3410  137.2280 C   0  0  0  0  0  0  0  0  0  0  0  0
  183.5790  177.3160  136.6420 C   0  0  0  0  0  2  0  0  0  0  0  0
  182.7090  177.7670  137.6350 O   0  0  0  0  0  1  0  0  0  0  0  0
  1  2  1  0  0  0  0
  2  4  2  0  0  0  0
  2 12  1  0  0  0  0
  3  6  1  0  0  0  0
  3  1  2  0  0  0  0
  5  4  1  0  0  0  0
  6  5  2  0  0  0  0
  7 12  2  0  0  0  0
  7  9  1  0  0  0  0
  8 11  1  0  0  0  0
  8 13  1  0  0  0  0
  9  8  2  0  0  0  0
 10 11  2  0  0  0  0
 12 10  1  0  0  0  0
 14  9  1  0  0  0  0
 15 16  1  0  0  0  0
 17 15  2  0  0  0  0
 18 16  2  0  0  0  0
 18  6  1  0  0  0  0
 19 18  1  0  0  0  0
 20 19  2  0  0  0  0
 20 17  1  0  0  0  0
 21 19  1  0  0  0  0
 22 21  1  0  0  0  0
 23 25  2  0  0  0  0
 23  1  1  0  0  0  0
 24 23  1  0  0  0  0
 26 24  1  0  0  0  0
 27 26  1  0  0  0  0
 28 30  2  0  0  0  0
 29 30  1  0  0  0  0
 29 27  1  0  0  0  0
 30 31  1  0  0  0  0
 32 29  1  0  0  0  0
 33 32  1  0  0  0  0
 34 36  1  0  0  0  0
 34 33  1  0  0  0  0
 37 36  1  0  0  0  0
 37 35  2  0  0  0  0
 38 37  1  0  0  0  0
 38 39  1  0  0  0  0
M  END
>  <MODEL>
1

>  <REMARK>
 VINA RESULT:      -9.4      0.000      0.000
  Name = 
  12 active torsions:
  status: ('A' for Active; 'I' for Inactive)
    1  A    between atoms: C_1  and  C_14
    2  A    between atoms: C_2  and  C_21
    3  A    between atoms: N_8  and  C_33
    4  A    between atoms: C_9  and  C_32
    5  A    between atoms: C_13  and  C_25
    6  A    between atoms: C_13  and  C_33
    7  A    between atoms: C_18  and  N_20
    8  A    between atoms: C_18  and  C_23
    9  A    between atoms: C_19  and  C_30
   10  A    between atoms: N_22  and  C_23
   11  A    between atoms: N_22  and  C_25
   12  A    between atoms: C_27  and  C_34
                            x       y       z     vdW  Elec       q    Type
                         _______ _______ _______ _____ _____    ______ ____

>  <TORSDO>
F 12

$$$$
=
 OpenBabel11032420253D

 39 41  0  0  0  0  0  0  0  0999 V2000
  186.7580  177.4100  143.7500 C   0  0  0  0  0  0  0  0  0  0  0  0
  186.9780  177.8580  145.0830 C   0  0  0  0  0  0  0  0  0  0  0  0
  185.5550  177.7100  143.1030 C   0  0  0  0  0  3  0  0  0  0  0  0
  185.9410  178.5690  145.7140 C   0  0  0  0  0  3  0  0  0  0  0  0
  184.7460  178.8550  145.0560 C   0  0  0  0  0  3  0  0  0  0  0  0
  184.5410  178.4440  143.7340 C   0  0  0  0  0  0  0  0  0  0  0  0
  189.4410  177.2450  145.2430 C   0  0  0  0  0  3  0  0  0  0  0  0
  190.6010  177.2730  147.3690 C   0  0  0  0  0  0  0  0  0  0  0  0
  190.6130  177.0690  145.9830 C   0  0  0  0  0  0  0  0  0  0  0  0
  188.2500  177.8340  147.2540 C   0  0  0  0  0  3  0  0  0  0  0  0
  189.4180  177.6590  148.0010 C   0  0  0  0  0  3  0  0  0  0  0  0
  188.2390  177.6260  145.8600 C   0  0  0  0  0  0  0  0  0  0  0  0
  191.7570  177.0970  148.1220 O   0  0  0  0  0  1  0  0  0  0  0  0
  191.8620  176.6620  145.2780 C   0  0  0  0  0  1  0  0  0  0  0  0
  180.8860  179.2270  143.1600 C   0  0  0  0  0  3  0  0  0  0  0  0
  182.1200  178.9980  143.7680 C   0  0  0  0  0  3  0  0  0  0  0  0
  180.7750  179.1930  141.7730 C   0  0  0  0  0  3  0  0  0  0  0  0
  183.2720  178.7330  143.0050 C   0  0  0  0  0  0  0  0  0  0  0  0
  183.1450  178.7000  141.5870 C   0  0  0  0  0  0  0  0  0  0  0  0
  181.8990  178.9300  140.9920 C   0  0  0  0  0  3  0  0  0  0  0  0
  184.2890  178.4070  140.6720 C   0  0  0  0  0  2  0  0  0  0  0  0
  184.8440  179.6530  140.1680 N   0  0  0  0  0  1  0  0  0  0  0  0
  187.7210  176.6060  142.9860 C   0  0  0  0  0  0  0  0  0  0  0  0
  188.3200  177.1030  141.7880 N   0  0  0  0  0  2  0  0  0  0  0  0
  187.9930  175.4390  143.3740 O   0  0  0  0  0  0  0  0  0  0  0  0
  188.1700  178.4830  141.3490 C   0  0  0  0  0  2  0  0  0  0  0  0
  189.0060  178.7280  140.1020 C   0  0  0  0  0  2  0  0  0  0  0  0
  187.6400  176.4740  137.5700 O   0  0  0  0  0  0  0  0  0  0  0  0
  188.9130  177.6070  139.1730 N   0  0  0  0  0  0  0  0  0  0  0  0
  187.8410  177.5310  138.2210 C   0  0  0  0  0  0  0  0  0  0  0  0
  187.0070  178.6240  138.0120 O   0  0  0  0  0  1  0  0  0  0  0  0
  189.8240  176.4830  139.3520 C   0  0  0  0  0  2  0  0  0  0  0  0
  191.2590  176.9780  139.4000 C   0  0  0  0  0  2  0  0  0  0  0  0
  191.9190  176.7170  138.0610 C   0  0  0  0  0  2  0  0  0  0  0  0
  193.2240  173.4280  136.9710 N   0  0  0  0  0  2  0  0  0  0  0  0
  192.0690  175.2830  137.8470 N   0  0  0  0  0  2  0  0  0  0  0  0
  193.1450  174.7130  137.0920 C   0  0  0  0  0  0  0  0  0  0  0  0
  194.2450  175.5650  136.5480 C   0  0  0  0  0  2  0  0  0  0  0  0
  195.4360  175.2720  137.2120 O   0  0  0  0  0  1  0  0  0  0  0  0
  1  2  1  0  0  0  0
  2  4  2  0  0  0  0
  2 12  1  0  0  0  0
  3  6  1  0  0  0  0
  3  1  2  0  0  0  0
  5  4  1  0  0  0  0
  6  5  2  0  0  0  0
  7 12  2  0  0  0  0
  7  9  1  0  0  0  0
  8 11  1  0  0  0  0
  8 13  1  0  0  0  0
  9  8  2  0  0  0  0
 10 11  2  0  0  0  0
 12 10  1  0  0  0  0
 14  9  1  0  0  0  0
 15 16  1  0  0  0  0
 17 15  2  0  0  0  0
 18  6  1  0  0  0  0
 18 16  2  0  0  0  0
 19 18  1  0  0  0  0
 20 19  2  0  0  0  0
 20 17  1  0  0  0  0
 21 19  1  0  0  0  0
 22 21  1  0  0  0  0
 23 25  2  0  0  0  0
 23  1  1  0  0  0  0
 24 23  1  0  0  0  0
 26 24  1  0  0  0  0
 27 26  1  0  0  0  0
 28 30  2  0  0  0  0
 29 32  1  0  0  0  0
 29 27  1  0  0  0  0
 30 29  1  0  0  0  0
 31 30  1  0  0  0  0
 32 33  1  0  0  0  0
 34 33  1  0  0  0  0
 35 37  2  0  0  0  0
 36 34  1  0  0  0  0
 37 36  1  0  0  0  0
 38 37  1  0  0  0  0
 38 39  1  0  0  0  0
M  END
>  <MODEL>
2

>  <REMARK>
 VINA RESULT:      -9.0      1.999      3.885
  Name = 
  12 active torsions:
  status: ('A' for Active; 'I' for Inactive)
    1  A    between atoms: C_1  and  C_14
    2  A    between atoms: C_2  and  C_21
    3  A    between atoms: N_8  and  C_33
    4  A    between atoms: C_9  and  C_32
    5  A    between atoms: C_13  and  C_25
    6  A    between atoms: C_13  and  C_33
    7  A    between atoms: C_18  and  N_20
    8  A    between atoms: C_18  and  C_23
    9  A    between atoms: C_19  and  C_30
   10  A    between atoms: N_22  and  C_23
   11  A    between atoms: N_22  and  C_25
   12  A    between atoms: C_27  and  C_34
                            x       y       z     vdW  Elec       q    Type
                         _______ _______ _______ _____ _____    ______ ____

>  <TORSDO>
F 12

$$$$
=
 OpenBabel11032420253D

 39 41  0  0  0  0  0  0  0  0999 V2000
  188.4300  178.0750  140.3460 C   0  0  0  0  0  0  0  0  0  0  0  0
  189.4880  177.2140  140.7500 C   0  0  0  0  0  0  0  0  0  0  0  0
  187.3780  178.3490  141.2260 C   0  0  0  0  0  3  0  0  0  0  0  0
  189.4100  176.6400  142.0320 C   0  0  0  0  0  3  0  0  0  0  0  0
  188.3520  176.9200  142.8960 C   0  0  0  0  0  3  0  0  0  0  0  0
  187.3280  177.7930  142.5120 C   0  0  0  0  0  0  0  0  0  0  0  0
  190.5850  176.0700  138.7630 C   0  0  0  0  0  3  0  0  0  0  0  0
  192.9500  176.3370  138.3130 C   0  0  0  0  0  0  0  0  0  0  0  0
  191.7030  175.7980  137.9690 C   0  0  0  0  0  0  0  0  0  0  0  0
  191.9410  177.4160  140.2300 C   0  0  0  0  0  3  0  0  0  0  0  0
  193.0650  177.1490  139.4420 C   0  0  0  0  0  3  0  0  0  0  0  0
  190.6800  176.8770  139.9060 C   0  0  0  0  0  0  0  0  0  0  0  0
  194.0740  176.0730  137.5380 O   0  0  0  0  0  1  0  0  0  0  0  0
  191.5460  174.9320  136.7660 C   0  0  0  0  0  1  0  0  0  0  0  0
  183.8350  178.7600  143.5900 C   0  0  0  0  0  3  0  0  0  0  0  0
  184.9400  178.4050  142.8180 C   0  0  0  0  0  3  0  0  0  0  0  0
  183.9450  178.8320  144.9760 C   0  0  0  0  0  3  0  0  0  0  0  0
  186.1810  178.1100  143.4120 C   0  0  0  0  0  0  0  0  0  0  0  0
  186.2820  178.1870  144.8310 C   0  0  0  0  0  0  0  0  0  0  0  0
  185.1630  178.5480  145.5910 C   0  0  0  0  0  3  0  0  0  0  0  0
  187.5490  177.9190  145.5740 C   0  0  0  0  0  2  0  0  0  0  0  0
  187.2550  177.7130  146.9830 N   0  0  0  0  0  1  0  0  0  0  0  0
  188.3420  178.6970  139.0170 C   0  0  0  0  0  0  0  0  0  0  0  0
  187.3470  178.2970  138.0740 N   0  0  0  0  0  2  0  0  0  0  0  0
  189.1860  179.5720  138.6910 O   0  0  0  0  0  0  0  0  0  0  0  0
  186.2530  177.4000  138.4180 C   0  0  0  0  0  2  0  0  0  0  0  0
  184.9970  177.7920  137.6570 C   0  0  0  0  0  2  0  0  0  0  0  0
  182.7240  179.0570  140.2240 O   0  0  0  0  0  1  0  0  0  0  0  0
  183.8410  177.8730  138.5440 N   0  0  0  0  0  0  0  0  0  0  0  0
  183.5870  179.0610  139.3090 C   0  0  0  0  0  0  0  0  0  0  0  0
  184.2960  180.2290  139.0510 O   0  0  0  0  0  0  0  0  0  0  0  0
  183.0590  176.6640  138.7740 C   0  0  0  0  0  2  0  0  0  0  0  0
  182.4100  176.2110  137.4780 C   0  0  0  0  0  2  0  0  0  0  0  0
  182.6770  174.7330  137.2800 C   0  0  0  0  0  2  0  0  0  0  0  0
  185.8370  172.9230  137.9520 N   0  0  0  0  0  2  0  0  0  0  0  0
  184.0070  174.3930  137.7710 N   0  0  0  0  0  2  0  0  0  0  0  0
  184.6430  173.1370  137.5030 C   0  0  0  0  0  0  0  0  0  0  0  0
  184.0060  172.1210  136.6120 C   0  0  0  0  0  2  0  0  0  0  0  0
  183.0100  171.4420  137.3130 O   0  0  0  0  0  1  0  0  0  0  0  0
  1  2  2  0  0  0  0
  1  3  1  0  0  0  0
  2  4  1  0  0  0  0
  3  6  2  0  0  0  0
  4  5  2  0  0  0  0
  6  5  1  0  0  0  0
  6 18  1  0  0  0  0
  7 12  1  0  0  0  0
  8 11  2  0  0  0  0
  9  8  1  0  0  0  0
  9  7  2  0  0  0  0
 11 10  1  0  0  0  0
 12 10  2  0  0  0  0
 12  2  1  0  0  0  0
 13  8  1  0  0  0  0
 14  9  1  0  0  0  0
 15 17  1  0  0  0  0
 16 18  1  0  0  0  0
 16 15  2  0  0  0  0
 17 20  2  0  0  0  0
 18 19  2  0  0  0  0
 19 21  1  0  0  0  0
 19 20  1  0  0  0  0
 21 22  1  0  0  0  0
 23  1  1  0  0  0  0
 24 26  1  0  0  0  0
 24 23  1  0  0  0  0
 25 23  2  0  0  0  0
 27 26  1  0  0  0  0
 27 29  1  0  0  0  0
 29 32  1  0  0  0  0
 29 30  1  0  0  0  0
 30 28  1  0  0  0  0
 31 30  2  0  0  0  0
 33 32  1  0  0  0  0
 34 33  1  0  0  0  0
 34 36  1  0  0  0  0
 37 36  1  0  0  0  0
 37 35  2  0  0  0  0
 38 39  1  0  0  0  0
 38 37  1  0  0  0  0
M  END
>  <MODEL>
3

>  <REMARK>
 VINA RESULT:      -8.9      2.901      6.016
  Name = 
  12 active torsions:
  status: ('A' for Active; 'I' for Inactive)
    1  A    between atoms: C_1  and  C_14
    2  A    between atoms: C_2  and  C_21
    3  A    between atoms: N_8  and  C_33
    4  A    between atoms: C_9  and  C_32
    5  A    between atoms: C_13  and  C_25
    6  A    between atoms: C_13  and  C_33
    7  A    between atoms: C_18  and  N_20
    8  A    between atoms: C_18  and  C_23
    9  A    between atoms: C_19  and  C_30
   10  A    between atoms: N_22  and  C_23
   11  A    between atoms: N_22  and  C_25
   12  A    between atoms: C_27  and  C_34
                            x       y       z     vdW  Elec       q    Type
                         _______ _______ _______ _____ _____    ______ ____

>  <TORSDO>
F 12

$$$$
=
 OpenBabel11032420253D

 39 41  0  0  0  0  0  0  0  0999 V2000
  188.4220  178.0410  140.4600 C   0  0  0  0  0  0  0  0  0  0  0  0
  189.5090  177.2050  140.8410 C   0  0  0  0  0  0  0  0  0  0  0  0
  187.3920  178.3040  141.3690 C   0  0  0  0  0  3  0  0  0  0  0  0
  189.4820  176.6430  142.1310 C   0  0  0  0  0  3  0  0  0  0  0  0
  188.4450  176.9130  143.0230 C   0  0  0  0  0  3  0  0  0  0  0  0
  187.3920  177.7610  142.6610 C   0  0  0  0  0  0  0  0  0  0  0  0
  190.5570  176.1040  138.8030 C   0  0  0  0  0  3  0  0  0  0  0  0
  192.9140  176.3680  138.3120 C   0  0  0  0  0  0  0  0  0  0  0  0
  191.6570  175.8450  137.9800 C   0  0  0  0  0  0  0  0  0  0  0  0
  191.9520  177.4040  140.2760 C   0  0  0  0  0  3  0  0  0  0  0  0
  193.0580  177.1500  139.4580 C   0  0  0  0  0  3  0  0  0  0  0  0
  190.6810  176.8820  139.9640 C   0  0  0  0  0  0  0  0  0  0  0  0
  194.0200  176.1160  137.5070 O   0  0  0  0  0  1  0  0  0  0  0  0
  191.4690  175.0110  136.7600 C   0  0  0  0  0  1  0  0  0  0  0  0
  183.9230  178.7010  143.8360 C   0  0  0  0  0  3  0  0  0  0  0  0
  185.0100  178.3580  143.0330 C   0  0  0  0  0  3  0  0  0  0  0  0
  184.0690  178.7650  145.2180 C   0  0  0  0  0  3  0  0  0  0  0  0
  186.2670  178.0660  143.5930 C   0  0  0  0  0  0  0  0  0  0  0  0
  186.4050  178.1350  145.0090 C   0  0  0  0  0  0  0  0  0  0  0  0
  185.3040  178.4840  145.8000 C   0  0  0  0  0  3  0  0  0  0  0  0
  187.6920  177.8700  145.7180 C   0  0  0  0  0  2  0  0  0  0  0  0
  187.4330  177.6270  147.1280 N   0  0  0  0  0  1  0  0  0  0  0  0
  188.2820  178.6460  139.1280 C   0  0  0  0  0  0  0  0  0  0  0  0
  187.1520  178.3650  138.3000 N   0  0  0  0  0  2  0  0  0  0  0  0
  189.1950  179.3950  138.6940 O   0  0  0  0  0  0  0  0  0  0  0  0
  185.9910  177.6270  138.7780 C   0  0  0  0  0  2  0  0  0  0  0  0
  184.9440  177.5330  137.6790 C   0  0  0  0  0  2  0  0  0  0  0  0
  182.0630  175.4010  138.3920 O   0  0  0  0  0  1  0  0  0  0  0  0
  183.6540  177.1060  138.2100 N   0  0  0  0  0  0  0  0  0  0  0  0
  183.2490  175.7310  138.1320 C   0  0  0  0  0  0  0  0  0  0  0  0
  184.1600  174.7490  137.7600 O   0  0  0  0  0  0  0  0  0  0  0  0
  182.7170  178.1290  138.6540 C   0  0  0  0  0  2  0  0  0  0  0  0
  182.8250  178.3180  140.1570 C   0  0  0  0  0  2  0  0  0  0  0  0
  181.4620  178.1070  140.7840 C   0  0  0  0  0  2  0  0  0  0  0  0
  179.8490  180.7780  142.7790 N   0  0  0  0  0  2  0  0  0  0  0  0
  180.8950  179.3860  141.1930 N   0  0  0  0  0  2  0  0  0  0  0  0
  180.3060  179.6050  142.4810 C   0  0  0  0  0  0  0  0  0  0  0  0
  180.3210  178.5420  143.5300 C   0  0  0  0  0  2  0  0  0  0  0  0
  179.0720  178.4740  144.1470 O   0  0  0  0  0  1  0  0  0  0  0  0
  1  2  2  0  0  0  0
  1  3  1  0  0  0  0
  2  4  1  0  0  0  0
  3  6  2  0  0  0  0
  4  5  2  0  0  0  0
  6  5  1  0  0  0  0
  6 18  1  0  0  0  0
  7 12  1  0  0  0  0
  8 11  2  0  0  0  0
  9  8  1  0  0  0  0
  9  7  2  0  0  0  0
 11 10  1  0  0  0  0
 12 10  2  0  0  0  0
 12  2  1  0  0  0  0
 13  8  1  0  0  0  0
 14  9  1  0  0  0  0
 15 17  1  0  0  0  0
 16 18  1  0  0  0  0
 16 15  2  0  0  0  0
 17 20  2  0  0  0  0
 18 19  2  0  0  0  0
 19 21  1  0  0  0  0
 19 20  1  0  0  0  0
 21 22  1  0  0  0  0
 23  1  1  0  0  0  0
 24 26  1  0  0  0  0
 24 23  1  0  0  0  0
 25 23  2  0  0  0  0
 27 29  1  0  0  0  0
 27 26  1  0  0  0  0
 29 32  1  0  0  0  0
 30 29  1  0  0  0  0
 30 28  1  0  0  0  0
 31 30  2  0  0  0  0
 32 33  1  0  0  0  0
 33 34  1  0  0  0  0
 34 36  1  0  0  0  0
 36 37  1  0  0  0  0
 37 35  2  0  0  0  0
 37 38  1  0  0  0  0
 38 39  1  0  0  0  0
M  END
>  <MODEL>
4

>  <REMARK>
 VINA RESULT:      -8.7      2.771      6.500
  Name = 
  12 active torsions:
  status: ('A' for Active; 'I' for Inactive)
    1  A    between atoms: C_1  and  C_14
    2  A    between atoms: C_2  and  C_21
    3  A    between atoms: N_8  and  C_33
    4  A    between atoms: C_9  and  C_32
    5  A    between atoms: C_13  and  C_25
    6  A    between atoms: C_13  and  C_33
    7  A    between atoms: C_18  and  N_20
    8  A    between atoms: C_18  and  C_23
    9  A    between atoms: C_19  and  C_30
   10  A    between atoms: N_22  and  C_23
   11  A    between atoms: N_22  and  C_25
   12  A    between atoms: C_27  and  C_34
                            x       y       z     vdW  Elec       q    Type
                         _______ _______ _______ _____ _____    ______ ____

>  <TORSDO>
F 12

$$$$
=
 OpenBabel11032420253D

 39 41  0  0  0  0  0  0  0  0999 V2000
  188.4840  177.9720  140.2180 C   0  0  0  0  0  0  0  0  0  0  0  0
  189.5680  177.1830  140.6950 C   0  0  0  0  0  0  0  0  0  0  0  0
  187.4070  178.2620  141.0620 C   0  0  0  0  0  3  0  0  0  0  0  0
  189.4910  176.6930  142.0120 C   0  0  0  0  0  3  0  0  0  0  0  0
  188.4080  176.9880  142.8380 C   0  0  0  0  0  3  0  0  0  0  0  0
  187.3570  177.7910  142.3810 C   0  0  0  0  0  0  0  0  0  0  0  0
  190.7360  175.9880  138.7790 C   0  0  0  0  0  3  0  0  0  0  0  0
  193.1050  176.2860  138.3770 C   0  0  0  0  0  0  0  0  0  0  0  0
  191.8780  175.7090  138.0230 C   0  0  0  0  0  0  0  0  0  0  0  0
  192.0290  177.4150  140.2270 C   0  0  0  0  0  3  0  0  0  0  0  0
  193.1770  177.1410  139.4770 C   0  0  0  0  0  3  0  0  0  0  0  0
  190.7870  176.8390  139.8930 C   0  0  0  0  0  0  0  0  0  0  0  0
  194.2530  176.0160  137.6400 O   0  0  0  0  0  1  0  0  0  0  0  0
  191.7670  174.7960  136.8510 C   0  0  0  0  0  1  0  0  0  0  0  0
  183.8380  178.7920  143.3380 C   0  0  0  0  0  3  0  0  0  0  0  0
  184.9660  178.4250  142.6050 C   0  0  0  0  0  3  0  0  0  0  0  0
  183.9020  178.8670  144.7260 C   0  0  0  0  0  3  0  0  0  0  0  0
  186.1830  178.1210  143.2410 C   0  0  0  0  0  0  0  0  0  0  0  0
  186.2370  178.2020  144.6620 C   0  0  0  0  0  0  0  0  0  0  0  0
  185.0960  178.5750  145.3830 C   0  0  0  0  0  3  0  0  0  0  0  0
  187.4750  177.9270  145.4490 C   0  0  0  0  0  2  0  0  0  0  0  0
  187.1530  177.8710  146.8660 N   0  0  0  0  0  1  0  0  0  0  0  0
  188.3950  178.5000  138.8500 C   0  0  0  0  0  0  0  0  0  0  0  0
  187.7050  177.7880  137.8220 N   0  0  0  0  0  2  0  0  0  0  0  0
  188.9730  179.5830  138.5690 O   0  0  0  0  0  0  0  0  0  0  0  0
  186.8950  176.6080  138.0910 C   0  0  0  0  0  2  0  0  0  0  0  0
  186.1440  176.1920  136.8360 C   0  0  0  0  0  2  0  0  0  0  0  0
  184.2850  173.0710  137.2370 O   0  0  0  0  0  1  0  0  0  0  0  0
  185.0490  175.2810  137.1500 N   0  0  0  0  0  0  0  0  0  0  0  0
  185.2630  173.8610  137.1780 C   0  0  0  0  0  0  0  0  0  0  0  0
  186.5520  173.3430  137.1330 O   0  0  0  0  0  0  0  0  0  0  0  0
  183.7020  175.8290  137.2540 C   0  0  0  0  0  2  0  0  0  0  0  0
  183.1260  175.5350  138.6280 C   0  0  0  0  0  2  0  0  0  0  0  0
  182.6750  176.8330  139.2650 C   0  0  0  0  0  2  0  0  0  0  0  0
  184.5850  180.0040  139.1760 N   0  0  0  0  0  2  0  0  0  0  0  0
  183.7680  177.7980  139.2650 N   0  0  0  0  0  2  0  0  0  0  0  0
  183.5650  179.2110  139.1380 C   0  0  0  0  0  0  0  0  0  0  0  0
  182.1900  179.7940  139.0890 C   0  0  0  0  0  2  0  0  0  0  0  0
  182.2380  181.0560  138.4990 O   0  0  0  0  0  1  0  0  0  0  0  0
  1  2  2  0  0  0  0
  1  3  1  0  0  0  0
  2  4  1  0  0  0  0
  3  6  2  0  0  0  0
  4  5  2  0  0  0  0
  6  5  1  0  0  0  0
  6 18  1  0  0  0  0
  7 12  1  0  0  0  0
  8 11  2  0  0  0  0
  9  8  1  0  0  0  0
  9  7  2  0  0  0  0
 11 10  1  0  0  0  0
 12 10  2  0  0  0  0
 12  2  1  0  0  0  0
 13  8  1  0  0  0  0
 14  9  1  0  0  0  0
 15 17  1  0  0  0  0
 16 18  1  0  0  0  0
 16 15  2  0  0  0  0
 17 20  2  0  0  0  0
 18 19  2  0  0  0  0
 19 20  1  0  0  0  0
 19 21  1  0  0  0  0
 21 22  1  0  0  0  0
 23  1  1  0  0  0  0
 24 26  1  0  0  0  0
 24 23  1  0  0  0  0
 25 23  2  0  0  0  0
 27 29  1  0  0  0  0
 27 26  1  0  0  0  0
 29 30  1  0  0  0  0
 29 32  1  0  0  0  0
 30 28  1  0  0  0  0
 31 30  2  0  0  0  0
 32 33  1  0  0  0  0
 33 34  1  0  0  0  0
 34 36  1  0  0  0  0
 37 35  2  0  0  0  0
 37 36  1  0  0  0  0
 38 37  1  0  0  0  0
 39 38  1  0  0  0  0
M  END
>  <MODEL>
5

>  <REMARK>
 VINA RESULT:      -8.7      2.888      5.835
  Name = 
  12 active torsions:
  status: ('A' for Active; 'I' for Inactive)
    1  A    between atoms: C_1  and  C_14
    2  A    between atoms: C_2  and  C_21
    3  A    between atoms: N_8  and  C_33
    4  A    between atoms: C_9  and  C_32
    5  A    between atoms: C_13  and  C_25
    6  A    between atoms: C_13  and  C_33
    7  A    between atoms: C_18  and  N_20
    8  A    between atoms: C_18  and  C_23
    9  A    between atoms: C_19  and  C_30
   10  A    between atoms: N_22  and  C_23
   11  A    between atoms: N_22  and  C_25
   12  A    between atoms: C_27  and  C_34
                            x       y       z     vdW  Elec       q    Type
                         _______ _______ _______ _____ _____    ______ ____

>  <TORSDO>
F 12

$$$$
=
 OpenBabel11032420253D

 39 41  0  0  0  0  0  0  0  0999 V2000
  186.5630  178.3370  142.8770 C   0  0  0  0  0  0  0  0  0  0  0  0
  185.3360  178.1360  143.5690 C   0  0  0  0  0  0  0  0  0  0  0  0
  187.7760  178.0290  143.5020 C   0  0  0  0  0  3  0  0  0  0  0  0
  185.4010  177.6580  144.8910 C   0  0  0  0  0  3  0  0  0  0  0  0
  186.6190  177.3600  145.5010 C   0  0  0  0  0  3  0  0  0  0  0  0
  187.8240  177.5250  144.8100 C   0  0  0  0  0  0  0  0  0  0  0  0
  183.5860  177.8870  141.7420 C   0  0  0  0  0  3  0  0  0  0  0  0
  181.3830  178.8660  141.9780 C   0  0  0  0  0  0  0  0  0  0  0  0
  182.3030  178.1140  141.2350 C   0  0  0  0  0  0  0  0  0  0  0  0
  183.0370  179.1460  143.7220 C   0  0  0  0  0  3  0  0  0  0  0  0
  181.7520  179.3780  143.2220 C   0  0  0  0  0  3  0  0  0  0  0  0
  183.9790  178.3990  142.9880 C   0  0  0  0  0  0  0  0  0  0  0  0
  180.1040  179.1060  141.4870 O   0  0  0  0  0  1  0  0  0  0  0  0
  181.9380  177.5490  139.9060 C   0  0  0  0  0  1  0  0  0  0  0  0
  191.4950  176.6620  145.0930 C   0  0  0  0  0  3  0  0  0  0  0  0
  190.2420  177.0030  144.5840 C   0  0  0  0  0  3  0  0  0  0  0  0
  191.6780  176.5250  146.4650 C   0  0  0  0  0  3  0  0  0  0  0  0
  189.1430  177.2180  145.4360 C   0  0  0  0  0  0  0  0  0  0  0  0
  189.3420  177.0750  146.8390 C   0  0  0  0  0  0  0  0  0  0  0  0
  190.6060  176.7300  147.3330 C   0  0  0  0  0  3  0  0  0  0  0  0
  188.2500  177.2550  147.8410 C   0  0  0  0  0  2  0  0  0  0  0  0
  188.6450  178.2530  148.8230 N   0  0  0  0  0  1  0  0  0  0  0  0
  186.6560  178.8880  141.5180 C   0  0  0  0  0  0  0  0  0  0  0  0
  187.7030  178.4980  140.6280 N   0  0  0  0  0  2  0  0  0  0  0  0
  185.8200  179.7520  141.1460 O   0  0  0  0  0  0  0  0  0  0  0  0
  188.6220  177.4080  140.9260 C   0  0  0  0  0  2  0  0  0  0  0  0
  190.0470  177.8200  140.5900 C   0  0  0  0  0  2  0  0  0  0  0  0
  192.3090  176.6020  137.9910 O   0  0  0  0  0  0  0  0  0  0  0  0
  190.5010  177.1970  139.3510 N   0  0  0  0  0  0  0  0  0  0  0  0
  191.8960  176.9380  139.1300 C   0  0  0  0  0  0  0  0  0  0  0  0
  192.8090  177.0640  140.1720 O   0  0  0  0  0  1  0  0  0  0  0  0
  189.5350  177.0100  138.2760 C   0  0  0  0  0  2  0  0  0  0  0  0
  189.4370  178.2730  137.4390 C   0  0  0  0  0  2  0  0  0  0  0  0
  188.2050  178.1920  136.5600 C   0  0  0  0  0  2  0  0  0  0  0  0
  184.9160  178.2670  138.2600 N   0  0  0  0  0  2  0  0  0  0  0  0
  187.0320  178.6440  137.2980 N   0  0  0  0  0  2  0  0  0  0  0  0
  185.9080  177.8000  137.5740 C   0  0  0  0  0  0  0  0  0  0  0  0
  185.9130  176.3550  137.1930 C   0  0  0  0  0  2  0  0  0  0  0  0
  184.6140  175.9450  136.8960 O   0  0  0  0  0  1  0  0  0  0  0  0
  1  3  2  0  0  0  0
  1  2  1  0  0  0  0
  2  4  2  0  0  0  0
  3  6  1  0  0  0  0
  4  5  1  0  0  0  0
  6 18  1  0  0  0  0
  6  5  2  0  0  0  0
  7 12  1  0  0  0  0
  8 11  2  0  0  0  0
  9  7  2  0  0  0  0
  9  8  1  0  0  0  0
 11 10  1  0  0  0  0
 12  2  1  0  0  0  0
 12 10  2  0  0  0  0
 13  8  1  0  0  0  0
 14  9  1  0  0  0  0
 15 17  1  0  0  0  0
 16 15  2  0  0  0  0
 16 18  1  0  0  0  0
 17 20  2  0  0  0  0
 18 19  2  0  0  0  0
 19 20  1  0  0  0  0
 19 21  1  0  0  0  0
 21 22  1  0  0  0  0
 23  1  1  0  0  0  0
 24 26  1  0  0  0  0
 24 23  1  0  0  0  0
 25 23  2  0  0  0  0
 27 26  1  0  0  0  0
 28 30  2  0  0  0  0
 29 27  1  0  0  0  0
 30 29  1  0  0  0  0
 30 31  1  0  0  0  0
 32 29  1  0  0  0  0
 33 32  1  0  0  0  0
 34 36  1  0  0  0  0
 34 33  1  0  0  0  0
 36 37  1  0  0  0  0
 37 35  2  0  0  0  0
 38 37  1  0  0  0  0
 39 38  1  0  0  0  0
M  END
>  <MODEL>
6

>  <REMARK>
 VINA RESULT:      -8.7      2.088      6.384
  Name = 
  12 active torsions:
  status: ('A' for Active; 'I' for Inactive)
    1  A    between atoms: C_1  and  C_14
    2  A    between atoms: C_2  and  C_21
    3  A    between atoms: N_8  and  C_33
    4  A    between atoms: C_9  and  C_32
    5  A    between atoms: C_13  and  C_25
    6  A    between atoms: C_13  and  C_33
    7  A    between atoms: C_18  and  N_20
    8  A    between atoms: C_18  and  C_23
    9  A    between atoms: C_19  and  C_30
   10  A    between atoms: N_22  and  C_23
   11  A    between atoms: N_22  and  C_25
   12  A    between atoms: C_27  and  C_34
                            x       y       z     vdW  Elec       q    Type
                         _______ _______ _______ _____ _____    ______ ____

>  <TORSDO>
F 12

$$$$
=
 OpenBabel11032420253D

 39 41  0  0  0  0  0  0  0  0999 V2000
  186.3480  178.4180  142.5210 C   0  0  0  0  0  0  0  0  0  0  0  0
  185.1690  178.2270  143.2950 C   0  0  0  0  0  0  0  0  0  0  0  0
  187.5990  178.1140  143.0680 C   0  0  0  0  0  3  0  0  0  0  0  0
  185.3200  177.7620  144.6140 C   0  0  0  0  0  3  0  0  0  0  0  0
  186.5750  177.4680  145.1450 C   0  0  0  0  0  3  0  0  0  0  0  0
  187.7330  177.6240  144.3750 C   0  0  0  0  0  0  0  0  0  0  0  0
  183.3340  178.0470  141.5440 C   0  0  0  0  0  3  0  0  0  0  0  0
  181.1200  178.9400  141.9560 C   0  0  0  0  0  0  0  0  0  0  0  0
  182.0210  178.2680  141.1190 C   0  0  0  0  0  0  0  0  0  0  0  0
  182.8540  179.1530  143.6310 C   0  0  0  0  0  3  0  0  0  0  0  0
  181.5390  179.3790  143.2130 C   0  0  0  0  0  3  0  0  0  0  0  0
  183.7780  178.4860  142.8010 C   0  0  0  0  0  0  0  0  0  0  0  0
  179.8120  179.1730  141.5470 O   0  0  0  0  0  1  0  0  0  0  0  0
  181.6030  177.7820  139.7730 C   0  0  0  0  0  1  0  0  0  0  0  0
  191.3900  176.6640  144.4310 C   0  0  0  0  0  3  0  0  0  0  0  0
  190.1090  177.0070  143.9990 C   0  0  0  0  0  3  0  0  0  0  0  0
  191.6810  176.6230  145.7910 C   0  0  0  0  0  3  0  0  0  0  0  0
  189.0900  177.3210  144.9160 C   0  0  0  0  0  0  0  0  0  0  0  0
  189.3980  177.2740  146.3060 C   0  0  0  0  0  0  0  0  0  0  0  0
  190.6890  176.9250  146.7230 C   0  0  0  0  0  3  0  0  0  0  0  0
  188.3960  177.5630  147.3750 C   0  0  0  0  0  2  0  0  0  0  0  0
  189.0430  178.2550  148.4780 N   0  0  0  0  0  1  0  0  0  0  0  0
  186.3530  178.9550  141.1530 C   0  0  0  0  0  0  0  0  0  0  0  0
  187.3920  178.6280  140.2300 N   0  0  0  0  0  2  0  0  0  0  0  0
  185.4430  179.7510  140.8020 O   0  0  0  0  0  0  0  0  0  0  0  0
  188.3980  177.6110  140.5060 C   0  0  0  0  0  2  0  0  0  0  0  0
  189.5790  177.7750  139.5630 C   0  0  0  0  0  2  0  0  0  0  0  0
  188.3260  178.2120  136.1580 O   0  0  0  0  0  0  0  0  0  0  0  0
  189.2090  177.4570  138.1880 N   0  0  0  0  0  0  0  0  0  0  0  0
  188.8450  178.4970  137.2680 C   0  0  0  0  0  0  0  0  0  0  0  0
  189.0560  179.8320  137.5960 O   0  0  0  0  0  1  0  0  0  0  0  0
  189.0430  176.0550  137.8240 C   0  0  0  0  0  2  0  0  0  0  0  0
  190.0460  175.6740  136.7490 C   0  0  0  0  0  2  0  0  0  0  0  0
  190.9900  174.6260  137.3000 C   0  0  0  0  0  2  0  0  0  0  0  0
  193.9340  176.3680  138.7200 N   0  0  0  0  0  2  0  0  0  0  0  0
  191.9260  175.2370  138.2370 N   0  0  0  0  0  2  0  0  0  0  0  0
  193.1710  175.8200  137.8320 C   0  0  0  0  0  0  0  0  0  0  0  0
  193.5460  175.9180  136.3890 C   0  0  0  0  0  2  0  0  0  0  0  0
  194.5580  176.8650  136.2320 O   0  0  0  0  0  1  0  0  0  0  0  0
  1  3  2  0  0  0  0
  1  2  1  0  0  0  0
  2  4  2  0  0  0  0
  3  6  1  0  0  0  0
  4  5  1  0  0  0  0
  6 18  1  0  0  0  0
  6  5  2  0  0  0  0
  7 12  1  0  0  0  0
  8 11  2  0  0  0  0
  9  7  2  0  0  0  0
  9  8  1  0  0  0  0
 11 10  1  0  0  0  0
 12  2  1  0  0  0  0
 12 10  2  0  0  0  0
 13  8  1  0  0  0  0
 14  9  1  0  0  0  0
 15 17  1  0  0  0  0
 16 15  2  0  0  0  0
 16 18  1  0  0  0  0
 17 20  2  0  0  0  0
 18 19  2  0  0  0  0
 19 20  1  0  0  0  0
 19 21  1  0  0  0  0
 21 22  1  0  0  0  0
 23  1  1  0  0  0  0
 24 26  1  0  0  0  0
 24 23  1  0  0  0  0
 25 23  2  0  0  0  0
 27 26  1  0  0  0  0
 28 30  2  0  0  0  0
 29 27  1  0  0  0  0
 30 31  1  0  0  0  0
 30 29  1  0  0  0  0
 32 29  1  0  0  0  0
 33 34  1  0  0  0  0
 33 32  1  0  0  0  0
 34 36  1  0  0  0  0
 37 36  1  0  0  0  0
 37 35  2  0  0  0  0
 38 37  1  0  0  0  0
 39 38  1  0  0  0  0
M  END
>  <MODEL>
7

>  <REMARK>
 VINA RESULT:      -8.5      2.843      7.340
  Name = 
  12 active torsions:
  status: ('A' for Active; 'I' for Inactive)
    1  A    between atoms: C_1  and  C_14
    2  A    between atoms: C_2  and  C_21
    3  A    between atoms: N_8  and  C_33
    4  A    between atoms: C_9  and  C_32
    5  A    between atoms: C_13  and  C_25
    6  A    between atoms: C_13  and  C_33
    7  A    between atoms: C_18  and  N_20
    8  A    between atoms: C_18  and  C_23
    9  A    between atoms: C_19  and  C_30
   10  A    between atoms: N_22  and  C_23
   11  A    between atoms: N_22  and  C_25
   12  A    between atoms: C_27  and  C_34
                            x       y       z     vdW  Elec       q    Type
                         _______ _______ _______ _____ _____    ______ ____

>  <TORSDO>
F 12

$$$$
=
 OpenBabel11032420253D

 39 41  0  0  0  0  0  0  0  0999 V2000
  188.3610  178.0430  140.4810 C   0  0  0  0  0  0  0  0  0  0  0  0
  189.4430  177.2110  140.8830 C   0  0  0  0  0  0  0  0  0  0  0  0
  187.3060  178.2910  141.3660 C   0  0  0  0  0  3  0  0  0  0  0  0
  189.3860  176.6370  142.1660 C   0  0  0  0  0  3  0  0  0  0  0  0
  188.3260  176.8920  143.0340 C   0  0  0  0  0  3  0  0  0  0  0  0
  187.2770  177.7360  142.6530 C   0  0  0  0  0  0  0  0  0  0  0  0
  190.5410  176.1890  138.8300 C   0  0  0  0  0  3  0  0  0  0  0  0
  192.9200  176.4180  138.4380 C   0  0  0  0  0  0  0  0  0  0  0  0
  191.6640  175.9440  138.0350 C   0  0  0  0  0  0  0  0  0  0  0  0
  191.9100  177.3780  140.4170 C   0  0  0  0  0  3  0  0  0  0  0  0
  193.0390  177.1370  139.6280 C   0  0  0  0  0  3  0  0  0  0  0  0
  190.6390  176.9040  140.0330 C   0  0  0  0  0  0  0  0  0  0  0  0
  194.0500  176.1800  137.6630 O   0  0  0  0  0  1  0  0  0  0  0  0
  191.5030  175.1780  136.7670 C   0  0  0  0  0  1  0  0  0  0  0  0
  183.7640  178.6120  143.7460 C   0  0  0  0  0  3  0  0  0  0  0  0
  184.8750  178.2850  142.9690 C   0  0  0  0  0  3  0  0  0  0  0  0
  183.8800  178.6920  145.1310 C   0  0  0  0  0  3  0  0  0  0  0  0
  186.1260  178.0260  143.5580 C   0  0  0  0  0  0  0  0  0  0  0  0
  186.2330  178.1100  144.9760 C   0  0  0  0  0  0  0  0  0  0  0  0
  185.1080  178.4430  145.7410 C   0  0  0  0  0  3  0  0  0  0  0  0
  187.5100  177.8800  145.7140 C   0  0  0  0  0  2  0  0  0  0  0  0
  187.3330  178.2200  147.1170 N   0  0  0  0  0  1  0  0  0  0  0  0
  188.2500  178.6590  139.1520 C   0  0  0  0  0  0  0  0  0  0  0  0
  187.2130  178.2840  138.2430 N   0  0  0  0  0  2  0  0  0  0  0  0
  189.1100  179.5050  138.7930 O   0  0  0  0  0  0  0  0  0  0  0  0
  186.1030  177.4240  138.6280 C   0  0  0  0  0  2  0  0  0  0  0  0
  184.8360  177.8520  137.9050 C   0  0  0  0  0  2  0  0  0  0  0  0
  182.6830  179.4130  140.4110 O   0  0  0  0  0  1  0  0  0  0  0  0
  183.7290  178.0350  138.8370 N   0  0  0  0  0  0  0  0  0  0  0  0
  183.4960  179.3090  139.4570 C   0  0  0  0  0  0  0  0  0  0  0  0
  184.1710  180.4400  139.0140 O   0  0  0  0  0  0  0  0  0  0  0  0
  182.9800  176.8580  139.2610 C   0  0  0  0  0  2  0  0  0  0  0  0
  182.6400  175.9960  138.0570 C   0  0  0  0  0  2  0  0  0  0  0  0
  181.1620  175.6670  138.0840 C   0  0  0  0  0  2  0  0  0  0  0  0
  179.3850  174.1030  140.9320 N   0  0  0  0  0  2  0  0  0  0  0  0
  180.7540  175.2970  139.4340 N   0  0  0  0  0  2  0  0  0  0  0  0
  179.6670  174.4040  139.7070 C   0  0  0  0  0  0  0  0  0  0  0  0
  178.9340  173.7170  138.6010 C   0  0  0  0  0  2  0  0  0  0  0  0
  179.6770  172.6260  138.1530 O   0  0  0  0  0  1  0  0  0  0  0  0
  1  2  2  0  0  0  0
  1  3  1  0  0  0  0
  2  4  1  0  0  0  0
  3  6  2  0  0  0  0
  4  5  2  0  0  0  0
  6  5  1  0  0  0  0
  6 18  1  0  0  0  0
  7 12  1  0  0  0  0
  8 11  2  0  0  0  0
  9  8  1  0  0  0  0
  9  7  2  0  0  0  0
 11 10  1  0  0  0  0
 12 10  2  0  0  0  0
 12  2  1  0  0  0  0
 13  8  1  0  0  0  0
 14  9  1  0  0  0  0
 15 17  1  0  0  0  0
 16 18  1  0  0  0  0
 16 15  2  0  0  0  0
 17 20  2  0  0  0  0
 18 19  2  0  0  0  0
 19 21  1  0  0  0  0
 19 20  1  0  0  0  0
 21 22  1  0  0  0  0
 23  1  1  0  0  0  0
 24 26  1  0  0  0  0
 24 23  1  0  0  0  0
 25 23  2  0  0  0  0
 27 26  1  0  0  0  0
 27 29  1  0  0  0  0
 29 32  1  0  0  0  0
 29 30  1  0  0  0  0
 30 28  1  0  0  0  0
 31 30  2  0  0  0  0
 33 34  1  0  0  0  0
 33 32  1  0  0  0  0
 34 36  1  0  0  0  0
 36 37  1  0  0  0  0
 37 35  2  0  0  0  0
 38 37  1  0  0  0  0
 39 38  1  0  0  0  0
M  END
>  <MODEL>
8

>  <REMARK>
 VINA RESULT:      -8.4      2.921      6.182
  Name = 
  12 active torsions:
  status: ('A' for Active; 'I' for Inactive)
    1  A    between atoms: C_1  and  C_14
    2  A    between atoms: C_2  and  C_21
    3  A    between atoms: N_8  and  C_33
    4  A    between atoms: C_9  and  C_32
    5  A    between atoms: C_13  and  C_25
    6  A    between atoms: C_13  and  C_33
    7  A    between atoms: C_18  and  N_20
    8  A    between atoms: C_18  and  C_23
    9  A    between atoms: C_19  and  C_30
   10  A    between atoms: N_22  and  C_23
   11  A    between atoms: N_22  and  C_25
   12  A    between atoms: C_27  and  C_34
                            x       y       z     vdW  Elec       q    Type
                         _______ _______ _______ _____ _____    ______ ____

>  <TORSDO>
F 12

$$$$
=
 OpenBabel11032420253D

 39 41  0  0  0  0  0  0  0  0999 V2000
  186.0320  177.7920  143.4390 C   0  0  0  0  0  0  0  0  0  0  0  0
  185.8160  178.2970  144.7520 C   0  0  0  0  0  0  0  0  0  0  0  0
  185.0500  177.9590  142.4570 C   0  0  0  0  0  3  0  0  0  0  0  0
  184.5850  178.9250  145.0170 C   0  0  0  0  0  3  0  0  0  0  0  0
  183.6160  179.0790  144.0270 C   0  0  0  0  0  3  0  0  0  0  0  0
  183.8400  178.6130  142.7270 C   0  0  0  0  0  0  0  0  0  0  0  0
  188.1100  177.7180  145.6820 C   0  0  0  0  0  3  0  0  0  0  0  0
  188.6590  178.1270  148.0050 C   0  0  0  0  0  0  0  0  0  0  0  0
  189.0320  177.6760  146.7320 C   0  0  0  0  0  0  0  0  0  0  0  0
  186.4560  178.6620  147.1580 C   0  0  0  0  0  3  0  0  0  0  0  0
  187.3710  178.6230  148.2140 C   0  0  0  0  0  3  0  0  0  0  0  0
  186.8090  178.2060  145.8710 C   0  0  0  0  0  0  0  0  0  0  0  0
  189.5600  178.0880  149.0630 O   0  0  0  0  0  1  0  0  0  0  0  0
  190.4000  177.1460  146.4750 C   0  0  0  0  0  1  0  0  0  0  0  0
  182.3880  179.1440  139.2760 C   0  0  0  0  0  3  0  0  0  0  0  0
  183.2790  178.9480  140.3310 C   0  0  0  0  0  3  0  0  0  0  0  0
  181.0170  179.1580  139.5140 C   0  0  0  0  0  3  0  0  0  0  0  0
  182.8210  178.7600  141.6480 C   0  0  0  0  0  0  0  0  0  0  0  0
  181.4150  178.7780  141.8790 C   0  0  0  0  0  0  0  0  0  0  0  0
  180.5350  178.9780  140.8090 C   0  0  0  0  0  3  0  0  0  0  0  0
  180.8090  178.6120  143.2330 C   0  0  0  0  0  2  0  0  0  0  0  0
  179.5170  177.9560  143.1140 N   0  0  0  0  0  1  0  0  0  0  0  0
  187.2390  177.0600  143.0310 C   0  0  0  0  0  0  0  0  0  0  0  0
  188.0270  177.4870  141.9190 N   0  0  0  0  0  2  0  0  0  0  0  0
  187.5610  176.0120  143.6500 O   0  0  0  0  0  0  0  0  0  0  0  0
  187.8070  178.7570  141.2410 C   0  0  0  0  0  2  0  0  0  0  0  0
  188.7510  178.8870  140.0570 C   0  0  0  0  0  2  0  0  0  0  0  0
  187.3910  176.4790  137.6680 O   0  0  0  0  0  0  0  0  0  0  0  0
  188.6700  177.7230  139.1820 N   0  0  0  0  0  0  0  0  0  0  0  0
  187.5760  177.5710  138.2640 C   0  0  0  0  0  0  0  0  0  0  0  0
  186.7030  178.6280  138.0290 O   0  0  0  0  0  1  0  0  0  0  0  0
  189.6190  176.6360  139.3860 C   0  0  0  0  0  2  0  0  0  0  0  0
  191.0300  177.1150  139.0900 C   0  0  0  0  0  2  0  0  0  0  0  0
  191.9320  176.7490  140.2510 C   0  0  0  0  0  2  0  0  0  0  0  0
  191.3640  178.4570  143.4870 N   0  0  0  0  0  2  0  0  0  0  0  0
  191.8530  177.7700  141.2890 N   0  0  0  0  0  2  0  0  0  0  0  0
  191.3770  177.5030  142.6140 C   0  0  0  0  0  0  0  0  0  0  0  0
  191.0140  176.1190  143.0420 C   0  0  0  0  0  2  0  0  0  0  0  0
  192.0380  175.5860  143.8240 O   0  0  0  0  0  1  0  0  0  0  0  0
  1  2  1  0  0  0  0
  2  4  2  0  0  0  0
  2 12  1  0  0  0  0
  3  6  1  0  0  0  0
  3  1  2  0  0  0  0
  5  4  1  0  0  0  0
  6  5  2  0  0  0  0
  7 12  2  0  0  0  0
  7  9  1  0  0  0  0
  8 11  1  0  0  0  0
  8 13  1  0  0  0  0
  9  8  2  0  0  0  0
 10 11  2  0  0  0  0
 12 10  1  0  0  0  0
 14  9  1  0  0  0  0
 15 17  2  0  0  0  0
 15 16  1  0  0  0  0
 16 18  2  0  0  0  0
 17 20  1  0  0  0  0
 18 19  1  0  0  0  0
 18  6  1  0  0  0  0
 19 21  1  0  0  0  0
 20 19  2  0  0  0  0
 22 21  1  0  0  0  0
 23  1  1  0  0  0  0
 23 25  2  0  0  0  0
 24 23  1  0  0  0  0
 26 24  1  0  0  0  0
 27 26  1  0  0  0  0
 28 30  2  0  0  0  0
 29 32  1  0  0  0  0
 29 27  1  0  0  0  0
 30 29  1  0  0  0  0
 31 30  1  0  0  0  0
 33 32  1  0  0  0  0
 33 34  1  0  0  0  0
 34 36  1  0  0  0  0
 36 37  1  0  0  0  0
 37 38  1  0  0  0  0
 37 35  2  0  0  0  0
 38 39  1  0  0  0  0
M  END
>  <MODEL>
9

>  <REMARK>
 VINA RESULT:      -8.3      2.048      4.277
  Name = 
  12 active torsions:
  status: ('A' for Active; 'I' for Inactive)
    1  A    between atoms: C_1  and  C_14
    2  A    between atoms: C_2  and  C_21
    3  A    between atoms: N_8  and  C_33
    4  A    between atoms: C_9  and  C_32
    5  A    between atoms: C_13  and  C_25
    6  A    between atoms: C_13  and  C_33
    7  A    between atoms: C_18  and  N_20
    8  A    between atoms: C_18  and  C_23
    9  A    between atoms: C_19  and  C_30
   10  A    between atoms: N_22  and  C_23
   11  A    between atoms: N_22  and  C_25
   12  A    between atoms: C_27  and  C_34
                            x       y       z     vdW  Elec       q    Type
                         _______ _______ _______ _____ _____    ______ ____

>  <TORSDO>
F 12

$$$$
