=
 OpenBabel11042411483D

 53 55  0  0  1  0  0  0  0  0999 V2000
  190.6390  177.3100  138.5380 C   0  0  1  0  0  3  0  0  0  0  0  0
  190.9270  176.4170  139.7240 C   0  0  1  0  0  3  0  0  0  0  0  0
  191.9970  176.6050  138.6650 C   0  0  1  0  0  3  0  0  0  0  0  0
  192.1360  175.3240  137.8550 C   0  0  0  0  0  2  0  0  0  0  0  0
  193.2870  175.4690  136.8800 C   0  0  0  0  0  2  0  0  0  0  0  0
  194.1090  174.1880  136.8190 C   0  0  1  0  0  3  0  0  0  0  0  0
  193.5510  173.2580  135.7570 C   0  0  0  0  0  1  0  0  0  0  0  0
  195.8930  175.4320  135.5150 C   0  0  0  0  0  1  0  0  0  0  0  0
  195.6210  174.4120  136.6140 C   0  0  2  0  0  3  0  0  0  0  0  0
  197.0610  173.0060  135.3780 O   0  0  0  0  0  0  0  0  0  0  0  0
  196.6800  172.1710  137.5260 C   0  0  0  0  0  1  0  0  0  0  0  0
  196.4870  173.1810  136.4410 C   0  0  0  0  0  0  0  0  0  0  0  0
  189.6240  176.6310  137.6210 C   0  0  0  0  0  2  0  0  0  0  0  0
  188.2450  177.1380  137.8980 C   0  0  0  0  0  0  0  0  0  0  0  0
  185.8650  178.5010  138.1390 C   0  0  1  0  0  3  0  0  0  0  0  0
  186.7250  178.4460  139.2520 O   0  0  0  0  0  0  0  0  0  0  0  0
  187.2020  176.6070  137.2460 C   0  0  0  0  0  3  0  0  0  0  0  0
  188.0410  178.3720  138.7490 C   0  0  0  0  0  2  0  0  0  0  0  0
  185.8070  177.1290  137.4590 C   0  0  0  0  0  2  0  0  0  0  0  0
  182.5420  178.5640  142.3700 O   0  0  0  0  0  0  0  0  0  0  0  0
  184.6630  178.1680  140.7470 O   0  0  0  0  0  0  0  0  0  0  0  0
  180.6190  179.5190  141.4960 N   0  0  0  0  0  2  0  0  0  0  0  0
  182.6440  179.1660  140.1090 N   0  0  0  0  0  2  0  0  0  0  0  0
  183.9810  178.7300  139.8470 C   0  0  0  0  0  0  0  0  0  0  0  0
  181.9660  179.0620  141.3670 C   0  0  0  0  0  0  0  0  0  0  0  0
  184.5330  178.9350  138.5430 N   0  0  0  0  0  2  0  0  0  0  0  0
  179.8580  180.0630  140.3740 C   0  0  2  0  0  3  0  0  0  0  0  0
  179.0550  181.2740  140.8200 C   0  0  0  0  0  1  0  0  0  0  0  0
  178.9310  179.0020  139.7790 C   0  0  1  0  0  3  0  0  0  0  0  0
  179.0520  178.9920  138.2630 C   0  0  0  0  0  2  0  0  0  0  0  0
  180.0670  179.8630  137.8610 O   0  0  0  0  0  1  0  0  0  0  0  0
  179.2300  177.7320  140.2920 O   0  0  0  0  0  0  0  0  0  0  0  0
  179.0880  176.8620  139.2070 C   0  0  0  0  0  2  0  0  0  0  0  0
  180.0370  175.6860  139.3590 C   0  0  0  0  0  2  0  0  0  0  0  0
  181.6300  176.8090  137.8030 O   0  0  0  0  0  0  0  0  0  0  0  0
  181.4190  176.0750  138.9620 C   0  0  0  0  0  0  0  0  0  0  0  0
  182.4000  175.7120  139.6630 O   0  0  0  0  0  1  0  0  0  0  0  0
  191.2570  177.2740  140.9310 C   0  0  0  0  0  2  0  0  0  0  0  0
  190.4420  176.8080  142.1280 C   0  0  0  0  0  2  0  0  0  0  0  0
  191.4070  178.8600  143.2350 C   0  0  0  0  0  1  0  0  0  0  0  0
  190.1870  177.9540  143.0990 C   0  0  2  0  0  3  0  0  0  0  0  0
  186.7360  177.8480  146.6670 C   0  0  0  0  0  1  0  0  0  0  0  0
  189.1090  177.2650  147.1900 C   0  0  0  0  0  0  0  0  0  0  0  0
  191.8880  176.5740  144.9580 O   0  0  0  0  0  0  0  0  0  0  0  0
  190.7330  176.9000  145.3460 C   0  0  0  0  0  0  0  0  0  0  0  0
  191.2890  176.1160  147.6660 C   0  0  0  0  0  1  0  0  0  0  0  0
  189.7770  177.4390  144.4120 N   0  0  0  0  0  0  0  0  0  0  0  0
  190.3690  176.7520  146.7270 N   0  0  0  0  0  0  0  0  0  0  0  0
  188.1910  177.9880  146.2330 C   0  0  1  0  0  3  0  0  0  0  0  0
  188.3590  177.4460  144.8060 C   0  0  1  0  0  3  0  0  0  0  0  0
  188.8060  177.1790  148.4180 O   0  0  0  0  0  0  0  0  0  0  0  0
  187.5930  178.2010  143.9060 O   0  0  0  0  0  0  0  0  0  0  0  0
  186.8770  177.2580  143.1650 C   0  0  0  0  0  1  0  0  0  0  0  0
  1 13  1  6  0  0  0
  1  3  1  0  0  0  0
  1  2  1  0  0  0  0
  2 38  1  1  0  0  0
  3  4  1  6  0  0  0
  3  2  1  0  0  0  0
  5  4  1  0  0  0  0
  6  7  1  6  0  0  0
  6  5  1  0  0  0  0
  9  8  1  6  0  0  0
  9  6  1  0  0  0  0
 10 12  2  0  0  0  0
 12  9  1  0  0  0  0
 12 11  1  0  0  0  0
 13 14  1  0  0  0  0
 14 18  1  0  0  0  0
 15 26  1  1  0  0  0
 15 16  1  0  0  0  0
 17 19  1  0  0  0  0
 17 14  2  0  0  0  0
 18 16  1  0  0  0  0
 19 15  1  0  0  0  0
 23 25  1  0  0  0  0
 24 23  1  0  0  0  0
 24 21  2  0  0  0  0
 25 22  1  0  0  0  0
 25 20  2  0  0  0  0
 26 24  1  0  0  0  0
 27 28  1  1  0  0  0
 27 22  1  0  0  0  0
 29 30  1  6  0  0  0
 29 32  1  0  0  0  0
 29 27  1  0  0  0  0
 31 30  1  0  0  0  0
 33 34  1  0  0  0  0
 33 32  1  0  0  0  0
 35 36  2  0  0  0  0
 36 34  1  0  0  0  0
 36 37  1  0  0  0  0
 38 39  1  0  0  0  0
 39 41  1  0  0  0  0
 41 40  1  1  0  0  0
 41 47  1  0  0  0  0
 43 51  2  0  0  0  0
 44 45  2  0  0  0  0
 45 48  1  0  0  0  0
 47 50  1  0  0  0  0
 47 45  1  0  0  0  0
 48 43  1  0  0  0  0
 48 46  1  0  0  0  0
 49 42  1  1  0  0  0
 49 43  1  0  0  0  0
 50 52  1  6  0  0  0
 50 49  1  0  0  0  0
 53 52  1  0  0  0  0
M  END
>  <MODEL>
1

>  <REMARK>
 VINA RESULT:      -6.4      0.000      0.000
  Name = 
  20 active torsions:
  status: ('A' for Active; 'I' for Inactive)
    1  A    between atoms: C_1  and  C_30
    2  A    between atoms: C_2  and  N_37
    3  A    between atoms: N_5  and  C_42
    4  A    between atoms: C_6  and  C_14
    5  A    between atoms: C_6  and  C_22
    6  A    between atoms: C_7  and  C_48
    7  A    between atoms: C_7  and  O_53
    8  A    between atoms: C_8  and  C_17
    9  A    between atoms: O_13  and  C_47
   10  A    between atoms: C_14  and  C_52
   11  A    between atoms: C_17  and  C_42
   12  A    between atoms: C_17  and  O_53
   13  A    between atoms: C_21  and  C_30
   14  A    between atoms: C_22  and  C_27
   15  A    between atoms: C_25  and  C_39
   16  A    between atoms: N_35  and  C_50
   17  A    between atoms: C_36  and  C_52
   18  A    between atoms: C_38  and  C_48
   19  A    between atoms: C_39  and  C_40
   20  A    between atoms: C_40  and  C_50
                            x       y       z     vdW  Elec       q    Type
                         _______ _______ _______ _____ _____    ______ ____

>  <TORSDO>
F 20

$$$$
=
 OpenBabel11042411483D

 53 55  0  0  1  0  0  0  0  0999 V2000
  184.9470  178.1200  141.2390 C   0  0  1  0  0  3  0  0  0  0  0  0
  184.3730  179.0380  142.2960 C   0  0  1  0  0  3  0  0  0  0  0  0
  183.4290  178.2010  141.4530 C   0  0  1  0  0  3  0  0  0  0  0  0
  182.6880  179.1040  140.4770 C   0  0  0  0  0  2  0  0  0  0  0  0
  181.2280  178.7000  140.4300 C   0  0  0  0  0  2  0  0  0  0  0  0
  180.9940  177.6380  139.3640 C   0  0  1  0  0  3  0  0  0  0  0  0
  179.5330  177.6220  138.9520 C   0  0  0  0  0  1  0  0  0  0  0  0
  181.4280  178.8470  137.1780 C   0  0  0  0  0  1  0  0  0  0  0  0
  181.9110  177.7600  138.1320 C   0  0  2  0  0  3  0  0  0  0  0  0
  182.5380  176.5540  136.2000 O   0  0  0  0  0  0  0  0  0  0  0  0
  182.2280  175.1400  138.0330 C   0  0  0  0  0  1  0  0  0  0  0  0
  182.2410  176.4850  137.3820 C   0  0  0  0  0  0  0  0  0  0  0  0
  185.4970  178.9540  140.0830 C   0  0  0  0  0  2  0  0  0  0  0  0
  186.8040  178.4010  139.6130 C   0  0  0  0  0  0  0  0  0  0  0  0
  189.0870  176.9670  139.0520 C   0  0  1  0  0  3  0  0  0  0  0  0
  189.1750  178.0500  139.9490 O   0  0  0  0  0  0  0  0  0  0  0  0
  186.9220  177.9640  138.3520 C   0  0  0  0  0  3  0  0  0  0  0  0
  187.9250  178.1460  140.5970 C   0  0  0  0  0  2  0  0  0  0  0  0
  188.2050  177.3510  137.8610 C   0  0  0  0  0  2  0  0  0  0  0  0
  191.6460  173.0740  136.3620 O   0  0  0  0  0  0  0  0  0  0  0  0
  189.7550  174.5820  137.5620 O   0  0  0  0  0  0  0  0  0  0  0  0
  193.8670  173.7150  136.5230 N   0  0  0  0  0  2  0  0  0  0  0  0
  192.0470  175.0600  137.5360 N   0  0  0  0  0  2  0  0  0  0  0  0
  190.6930  175.3630  137.8830 C   0  0  0  0  0  0  0  0  0  0  0  0
  192.4790  173.9160  136.7880 C   0  0  0  0  0  0  0  0  0  0  0  0
  190.4160  176.5660  138.6060 N   0  0  0  0  0  2  0  0  0  0  0  0
  194.9050  174.6130  137.0220 C   0  0  2  0  0  3  0  0  0  0  0  0
  195.3400  175.5760  135.9290 C   0  0  0  0  0  1  0  0  0  0  0  0
  196.1070  173.8220  137.5410 C   0  0  1  0  0  3  0  0  0  0  0  0
  196.0310  172.3800  137.0620 C   0  0  0  0  0  2  0  0  0  0  0  0
  196.9500  171.5960  137.7630 O   0  0  0  0  0  1  0  0  0  0  0  0
  197.3090  174.4050  137.1170 O   0  0  0  0  0  0  0  0  0  0  0  0
  197.9640  174.7790  138.2940 C   0  0  0  0  0  2  0  0  0  0  0  0
  197.0170  174.6520  139.4750 C   0  0  0  0  0  2  0  0  0  0  0  0
  196.9890  176.6060  141.0240 O   0  0  0  0  0  0  0  0  0  0  0  0
  197.5490  175.3910  140.6540 C   0  0  0  0  0  0  0  0  0  0  0  0
  198.5270  174.9290  141.2980 O   0  0  0  0  0  1  0  0  0  0  0  0
  184.5340  178.3970  143.6610 C   0  0  0  0  0  2  0  0  0  0  0  0
  185.8290  178.8710  144.3010 C   0  0  0  0  0  2  0  0  0  0  0  0
  186.4600  176.4610  143.9020 C   0  0  0  0  0  1  0  0  0  0  0  0
  186.9670  177.8940  144.0290 C   0  0  2  0  0  3  0  0  0  0  0  0
  191.7380  177.3440  145.2850 C   0  0  0  0  0  1  0  0  0  0  0  0
  189.9610  177.3100  147.0410 C   0  0  0  0  0  0  0  0  0  0  0  0
  186.4600  178.2520  146.8340 O   0  0  0  0  0  0  0  0  0  0  0  0
  187.6440  178.0090  146.4750 C   0  0  0  0  0  0  0  0  0  0  0  0
  188.3430  177.8470  148.8820 C   0  0  0  0  0  1  0  0  0  0  0  0
  187.9920  177.9890  145.0770 N   0  0  0  0  0  0  0  0  0  0  0  0
  188.6530  177.7340  147.4600 N   0  0  0  0  0  0  0  0  0  0  0  0
  190.2580  177.1220  145.5710 C   0  0  1  0  0  3  0  0  0  0  0  0
  189.4160  178.0830  144.7200 C   0  0  1  0  0  3  0  0  0  0  0  0
  190.8380  177.0190  147.9080 O   0  0  0  0  0  0  0  0  0  0  0  0
  189.6090  177.8210  143.3560 O   0  0  0  0  0  0  0  0  0  0  0  0
  189.9200  176.4600  143.2930 C   0  0  0  0  0  1  0  0  0  0  0  0
  1 13  1  6  0  0  0
  1  3  1  0  0  0  0
  1  2  1  0  0  0  0
  2 38  1  1  0  0  0
  3  4  1  6  0  0  0
  3  2  1  0  0  0  0
  5  4  1  0  0  0  0
  6  7  1  6  0  0  0
  6  5  1  0  0  0  0
  9  8  1  6  0  0  0
  9  6  1  0  0  0  0
 10 12  2  0  0  0  0
 12 11  1  0  0  0  0
 12  9  1  0  0  0  0
 14 13  1  0  0  0  0
 14 18  1  0  0  0  0
 15 26  1  6  0  0  0
 15 16  1  0  0  0  0
 16 18  1  0  0  0  0
 17 14  2  0  0  0  0
 19 17  1  0  0  0  0
 19 15  1  0  0  0  0
 20 25  2  0  0  0  0
 21 24  2  0  0  0  0
 22 25  1  0  0  0  0
 22 27  1  0  0  0  0
 23 24  1  0  0  0  0
 24 26  1  0  0  0  0
 25 23  1  0  0  0  0
 27 28  1  6  0  0  0
 27 29  1  0  0  0  0
 29 30  1  6  0  0  0
 30 31  1  0  0  0  0
 32 29  1  0  0  0  0
 32 33  1  0  0  0  0
 33 34  1  0  0  0  0
 34 36  1  0  0  0  0
 36 35  2  0  0  0  0
 36 37  1  0  0  0  0
 38 39  1  0  0  0  0
 41 40  1  1  0  0  0
 41 39  1  0  0  0  0
 41 47  1  0  0  0  0
 43 48  1  0  0  0  0
 43 51  2  0  0  0  0
 45 44  2  0  0  0  0
 45 48  1  0  0  0  0
 47 45  1  0  0  0  0
 48 46  1  0  0  0  0
 49 42  1  1  0  0  0
 49 43  1  0  0  0  0
 50 52  1  6  0  0  0
 50 47  1  0  0  0  0
 50 49  1  0  0  0  0
 53 52  1  0  0  0  0
M  END
>  <MODEL>
2

>  <REMARK>
 VINA RESULT:      -6.2      3.051     11.033
  Name = 
  20 active torsions:
  status: ('A' for Active; 'I' for Inactive)
    1  A    between atoms: C_1  and  C_30
    2  A    between atoms: C_2  and  N_37
    3  A    between atoms: N_5  and  C_42
    4  A    between atoms: C_6  and  C_14
    5  A    between atoms: C_6  and  C_22
    6  A    between atoms: C_7  and  C_48
    7  A    between atoms: C_7  and  O_53
    8  A    between atoms: C_8  and  C_17
    9  A    between atoms: O_13  and  C_47
   10  A    between atoms: C_14  and  C_52
   11  A    between atoms: C_17  and  C_42
   12  A    between atoms: C_17  and  O_53
   13  A    between atoms: C_21  and  C_30
   14  A    between atoms: C_22  and  C_27
   15  A    between atoms: C_25  and  C_39
   16  A    between atoms: N_35  and  C_50
   17  A    between atoms: C_36  and  C_52
   18  A    between atoms: C_38  and  C_48
   19  A    between atoms: C_39  and  C_40
   20  A    between atoms: C_40  and  C_50
                            x       y       z     vdW  Elec       q    Type
                         _______ _______ _______ _____ _____    ______ ____

>  <TORSDO>
F 20

$$$$
=
 OpenBabel11042411483D

 53 55  0  0  1  0  0  0  0  0999 V2000
  190.6660  177.4330  139.0830 C   0  0  1  0  0  3  0  0  0  0  0  0
  191.3270  176.6030  140.1610 C   0  0  1  0  0  3  0  0  0  0  0  0
  192.1670  177.1200  139.0080 C   0  0  1  0  0  3  0  0  0  0  0  0
  192.5380  175.9610  138.0940 C   0  0  0  0  0  2  0  0  0  0  0  0
  193.6860  176.3770  137.1960 C   0  0  0  0  0  2  0  0  0  0  0  0
  193.7930  175.4520  135.9910 C   0  0  1  0  0  3  0  0  0  0  0  0
  194.2980  176.2220  134.7840 C   0  0  0  0  0  1  0  0  0  0  0  0
  193.7700  172.9640  136.4770 C   0  0  0  0  0  1  0  0  0  0  0  0
  194.6430  174.1890  136.2310 C   0  0  2  0  0  3  0  0  0  0  0  0
  196.7390  174.9520  137.0050 O   0  0  0  0  0  0  0  0  0  0  0  0
  195.6810  173.5960  138.5860 C   0  0  0  0  0  1  0  0  0  0  0  0
  195.7510  174.2830  137.2600 C   0  0  0  0  0  0  0  0  0  0  0  0
  189.7600  176.5410  138.2360 C   0  0  0  0  0  2  0  0  0  0  0  0
  188.3690  177.0870  138.2010 C   0  0  0  0  0  0  0  0  0  0  0  0
  185.6620  177.5910  138.2220 C   0  0  1  0  0  3  0  0  0  0  0  0
  186.3310  177.5560  136.9830 O   0  0  0  0  0  0  0  0  0  0  0  0
  187.9220  177.8260  139.2260 C   0  0  0  0  0  3  0  0  0  0  0  0
  187.4030  176.6490  137.1220 C   0  0  0  0  0  2  0  0  0  0  0  0
  186.5110  178.3450  139.2500 C   0  0  0  0  0  2  0  0  0  0  0  0
  180.4060  176.5080  138.6070 O   0  0  0  0  0  0  0  0  0  0  0  0
  183.0980  176.3090  138.6010 O   0  0  0  0  0  0  0  0  0  0  0  0
  179.4230  178.5050  137.9610 N   0  0  0  0  0  2  0  0  0  0  0  0
  181.8870  178.2350  138.0490 N   0  0  0  0  0  2  0  0  0  0  0  0
  183.1100  177.5240  138.2620 C   0  0  0  0  0  0  0  0  0  0  0  0
  180.5700  177.6960  138.2250 C   0  0  0  0  0  0  0  0  0  0  0  0
  184.3500  178.2110  138.0770 N   0  0  0  0  0  2  0  0  0  0  0  0
  179.5200  179.8760  137.4670 C   0  0  2  0  0  3  0  0  0  0  0  0
  180.4000  179.9290  136.2280 C   0  0  0  0  0  1  0  0  0  0  0  0
  180.0720  180.8070  138.5480 C   0  0  1  0  0  3  0  0  0  0  0  0
  180.6040  182.0850  137.9170 C   0  0  0  0  0  2  0  0  0  0  0  0
  181.9230  182.3020  138.3220 O   0  0  0  0  0  1  0  0  0  0  0  0
  179.0840  181.1150  139.4930 O   0  0  0  0  0  0  0  0  0  0  0  0
  179.6900  180.8940  140.7340 C   0  0  0  0  0  2  0  0  0  0  0  0
  178.9310  179.8220  141.4970 C   0  0  0  0  0  2  0  0  0  0  0  0
  179.3210  177.5620  142.4750 O   0  0  0  0  0  1  0  0  0  0  0  0
  179.8260  178.6760  141.8190 C   0  0  0  0  0  0  0  0  0  0  0  0
  181.0480  178.7290  141.5220 O   0  0  0  0  0  0  0  0  0  0  0  0
  191.5670  177.4660  141.3850 C   0  0  0  0  0  2  0  0  0  0  0  0
  190.2500  177.7130  142.1040 C   0  0  0  0  0  2  0  0  0  0  0  0
  189.8180  175.4570  143.1480 C   0  0  0  0  0  1  0  0  0  0  0  0
  190.1740  176.9190  143.4020 C   0  0  2  0  0  3  0  0  0  0  0  0
  189.0640  178.1490  148.0820 C   0  0  0  0  0  1  0  0  0  0  0  0
  187.2510  177.8980  146.3810 C   0  0  0  0  0  0  0  0  0  0  0  0
  187.4640  177.6330  142.7660 O   0  0  0  0  0  0  0  0  0  0  0  0
  187.8270  177.7100  143.9710 C   0  0  0  0  0  0  0  0  0  0  0  0
  185.4690  178.2440  144.6490 C   0  0  0  0  0  1  0  0  0  0  0  0
  189.2120  177.5320  144.3280 N   0  0  0  0  0  0  0  0  0  0  0  0
  186.8580  177.9610  145.0000 N   0  0  0  0  0  0  0  0  0  0  0  0
  188.6720  177.5330  146.7450 C   0  0  1  0  0  3  0  0  0  0  0  0
  189.6470  177.9980  145.6540 C   0  0  1  0  0  3  0  0  0  0  0  0
  186.3870  178.0710  147.2920 O   0  0  0  0  0  0  0  0  0  0  0  0
  190.9450  177.5510  145.9410 O   0  0  0  0  0  0  0  0  0  0  0  0
  190.7670  176.4080  146.7230 C   0  0  0  0  0  1  0  0  0  0  0  0
  1 13  1  6  0  0  0
  1  2  1  0  0  0  0
  2 38  1  1  0  0  0
  3  4  1  6  0  0  0
  3  1  1  0  0  0  0
  3  2  1  0  0  0  0
  5  4  1  0  0  0  0
  6  7  1  6  0  0  0
  6  9  1  0  0  0  0
  6  5  1  0  0  0  0
  9  8  1  1  0  0  0
  9 12  1  0  0  0  0
 10 12  2  0  0  0  0
 12 11  1  0  0  0  0
 14 13  1  0  0  0  0
 14 17  2  0  0  0  0
 15 26  1  6  0  0  0
 15 19  1  0  0  0  0
 16 18  1  0  0  0  0
 16 15  1  0  0  0  0
 17 19  1  0  0  0  0
 18 14  1  0  0  0  0
 22 25  1  0  0  0  0
 23 25  1  0  0  0  0
 23 24  1  0  0  0  0
 24 21  2  0  0  0  0
 25 20  2  0  0  0  0
 26 24  1  0  0  0  0
 27 28  1  6  0  0  0
 27 22  1  0  0  0  0
 27 29  1  0  0  0  0
 29 30  1  6  0  0  0
 29 32  1  0  0  0  0
 30 31  1  0  0  0  0
 32 33  1  0  0  0  0
 33 34  1  0  0  0  0
 34 36  1  0  0  0  0
 36 35  1  0  0  0  0
 37 36  2  0  0  0  0
 38 39  1  0  0  0  0
 39 41  1  0  0  0  0
 41 40  1  6  0  0  0
 41 47  1  0  0  0  0
 43 49  1  0  0  0  0
 43 51  2  0  0  0  0
 44 45  2  0  0  0  0
 45 47  1  0  0  0  0
 45 48  1  0  0  0  0
 46 48  1  0  0  0  0
 47 50  1  0  0  0  0
 48 43  1  0  0  0  0
 49 42  1  1  0  0  0
 50 52  1  1  0  0  0
 50 49  1  0  0  0  0
 52 53  1  0  0  0  0
M  END
>  <MODEL>
3

>  <REMARK>
 VINA RESULT:      -6.0      1.716      3.068
  Name = 
  20 active torsions:
  status: ('A' for Active; 'I' for Inactive)
    1  A    between atoms: C_1  and  C_30
    2  A    between atoms: C_2  and  N_37
    3  A    between atoms: N_5  and  C_42
    4  A    between atoms: C_6  and  C_14
    5  A    between atoms: C_6  and  C_22
    6  A    between atoms: C_7  and  C_48
    7  A    between atoms: C_7  and  O_53
    8  A    between atoms: C_8  and  C_17
    9  A    between atoms: O_13  and  C_47
   10  A    between atoms: C_14  and  C_52
   11  A    between atoms: C_17  and  C_42
   12  A    between atoms: C_17  and  O_53
   13  A    between atoms: C_21  and  C_30
   14  A    between atoms: C_22  and  C_27
   15  A    between atoms: C_25  and  C_39
   16  A    between atoms: N_35  and  C_50
   17  A    between atoms: C_36  and  C_52
   18  A    between atoms: C_38  and  C_48
   19  A    between atoms: C_39  and  C_40
   20  A    between atoms: C_40  and  C_50
                            x       y       z     vdW  Elec       q    Type
                         _______ _______ _______ _____ _____    ______ ____

>  <TORSDO>
F 20

$$$$
=
 OpenBabel11042411483D

 53 55  0  0  1  0  0  0  0  0999 V2000
  190.3130  177.1870  138.2720 C   0  0  1  0  0  3  0  0  0  0  0  0
  190.7000  176.2830  139.4210 C   0  0  1  0  0  3  0  0  0  0  0  0
  191.7310  176.6050  138.3560 C   0  0  1  0  0  3  0  0  0  0  0  0
  191.9720  175.3710  137.4970 C   0  0  0  0  0  2  0  0  0  0  0  0
  193.3820  175.4130  136.9430 C   0  0  0  0  0  2  0  0  0  0  0  0
  194.1220  174.1160  137.2470 C   0  0  1  0  0  3  0  0  0  0  0  0
  193.4570  172.9550  136.5310 C   0  0  0  0  0  1  0  0  0  0  0  0
  196.1260  172.8330  136.3740 C   0  0  0  0  0  1  0  0  0  0  0  0
  195.6320  174.1580  136.9410 C   0  0  2  0  0  3  0  0  0  0  0  0
  197.5810  175.2320  137.7320 O   0  0  0  0  0  0  0  0  0  0  0  0
  196.2380  174.4820  139.4910 C   0  0  0  0  0  1  0  0  0  0  0  0
  196.5490  174.6570  138.0390 C   0  0  0  0  0  0  0  0  0  0  0  0
  189.3480  176.4500  137.3450 C   0  0  0  0  0  2  0  0  0  0  0  0
  187.9510  176.9420  137.5440 C   0  0  0  0  0  0  0  0  0  0  0  0
  185.2860  177.3600  138.0980 C   0  0  1  0  0  3  0  0  0  0  0  0
  185.6710  177.1540  136.7590 O   0  0  0  0  0  0  0  0  0  0  0  0
  187.6900  177.8170  138.5250 C   0  0  0  0  0  3  0  0  0  0  0  0
  186.8040  176.3120  136.7840 C   0  0  0  0  0  2  0  0  0  0  0  0
  186.2880  178.2910  138.7890 C   0  0  0  0  0  2  0  0  0  0  0  0
  180.4950  176.5530  140.4090 O   0  0  0  0  0  0  0  0  0  0  0  0
  183.0750  176.3260  139.6470 O   0  0  0  0  0  0  0  0  0  0  0  0
  179.1850  178.2170  139.4660 N   0  0  0  0  0  2  0  0  0  0  0  0
  181.5810  177.9580  138.8820 N   0  0  0  0  0  2  0  0  0  0  0  0
  182.8740  177.3480  138.9350 C   0  0  0  0  0  0  0  0  0  0  0  0
  180.4290  177.5330  139.6210 C   0  0  0  0  0  0  0  0  0  0  0  0
  183.9370  177.9110  138.1620 N   0  0  0  0  0  2  0  0  0  0  0  0
  179.0060  179.3300  138.5380 C   0  0  2  0  0  3  0  0  0  0  0  0
  180.0560  179.2750  137.4400 C   0  0  0  0  0  1  0  0  0  0  0  0
  179.0780  180.6690  139.2730 C   0  0  1  0  0  3  0  0  0  0  0  0
  178.9310  180.4520  140.7710 C   0  0  0  0  0  2  0  0  0  0  0  0
  180.1760  180.5670  141.3930 O   0  0  0  0  0  1  0  0  0  0  0  0
  180.2860  181.3250  139.0000 O   0  0  0  0  0  0  0  0  0  0  0  0
  179.9130  182.6000  138.5640 C   0  0  0  0  0  2  0  0  0  0  0  0
  180.6550  182.9470  137.2840 C   0  0  0  0  0  2  0  0  0  0  0  0
  179.6390  185.2240  137.3050 O   0  0  0  0  0  1  0  0  0  0  0  0
  180.7590  184.4240  137.1240 C   0  0  0  0  0  0  0  0  0  0  0  0
  181.8560  184.9450  136.7950 O   0  0  0  0  0  0  0  0  0  0  0  0
  190.9710  177.1220  140.6550 C   0  0  0  0  0  2  0  0  0  0  0  0
  189.9670  176.7740  141.7430 C   0  0  0  0  0  2  0  0  0  0  0  0
  190.9760  178.8830  142.6900 C   0  0  0  0  0  1  0  0  0  0  0  0
  189.7820  177.9340  142.7130 C   0  0  2  0  0  3  0  0  0  0  0  0
  186.8350  177.9130  146.7080 C   0  0  0  0  0  1  0  0  0  0  0  0
  189.2480  177.2990  146.9190 C   0  0  0  0  0  0  0  0  0  0  0  0
  191.6960  176.5450  144.3450 O   0  0  0  0  0  0  0  0  0  0  0  0
  190.6080  176.8930  144.8790 C   0  0  0  0  0  0  0  0  0  0  0  0
  191.4560  176.1220  147.1130 C   0  0  0  0  0  1  0  0  0  0  0  0
  189.5430  177.4370  144.0740 N   0  0  0  0  0  0  0  0  0  0  0  0
  190.4280  176.7630  146.2970 N   0  0  0  0  0  0  0  0  0  0  0  0
  188.2210  178.0270  146.0830 C   0  0  1  0  0  3  0  0  0  0  0  0
  188.1910  177.4690  144.6530 C   0  0  1  0  0  3  0  0  0  0  0  0
  189.1100  177.2290  148.1760 O   0  0  0  0  0  0  0  0  0  0  0  0
  187.3220  178.2270  143.8540 O   0  0  0  0  0  0  0  0  0  0  0  0
  186.4470  177.2950  143.2910 C   0  0  0  0  0  1  0  0  0  0  0  0
  1 13  1  6  0  0  0
  1  3  1  0  0  0  0
  1  2  1  0  0  0  0
  2 38  1  1  0  0  0
  3  4  1  6  0  0  0
  3  2  1  0  0  0  0
  5  6  1  0  0  0  0
  5  4  1  0  0  0  0
  6  7  1  6  0  0  0
  9  8  1  1  0  0  0
  9  6  1  0  0  0  0
  9 12  1  0  0  0  0
 10 12  2  0  0  0  0
 12 11  1  0  0  0  0
 13 14  1  0  0  0  0
 14 17  2  0  0  0  0
 15 26  1  6  0  0  0
 15 19  1  0  0  0  0
 16 18  1  0  0  0  0
 16 15  1  0  0  0  0
 17 19  1  0  0  0  0
 18 14  1  0  0  0  0
 22 25  1  0  0  0  0
 23 24  1  0  0  0  0
 23 25  1  0  0  0  0
 24 21  2  0  0  0  0
 25 20  2  0  0  0  0
 26 24  1  0  0  0  0
 27 28  1  6  0  0  0
 27 29  1  0  0  0  0
 27 22  1  0  0  0  0
 29 30  1  1  0  0  0
 30 31  1  0  0  0  0
 32 29  1  0  0  0  0
 33 32  1  0  0  0  0
 34 33  1  0  0  0  0
 36 34  1  0  0  0  0
 36 35  1  0  0  0  0
 37 36  2  0  0  0  0
 38 39  1  0  0  0  0
 39 41  1  0  0  0  0
 41 40  1  1  0  0  0
 41 47  1  0  0  0  0
 43 51  2  0  0  0  0
 44 45  2  0  0  0  0
 45 48  1  0  0  0  0
 47 50  1  0  0  0  0
 47 45  1  0  0  0  0
 48 43  1  0  0  0  0
 48 46  1  0  0  0  0
 49 42  1  1  0  0  0
 49 43  1  0  0  0  0
 50 52  1  6  0  0  0
 50 49  1  0  0  0  0
 53 52  1  0  0  0  0
M  END
>  <MODEL>
4

>  <REMARK>
 VINA RESULT:      -6.0      1.907      3.085
  Name = 
  20 active torsions:
  status: ('A' for Active; 'I' for Inactive)
    1  A    between atoms: C_1  and  C_30
    2  A    between atoms: C_2  and  N_37
    3  A    between atoms: N_5  and  C_42
    4  A    between atoms: C_6  and  C_14
    5  A    between atoms: C_6  and  C_22
    6  A    between atoms: C_7  and  C_48
    7  A    between atoms: C_7  and  O_53
    8  A    between atoms: C_8  and  C_17
    9  A    between atoms: O_13  and  C_47
   10  A    between atoms: C_14  and  C_52
   11  A    between atoms: C_17  and  C_42
   12  A    between atoms: C_17  and  O_53
   13  A    between atoms: C_21  and  C_30
   14  A    between atoms: C_22  and  C_27
   15  A    between atoms: C_25  and  C_39
   16  A    between atoms: N_35  and  C_50
   17  A    between atoms: C_36  and  C_52
   18  A    between atoms: C_38  and  C_48
   19  A    between atoms: C_39  and  C_40
   20  A    between atoms: C_40  and  C_50
                            x       y       z     vdW  Elec       q    Type
                         _______ _______ _______ _____ _____    ______ ____

>  <TORSDO>
F 20

$$$$
=
 OpenBabel11042411483D

 53 55  0  0  1  0  0  0  0  0999 V2000
  190.4330  177.3700  138.7710 C   0  0  1  0  0  3  0  0  0  0  0  0
  190.8480  176.5250  139.9550 C   0  0  1  0  0  3  0  0  0  0  0  0
  191.7920  176.6560  138.7740 C   0  0  1  0  0  3  0  0  0  0  0  0
  191.8300  175.3400  138.0100 C   0  0  0  0  0  2  0  0  0  0  0  0
  193.1810  175.1880  137.3410 C   0  0  0  0  0  2  0  0  0  0  0  0
  193.1850  173.9960  136.3920 C   0  0  1  0  0  3  0  0  0  0  0  0
  193.4510  174.4580  134.9720 C   0  0  0  0  0  1  0  0  0  0  0  0
  195.5520  173.4020  137.0790 C   0  0  0  0  0  1  0  0  0  0  0  0
  194.1540  172.8660  136.7930 C   0  0  2  0  0  3  0  0  0  0  0  0
  193.2950  170.8420  135.9310 O   0  0  0  0  0  0  0  0  0  0  0  0
  195.3420  171.3950  134.9490 C   0  0  0  0  0  1  0  0  0  0  0  0
  194.2110  171.6480  135.8940 C   0  0  0  0  0  0  0  0  0  0  0  0
  189.3160  176.6630  138.0050 C   0  0  0  0  0  2  0  0  0  0  0  0
  188.0000  177.3200  138.2710 C   0  0  0  0  0  0  0  0  0  0  0  0
  185.8370  178.9810  138.6530 C   0  0  1  0  0  3  0  0  0  0  0  0
  186.4920  178.4580  139.7850 O   0  0  0  0  0  0  0  0  0  0  0  0
  187.0060  177.1960  137.3810 C   0  0  0  0  0  3  0  0  0  0  0  0
  187.8470  178.2830  139.4280 C   0  0  0  0  0  2  0  0  0  0  0  0
  185.6880  177.8890  137.5890 C   0  0  0  0  0  2  0  0  0  0  0  0
  180.9680  177.4860  140.3890 O   0  0  0  0  0  0  0  0  0  0  0  0
  183.5310  177.4790  139.5410 O   0  0  0  0  0  0  0  0  0  0  0  0
  179.8060  179.4920  140.4440 N   0  0  0  0  0  2  0  0  0  0  0  0
  182.1820  179.3810  139.7390 N   0  0  0  0  0  2  0  0  0  0  0  0
  183.4210  178.7320  139.4420 C   0  0  0  0  0  0  0  0  0  0  0  0
  180.9900  178.7310  140.2000 C   0  0  0  0  0  0  0  0  0  0  0  0
  184.5350  179.5250  139.0240 N   0  0  0  0  0  2  0  0  0  0  0  0
  179.7280  180.9300  140.2030 C   0  0  2  0  0  3  0  0  0  0  0  0
  178.9310  181.6070  141.3060 C   0  0  0  0  0  1  0  0  0  0  0  0
  179.0980  181.2200  138.8400 C   0  0  1  0  0  3  0  0  0  0  0  0
  179.9120  182.2720  138.1010 C   0  0  0  0  0  2  0  0  0  0  0  0
  179.0650  183.2620  137.5970 O   0  0  0  0  0  1  0  0  0  0  0  0
  179.0120  180.0530  138.0700 O   0  0  0  0  0  0  0  0  0  0  0  0
  179.8420  180.2850  136.9690 C   0  0  0  0  0  2  0  0  0  0  0  0
  180.5420  178.9970  136.5680 C   0  0  0  0  0  2  0  0  0  0  0  0
  179.1870  176.9610  137.0540 O   0  0  0  0  0  1  0  0  0  0  0  0
  179.5460  177.9650  136.1650 C   0  0  0  0  0  0  0  0  0  0  0  0
  179.0520  177.9850  135.0080 O   0  0  0  0  0  0  0  0  0  0  0  0
  191.3170  177.4280  141.0790 C   0  0  0  0  0  2  0  0  0  0  0  0
  190.8010  176.9010  142.4090 C   0  0  0  0  0  2  0  0  0  0  0  0
  191.2550  179.1360  143.4890 C   0  0  0  0  0  1  0  0  0  0  0  0
  190.2320  178.0270  143.2630 C   0  0  2  0  0  3  0  0  0  0  0  0
  186.5090  177.7860  146.5380 C   0  0  0  0  0  1  0  0  0  0  0  0
  188.8570  177.3310  147.2630 C   0  0  0  0  0  0  0  0  0  0  0  0
  191.8410  176.7570  145.2760 O   0  0  0  0  0  0  0  0  0  0  0  0
  190.6430  177.0290  145.5630 C   0  0  0  0  0  0  0  0  0  0  0  0
  191.0440  176.3010  147.9320 C   0  0  0  0  0  1  0  0  0  0  0  0
  189.7410  177.5070  144.5460 N   0  0  0  0  0  0  0  0  0  0  0  0
  190.1740  176.8780  146.9110 N   0  0  0  0  0  0  0  0  0  0  0  0
  187.9850  177.9950  146.2220 C   0  0  1  0  0  3  0  0  0  0  0  0
  188.2980  177.4460  144.8220 C   0  0  1  0  0  3  0  0  0  0  0  0
  188.4580  177.2440  148.4620 O   0  0  0  0  0  0  0  0  0  0  0  0
  187.5710  178.1510  143.8510 O   0  0  0  0  0  0  0  0  0  0  0  0
  186.7020  177.2070  143.2990 C   0  0  0  0  0  1  0  0  0  0  0  0
  1 13  1  6  0  0  0
  1  3  1  0  0  0  0
  1  2  1  0  0  0  0
  2 38  1  1  0  0  0
  3  4  1  6  0  0  0
  3  2  1  0  0  0  0
  5  4  1  0  0  0  0
  6  7  1  6  0  0  0
  6  9  1  0  0  0  0
  6  5  1  0  0  0  0
  9  8  1  6  0  0  0
 11 12  1  0  0  0  0
 12 10  2  0  0  0  0
 12  9  1  0  0  0  0
 13 14  1  0  0  0  0
 14 18  1  0  0  0  0
 15 26  1  1  0  0  0
 15 16  1  0  0  0  0
 17 19  1  0  0  0  0
 17 14  2  0  0  0  0
 18 16  1  0  0  0  0
 19 15  1  0  0  0  0
 23 25  1  0  0  0  0
 24 21  2  0  0  0  0
 24 23  1  0  0  0  0
 25 20  2  0  0  0  0
 25 22  1  0  0  0  0
 26 24  1  0  0  0  0
 27 22  1  0  0  0  0
 27 28  1  1  0  0  0
 29 30  1  6  0  0  0
 29 27  1  0  0  0  0
 31 30  1  0  0  0  0
 32 29  1  0  0  0  0
 33 32  1  0  0  0  0
 34 33  1  0  0  0  0
 36 34  1  0  0  0  0
 36 35  1  0  0  0  0
 37 36  2  0  0  0  0
 38 39  1  0  0  0  0
 39 41  1  0  0  0  0
 41 40  1  1  0  0  0
 41 47  1  0  0  0  0
 43 51  2  0  0  0  0
 44 45  2  0  0  0  0
 45 48  1  0  0  0  0
 47 50  1  0  0  0  0
 47 45  1  0  0  0  0
 48 43  1  0  0  0  0
 48 46  1  0  0  0  0
 49 42  1  1  0  0  0
 49 43  1  0  0  0  0
 50 52  1  6  0  0  0
 50 49  1  0  0  0  0
 53 52  1  0  0  0  0
M  END
>  <MODEL>
5

>  <REMARK>
 VINA RESULT:      -5.9      1.465      1.986
  Name = 
  20 active torsions:
  status: ('A' for Active; 'I' for Inactive)
    1  A    between atoms: C_1  and  C_30
    2  A    between atoms: C_2  and  N_37
    3  A    between atoms: N_5  and  C_42
    4  A    between atoms: C_6  and  C_14
    5  A    between atoms: C_6  and  C_22
    6  A    between atoms: C_7  and  C_48
    7  A    between atoms: C_7  and  O_53
    8  A    between atoms: C_8  and  C_17
    9  A    between atoms: O_13  and  C_47
   10  A    between atoms: C_14  and  C_52
   11  A    between atoms: C_17  and  C_42
   12  A    between atoms: C_17  and  O_53
   13  A    between atoms: C_21  and  C_30
   14  A    between atoms: C_22  and  C_27
   15  A    between atoms: C_25  and  C_39
   16  A    between atoms: N_35  and  C_50
   17  A    between atoms: C_36  and  C_52
   18  A    between atoms: C_38  and  C_48
   19  A    between atoms: C_39  and  C_40
   20  A    between atoms: C_40  and  C_50
                            x       y       z     vdW  Elec       q    Type
                         _______ _______ _______ _____ _____    ______ ____

>  <TORSDO>
F 20

$$$$
=
 OpenBabel11042411483D

 53 55  0  0  1  0  0  0  0  0999 V2000
  184.2520  178.4550  142.1380 C   0  0  1  0  0  3  0  0  0  0  0  0
  183.8610  179.4100  143.2440 C   0  0  1  0  0  3  0  0  0  0  0  0
  182.8200  178.4550  142.6910 C   0  0  1  0  0  3  0  0  0  0  0  0
  181.8090  179.2340  141.8620 C   0  0  0  0  0  2  0  0  0  0  0  0
  181.6880  178.5990  140.4910 C   0  0  0  0  0  2  0  0  0  0  0  0
  181.0170  177.2350  140.5830 C   0  0  1  0  0  3  0  0  0  0  0  0
  179.5430  177.3970  140.9070 C   0  0  0  0  0  1  0  0  0  0  0  0
  182.5970  175.7110  139.3150 C   0  0  0  0  0  1  0  0  0  0  0  0
  181.2120  176.3450  139.3390 C   0  0  2  0  0  3  0  0  0  0  0  0
  181.3380  178.0310  137.6900 O   0  0  0  0  0  0  0  0  0  0  0  0
  179.9710  176.2620  137.0090 C   0  0  0  0  0  1  0  0  0  0  0  0
  180.8650  176.9470  137.9930 C   0  0  0  0  0  0  0  0  0  0  0  0
  184.4600  179.2340  140.8400 C   0  0  0  0  0  2  0  0  0  0  0  0
  185.6700  178.7360  140.1180 C   0  0  0  0  0  0  0  0  0  0  0  0
  187.8820  177.4220  139.1370 C   0  0  1  0  0  3  0  0  0  0  0  0
  188.0770  178.5750  139.9220 O   0  0  0  0  0  0  0  0  0  0  0  0
  185.5390  178.2100  138.8920 C   0  0  0  0  0  3  0  0  0  0  0  0
  187.0000  178.6370  140.8320 C   0  0  0  0  0  2  0  0  0  0  0  0
  186.7260  177.6490  138.1580 C   0  0  0  0  0  2  0  0  0  0  0  0
  193.2150  177.1240  139.7880 O   0  0  0  0  0  0  0  0  0  0  0  0
  190.5740  177.5160  140.1890 O   0  0  0  0  0  0  0  0  0  0  0  0
  193.9540  176.5060  137.6790 N   0  0  0  0  0  2  0  0  0  0  0  0
  191.5450  176.8330  138.1710 N   0  0  0  0  0  2  0  0  0  0  0  0
  190.4180  177.1580  138.9890 C   0  0  0  0  0  0  0  0  0  0  0  0
  192.9130  176.8320  138.6010 C   0  0  0  0  0  0  0  0  0  0  0  0
  189.1060  177.0780  138.4230 N   0  0  0  0  0  2  0  0  0  0  0  0
  193.6990  176.2050  136.2730 C   0  0  2  0  0  3  0  0  0  0  0  0
  192.7770  175.0020  136.1500 C   0  0  0  0  0  1  0  0  0  0  0  0
  195.0080  175.9480  135.5250 C   0  0  1  0  0  3  0  0  0  0  0  0
  195.4230  177.1930  134.7560 C   0  0  0  0  0  2  0  0  0  0  0  0
  196.5810  177.7350  135.3180 O   0  0  0  0  0  1  0  0  0  0  0  0
  196.0250  175.5700  136.4110 O   0  0  0  0  0  0  0  0  0  0  0  0
  196.1310  174.1830  136.2680 C   0  0  0  0  0  2  0  0  0  0  0  0
  195.8760  173.5050  137.6030 C   0  0  0  0  0  2  0  0  0  0  0  0
  195.4570  171.1440  138.2880 O   0  0  0  0  0  1  0  0  0  0  0  0
  195.2180  172.1840  137.4000 C   0  0  0  0  0  0  0  0  0  0  0  0
  194.4660  172.0010  136.4070 O   0  0  0  0  0  0  0  0  0  0  0  0
  184.3750  178.8840  144.5690 C   0  0  0  0  0  2  0  0  0  0  0  0
  185.8890  179.0120  144.6190 C   0  0  0  0  0  2  0  0  0  0  0  0
  185.7130  176.8110  145.8400 C   0  0  0  0  0  1  0  0  0  0  0  0
  186.5470  177.6650  144.8900 C   0  0  2  0  0  3  0  0  0  0  0  0
  191.4320  177.1710  144.1520 C   0  0  0  0  0  1  0  0  0  0  0  0
  190.5180  177.3390  146.4710 C   0  0  0  0  0  0  0  0  0  0  0  0
  187.2090  178.3070  147.6110 O   0  0  0  0  0  0  0  0  0  0  0  0
  188.1530  178.0120  146.8280 C   0  0  0  0  0  0  0  0  0  0  0  0
  189.7690  178.0810  148.7480 C   0  0  0  0  0  1  0  0  0  0  0  0
  187.9060  177.8480  145.4180 N   0  0  0  0  0  0  0  0  0  0  0  0
  189.4810  177.8220  147.3410 N   0  0  0  0  0  0  0  0  0  0  0  0
  190.2000  177.0010  145.0330 C   0  0  1  0  0  3  0  0  0  0  0  0
  189.0610  177.8850  144.5070 C   0  0  1  0  0  3  0  0  0  0  0  0
  191.6790  177.1230  146.9330 O   0  0  0  0  0  0  0  0  0  0  0  0
  188.6930  177.4850  143.2150 O   0  0  0  0  0  0  0  0  0  0  0  0
  188.7290  176.0890  143.2470 C   0  0  0  0  0  1  0  0  0  0  0  0
  1 13  1  6  0  0  0
  1  3  1  0  0  0  0
  1  2  1  0  0  0  0
  2 38  1  1  0  0  0
  3  4  1  6  0  0  0
  3  2  1  0  0  0  0
  5  6  1  0  0  0  0
  5  4  1  0  0  0  0
  6  7  1  6  0  0  0
  9  8  1  6  0  0  0
  9  6  1  0  0  0  0
 10 12  2  0  0  0  0
 11 12  1  0  0  0  0
 12  9  1  0  0  0  0
 14 18  1  0  0  0  0
 14 13  1  0  0  0  0
 15 26  1  6  0  0  0
 15 16  1  0  0  0  0
 16 18  1  0  0  0  0
 17 14  2  0  0  0  0
 19 17  1  0  0  0  0
 19 15  1  0  0  0  0
 22 25  1  0  0  0  0
 23 25  1  0  0  0  0
 23 24  1  0  0  0  0
 24 21  2  0  0  0  0
 25 20  2  0  0  0  0
 26 24  1  0  0  0  0
 27 28  1  1  0  0  0
 27 22  1  0  0  0  0
 29 30  1  1  0  0  0
 29 27  1  0  0  0  0
 29 32  1  0  0  0  0
 30 31  1  0  0  0  0
 33 32  1  0  0  0  0
 33 34  1  0  0  0  0
 36 34  1  0  0  0  0
 36 35  1  0  0  0  0
 37 36  2  0  0  0  0
 38 39  1  0  0  0  0
 39 41  1  0  0  0  0
 41 47  1  0  0  0  0
 41 40  1  1  0  0  0
 43 51  2  0  0  0  0
 43 48  1  0  0  0  0
 45 48  1  0  0  0  0
 45 44  2  0  0  0  0
 47 45  1  0  0  0  0
 48 46  1  0  0  0  0
 49 42  1  6  0  0  0
 49 43  1  0  0  0  0
 50 52  1  6  0  0  0
 50 49  1  0  0  0  0
 50 47  1  0  0  0  0
 52 53  1  0  0  0  0
M  END
>  <MODEL>
6

>  <REMARK>
 VINA RESULT:      -5.9      2.563     10.638
  Name = 
  20 active torsions:
  status: ('A' for Active; 'I' for Inactive)
    1  A    between atoms: C_1  and  C_30
    2  A    between atoms: C_2  and  N_37
    3  A    between atoms: N_5  and  C_42
    4  A    between atoms: C_6  and  C_14
    5  A    between atoms: C_6  and  C_22
    6  A    between atoms: C_7  and  C_48
    7  A    between atoms: C_7  and  O_53
    8  A    between atoms: C_8  and  C_17
    9  A    between atoms: O_13  and  C_47
   10  A    between atoms: C_14  and  C_52
   11  A    between atoms: C_17  and  C_42
   12  A    between atoms: C_17  and  O_53
   13  A    between atoms: C_21  and  C_30
   14  A    between atoms: C_22  and  C_27
   15  A    between atoms: C_25  and  C_39
   16  A    between atoms: N_35  and  C_50
   17  A    between atoms: C_36  and  C_52
   18  A    between atoms: C_38  and  C_48
   19  A    between atoms: C_39  and  C_40
   20  A    between atoms: C_40  and  C_50
                            x       y       z     vdW  Elec       q    Type
                         _______ _______ _______ _____ _____    ______ ____

>  <TORSDO>
F 20

$$$$
=
 OpenBabel11042411483D

 53 55  0  0  1  0  0  0  0  0999 V2000
  189.2160  176.6770  135.6270 C   0  0  1  0  0  3  0  0  0  0  0  0
  189.0150  175.4550  136.4950 C   0  0  1  0  0  3  0  0  0  0  0  0
  188.4910  175.4430  135.0720 C   0  0  1  0  0  3  0  0  0  0  0  0
  186.9710  175.5250  135.0920 C   0  0  0  0  0  2  0  0  0  0  0  0
  186.4260  174.4990  136.0640 C   0  0  0  0  0  2  0  0  0  0  0  0
  184.9830  174.1470  135.7290 C   0  0  1  0  0  3  0  0  0  0  0  0
  184.7980  172.6410  135.7270 C   0  0  0  0  0  1  0  0  0  0  0  0
  182.8150  173.8690  137.0130 C   0  0  0  0  0  1  0  0  0  0  0  0
  183.9350  174.8280  136.6310 C   0  0  2  0  0  3  0  0  0  0  0  0
  183.0720  176.9950  137.0000 O   0  0  0  0  0  0  0  0  0  0  0  0
  183.1970  176.4970  134.7210 C   0  0  0  0  0  1  0  0  0  0  0  0
  183.3780  176.1590  136.1660 C   0  0  0  0  0  0  0  0  0  0  0  0
  188.3140  177.8070  136.1200 C   0  0  0  0  0  2  0  0  0  0  0  0
  188.3830  177.9210  137.6090 C   0  0  0  0  0  0  0  0  0  0  0  0
  188.6350  178.6380  140.2560 C   0  0  1  0  0  3  0  0  0  0  0  0
  189.6720  177.8970  139.6570 O   0  0  0  0  0  0  0  0  0  0  0  0
  187.2500  177.9100  138.3260 C   0  0  0  0  0  3  0  0  0  0  0  0
  189.6920  178.2510  138.2910 C   0  0  0  0  0  2  0  0  0  0  0  0
  187.2770  178.0780  139.8200 C   0  0  0  0  0  2  0  0  0  0  0  0
  191.2090  176.0870  144.2320 O   0  0  0  0  0  0  0  0  0  0  0  0
  190.3140  176.8690  141.8080 O   0  0  0  0  0  0  0  0  0  0  0  0
  190.3160  177.0680  146.1330 N   0  0  0  0  0  2  0  0  0  0  0  0
  189.6080  177.7540  143.8570 N   0  0  0  0  0  2  0  0  0  0  0  0
  189.6000  177.7050  142.4280 C   0  0  0  0  0  0  0  0  0  0  0  0
  190.4130  176.9350  144.7140 C   0  0  0  0  0  0  0  0  0  0  0  0
  188.7640  178.6150  141.7080 N   0  0  0  0  0  2  0  0  0  0  0  0
  189.3840  177.9890  146.7770 C   0  0  2  0  0  3  0  0  0  0  0  0
  189.9410  178.4540  148.1130 C   0  0  0  0  0  1  0  0  0  0  0  0
  188.0170  177.3320  146.9740 C   0  0  1  0  0  3  0  0  0  0  0  0
  187.9330  176.7020  148.3570 C   0  0  0  0  0  2  0  0  0  0  0  0
  187.2440  177.5520  149.2250 O   0  0  0  0  0  1  0  0  0  0  0  0
  186.9850  178.2650  146.8090 O   0  0  0  0  0  0  0  0  0  0  0  0
  186.4910  178.0330  145.5220 C   0  0  0  0  0  2  0  0  0  0  0  0
  185.1710  178.7610  145.3350 C   0  0  0  0  0  2  0  0  0  0  0  0
  183.3250  178.6070  143.6660 O   0  0  0  0  0  1  0  0  0  0  0  0
  184.6870  178.6150  143.9340 C   0  0  0  0  0  0  0  0  0  0  0  0
  185.5130  178.4710  142.9950 O   0  0  0  0  0  0  0  0  0  0  0  0
  190.3090  174.6670  136.5630 C   0  0  0  0  0  2  0  0  0  0  0  0
  191.1750  174.9980  135.3580 C   0  0  0  0  0  2  0  0  0  0  0  0
  193.3640  175.9940  134.5940 C   0  0  0  0  0  1  0  0  0  0  0  0
  192.5380  175.5260  135.7880 C   0  0  2  0  0  3  0  0  0  0  0  0
  195.7340  174.5350  139.4550 C   0  0  0  0  0  1  0  0  0  0  0  0
  195.3640  172.8760  137.6240 C   0  0  0  0  0  0  0  0  0  0  0  0
  192.7790  172.7530  135.0770 O   0  0  0  0  0  0  0  0  0  0  0  0
  193.4710  173.1760  136.0420 C   0  0  0  0  0  0  0  0  0  0  0  0
  194.6290  170.9530  136.1890 C   0  0  0  0  0  1  0  0  0  0  0  0
  193.2690  174.5080  136.5550 N   0  0  0  0  0  0  0  0  0  0  0  0
  194.4780  172.3370  136.6280 N   0  0  0  0  0  0  0  0  0  0  0  0
  195.2540  174.3290  138.0240 C   0  0  1  0  0  3  0  0  0  0  0  0
  193.8060  174.8210  137.8880 C   0  0  1  0  0  3  0  0  0  0  0  0
  196.2850  172.1520  138.1070 O   0  0  0  0  0  0  0  0  0  0  0  0
  193.7350  176.1980  138.1460 O   0  0  0  0  0  0  0  0  0  0  0  0
  192.6590  176.3440  139.0240 C   0  0  0  0  0  1  0  0  0  0  0  0
  1 13  1  1  0  0  0
  1  2  1  0  0  0  0
  2 38  1  6  0  0  0
  3  4  1  1  0  0  0
  3  1  1  0  0  0  0
  3  2  1  0  0  0  0
  4  5  1  0  0  0  0
  6  7  1  1  0  0  0
  6  5  1  0  0  0  0
  6  9  1  0  0  0  0
  9  8  1  6  0  0  0
 11 12  1  0  0  0  0
 12  9  1  0  0  0  0
 12 10  2  0  0  0  0
 13 14  1  0  0  0  0
 14 18  1  0  0  0  0
 14 17  2  0  0  0  0
 15 26  1  1  0  0  0
 16 15  1  0  0  0  0
 17 19  1  0  0  0  0
 18 16  1  0  0  0  0
 19 15  1  0  0  0  0
 20 25  2  0  0  0  0
 21 24  2  0  0  0  0
 22 27  1  0  0  0  0
 23 25  1  0  0  0  0
 24 23  1  0  0  0  0
 25 22  1  0  0  0  0
 26 24  1  0  0  0  0
 27 29  1  0  0  0  0
 27 28  1  1  0  0  0
 29 30  1  1  0  0  0
 30 31  1  0  0  0  0
 32 29  1  0  0  0  0
 33 32  1  0  0  0  0
 34 33  1  0  0  0  0
 35 36  1  0  0  0  0
 36 34  1  0  0  0  0
 37 36  2  0  0  0  0
 39 41  1  0  0  0  0
 39 38  1  0  0  0  0
 41 40  1  6  0  0  0
 41 47  1  0  0  0  0
 43 49  1  0  0  0  0
 43 51  2  0  0  0  0
 44 45  2  0  0  0  0
 45 47  1  0  0  0  0
 45 48  1  0  0  0  0
 46 48  1  0  0  0  0
 47 50  1  0  0  0  0
 48 43  1  0  0  0  0
 49 42  1  1  0  0  0
 50 49  1  0  0  0  0
 50 52  1  6  0  0  0
 52 53  1  0  0  0  0
M  END
>  <MODEL>
7

>  <REMARK>
 VINA RESULT:      -5.5      3.198      9.299
  Name = 
  20 active torsions:
  status: ('A' for Active; 'I' for Inactive)
    1  A    between atoms: C_1  and  C_30
    2  A    between atoms: C_2  and  N_37
    3  A    between atoms: N_5  and  C_42
    4  A    between atoms: C_6  and  C_14
    5  A    between atoms: C_6  and  C_22
    6  A    between atoms: C_7  and  C_48
    7  A    between atoms: C_7  and  O_53
    8  A    between atoms: C_8  and  C_17
    9  A    between atoms: O_13  and  C_47
   10  A    between atoms: C_14  and  C_52
   11  A    between atoms: C_17  and  C_42
   12  A    between atoms: C_17  and  O_53
   13  A    between atoms: C_21  and  C_30
   14  A    between atoms: C_22  and  C_27
   15  A    between atoms: C_25  and  C_39
   16  A    between atoms: N_35  and  C_50
   17  A    between atoms: C_36  and  C_52
   18  A    between atoms: C_38  and  C_48
   19  A    between atoms: C_39  and  C_40
   20  A    between atoms: C_40  and  C_50
                            x       y       z     vdW  Elec       q    Type
                         _______ _______ _______ _____ _____    ______ ____

>  <TORSDO>
F 20

$$$$
=
 OpenBabel11042411483D

 53 55  0  0  1  0  0  0  0  0999 V2000
  185.8880  179.0070  141.5860 C   0  0  1  0  0  3  0  0  0  0  0  0
  184.8820  178.0730  142.2220 C   0  0  1  0  0  3  0  0  0  0  0  0
  184.8440  179.5480  142.5730 C   0  0  1  0  0  3  0  0  0  0  0  0
  185.3440  179.7410  143.9980 C   0  0  0  0  0  2  0  0  0  0  0  0
  185.7260  178.3960  144.5820 C   0  0  0  0  0  2  0  0  0  0  0  0
  186.2000  178.5470  146.0220 C   0  0  1  0  0  3  0  0  0  0  0  0
  185.0220  178.4510  146.9740 C   0  0  0  0  0  1  0  0  0  0  0  0
  187.9680  177.9720  147.7460 C   0  0  0  0  0  1  0  0  0  0  0  0
  187.3170  177.5660  146.4290 C   0  0  2  0  0  3  0  0  0  0  0  0
  188.1060  176.3930  144.5370 O   0  0  0  0  0  0  0  0  0  0  0  0
  189.7010  177.8980  145.3430 C   0  0  0  0  0  1  0  0  0  0  0  0
  188.3630  177.2320  145.3860 C   0  0  0  0  0  0  0  0  0  0  0  0
  187.2740  178.7390  142.1690 C   0  0  0  0  0  2  0  0  0  0  0  0
  188.1120  177.9700  141.1990 C   0  0  0  0  0  0  0  0  0  0  0  0
  189.8070  177.0340  139.2410 C   0  0  1  0  0  3  0  0  0  0  0  0
  188.4190  176.9970  139.0050 O   0  0  0  0  0  0  0  0  0  0  0  0
  189.2040  177.3260  141.6330 C   0  0  0  0  0  3  0  0  0  0  0  0
  187.8550  178.0800  139.7120 C   0  0  0  0  0  2  0  0  0  0  0  0
  190.1010  176.5890  140.6770 C   0  0  0  0  0  2  0  0  0  0  0  0
  194.7040  176.1230  137.2070 O   0  0  0  0  0  0  0  0  0  0  0  0
  192.6290  177.1170  138.6200 O   0  0  0  0  0  0  0  0  0  0  0  0
  194.3000  174.4890  135.6130 N   0  0  0  0  0  2  0  0  0  0  0  0
  192.4760  175.4270  137.0070 N   0  0  0  0  0  2  0  0  0  0  0  0
  191.9100  176.2850  138.0020 C   0  0  0  0  0  0  0  0  0  0  0  0
  193.8610  175.3790  136.6390 C   0  0  0  0  0  0  0  0  0  0  0  0
  190.5110  176.1900  138.2820 N   0  0  0  0  0  2  0  0  0  0  0  0
  193.3840  173.6290  134.8680 C   0  0  2  0  0  3  0  0  0  0  0  0
  192.0460  174.3260  134.6750 C   0  0  0  0  0  1  0  0  0  0  0  0
  193.1860  172.2920  135.5840 C   0  0  1  0  0  3  0  0  0  0  0  0
  192.3070  171.3750  134.7470 C   0  0  0  0  0  2  0  0  0  0  0  0
  191.0450  171.2590  135.3350 O   0  0  0  0  0  1  0  0  0  0  0  0
  194.4180  171.6750  135.8380 O   0  0  0  0  0  0  0  0  0  0  0  0
  194.2050  170.9020  136.9840 C   0  0  0  0  0  2  0  0  0  0  0  0
  195.4850  170.8150  137.7960 C   0  0  0  0  0  2  0  0  0  0  0  0
  197.2480  172.5680  137.6000 O   0  0  0  0  0  0  0  0  0  0  0  0
  196.0100  172.1780  138.0910 C   0  0  0  0  0  0  0  0  0  0  0  0
  195.3440  172.9660  138.8110 O   0  0  0  0  0  1  0  0  0  0  0  0
  183.7820  177.7630  141.2250 C   0  0  0  0  0  2  0  0  0  0  0  0
  183.6800  178.8890  140.2080 C   0  0  0  0  0  2  0  0  0  0  0  0
  181.2830  178.1370  140.4490 C   0  0  0  0  0  1  0  0  0  0  0  0
  182.2270  179.1740  139.8470 C   0  0  2  0  0  3  0  0  0  0  0  0
  180.1470  181.4710  135.9690 C   0  0  0  0  0  1  0  0  0  0  0  0
  180.9330  179.1090  135.7610 C   0  0  0  0  0  0  0  0  0  0  0  0
  183.0340  177.1460  137.9780 O   0  0  0  0  0  0  0  0  0  0  0  0
  182.3480  178.1100  137.5420 C   0  0  0  0  0  0  0  0  0  0  0  0
  182.2010  176.9940  135.2980 C   0  0  0  0  0  1  0  0  0  0  0  0
  182.0600  179.2400  138.3890 N   0  0  0  0  0  0  0  0  0  0  0  0
  181.8360  178.0810  136.2010 N   0  0  0  0  0  0  0  0  0  0  0  0
  180.4980  180.1930  136.7200 C   0  0  1  0  0  3  0  0  0  0  0  0
  181.6020  180.4820  137.7470 C   0  0  1  0  0  3  0  0  0  0  0  0
  180.4410  179.0590  134.5940 O   0  0  0  0  0  0  0  0  0  0  0  0
  181.1460  181.4020  138.7030 O   0  0  0  0  0  0  0  0  0  0  0  0
  181.4950  182.6540  138.1910 C   0  0  0  0  0  1  0  0  0  0  0  0
  1 13  1  1  0  0  0
  1  2  1  0  0  0  0
  1  3  1  0  0  0  0
  2 38  1  6  0  0  0
  2  3  1  0  0  0  0
  3  4  1  1  0  0  0
  4  5  1  0  0  0  0
  5  6  1  0  0  0  0
  6  9  1  0  0  0  0
  6  7  1  1  0  0  0
  9  8  1  1  0  0  0
 10 12  2  0  0  0  0
 11 12  1  0  0  0  0
 12  9  1  0  0  0  0
 14 17  2  0  0  0  0
 14 13  1  0  0  0  0
 15 26  1  6  0  0  0
 15 19  1  0  0  0  0
 16 15  1  0  0  0  0
 16 18  1  0  0  0  0
 18 14  1  0  0  0  0
 19 17  1  0  0  0  0
 22 25  1  0  0  0  0
 23 24  1  0  0  0  0
 24 26  1  0  0  0  0
 24 21  2  0  0  0  0
 25 23  1  0  0  0  0
 25 20  2  0  0  0  0
 27 28  1  1  0  0  0
 27 29  1  0  0  0  0
 27 22  1  0  0  0  0
 29 30  1  6  0  0  0
 29 32  1  0  0  0  0
 30 31  1  0  0  0  0
 32 33  1  0  0  0  0
 33 34  1  0  0  0  0
 34 36  1  0  0  0  0
 35 36  2  0  0  0  0
 36 37  1  0  0  0  0
 39 38  1  0  0  0  0
 41 39  1  0  0  0  0
 41 40  1  6  0  0  0
 43 48  1  0  0  0  0
 43 49  1  0  0  0  0
 45 44  2  0  0  0  0
 45 47  1  0  0  0  0
 46 48  1  0  0  0  0
 47 41  1  0  0  0  0
 48 45  1  0  0  0  0
 49 42  1  6  0  0  0
 49 50  1  0  0  0  0
 50 47  1  0  0  0  0
 50 52  1  1  0  0  0
 51 43  2  0  0  0  0
 53 52  1  0  0  0  0
M  END
>  <MODEL>
8

>  <REMARK>
 VINA RESULT:      -5.5      3.209     11.915
  Name = 
  20 active torsions:
  status: ('A' for Active; 'I' for Inactive)
    1  A    between atoms: C_1  and  C_30
    2  A    between atoms: C_2  and  N_37
    3  A    between atoms: N_5  and  C_42
    4  A    between atoms: C_6  and  C_14
    5  A    between atoms: C_6  and  C_22
    6  A    between atoms: C_7  and  C_48
    7  A    between atoms: C_7  and  O_53
    8  A    between atoms: C_8  and  C_17
    9  A    between atoms: O_13  and  C_47
   10  A    between atoms: C_14  and  C_52
   11  A    between atoms: C_17  and  C_42
   12  A    between atoms: C_17  and  O_53
   13  A    between atoms: C_21  and  C_30
   14  A    between atoms: C_22  and  C_27
   15  A    between atoms: C_25  and  C_39
   16  A    between atoms: N_35  and  C_50
   17  A    between atoms: C_36  and  C_52
   18  A    between atoms: C_38  and  C_48
   19  A    between atoms: C_39  and  C_40
   20  A    between atoms: C_40  and  C_50
                            x       y       z     vdW  Elec       q    Type
                         _______ _______ _______ _____ _____    ______ ____

>  <TORSDO>
F 20

$$$$
=
 OpenBabel11042411483D

 53 55  0  0  1  0  0  0  0  0999 V2000
  190.9280  176.9530  137.7030 C   0  0  1  0  0  3  0  0  0  0  0  0
  190.8990  176.1760  139.0010 C   0  0  1  0  0  3  0  0  0  0  0  0
  192.2350  176.4670  138.3450 C   0  0  1  0  0  3  0  0  0  0  0  0
  192.8020  175.1810  137.7590 C   0  0  0  0  0  2  0  0  0  0  0  0
  194.3140  175.2150  137.8420 C   0  0  0  0  0  2  0  0  0  0  0  0
  194.9390  174.7870  136.5210 C   0  0  1  0  0  3  0  0  0  0  0  0
  194.3940  175.6340  135.3860 C   0  0  0  0  0  1  0  0  0  0  0  0
  197.0380  175.7660  135.4890 C   0  0  0  0  0  1  0  0  0  0  0  0
  196.4810  174.7880  136.5170 C   0  0  2  0  0  3  0  0  0  0  0  0
  196.6670  172.5610  135.7510 O   0  0  0  0  0  0  0  0  0  0  0  0
  198.4700  173.1560  137.1120 C   0  0  0  0  0  1  0  0  0  0  0  0
  197.1760  173.4450  136.4230 C   0  0  0  0  0  0  0  0  0  0  0  0
  190.3810  176.0810  136.5740 C   0  0  0  0  0  2  0  0  0  0  0  0
  188.9310  175.7900  136.7910 C   0  0  0  0  0  0  0  0  0  0  0  0
  186.1950  175.4880  136.7180 C   0  0  1  0  0  3  0  0  0  0  0  0
  186.7400  176.4950  137.5380 O   0  0  0  0  0  0  0  0  0  0  0  0
  188.4870  174.5300  136.6890 C   0  0  0  0  0  3  0  0  0  0  0  0
  187.9360  176.9220  136.9220 C   0  0  0  0  0  2  0  0  0  0  0  0
  187.0260  174.2080  136.8460 C   0  0  0  0  0  2  0  0  0  0  0  0
  181.2550  177.5380  136.1360 O   0  0  0  0  0  0  0  0  0  0  0  0
  183.9220  177.1340  136.0240 O   0  0  0  0  0  0  0  0  0  0  0  0
  179.9460  176.0800  137.3760 N   0  0  0  0  0  2  0  0  0  0  0  0
  182.3970  175.7670  137.1580 N   0  0  0  0  0  2  0  0  0  0  0  0
  183.7160  176.0980  136.7150 C   0  0  0  0  0  0  0  0  0  0  0  0
  181.2060  176.5060  136.8550 C   0  0  0  0  0  0  0  0  0  0  0  0
  184.8020  175.2400  137.0720 N   0  0  0  0  0  2  0  0  0  0  0  0
  179.8060  174.9260  138.2590 C   0  0  2  0  0  3  0  0  0  0  0  0
  179.0110  173.8280  137.5690 C   0  0  0  0  0  1  0  0  0  0  0  0
  179.1300  175.3230  139.5720 C   0  0  1  0  0  3  0  0  0  0  0  0
  178.9330  174.0970  140.4510 C   0  0  0  0  0  2  0  0  0  0  0  0
  179.6930  174.2200  141.6170 O   0  0  0  0  0  1  0  0  0  0  0  0
  179.8880  176.2850  140.2530 O   0  0  0  0  0  0  0  0  0  0  0  0
  178.9600  177.2370  140.6850 C   0  0  0  0  0  2  0  0  0  0  0  0
  179.5760  178.6240  140.6270 C   0  0  0  0  0  2  0  0  0  0  0  0
  181.8850  178.2800  141.5000 O   0  0  0  0  0  1  0  0  0  0  0  0
  181.0480  178.5340  140.4230 C   0  0  0  0  0  0  0  0  0  0  0  0
  181.5370  178.7180  139.2780 O   0  0  0  0  0  0  0  0  0  0  0  0
  190.6860  177.1330  140.1570 C   0  0  0  0  0  2  0  0  0  0  0  0
  190.0630  176.3910  141.3290 C   0  0  0  0  0  2  0  0  0  0  0  0
  189.0880  178.6980  141.6380 C   0  0  0  0  0  1  0  0  0  0  0  0
  188.9590  177.2170  141.9790 C   0  0  2  0  0  3  0  0  0  0  0  0
  186.4090  177.4600  146.2310 C   0  0  0  0  0  1  0  0  0  0  0  0
  188.9070  177.5040  146.2550 C   0  0  0  0  0  0  0  0  0  0  0  0
  191.2790  176.7560  143.6100 O   0  0  0  0  0  0  0  0  0  0  0  0
  190.1780  176.9540  144.1920 C   0  0  0  0  0  0  0  0  0  0  0  0
  191.3530  176.9670  146.4120 C   0  0  0  0  0  1  0  0  0  0  0  0
  188.9540  177.0200  143.4340 N   0  0  0  0  0  0  0  0  0  0  0  0
  190.1390  177.1300  145.6170 N   0  0  0  0  0  0  0  0  0  0  0  0
  187.6690  177.7450  145.4230 C   0  0  1  0  0  3  0  0  0  0  0  0
  187.6840  176.8690  144.1620 C   0  0  1  0  0  3  0  0  0  0  0  0
  188.8810  177.7090  147.5060 O   0  0  0  0  0  0  0  0  0  0  0  0
  186.5940  177.1850  143.3380 O   0  0  0  0  0  0  0  0  0  0  0  0
  186.2720  178.5050  143.6600 C   0  0  0  0  0  1  0  0  0  0  0  0
  1 13  1  6  0  0  0
  1  3  1  0  0  0  0
  1  2  1  0  0  0  0
  2 38  1  1  0  0  0
  3  4  1  6  0  0  0
  3  2  1  0  0  0  0
  4  5  1  0  0  0  0
  6  7  1  6  0  0  0
  6  5  1  0  0  0  0
  9  8  1  6  0  0  0
  9  6  1  0  0  0  0
 10 12  2  0  0  0  0
 12  9  1  0  0  0  0
 12 11  1  0  0  0  0
 13 14  1  0  0  0  0
 14 18  1  0  0  0  0
 15 19  1  0  0  0  0
 15 26  1  1  0  0  0
 15 16  1  0  0  0  0
 17 14  2  0  0  0  0
 17 19  1  0  0  0  0
 18 16  1  0  0  0  0
 20 25  2  0  0  0  0
 21 24  2  0  0  0  0
 22 27  1  0  0  0  0
 24 26  1  0  0  0  0
 24 23  1  0  0  0  0
 25 23  1  0  0  0  0
 25 22  1  0  0  0  0
 27 28  1  6  0  0  0
 27 29  1  0  0  0  0
 29 32  1  0  0  0  0
 29 30  1  1  0  0  0
 30 31  1  0  0  0  0
 32 33  1  0  0  0  0
 34 33  1  0  0  0  0
 36 34  1  0  0  0  0
 36 35  1  0  0  0  0
 37 36  2  0  0  0  0
 38 39  1  0  0  0  0
 39 41  1  0  0  0  0
 41 40  1  1  0  0  0
 41 47  1  0  0  0  0
 43 51  2  0  0  0  0
 44 45  2  0  0  0  0
 45 48  1  0  0  0  0
 47 50  1  0  0  0  0
 47 45  1  0  0  0  0
 48 43  1  0  0  0  0
 48 46  1  0  0  0  0
 49 42  1  1  0  0  0
 49 43  1  0  0  0  0
 50 52  1  6  0  0  0
 50 49  1  0  0  0  0
 52 53  1  0  0  0  0
M  END
>  <MODEL>
9

>  <REMARK>
 VINA RESULT:      -5.4      1.941      3.093
  Name = 
  20 active torsions:
  status: ('A' for Active; 'I' for Inactive)
    1  A    between atoms: C_1  and  C_30
    2  A    between atoms: C_2  and  N_37
    3  A    between atoms: N_5  and  C_42
    4  A    between atoms: C_6  and  C_14
    5  A    between atoms: C_6  and  C_22
    6  A    between atoms: C_7  and  C_48
    7  A    between atoms: C_7  and  O_53
    8  A    between atoms: C_8  and  C_17
    9  A    between atoms: O_13  and  C_47
   10  A    between atoms: C_14  and  C_52
   11  A    between atoms: C_17  and  C_42
   12  A    between atoms: C_17  and  O_53
   13  A    between atoms: C_21  and  C_30
   14  A    between atoms: C_22  and  C_27
   15  A    between atoms: C_25  and  C_39
   16  A    between atoms: N_35  and  C_50
   17  A    between atoms: C_36  and  C_52
   18  A    between atoms: C_38  and  C_48
   19  A    between atoms: C_39  and  C_40
   20  A    between atoms: C_40  and  C_50
                            x       y       z     vdW  Elec       q    Type
                         _______ _______ _______ _____ _____    ______ ____

>  <TORSDO>
F 20

$$$$
