=
 OpenBabel11042412273D

 26 29  0  0  1  0  0  0  0  0999 V2000
  184.5560  178.4410  143.7200 C   0  0  0  0  0  0  0  0  0  0  0  0
  189.6560  177.7190  142.6370 C   0  0  1  0  0  3  0  0  0  0  0  0
  191.1370  177.3050  144.6260 N   0  0  0  0  0  2  0  0  0  0  0  0
  188.5580  177.5680  143.6020 N   0  0  0  0  0  0  0  0  0  0  0  0
  187.2350  177.8400  143.4950 C   0  0  0  0  0  0  0  0  0  0  0  0
  190.0030  177.2800  145.4990 C   0  0  0  0  0  0  0  0  0  0  0  0
  187.6320  177.5550  147.0450 C   0  0  0  0  0  3  0  0  0  0  0  0
  185.1840  178.4680  142.5000 N   0  0  0  0  0  0  0  0  0  0  0  0
  186.5120  178.1830  142.3560 C   0  0  0  0  0  3  0  0  0  0  0  0
  190.0790  177.2520  146.9140 C   0  0  0  0  0  0  0  0  0  0  0  0
  187.6090  177.5480  145.6530 C   0  0  0  0  0  0  0  0  0  0  0  0
  188.8890  177.3980  147.6720 C   0  0  0  0  0  3  0  0  0  0  0  0
  186.6180  177.8140  144.7320 C   0  0  0  0  0  0  0  0  0  0  0  0
  185.2720  178.1230  144.8880 C   0  0  0  0  0  3  0  0  0  0  0  0
  190.9660  177.0910  143.1800 C   0  0  0  0  0  2  0  0  0  0  0  0
  188.7590  177.4090  144.9200 C   0  0  0  0  0  0  0  0  0  0  0  0
  193.4230  176.0140  148.2540 N   0  0  0  0  0  1  0  0  0  0  0  0
  192.0890  175.9400  147.7640 C   0  0  0  0  0  0  0  0  0  0  0  0
  191.3260  177.1400  147.6130 N   0  0  0  0  0  2  0  0  0  0  0  0
  191.5800  174.8140  147.5200 O   0  0  0  0  0  0  0  0  0  0  0  0
  181.9850  179.0240  143.8820 C   0  0  0  0  0  3  0  0  0  0  0  0
  183.1590  178.7580  143.8070 C   0  0  0  0  0  0  0  0  0  0  0  0
  189.3040  177.0980  141.2900 C   0  0  0  0  0  2  0  0  0  0  0  0
  189.7830  177.8900  140.2430 O   0  0  0  0  0  0  0  0  0  0  0  0
  188.6460  178.2310  139.5120 C   0  0  0  0  0  2  0  0  0  0  0  0
  189.0230  179.0820  138.3990 N   0  0  0  0  0  1  0  0  0  0  0  0
  1 22  1  0  0  0  0
  1 14  1  0  0  0  0
  2 23  1  6  0  0  0
  2 15  1  0  0  0  0
  2  4  1  0  0  0  0
  3  6  1  0  0  0  0
  4 16  1  0  0  0  0
  5  4  1  0  0  0  0
  5 13  1  0  0  0  0
  6 10  1  0  0  0  0
  7 12  1  0  0  0  0
  8  1  2  0  0  0  0
  9  8  1  0  0  0  0
  9  5  2  0  0  0  0
 10 19  1  0  0  0  0
 10 12  2  0  0  0  0
 11  7  2  0  0  0  0
 13 14  2  0  0  0  0
 13 11  1  0  0  0  0
 15  3  1  0  0  0  0
 16  6  2  0  0  0  0
 16 11  1  0  0  0  0
 18 17  1  0  0  0  0
 19 18  1  0  0  0  0
 20 18  2  0  0  0  0
 22 21  3  0  0  0  0
 24 23  1  0  0  0  0
 25 24  1  0  0  0  0
 26 25  1  0  0  0  0
M  END
>  <MODEL>
1

>  <REMARK>
 VINA RESULT:      -9.0      0.000      0.000
  Name = 
  5 active torsions:
  status: ('A' for Active; 'I' for Inactive)
    1  A    between atoms: C_1  and  C_19
    2  A    between atoms: C_2  and  C_25
    3  A    between atoms: C_11  and  N_21
    4  A    between atoms: C_14  and  O_18
    5  A    between atoms: O_18  and  C_25
                            x       y       z     vdW  Elec       q    Type
                         _______ _______ _______ _____ _____    ______ ____

>  <TORSDO>
F 5

$$$$
=
 OpenBabel11042412273D

 26 29  0  0  1  0  0  0  0  0999 V2000
  185.2770  178.2960  143.9630 C   0  0  0  0  0  0  0  0  0  0  0  0
  190.2980  176.7560  144.3170 C   0  0  1  0  0  3  0  0  0  0  0  0
  191.5810  176.7410  142.1550 N   0  0  0  0  0  2  0  0  0  0  0  0
  189.2620  177.4440  143.5330 N   0  0  0  0  0  0  0  0  0  0  0  0
  187.9680  177.7260  143.8210 C   0  0  0  0  0  0  0  0  0  0  0  0
  190.4700  177.3190  141.4610 C   0  0  0  0  0  0  0  0  0  0  0  0
  188.0440  178.2010  140.2690 C   0  0  0  0  0  3  0  0  0  0  0  0
  185.9700  177.8860  145.0730 N   0  0  0  0  0  0  0  0  0  0  0  0
  187.3020  177.5870  145.0350 C   0  0  0  0  0  3  0  0  0  0  0  0
  190.3900  177.4650  140.0540 C   0  0  0  0  0  0  0  0  0  0  0  0
  188.1830  178.0680  141.6480 C   0  0  0  0  0  0  0  0  0  0  0  0
  189.1710  177.8980  139.4730 C   0  0  0  0  0  3  0  0  0  0  0  0
  187.2830  178.1330  142.6910 C   0  0  0  0  0  0  0  0  0  0  0  0
  185.9230  178.4180  142.7200 C   0  0  0  0  0  3  0  0  0  0  0  0
  191.6790  176.8510  143.6200 C   0  0  0  0  0  2  0  0  0  0  0  0
  189.3600  177.6470  142.2100 C   0  0  0  0  0  0  0  0  0  0  0  0
  192.5470  175.9390  137.3100 N   0  0  0  0  0  1  0  0  0  0  0  0
  191.5250  176.0120  138.2970 C   0  0  0  0  0  0  0  0  0  0  0  0
  191.4810  177.1330  139.1850 N   0  0  0  0  0  2  0  0  0  0  0  0
  190.7050  175.0630  138.4120 O   0  0  0  0  0  0  0  0  0  0  0  0
  182.6980  178.8330  144.1520 C   0  0  0  0  0  3  0  0  0  0  0  0
  183.8750  178.5870  144.0660 C   0  0  0  0  0  0  0  0  0  0  0  0
  190.3930  177.3190  145.7310 C   0  0  0  0  0  2  0  0  0  0  0  0
  191.6690  177.1090  146.2590 O   0  0  0  0  0  0  0  0  0  0  0  0
  191.4630  176.2650  147.3490 C   0  0  0  0  0  2  0  0  0  0  0  0
  192.7380  175.9570  147.9710 N   0  0  0  0  0  1  0  0  0  0  0  0
  1 22  1  0  0  0  0
  1  8  1  0  0  0  0
  2 23  1  1  0  0  0
  3 15  1  0  0  0  0
  4  5  1  0  0  0  0
  4  2  1  0  0  0  0
  5  9  1  0  0  0  0
  6  3  1  0  0  0  0
  6 16  1  0  0  0  0
  7 11  1  0  0  0  0
  9  8  2  0  0  0  0
 10  6  2  0  0  0  0
 11 16  2  0  0  0  0
 11 13  1  0  0  0  0
 12 10  1  0  0  0  0
 12  7  2  0  0  0  0
 13 14  1  0  0  0  0
 13  5  2  0  0  0  0
 14  1  2  0  0  0  0
 15  2  1  0  0  0  0
 16  4  1  0  0  0  0
 17 18  1  0  0  0  0
 18 20  2  0  0  0  0
 18 19  1  0  0  0  0
 19 10  1  0  0  0  0
 22 21  3  0  0  0  0
 23 24  1  0  0  0  0
 24 25  1  0  0  0  0
 25 26  1  0  0  0  0
M  END
>  <MODEL>
2

>  <REMARK>
 VINA RESULT:      -8.4      1.946      5.743
  Name = 
  5 active torsions:
  status: ('A' for Active; 'I' for Inactive)
    1  A    between atoms: C_1  and  C_19
    2  A    between atoms: C_2  and  C_25
    3  A    between atoms: C_11  and  N_21
    4  A    between atoms: C_14  and  O_18
    5  A    between atoms: O_18  and  C_25
                            x       y       z     vdW  Elec       q    Type
                         _______ _______ _______ _____ _____    ______ ____

>  <TORSDO>
F 5

$$$$
=
 OpenBabel11042412273D

 26 29  0  0  1  0  0  0  0  0999 V2000
  190.2770  176.8260  145.8930 C   0  0  0  0  0  0  0  0  0  0  0  0
  186.2380  178.7600  143.1280 C   0  0  1  0  0  3  0  0  0  0  0  0
  186.6060  178.9270  140.6470 N   0  0  0  0  0  2  0  0  0  0  0  0
  187.5010  178.0080  143.1210 N   0  0  0  0  0  0  0  0  0  0  0  0
  188.3090  177.6160  144.1360 C   0  0  0  0  0  0  0  0  0  0  0  0
  187.8760  178.2760  140.7640 C   0  0  0  0  0  0  0  0  0  0  0  0
  190.4640  177.2270  141.2990 C   0  0  0  0  0  3  0  0  0  0  0  0
  189.0610  177.2660  146.3500 N   0  0  0  0  0  0  0  0  0  0  0  0
  188.0670  177.6730  145.5050 C   0  0  0  0  0  3  0  0  0  0  0  0
  188.8170  178.1560  139.7120 C   0  0  0  0  0  0  0  0  0  0  0  0
  189.4940  177.3400  142.2910 C   0  0  0  0  0  0  0  0  0  0  0  0
  190.1070  177.6380  139.9950 C   0  0  0  0  0  3  0  0  0  0  0  0
  189.5320  177.1790  143.6600 C   0  0  0  0  0  0  0  0  0  0  0  0
  190.5540  176.7850  144.5150 C   0  0  0  0  0  3  0  0  0  0  0  0
  185.6020  178.7930  141.7140 C   0  0  0  0  0  2  0  0  0  0  0  0
  188.2480  177.8430  142.0180 C   0  0  0  0  0  0  0  0  0  0  0  0
  187.3490  178.5240  136.2160 N   0  0  0  0  0  1  0  0  0  0  0  0
  187.7710  177.8700  137.4070 C   0  0  0  0  0  0  0  0  0  0  0  0
  188.5350  178.5950  138.3760 N   0  0  0  0  0  2  0  0  0  0  0  0
  187.5120  176.6490  137.5700 O   0  0  0  0  0  0  0  0  0  0  0  0
  192.1310  176.0780  147.6200 C   0  0  0  0  0  3  0  0  0  0  0  0
  191.2840  176.4190  146.8320 C   0  0  0  0  0  0  0  0  0  0  0  0
  185.2460  178.1750  144.1270 C   0  0  0  0  0  2  0  0  0  0  0  0
  183.9390  178.2860  143.6450 O   0  0  0  0  0  0  0  0  0  0  0  0
  183.2420  178.9290  144.6660 C   0  0  0  0  0  2  0  0  0  0  0  0
  184.0170  178.8740  145.8920 N   0  0  0  0  0  1  0  0  0  0  0  0
  1  8  1  0  0  0  0
  1 22  1  0  0  0  0
  2 23  1  1  0  0  0
  3  6  1  0  0  0  0
  3 15  1  0  0  0  0
  4  2  1  0  0  0  0
  4  5  1  0  0  0  0
  5  9  1  0  0  0  0
  6 16  1  0  0  0  0
  7 11  1  0  0  0  0
  9  8  2  0  0  0  0
 10 12  1  0  0  0  0
 10  6  2  0  0  0  0
 11 13  1  0  0  0  0
 12  7  2  0  0  0  0
 13  5  2  0  0  0  0
 13 14  1  0  0  0  0
 14  1  2  0  0  0  0
 15  2  1  0  0  0  0
 16 11  2  0  0  0  0
 16  4  1  0  0  0  0
 17 18  1  0  0  0  0
 18 20  2  0  0  0  0
 18 19  1  0  0  0  0
 19 10  1  0  0  0  0
 22 21  3  0  0  0  0
 24 23  1  0  0  0  0
 24 25  1  0  0  0  0
 25 26  1  0  0  0  0
M  END
>  <MODEL>
3

>  <REMARK>
 VINA RESULT:      -8.3      2.548      7.252
  Name = 
  5 active torsions:
  status: ('A' for Active; 'I' for Inactive)
    1  A    between atoms: C_1  and  C_19
    2  A    between atoms: C_2  and  C_25
    3  A    between atoms: C_11  and  N_21
    4  A    between atoms: C_14  and  O_18
    5  A    between atoms: O_18  and  C_25
                            x       y       z     vdW  Elec       q    Type
                         _______ _______ _______ _____ _____    ______ ____

>  <TORSDO>
F 5

$$$$
=
 OpenBabel11042412273D

 26 29  0  0  1  0  0  0  0  0999 V2000
  191.5690  176.3610  146.9090 C   0  0  0  0  0  0  0  0  0  0  0  0
  188.7590  177.0280  142.5080 C   0  0  1  0  0  3  0  0  0  0  0  0
  186.3750  177.7470  142.8450 N   0  0  0  0  0  2  0  0  0  0  0  0
  188.8930  177.2900  143.9480 N   0  0  0  0  0  0  0  0  0  0  0  0
  189.8810  176.9800  144.8220 C   0  0  0  0  0  0  0  0  0  0  0  0
  186.5830  177.8710  144.2560 C   0  0  0  0  0  0  0  0  0  0  0  0
  187.1740  177.7670  147.0360 C   0  0  0  0  0  3  0  0  0  0  0  0
  191.9610  176.1770  145.6070 N   0  0  0  0  0  0  0  0  0  0  0  0
  191.1450  176.4650  144.5500 C   0  0  0  0  0  3  0  0  0  0  0  0
  185.5540  178.0990  145.2030 C   0  0  0  0  0  0  0  0  0  0  0  0
  188.1550  177.5780  146.0650 C   0  0  0  0  0  0  0  0  0  0  0  0
  185.8620  178.0360  146.5860 C   0  0  0  0  0  3  0  0  0  0  0  0
  189.4690  177.1660  146.1290 C   0  0  0  0  0  0  0  0  0  0  0  0
  190.2870  176.8540  147.2080 C   0  0  0  0  0  3  0  0  0  0  0  0
  187.5210  177.7530  141.9220 C   0  0  0  0  0  2  0  0  0  0  0  0
  187.8560  177.6360  144.7280 C   0  0  0  0  0  0  0  0  0  0  0  0
  182.4070  179.4320  143.5200 N   0  0  0  0  0  1  0  0  0  0  0  0
  183.7260  179.4490  144.0530 C   0  0  0  0  0  0  0  0  0  0  0  0
  184.1930  178.3330  144.8160 N   0  0  0  0  0  2  0  0  0  0  0  0
  184.4470  180.4690  143.8920 O   0  0  0  0  0  0  0  0  0  0  0  0
  193.2270  175.7540  148.8740 C   0  0  0  0  0  3  0  0  0  0  0  0
  192.4700  176.0310  147.9770 C   0  0  0  0  0  0  0  0  0  0  0  0
  190.0120  177.4470  141.7470 C   0  0  0  0  0  2  0  0  0  0  0  0
  190.5360  176.3680  141.0310 O   0  0  0  0  0  0  0  0  0  0  0  0
  190.7080  176.8550  139.7360 C   0  0  0  0  0  2  0  0  0  0  0  0
  190.7360  175.7460  138.8010 N   0  0  0  0  0  1  0  0  0  0  0  0
  1 14  1  0  0  0  0
  1 22  1  0  0  0  0
  2 23  1  6  0  0  0
  2  4  1  0  0  0  0
  3  6  1  0  0  0  0
  4 16  1  0  0  0  0
  4  5  1  0  0  0  0
  5 13  1  0  0  0  0
  6 16  2  0  0  0  0
  6 10  1  0  0  0  0
  8  1  2  0  0  0  0
  9  5  2  0  0  0  0
  9  8  1  0  0  0  0
 10 12  2  0  0  0  0
 11 13  1  0  0  0  0
 11  7  2  0  0  0  0
 12  7  1  0  0  0  0
 13 14  2  0  0  0  0
 15  2  1  0  0  0  0
 15  3  1  0  0  0  0
 16 11  1  0  0  0  0
 17 18  1  0  0  0  0
 18 19  1  0  0  0  0
 19 10  1  0  0  0  0
 20 18  2  0  0  0  0
 22 21  3  0  0  0  0
 24 23  1  0  0  0  0
 25 24  1  0  0  0  0
 26 25  1  0  0  0  0
M  END
>  <MODEL>
4

>  <REMARK>
 VINA RESULT:      -8.3      2.051      6.212
  Name = 
  5 active torsions:
  status: ('A' for Active; 'I' for Inactive)
    1  A    between atoms: C_1  and  C_19
    2  A    between atoms: C_2  and  C_25
    3  A    between atoms: C_11  and  N_21
    4  A    between atoms: C_14  and  O_18
    5  A    between atoms: O_18  and  C_25
                            x       y       z     vdW  Elec       q    Type
                         _______ _______ _______ _____ _____    ______ ____

>  <TORSDO>
F 5

$$$$
=
 OpenBabel11042412273D

 26 29  0  0  1  0  0  0  0  0999 V2000
  183.9170  178.8020  142.6870 C   0  0  0  0  0  0  0  0  0  0  0  0
  188.9350  178.2530  141.1960 C   0  0  1  0  0  3  0  0  0  0  0  0
  190.5130  177.4520  142.9800 N   0  0  0  0  0  2  0  0  0  0  0  0
  187.8880  177.9300  142.1760 N   0  0  0  0  0  0  0  0  0  0  0  0
  186.5670  178.2300  142.1980 C   0  0  0  0  0  0  0  0  0  0  0  0
  189.4280  177.2710  143.8960 C   0  0  0  0  0  0  0  0  0  0  0  0
  187.1520  177.2680  145.6010 C   0  0  0  0  0  3  0  0  0  0  0  0
  184.4780  179.0550  141.4610 N   0  0  0  0  0  0  0  0  0  0  0  0
  185.7900  178.7920  141.1880 C   0  0  0  0  0  3  0  0  0  0  0  0
  189.5810  176.9720  145.2730 C   0  0  0  0  0  0  0  0  0  0  0  0
  187.0520  177.5270  144.2360 C   0  0  0  0  0  0  0  0  0  0  0  0
  188.4370  176.9820  146.1120 C   0  0  0  0  0  3  0  0  0  0  0  0
  186.0180  177.9740  143.4410 C   0  0  0  0  0  0  0  0  0  0  0  0
  184.6890  178.2600  143.7300 C   0  0  0  0  0  3  0  0  0  0  0  0
  190.2590  177.5200  141.5320 C   0  0  0  0  0  2  0  0  0  0  0  0
  188.1570  177.5200  143.4250 C   0  0  0  0  0  0  0  0  0  0  0  0
  192.4040  176.3410  147.7510 N   0  0  0  0  0  1  0  0  0  0  0  0
  191.1800  176.8690  147.2520 C   0  0  0  0  0  0  0  0  0  0  0  0
  190.8610  176.7170  145.8660 N   0  0  0  0  0  2  0  0  0  0  0  0
  190.4190  177.5080  148.0250 O   0  0  0  0  0  0  0  0  0  0  0  0
  181.3710  179.3680  143.1030 C   0  0  0  0  0  3  0  0  0  0  0  0
  182.5330  179.1090  142.9130 C   0  0  0  0  0  0  0  0  0  0  0  0
  188.4970  177.9040  139.7770 C   0  0  0  0  0  2  0  0  0  0  0  0
  188.6390  179.0080  138.9330 O   0  0  0  0  0  0  0  0  0  0  0  0
  188.9060  178.4610  137.6800 C   0  0  0  0  0  2  0  0  0  0  0  0
  189.7930  177.3210  137.8280 N   0  0  0  0  0  1  0  0  0  0  0  0
  1 22  1  0  0  0  0
  1 14  1  0  0  0  0
  2 23  1  6  0  0  0
  2 15  1  0  0  0  0
  2  4  1  0  0  0  0
  3  6  1  0  0  0  0
  4  5  1  0  0  0  0
  4 16  1  0  0  0  0
  5 13  1  0  0  0  0
  6 10  1  0  0  0  0
  7 12  1  0  0  0  0
  8  1  2  0  0  0  0
  9  8  1  0  0  0  0
  9  5  2  0  0  0  0
 10 19  1  0  0  0  0
 10 12  2  0  0  0  0
 11  7  2  0  0  0  0
 13 14  2  0  0  0  0
 13 11  1  0  0  0  0
 15  3  1  0  0  0  0
 16  6  2  0  0  0  0
 16 11  1  0  0  0  0
 18 17  1  0  0  0  0
 18 20  2  0  0  0  0
 19 18  1  0  0  0  0
 22 21  3  0  0  0  0
 24 23  1  0  0  0  0
 25 26  1  0  0  0  0
 25 24  1  0  0  0  0
M  END
>  <MODEL>
5

>  <REMARK>
 VINA RESULT:      -8.0      1.366      1.679
  Name = 
  5 active torsions:
  status: ('A' for Active; 'I' for Inactive)
    1  A    between atoms: C_1  and  C_19
    2  A    between atoms: C_2  and  C_25
    3  A    between atoms: C_11  and  N_21
    4  A    between atoms: C_14  and  O_18
    5  A    between atoms: O_18  and  C_25
                            x       y       z     vdW  Elec       q    Type
                         _______ _______ _______ _____ _____    ______ ____

>  <TORSDO>
F 5

$$$$
=
 OpenBabel11042412273D

 26 29  0  0  1  0  0  0  0  0999 V2000
  188.5050  178.2040  139.0860 C   0  0  0  0  0  0  0  0  0  0  0  0
  186.5810  177.8520  143.9720 C   0  0  1  0  0  3  0  0  0  0  0  0
  188.2830  177.4640  145.7810 N   0  0  0  0  0  2  0  0  0  0  0  0
  187.7530  178.0650  143.1110 N   0  0  0  0  0  0  0  0  0  0  0  0
  187.8630  178.1580  141.7640 C   0  0  0  0  0  0  0  0  0  0  0  0
  189.3530  177.5850  144.8370 C   0  0  0  0  0  0  0  0  0  0  0  0
  191.2660  177.5880  142.7340 C   0  0  0  0  0  3  0  0  0  0  0  0
  187.2000  178.2780  139.4980 N   0  0  0  0  0  0  0  0  0  0  0  0
  186.8460  178.2490  140.8180 C   0  0  0  0  0  3  0  0  0  0  0  0
  190.7110  177.2980  145.1220 C   0  0  0  0  0  0  0  0  0  0  0  0
  189.9250  177.8910  142.5120 C   0  0  0  0  0  0  0  0  0  0  0  0
  191.6520  177.2950  144.0610 C   0  0  0  0  0  3  0  0  0  0  0  0
  189.1840  178.0770  141.3640 C   0  0  0  0  0  0  0  0  0  0  0  0
  189.5470  178.0840  140.0230 C   0  0  0  0  0  3  0  0  0  0  0  0
  186.9520  178.0110  145.4690 C   0  0  0  0  0  2  0  0  0  0  0  0
  189.0150  177.8910  143.5370 C   0  0  0  0  0  0  0  0  0  0  0  0
  192.6370  175.8150  148.0540 N   0  0  0  0  0  1  0  0  0  0  0  0
  192.0740  175.8920  146.7500 C   0  0  0  0  0  0  0  0  0  0  0  0
  191.1620  176.9490  146.4370 N   0  0  0  0  0  2  0  0  0  0  0  0
  192.3440  174.9990  145.9050 O   0  0  0  0  0  0  0  0  0  0  0  0
  189.0690  178.2540  136.5060 C   0  0  0  0  0  3  0  0  0  0  0  0
  188.8120  178.2310  137.6840 C   0  0  0  0  0  0  0  0  0  0  0  0
  185.4470  178.8090  143.6170 C   0  0  0  0  0  2  0  0  0  0  0  0
  184.2290  178.1280  143.5640 O   0  0  0  0  0  0  0  0  0  0  0  0
  183.3130  178.9990  144.1510 C   0  0  0  0  0  2  0  0  0  0  0  0
  183.5580  179.0680  145.5800 N   0  0  0  0  0  1  0  0  0  0  0  0
  1  8  2  0  0  0  0
  1 14  1  0  0  0  0
  2 23  1  6  0  0  0
  2 15  1  0  0  0  0
  4 16  1  0  0  0  0
  4  2  1  0  0  0  0
  5  4  1  0  0  0  0
  6 10  1  0  0  0  0
  6  3  1  0  0  0  0
  7 12  1  0  0  0  0
  8  9  1  0  0  0  0
  9  5  2  0  0  0  0
 10 19  1  0  0  0  0
 11  7  2  0  0  0  0
 11 16  1  0  0  0  0
 12 10  2  0  0  0  0
 13  5  1  0  0  0  0
 13 11  1  0  0  0  0
 14 13  2  0  0  0  0
 15  3  1  0  0  0  0
 16  6  2  0  0  0  0
 18 17  1  0  0  0  0
 19 18  1  0  0  0  0
 20 18  2  0  0  0  0
 21 22  3  0  0  0  0
 22  1  1  0  0  0  0
 24 23  1  0  0  0  0
 24 25  1  0  0  0  0
 25 26  1  0  0  0  0
M  END
>  <MODEL>
6

>  <REMARK>
 VINA RESULT:      -7.8      1.943      4.857
  Name = 
  5 active torsions:
  status: ('A' for Active; 'I' for Inactive)
    1  A    between atoms: C_1  and  C_19
    2  A    between atoms: C_2  and  C_25
    3  A    between atoms: C_11  and  N_21
    4  A    between atoms: C_14  and  O_18
    5  A    between atoms: O_18  and  C_25
                            x       y       z     vdW  Elec       q    Type
                         _______ _______ _______ _____ _____    ______ ____

>  <TORSDO>
F 5

$$$$
=
 OpenBabel11042412273D

 26 29  0  0  1  0  0  0  0  0999 V2000
  187.0920  178.0050  146.4300 C   0  0  0  0  0  0  0  0  0  0  0  0
  184.2470  179.1510  142.1530 C   0  0  1  0  0  3  0  0  0  0  0  0
  185.4680  178.9820  139.9630 N   0  0  0  0  0  2  0  0  0  0  0  0
  185.4510  178.5190  142.7110 N   0  0  0  0  0  0  0  0  0  0  0  0
  185.8560  178.3530  143.9930 C   0  0  0  0  0  0  0  0  0  0  0  0
  186.6310  178.4680  140.6210 C   0  0  0  0  0  0  0  0  0  0  0  0
  188.8900  177.7390  142.1870 C   0  0  0  0  0  3  0  0  0  0  0  0
  185.7810  178.4000  146.3560 N   0  0  0  0  0  0  0  0  0  0  0  0
  185.1410  178.5900  145.1640 C   0  0  0  0  0  3  0  0  0  0  0  0
  187.8880  178.2760  139.9950 C   0  0  0  0  0  0  0  0  0  0  0  0
  187.6270  177.9120  142.7480 C   0  0  0  0  0  0  0  0  0  0  0  0
  189.0080  177.9200  140.7910 C   0  0  0  0  0  3  0  0  0  0  0  0
  187.1800  177.9590  144.0520 C   0  0  0  0  0  0  0  0  0  0  0  0
  187.8420  177.7850  145.2610 C   0  0  0  0  0  3  0  0  0  0  0  0
  184.1540  178.9200  140.6230 C   0  0  0  0  0  2  0  0  0  0  0  0
  186.5460  178.2590  141.9800 C   0  0  0  0  0  0  0  0  0  0  0  0
  187.8540  177.9230  136.2030 N   0  0  0  0  0  1  0  0  0  0  0  0
  187.8680  177.5140  137.5660 C   0  0  0  0  0  0  0  0  0  0  0  0
  188.0870  178.4870  138.5910 N   0  0  0  0  0  2  0  0  0  0  0  0
  187.7410  176.2930  137.8480 O   0  0  0  0  0  0  0  0  0  0  0  0
  188.2310  177.6850  148.7920 C   0  0  0  0  0  3  0  0  0  0  0  0
  187.7110  177.8310  147.7140 C   0  0  0  0  0  0  0  0  0  0  0  0
  182.9810  178.6360  142.8310 C   0  0  0  0  0  2  0  0  0  0  0  0
  182.1550  179.7000  143.2020 O   0  0  0  0  0  0  0  0  0  0  0  0
  180.9240  179.4080  142.6170 C   0  0  0  0  0  2  0  0  0  0  0  0
  180.0250  180.5330  142.7940 N   0  0  0  0  0  1  0  0  0  0  0  0
  1 22  1  0  0  0  0
  2  4  1  0  0  0  0
  2 23  1  1  0  0  0
  3  6  1  0  0  0  0
  3 15  1  0  0  0  0
  4  5  1  0  0  0  0
  5 13  2  0  0  0  0
  5  9  1  0  0  0  0
  6 16  1  0  0  0  0
  7 11  1  0  0  0  0
  8  1  1  0  0  0  0
  9  8  2  0  0  0  0
 10  6  2  0  0  0  0
 10 12  1  0  0  0  0
 11 13  1  0  0  0  0
 12  7  2  0  0  0  0
 13 14  1  0  0  0  0
 14  1  2  0  0  0  0
 15  2  1  0  0  0  0
 16  4  1  0  0  0  0
 16 11  2  0  0  0  0
 17 18  1  0  0  0  0
 18 20  2  0  0  0  0
 18 19  1  0  0  0  0
 19 10  1  0  0  0  0
 22 21  3  0  0  0  0
 23 24  1  0  0  0  0
 25 26  1  0  0  0  0
 25 24  1  0  0  0  0
M  END
>  <MODEL>
7

>  <REMARK>
 VINA RESULT:      -7.8      3.503      7.041
  Name = 
  5 active torsions:
  status: ('A' for Active; 'I' for Inactive)
    1  A    between atoms: C_1  and  C_19
    2  A    between atoms: C_2  and  C_25
    3  A    between atoms: C_11  and  N_21
    4  A    between atoms: C_14  and  O_18
    5  A    between atoms: O_18  and  C_25
                            x       y       z     vdW  Elec       q    Type
                         _______ _______ _______ _____ _____    ______ ____

>  <TORSDO>
F 5

$$$$
=
 OpenBabel11042412273D

 26 29  0  0  1  0  0  0  0  0999 V2000
  187.4190  177.8740  146.1260 C   0  0  0  0  0  0  0  0  0  0  0  0
  186.2060  178.1030  141.0090 C   0  0  1  0  0  3  0  0  0  0  0  0
  183.7930  178.5770  140.4890 N   0  0  0  0  0  2  0  0  0  0  0  0
  185.8230  178.4230  142.3920 N   0  0  0  0  0  0  0  0  0  0  0  0
  186.4840  178.2460  143.5620 C   0  0  0  0  0  0  0  0  0  0  0  0
  183.5030  178.7660  141.8780 C   0  0  0  0  0  0  0  0  0  0  0  0
  183.1310  178.8120  144.6970 C   0  0  0  0  0  3  0  0  0  0  0  0
  188.2410  177.6910  145.0430 N   0  0  0  0  0  0  0  0  0  0  0  0
  187.8060  177.8590  143.7590 C   0  0  0  0  0  3  0  0  0  0  0  0
  182.1990  178.9130  142.4130 C   0  0  0  0  0  0  0  0  0  0  0  0
  184.3940  178.6970  144.1200 C   0  0  0  0  0  0  0  0  0  0  0  0
  182.0290  178.9270  143.8210 C   0  0  0  0  0  3  0  0  0  0  0  0
  185.6410  178.4280  144.6430 C   0  0  0  0  0  0  0  0  0  0  0  0
  186.0720  178.2390  145.9500 C   0  0  0  0  0  3  0  0  0  0  0  0
  185.1780  178.6750  140.0000 C   0  0  0  0  0  2  0  0  0  0  0  0
  184.5590  178.6820  142.7600 C   0  0  0  0  0  0  0  0  0  0  0  0
  179.1020  180.1320  140.5610 N   0  0  0  0  0  1  0  0  0  0  0  0
  180.0660  180.0440  141.6030 C   0  0  0  0  0  0  0  0  0  0  0  0
  181.0330  178.9900  141.5820 N   0  0  0  0  0  2  0  0  0  0  0  0
  180.0220  180.8630  142.5590 O   0  0  0  0  0  0  0  0  0  0  0  0
  188.3660  177.5070  148.5640 C   0  0  0  0  0  3  0  0  0  0  0  0
  187.9340  177.6750  147.4510 C   0  0  0  0  0  0  0  0  0  0  0  0
  187.6000  178.6280  140.6810 C   0  0  0  0  0  2  0  0  0  0  0  0
  188.3890  177.6150  140.1290 O   0  0  0  0  0  0  0  0  0  0  0  0
  189.2850  178.2830  139.2970 C   0  0  0  0  0  2  0  0  0  0  0  0
  188.5510  179.0030  138.2720 N   0  0  0  0  0  1  0  0  0  0  0  0
  1 22  1  0  0  0  0
  2 23  1  6  0  0  0
  2  4  1  0  0  0  0
  3  6  1  0  0  0  0
  4 16  1  0  0  0  0
  4  5  1  0  0  0  0
  5  9  2  0  0  0  0
  5 13  1  0  0  0  0
  6 10  2  0  0  0  0
  6 16  1  0  0  0  0
  8  1  2  0  0  0  0
  9  8  1  0  0  0  0
 10 12  1  0  0  0  0
 11 13  1  0  0  0  0
 11  7  1  0  0  0  0
 12  7  2  0  0  0  0
 13 14  2  0  0  0  0
 14  1  1  0  0  0  0
 15  3  1  0  0  0  0
 15  2  1  0  0  0  0
 16 11  2  0  0  0  0
 17 18  1  0  0  0  0
 18 20  2  0  0  0  0
 19 18  1  0  0  0  0
 19 10  1  0  0  0  0
 22 21  3  0  0  0  0
 24 23  1  0  0  0  0
 25 24  1  0  0  0  0
 26 25  1  0  0  0  0
M  END
>  <MODEL>
8

>  <REMARK>
 VINA RESULT:      -7.7      2.894      7.299
  Name = 
  5 active torsions:
  status: ('A' for Active; 'I' for Inactive)
    1  A    between atoms: C_1  and  C_19
    2  A    between atoms: C_2  and  C_25
    3  A    between atoms: C_11  and  N_21
    4  A    between atoms: C_14  and  O_18
    5  A    between atoms: O_18  and  C_25
                            x       y       z     vdW  Elec       q    Type
                         _______ _______ _______ _____ _____    ______ ____

>  <TORSDO>
F 5

$$$$
=
 OpenBabel11042412273D

 26 29  0  0  1  0  0  0  0  0999 V2000
  189.4810  177.4810  142.0690 C   0  0  0  0  0  0  0  0  0  0  0  0
  186.6330  178.4630  146.3850 C   0  0  1  0  0  3  0  0  0  0  0  0
  184.1930  178.9190  145.9910 N   0  0  0  0  0  2  0  0  0  0  0  0
  186.6450  178.0830  144.9650 N   0  0  0  0  0  0  0  0  0  0  0  0
  187.6750  177.8450  144.1160 C   0  0  0  0  0  0  0  0  0  0  0  0
  184.3360  178.6280  144.5960 C   0  0  0  0  0  0  0  0  0  0  0  0
  184.9400  178.2800  141.8400 C   0  0  0  0  0  3  0  0  0  0  0  0
  189.8980  177.5380  143.3740 N   0  0  0  0  0  0  0  0  0  0  0  0
  189.0300  177.7270  144.4120 C   0  0  0  0  0  3  0  0  0  0  0  0
  183.3310  178.8510  143.6220 C   0  0  0  0  0  0  0  0  0  0  0  0
  185.8840  178.0470  142.8370 C   0  0  0  0  0  0  0  0  0  0  0  0
  183.6500  178.6800  142.2500 C   0  0  0  0  0  3  0  0  0  0  0  0
  187.2390  177.7950  142.8040 C   0  0  0  0  0  0  0  0  0  0  0  0
  188.1210  177.6250  141.7440 C   0  0  0  0  0  3  0  0  0  0  0  0
  185.1920  178.4340  146.9560 C   0  0  0  0  0  2  0  0  0  0  0  0
  185.5770  178.2140  144.1630 C   0  0  0  0  0  0  0  0  0  0  0  0
  179.5520  179.1940  143.9490 N   0  0  0  0  0  1  0  0  0  0  0  0
  180.7990  178.8690  143.3470 C   0  0  0  0  0  0  0  0  0  0  0  0
  182.0140  179.3010  143.9670 N   0  0  0  0  0  2  0  0  0  0  0  0
  180.8170  178.2530  142.2490 O   0  0  0  0  0  0  0  0  0  0  0  0
  191.2540  177.1280  140.1420 C   0  0  0  0  0  3  0  0  0  0  0  0
  190.4440  177.2890  141.0220 C   0  0  0  0  0  0  0  0  0  0  0  0
  187.5360  177.5540  147.2130 C   0  0  0  0  0  2  0  0  0  0  0  0
  187.8230  178.1410  148.4480 O   0  0  0  0  0  0  0  0  0  0  0  0
  189.2120  178.2530  148.4680 C   0  0  0  0  0  2  0  0  0  0  0  0
  189.7980  177.1560  147.7180 N   0  0  0  0  0  1  0  0  0  0  0  0
  1  8  1  0  0  0  0
  2 15  1  0  0  0  0
  2 23  1  1  0  0  0
  3 15  1  0  0  0  0
  4  2  1  0  0  0  0
  5  9  1  0  0  0  0
  5  4  1  0  0  0  0
  6  3  1  0  0  0  0
  7 12  2  0  0  0  0
  7 11  1  0  0  0  0
  8  9  2  0  0  0  0
 10 19  1  0  0  0  0
 10  6  2  0  0  0  0
 11 16  2  0  0  0  0
 12 10  1  0  0  0  0
 13 11  1  0  0  0  0
 13  5  2  0  0  0  0
 14  1  2  0  0  0  0
 14 13  1  0  0  0  0
 16  6  1  0  0  0  0
 16  4  1  0  0  0  0
 18 17  1  0  0  0  0
 18 19  1  0  0  0  0
 20 18  2  0  0  0  0
 21 22  3  0  0  0  0
 22  1  1  0  0  0  0
 23 24  1  0  0  0  0
 24 25  1  0  0  0  0
 26 25  1  0  0  0  0
M  END
>  <MODEL>
9

>  <REMARK>
 VINA RESULT:      -7.7      2.835      7.624
  Name = 
  5 active torsions:
  status: ('A' for Active; 'I' for Inactive)
    1  A    between atoms: C_1  and  C_19
    2  A    between atoms: C_2  and  C_25
    3  A    between atoms: C_11  and  N_21
    4  A    between atoms: C_14  and  O_18
    5  A    between atoms: O_18  and  C_25
                            x       y       z     vdW  Elec       q    Type
                         _______ _______ _______ _____ _____    ______ ____

>  <TORSDO>
F 5

$$$$
