=
 OpenBabel11042411413D

 40 48  0  0  1  0  0  0  0  0999 V2000
  188.1340  176.7100  142.6780 C   0  0  2  0  0  3  0  0  0  0  0  0
  188.9740  175.6180  142.4400 O   0  0  0  0  0  1  0  0  0  0  0  0
  188.2630  178.2120  140.6800 C   0  0  0  0  0  0  0  0  0  0  0  0
  189.0290  177.8900  139.5980 C   0  0  0  0  0  0  0  0  0  0  0  0
  192.5850  176.6910  138.9360 C   0  0  0  0  0  0  0  0  0  0  0  0
  193.1420  176.8060  140.2170 C   0  0  0  0  0  3  0  0  0  0  0  0
  191.0080  177.5390  141.0900 C   0  0  0  0  0  0  0  0  0  0  0  0
  190.2060  177.9640  142.1860 N   0  0  0  0  0  2  0  0  0  0  0  0
  190.4420  177.4630  139.8090 C   0  0  0  0  0  0  0  0  0  0  0  0
  191.2430  177.0440  138.7350 C   0  0  0  0  0  3  0  0  0  0  0  0
  188.7480  177.9900  142.0930 C   0  0  2  0  0  3  0  0  0  0  0  0
  192.3550  177.2260  141.2910 C   0  0  0  0  0  3  0  0  0  0  0  0
  186.9300  178.6980  140.5320 N   0  0  0  0  0  1  0  0  0  0  0  0
  188.0210  179.2270  137.9750 O   0  0  0  0  0  0  0  0  0  0  0  0
  187.8420  176.5400  137.9020 C   0  0  2  0  0  0  0  0  0  0  0  0
  188.3280  175.9100  136.7400 O   0  0  0  0  0  1  0  0  0  0  0  0
  188.5590  177.9680  138.1470 C   0  0  1  0  0  0  0  0  0  0  0  0
  186.4590  177.0340  137.7000 N   0  0  0  0  0  2  0  0  0  0  0  0
  187.2200  178.0130  137.8370 C   0  0  1  0  0  0  0  0  0  0  0  0
  193.4420  176.2870  137.7760 C   0  0  0  0  0  3  0  0  0  0  0  0
  193.0800  174.8870  137.3050 C   0  0  0  0  0  2  0  0  0  0  0  0
  194.3140  175.1000  138.1510 C   0  0  0  0  0  2  0  0  0  0  0  0
  186.4990  177.4040  144.5490 N   0  0  0  0  0  0  0  0  0  0  0  0
  188.9140  177.4460  145.0190 C   0  0  2  0  0  3  0  0  0  0  0  0
  187.7170  178.2320  144.5320 C   0  0  1  0  0  3  0  0  0  0  0  0
  187.8140  176.8070  144.1880 C   0  0  1  0  0  0  0  0  0  0  0  0
  190.0150  176.8670  147.3020 C   0  0  1  0  0  3  0  0  0  0  0  0
  189.3780  178.2400  147.3180 C   0  0  0  0  0  2  0  0  0  0  0  0
  188.7310  177.1360  146.5050 C   0  0  1  0  0  3  0  0  0  0  0  0
  191.2960  176.9010  146.4790 C   0  0  0  0  0  2  0  0  0  0  0  0
  192.2120  175.8170  146.9260 C   0  0  0  0  0  0  0  0  0  0  0  0
  192.4170  174.8180  146.1900 O   0  0  0  0  0  0  0  0  0  0  0  0
  192.8380  175.8990  148.2010 N   0  0  0  0  0  1  0  0  0  0  0  0
  185.7030  177.8370  143.4040 C   0  0  0  0  0  2  0  0  0  0  0  0
  184.6530  178.8450  143.8440 C   0  0  0  0  0  2  0  0  0  0  0  0
  183.4660  178.8520  142.8940 C   0  0  0  0  0  2  0  0  0  0  0  0
  183.8080  178.1160  141.6090 C   0  0  0  0  0  2  0  0  0  0  0  0
  183.0370  178.6980  140.4350 C   0  0  0  0  0  2  0  0  0  0  0  0
  184.1520  180.2840  139.0850 O   0  0  0  0  0  0  0  0  0  0  0  0
  183.9590  179.1050  139.3300 C   0  0  0  0  0  3  0  0  0  0  0  0
  1  2  1  1  0  0  0
  3 11  1  0  0  0  0
  4  9  1  0  0  0  0
  4  3  2  0  0  0  0
  5  6  1  0  0  0  0
  6 12  2  0  0  0  0
  7 12  1  0  0  0  0
  7  8  1  0  0  0  0
  9  7  2  0  0  0  0
 10  5  2  0  0  0  0
 10  9  1  0  0  0  0
 11  8  1  0  0  0  0
 11  1  1  6  0  0  0
 13  3  1  0  0  0  0
 14 17  1  0  0  0  0
 15 16  1  6  0  0  0
 15 17  1  0  0  0  0
 17  4  1  1  0  0  0
 18 15  1  0  0  0  0
 19 18  1  1  0  0  0
 19 15  1  0  0  0  0
 19 14  1  0  0  0  0
 19 17  1  0  0  0  0
 20 22  1  0  0  0  0
 20  5  1  0  0  0  0
 21 20  1  0  0  0  0
 21 22  1  0  0  0  0
 24 29  1  1  0  0  0
 25 23  1  1  0  0  0
 25 24  1  0  0  0  0
 26  1  1  6  0  0  0
 26 25  1  0  0  0  0
 26 23  1  0  0  0  0
 26 24  1  0  0  0  0
 27 30  1  6  0  0  0
 27 28  1  0  0  0  0
 29 27  1  0  0  0  0
 29 28  1  1  0  0  0
 30 31  1  0  0  0  0
 31 33  1  0  0  0  0
 32 31  2  0  0  0  0
 34 35  1  0  0  0  0
 34 23  1  0  0  0  0
 36 35  1  0  0  0  0
 37 36  1  0  0  0  0
 38 37  1  0  0  0  0
 39 40  2  0  0  0  0
 40 38  1  0  0  0  0
M  END
>  <MODEL>
1

>  <REMARK>
 VINA RESULT:      -8.1      0.000      0.000
  Name = 
  13 active torsions:
  status: ('A' for Active; 'I' for Inactive)
    1  A    between atoms: C_2  and  C_37
    2  A    between atoms: C_2  and  C_40
    3  A    between atoms: C_5  and  C_11
    4  A    between atoms: C_7  and  C_14
    5  A    between atoms: C_9  and  C_30
    6  A    between atoms: C_9  and  C_37
    7  A    between atoms: C_10  and  C_27
    8  A    between atoms: C_12  and  C_26
    9  A    between atoms: C_12  and  C_36
   10  A    between atoms: N_15  and  C_30
   11  A    between atoms: C_17  and  C_35
   12  A    between atoms: C_18  and  C_27
   13  A    between atoms: C_19  and  C_40
                            x       y       z     vdW  Elec       q    Type
                         _______ _______ _______ _____ _____    ______ ____

>  <TORSDO>
F 13

$$$$
=
 OpenBabel11042411413D

 40 48  0  0  1  0  0  0  0  0999 V2000
  188.3390  176.6190  142.4550 C   0  0  2  0  0  3  0  0  0  0  0  0
  189.2690  175.5770  142.3760 O   0  0  0  0  0  1  0  0  0  0  0  0
  188.4050  178.1440  140.4720 C   0  0  0  0  0  0  0  0  0  0  0  0
  189.1380  177.8360  139.3640 C   0  0  0  0  0  0  0  0  0  0  0  0
  192.6730  176.6510  138.5800 C   0  0  0  0  0  0  0  0  0  0  0  0
  193.2700  176.7520  139.8440 C   0  0  0  0  0  3  0  0  0  0  0  0
  191.1620  177.4710  140.7900 C   0  0  0  0  0  0  0  0  0  0  0  0
  190.3930  177.8820  141.9160 N   0  0  0  0  0  2  0  0  0  0  0  0
  190.5570  177.4090  139.5270 C   0  0  0  0  0  0  0  0  0  0  0  0
  191.3260  177.0040  138.4240 C   0  0  0  0  0  3  0  0  0  0  0  0
  188.9330  177.9060  141.8670 C   0  0  2  0  0  3  0  0  0  0  0  0
  192.5150  177.1580  140.9460 C   0  0  0  0  0  3  0  0  0  0  0  0
  187.0670  178.6290  140.3710 N   0  0  0  0  0  1  0  0  0  0  0  0
  188.1090  179.2030  137.7770 O   0  0  0  0  0  0  0  0  0  0  0  0
  187.8660  176.5200  137.7030 C   0  0  2  0  0  0  0  0  0  0  0  0
  188.2990  175.8830  136.5240 O   0  0  0  0  0  1  0  0  0  0  0  0
  188.6240  177.9300  137.9280 C   0  0  1  0  0  0  0  0  0  0  0  0
  186.4890  177.0470  137.5470 N   0  0  0  0  0  2  0  0  0  0  0  0
  187.2770  178.0080  137.6620 C   0  0  1  0  0  0  0  0  0  0  0  0
  193.4950  176.2620  137.3890 C   0  0  0  0  0  3  0  0  0  0  0  0
  193.1050  174.8760  136.8990 C   0  0  0  0  0  2  0  0  0  0  0  0
  194.3630  175.0580  137.7160 C   0  0  0  0  0  2  0  0  0  0  0  0
  186.5000  177.3840  144.0950 N   0  0  0  0  0  0  0  0  0  0  0  0
  188.8430  177.4360  144.8450 C   0  0  2  0  0  3  0  0  0  0  0  0
  187.7180  178.2070  144.1920 C   0  0  1  0  0  3  0  0  0  0  0  0
  187.8450  176.7700  143.9130 C   0  0  1  0  0  0  0  0  0  0  0  0
  189.6510  176.8080  147.2350 C   0  0  1  0  0  3  0  0  0  0  0  0
  189.1520  178.2360  147.1680 C   0  0  0  0  0  2  0  0  0  0  0  0
  188.4850  177.1800  146.3090 C   0  0  1  0  0  3  0  0  0  0  0  0
  191.0050  176.7010  146.5450 C   0  0  0  0  0  2  0  0  0  0  0  0
  192.0600  176.3980  147.5490 C   0  0  0  0  0  0  0  0  0  0  0  0
  192.2710  177.1900  148.5040 O   0  0  0  0  0  0  0  0  0  0  0  0
  192.8500  175.2220  147.4150 N   0  0  0  0  0  1  0  0  0  0  0  0
  185.8480  177.7780  142.8500 C   0  0  0  0  0  2  0  0  0  0  0  0
  184.9710  178.9990  143.0780 C   0  0  0  0  0  2  0  0  0  0  0  0
  183.6920  178.6290  143.8120 C   0  0  0  0  0  2  0  0  0  0  0  0
  183.7070  179.1890  145.2250 C   0  0  0  0  0  2  0  0  0  0  0  0
  184.1700  178.1340  146.2160 C   0  0  0  0  0  2  0  0  0  0  0  0
  185.8090  179.7240  146.8270 O   0  0  0  0  0  0  0  0  0  0  0  0
  185.2940  178.6420  147.0620 C   0  0  0  0  0  3  0  0  0  0  0  0
  1  2  1  1  0  0  0
  3 11  1  0  0  0  0
  4  9  1  0  0  0  0
  4  3  2  0  0  0  0
  5  6  1  0  0  0  0
  6 12  2  0  0  0  0
  7 12  1  0  0  0  0
  7  8  1  0  0  0  0
  9  7  2  0  0  0  0
 10  5  2  0  0  0  0
 10  9  1  0  0  0  0
 11  8  1  0  0  0  0
 11  1  1  6  0  0  0
 13  3  1  0  0  0  0
 14 17  1  0  0  0  0
 15 16  1  6  0  0  0
 15 17  1  0  0  0  0
 17  4  1  1  0  0  0
 18 15  1  0  0  0  0
 19 18  1  1  0  0  0
 19 15  1  0  0  0  0
 19 14  1  0  0  0  0
 19 17  1  0  0  0  0
 20 22  1  0  0  0  0
 20  5  1  0  0  0  0
 21 20  1  0  0  0  0
 21 22  1  0  0  0  0
 24 29  1  1  0  0  0
 25 23  1  1  0  0  0
 25 24  1  0  0  0  0
 26  1  1  6  0  0  0
 26 23  1  0  0  0  0
 26 25  1  0  0  0  0
 26 24  1  0  0  0  0
 27 30  1  6  0  0  0
 28 27  1  0  0  0  0
 29 28  1  1  0  0  0
 29 27  1  0  0  0  0
 30 31  1  0  0  0  0
 31 32  2  0  0  0  0
 33 31  1  0  0  0  0
 34 35  1  0  0  0  0
 34 23  1  0  0  0  0
 35 36  1  0  0  0  0
 36 37  1  0  0  0  0
 37 38  1  0  0  0  0
 38 40  1  0  0  0  0
 39 40  2  0  0  0  0
M  END
>  <MODEL>
2

>  <REMARK>
 VINA RESULT:      -7.9      1.449      2.190
  Name = 
  13 active torsions:
  status: ('A' for Active; 'I' for Inactive)
    1  A    between atoms: C_2  and  C_37
    2  A    between atoms: C_2  and  C_40
    3  A    between atoms: C_5  and  C_11
    4  A    between atoms: C_7  and  C_14
    5  A    between atoms: C_9  and  C_30
    6  A    between atoms: C_9  and  C_37
    7  A    between atoms: C_10  and  C_27
    8  A    between atoms: C_12  and  C_26
    9  A    between atoms: C_12  and  C_36
   10  A    between atoms: N_15  and  C_30
   11  A    between atoms: C_17  and  C_35
   12  A    between atoms: C_18  and  C_27
   13  A    between atoms: C_19  and  C_40
                            x       y       z     vdW  Elec       q    Type
                         _______ _______ _______ _____ _____    ______ ____

>  <TORSDO>
F 13

$$$$
=
 OpenBabel11042411413D

 40 48  0  0  1  0  0  0  0  0999 V2000
  189.4690  176.8830  141.4310 C   0  0  2  0  0  3  0  0  0  0  0  0
  190.4370  175.9280  141.7580 O   0  0  0  0  0  1  0  0  0  0  0  0
  189.0860  177.8450  139.1530 C   0  0  0  0  0  0  0  0  0  0  0  0
  189.3680  177.1330  138.0240 C   0  0  0  0  0  0  0  0  0  0  0  0
  192.2590  175.0540  136.6680 C   0  0  0  0  0  0  0  0  0  0  0  0
  193.2440  175.3170  137.6300 C   0  0  0  0  0  3  0  0  0  0  0  0
  191.6790  176.6810  138.8730 C   0  0  0  0  0  0  0  0  0  0  0  0
  191.3830  177.5030  139.9970 N   0  0  0  0  0  2  0  0  0  0  0  0
  190.6910  176.4570  137.9030 C   0  0  0  0  0  0  0  0  0  0  0  0
  190.9950  175.6460  136.7980 C   0  0  0  0  0  3  0  0  0  0  0  0
  190.0050  177.8340  140.3510 C   0  0  2  0  0  3  0  0  0  0  0  0
  192.9530  176.1250  138.7300 C   0  0  0  0  0  3  0  0  0  0  0  0
  187.8670  178.5730  139.2910 N   0  0  0  0  0  1  0  0  0  0  0  0
  188.0880  178.2790  136.4460 O   0  0  0  0  0  0  0  0  0  0  0  0
  187.4410  175.7910  137.2530 C   0  0  2  0  0  0  0  0  0  0  0  0
  187.3640  174.8060  136.2490 O   0  0  0  0  0  1  0  0  0  0  0  0
  188.4300  176.9970  136.8260 C   0  0  1  0  0  0  0  0  0  0  0  0
  186.1830  176.5710  137.3300 N   0  0  0  0  0  2  0  0  0  0  0  0
  187.0970  177.3200  136.9290 C   0  0  1  0  0  0  0  0  0  0  0  0
  192.5860  174.2260  135.4630 C   0  0  0  0  0  3  0  0  0  0  0  0
  192.3410  172.7510  135.7450 C   0  0  0  0  0  2  0  0  0  0  0  0
  193.7500  173.2950  135.7610 C   0  0  0  0  0  2  0  0  0  0  0  0
  189.9270  177.5930  143.8680 N   0  0  0  0  0  0  0  0  0  0  0  0
  187.6000  177.1930  143.1760 C   0  0  2  0  0  3  0  0  0  0  0  0
  188.8530  176.5890  143.7680 C   0  0  1  0  0  3  0  0  0  0  0  0
  188.9880  177.6020  142.7120 C   0  0  1  0  0  0  0  0  0  0  0  0
  185.5360  178.5410  144.0010 C   0  0  1  0  0  3  0  0  0  0  0  0
  185.9890  177.5230  145.0270 C   0  0  0  0  0  2  0  0  0  0  0  0
  187.0260  178.2100  144.1620 C   0  0  1  0  0  3  0  0  0  0  0  0
  184.8470  177.8350  142.8410 C   0  0  0  0  0  2  0  0  0  0  0  0
  184.5400  178.8150  141.7650 C   0  0  0  0  0  0  0  0  0  0  0  0
  185.3990  179.6680  141.4220 O   0  0  0  0  0  0  0  0  0  0  0  0
  183.2610  178.8060  141.1410 N   0  0  0  0  0  1  0  0  0  0  0  0
  191.1730  176.8740  143.6220 C   0  0  0  0  0  2  0  0  0  0  0  0
  191.6700  176.2250  144.9040 C   0  0  0  0  0  2  0  0  0  0  0  0
  191.5290  177.1680  146.0880 C   0  0  0  0  0  2  0  0  0  0  0  0
  190.8740  176.4570  147.2610 C   0  0  0  0  0  2  0  0  0  0  0  0
  189.3870  176.7670  147.3140 C   0  0  0  0  0  2  0  0  0  0  0  0
  187.9820  178.4280  148.2380 O   0  0  0  0  0  0  0  0  0  0  0  0
  189.1210  178.0110  148.1010 C   0  0  0  0  0  3  0  0  0  0  0  0
  1  2  1  1  0  0  0
  3 13  1  0  0  0  0
  3 11  1  0  0  0  0
  4  3  2  0  0  0  0
  5 10  2  0  0  0  0
  5  6  1  0  0  0  0
  6 12  2  0  0  0  0
  7  8  1  0  0  0  0
  8 11  1  0  0  0  0
  9  4  1  0  0  0  0
  9  7  2  0  0  0  0
 10  9  1  0  0  0  0
 11  1  1  1  0  0  0
 12  7  1  0  0  0  0
 14 17  1  0  0  0  0
 15 16  1  6  0  0  0
 15 18  1  0  0  0  0
 17 19  1  0  0  0  0
 17 15  1  0  0  0  0
 17  4  1  1  0  0  0
 19 14  1  6  0  0  0
 19 15  1  0  0  0  0
 19 18  1  0  0  0  0
 20 21  1  0  0  0  0
 20 22  1  0  0  0  0
 20  5  1  0  0  0  0
 21 22  1  0  0  0  0
 24 25  1  0  0  0  0
 24 29  1  1  0  0  0
 25 23  1  1  0  0  0
 26  1  1  6  0  0  0
 26 24  1  0  0  0  0
 26 25  1  0  0  0  0
 26 23  1  0  0  0  0
 27 30  1  6  0  0  0
 27 29  1  0  0  0  0
 27 28  1  0  0  0  0
 29 28  1  1  0  0  0
 31 30  1  0  0  0  0
 32 31  2  0  0  0  0
 33 31  1  0  0  0  0
 34 23  1  0  0  0  0
 34 35  1  0  0  0  0
 35 36  1  0  0  0  0
 36 37  1  0  0  0  0
 37 38  1  0  0  0  0
 38 40  1  0  0  0  0
 40 39  2  0  0  0  0
M  END
>  <MODEL>
3

>  <REMARK>
 VINA RESULT:      -7.6      1.852      5.332
  Name = 
  13 active torsions:
  status: ('A' for Active; 'I' for Inactive)
    1  A    between atoms: C_2  and  C_37
    2  A    between atoms: C_2  and  C_40
    3  A    between atoms: C_5  and  C_11
    4  A    between atoms: C_7  and  C_14
    5  A    between atoms: C_9  and  C_30
    6  A    between atoms: C_9  and  C_37
    7  A    between atoms: C_10  and  C_27
    8  A    between atoms: C_12  and  C_26
    9  A    between atoms: C_12  and  C_36
   10  A    between atoms: N_15  and  C_30
   11  A    between atoms: C_17  and  C_35
   12  A    between atoms: C_18  and  C_27
   13  A    between atoms: C_19  and  C_40
                            x       y       z     vdW  Elec       q    Type
                         _______ _______ _______ _____ _____    ______ ____

>  <TORSDO>
F 13

$$$$
=
 OpenBabel11042411413D

 40 48  0  0  1  0  0  0  0  0999 V2000
  187.9810  177.4880  141.8600 C   0  0  2  0  0  3  0  0  0  0  0  0
  188.5970  176.4590  141.1410 O   0  0  0  0  0  1  0  0  0  0  0  0
  186.2830  178.9480  140.7420 C   0  0  0  0  0  0  0  0  0  0  0  0
  185.6490  178.5530  139.6000 C   0  0  0  0  0  0  0  0  0  0  0  0
  186.6120  177.0730  136.2240 C   0  0  0  0  0  0  0  0  0  0  0  0
  188.0100  177.1620  136.2890 C   0  0  0  0  0  3  0  0  0  0  0  0
  187.8570  178.0700  138.5260 C   0  0  0  0  0  0  0  0  0  0  0  0
  188.4910  178.5710  139.6980 N   0  0  0  0  0  2  0  0  0  0  0  0
  186.4570  178.0210  138.4660 C   0  0  0  0  0  0  0  0  0  0  0  0
  185.8430  177.5260  137.3050 C   0  0  0  0  0  3  0  0  0  0  0  0
  187.7590  178.7080  140.9550 C   0  0  2  0  0  3  0  0  0  0  0  0
  188.6290  177.6560  137.4380 C   0  0  0  0  0  3  0  0  0  0  0  0
  185.5680  179.5330  141.8280 N   0  0  0  0  0  1  0  0  0  0  0  0
  183.8200  179.9890  139.4130 O   0  0  0  0  0  0  0  0  0  0  0  0
  183.5410  177.4510  140.2740 C   0  0  2  0  0  0  0  0  0  0  0  0
  182.6690  176.6300  139.5330 O   0  0  0  0  0  1  0  0  0  0  0  0
  184.1420  178.6480  139.3670 C   0  0  1  0  0  0  0  0  0  0  0  0
  182.7910  178.2830  141.2450 N   0  0  0  0  0  2  0  0  0  0  0  0
  183.2910  179.0290  140.3780 C   0  0  1  0  0  0  0  0  0  0  0  0
  185.9460  176.5880  134.9730 C   0  0  0  0  0  3  0  0  0  0  0  0
  184.7290  177.4410  134.6500 C   0  0  0  0  0  2  0  0  0  0  0  0
  184.5470  176.0800  135.2810 C   0  0  0  0  0  2  0  0  0  0  0  0
  190.2570  177.5150  143.0730 N   0  0  0  0  0  0  0  0  0  0  0  0
  188.2140  177.2090  144.4100 C   0  0  2  0  0  3  0  0  0  0  0  0
  189.3270  176.5270  143.6460 C   0  0  1  0  0  3  0  0  0  0  0  0
  188.7970  177.7990  143.1360 C   0  0  1  0  0  0  0  0  0  0  0  0
  187.8390  178.1050  146.8210 C   0  0  1  0  0  3  0  0  0  0  0  0
  188.7620  176.9050  146.8050 C   0  0  0  0  0  2  0  0  0  0  0  0
  188.8040  177.8830  145.6480 C   0  0  1  0  0  3  0  0  0  0  0  0
  186.4060  177.6590  146.5620 C   0  0  0  0  0  2  0  0  0  0  0  0
  185.4820  178.8150  146.7190 C   0  0  0  0  0  0  0  0  0  0  0  0
  185.7890  179.7720  147.4760 O   0  0  0  0  0  0  0  0  0  0  0  0
  184.2360  178.8250  146.0330 N   0  0  0  0  0  1  0  0  0  0  0  0
  190.7040  176.9540  141.8010 C   0  0  0  0  0  2  0  0  0  0  0  0
  192.0470  177.5480  141.4070 C   0  0  0  0  0  2  0  0  0  0  0  0
  192.2550  177.4870  139.9020 C   0  0  0  0  0  2  0  0  0  0  0  0
  191.4100  176.3810  139.2920 C   0  0  0  0  0  2  0  0  0  0  0  0
  191.8980  176.0420  137.8930 C   0  0  0  0  0  2  0  0  0  0  0  0
  194.2090  175.8210  137.4550 O   0  0  0  0  0  0  0  0  0  0  0  0
  193.2740  176.5790  137.6550 C   0  0  0  0  0  3  0  0  0  0  0  0
  1  2  1  6  0  0  0
  3 11  1  0  0  0  0
  3 13  1  0  0  0  0
  4  3  2  0  0  0  0
  5  6  2  0  0  0  0
  5 10  1  0  0  0  0
  6 12  1  0  0  0  0
  7  8  1  0  0  0  0
  8 11  1  0  0  0  0
  9  7  1  0  0  0  0
  9  4  1  0  0  0  0
 10  9  2  0  0  0  0
 11  1  1  1  0  0  0
 12  7  2  0  0  0  0
 15 16  1  6  0  0  0
 15 19  1  0  0  0  0
 15 18  1  0  0  0  0
 17 14  1  0  0  0  0
 17  4  1  1  0  0  0
 17 15  1  0  0  0  0
 17 19  1  0  0  0  0
 19 14  1  6  0  0  0
 19 18  1  0  0  0  0
 20 22  1  0  0  0  0
 20  5  1  0  0  0  0
 21 20  1  0  0  0  0
 21 22  1  0  0  0  0
 23 26  1  0  0  0  0
 24 29  1  1  0  0  0
 25 23  1  1  0  0  0
 25 24  1  0  0  0  0
 26  1  1  6  0  0  0
 26 25  1  0  0  0  0
 26 24  1  0  0  0  0
 27 30  1  6  0  0  0
 28 27  1  0  0  0  0
 29 28  1  1  0  0  0
 29 27  1  0  0  0  0
 30 31  1  0  0  0  0
 31 32  2  0  0  0  0
 33 31  1  0  0  0  0
 34 23  1  0  0  0  0
 35 34  1  0  0  0  0
 36 35  1  0  0  0  0
 37 36  1  0  0  0  0
 38 37  1  0  0  0  0
 39 40  2  0  0  0  0
 40 38  1  0  0  0  0
M  END
>  <MODEL>
4

>  <REMARK>
 VINA RESULT:      -7.1      2.436      6.033
  Name = 
  13 active torsions:
  status: ('A' for Active; 'I' for Inactive)
    1  A    between atoms: C_2  and  C_37
    2  A    between atoms: C_2  and  C_40
    3  A    between atoms: C_5  and  C_11
    4  A    between atoms: C_7  and  C_14
    5  A    between atoms: C_9  and  C_30
    6  A    between atoms: C_9  and  C_37
    7  A    between atoms: C_10  and  C_27
    8  A    between atoms: C_12  and  C_26
    9  A    between atoms: C_12  and  C_36
   10  A    between atoms: N_15  and  C_30
   11  A    between atoms: C_17  and  C_35
   12  A    between atoms: C_18  and  C_27
   13  A    between atoms: C_19  and  C_40
                            x       y       z     vdW  Elec       q    Type
                         _______ _______ _______ _____ _____    ______ ____

>  <TORSDO>
F 13

$$$$
=
 OpenBabel11042411413D

 40 48  0  0  1  0  0  0  0  0999 V2000
  188.9080  176.6370  138.4870 C   0  0  2  0  0  3  0  0  0  0  0  0
  187.5720  176.6330  138.0730 O   0  0  0  0  0  1  0  0  0  0  0  0
  189.9570  177.5400  140.5720 C   0  0  0  0  0  0  0  0  0  0  0  0
  189.3330  177.4430  141.7820 C   0  0  0  0  0  0  0  0  0  0  0  0
  185.8720  178.1360  143.2150 C   0  0  0  0  0  0  0  0  0  0  0  0
  185.2640  178.7830  142.1300 C   0  0  0  0  0  3  0  0  0  0  0  0
  187.2700  178.4770  140.8120 C   0  0  0  0  0  0  0  0  0  0  0  0
  187.9780  178.6450  139.5890 N   0  0  0  0  0  2  0  0  0  0  0  0
  187.9060  177.8580  141.8980 C   0  0  0  0  0  0  0  0  0  0  0  0
  187.1980  177.6990  143.1000 C   0  0  0  0  0  3  0  0  0  0  0  0
  189.2030  177.8980  139.3140 C   0  0  2  0  0  3  0  0  0  0  0  0
  185.9610  178.9500  140.9320 C   0  0  0  0  0  3  0  0  0  0  0  0
  191.3410  177.2290  140.4200 N   0  0  0  0  0  1  0  0  0  0  0  0
  189.1070  176.1180  143.6890 O   0  0  0  0  0  0  0  0  0  0  0  0
  190.6750  178.3100  143.6670 C   0  0  2  0  0  0  0  0  0  0  0  0
  192.0340  178.1130  143.9810 O   0  0  0  0  0  1  0  0  0  0  0  0
  190.0030  176.9660  143.0690 C   0  0  1  0  0  0  0  0  0  0  0  0
  189.8560  178.4220  144.8980 N   0  0  0  0  0  2  0  0  0  0  0  0
  189.5420  177.3720  144.3000 C   0  0  1  0  0  0  0  0  0  0  0  0
  185.1410  178.0010  144.5150 C   0  0  0  0  0  3  0  0  0  0  0  0
  185.3740  179.2230  145.3900 C   0  0  0  0  0  2  0  0  0  0  0  0
  186.1260  177.9430  145.6720 C   0  0  0  0  0  2  0  0  0  0  0  0
  189.2310  175.8390  136.0560 N   0  0  0  0  0  0  0  0  0  0  0  0
  191.1640  175.7910  137.5780 C   0  0  2  0  0  3  0  0  0  0  0  0
  189.9870  175.0220  137.0210 C   0  0  1  0  0  3  0  0  0  0  0  0
  189.8380  176.4630  137.2640 C   0  0  1  0  0  0  0  0  0  0  0  0
  193.6150  175.5640  136.7420 C   0  0  1  0  0  3  0  0  0  0  0  0
  192.6690  174.6820  135.9550 C   0  0  0  0  0  2  0  0  0  0  0  0
  192.1780  176.0240  136.4590 C   0  0  1  0  0  3  0  0  0  0  0  0
  193.8350  174.9770  138.1300 C   0  0  0  0  0  2  0  0  0  0  0  0
  195.2070  174.4080  138.2250 C   0  0  0  0  0  0  0  0  0  0  0  0
  195.4720  173.5370  139.0940 O   0  0  0  0  0  0  0  0  0  0  0  0
  196.2280  174.8690  137.3480 N   0  0  0  0  0  1  0  0  0  0  0  0
  187.8310  175.4580  136.2170 C   0  0  0  0  0  2  0  0  0  0  0  0
  187.4400  174.4310  135.1660 C   0  0  0  0  0  2  0  0  0  0  0  0
  186.8240  173.1970  135.8050 C   0  0  0  0  0  2  0  0  0  0  0  0
  186.5720  173.4340  137.2850 C   0  0  0  0  0  2  0  0  0  0  0  0
  185.1940  172.9280  137.6820 C   0  0  0  0  0  2  0  0  0  0  0  0
  184.4270  175.1560  137.4960 O   0  0  0  0  0  0  0  0  0  0  0  0
  184.1460  173.9690  137.4440 C   0  0  0  0  0  3  0  0  0  0  0  0
  1  2  1  6  0  0  0
  3  4  2  0  0  0  0
  4  9  1  0  0  0  0
  5 20  1  0  0  0  0
  6  5  2  0  0  0  0
  7 12  2  0  0  0  0
  7  9  1  0  0  0  0
  8  7  1  0  0  0  0
  9 10  2  0  0  0  0
 10  5  1  0  0  0  0
 11  1  1  1  0  0  0
 11  8  1  0  0  0  0
 11  3  1  0  0  0  0
 12  6  1  0  0  0  0
 13  3  1  0  0  0  0
 15 16  1  1  0  0  0
 15 19  1  0  0  0  0
 15 18  1  0  0  0  0
 17  4  1  6  0  0  0
 17 15  1  0  0  0  0
 17 14  1  0  0  0  0
 17 19  1  0  0  0  0
 19 14  1  1  0  0  0
 19 18  1  0  0  0  0
 20 21  1  0  0  0  0
 20 22  1  0  0  0  0
 21 22  1  0  0  0  0
 23 34  1  0  0  0  0
 23 26  1  0  0  0  0
 24 29  1  6  0  0  0
 25 23  1  6  0  0  0
 25 26  1  0  0  0  0
 25 24  1  0  0  0  0
 26 24  1  0  0  0  0
 26  1  1  1  0  0  0
 27 30  1  1  0  0  0
 28 27  1  0  0  0  0
 29 28  1  6  0  0  0
 29 27  1  0  0  0  0
 30 31  1  0  0  0  0
 31 32  2  0  0  0  0
 33 31  1  0  0  0  0
 35 36  1  0  0  0  0
 35 34  1  0  0  0  0
 36 37  1  0  0  0  0
 37 38  1  0  0  0  0
 40 39  2  0  0  0  0
 40 38  1  0  0  0  0
M  END
>  <MODEL>
5

>  <REMARK>
 VINA RESULT:      -6.8      2.881      7.832
  Name = 
  13 active torsions:
  status: ('A' for Active; 'I' for Inactive)
    1  A    between atoms: C_2  and  C_37
    2  A    between atoms: C_2  and  C_40
    3  A    between atoms: C_5  and  C_11
    4  A    between atoms: C_7  and  C_14
    5  A    between atoms: C_9  and  C_30
    6  A    between atoms: C_9  and  C_37
    7  A    between atoms: C_10  and  C_27
    8  A    between atoms: C_12  and  C_26
    9  A    between atoms: C_12  and  C_36
   10  A    between atoms: N_15  and  C_30
   11  A    between atoms: C_17  and  C_35
   12  A    between atoms: C_18  and  C_27
   13  A    between atoms: C_19  and  C_40
                            x       y       z     vdW  Elec       q    Type
                         _______ _______ _______ _____ _____    ______ ____

>  <TORSDO>
F 13

$$$$
=
 OpenBabel11042411413D

 40 48  0  0  1  0  0  0  0  0999 V2000
  184.7100  177.9310  140.9320 C   0  0  2  0  0  3  0  0  0  0  0  0
  183.6040  177.5780  141.7110 O   0  0  0  0  0  1  0  0  0  0  0  0
  186.9620  178.7690  141.6320 C   0  0  0  0  0  0  0  0  0  0  0  0
  187.5730  178.3050  142.7600 C   0  0  0  0  0  0  0  0  0  0  0  0
  186.6500  177.7120  146.4090 C   0  0  0  0  0  0  0  0  0  0  0  0
  185.3830  178.3110  146.4590 C   0  0  0  0  0  3  0  0  0  0  0  0
  185.5210  178.8190  144.0970 C   0  0  0  0  0  0  0  0  0  0  0  0
  184.9440  179.3770  142.9220 N   0  0  0  0  0  2  0  0  0  0  0  0
  186.8040  178.2560  144.0360 C   0  0  0  0  0  0  0  0  0  0  0  0
  187.3630  177.7100  145.2020 C   0  0  0  0  0  3  0  0  0  0  0  0
  185.4840  179.0780  141.5980 C   0  0  2  0  0  3  0  0  0  0  0  0
  184.8210  178.8590  145.3060 C   0  0  0  0  0  3  0  0  0  0  0  0
  187.6720  178.9080  140.4030 N   0  0  0  0  0  1  0  0  0  0  0  0
  189.7970  178.9300  142.4350 O   0  0  0  0  0  0  0  0  0  0  0  0
  189.0020  176.3670  142.2020 C   0  0  2  0  0  0  0  0  0  0  0  0
  189.6360  175.4330  143.0450 O   0  0  0  0  0  1  0  0  0  0  0  0
  189.0310  177.8540  142.8350 C   0  0  1  0  0  0  0  0  0  0  0  0
  189.8210  176.6380  140.9970 N   0  0  0  0  0  2  0  0  0  0  0  0
  189.7760  177.6720  141.6940 C   0  0  1  0  0  0  0  0  0  0  0  0
  187.2740  177.1670  147.6570 C   0  0  0  0  0  3  0  0  0  0  0  0
  188.0500  178.2530  148.3850 C   0  0  0  0  0  2  0  0  0  0  0  0
  188.7900  177.2270  147.5590 C   0  0  0  0  0  2  0  0  0  0  0  0
  182.8800  178.7860  139.3280 N   0  0  0  0  0  0  0  0  0  0  0  0
  184.4750  177.1040  138.5040 C   0  0  2  0  0  3  0  0  0  0  0  0
  183.1380  177.3450  139.1690 C   0  0  1  0  0  3  0  0  0  0  0  0
  184.2570  178.2420  139.4870 C   0  0  1  0  0  0  0  0  0  0  0  0
  185.7140  177.5260  136.2580 C   0  0  1  0  0  3  0  0  0  0  0  0
  184.6710  176.4370  136.1280 C   0  0  0  0  0  2  0  0  0  0  0  0
  184.4080  177.6020  137.0610 C   0  0  1  0  0  3  0  0  0  0  0  0
  186.9130  177.0030  137.0390 C   0  0  0  0  0  2  0  0  0  0  0  0
  187.9450  178.0700  137.1530 C   0  0  0  0  0  0  0  0  0  0  0  0
  187.6540  179.2630  136.8800 O   0  0  0  0  0  0  0  0  0  0  0  0
  189.2700  177.7350  137.5460 N   0  0  0  0  0  1  0  0  0  0  0  0
  182.1420  178.9250  140.5810 C   0  0  0  0  0  2  0  0  0  0  0  0
  180.8460  179.6850  140.3480 C   0  0  0  0  0  2  0  0  0  0  0  0
  179.6450  178.7570  140.4170 C   0  0  0  0  0  2  0  0  0  0  0  0
  179.7340  177.8600  141.6410 C   0  0  0  0  0  2  0  0  0  0  0  0
  179.4000  178.6400  142.9030 C   0  0  0  0  0  2  0  0  0  0  0  0
  181.4940  178.6720  143.9990 O   0  0  0  0  0  0  0  0  0  0  0  0
  180.3350  178.2900  144.0180 C   0  0  0  0  0  3  0  0  0  0  0  0
  1  2  1  1  0  0  0
  3  4  2  0  0  0  0
  4  9  1  0  0  0  0
  5  6  1  0  0  0  0
  5 20  1  0  0  0  0
  7 12  1  0  0  0  0
  8  7  1  0  0  0  0
  9  7  2  0  0  0  0
  9 10  1  0  0  0  0
 10  5  2  0  0  0  0
 11  1  1  1  0  0  0
 11  3  1  0  0  0  0
 11  8  1  0  0  0  0
 12  6  2  0  0  0  0
 13  3  1  0  0  0  0
 14 17  1  0  0  0  0
 15 17  1  0  0  0  0
 15 16  1  1  0  0  0
 17  4  1  6  0  0  0
 18 15  1  0  0  0  0
 19 18  1  6  0  0  0
 19 15  1  0  0  0  0
 19 14  1  0  0  0  0
 19 17  1  0  0  0  0
 20 21  1  0  0  0  0
 22 20  1  0  0  0  0
 22 21  1  0  0  0  0
 23 26  1  0  0  0  0
 23 34  1  0  0  0  0
 24 29  1  6  0  0  0
 24 25  1  0  0  0  0
 24 26  1  0  0  0  0
 25 23  1  6  0  0  0
 25 26  1  0  0  0  0
 26  1  1  1  0  0  0
 27 30  1  1  0  0  0
 27 29  1  0  0  0  0
 28 27  1  0  0  0  0
 29 28  1  6  0  0  0
 30 31  1  0  0  0  0
 31 33  1  0  0  0  0
 32 31  2  0  0  0  0
 35 36  1  0  0  0  0
 35 34  1  0  0  0  0
 36 37  1  0  0  0  0
 37 38  1  0  0  0  0
 38 40  1  0  0  0  0
 39 40  2  0  0  0  0
M  END
>  <MODEL>
6

>  <REMARK>
 VINA RESULT:      -6.8      2.947      7.632
  Name = 
  13 active torsions:
  status: ('A' for Active; 'I' for Inactive)
    1  A    between atoms: C_2  and  C_37
    2  A    between atoms: C_2  and  C_40
    3  A    between atoms: C_5  and  C_11
    4  A    between atoms: C_7  and  C_14
    5  A    between atoms: C_9  and  C_30
    6  A    between atoms: C_9  and  C_37
    7  A    between atoms: C_10  and  C_27
    8  A    between atoms: C_12  and  C_26
    9  A    between atoms: C_12  and  C_36
   10  A    between atoms: N_15  and  C_30
   11  A    between atoms: C_17  and  C_35
   12  A    between atoms: C_18  and  C_27
   13  A    between atoms: C_19  and  C_40
                            x       y       z     vdW  Elec       q    Type
                         _______ _______ _______ _____ _____    ______ ____

>  <TORSDO>
F 13

$$$$
=
 OpenBabel11042411413D

 40 48  0  0  1  0  0  0  0  0999 V2000
  183.8030  178.3240  141.8590 C   0  0  2  0  0  3  0  0  0  0  0  0
  182.8100  178.4490  142.8360 O   0  0  0  0  0  1  0  0  0  0  0  0
  186.2960  178.5400  141.8720 C   0  0  0  0  0  0  0  0  0  0  0  0
  187.0540  177.9530  142.8430 C   0  0  0  0  0  0  0  0  0  0  0  0
  187.0470  177.7100  146.6450 C   0  0  0  0  0  0  0  0  0  0  0  0
  186.0370  178.6290  146.9640 C   0  0  0  0  0  3  0  0  0  0  0  0
  185.6470  179.0300  144.6100 C   0  0  0  0  0  0  0  0  0  0  0  0
  184.9300  179.6970  143.5760 N   0  0  0  0  0  2  0  0  0  0  0  0
  186.6770  178.1410  144.2720 C   0  0  0  0  0  0  0  0  0  0  0  0
  187.3780  177.4900  145.3010 C   0  0  0  0  0  3  0  0  0  0  0  0
  184.9930  179.2340  142.1920 C   0  0  2  0  0  3  0  0  0  0  0  0
  185.3380  179.2830  145.9490 C   0  0  0  0  0  3  0  0  0  0  0  0
  186.6530  178.4570  140.4940 N   0  0  0  0  0  1  0  0  0  0  0  0
  188.3350  176.1290  143.5320 O   0  0  0  0  0  0  0  0  0  0  0  0
  189.4450  178.2460  142.2900 C   0  0  2  0  0  0  0  0  0  0  0  0
  190.1410  177.9790  141.0950 O   0  0  0  0  0  1  0  0  0  0  0  0
  188.3130  177.1290  142.5810 C   0  0  1  0  0  0  0  0  0  0  0  0
  190.3020  177.9870  143.4720 N   0  0  0  0  0  2  0  0  0  0  0  0
  189.3720  177.1540  143.4580 C   0  0  1  0  0  0  0  0  0  0  0  0
  187.8300  177.0450  147.7350 C   0  0  0  0  0  3  0  0  0  0  0  0
  188.8250  178.0170  148.3490 C   0  0  0  0  0  2  0  0  0  0  0  0
  189.3030  176.9780  147.3620 C   0  0  0  0  0  2  0  0  0  0  0  0
  181.7680  179.0000  140.4240 N   0  0  0  0  0  0  0  0  0  0  0  0
  183.4230  177.4520  139.4660 C   0  0  2  0  0  3  0  0  0  0  0  0
  182.1350  177.5840  140.2470 C   0  0  1  0  0  3  0  0  0  0  0  0
  183.1960  178.5790  140.4600 C   0  0  1  0  0  0  0  0  0  0  0  0
  184.2340  177.5020  136.9960 C   0  0  1  0  0  3  0  0  0  0  0  0
  182.9480  176.7170  137.1490 C   0  0  0  0  0  2  0  0  0  0  0  0
  183.1830  177.9260  138.0320 C   0  0  1  0  0  3  0  0  0  0  0  0
  185.4000  176.7010  137.5600 C   0  0  0  0  0  2  0  0  0  0  0  0
  186.6830  177.2400  137.0340 C   0  0  0  0  0  0  0  0  0  0  0  0
  187.5250  176.4670  136.5060 O   0  0  0  0  0  0  0  0  0  0  0  0
  186.9710  178.6280  137.1520 N   0  0  0  0  0  1  0  0  0  0  0  0
  181.1370  179.0900  141.7380 C   0  0  0  0  0  2  0  0  0  0  0  0
  179.7780  179.7620  141.6250 C   0  0  0  0  0  2  0  0  0  0  0  0
  179.4620  180.1250  140.1830 C   0  0  0  0  0  2  0  0  0  0  0  0
  179.5530  181.6280  139.9810 C   0  0  0  0  0  2  0  0  0  0  0  0
  179.6510  181.9660  138.5010 C   0  0  0  0  0  2  0  0  0  0  0  0
  182.0140  181.9010  138.5290 O   0  0  0  0  0  0  0  0  0  0  0  0
  180.9880  181.5850  137.9480 C   0  0  0  0  0  3  0  0  0  0  0  0
  1  2  1  1  0  0  0
  3 11  1  0  0  0  0
  3  4  2  0  0  0  0
  4  9  1  0  0  0  0
  5  6  1  0  0  0  0
  5 20  1  0  0  0  0
  7 12  1  0  0  0  0
  8  7  1  0  0  0  0
  9  7  2  0  0  0  0
  9 10  1  0  0  0  0
 10  5  2  0  0  0  0
 11  1  1  1  0  0  0
 11  8  1  0  0  0  0
 12  6  2  0  0  0  0
 13  3  1  0  0  0  0
 15 16  1  6  0  0  0
 15 17  1  0  0  0  0
 15 19  1  0  0  0  0
 15 18  1  0  0  0  0
 17  4  1  1  0  0  0
 17 19  1  0  0  0  0
 17 14  1  0  0  0  0
 19 18  1  1  0  0  0
 19 14  1  0  0  0  0
 20 21  1  0  0  0  0
 22 20  1  0  0  0  0
 22 21  1  0  0  0  0
 23 26  1  0  0  0  0
 23 34  1  0  0  0  0
 24 29  1  6  0  0  0
 24 25  1  0  0  0  0
 24 26  1  0  0  0  0
 25 23  1  6  0  0  0
 25 26  1  0  0  0  0
 26  1  1  1  0  0  0
 27 28  1  0  0  0  0
 27 30  1  1  0  0  0
 27 29  1  0  0  0  0
 29 28  1  6  0  0  0
 31 33  1  0  0  0  0
 31 30  1  0  0  0  0
 32 31  2  0  0  0  0
 35 34  1  0  0  0  0
 36 35  1  0  0  0  0
 37 36  1  0  0  0  0
 38 37  1  0  0  0  0
 40 38  1  0  0  0  0
 40 39  2  0  0  0  0
M  END
>  <MODEL>
7

>  <REMARK>
 VINA RESULT:      -6.8      3.024      7.754
  Name = 
  13 active torsions:
  status: ('A' for Active; 'I' for Inactive)
    1  A    between atoms: C_2  and  C_37
    2  A    between atoms: C_2  and  C_40
    3  A    between atoms: C_5  and  C_11
    4  A    between atoms: C_7  and  C_14
    5  A    between atoms: C_9  and  C_30
    6  A    between atoms: C_9  and  C_37
    7  A    between atoms: C_10  and  C_27
    8  A    between atoms: C_12  and  C_26
    9  A    between atoms: C_12  and  C_36
   10  A    between atoms: N_15  and  C_30
   11  A    between atoms: C_17  and  C_35
   12  A    between atoms: C_18  and  C_27
   13  A    between atoms: C_19  and  C_40
                            x       y       z     vdW  Elec       q    Type
                         _______ _______ _______ _____ _____    ______ ____

>  <TORSDO>
F 13

$$$$
=
 OpenBabel11042411413D

 40 48  0  0  1  0  0  0  0  0999 V2000
  189.2000  176.8450  138.5410 C   0  0  2  0  0  3  0  0  0  0  0  0
  187.8390  176.7440  138.2370 O   0  0  0  0  0  1  0  0  0  0  0  0
  190.1970  177.6770  140.6800 C   0  0  0  0  0  0  0  0  0  0  0  0
  189.5550  177.5160  141.8730 C   0  0  0  0  0  0  0  0  0  0  0  0
  186.0580  178.0820  143.2740 C   0  0  0  0  0  0  0  0  0  0  0  0
  185.4560  178.7640  142.2080 C   0  0  0  0  0  3  0  0  0  0  0  0
  187.4890  178.5510  140.9130 C   0  0  0  0  0  0  0  0  0  0  0  0
  188.2130  178.7860  139.7100 N   0  0  0  0  0  2  0  0  0  0  0  0
  188.1190  177.8990  141.9820 C   0  0  0  0  0  0  0  0  0  0  0  0
  187.3950  177.6750  143.1640 C   0  0  0  0  0  3  0  0  0  0  0  0
  189.4560  178.0740  139.4250 C   0  0  2  0  0  3  0  0  0  0  0  0
  186.1690  178.9940  141.0300 C   0  0  0  0  0  3  0  0  0  0  0  0
  191.5890  177.3980  140.5380 N   0  0  0  0  0  1  0  0  0  0  0  0
  189.3910  176.0030  143.6410 O   0  0  0  0  0  0  0  0  0  0  0  0
  190.6990  178.3450  143.9010 C   0  0  2  0  0  0  0  0  0  0  0  0
  192.0550  178.2680  144.2740 O   0  0  0  0  0  1  0  0  0  0  0  0
  190.2130  176.9970  143.1500 C   0  0  1  0  0  0  0  0  0  0  0  0
  189.8150  178.2510  145.0870 N   0  0  0  0  0  2  0  0  0  0  0  0
  189.6520  177.2340  144.3830 C   0  0  1  0  0  0  0  0  0  0  0  0
  185.3090  177.8770  144.5560 C   0  0  0  0  0  3  0  0  0  0  0  0
  185.6360  178.9820  145.5490 C   0  0  0  0  0  2  0  0  0  0  0  0
  186.2770  177.6220  145.6990 C   0  0  0  0  0  2  0  0  0  0  0  0
  189.3450  177.3220  136.0100 N   0  0  0  0  0  0  0  0  0  0  0  0
  190.7150  175.5060  136.9460 C   0  0  2  0  0  3  0  0  0  0  0  0
  189.3940  175.8820  136.3140 C   0  0  1  0  0  3  0  0  0  0  0  0
  190.0310  176.8310  137.2370 C   0  0  1  0  0  0  0  0  0  0  0  0
  193.1990  175.1040  136.2920 C   0  0  1  0  0  3  0  0  0  0  0  0
  192.2520  174.3070  135.4200 C   0  0  0  0  0  2  0  0  0  0  0  0
  191.8270  175.6760  135.9100 C   0  0  1  0  0  3  0  0  0  0  0  0
  193.2680  174.4840  137.6820 C   0  0  0  0  0  2  0  0  0  0  0  0
  194.6890  174.2530  138.0600 C   0  0  0  0  0  0  0  0  0  0  0  0
  195.5690  175.1030  137.7670 O   0  0  0  0  0  0  0  0  0  0  0  0
  195.0570  173.0540  138.7320 N   0  0  0  0  0  1  0  0  0  0  0  0
  187.9590  177.7300  136.2210 C   0  0  0  0  0  2  0  0  0  0  0  0
  187.1830  177.6550  134.9150 C   0  0  0  0  0  2  0  0  0  0  0  0
  185.7120  177.3620  135.1660 C   0  0  0  0  0  2  0  0  0  0  0  0
  185.5370  175.9630  135.7330 C   0  0  0  0  0  2  0  0  0  0  0  0
  184.3160  175.8990  136.6360 C   0  0  0  0  0  2  0  0  0  0  0  0
  184.4770  177.5200  138.3490 O   0  0  0  0  0  0  0  0  0  0  0  0
  184.0280  177.2320  137.2510 C   0  0  0  0  0  3  0  0  0  0  0  0
  1  2  1  6  0  0  0
  3  4  2  0  0  0  0
  4  9  1  0  0  0  0
  5 20  1  0  0  0  0
  6  5  2  0  0  0  0
  7 12  2  0  0  0  0
  7  9  1  0  0  0  0
  8  7  1  0  0  0  0
  9 10  2  0  0  0  0
 10  5  1  0  0  0  0
 11  1  1  1  0  0  0
 11  8  1  0  0  0  0
 11  3  1  0  0  0  0
 12  6  1  0  0  0  0
 13  3  1  0  0  0  0
 15 16  1  1  0  0  0
 15 19  1  0  0  0  0
 15 18  1  0  0  0  0
 17  4  1  6  0  0  0
 17 14  1  0  0  0  0
 17 15  1  0  0  0  0
 17 19  1  0  0  0  0
 19 14  1  1  0  0  0
 19 18  1  0  0  0  0
 20 21  1  0  0  0  0
 20 22  1  0  0  0  0
 21 22  1  0  0  0  0
 23 34  1  0  0  0  0
 23 26  1  0  0  0  0
 24 29  1  6  0  0  0
 24 26  1  0  0  0  0
 25 23  1  6  0  0  0
 25 24  1  0  0  0  0
 25 26  1  0  0  0  0
 26  1  1  1  0  0  0
 27 30  1  1  0  0  0
 28 27  1  0  0  0  0
 29 28  1  6  0  0  0
 29 27  1  0  0  0  0
 30 31  1  0  0  0  0
 31 33  1  0  0  0  0
 32 31  2  0  0  0  0
 35 36  1  0  0  0  0
 35 34  1  0  0  0  0
 36 37  1  0  0  0  0
 37 38  1  0  0  0  0
 38 40  1  0  0  0  0
 40 39  2  0  0  0  0
M  END
>  <MODEL>
8

>  <REMARK>
 VINA RESULT:      -6.7      2.665      7.703
  Name = 
  13 active torsions:
  status: ('A' for Active; 'I' for Inactive)
    1  A    between atoms: C_2  and  C_37
    2  A    between atoms: C_2  and  C_40
    3  A    between atoms: C_5  and  C_11
    4  A    between atoms: C_7  and  C_14
    5  A    between atoms: C_9  and  C_30
    6  A    between atoms: C_9  and  C_37
    7  A    between atoms: C_10  and  C_27
    8  A    between atoms: C_12  and  C_26
    9  A    between atoms: C_12  and  C_36
   10  A    between atoms: N_15  and  C_30
   11  A    between atoms: C_17  and  C_35
   12  A    between atoms: C_18  and  C_27
   13  A    between atoms: C_19  and  C_40
                            x       y       z     vdW  Elec       q    Type
                         _______ _______ _______ _____ _____    ______ ____

>  <TORSDO>
F 13

$$$$
=
 OpenBabel11042411413D

 40 48  0  0  1  0  0  0  0  0999 V2000
  184.6150  177.8830  140.5850 C   0  0  2  0  0  3  0  0  0  0  0  0
  183.9030  177.1620  141.5490 O   0  0  0  0  0  1  0  0  0  0  0  0
  186.8210  178.7720  141.3640 C   0  0  0  0  0  0  0  0  0  0  0  0
  187.3750  178.3640  142.5420 C   0  0  0  0  0  0  0  0  0  0  0  0
  186.2640  177.9260  146.1610 C   0  0  0  0  0  0  0  0  0  0  0  0
  184.9930  178.5150  146.1170 C   0  0  0  0  0  3  0  0  0  0  0  0
  185.2510  178.9190  143.7450 C   0  0  0  0  0  0  0  0  0  0  0  0
  184.7330  179.4190  142.5170 N   0  0  0  0  0  2  0  0  0  0  0  0
  186.5390  178.3650  143.7770 C   0  0  0  0  0  0  0  0  0  0  0  0
  187.0400  177.8770  144.9940 C   0  0  0  0  0  3  0  0  0  0  0  0
  185.3450  179.0650  141.2380 C   0  0  2  0  0  3  0  0  0  0  0  0
  184.4880  179.0070  144.9120 C   0  0  0  0  0  3  0  0  0  0  0  0
  187.5940  178.8620  140.1680 N   0  0  0  0  0  1  0  0  0  0  0  0
  189.6070  178.9560  142.2180 O   0  0  0  0  0  0  0  0  0  0  0  0
  188.8200  176.3800  142.2540 C   0  0  2  0  0  0  0  0  0  0  0  0
  189.4280  175.5510  143.2170 O   0  0  0  0  0  1  0  0  0  0  0  0
  188.8290  177.9300  142.7140 C   0  0  1  0  0  0  0  0  0  0  0  0
  189.6770  176.5150  141.0520 N   0  0  0  0  0  2  0  0  0  0  0  0
  189.6100  177.6220  141.6250 C   0  0  1  0  0  0  0  0  0  0  0  0
  186.8250  177.4430  147.4630 C   0  0  0  0  0  3  0  0  0  0  0  0
  187.7150  178.5050  148.0890 C   0  0  0  0  0  2  0  0  0  0  0  0
  188.3380  177.3270  147.3760 C   0  0  0  0  0  2  0  0  0  0  0  0
  184.1470  178.0160  138.0520 N   0  0  0  0  0  0  0  0  0  0  0  0
  183.1630  179.7250  139.5220 C   0  0  2  0  0  3  0  0  0  0  0  0
  184.3430  179.3440  138.6570 C   0  0  1  0  0  3  0  0  0  0  0  0
  183.6680  178.2950  139.4330 C   0  0  1  0  0  0  0  0  0  0  0  0
  180.5730  179.8240  139.3180 C   0  0  1  0  0  3  0  0  0  0  0  0
  181.2070  181.1790  139.0840 C   0  0  0  0  0  2  0  0  0  0  0  0
  181.9400  179.9330  138.6280 C   0  0  1  0  0  3  0  0  0  0  0  0
  180.6310  179.4750  140.7990 C   0  0  0  0  0  2  0  0  0  0  0  0
  180.0000  178.1470  141.0290 C   0  0  0  0  0  0  0  0  0  0  0  0
  179.3090  177.9450  142.0610 O   0  0  0  0  0  0  0  0  0  0  0  0
  180.2000  177.0950  140.0930 N   0  0  0  0  0  1  0  0  0  0  0  0
  185.4710  177.4040  137.9880 C   0  0  0  0  0  2  0  0  0  0  0  0
  185.4540  176.2050  137.0530 C   0  0  0  0  0  2  0  0  0  0  0  0
  186.8640  175.7880  136.6680 C   0  0  0  0  0  2  0  0  0  0  0  0
  187.8180  176.9650  136.7840 C   0  0  0  0  0  2  0  0  0  0  0  0
  188.9670  176.6340  137.7220 C   0  0  0  0  0  2  0  0  0  0  0  0
  190.5570  174.9030  137.9710 O   0  0  0  0  0  0  0  0  0  0  0  0
  189.5210  175.2730  137.4410 C   0  0  0  0  0  3  0  0  0  0  0  0
  1  2  1  1  0  0  0
  3  4  2  0  0  0  0
  4  9  1  0  0  0  0
  5 20  1  0  0  0  0
  6  5  1  0  0  0  0
  7  9  2  0  0  0  0
  7 12  1  0  0  0  0
  8  7  1  0  0  0  0
  9 10  1  0  0  0  0
 10  5  2  0  0  0  0
 11  1  1  1  0  0  0
 11  3  1  0  0  0  0
 11  8  1  0  0  0  0
 12  6  2  0  0  0  0
 13  3  1  0  0  0  0
 14 17  1  0  0  0  0
 15 17  1  0  0  0  0
 15 16  1  1  0  0  0
 17  4  1  6  0  0  0
 18 15  1  0  0  0  0
 19 18  1  6  0  0  0
 19 14  1  0  0  0  0
 19 15  1  0  0  0  0
 19 17  1  0  0  0  0
 20 21  1  0  0  0  0
 22 20  1  0  0  0  0
 22 21  1  0  0  0  0
 23 26  1  0  0  0  0
 24 29  1  6  0  0  0
 25 23  1  6  0  0  0
 25 26  1  0  0  0  0
 25 24  1  0  0  0  0
 26 24  1  0  0  0  0
 26  1  1  1  0  0  0
 27 30  1  1  0  0  0
 28 27  1  0  0  0  0
 29 28  1  1  0  0  0
 29 27  1  0  0  0  0
 30 31  1  0  0  0  0
 31 32  2  0  0  0  0
 33 31  1  0  0  0  0
 34 23  1  0  0  0  0
 35 34  1  0  0  0  0
 36 37  1  0  0  0  0
 36 35  1  0  0  0  0
 37 38  1  0  0  0  0
 40 38  1  0  0  0  0
 40 39  2  0  0  0  0
M  END
>  <MODEL>
9

>  <REMARK>
 VINA RESULT:      -6.6      2.795      8.411
  Name = 
  13 active torsions:
  status: ('A' for Active; 'I' for Inactive)
    1  A    between atoms: C_2  and  C_37
    2  A    between atoms: C_2  and  C_40
    3  A    between atoms: C_5  and  C_11
    4  A    between atoms: C_7  and  C_14
    5  A    between atoms: C_9  and  C_30
    6  A    between atoms: C_9  and  C_37
    7  A    between atoms: C_10  and  C_27
    8  A    between atoms: C_12  and  C_26
    9  A    between atoms: C_12  and  C_36
   10  A    between atoms: N_15  and  C_30
   11  A    between atoms: C_17  and  C_35
   12  A    between atoms: C_18  and  C_27
   13  A    between atoms: C_19  and  C_40
                            x       y       z     vdW  Elec       q    Type
                         _______ _______ _______ _____ _____    ______ ____

>  <TORSDO>
F 13

$$$$
