=
 OpenBabel11032420153D

 28 32  0  0  1  0  0  0  0  0999 V2000
  182.8700  178.7590  143.5990 C   0  0  0  0  0  0  0  0  0  0  0  0
  183.1790  179.1910  141.0500 C   0  0  2  0  0  3  0  0  0  0  0  0
  183.7270  178.5310  142.3380 C   0  0  1  0  0  3  0  0  0  0  0  0
  185.2170  178.8580  142.4700 C   0  0  2  0  0  3  0  0  0  0  0  0
  180.5120  178.6200  142.6920 C   0  0  0  0  0  3  0  0  0  0  0  0
  184.6890  179.1610  145.3950 C   0  0  0  0  0  3  0  0  0  0  0  0
  183.3290  179.0090  144.8400 C   0  0  0  0  0  3  0  0  0  0  0  0
  180.7490  179.3240  141.4050 C   0  0  0  0  0  2  0  0  0  0  0  0
  185.8260  178.7430  144.8490 C   0  0  0  0  0  3  0  0  0  0  0  0
  185.8820  178.0270  143.5500 C   0  0  2  0  0  3  0  0  0  0  0  0
  181.8350  178.6290  140.6270 C   0  0  0  0  0  2  0  0  0  0  0  0
  185.4430  180.2210  142.6130 F   0  0  0  0  0  0  0  0  0  0  0  0
  181.4330  178.4180  143.6320 C   0  0  0  0  0  3  0  0  0  0  0  0
  184.1030  179.0610  139.9430 N   0  0  0  0  0  0  0  0  0  0  0  0
  184.4160  180.0090  139.2870 O   0  0  0  0  0  0  0  0  0  0  0  0
  187.2750  177.7580  143.1970 N   0  0  0  0  0  2  0  0  0  0  0  0
  189.6750  176.6140  142.2210 C   0  0  0  0  0  2  0  0  0  0  0  0
  191.0610  176.4970  142.0680 O   0  0  0  0  0  0  0  0  0  0  0  0
  191.4180  177.8040  144.1510 C   0  0  2  0  0  3  0  0  0  0  0  0
  190.1940  177.0260  144.6660 C   0  0  1  0  0  0  0  0  0  0  0  0
  187.8860  176.7450  144.0780 C   0  0  2  0  0  3  0  0  0  0  0  0
  187.9700  177.2230  145.5350 C   0  0  0  0  0  2  0  0  0  0  0  0
  192.0130  175.3640  144.2840 O   0  0  0  0  0  1  0  0  0  0  0  0
  189.4070  177.6650  145.7860 C   0  0  0  0  0  2  0  0  0  0  0  0
  189.3000  176.3050  143.6720 C   0  0  1  0  0  3  0  0  0  0  0  0
  192.0630  176.6840  146.2620 O   0  0  0  0  0  1  0  0  0  0  0  0
  191.6220  177.6650  142.6210 C   0  0  0  0  0  2  0  0  0  0  0  0
  191.5910  176.5120  144.9600 C   0  0  0  0  0  0  0  0  0  0  0  0
  1 13  1  0  0  0  0
  1  7  2  0  0  0  0
  2 14  1  6  0  0  0
  2  3  1  0  0  0  0
  3  4  1  0  0  0  0
  3  1  1  1  0  0  0
  4 12  1  1  0  0  0
  4 10  1  0  0  0  0
  5 13  2  0  0  0  0
  7  6  1  0  0  0  0
  8  5  1  0  0  0  0
  9  6  2  0  0  0  0
 10 16  1  6  0  0  0
 10  9  1  0  0  0  0
 11  2  1  0  0  0  0
 11  8  1  0  0  0  0
 15 14  2  0  0  0  0
 18 17  1  0  0  0  0
 18 27  1  0  0  0  0
 19 27  1  6  0  0  0
 19 20  1  0  0  0  0
 19 28  1  0  0  0  0
 20 28  1  0  0  0  0
 20 24  1  1  0  0  0
 21 16  1  6  0  0  0
 21 22  1  0  0  0  0
 22 24  1  0  0  0  0
 23 28  1  0  0  0  0
 25 17  1  6  0  0  0
 25 21  1  0  0  0  0
 25 20  1  0  0  0  0
 28 26  1  0  0  0  0
M  END
>  <MODEL>
1

>  <REMARK>
 VINA RESULT:     -10.5      0.000      0.000
  Name = 
  3 active torsions:
  status: ('A' for Active; 'I' for Inactive)
    1  A    between atoms: C_4  and  N_9
    2  A    between atoms: C_11  and  N_12
    3  A    between atoms: N_12  and  C_24
                            x       y       z     vdW  Elec       q    Type
                         _______ _______ _______ _____ _____    ______ ____

>  <TORSDO>
F 3

$$$$
=
 OpenBabel11032420153D

 28 32  0  0  1  0  0  0  0  0999 V2000
  187.0790  178.0030  145.5650 C   0  0  0  0  0  0  0  0  0  0  0  0
  189.4510  177.0090  145.9730 C   0  0  2  0  0  3  0  0  0  0  0  0
  188.5370  177.8820  145.0800 C   0  0  1  0  0  3  0  0  0  0  0  0
  188.7270  177.4670  143.6180 C   0  0  2  0  0  3  0  0  0  0  0  0
  187.3480  178.1410  148.0780 C   0  0  0  0  0  3  0  0  0  0  0  0
  185.7760  177.8470  143.3350 C   0  0  0  0  0  3  0  0  0  0  0  0
  185.9780  177.9890  144.7910 C   0  0  0  0  0  3  0  0  0  0  0  0
  188.4540  177.1590  148.2160 C   0  0  0  0  0  2  0  0  0  0  0  0
  186.6800  178.0410  142.3810 C   0  0  0  0  0  3  0  0  0  0  0  0
  188.0780  178.4530  142.6660 C   0  0  2  0  0  3  0  0  0  0  0  0
  189.6270  177.5770  147.3680 C   0  0  0  0  0  2  0  0  0  0  0  0
  188.3380  176.1530  143.3930 F   0  0  0  0  0  0  0  0  0  0  0  0
  186.7520  178.4630  146.9310 C   0  0  0  0  0  3  0  0  0  0  0  0
  190.7590  176.8190  145.3830 N   0  0  0  0  0  0  0  0  0  0  0  0
  191.7490  177.1740  145.9500 O   0  0  0  0  0  0  0  0  0  0  0  0
  188.8340  178.5230  141.4160 N   0  0  0  0  0  2  0  0  0  0  0  0
  187.4200  178.3320  138.9700 C   0  0  0  0  0  2  0  0  0  0  0  0
  187.2600  178.3970  137.5810 O   0  0  0  0  0  0  0  0  0  0  0  0
  189.7140  178.1630  137.2720 C   0  0  2  0  0  3  0  0  0  0  0  0
  189.6140  177.1780  138.4500 C   0  0  1  0  0  0  0  0  0  0  0  0
  188.9220  177.2120  140.7460 C   0  0  2  0  0  3  0  0  0  0  0  0
  190.3670  176.6980  140.6720 C   0  0  0  0  0  2  0  0  0  0  0  0
  188.3350  176.1870  136.5520 O   0  0  0  0  0  1  0  0  0  0  0  0
  190.8710  176.9580  139.2580 C   0  0  0  0  0  2  0  0  0  0  0  0
  188.3660  177.1800  139.3150 C   0  0  1  0  0  3  0  0  0  0  0  0
  190.7080  176.0140  136.5510 O   0  0  0  0  0  1  0  0  0  0  0  0
  188.4270  179.0030  137.0750 C   0  0  0  0  0  2  0  0  0  0  0  0
  189.5630  176.6570  137.0250 C   0  0  0  0  0  0  0  0  0  0  0  0
  1 13  1  0  0  0  0
  2 14  1  6  0  0  0
  2 11  1  0  0  0  0
  3  1  1  1  0  0  0
  3  2  1  0  0  0  0
  4 12  1  1  0  0  0
  4  3  1  0  0  0  0
  5  8  1  0  0  0  0
  6  7  1  0  0  0  0
  7  1  2  0  0  0  0
  9 10  1  0  0  0  0
  9  6  2  0  0  0  0
 10 16  1  6  0  0  0
 10  4  1  0  0  0  0
 11  8  1  0  0  0  0
 13  5  2  0  0  0  0
 14 15  2  0  0  0  0
 18 17  1  0  0  0  0
 19 27  1  6  0  0  0
 19 20  1  0  0  0  0
 20 24  1  1  0  0  0
 20 25  1  0  0  0  0
 21 16  1  6  0  0  0
 22 21  1  0  0  0  0
 23 28  1  0  0  0  0
 24 22  1  0  0  0  0
 25 17  1  6  0  0  0
 25 21  1  0  0  0  0
 26 28  1  0  0  0  0
 27 18  1  0  0  0  0
 28 19  1  0  0  0  0
 28 20  1  0  0  0  0
M  END
>  <MODEL>
2

>  <REMARK>
 VINA RESULT:      -9.8      3.340      6.681
  Name = 
  3 active torsions:
  status: ('A' for Active; 'I' for Inactive)
    1  A    between atoms: C_4  and  N_9
    2  A    between atoms: C_11  and  N_12
    3  A    between atoms: N_12  and  C_24
                            x       y       z     vdW  Elec       q    Type
                         _______ _______ _______ _____ _____    ______ ____

>  <TORSDO>
F 3

$$$$
=
 OpenBabel11032420153D

 28 32  0  0  1  0  0  0  0  0999 V2000
  186.7590  178.1940  146.7090 C   0  0  0  0  0  0  0  0  0  0  0  0
  188.4690  177.1190  145.0650 C   0  0  2  0  0  3  0  0  0  0  0  0
  187.3540  178.1700  145.2880 C   0  0  1  0  0  3  0  0  0  0  0  0
  186.3460  178.0770  144.1390 C   0  0  2  0  0  3  0  0  0  0  0  0
  188.7930  177.7880  148.1610 C   0  0  0  0  0  3  0  0  0  0  0  0
  184.2420  178.5290  146.2120 C   0  0  0  0  0  3  0  0  0  0  0  0
  185.4610  178.3540  147.0280 C   0  0  0  0  0  3  0  0  0  0  0  0
  189.4670  176.7910  147.2890 C   0  0  0  0  0  2  0  0  0  0  0  0
  184.1790  178.9170  144.9430 C   0  0  0  0  0  3  0  0  0  0  0  0
  185.3840  179.2480  144.1400 C   0  0  2  0  0  3  0  0  0  0  0  0
  189.6960  177.3730  145.9190 C   0  0  0  0  0  2  0  0  0  0  0  0
  185.7070  176.8440  144.1020 F   0  0  0  0  0  0  0  0  0  0  0  0
  187.6140  178.3530  147.9050 C   0  0  0  0  0  3  0  0  0  0  0  0
  188.8760  177.0510  143.6780 N   0  0  0  0  0  0  0  0  0  0  0  0
  189.3150  176.0420  143.2130 O   0  0  0  0  0  0  0  0  0  0  0  0
  184.9860  179.5790  142.7720 N   0  0  0  0  0  2  0  0  0  0  0  0
  182.4670  178.5900  141.9370 C   0  0  0  0  0  2  0  0  0  0  0  0
  181.3600  178.4750  141.0880 O   0  0  0  0  0  0  0  0  0  0  0  0
  182.7010  179.3610  139.1930 C   0  0  2  0  0  3  0  0  0  0  0  0
  183.8380  178.5270  139.8070 C   0  0  1  0  0  0  0  0  0  0  0  0
  185.0420  178.4070  141.8780 C   0  0  2  0  0  3  0  0  0  0  0  0
  186.0460  178.6020  140.7330 C   0  0  0  0  0  2  0  0  0  0  0  0
  182.0830  176.9280  139.0430 O   0  0  0  0  0  1  0  0  0  0  0  0
  185.2480  178.9610  139.4850 C   0  0  0  0  0  2  0  0  0  0  0  0
  183.7020  178.0230  141.2340 C   0  0  1  0  0  3  0  0  0  0  0  0
  183.5700  177.8540  137.4340 O   0  0  0  0  0  1  0  0  0  0  0  0
  181.4800  179.5070  140.1380 C   0  0  0  0  0  2  0  0  0  0  0  0
  182.9850  177.9380  138.6980 C   0  0  0  0  0  0  0  0  0  0  0  0
  1  7  2  0  0  0  0
  1 13  1  0  0  0  0
  2 14  1  6  0  0  0
  2  3  1  0  0  0  0
  2 11  1  0  0  0  0
  3  1  1  1  0  0  0
  4 12  1  1  0  0  0
  4 10  1  0  0  0  0
  4  3  1  0  0  0  0
  6  7  1  0  0  0  0
  8  5  1  0  0  0  0
  9  6  2  0  0  0  0
 10 16  1  6  0  0  0
 10  9  1  0  0  0  0
 11  8  1  0  0  0  0
 13  5  2  0  0  0  0
 15 14  2  0  0  0  0
 18 17  1  0  0  0  0
 19 20  1  0  0  0  0
 19 27  1  1  0  0  0
 20 24  1  6  0  0  0
 20 25  1  0  0  0  0
 21 16  1  6  0  0  0
 22 21  1  0  0  0  0
 24 22  1  0  0  0  0
 25 21  1  0  0  0  0
 25 17  1  1  0  0  0
 26 28  1  0  0  0  0
 27 18  1  0  0  0  0
 28 23  1  0  0  0  0
 28 19  1  0  0  0  0
 28 20  1  0  0  0  0
M  END
>  <MODEL>
3

>  <REMARK>
 VINA RESULT:      -9.5      2.155      7.497
  Name = 
  3 active torsions:
  status: ('A' for Active; 'I' for Inactive)
    1  A    between atoms: C_4  and  N_9
    2  A    between atoms: C_11  and  N_12
    3  A    between atoms: N_12  and  C_24
                            x       y       z     vdW  Elec       q    Type
                         _______ _______ _______ _____ _____    ______ ____

>  <TORSDO>
F 3

$$$$
=
 OpenBabel11032420153D

 28 32  0  0  1  0  0  0  0  0999 V2000
  188.3790  177.7260  145.1700 C   0  0  0  0  0  0  0  0  0  0  0  0
  190.6330  176.6060  144.5030 C   0  0  2  0  0  3  0  0  0  0  0  0
  189.5050  177.5980  144.1260 C   0  0  1  0  0  3  0  0  0  0  0  0
  189.0600  177.3210  142.6870 C   0  0  2  0  0  3  0  0  0  0  0  0
  189.6440  177.6070  147.3590 C   0  0  0  0  0  3  0  0  0  0  0  0
  186.2820  177.8390  143.6580 C   0  0  0  0  0  3  0  0  0  0  0  0
  187.0610  177.8300  144.9130 C   0  0  0  0  0  3  0  0  0  0  0  0
  190.6360  176.5740  146.9620 C   0  0  0  0  0  2  0  0  0  0  0  0
  186.7380  178.0910  142.4360 C   0  0  0  0  0  3  0  0  0  0  0  0
  188.1590  178.4190  142.1570 C   0  0  2  0  0  3  0  0  0  0  0  0
  191.3970  177.0280  145.7440 C   0  0  0  0  0  2  0  0  0  0  0  0
  188.5170  176.0510  142.5430 F   0  0  0  0  0  0  0  0  0  0  0  0
  188.6640  178.0620  146.5810 C   0  0  0  0  0  3  0  0  0  0  0  0
  191.5760  176.4260  143.4190 N   0  0  0  0  0  0  0  0  0  0  0  0
  192.2710  177.3240  143.0500 O   0  0  0  0  0  0  0  0  0  0  0  0
  188.3520  178.5820  140.7170 N   0  0  0  0  0  2  0  0  0  0  0  0
  186.8150  177.9770  138.4170 C   0  0  0  0  0  2  0  0  0  0  0  0
  186.5220  177.9570  137.0480 O   0  0  0  0  0  0  0  0  0  0  0  0
  188.9220  178.3100  136.5120 C   0  0  2  0  0  3  0  0  0  0  0  0
  189.1680  177.3690  137.7040 C   0  0  1  0  0  0  0  0  0  0  0  0
  188.6950  177.3100  140.0550 C   0  0  2  0  0  3  0  0  0  0  0  0
  190.2090  177.1550  139.8510 C   0  0  0  0  0  2  0  0  0  0  0  0
  188.0040  176.0380  135.9450 O   0  0  0  0  0  1  0  0  0  0  0  0
  190.5080  177.4830  138.3920 C   0  0  0  0  0  2  0  0  0  0  0  0
  188.0380  177.0980  138.6830 C   0  0  1  0  0  3  0  0  0  0  0  0
  190.3380  176.4400  135.7230 O   0  0  0  0  0  1  0  0  0  0  0  0
  187.4560  178.8090  136.4290 C   0  0  0  0  0  2  0  0  0  0  0  0
  189.1190  176.8040  136.2960 C   0  0  0  0  0  0  0  0  0  0  0  0
  1 13  1  0  0  0  0
  2 14  1  6  0  0  0
  2 11  1  0  0  0  0
  3  2  1  0  0  0  0
  3  1  1  1  0  0  0
  4 12  1  1  0  0  0
  4  3  1  0  0  0  0
  6  7  1  0  0  0  0
  7  1  2  0  0  0  0
  8  5  1  0  0  0  0
  9  6  2  0  0  0  0
 10 16  1  6  0  0  0
 10  9  1  0  0  0  0
 10  4  1  0  0  0  0
 11  8  1  0  0  0  0
 13  5  2  0  0  0  0
 15 14  2  0  0  0  0
 18 17  1  0  0  0  0
 19 27  1  1  0  0  0
 19 20  1  0  0  0  0
 20 24  1  1  0  0  0
 20 25  1  0  0  0  0
 21 16  1  6  0  0  0
 22 21  1  0  0  0  0
 23 28  1  0  0  0  0
 24 22  1  0  0  0  0
 25 17  1  6  0  0  0
 25 21  1  0  0  0  0
 26 28  1  0  0  0  0
 27 18  1  0  0  0  0
 28 19  1  0  0  0  0
 28 20  1  0  0  0  0
M  END
>  <MODEL>
4

>  <REMARK>
 VINA RESULT:      -9.1      3.635      7.268
  Name = 
  3 active torsions:
  status: ('A' for Active; 'I' for Inactive)
    1  A    between atoms: C_4  and  N_9
    2  A    between atoms: C_11  and  N_12
    3  A    between atoms: N_12  and  C_24
                            x       y       z     vdW  Elec       q    Type
                         _______ _______ _______ _____ _____    ______ ____

>  <TORSDO>
F 3

$$$$
=
 OpenBabel11032420153D

 28 32  0  0  1  0  0  0  0  0999 V2000
  190.0800  177.4660  145.2810 C   0  0  0  0  0  0  0  0  0  0  0  0
  187.5090  177.8770  145.2160 C   0  0  2  0  0  3  0  0  0  0  0  0
  188.7440  177.2170  144.5550 C   0  0  1  0  0  3  0  0  0  0  0  0
  188.7270  177.5240  143.0540 C   0  0  2  0  0  3  0  0  0  0  0  0
  189.4080  177.3550  147.7180 C   0  0  0  0  0  3  0  0  0  0  0  0
  191.6880  177.8520  143.2900 C   0  0  0  0  0  3  0  0  0  0  0  0
  191.2690  177.7170  144.7000 C   0  0  0  0  0  3  0  0  0  0  0  0
  188.0990  178.0490  147.5980 C   0  0  0  0  0  2  0  0  0  0  0  0
  191.0370  177.4140  142.2180 C   0  0  0  0  0  3  0  0  0  0  0  0
  189.7430  176.6900  142.2990 C   0  0  2  0  0  3  0  0  0  0  0  0
  187.2240  177.3330  146.6020 C   0  0  0  0  0  2  0  0  0  0  0  0
  188.8370  178.8840  142.7970 F   0  0  0  0  0  0  0  0  0  0  0  0
  190.2560  177.1460  146.7130 C   0  0  0  0  0  3  0  0  0  0  0  0
  186.3190  177.7270  144.4060 N   0  0  0  0  0  0  0  0  0  0  0  0
  185.3250  178.3410  144.6520 O   0  0  0  0  0  0  0  0  0  0  0  0
  189.2590  176.3980  140.9510 N   0  0  0  0  0  2  0  0  0  0  0  0
  190.5610  176.0020  138.4680 C   0  0  0  0  0  2  0  0  0  0  0  0
  190.6420  175.6930  137.1050 O   0  0  0  0  0  0  0  0  0  0  0  0
  188.2250  176.1990  136.8320 C   0  0  2  0  0  3  0  0  0  0  0  0
  188.5070  177.3380  137.8260 C   0  0  1  0  0  0  0  0  0  0  0  0
  189.3030  177.5830  140.0750 C   0  0  2  0  0  3  0  0  0  0  0  0
  187.9340  178.2670  139.9580 C   0  0  0  0  0  2  0  0  0  0  0  0
  189.8050  177.8320  135.7540 O   0  0  0  0  0  1  0  0  0  0  0  0
  187.3310  177.8510  138.6220 C   0  0  0  0  0  2  0  0  0  0  0  0
  189.7870  177.3100  138.6430 C   0  0  1  0  0  3  0  0  0  0  0  0
  187.4770  178.3160  135.7920 O   0  0  0  0  0  1  0  0  0  0  0  0
  189.3840  175.1740  136.7410 C   0  0  0  0  0  2  0  0  0  0  0  0
  188.5530  177.6120  136.3340 C   0  0  0  0  0  0  0  0  0  0  0  0
  1 13  1  0  0  0  0
  2 14  1  6  0  0  0
  2 11  1  0  0  0  0
  3  2  1  0  0  0  0
  3  1  1  1  0  0  0
  4 12  1  1  0  0  0
  4  3  1  0  0  0  0
  6  7  1  0  0  0  0
  7  1  2  0  0  0  0
  8  5  1  0  0  0  0
  9 10  1  0  0  0  0
  9  6  2  0  0  0  0
 10 16  1  6  0  0  0
 10  4  1  0  0  0  0
 11  8  1  0  0  0  0
 13  5  2  0  0  0  0
 14 15  2  0  0  0  0
 18 17  1  0  0  0  0
 19 27  1  6  0  0  0
 19 20  1  0  0  0  0
 20 24  1  1  0  0  0
 20 25  1  0  0  0  0
 21 16  1  1  0  0  0
 22 21  1  0  0  0  0
 23 28  1  0  0  0  0
 24 22  1  0  0  0  0
 25 17  1  1  0  0  0
 25 21  1  0  0  0  0
 26 28  1  0  0  0  0
 27 18  1  0  0  0  0
 28 19  1  0  0  0  0
 28 20  1  0  0  0  0
M  END
>  <MODEL>
5

>  <REMARK>
 VINA RESULT:      -9.1      4.276      7.047
  Name = 
  3 active torsions:
  status: ('A' for Active; 'I' for Inactive)
    1  A    between atoms: C_4  and  N_9
    2  A    between atoms: C_11  and  N_12
    3  A    between atoms: N_12  and  C_24
                            x       y       z     vdW  Elec       q    Type
                         _______ _______ _______ _____ _____    ______ ____

>  <TORSDO>
F 3

$$$$
=
 OpenBabel11032420153D

 28 32  0  0  1  0  0  0  0  0999 V2000
  189.4370  178.0330  144.5330 C   0  0  0  0  0  0  0  0  0  0  0  0
  189.8390  177.0510  142.1540 C   0  0  2  0  0  3  0  0  0  0  0  0
  188.8690  177.7690  143.1240 C   0  0  1  0  0  3  0  0  0  0  0  0
  187.5060  177.0730  143.0690 C   0  0  2  0  0  3  0  0  0  0  0  0
  191.8450  178.6420  144.0460 C   0  0  0  0  0  3  0  0  0  0  0  0
  187.3920  177.4960  146.0250 C   0  0  0  0  0  3  0  0  0  0  0  0
  188.7720  177.9090  145.6970 C   0  0  0  0  0  3  0  0  0  0  0  0
  192.0830  177.6660  142.9520 C   0  0  0  0  0  2  0  0  0  0  0  0
  186.3490  177.4700  145.2030 C   0  0  0  0  0  3  0  0  0  0  0  0
  186.4350  177.8800  143.7780 C   0  0  2  0  0  3  0  0  0  0  0  0
  191.0770  177.8710  141.8480 C   0  0  0  0  0  2  0  0  0  0  0  0
  187.5730  175.7550  143.5010 F   0  0  0  0  0  0  0  0  0  0  0  0
  190.7090  178.7580  144.7320 C   0  0  0  0  0  3  0  0  0  0  0  0
  189.1940  176.7050  140.9050 N   0  0  0  0  0  0  0  0  0  0  0  0
  189.5830  177.1470  139.8660 O   0  0  0  0  0  0  0  0  0  0  0  0
  185.1380  177.6800  143.1310 N   0  0  0  0  0  2  0  0  0  0  0  0
  185.9590  178.6260  140.5910 C   0  0  0  0  0  2  0  0  0  0  0  0
  185.8790  178.7840  139.2030 O   0  0  0  0  0  0  0  0  0  0  0  0
  183.4620  178.2110  139.2600 C   0  0  2  0  0  3  0  0  0  0  0  0
  183.4570  179.0240  140.5660 C   0  0  1  0  0  0  0  0  0  0  0  0
  184.5240  178.9540  142.7130 C   0  0  2  0  0  3  0  0  0  0  0  0
  183.0030  178.9550  142.9170 C   0  0  0  0  0  2  0  0  0  0  0  0
  183.9980  180.6070  138.7160 O   0  0  0  0  0  1  0  0  0  0  0  0
  182.3610  178.7100  141.5560 C   0  0  0  0  0  2  0  0  0  0  0  0
  184.7770  179.3410  141.2480 C   0  0  1  0  0  3  0  0  0  0  0  0
  181.7320  179.9680  139.0530 O   0  0  0  0  0  1  0  0  0  0  0  0
  184.8920  177.8840  138.7570 C   0  0  0  0  0  2  0  0  0  0  0  0
  183.0860  179.6980  139.2570 C   0  0  0  0  0  0  0  0  0  0  0  0
  1 13  1  0  0  0  0
  1  7  2  0  0  0  0
  2 14  1  6  0  0  0
  2  3  1  0  0  0  0
  3  1  1  1  0  0  0
  4  3  1  0  0  0  0
  4 12  1  1  0  0  0
  4 10  1  0  0  0  0
  5 13  2  0  0  0  0
  7  6  1  0  0  0  0
  8  5  1  0  0  0  0
  9  6  2  0  0  0  0
 10 16  1  6  0  0  0
 10  9  1  0  0  0  0
 11  2  1  0  0  0  0
 11  8  1  0  0  0  0
 15 14  2  0  0  0  0
 18 17  1  0  0  0  0
 19 27  1  6  0  0  0
 19 20  1  0  0  0  0
 20 25  1  0  0  0  0
 20 24  1  1  0  0  0
 21 22  1  0  0  0  0
 21 16  1  6  0  0  0
 23 28  1  0  0  0  0
 24 22  1  0  0  0  0
 25 17  1  6  0  0  0
 25 21  1  0  0  0  0
 26 28  1  0  0  0  0
 27 18  1  0  0  0  0
 28 19  1  0  0  0  0
 28 20  1  0  0  0  0
M  END
>  <MODEL>
6

>  <REMARK>
 VINA RESULT:      -9.1      2.442      7.441
  Name = 
  3 active torsions:
  status: ('A' for Active; 'I' for Inactive)
    1  A    between atoms: C_4  and  N_9
    2  A    between atoms: C_11  and  N_12
    3  A    between atoms: N_12  and  C_24
                            x       y       z     vdW  Elec       q    Type
                         _______ _______ _______ _____ _____    ______ ____

>  <TORSDO>
F 3

$$$$
=
 OpenBabel11032420153D

 28 32  0  0  1  0  0  0  0  0999 V2000
  188.6880  176.3790  137.0690 C   0  0  0  0  0  0  0  0  0  0  0  0
  191.2280  176.5270  137.6260 C   0  0  2  0  0  3  0  0  0  0  0  0
  189.7750  176.4800  138.1580 C   0  0  1  0  0  3  0  0  0  0  0  0
  189.5880  177.5930  139.1930 C   0  0  2  0  0  3  0  0  0  0  0  0
  189.7500  174.8250  135.3780 C   0  0  0  0  0  3  0  0  0  0  0  0
  186.8780  177.9810  137.9940 C   0  0  0  0  0  3  0  0  0  0  0  0
  187.5040  177.0210  137.0620 C   0  0  0  0  0  3  0  0  0  0  0  0
  191.1390  175.3440  135.4720 C   0  0  0  0  0  2  0  0  0  0  0  0
  187.2030  178.1880  139.2660 C   0  0  0  0  0  3  0  0  0  0  0  0
  188.2850  177.4400  139.9540 C   0  0  2  0  0  3  0  0  0  0  0  0
  191.6280  175.2600  136.8950 C   0  0  0  0  0  2  0  0  0  0  0  0
  189.7510  178.8560  138.6390 F   0  0  0  0  0  0  0  0  0  0  0  0
  188.7080  175.3080  136.0510 C   0  0  0  0  0  3  0  0  0  0  0  0
  192.1820  176.7690  138.6870 N   0  0  0  0  0  0  0  0  0  0  0  0
  193.3570  176.7760  138.4700 O   0  0  0  0  0  0  0  0  0  0  0  0
  188.4340  177.9380  141.3200 N   0  0  0  0  0  2  0  0  0  0  0  0
  191.0350  177.5980  142.3880 C   0  0  0  0  0  2  0  0  0  0  0  0
  192.0700  177.7900  143.3100 O   0  0  0  0  0  0  0  0  0  0  0  0
  190.4230  178.4710  145.0410 C   0  0  2  0  0  3  0  0  0  0  0  0
  189.5490  177.3640  144.4260 C   0  0  1  0  0  0  0  0  0  0  0  0
  188.5670  176.8440  142.3000 C   0  0  2  0  0  3  0  0  0  0  0  0
  187.4580  176.8810  143.3610 C   0  0  0  0  0  2  0  0  0  0  0  0
  191.5470  176.2550  145.4240 O   0  0  0  0  0  1  0  0  0  0  0  0
  188.0570  177.4900  144.6240 C   0  0  0  0  0  2  0  0  0  0  0  0
  189.9040  176.8130  143.0550 C   0  0  1  0  0  3  0  0  0  0  0  0
  189.7700  176.9230  146.8570 O   0  0  0  0  0  1  0  0  0  0  0  0
  191.6520  178.8280  144.1660 C   0  0  0  0  0  2  0  0  0  0  0  0
  190.4200  177.0550  145.6290 C   0  0  0  0  0  0  0  0  0  0  0  0
  2  3  1  0  0  0  0
  2 14  1  1  0  0  0
  3  1  1  6  0  0  0
  3  4  1  0  0  0  0
  4 12  1  6  0  0  0
  4 10  1  0  0  0  0
  5  8  1  0  0  0  0
  5 13  2  0  0  0  0
  6  9  2  0  0  0  0
  7  1  2  0  0  0  0
  7  6  1  0  0  0  0
  8 11  1  0  0  0  0
  9 10  1  0  0  0  0
 10 16  1  1  0  0  0
 11  2  1  0  0  0  0
 13  1  1  0  0  0  0
 15 14  2  0  0  0  0
 17 18  1  0  0  0  0
 18 27  1  0  0  0  0
 19 27  1  6  0  0  0
 19 28  1  0  0  0  0
 20 24  1  1  0  0  0
 20 19  1  0  0  0  0
 20 28  1  0  0  0  0
 21 16  1  6  0  0  0
 21 25  1  0  0  0  0
 21 22  1  0  0  0  0
 22 24  1  0  0  0  0
 23 28  1  0  0  0  0
 25 17  1  6  0  0  0
 25 20  1  0  0  0  0
 28 26  1  0  0  0  0
M  END
>  <MODEL>
7

>  <REMARK>
 VINA RESULT:      -9.0      4.028      6.668
  Name = 
  3 active torsions:
  status: ('A' for Active; 'I' for Inactive)
    1  A    between atoms: C_4  and  N_9
    2  A    between atoms: C_11  and  N_12
    3  A    between atoms: N_12  and  C_24
                            x       y       z     vdW  Elec       q    Type
                         _______ _______ _______ _____ _____    ______ ____

>  <TORSDO>
F 3

$$$$
=
 OpenBabel11032420153D

 28 32  0  0  1  0  0  0  0  0999 V2000
  182.8650  178.7650  143.6130 C   0  0  0  0  0  0  0  0  0  0  0  0
  183.5640  178.9810  141.1140 C   0  0  2  0  0  3  0  0  0  0  0  0
  183.8160  178.3130  142.4880 C   0  0  1  0  0  3  0  0  0  0  0  0
  185.3130  178.3790  142.8050 C   0  0  2  0  0  3  0  0  0  0  0  0
  180.6530  178.9910  142.4040 C   0  0  0  0  0  3  0  0  0  0  0  0
  184.4880  178.9450  145.6210 C   0  0  0  0  0  3  0  0  0  0  0  0
  183.2030  179.0030  144.8950 C   0  0  0  0  0  3  0  0  0  0  0  0
  181.1750  179.5640  141.1360 C   0  0  0  0  0  2  0  0  0  0  0  0
  185.5880  178.3000  145.2480 C   0  0  0  0  0  3  0  0  0  0  0  0
  185.6730  177.5090  143.9940 C   0  0  2  0  0  3  0  0  0  0  0  0
  182.2040  178.6420  140.5360 C   0  0  0  0  0  2  0  0  0  0  0  0
  185.7650  179.6860  142.9280 F   0  0  0  0  0  0  0  0  0  0  0  0
  181.3970  178.6860  143.4660 C   0  0  0  0  0  3  0  0  0  0  0  0
  184.5800  178.6240  140.1460 N   0  0  0  0  0  0  0  0  0  0  0  0
  184.7110  179.2420  139.1330 O   0  0  0  0  0  0  0  0  0  0  0  0
  187.0260  176.9760  143.8410 N   0  0  0  0  0  2  0  0  0  0  0  0
  189.3130  177.7060  145.3430 C   0  0  0  0  0  2  0  0  0  0  0  0
  190.6440  177.6130  145.7660 O   0  0  0  0  0  0  0  0  0  0  0  0
  191.2330  176.3800  143.6910 C   0  0  2  0  0  3  0  0  0  0  0  0
  190.2500  177.3520  143.0170 C   0  0  1  0  0  0  0  0  0  0  0  0
  187.9290  177.9340  143.1760 C   0  0  2  0  0  3  0  0  0  0  0  0
  188.2380  177.5260  141.7280 C   0  0  0  0  0  2  0  0  0  0  0  0
  192.1600  178.7110  143.8700 O   0  0  0  0  0  1  0  0  0  0  0  0
  189.6250  176.8940  141.7210 C   0  0  0  0  0  2  0  0  0  0  0  0
  189.2790  178.1420  143.8780 C   0  0  1  0  0  3  0  0  0  0  0  0
  192.4280  177.5040  141.8390 O   0  0  0  0  0  1  0  0  0  0  0  0
  191.1440  176.4070  145.2390 C   0  0  0  0  0  2  0  0  0  0  0  0
  191.7340  177.6740  143.0370 C   0  0  0  0  0  0  0  0  0  0  0  0
  1  7  2  0  0  0  0
  2 14  1  6  0  0  0
  2  3  1  0  0  0  0
  3  4  1  0  0  0  0
  3  1  1  1  0  0  0
  4 12  1  1  0  0  0
  4 10  1  0  0  0  0
  5 13  2  0  0  0  0
  7  6  1  0  0  0  0
  8  5  1  0  0  0  0
  9  6  2  0  0  0  0
 10 16  1  6  0  0  0
 10  9  1  0  0  0  0
 11  2  1  0  0  0  0
 11  8  1  0  0  0  0
 13  1  1  0  0  0  0
 15 14  2  0  0  0  0
 17 18  1  0  0  0  0
 19 27  1  1  0  0  0
 20 24  1  6  0  0  0
 20 28  1  0  0  0  0
 20 19  1  0  0  0  0
 20 25  1  0  0  0  0
 21 16  1  1  0  0  0
 21 25  1  0  0  0  0
 22 21  1  0  0  0  0
 24 22  1  0  0  0  0
 25 17  1  1  0  0  0
 26 28  1  0  0  0  0
 27 18  1  0  0  0  0
 28 19  1  0  0  0  0
 28 23  1  0  0  0  0
M  END
>  <MODEL>
8

>  <REMARK>
 VINA RESULT:      -8.9      1.086      2.066
  Name = 
  3 active torsions:
  status: ('A' for Active; 'I' for Inactive)
    1  A    between atoms: C_4  and  N_9
    2  A    between atoms: C_11  and  N_12
    3  A    between atoms: N_12  and  C_24
                            x       y       z     vdW  Elec       q    Type
                         _______ _______ _______ _____ _____    ______ ____

>  <TORSDO>
F 3

$$$$
=
 OpenBabel11032420153D

 28 32  0  0  1  0  0  0  0  0999 V2000
  188.7070  177.3940  146.0040 C   0  0  0  0  0  0  0  0  0  0  0  0
  190.4520  176.3760  144.3590 C   0  0  2  0  0  3  0  0  0  0  0  0
  189.2230  177.2970  144.5540 C   0  0  1  0  0  3  0  0  0  0  0  0
  188.1740  176.9600  143.4900 C   0  0  2  0  0  3  0  0  0  0  0  0
  190.8520  177.3990  147.3480 C   0  0  0  0  0  3  0  0  0  0  0  0
  186.1450  177.3580  145.6470 C   0  0  0  0  0  3  0  0  0  0  0  0
  187.4190  177.4230  146.3920 C   0  0  0  0  0  3  0  0  0  0  0  0
  191.6030  176.4090  146.5320 C   0  0  0  0  0  2  0  0  0  0  0  0
  185.9630  177.6010  144.3530 C   0  0  0  0  0  3  0  0  0  0  0  0
  187.0680  177.9950  143.4430 C   0  0  2  0  0  3  0  0  0  0  0  0
  191.6800  176.8700  145.1000 C   0  0  0  0  0  2  0  0  0  0  0  0
  187.7020  175.6600  143.6150 F   0  0  0  0  0  0  0  0  0  0  0  0
  189.5980  177.7820  147.1180 C   0  0  0  0  0  3  0  0  0  0  0  0
  190.7890  176.2170  142.9610 N   0  0  0  0  0  0  0  0  0  0  0  0
  191.5410  176.9690  142.4180 O   0  0  0  0  0  0  0  0  0  0  0  0
  186.5570  178.1300  142.0800 N   0  0  0  0  0  2  0  0  0  0  0  0
  185.6470  178.6280  139.4450 C   0  0  0  0  0  2  0  0  0  0  0  0
  184.7820  178.5090  138.3510 O   0  0  0  0  0  0  0  0  0  0  0  0
  182.9480  177.7800  139.8590 C   0  0  2  0  0  3  0  0  0  0  0  0
  183.5310  178.8260  140.8240 C   0  0  1  0  0  0  0  0  0  0  0  0
  185.6060  179.2500  141.9510 C   0  0  2  0  0  3  0  0  0  0  0  0
  184.4830  179.1770  142.9940 C   0  0  0  0  0  2  0  0  0  0  0  0
  182.6690  180.0600  138.8350 O   0  0  0  0  0  1  0  0  0  0  0  0
  183.2460  178.6280  142.2940 C   0  0  0  0  0  2  0  0  0  0  0  0
  184.9290  179.3660  140.5770 C   0  0  1  0  0  3  0  0  0  0  0  0
  181.1250  179.3300  140.4900 O   0  0  0  0  0  1  0  0  0  0  0  0
  183.8850  177.4700  138.6640 C   0  0  0  0  0  2  0  0  0  0  0  0
  182.3850  179.2060  139.9040 C   0  0  0  0  0  0  0  0  0  0  0  0
  1  7  2  0  0  0  0
  1 13  1  0  0  0  0
  2 14  1  6  0  0  0
  2  3  1  0  0  0  0
  2 11  1  0  0  0  0
  3  1  1  1  0  0  0
  4 12  1  1  0  0  0
  4  3  1  0  0  0  0
  6  7  1  0  0  0  0
  8  5  1  0  0  0  0
  9  6  2  0  0  0  0
 10 16  1  6  0  0  0
 10  4  1  0  0  0  0
 10  9  1  0  0  0  0
 11  8  1  0  0  0  0
 13  5  2  0  0  0  0
 15 14  2  0  0  0  0
 18 27  1  0  0  0  0
 18 17  1  0  0  0  0
 19 27  1  6  0  0  0
 19 28  1  0  0  0  0
 19 20  1  0  0  0  0
 20 24  1  1  0  0  0
 21 16  1  6  0  0  0
 21 22  1  0  0  0  0
 23 28  1  0  0  0  0
 24 22  1  0  0  0  0
 25 17  1  6  0  0  0
 25 20  1  0  0  0  0
 25 21  1  0  0  0  0
 28 26  1  0  0  0  0
 28 20  1  0  0  0  0
M  END
>  <MODEL>
9

>  <REMARK>
 VINA RESULT:      -8.8      2.034      7.777
  Name = 
  3 active torsions:
  status: ('A' for Active; 'I' for Inactive)
    1  A    between atoms: C_4  and  N_9
    2  A    between atoms: C_11  and  N_12
    3  A    between atoms: N_12  and  C_24
                            x       y       z     vdW  Elec       q    Type
                         _______ _______ _______ _____ _____    ______ ____

>  <TORSDO>
F 3

$$$$
