=
 OpenBabel11042410213D

 37 42  0  0  1  0  0  0  0  0999 V2000
  189.9550  177.4690  139.8340 C   0  0  2  0  0  3  0  0  0  0  0  0
  189.0140  178.5410  141.8550 C   0  0  0  0  0  2  0  0  0  0  0  0
  187.6850  177.8060  142.1020 C   0  0  0  0  0  2  0  0  0  0  0  0
  188.8780  176.6280  144.0820 C   0  0  2  0  0  3  0  0  0  0  0  0
  190.3550  176.4540  141.9760 C   0  0  0  0  0  2  0  0  0  0  0  0
  190.0990  177.7200  141.2790 N   0  0  0  0  0  0  0  0  0  0  0  0
  190.3080  176.6040  143.5010 C   0  0  2  0  0  3  0  0  0  0  0  0
  187.7760  176.5700  143.0050 C   0  0  0  0  0  2  0  0  0  0  0  0
  191.0060  175.5640  144.0820 F   0  0  0  0  0  0  0  0  0  0  0  0
  188.9390  177.2320  147.4730 C   0  0  1  0  0  3  0  0  0  0  0  0
  189.7000  177.6850  146.2230 C   0  0  0  0  0  2  0  0  0  0  0  0
  189.2610  178.1530  148.6310 C   0  0  0  0  0  1  0  0  0  0  0  0
  187.5670  177.3350  147.1480 O   0  0  0  0  0  0  0  0  0  0  0  0
  186.2620  177.8180  145.3020 O   0  0  0  0  0  0  0  0  0  0  0  0
  187.3960  177.6360  145.8160 C   0  0  0  0  0  0  0  0  0  0  0  0
  188.6780  177.7790  145.0820 C   0  0  2  0  0  3  0  0  0  0  0  0
  193.0810  176.4700  137.9590 C   0  0  0  0  0  2  0  0  0  0  0  0
  191.1380  175.1410  138.4410 N   0  0  0  0  0  1  0  0  0  0  0  0
  193.6020  176.8420  139.2750 N   0  0  0  0  0  2  0  0  0  0  0  0
  191.5730  176.4670  138.0270 C   0  0  1  0  0  3  0  0  0  0  0  0
  192.4950  177.4290  140.0270 C   0  0  0  0  0  2  0  0  0  0  0  0
  191.3040  177.5080  139.0970 C   0  0  2  0  0  3  0  0  0  0  0  0
  188.9330  178.3030  139.1990 N   0  0  0  0  0  2  0  0  0  0  0  0
  186.6760  177.4210  138.8370 C   0  0  0  0  0  2  0  0  0  0  0  0
  185.7780  177.9940  136.5620 C   0  0  2  0  0  3  0  0  0  0  0  0
  183.5650  179.2950  138.8490 C   0  0  0  0  0  2  0  0  0  0  0  0
  188.1310  177.4410  138.3440 C   0  0  1  0  0  3  0  0  0  0  0  0
  183.7880  178.0980  139.7690 C   0  0  0  0  0  2  0  0  0  0  0  0
  187.3030  177.7620  134.5960 C   0  0  0  0  0  1  0  0  0  0  0  0
  187.0940  177.3810  136.0490 C   0  0  1  0  0  3  0  0  0  0  0  0
  183.9900  177.3340  135.1360 F   0  0  0  0  0  0  0  0  0  0  0  0
  188.2760  177.8720  136.8780 C   0  0  0  0  0  2  0  0  0  0  0  0
  185.7710  178.3580  138.0320 C   0  0  1  0  0  3  0  0  0  0  0  0
  184.3280  178.0870  138.3550 C   0  0  0  0  0  0  0  0  0  0  0  0
  183.6180  177.3620  137.3870 O   0  0  0  0  0  0  0  0  0  0  0  0
  184.5590  177.0850  136.3730 C   0  0  0  0  0  0  0  0  0  0  0  0
  184.9160  175.7470  136.4510 F   0  0  0  0  0  0  0  0  0  0  0  0
  1 23  1  6  0  0  0
  1  6  1  0  0  0  0
  2  3  1  0  0  0  0
  3  8  1  0  0  0  0
  4  8  1  6  0  0  0
  4 16  1  0  0  0  0
  5  7  1  0  0  0  0
  6  2  1  0  0  0  0
  6  5  1  0  0  0  0
  7  9  1  1  0  0  0
  7  4  1  0  0  0  0
 10 12  1  1  0  0  0
 11 10  1  0  0  0  0
 13 10  1  0  0  0  0
 14 15  2  0  0  0  0
 15 13  1  0  0  0  0
 16 15  1  0  0  0  0
 16 11  1  1  0  0  0
 17 20  1  0  0  0  0
 17 19  1  0  0  0  0
 19 21  1  0  0  0  0
 20 18  1  1  0  0  0
 20 22  1  0  0  0  0
 22  1  1  1  0  0  0
 22 21  1  0  0  0  0
 25 36  1  1  0  0  0
 25 33  1  0  0  0  0
 26 28  1  0  0  0  0
 27 24  1  0  0  0  0
 27 23  1  1  0  0  0
 30 29  1  6  0  0  0
 30 25  1  0  0  0  0
 30 32  1  0  0  0  0
 31 36  1  0  0  0  0
 32 27  1  0  0  0  0
 33 34  1  0  0  0  0
 33 24  1  1  0  0  0
 34 26  1  0  0  0  0
 34 28  1  0  0  0  0
 35 34  1  0  0  0  0
 36 37  1  0  0  0  0
 36 35  1  0  0  0  0
M  END
>  <MODEL>
1

>  <REMARK>
 VINA RESULT:      -9.0      0.000      0.000
  Name = 
  5 active torsions:
  status: ('A' for Active; 'I' for Inactive)
    1  A    between atoms: N_3  and  C_7
    2  A    between atoms: N_3  and  C_10
    3  A    between atoms: C_10  and  N_26
    4  A    between atoms: C_10  and  C_32
    5  A    between atoms: C_22  and  C_37
                            x       y       z     vdW  Elec       q    Type
                         _______ _______ _______ _____ _____    ______ ____

>  <TORSDO>
F 5

$$$$
=
 OpenBabel11042410213D

 37 42  0  0  1  0  0  0  0  0999 V2000
  189.6600  177.4860  140.3230 C   0  0  2  0  0  3  0  0  0  0  0  0
  189.3120  176.2940  142.4630 C   0  0  0  0  0  2  0  0  0  0  0  0
  190.6380  175.5590  142.7180 C   0  0  0  0  0  2  0  0  0  0  0  0
  191.1030  177.3440  144.5430 C   0  0  2  0  0  3  0  0  0  0  0  0
  190.4030  178.5240  142.3600 C   0  0  0  0  0  2  0  0  0  0  0  0
  189.4270  177.5970  141.7740 N   0  0  0  0  0  0  0  0  0  0  0  0
  190.3590  178.5300  143.8930 C   0  0  2  0  0  3  0  0  0  0  0  0
  191.6820  176.3470  143.5200 C   0  0  0  0  0  2  0  0  0  0  0  0
  190.9070  179.7090  144.3590 F   0  0  0  0  0  0  0  0  0  0  0  0
  189.3440  178.1170  147.4020 C   0  0  1  0  0  3  0  0  0  0  0  0
  189.0590  177.5350  146.0140 C   0  0  0  0  0  2  0  0  0  0  0  0
  188.1570  177.8780  148.3110 C   0  0  0  0  0  1  0  0  0  0  0  0
  190.4690  177.4160  147.8920 O   0  0  0  0  0  0  0  0  0  0  0  0
  191.9870  175.8440  147.1350 O   0  0  0  0  0  0  0  0  0  0  0  0
  191.0020  176.5990  146.9210 C   0  0  0  0  0  0  0  0  0  0  0  0
  190.2630  176.6620  145.6360 C   0  0  2  0  0  3  0  0  0  0  0  0
  186.8700  178.4070  137.9450 C   0  0  0  0  0  2  0  0  0  0  0  0
  189.0560  179.3860  138.1350 N   0  0  0  0  0  1  0  0  0  0  0  0
  186.2580  178.6270  139.2560 N   0  0  0  0  0  2  0  0  0  0  0  0
  188.3380  178.1210  138.1460 C   0  0  1  0  0  3  0  0  0  0  0  0
  187.1920  178.1170  140.2580 C   0  0  0  0  0  2  0  0  0  0  0  0
  188.3480  177.4780  139.5200 C   0  0  2  0  0  3  0  0  0  0  0  0
  190.5580  176.3880  139.9610 N   0  0  0  0  0  2  0  0  0  0  0  0
  192.8070  176.4180  138.9920 C   0  0  0  0  0  2  0  0  0  0  0  0
  192.8970  175.2900  136.7480 C   0  0  2  0  0  3  0  0  0  0  0  0
  195.1340  173.6380  138.7710 C   0  0  0  0  0  2  0  0  0  0  0  0
  191.3350  176.8170  138.8080 C   0  0  1  0  0  3  0  0  0  0  0  0
  195.5090  174.9500  139.4540 C   0  0  0  0  0  2  0  0  0  0  0  0
  191.0650  175.7560  135.1150 C   0  0  0  0  0  1  0  0  0  0  0  0
  191.7340  176.2320  136.3910 C   0  0  1  0  0  3  0  0  0  0  0  0
  194.3830  175.1290  134.8950 F   0  0  0  0  0  0  0  0  0  0  0  0
  190.7070  176.2720  137.5180 C   0  0  0  0  0  2  0  0  0  0  0  0
  193.1670  175.1380  138.2310 C   0  0  1  0  0  3  0  0  0  0  0  0
  194.6590  174.9560  138.2020 C   0  0  0  0  0  0  0  0  0  0  0  0
  195.2830  175.2720  136.9870 O   0  0  0  0  0  0  0  0  0  0  0  0
  194.2410  175.7110  136.1430 C   0  0  0  0  0  0  0  0  0  0  0  0
  194.3210  177.0900  136.0170 F   0  0  0  0  0  0  0  0  0  0  0  0
  1 23  1  1  0  0  0
  1  6  1  0  0  0  0
  2  3  1  0  0  0  0
  3  8  1  0  0  0  0
  4  8  1  6  0  0  0
  4 16  1  0  0  0  0
  5  7  1  0  0  0  0
  6  5  1  0  0  0  0
  6  2  1  0  0  0  0
  7  9  1  1  0  0  0
  7  4  1  0  0  0  0
 10 13  1  0  0  0  0
 10 12  1  1  0  0  0
 11 10  1  0  0  0  0
 15 14  2  0  0  0  0
 15 13  1  0  0  0  0
 16 11  1  1  0  0  0
 16 15  1  0  0  0  0
 17 20  1  0  0  0  0
 17 19  1  0  0  0  0
 19 21  1  0  0  0  0
 20 18  1  1  0  0  0
 20 22  1  0  0  0  0
 22 21  1  0  0  0  0
 22  1  1  1  0  0  0
 25 36  1  6  0  0  0
 25 33  1  0  0  0  0
 26 28  1  0  0  0  0
 27 24  1  0  0  0  0
 27 23  1  1  0  0  0
 30 29  1  6  0  0  0
 30 25  1  0  0  0  0
 30 32  1  0  0  0  0
 31 36  1  0  0  0  0
 32 27  1  0  0  0  0
 33 24  1  1  0  0  0
 34 33  1  0  0  0  0
 34 26  1  0  0  0  0
 34 28  1  0  0  0  0
 35 34  1  0  0  0  0
 36 35  1  0  0  0  0
 37 36  1  0  0  0  0
M  END
>  <MODEL>
2

>  <REMARK>
 VINA RESULT:      -8.7      3.672      6.175
  Name = 
  5 active torsions:
  status: ('A' for Active; 'I' for Inactive)
    1  A    between atoms: N_3  and  C_7
    2  A    between atoms: N_3  and  C_10
    3  A    between atoms: C_10  and  N_26
    4  A    between atoms: C_10  and  C_32
    5  A    between atoms: C_22  and  C_37
                            x       y       z     vdW  Elec       q    Type
                         _______ _______ _______ _____ _____    ______ ____

>  <TORSDO>
F 5

$$$$
=
 OpenBabel11042410213D

 37 42  0  0  1  0  0  0  0  0999 V2000
  187.8200  177.9350  141.0320 C   0  0  2  0  0  3  0  0  0  0  0  0
  187.9300  176.6610  143.1500 C   0  0  0  0  0  2  0  0  0  0  0  0
  189.0700  175.6510  142.9360 C   0  0  0  0  0  2  0  0  0  0  0  0
  190.4850  177.1400  144.5210 C   0  0  2  0  0  3  0  0  0  0  0  0
  189.3950  178.6200  142.7140 C   0  0  0  0  0  2  0  0  0  0  0  0
  188.1010  177.9670  142.4780 N   0  0  0  0  0  0  0  0  0  0  0  0
  189.8530  178.5050  144.1730 C   0  0  2  0  0  3  0  0  0  0  0  0
  190.4650  176.1360  143.3520 C   0  0  0  0  0  2  0  0  0  0  0  0
  190.7700  179.5010  144.4420 F   0  0  0  0  0  0  0  0  0  0  0  0
  189.3230  178.1590  147.6000 C   0  0  1  0  0  3  0  0  0  0  0  0
  188.7820  177.4360  146.3620 C   0  0  0  0  0  2  0  0  0  0  0  0
  188.3590  177.9890  148.7550 C   0  0  0  0  0  1  0  0  0  0  0  0
  190.5520  177.5320  147.9070 O   0  0  0  0  0  0  0  0  0  0  0  0
  191.9430  175.9240  147.0000 O   0  0  0  0  0  0  0  0  0  0  0  0
  190.9060  176.6330  146.9260 C   0  0  0  0  0  0  0  0  0  0  0  0
  189.9160  176.5540  145.8240 C   0  0  2  0  0  3  0  0  0  0  0  0
  190.2420  177.9300  138.1300 C   0  0  0  0  0  2  0  0  0  0  0  0
  187.8960  178.4490  138.1180 N   0  0  0  0  0  1  0  0  0  0  0  0
  190.3050  176.5460  138.6020 N   0  0  0  0  0  2  0  0  0  0  0  0
  189.1300  178.6340  138.8680 C   0  0  1  0  0  3  0  0  0  0  0  0
  189.5460  176.4810  139.8480 C   0  0  0  0  0  2  0  0  0  0  0  0
  189.1050  177.8880  140.1880 C   0  0  2  0  0  3  0  0  0  0  0  0
  186.8890  178.9780  140.5980 N   0  0  0  0  0  2  0  0  0  0  0  0
  184.8810  178.1480  141.7300 C   0  0  0  0  0  2  0  0  0  0  0  0
  182.7890  179.2800  140.9200 C   0  0  2  0  0  3  0  0  0  0  0  0
  182.9630  179.8410  144.3070 C   0  0  0  0  0  2  0  0  0  0  0  0
  185.5940  178.3510  140.3840 C   0  0  1  0  0  3  0  0  0  0  0  0
  183.5500  178.4500  144.5240 C   0  0  0  0  0  2  0  0  0  0  0  0
  182.5130  179.6380  138.4620 C   0  0  0  0  0  1  0  0  0  0  0  0
  183.2860  178.8740  139.5210 C   0  0  1  0  0  3  0  0  0  0  0  0
  180.4330  178.9670  141.0450 F   0  0  0  0  0  0  0  0  0  0  0  0
  184.7750  179.1650  139.3720 C   0  0  0  0  0  2  0  0  0  0  0  0
  183.8390  179.2350  142.0100 C   0  0  1  0  0  3  0  0  0  0  0  0
  182.9780  178.8370  143.1780 C   0  0  0  0  0  0  0  0  0  0  0  0
  181.6950  178.3760  142.8520 O   0  0  0  0  0  0  0  0  0  0  0  0
  181.6380  178.4140  141.4430 C   0  0  0  0  0  0  0  0  0  0  0  0
  181.7290  177.1180  140.9580 F   0  0  0  0  0  0  0  0  0  0  0  0
  1 23  1  6  0  0  0
  1  6  1  0  0  0  0
  3  2  1  0  0  0  0
  3  8  1  0  0  0  0
  4  8  1  6  0  0  0
  4 16  1  0  0  0  0
  5  7  1  0  0  0  0
  6  5  1  0  0  0  0
  6  2  1  0  0  0  0
  7  9  1  6  0  0  0
  7  4  1  0  0  0  0
 10 13  1  0  0  0  0
 10 12  1  1  0  0  0
 11 10  1  0  0  0  0
 15 14  2  0  0  0  0
 15 13  1  0  0  0  0
 16 11  1  1  0  0  0
 16 15  1  0  0  0  0
 17 19  1  0  0  0  0
 17 20  1  0  0  0  0
 19 21  1  0  0  0  0
 20 18  1  6  0  0  0
 20 22  1  0  0  0  0
 21 22  1  0  0  0  0
 22  1  1  6  0  0  0
 25 36  1  1  0  0  0
 25 33  1  0  0  0  0
 26 28  1  0  0  0  0
 27 23  1  1  0  0  0
 27 24  1  0  0  0  0
 30 29  1  6  0  0  0
 30 25  1  0  0  0  0
 31 36  1  0  0  0  0
 32 30  1  0  0  0  0
 32 27  1  0  0  0  0
 33 24  1  6  0  0  0
 33 34  1  0  0  0  0
 34 26  1  0  0  0  0
 34 28  1  0  0  0  0
 35 34  1  0  0  0  0
 36 35  1  0  0  0  0
 37 36  1  0  0  0  0
M  END
>  <MODEL>
3

>  <REMARK>
 VINA RESULT:      -8.2      2.828      4.041
  Name = 
  5 active torsions:
  status: ('A' for Active; 'I' for Inactive)
    1  A    between atoms: N_3  and  C_7
    2  A    between atoms: N_3  and  C_10
    3  A    between atoms: C_10  and  N_26
    4  A    between atoms: C_10  and  C_32
    5  A    between atoms: C_22  and  C_37
                            x       y       z     vdW  Elec       q    Type
                         _______ _______ _______ _____ _____    ______ ____

>  <TORSDO>
F 5

$$$$
=
 OpenBabel11042410213D

 37 42  0  0  1  0  0  0  0  0999 V2000
  189.6230  177.4040  143.3220 C   0  0  2  0  0  3  0  0  0  0  0  0
  189.2450  176.2910  141.1450 C   0  0  0  0  0  2  0  0  0  0  0  0
  188.5780  177.3660  140.2710 C   0  0  0  0  0  2  0  0  0  0  0  0
  190.8520  177.5580  139.0350 C   0  0  2  0  0  3  0  0  0  0  0  0
  191.2530  177.6890  141.5780 C   0  0  0  0  0  2  0  0  0  0  0  0
  190.2300  176.7900  142.1280 N   0  0  0  0  0  0  0  0  0  0  0  0
  191.7810  177.2150  140.2190 C   0  0  2  0  0  3  0  0  0  0  0  0
  189.5400  178.2460  139.4630 C   0  0  0  0  0  2  0  0  0  0  0  0
  193.0200  177.7800  139.9900 F   0  0  0  0  0  0  0  0  0  0  0  0
  192.5450  175.5990  136.7630 C   0  0  1  0  0  3  0  0  0  0  0  0
  191.8460  175.4270  138.1150 C   0  0  0  0  0  2  0  0  0  0  0  0
  192.8010  174.2430  136.1410 C   0  0  0  0  0  1  0  0  0  0  0  0
  191.6470  176.3340  135.9550 O   0  0  0  0  0  0  0  0  0  0  0  0
  189.6120  177.4080  136.1730 O   0  0  0  0  0  0  0  0  0  0  0  0
  190.5650  176.7670  136.6870 C   0  0  0  0  0  0  0  0  0  0  0  0
  190.6210  176.3510  138.1100 C   0  0  2  0  0  3  0  0  0  0  0  0
  192.0340  176.3150  146.0220 C   0  0  0  0  0  2  0  0  0  0  0  0
  191.2800  175.0790  144.1040 N   0  0  0  0  0  1  0  0  0  0  0  0
  190.8130  176.5950  146.7770 N   0  0  0  0  0  2  0  0  0  0  0  0
  191.7130  176.3960  144.5490 C   0  0  1  0  0  3  0  0  0  0  0  0
  189.8640  177.2080  145.8510 C   0  0  0  0  0  2  0  0  0  0  0  0
  190.5760  177.4000  144.5300 C   0  0  2  0  0  3  0  0  0  0  0  0
  188.2970  176.8710  143.6380 N   0  0  0  0  0  2  0  0  0  0  0  0
  186.5710  178.4110  142.8320 C   0  0  0  0  0  2  0  0  0  0  0  0
  184.4700  178.2980  144.2060 C   0  0  2  0  0  3  0  0  0  0  0  0
  183.5710  177.5570  140.9710 C   0  0  0  0  0  2  0  0  0  0  0  0
  187.4510  177.9920  144.0190 C   0  0  1  0  0  3  0  0  0  0  0  0
  184.5880  178.5630  140.4410 C   0  0  0  0  0  2  0  0  0  0  0  0
  184.6870  178.2050  146.6930 C   0  0  0  0  0  1  0  0  0  0  0  0
  185.4130  178.5250  145.4000 C   0  0  1  0  0  3  0  0  0  0  0  0
  182.4780  179.5630  144.5190 F   0  0  0  0  0  0  0  0  0  0  0  0
  186.6530  177.6450  145.2830 C   0  0  0  0  0  2  0  0  0  0  0  0
  185.1490  177.8480  142.9290 C   0  0  1  0  0  3  0  0  0  0  0  0
  184.2590  178.5140  141.9170 C   0  0  0  0  0  0  0  0  0  0  0  0
  183.3860  179.4850  142.4270 O   0  0  0  0  0  0  0  0  0  0  0  0
  183.6660  179.5410  143.8090 C   0  0  0  0  0  0  0  0  0  0  0  0
  184.3780  180.7010  144.0720 F   0  0  0  0  0  0  0  0  0  0  0  0
  1 23  1  1  0  0  0
  2  6  1  0  0  0  0
  3  2  1  0  0  0  0
  4  8  1  1  0  0  0
  4  7  1  0  0  0  0
  5  6  1  0  0  0  0
  6  1  1  0  0  0  0
  7  9  1  6  0  0  0
  7  5  1  0  0  0  0
  8  3  1  0  0  0  0
 10 12  1  6  0  0  0
 10 11  1  0  0  0  0
 13 15  1  0  0  0  0
 13 10  1  0  0  0  0
 14 15  2  0  0  0  0
 15 16  1  0  0  0  0
 16 11  1  6  0  0  0
 16  4  1  0  0  0  0
 17 19  1  0  0  0  0
 20 18  1  1  0  0  0
 20 17  1  0  0  0  0
 21 19  1  0  0  0  0
 22  1  1  6  0  0  0
 22 20  1  0  0  0  0
 22 21  1  0  0  0  0
 24 27  1  0  0  0  0
 25 36  1  6  0  0  0
 25 30  1  0  0  0  0
 26 34  1  0  0  0  0
 27 23  1  6  0  0  0
 27 32  1  0  0  0  0
 28 26  1  0  0  0  0
 28 34  1  0  0  0  0
 30 29  1  1  0  0  0
 32 30  1  0  0  0  0
 33 24  1  1  0  0  0
 33 25  1  0  0  0  0
 34 35  1  0  0  0  0
 34 33  1  0  0  0  0
 35 36  1  0  0  0  0
 36 37  1  0  0  0  0
 36 31  1  0  0  0  0
M  END
>  <MODEL>
4

>  <REMARK>
 VINA RESULT:      -8.0      3.589      7.228
  Name = 
  5 active torsions:
  status: ('A' for Active; 'I' for Inactive)
    1  A    between atoms: N_3  and  C_7
    2  A    between atoms: N_3  and  C_10
    3  A    between atoms: C_10  and  N_26
    4  A    between atoms: C_10  and  C_32
    5  A    between atoms: C_22  and  C_37
                            x       y       z     vdW  Elec       q    Type
                         _______ _______ _______ _____ _____    ______ ____

>  <TORSDO>
F 5

$$$$
=
 OpenBabel11042410213D

 37 42  0  0  1  0  0  0  0  0999 V2000
  186.9860  178.2220  140.0040 C   0  0  2  0  0  3  0  0  0  0  0  0
  187.3790  178.8320  142.3690 C   0  0  0  0  0  2  0  0  0  0  0  0
  186.4950  177.8630  143.1720 C   0  0  0  0  0  2  0  0  0  0  0  0
  188.6870  176.6300  143.8100 C   0  0  2  0  0  3  0  0  0  0  0  0
  188.6300  176.9950  141.2590 C   0  0  0  0  0  2  0  0  0  0  0  0
  187.9480  178.2880  141.1180 N   0  0  0  0  0  0  0  0  0  0  0  0
  189.4920  176.9200  142.5250 C   0  0  2  0  0  3  0  0  0  0  0  0
  187.1660  176.5440  143.5770 C   0  0  0  0  0  2  0  0  0  0  0  0
  190.4480  175.9370  142.3660 F   0  0  0  0  0  0  0  0  0  0  0  0
  190.4200  176.6330  146.7870 C   0  0  1  0  0  3  0  0  0  0  0  0
  190.5040  177.3210  145.4210 C   0  0  0  0  0  2  0  0  0  0  0  0
  191.3160  177.3470  147.7770 C   0  0  0  0  0  1  0  0  0  0  0  0
  189.0710  176.7480  147.1950 O   0  0  0  0  0  0  0  0  0  0  0  0
  187.0650  177.5050  146.3300 O   0  0  0  0  0  0  0  0  0  0  0  0
  188.2940  177.2730  146.1870 C   0  0  0  0  0  0  0  0  0  0  0  0
  189.0650  177.5810  144.9580 C   0  0  2  0  0  3  0  0  0  0  0  0
  188.4990  177.9080  136.5540 C   0  0  0  0  0  2  0  0  0  0  0  0
  187.3360  176.2390  137.8340 N   0  0  0  0  0  1  0  0  0  0  0  0
  189.6550  178.2580  137.3800 N   0  0  0  0  0  2  0  0  0  0  0  0
  187.3240  177.6470  137.4660 C   0  0  1  0  0  3  0  0  0  0  0  0
  189.1500  178.5910  138.7100 C   0  0  0  0  0  2  0  0  0  0  0  0
  187.6390  178.5420  138.6490 C   0  0  2  0  0  3  0  0  0  0  0  0
  185.7640  178.9900  140.2460 N   0  0  0  0  0  2  0  0  0  0  0  0
  183.6850  178.0190  141.1040 C   0  0  0  0  0  2  0  0  0  0  0  0
  181.6850  178.6760  139.7320 C   0  0  2  0  0  3  0  0  0  0  0  0
  181.0650  179.7320  142.9450 C   0  0  0  0  0  2  0  0  0  0  0  0
  184.6340  178.1400  139.9020 C   0  0  1  0  0  3  0  0  0  0  0  0
  181.7650  178.4980  143.5030 C   0  0  0  0  0  2  0  0  0  0  0  0
  181.8920  178.6340  137.2420 C   0  0  0  0  0  1  0  0  0  0  0  0
  182.5140  178.1600  138.5430 C   0  0  1  0  0  3  0  0  0  0  0  0
  179.4150  178.0120  139.4630 F   0  0  0  0  0  0  0  0  0  0  0  0
  183.9520  178.6610  138.6290 C   0  0  0  0  0  2  0  0  0  0  0  0
  182.4770  178.9550  140.9920 C   0  0  1  0  0  3  0  0  0  0  0  0
  181.4470  178.5940  142.0270 C   0  0  0  0  0  0  0  0  0  0  0  0
  180.3310  177.8920  141.5490 O   0  0  0  0  0  0  0  0  0  0  0  0
  180.5690  177.7200  140.1690 C   0  0  0  0  0  0  0  0  0  0  0  0
  180.9250  176.4000  139.9390 F   0  0  0  0  0  0  0  0  0  0  0  0
  1 23  1  1  0  0  0
  1  6  1  0  0  0  0
  2  3  1  0  0  0  0
  3  8  1  0  0  0  0
  4  8  1  6  0  0  0
  4 16  1  0  0  0  0
  5  7  1  0  0  0  0
  6  5  1  0  0  0  0
  6  2  1  0  0  0  0
  7  9  1  6  0  0  0
  7  4  1  0  0  0  0
 10 13  1  0  0  0  0
 10 12  1  1  0  0  0
 11 10  1  0  0  0  0
 15 14  2  0  0  0  0
 15 13  1  0  0  0  0
 16 11  1  1  0  0  0
 16 15  1  0  0  0  0
 17 19  1  0  0  0  0
 17 20  1  0  0  0  0
 19 21  1  0  0  0  0
 20 18  1  1  0  0  0
 20 22  1  0  0  0  0
 22 21  1  0  0  0  0
 22  1  1  1  0  0  0
 25 36  1  1  0  0  0
 25 33  1  0  0  0  0
 26 28  1  0  0  0  0
 27 23  1  1  0  0  0
 27 24  1  0  0  0  0
 30 29  1  6  0  0  0
 30 32  1  0  0  0  0
 30 25  1  0  0  0  0
 31 36  1  0  0  0  0
 32 27  1  0  0  0  0
 33 24  1  1  0  0  0
 33 34  1  0  0  0  0
 34 26  1  0  0  0  0
 34 28  1  0  0  0  0
 35 34  1  0  0  0  0
 36 35  1  0  0  0  0
 37 36  1  0  0  0  0
M  END
>  <MODEL>
5

>  <REMARK>
 VINA RESULT:      -7.8      2.547      3.761
  Name = 
  5 active torsions:
  status: ('A' for Active; 'I' for Inactive)
    1  A    between atoms: N_3  and  C_7
    2  A    between atoms: N_3  and  C_10
    3  A    between atoms: C_10  and  N_26
    4  A    between atoms: C_10  and  C_32
    5  A    between atoms: C_22  and  C_37
                            x       y       z     vdW  Elec       q    Type
                         _______ _______ _______ _____ _____    ______ ____

>  <TORSDO>
F 5

$$$$
=
 OpenBabel11042410213D

 37 42  0  0  1  0  0  0  0  0999 V2000
  187.4020  177.4900  138.1190 C   0  0  2  0  0  3  0  0  0  0  0  0
  189.8040  178.0390  137.9030 C   0  0  0  0  0  2  0  0  0  0  0  0
  190.4320  177.5610  139.2230 C   0  0  0  0  0  2  0  0  0  0  0  0
  191.4330  175.5930  137.8600 C   0  0  2  0  0  3  0  0  0  0  0  0
  188.9140  175.7880  137.3470 C   0  0  0  0  0  2  0  0  0  0  0  0
  188.6680  177.2340  137.4090 N   0  0  0  0  0  0  0  0  0  0  0  0
  190.3110  175.4530  136.8090 C   0  0  2  0  0  3  0  0  0  0  0  0
  190.9370  176.1120  139.2240 C   0  0  0  0  0  2  0  0  0  0  0  0
  190.3140  174.1610  136.3240 F   0  0  0  0  0  0  0  0  0  0  0  0
  194.4740  175.0700  136.3280 C   0  0  1  0  0  3  0  0  0  0  0  0
  193.1450  175.7630  136.0120 C   0  0  0  0  0  2  0  0  0  0  0  0
  195.5310  175.5080  135.3360 C   0  0  0  0  0  1  0  0  0  0  0  0
  194.8330  175.4970  137.6280 O   0  0  0  0  0  0  0  0  0  0  0  0
  193.9240  176.7510  139.3440 O   0  0  0  0  0  0  0  0  0  0  0  0
  193.8190  176.2300  138.2030 C   0  0  0  0  0  0  0  0  0  0  0  0
  192.6370  176.3830  137.3200 C   0  0  2  0  0  3  0  0  0  0  0  0
  184.4430  177.1290  135.7950 C   0  0  0  0  0  2  0  0  0  0  0  0
  185.4370  175.4680  137.2190 N   0  0  0  0  0  1  0  0  0  0  0  0
  185.5200  177.5180  134.8840 N   0  0  0  0  0  2  0  0  0  0  0  0
  185.0420  176.8670  137.1560 C   0  0  1  0  0  3  0  0  0  0  0  0
  186.6740  177.8710  135.7070 C   0  0  0  0  0  2  0  0  0  0  0  0
  186.2430  177.7930  137.1550 C   0  0  2  0  0  3  0  0  0  0  0  0
  187.5280  178.4780  139.1920 N   0  0  0  0  0  2  0  0  0  0  0  0
  188.2190  177.4260  141.2930 C   0  0  0  0  0  2  0  0  0  0  0  0
  187.3150  178.6270  143.3070 C   0  0  2  0  0  3  0  0  0  0  0  0
  190.7390  178.6260  143.6170 C   0  0  0  0  0  2  0  0  0  0  0  0
  187.0360  177.8640  140.4160 C   0  0  1  0  0  3  0  0  0  0  0  0
  190.8110  177.2320  143.0010 C   0  0  0  0  0  2  0  0  0  0  0  0
  184.9320  179.3780  143.2660 C   0  0  0  0  0  1  0  0  0  0  0  0
  185.9530  178.4680  142.6080 C   0  0  1  0  0  3  0  0  0  0  0  0
  187.0570  178.2410  145.6420 F   0  0  0  0  0  0  0  0  0  0  0  0
  186.0620  178.8140  141.1270 C   0  0  0  0  0  2  0  0  0  0  0  0
  188.5200  178.4270  142.4130 C   0  0  1  0  0  3  0  0  0  0  0  0
  189.4770  177.8230  143.4030 C   0  0  0  0  0  0  0  0  0  0  0  0
  188.9050  177.3910  144.6080 O   0  0  0  0  0  0  0  0  0  0  0  0
  187.5260  177.6590  144.4770 C   0  0  0  0  0  0  0  0  0  0  0  0
  186.8580  176.4630  144.2620 F   0  0  0  0  0  0  0  0  0  0  0  0
  1 23  1  1  0  0  0
  2  3  1  0  0  0  0
  3  8  1  0  0  0  0
  4  8  1  1  0  0  0
  5  6  1  0  0  0  0
  6  2  1  0  0  0  0
  6  1  1  0  0  0  0
  7  9  1  1  0  0  0
  7  5  1  0  0  0  0
  7  4  1  0  0  0  0
 10 12  1  6  0  0  0
 10 13  1  0  0  0  0
 11 10  1  0  0  0  0
 13 15  1  0  0  0  0
 15 14  2  0  0  0  0
 16 11  1  6  0  0  0
 16  4  1  0  0  0  0
 16 15  1  0  0  0  0
 17 20  1  0  0  0  0
 19 21  1  0  0  0  0
 19 17  1  0  0  0  0
 20 18  1  6  0  0  0
 21 22  1  0  0  0  0
 22 20  1  0  0  0  0
 22  1  1  1  0  0  0
 25 36  1  1  0  0  0
 27 23  1  6  0  0  0
 27 32  1  0  0  0  0
 27 24  1  0  0  0  0
 28 34  1  0  0  0  0
 28 26  1  0  0  0  0
 30 29  1  1  0  0  0
 30 25  1  0  0  0  0
 32 30  1  0  0  0  0
 33 24  1  6  0  0  0
 33 25  1  0  0  0  0
 33 34  1  0  0  0  0
 34 26  1  0  0  0  0
 34 35  1  0  0  0  0
 36 35  1  0  0  0  0
 36 31  1  0  0  0  0
 37 36  1  0  0  0  0
M  END
>  <MODEL>
6

>  <REMARK>
 VINA RESULT:      -7.7      3.481      7.855
  Name = 
  5 active torsions:
  status: ('A' for Active; 'I' for Inactive)
    1  A    between atoms: N_3  and  C_7
    2  A    between atoms: N_3  and  C_10
    3  A    between atoms: C_10  and  N_26
    4  A    between atoms: C_10  and  C_32
    5  A    between atoms: C_22  and  C_37
                            x       y       z     vdW  Elec       q    Type
                         _______ _______ _______ _____ _____    ______ ____

>  <TORSDO>
F 5

$$$$
=
 OpenBabel11042410213D

 37 42  0  0  1  0  0  0  0  0999 V2000
  189.2850  177.6370  142.0970 C   0  0  2  0  0  3  0  0  0  0  0  0
  188.3240  176.9260  139.9320 C   0  0  0  0  0  2  0  0  0  0  0  0
  188.1330  178.2340  139.1440 C   0  0  0  0  0  2  0  0  0  0  0  0
  190.1810  177.5030  137.7280 C   0  0  2  0  0  3  0  0  0  0  0  0
  190.7620  177.2970  140.2310 C   0  0  0  0  0  2  0  0  0  0  0  0
  189.4880  176.8940  140.8410 N   0  0  0  0  0  0  0  0  0  0  0  0
  190.9440  176.7230  138.8200 C   0  0  2  0  0  3  0  0  0  0  0  0
  189.3270  178.6610  138.2810 C   0  0  0  0  0  2  0  0  0  0  0  0
  192.2870  176.7130  138.5030 F   0  0  0  0  0  0  0  0  0  0  0  0
  190.6170  174.6530  135.8420 C   0  0  1  0  0  3  0  0  0  0  0  0
  189.7790  175.1060  137.0420 C   0  0  0  0  0  2  0  0  0  0  0  0
  190.0720  173.3490  135.2990 C   0  0  0  0  0  1  0  0  0  0  0  0
  190.4790  175.6700  134.8690 O   0  0  0  0  0  0  0  0  0  0  0  0
  189.5210  177.7660  134.6870 O   0  0  0  0  0  0  0  0  0  0  0  0
  189.8000  176.7530  135.3800 C   0  0  0  0  0  0  0  0  0  0  0  0
  189.3910  176.5690  136.7940 C   0  0  2  0  0  3  0  0  0  0  0  0
  192.0550  177.7430  144.6670 C   0  0  0  0  0  2  0  0  0  0  0  0
  190.0780  176.3780  144.6560 N   0  0  0  0  0  1  0  0  0  0  0  0
  191.5490  179.1160  144.6850 N   0  0  0  0  0  2  0  0  0  0  0  0
  191.1360  176.9070  143.8090 C   0  0  1  0  0  3  0  0  0  0  0  0
  190.5950  179.2370  143.5860 C   0  0  0  0  0  2  0  0  0  0  0  0
  190.6090  177.9310  142.8220 C   0  0  2  0  0  3  0  0  0  0  0  0
  188.2770  177.0350  142.9710 N   0  0  0  0  0  2  0  0  0  0  0  0
  186.3850  178.4920  142.4250 C   0  0  0  0  0  2  0  0  0  0  0  0
  184.4950  178.2620  144.0650 C   0  0  2  0  0  3  0  0  0  0  0  0
  183.2080  177.5030  140.9690 C   0  0  0  0  0  2  0  0  0  0  0  0
  187.4360  178.1090  143.4780 C   0  0  1  0  0  3  0  0  0  0  0  0
  184.0950  178.5630  140.3220 C   0  0  0  0  0  2  0  0  0  0  0  0
  185.0470  178.1600  146.5000 C   0  0  0  0  0  1  0  0  0  0  0  0
  185.5780  178.5260  145.1260 C   0  0  1  0  0  3  0  0  0  0  0  0
  182.5030  179.4220  144.6600 F   0  0  0  0  0  0  0  0  0  0  0  0
  186.8320  177.7110  144.8320 C   0  0  0  0  0  2  0  0  0  0  0  0
  185.0180  177.8570  142.7030 C   0  0  1  0  0  3  0  0  0  0  0  0
  183.9690  178.4860  141.8280 C   0  0  0  0  0  0  0  0  0  0  0  0
  183.1260  179.4070  142.4640 O   0  0  0  0  0  0  0  0  0  0  0  0
  183.5850  179.4660  143.7970 C   0  0  0  0  0  0  0  0  0  0  0  0
  184.2680  180.6590  143.9810 F   0  0  0  0  0  0  0  0  0  0  0  0
  1 23  1  1  0  0  0
  2  6  1  0  0  0  0
  3  2  1  0  0  0  0
  4  8  1  1  0  0  0
  4  7  1  0  0  0  0
  5  6  1  0  0  0  0
  6  1  1  0  0  0  0
  7  9  1  6  0  0  0
  7  5  1  0  0  0  0
  8  3  1  0  0  0  0
 10 12  1  6  0  0  0
 10 11  1  0  0  0  0
 13 15  1  0  0  0  0
 13 10  1  0  0  0  0
 14 15  2  0  0  0  0
 15 16  1  0  0  0  0
 16 11  1  1  0  0  0
 16  4  1  0  0  0  0
 17 19  1  0  0  0  0
 20 18  1  1  0  0  0
 20 17  1  0  0  0  0
 21 19  1  0  0  0  0
 22  1  1  1  0  0  0
 22 21  1  0  0  0  0
 22 20  1  0  0  0  0
 24 27  1  0  0  0  0
 25 36  1  6  0  0  0
 25 30  1  0  0  0  0
 26 34  1  0  0  0  0
 27 23  1  6  0  0  0
 27 32  1  0  0  0  0
 28 26  1  0  0  0  0
 28 34  1  0  0  0  0
 30 29  1  1  0  0  0
 32 30  1  0  0  0  0
 33 24  1  6  0  0  0
 33 25  1  0  0  0  0
 34 35  1  0  0  0  0
 34 33  1  0  0  0  0
 35 36  1  0  0  0  0
 36 37  1  0  0  0  0
 36 31  1  0  0  0  0
M  END
>  <MODEL>
7

>  <REMARK>
 VINA RESULT:      -7.7      3.601      7.328
  Name = 
  5 active torsions:
  status: ('A' for Active; 'I' for Inactive)
    1  A    between atoms: N_3  and  C_7
    2  A    between atoms: N_3  and  C_10
    3  A    between atoms: C_10  and  N_26
    4  A    between atoms: C_10  and  C_32
    5  A    between atoms: C_22  and  C_37
                            x       y       z     vdW  Elec       q    Type
                         _______ _______ _______ _____ _____    ______ ____

>  <TORSDO>
F 5

$$$$
=
 OpenBabel11042410213D

 37 42  0  0  1  0  0  0  0  0999 V2000
  189.4430  176.6010  142.3650 C   0  0  2  0  0  3  0  0  0  0  0  0
  187.3150  176.3160  143.5940 C   0  0  0  0  0  2  0  0  0  0  0  0
  187.4870  177.1580  144.8690 C   0  0  0  0  0  2  0  0  0  0  0  0
  185.8690  178.8680  143.7790 C   0  0  2  0  0  3  0  0  0  0  0  0
  187.7180  178.2530  142.0910 C   0  0  0  0  0  2  0  0  0  0  0  0
  187.9890  176.8410  142.3870 N   0  0  0  0  0  0  0  0  0  0  0  0
  186.2450  178.6240  142.3010 C   0  0  2  0  0  3  0  0  0  0  0  0
  187.0330  178.6190  144.7590 C   0  0  0  0  0  2  0  0  0  0  0  0
  185.9540  179.7620  141.5750 F   0  0  0  0  0  0  0  0  0  0  0  0
  182.4510  179.3000  143.7550 C   0  0  1  0  0  3  0  0  0  0  0  0
  183.4830  178.3560  143.1300 C   0  0  0  0  0  2  0  0  0  0  0  0
  181.0620  178.7210  143.5940 C   0  0  0  0  0  1  0  0  0  0  0  0
  182.7800  179.3780  145.1280 O   0  0  0  0  0  0  0  0  0  0  0  0
  184.4460  178.6350  146.5480 O   0  0  0  0  0  0  0  0  0  0  0  0
  183.9690  178.7340  145.3880 C   0  0  0  0  0  0  0  0  0  0  0  0
  184.5800  178.1300  144.1790 C   0  0  2  0  0  3  0  0  0  0  0  0
  191.6810  177.6230  145.2340 C   0  0  0  0  0  2  0  0  0  0  0  0
  191.5630  178.5580  143.0240 N   0  0  0  0  0  1  0  0  0  0  0  0
  192.0550  176.2250  145.0180 N   0  0  0  0  0  2  0  0  0  0  0  0
  190.7540  178.0460  144.1200 C   0  0  1  0  0  3  0  0  0  0  0  0
  191.1120  175.6710  144.0500 C   0  0  0  0  0  2  0  0  0  0  0  0
  190.0790  176.7370  143.7590 C   0  0  2  0  0  3  0  0  0  0  0  0
  190.1430  177.3760  141.3390 N   0  0  0  0  0  2  0  0  0  0  0  0
  189.1180  176.7450  139.2050 C   0  0  0  0  0  2  0  0  0  0  0  0
  190.6500  177.1440  137.2530 C   0  0  2  0  0  3  0  0  0  0  0  0
  187.8040  178.9800  136.6620 C   0  0  0  0  0  2  0  0  0  0  0  0
  190.2930  176.5230  140.1690 C   0  0  1  0  0  3  0  0  0  0  0  0
  186.9480  177.8870  137.2930 C   0  0  0  0  0  2  0  0  0  0  0  0
  193.0490  176.4840  137.4780 C   0  0  0  0  0  1  0  0  0  0  0  0
  191.6600  176.3130  138.0640 C   0  0  1  0  0  3  0  0  0  0  0  0
  190.7960  176.5430  134.9540 F   0  0  0  0  0  0  0  0  0  0  0  0
  191.6680  176.7500  139.5250 C   0  0  0  0  0  2  0  0  0  0  0  0
  189.4790  177.6820  138.0480 C   0  0  1  0  0  3  0  0  0  0  0  0
  188.4090  177.6350  136.9920 C   0  0  0  0  0  0  0  0  0  0  0  0
  188.7250  176.8930  135.8460 O   0  0  0  0  0  0  0  0  0  0  0  0
  190.0160  176.3780  136.0860 C   0  0  0  0  0  0  0  0  0  0  0  0
  189.9100  175.0260  136.3750 F   0  0  0  0  0  0  0  0  0  0  0  0
  1 23  1  6  0  0  0
  1  6  1  0  0  0  0
  2  3  1  0  0  0  0
  4 16  1  0  0  0  0
  4  8  1  1  0  0  0
  5  7  1  0  0  0  0
  5  6  1  0  0  0  0
  6  2  1  0  0  0  0
  7  9  1  6  0  0  0
  7  4  1  0  0  0  0
  8  3  1  0  0  0  0
 10 12  1  1  0  0  0
 10 13  1  0  0  0  0
 11 10  1  0  0  0  0
 13 15  1  0  0  0  0
 15 14  2  0  0  0  0
 16 11  1  6  0  0  0
 16 15  1  0  0  0  0
 19 17  1  0  0  0  0
 20 18  1  6  0  0  0
 20 17  1  0  0  0  0
 21 19  1  0  0  0  0
 22  1  1  6  0  0  0
 22 21  1  0  0  0  0
 22 20  1  0  0  0  0
 24 27  1  0  0  0  0
 25 36  1  6  0  0  0
 25 33  1  0  0  0  0
 25 30  1  0  0  0  0
 26 34  1  0  0  0  0
 26 28  1  0  0  0  0
 27 23  1  1  0  0  0
 30 29  1  6  0  0  0
 30 32  1  0  0  0  0
 31 36  1  0  0  0  0
 32 27  1  0  0  0  0
 33 24  1  1  0  0  0
 34 28  1  0  0  0  0
 34 33  1  0  0  0  0
 35 36  1  0  0  0  0
 35 34  1  0  0  0  0
 36 37  1  0  0  0  0
M  END
>  <MODEL>
8

>  <REMARK>
 VINA RESULT:      -7.4      2.878      5.082
  Name = 
  5 active torsions:
  status: ('A' for Active; 'I' for Inactive)
    1  A    between atoms: N_3  and  C_7
    2  A    between atoms: N_3  and  C_10
    3  A    between atoms: C_10  and  N_26
    4  A    between atoms: C_10  and  C_32
    5  A    between atoms: C_22  and  C_37
                            x       y       z     vdW  Elec       q    Type
                         _______ _______ _______ _____ _____    ______ ____

>  <TORSDO>
F 5

$$$$
=
 OpenBabel11042410213D

 37 42  0  0  1  0  0  0  0  0999 V2000
  189.3800  177.3690  138.0180 C   0  0  2  0  0  3  0  0  0  0  0  0
  187.1860  178.2730  137.3150 C   0  0  0  0  0  2  0  0  0  0  0  0
  187.2300  178.2460  135.7780 C   0  0  0  0  0  2  0  0  0  0  0  0
  185.6140  176.2210  135.9160 C   0  0  2  0  0  3  0  0  0  0  0  0
  187.6030  175.8310  137.5100 C   0  0  0  0  0  2  0  0  0  0  0  0
  187.9180  177.1820  137.9920 N   0  0  0  0  0  0  0  0  0  0  0  0
  186.1030  175.6340  137.2580 C   0  0  2  0  0  3  0  0  0  0  0  0
  186.7170  176.9550  135.1280 C   0  0  0  0  0  2  0  0  0  0  0  0
  185.8120  174.2840  137.2850 F   0  0  0  0  0  0  0  0  0  0  0  0
  182.9140  176.5460  138.0310 C   0  0  1  0  0  3  0  0  0  0  0  0
  184.1010  177.3940  137.5620 C   0  0  0  0  0  2  0  0  0  0  0  0
  181.8980  177.4260  138.7270 C   0  0  0  0  0  1  0  0  0  0  0  0
  182.3460  175.9950  136.8590 O   0  0  0  0  0  0  0  0  0  0  0  0
  182.8030  175.9120  134.5940 O   0  0  0  0  0  0  0  0  0  0  0  0
  183.1260  176.2670  135.7580 C   0  0  0  0  0  0  0  0  0  0  0  0
  184.3370  177.0610  136.0830 C   0  0  2  0  0  3  0  0  0  0  0  0
  192.0930  174.9210  137.0540 C   0  0  0  0  0  2  0  0  0  0  0  0
  192.2170  176.7570  138.5980 N   0  0  0  0  0  1  0  0  0  0  0  0
  191.7550  175.5440  135.7740 N   0  0  0  0  0  2  0  0  0  0  0  0
  191.3690  175.6620  138.1510 C   0  0  1  0  0  3  0  0  0  0  0  0
  190.5770  176.3780  135.9990 C   0  0  0  0  0  2  0  0  0  0  0  0
  190.1330  176.1640  137.4290 C   0  0  2  0  0  3  0  0  0  0  0  0
  189.8900  177.7780  139.3280 N   0  0  0  0  0  2  0  0  0  0  0  0
  189.7900  176.7550  141.5510 C   0  0  0  0  0  2  0  0  0  0  0  0
  188.3940  178.0910  143.1570 C   0  0  2  0  0  3  0  0  0  0  0  0
  191.5300  177.8500  144.5450 C   0  0  0  0  0  2  0  0  0  0  0  0
  188.9870  177.2470  140.3370 C   0  0  1  0  0  3  0  0  0  0  0  0
  191.6810  176.4340  143.9990 C   0  0  0  0  0  2  0  0  0  0  0  0
  186.2160  179.0130  142.3490 C   0  0  0  0  0  1  0  0  0  0  0  0
  187.3160  178.0070  142.0620 C   0  0  1  0  0  3  0  0  0  0  0  0
  187.3770  177.8100  145.2910 F   0  0  0  0  0  0  0  0  0  0  0  0
  187.9180  178.2910  140.6900 C   0  0  0  0  0  2  0  0  0  0  0  0
  189.8000  177.7710  142.6970 C   0  0  1  0  0  3  0  0  0  0  0  0
  190.3400  177.1340  143.9480 C   0  0  0  0  0  0  0  0  0  0  0  0
  189.3820  176.7890  144.9120 O   0  0  0  0  0  0  0  0  0  0  0  0
  188.1430  177.1530  144.3440 C   0  0  0  0  0  0  0  0  0  0  0  0
  187.4830  176.0020  143.9400 F   0  0  0  0  0  0  0  0  0  0  0  0
  1 23  1  1  0  0  0
  2  6  1  0  0  0  0
  3  2  1  0  0  0  0
  4  8  1  1  0  0  0
  4 16  1  0  0  0  0
  4  7  1  0  0  0  0
  5  6  1  0  0  0  0
  6  1  1  0  0  0  0
  7  9  1  6  0  0  0
  7  5  1  0  0  0  0
  8  3  1  0  0  0  0
 10 12  1  6  0  0  0
 11 10  1  0  0  0  0
 13 10  1  0  0  0  0
 14 15  2  0  0  0  0
 15 16  1  0  0  0  0
 15 13  1  0  0  0  0
 16 11  1  1  0  0  0
 17 20  1  0  0  0  0
 19 21  1  0  0  0  0
 19 17  1  0  0  0  0
 20 18  1  6  0  0  0
 21 22  1  0  0  0  0
 22  1  1  1  0  0  0
 22 20  1  0  0  0  0
 25 36  1  1  0  0  0
 27 23  1  6  0  0  0
 27 32  1  0  0  0  0
 27 24  1  0  0  0  0
 28 26  1  0  0  0  0
 30 29  1  1  0  0  0
 30 25  1  0  0  0  0
 32 30  1  0  0  0  0
 33 24  1  6  0  0  0
 33 25  1  0  0  0  0
 33 34  1  0  0  0  0
 34 28  1  0  0  0  0
 34 26  1  0  0  0  0
 34 35  1  0  0  0  0
 36 35  1  0  0  0  0
 36 31  1  0  0  0  0
 37 36  1  0  0  0  0
M  END
>  <MODEL>
9

>  <REMARK>
 VINA RESULT:      -7.3      2.073      7.587
  Name = 
  5 active torsions:
  status: ('A' for Active; 'I' for Inactive)
    1  A    between atoms: N_3  and  C_7
    2  A    between atoms: N_3  and  C_10
    3  A    between atoms: C_10  and  N_26
    4  A    between atoms: C_10  and  C_32
    5  A    between atoms: C_22  and  C_37
                            x       y       z     vdW  Elec       q    Type
                         _______ _______ _______ _____ _____    ______ ____

>  <TORSDO>
F 5

$$$$
