=
 OpenBabel11042412023D

 28 32  0  0  1  0  0  0  0  0999 V2000
  185.4210  178.2710  146.8770 C   0  0  0  0  0  3  0  0  0  0  0  0
  186.1260  177.1250  146.2300 C   0  0  0  0  0  2  0  0  0  0  0  0
  187.1790  177.6540  145.2670 C   0  0  2  0  0  0  0  0  0  0  0  0
  184.2300  178.8400  144.8450 C   0  0  0  0  0  0  0  0  0  0  0  0
  184.7400  178.3130  142.5630 N   0  0  0  0  0  0  0  0  0  0  0  0
  186.6630  178.4700  144.0840 C   0  0  1  0  0  3  0  0  0  0  0  0
  184.5770  179.0120  146.2270 N   0  0  0  0  0  0  0  0  0  0  0  0
  187.1800  177.0470  143.8690 C   0  0  1  0  0  3  0  0  0  0  0  0
  182.4870  178.8080  143.1620 C   0  0  0  0  0  3  0  0  0  0  0  0
  183.4350  178.4480  142.2080 C   0  0  0  0  0  3  0  0  0  0  0  0
  182.8920  179.0080  144.4800 C   0  0  0  0  0  3  0  0  0  0  0  0
  185.1720  178.4900  143.8430 C   0  0  0  0  0  0  0  0  0  0  0  0
  188.5350  177.1080  143.1850 C   0  0  0  0  0  2  0  0  0  0  0  0
  188.3600  177.1660  141.6740 C   0  0  0  0  0  2  0  0  0  0  0  0
  189.5830  177.7290  140.9410 C   0  0  1  0  0  3  0  0  0  0  0  0
  191.9650  177.4540  140.2870 C   0  0  0  0  0  2  0  0  0  0  0  0
  190.7940  176.8050  141.0000 C   0  0  0  0  0  3  0  0  0  0  0  0
  191.8990  177.4690  141.8000 C   0  0  0  0  0  2  0  0  0  0  0  0
  187.9320  178.5850  139.4000 O   0  0  0  0  0  1  0  0  0  0  0  0
  189.2600  178.1710  139.5140 C   0  0  0  0  0  2  0  0  0  0  0  0
  188.4630  178.2560  145.8610 C   0  0  0  0  0  2  0  0  0  0  0  0
  188.9250  177.9110  148.2440 C   0  0  0  0  0  2  0  0  0  0  0  0
  189.0280  177.4460  146.9980 C   0  0  0  0  0  0  0  0  0  0  0  0
  191.7420  176.0430  145.0270 O   0  0  0  0  0  1  0  0  0  0  0  0
  191.1560  177.0460  145.8040 C   0  0  2  0  0  3  0  0  0  0  0  0
  191.4360  176.8690  147.2970 C   0  0  2  0  0  3  0  0  0  0  0  0
  192.2550  175.6310  147.6340 C   0  0  0  0  0  1  0  0  0  0  0  0
  190.1030  176.4380  146.7130 C   0  0  1  0  0  3  0  0  0  0  0  0
  2  1  1  0  0  0  0
  3 21  1  1  0  0  0
  3  2  1  0  0  0  0
  4  7  1  0  0  0  0
  5 12  1  0  0  0  0
  6 12  1  1  0  0  0
  6  3  1  0  0  0  0
  7  1  2  0  0  0  0
  8 13  1  6  0  0  0
  8  6  1  0  0  0  0
  8  3  1  0  0  0  0
  9 11  2  0  0  0  0
 10  5  2  0  0  0  0
 10  9  1  0  0  0  0
 11  4  1  0  0  0  0
 12  4  2  0  0  0  0
 14 13  1  0  0  0  0
 15 20  1  6  0  0  0
 15 17  1  0  0  0  0
 15 14  1  0  0  0  0
 16 17  1  0  0  0  0
 16 18  1  0  0  0  0
 17 18  1  0  0  0  0
 19 20  1  0  0  0  0
 21 23  1  0  0  0  0
 23 22  2  0  0  0  0
 25 24  1  6  0  0  0
 25 28  1  0  0  0  0
 25 26  1  0  0  0  0
 26 27  1  6  0  0  0
 28 23  1  1  0  0  0
 28 26  1  0  0  0  0
M  END
>  <MODEL>
1

>  <REMARK>
 VINA RESULT:      -8.7      0.000      0.000
  Name = 
  8 active torsions:
  status: ('A' for Active; 'I' for Inactive)
    1  A    between atoms: C_6  and  C_20
    2  A    between atoms: C_7  and  C_15
    3  A    between atoms: C_7  and  C_27
    4  A    between atoms: C_13  and  C_20
    5  A    between atoms: C_13  and  C_28
    6  A    between atoms: C_14  and  C_16
    7  A    between atoms: C_16  and  C_25
    8  A    between atoms: C_16  and  C_27
                            x       y       z     vdW  Elec       q    Type
                         _______ _______ _______ _____ _____    ______ ____

>  <TORSDO>
F 8

$$$$
=
 OpenBabel11042412023D

 28 32  0  0  1  0  0  0  0  0999 V2000
  191.3530  177.5990  142.4330 C   0  0  0  0  0  3  0  0  0  0  0  0
  190.2750  178.4780  142.9750 C   0  0  0  0  0  2  0  0  0  0  0  0
  189.0250  177.6480  143.2330 C   0  0  2  0  0  0  0  0  0  0  0  0
  190.2550  177.3770  140.2840 C   0  0  0  0  0  0  0  0  0  0  0  0
  187.9560  177.6980  139.6900 N   0  0  0  0  0  0  0  0  0  0  0  0
  188.3780  177.0040  142.0080 C   0  0  1  0  0  3  0  0  0  0  0  0
  191.3120  177.1290  141.2230 N   0  0  0  0  0  0  0  0  0  0  0  0
  187.7200  178.2100  142.6810 C   0  0  1  0  0  3  0  0  0  0  0  0
  189.6260  177.8960  138.0030 C   0  0  0  0  0  3  0  0  0  0  0  0
  188.2920  177.9470  138.3980 C   0  0  0  0  0  3  0  0  0  0  0  0
  190.6040  177.6040  138.9510 C   0  0  0  0  0  3  0  0  0  0  0  0
  188.8840  177.4200  140.6480 C   0  0  0  0  0  0  0  0  0  0  0  0
  186.4920  177.7430  143.4450 C   0  0  0  0  0  2  0  0  0  0  0  0
  185.6750  178.9400  143.9130 C   0  0  0  0  0  2  0  0  0  0  0  0
  184.3310  179.0800  143.1910 C   0  0  1  0  0  3  0  0  0  0  0  0
  182.9480  178.4980  141.2100 C   0  0  0  0  0  2  0  0  0  0  0  0
  184.1870  178.1340  142.0050 C   0  0  0  0  0  3  0  0  0  0  0  0
  184.3150  178.9160  140.7120 C   0  0  0  0  0  2  0  0  0  0  0  0
  183.5510  179.0930  145.4770 O   0  0  0  0  0  1  0  0  0  0  0  0
  183.1410  178.9990  144.1450 C   0  0  0  0  0  2  0  0  0  0  0  0
  189.0220  176.7040  144.4460 C   0  0  0  0  0  2  0  0  0  0  0  0
  190.8290  176.8130  146.0990 C   0  0  0  0  0  2  0  0  0  0  0  0
  189.6660  177.3040  145.6670 C   0  0  0  0  0  0  0  0  0  0  0  0
  186.4900  178.3300  147.1090 O   0  0  0  0  0  1  0  0  0  0  0  0
  187.4590  177.3780  146.7780 C   0  0  2  0  0  3  0  0  0  0  0  0
  188.5100  177.2080  147.8750 C   0  0  2  0  0  3  0  0  0  0  0  0
  188.3120  178.1240  149.0750 C   0  0  0  0  0  1  0  0  0  0  0  0
  188.8130  178.0520  146.6510 C   0  0  1  0  0  3  0  0  0  0  0  0
  1  2  1  0  0  0  0
  2  3  1  0  0  0  0
  3 21  1  1  0  0  0
  4 12  1  0  0  0  0
  4  7  1  0  0  0  0
  5 12  2  0  0  0  0
  6 12  1  6  0  0  0
  6  8  1  0  0  0  0
  6  3  1  0  0  0  0
  7  1  2  0  0  0  0
  8  3  1  0  0  0  0
  8 13  1  1  0  0  0
  9 10  2  0  0  0  0
  9 11  1  0  0  0  0
 10  5  1  0  0  0  0
 11  4  2  0  0  0  0
 13 14  1  0  0  0  0
 15 14  1  1  0  0  0
 15 20  1  0  0  0  0
 16 17  1  0  0  0  0
 17 15  1  0  0  0  0
 18 16  1  0  0  0  0
 18 17  1  0  0  0  0
 20 19  1  0  0  0  0
 21 23  1  0  0  0  0
 23 22  2  0  0  0  0
 25 24  1  1  0  0  0
 25 26  1  0  0  0  0
 26 27  1  1  0  0  0
 28 23  1  6  0  0  0
 28 25  1  0  0  0  0
 28 26  1  0  0  0  0
M  END
>  <MODEL>
2

>  <REMARK>
 VINA RESULT:      -8.6      2.697      5.847
  Name = 
  8 active torsions:
  status: ('A' for Active; 'I' for Inactive)
    1  A    between atoms: C_6  and  C_20
    2  A    between atoms: C_7  and  C_15
    3  A    between atoms: C_7  and  C_27
    4  A    between atoms: C_13  and  C_20
    5  A    between atoms: C_13  and  C_28
    6  A    between atoms: C_14  and  C_16
    7  A    between atoms: C_16  and  C_25
    8  A    between atoms: C_16  and  C_27
                            x       y       z     vdW  Elec       q    Type
                         _______ _______ _______ _____ _____    ______ ____

>  <TORSDO>
F 8

$$$$
=
 OpenBabel11042412023D

 28 32  0  0  1  0  0  0  0  0999 V2000
  191.6620  177.6480  142.9880 C   0  0  0  0  0  3  0  0  0  0  0  0
  190.4420  178.4480  143.3050 C   0  0  0  0  0  2  0  0  0  0  0  0
  189.2480  177.5170  143.4540 C   0  0  2  0  0  0  0  0  0  0  0  0
  190.9100  177.1740  140.7330 C   0  0  0  0  0  0  0  0  0  0  0  0
  188.7010  177.2240  139.8050 N   0  0  0  0  0  0  0  0  0  0  0  0
  188.8450  176.7310  142.2070 C   0  0  1  0  0  3  0  0  0  0  0  0
  191.8380  177.0970  141.8250 N   0  0  0  0  0  0  0  0  0  0  0  0
  187.9900  177.9060  142.6850 C   0  0  1  0  0  3  0  0  0  0  0  0
  190.5730  177.4750  138.3540 C   0  0  0  0  0  3  0  0  0  0  0  0
  189.1970  177.4190  138.5560 C   0  0  0  0  0  3  0  0  0  0  0  0
  191.4260  177.3470  139.4470 C   0  0  0  0  0  3  0  0  0  0  0  0
  189.5030  177.1040  140.9000 C   0  0  0  0  0  0  0  0  0  0  0  0
  186.7120  177.3710  143.3070 C   0  0  0  0  0  2  0  0  0  0  0  0
  185.7780  178.5200  143.6650 C   0  0  0  0  0  2  0  0  0  0  0  0
  184.3780  178.3760  143.0600 C   0  0  1  0  0  3  0  0  0  0  0  0
  181.9920  179.0720  143.0880 C   0  0  0  0  0  2  0  0  0  0  0  0
  183.3800  179.3860  143.6140 C   0  0  0  0  0  3  0  0  0  0  0  0
  182.3740  178.6720  144.4980 C   0  0  0  0  0  2  0  0  0  0  0  0
  185.0290  179.4940  141.0200 O   0  0  0  0  0  1  0  0  0  0  0  0
  184.3970  178.3590  141.5320 C   0  0  0  0  0  2  0  0  0  0  0  0
  189.1540  176.6600  144.7260 C   0  0  0  0  0  2  0  0  0  0  0  0
  190.9070  176.8810  146.4260 C   0  0  0  0  0  2  0  0  0  0  0  0
  189.7490  177.3280  145.9380 C   0  0  0  0  0  0  0  0  0  0  0  0
  186.5200  178.5490  147.0790 O   0  0  0  0  0  1  0  0  0  0  0  0
  187.4440  177.5360  146.8080 C   0  0  2  0  0  3  0  0  0  0  0  0
  188.3510  177.2370  148.0020 C   0  0  2  0  0  3  0  0  0  0  0  0
  188.0930  178.1170  149.2170 C   0  0  0  0  0  1  0  0  0  0  0  0
  188.8520  178.1020  146.8600 C   0  0  1  0  0  3  0  0  0  0  0  0
  1  2  1  0  0  0  0
  2  3  1  0  0  0  0
  3 21  1  1  0  0  0
  4 12  1  0  0  0  0
  4  7  1  0  0  0  0
  5 12  2  0  0  0  0
  6 12  1  6  0  0  0
  6  8  1  0  0  0  0
  6  3  1  0  0  0  0
  7  1  2  0  0  0  0
  8 13  1  1  0  0  0
  8  3  1  0  0  0  0
  9 10  2  0  0  0  0
  9 11  1  0  0  0  0
 10  5  1  0  0  0  0
 11  4  2  0  0  0  0
 13 14  1  0  0  0  0
 15 20  1  6  0  0  0
 15 17  1  0  0  0  0
 15 14  1  0  0  0  0
 16 17  1  0  0  0  0
 16 18  1  0  0  0  0
 17 18  1  0  0  0  0
 19 20  1  0  0  0  0
 21 23  1  0  0  0  0
 23 22  2  0  0  0  0
 25 28  1  0  0  0  0
 25 24  1  1  0  0  0
 25 26  1  0  0  0  0
 26 27  1  1  0  0  0
 28 23  1  6  0  0  0
 28 26  1  0  0  0  0
M  END
>  <MODEL>
3

>  <REMARK>
 VINA RESULT:      -8.4      2.445      6.008
  Name = 
  8 active torsions:
  status: ('A' for Active; 'I' for Inactive)
    1  A    between atoms: C_6  and  C_20
    2  A    between atoms: C_7  and  C_15
    3  A    between atoms: C_7  and  C_27
    4  A    between atoms: C_13  and  C_20
    5  A    between atoms: C_13  and  C_28
    6  A    between atoms: C_14  and  C_16
    7  A    between atoms: C_16  and  C_25
    8  A    between atoms: C_16  and  C_27
                            x       y       z     vdW  Elec       q    Type
                         _______ _______ _______ _____ _____    ______ ____

>  <TORSDO>
F 8

$$$$
=
 OpenBabel11042412023D

 28 32  0  0  1  0  0  0  0  0999 V2000
  187.0050  177.4500  144.4750 C   0  0  0  0  0  3  0  0  0  0  0  0
  187.7900  176.6430  143.4940 C   0  0  0  0  0  2  0  0  0  0  0  0
  188.7330  177.5560  142.7240 C   0  0  2  0  0  0  0  0  0  0  0  0
  185.6600  178.4710  142.7360 C   0  0  0  0  0  0  0  0  0  0  0  0
  186.1040  178.7240  140.3950 N   0  0  0  0  0  0  0  0  0  0  0  0
  188.0760  178.6290  141.8570 C   0  0  1  0  0  3  0  0  0  0  0  0
  186.0570  178.2530  144.0980 N   0  0  0  0  0  0  0  0  0  0  0  0
  188.7250  177.4050  141.2070 C   0  0  1  0  0  3  0  0  0  0  0  0
  183.8470  178.7540  141.1550 C   0  0  0  0  0  3  0  0  0  0  0  0
  184.7770  178.8120  140.1210 C   0  0  0  0  0  3  0  0  0  0  0  0
  184.2950  178.5890  142.4640 C   0  0  0  0  0  3  0  0  0  0  0  0
  186.5810  178.5510  141.6600 C   0  0  0  0  0  0  0  0  0  0  0  0
  190.0300  177.8250  140.5520 C   0  0  0  0  0  2  0  0  0  0  0  0
  190.4970  176.7540  139.5750 C   0  0  0  0  0  2  0  0  0  0  0  0
  189.6260  176.6550  138.3180 C   0  0  1  0  0  3  0  0  0  0  0  0
  188.8260  177.7080  136.2140 C   0  0  0  0  0  2  0  0  0  0  0  0
  189.7020  177.8970  137.4370 C   0  0  0  0  0  3  0  0  0  0  0  0
  188.3380  178.5560  137.3700 C   0  0  0  0  0  2  0  0  0  0  0  0
  191.0290  174.7190  137.9740 O   0  0  0  0  0  1  0  0  0  0  0  0
  189.8760  175.3700  137.5300 C   0  0  0  0  0  2  0  0  0  0  0  0
  189.9770  178.0900  143.4520 C   0  0  0  0  0  2  0  0  0  0  0  0
  191.6010  176.2690  143.2180 C   0  0  0  0  0  2  0  0  0  0  0  0
  190.8390  177.0010  144.0320 C   0  0  0  0  0  0  0  0  0  0  0  0
  191.6110  175.7510  147.3580 O   0  0  0  0  0  1  0  0  0  0  0  0
  191.5530  176.7540  146.3860 C   0  0  2  0  0  3  0  0  0  0  0  0
  190.2210  177.5030  146.3960 C   0  0  2  0  0  3  0  0  0  0  0  0
  189.2240  176.9870  147.4250 C   0  0  0  0  0  1  0  0  0  0  0  0
  190.4790  176.4170  145.3680 C   0  0  1  0  0  3  0  0  0  0  0  0
  2  1  1  0  0  0  0
  3 21  1  1  0  0  0
  3  2  1  0  0  0  0
  4  7  1  0  0  0  0
  5 12  1  0  0  0  0
  6 12  1  1  0  0  0
  6  3  1  0  0  0  0
  7  1  2  0  0  0  0
  8 13  1  6  0  0  0
  8  6  1  0  0  0  0
  8  3  1  0  0  0  0
  9 11  2  0  0  0  0
 10  5  2  0  0  0  0
 10  9  1  0  0  0  0
 11  4  1  0  0  0  0
 12  4  2  0  0  0  0
 14 13  1  0  0  0  0
 15 20  1  6  0  0  0
 15 14  1  0  0  0  0
 16 18  1  0  0  0  0
 16 17  1  0  0  0  0
 17 15  1  0  0  0  0
 18 17  1  0  0  0  0
 20 19  1  0  0  0  0
 21 23  1  0  0  0  0
 22 23  2  0  0  0  0
 25 26  1  0  0  0  0
 25 24  1  1  0  0  0
 26 27  1  1  0  0  0
 28 23  1  6  0  0  0
 28 25  1  0  0  0  0
 28 26  1  0  0  0  0
M  END
>  <MODEL>
4

>  <REMARK>
 VINA RESULT:      -8.0      2.031      3.320
  Name = 
  8 active torsions:
  status: ('A' for Active; 'I' for Inactive)
    1  A    between atoms: C_6  and  C_20
    2  A    between atoms: C_7  and  C_15
    3  A    between atoms: C_7  and  C_27
    4  A    between atoms: C_13  and  C_20
    5  A    between atoms: C_13  and  C_28
    6  A    between atoms: C_14  and  C_16
    7  A    between atoms: C_16  and  C_25
    8  A    between atoms: C_16  and  C_27
                            x       y       z     vdW  Elec       q    Type
                         _______ _______ _______ _____ _____    ______ ____

>  <TORSDO>
F 8

$$$$
=
 OpenBabel11042412023D

 28 32  0  0  1  0  0  0  0  0999 V2000
  191.3850  176.2310  143.9260 C   0  0  0  0  0  3  0  0  0  0  0  0
  190.1390  175.9930  143.1380 C   0  0  0  0  0  2  0  0  0  0  0  0
  189.5460  177.3280  142.7120 C   0  0  2  0  0  0  0  0  0  0  0  0
  190.1550  177.0480  145.8480 C   0  0  0  0  0  0  0  0  0  0  0  0
  187.9370  177.9450  145.9870 N   0  0  0  0  0  0  0  0  0  0  0  0
  189.0850  178.2530  143.8370 C   0  0  1  0  0  3  0  0  0  0  0  0
  191.3510  176.6990  145.1370 N   0  0  0  0  0  0  0  0  0  0  0  0
  188.0560  177.5170  142.9760 C   0  0  1  0  0  3  0  0  0  0  0  0
  188.9270  176.9940  147.9340 C   0  0  0  0  0  3  0  0  0  0  0  0
  187.8490  177.6060  147.2990 C   0  0  0  0  0  3  0  0  0  0  0  0
  190.0810  176.7230  147.2040 C   0  0  0  0  0  3  0  0  0  0  0  0
  189.0440  177.6860  145.2370 C   0  0  0  0  0  0  0  0  0  0  0  0
  187.3970  178.5100  142.0330 C   0  0  0  0  0  2  0  0  0  0  0  0
  186.1600  177.8910  141.3970 C   0  0  0  0  0  2  0  0  0  0  0  0
  184.8460  178.4230  141.9790 C   0  0  1  0  0  3  0  0  0  0  0  0
  183.7320  179.5360  143.9010 C   0  0  0  0  0  2  0  0  0  0  0  0
  185.0500  179.3430  143.1760 C   0  0  0  0  0  3  0  0  0  0  0  0
  184.7680  178.5810  144.4560 C   0  0  0  0  0  2  0  0  0  0  0  0
  184.6880  179.7450  139.9630 O   0  0  0  0  0  1  0  0  0  0  0  0
  183.9430  179.0470  140.9150 C   0  0  0  0  0  2  0  0  0  0  0  0
  190.2470  178.1030  141.5850 C   0  0  0  0  0  2  0  0  0  0  0  0
  191.6840  177.0470  139.9030 C   0  0  0  0  0  2  0  0  0  0  0  0
  190.4450  177.2860  140.3360 C   0  0  0  0  0  0  0  0  0  0  0  0
  187.7170  178.6430  138.3520 O   0  0  0  0  0  1  0  0  0  0  0  0
  189.0620  178.5460  138.7190 C   0  0  2  0  0  3  0  0  0  0  0  0
  189.8080  177.4690  137.9310 C   0  0  2  0  0  3  0  0  0  0  0  0
  188.9370  176.7040  136.9440 C   0  0  0  0  0  1  0  0  0  0  0  0
  189.3240  177.1860  139.3420 C   0  0  1  0  0  3  0  0  0  0  0  0
  1  7  2  0  0  0  0
  2  1  1  0  0  0  0
  3 21  1  6  0  0  0
  3  8  1  0  0  0  0
  3  2  1  0  0  0  0
  3  6  1  0  0  0  0
  4 11  1  0  0  0  0
  5 10  2  0  0  0  0
  6 12  1  1  0  0  0
  7  4  1  0  0  0  0
  8 13  1  6  0  0  0
  8  6  1  0  0  0  0
 10  9  1  0  0  0  0
 11  9  2  0  0  0  0
 12  4  2  0  0  0  0
 12  5  1  0  0  0  0
 14 15  1  0  0  0  0
 14 13  1  0  0  0  0
 15 20  1  6  0  0  0
 15 17  1  0  0  0  0
 16 18  1  0  0  0  0
 17 16  1  0  0  0  0
 17 18  1  0  0  0  0
 19 20  1  0  0  0  0
 22 23  2  0  0  0  0
 23 21  1  0  0  0  0
 25 24  1  6  0  0  0
 25 28  1  0  0  0  0
 26 27  1  6  0  0  0
 26 25  1  0  0  0  0
 26 28  1  0  0  0  0
 28 23  1  1  0  0  0
M  END
>  <MODEL>
5

>  <REMARK>
 VINA RESULT:      -8.0      2.322      6.583
  Name = 
  8 active torsions:
  status: ('A' for Active; 'I' for Inactive)
    1  A    between atoms: C_6  and  C_20
    2  A    between atoms: C_7  and  C_15
    3  A    between atoms: C_7  and  C_27
    4  A    between atoms: C_13  and  C_20
    5  A    between atoms: C_13  and  C_28
    6  A    between atoms: C_14  and  C_16
    7  A    between atoms: C_16  and  C_25
    8  A    between atoms: C_16  and  C_27
                            x       y       z     vdW  Elec       q    Type
                         _______ _______ _______ _____ _____    ______ ____

>  <TORSDO>
F 8

$$$$
=
 OpenBabel11042412023D

 28 32  0  0  1  0  0  0  0  0999 V2000
  191.4120  176.5680  143.0910 C   0  0  0  0  0  3  0  0  0  0  0  0
  190.0480  176.0890  142.7160 C   0  0  0  0  0  2  0  0  0  0  0  0
  189.1060  177.2790  142.6040 C   0  0  2  0  0  0  0  0  0  0  0  0
  190.7350  177.0880  145.3590 C   0  0  0  0  0  0  0  0  0  0  0  0
  188.5520  177.5070  146.2560 N   0  0  0  0  0  0  0  0  0  0  0  0
  188.8650  178.0730  143.8860 C   0  0  1  0  0  3  0  0  0  0  0  0
  191.6820  177.0030  144.2840 N   0  0  0  0  0  0  0  0  0  0  0  0
  187.7740  177.1540  143.3350 C   0  0  1  0  0  3  0  0  0  0  0  0
  190.2790  176.7540  147.7140 C   0  0  0  0  0  3  0  0  0  0  0  0
  188.9580  177.1390  147.4990 C   0  0  0  0  0  3  0  0  0  0  0  0
  191.1650  176.7360  146.6400 C   0  0  0  0  0  3  0  0  0  0  0  0
  189.3870  177.4920  145.1790 C   0  0  0  0  0  0  0  0  0  0  0  0
  186.6700  178.0020  142.7270 C   0  0  0  0  0  2  0  0  0  0  0  0
  185.5720  178.2530  143.7520 C   0  0  0  0  0  2  0  0  0  0  0  0
  184.2790  178.7990  143.1390 C   0  0  1  0  0  3  0  0  0  0  0  0
  182.5430  178.6280  141.3690 C   0  0  0  0  0  2  0  0  0  0  0  0
  183.8180  178.0150  141.9160 C   0  0  0  0  0  3  0  0  0  0  0  0
  183.8670  178.9090  140.6920 C   0  0  0  0  0  2  0  0  0  0  0  0
  183.6810  179.0320  145.4670 O   0  0  0  0  0  1  0  0  0  0  0  0
  183.1660  178.9710  144.1710 C   0  0  0  0  0  2  0  0  0  0  0  0
  189.2440  178.1970  141.3790 C   0  0  0  0  0  2  0  0  0  0  0  0
  190.1200  176.7680  139.5900 C   0  0  0  0  0  2  0  0  0  0  0  0
  189.0910  177.4690  140.0700 C   0  0  0  0  0  0  0  0  0  0  0  0
  187.8890  179.3790  137.2200 O   0  0  0  0  0  1  0  0  0  0  0  0
  188.6900  178.3990  137.8150 C   0  0  2  0  0  3  0  0  0  0  0  0
  188.0020  177.0350  137.8690 C   0  0  2  0  0  3  0  0  0  0  0  0
  186.5880  177.0270  137.3030 C   0  0  0  0  0  1  0  0  0  0  0  0
  188.0380  177.9210  139.1010 C   0  0  1  0  0  3  0  0  0  0  0  0
  1  7  2  0  0  0  0
  2  1  1  0  0  0  0
  3 21  1  6  0  0  0
  3  2  1  0  0  0  0
  3  8  1  0  0  0  0
  3  6  1  0  0  0  0
  4 11  1  0  0  0  0
  5 10  2  0  0  0  0
  6 12  1  1  0  0  0
  7  4  1  0  0  0  0
  8 13  1  6  0  0  0
  8  6  1  0  0  0  0
 10  9  1  0  0  0  0
 11  9  2  0  0  0  0
 12  4  2  0  0  0  0
 12  5  1  0  0  0  0
 13 14  1  0  0  0  0
 15 14  1  1  0  0  0
 15 20  1  0  0  0  0
 16 17  1  0  0  0  0
 17 15  1  0  0  0  0
 18 16  1  0  0  0  0
 18 17  1  0  0  0  0
 20 19  1  0  0  0  0
 22 23  2  0  0  0  0
 23 21  1  0  0  0  0
 25 24  1  6  0  0  0
 25 26  1  0  0  0  0
 25 28  1  0  0  0  0
 26 27  1  6  0  0  0
 26 28  1  0  0  0  0
 28 23  1  1  0  0  0
M  END
>  <MODEL>
6

>  <REMARK>
 VINA RESULT:      -8.0      2.542      7.229
  Name = 
  8 active torsions:
  status: ('A' for Active; 'I' for Inactive)
    1  A    between atoms: C_6  and  C_20
    2  A    between atoms: C_7  and  C_15
    3  A    between atoms: C_7  and  C_27
    4  A    between atoms: C_13  and  C_20
    5  A    between atoms: C_13  and  C_28
    6  A    between atoms: C_14  and  C_16
    7  A    between atoms: C_16  and  C_25
    8  A    between atoms: C_16  and  C_27
                            x       y       z     vdW  Elec       q    Type
                         _______ _______ _______ _____ _____    ______ ____

>  <TORSDO>
F 8

$$$$
=
 OpenBabel11042412023D

 28 32  0  0  1  0  0  0  0  0999 V2000
  186.9830  178.6340  140.8380 C   0  0  0  0  0  3  0  0  0  0  0  0
  188.1800  178.9290  141.6810 C   0  0  0  0  0  2  0  0  0  0  0  0
  188.6240  177.6590  142.3930 C   0  0  2  0  0  0  0  0  0  0  0  0
  185.5310  178.4190  142.7660 C   0  0  0  0  0  0  0  0  0  0  0  0
  186.0700  177.9590  145.0550 N   0  0  0  0  0  0  0  0  0  0  0  0
  187.6280  177.0580  143.3840 C   0  0  1  0  0  3  0  0  0  0  0  0
  185.8140  178.4170  141.3590 N   0  0  0  0  0  0  0  0  0  0  0  0
  188.8770  177.7820  143.8910 C   0  0  1  0  0  3  0  0  0  0  0  0
  184.0280  179.0770  144.5480 C   0  0  0  0  0  3  0  0  0  0  0  0
  184.9220  178.5510  145.4770 C   0  0  0  0  0  3  0  0  0  0  0  0
  184.3360  179.0030  143.1920 C   0  0  0  0  0  3  0  0  0  0  0  0
  186.4100  177.8770  143.7390 C   0  0  0  0  0  0  0  0  0  0  0  0
  189.8650  176.7570  144.4220 C   0  0  0  0  0  2  0  0  0  0  0  0
  190.8500  177.4190  145.3760 C   0  0  0  0  0  2  0  0  0  0  0  0
  190.3890  177.3990  146.8380 C   0  0  1  0  0  3  0  0  0  0  0  0
  188.5260  177.1450  148.4620 C   0  0  0  0  0  2  0  0  0  0  0  0
  188.8970  177.1340  146.9910 C   0  0  0  0  0  3  0  0  0  0  0  0
  188.2240  178.3510  147.5970 C   0  0  0  0  0  2  0  0  0  0  0  0
  192.3930  176.0660  147.0400 O   0  0  0  0  0  1  0  0  0  0  0  0
  191.2360  176.4730  147.7080 C   0  0  0  0  0  2  0  0  0  0  0  0
  189.3320  176.5760  141.5640 C   0  0  0  0  0  2  0  0  0  0  0  0
  191.5890  177.5290  141.6580 C   0  0  0  0  0  2  0  0  0  0  0  0
  190.5930  177.0640  140.9020 C   0  0  0  0  0  0  0  0  0  0  0  0
  191.3120  176.6880  137.3580 O   0  0  0  0  0  1  0  0  0  0  0  0
  190.7110  176.2920  138.5560 C   0  0  2  0  0  3  0  0  0  0  0  0
  189.3320  176.9220  138.7550 C   0  0  2  0  0  3  0  0  0  0  0  0
  188.9130  177.8700  137.6390 C   0  0  0  0  0  1  0  0  0  0  0  0
  190.5430  177.4970  139.4650 C   0  0  1  0  0  3  0  0  0  0  0  0
  1  7  2  0  0  0  0
  1  2  1  0  0  0  0
  2  3  1  0  0  0  0
  3 21  1  6  0  0  0
  3  6  1  0  0  0  0
  3  8  1  0  0  0  0
  4 11  2  0  0  0  0
  4 12  1  0  0  0  0
  5 10  1  0  0  0  0
  6 12  1  1  0  0  0
  6  8  1  0  0  0  0
  7  4  1  0  0  0  0
  8 13  1  6  0  0  0
  9 10  2  0  0  0  0
 11  9  1  0  0  0  0
 12  5  2  0  0  0  0
 13 14  1  0  0  0  0
 15 14  1  6  0  0  0
 15 17  1  0  0  0  0
 15 20  1  0  0  0  0
 17 18  1  0  0  0  0
 17 16  1  0  0  0  0
 18 16  1  0  0  0  0
 19 20  1  0  0  0  0
 23 21  1  0  0  0  0
 23 22  2  0  0  0  0
 25 24  1  6  0  0  0
 25 26  1  0  0  0  0
 25 28  1  0  0  0  0
 26 27  1  6  0  0  0
 26 28  1  0  0  0  0
 28 23  1  1  0  0  0
M  END
>  <MODEL>
7

>  <REMARK>
 VINA RESULT:      -7.8      1.561      5.986
  Name = 
  8 active torsions:
  status: ('A' for Active; 'I' for Inactive)
    1  A    between atoms: C_6  and  C_20
    2  A    between atoms: C_7  and  C_15
    3  A    between atoms: C_7  and  C_27
    4  A    between atoms: C_13  and  C_20
    5  A    between atoms: C_13  and  C_28
    6  A    between atoms: C_14  and  C_16
    7  A    between atoms: C_16  and  C_25
    8  A    between atoms: C_16  and  C_27
                            x       y       z     vdW  Elec       q    Type
                         _______ _______ _______ _____ _____    ______ ____

>  <TORSDO>
F 8

$$$$
=
 OpenBabel11042412023D

 28 32  0  0  1  0  0  0  0  0999 V2000
  190.8490  177.2430  143.6010 C   0  0  0  0  0  3  0  0  0  0  0  0
  189.7740  178.2770  143.6630 C   0  0  0  0  0  2  0  0  0  0  0  0
  188.4240  177.6220  143.4090 C   0  0  2  0  0  0  0  0  0  0  0  0
  190.6650  177.0260  141.1940 C   0  0  0  0  0  0  0  0  0  0  0  0
  188.8500  177.5880  139.7330 N   0  0  0  0  0  0  0  0  0  0  0  0
  188.2290  176.9880  142.0320 C   0  0  1  0  0  3  0  0  0  0  0  0
  191.2230  176.7100  142.4770 N   0  0  0  0  0  0  0  0  0  0  0  0
  187.5290  178.3030  142.3790 C   0  0  1  0  0  3  0  0  0  0  0  0
  191.0590  177.4800  138.8470 C   0  0  0  0  0  3  0  0  0  0  0  0
  189.6980  177.7160  138.6790 C   0  0  0  0  0  3  0  0  0  0  0  0
  191.5370  177.1300  140.1080 C   0  0  0  0  0  3  0  0  0  0  0  0
  189.2810  177.2570  140.9820 C   0  0  0  0  0  0  0  0  0  0  0  0
  186.0490  178.0350  142.5950 C   0  0  0  0  0  2  0  0  0  0  0  0
  185.2360  179.2830  142.2790 C   0  0  0  0  0  2  0  0  0  0  0  0
  183.7520  178.9960  142.0270 C   0  0  1  0  0  3  0  0  0  0  0  0
  182.0570  177.8810  140.5920 C   0  0  0  0  0  2  0  0  0  0  0  0
  183.5210  177.9080  140.9860 C   0  0  0  0  0  3  0  0  0  0  0  0
  183.0720  178.5400  139.6820 C   0  0  0  0  0  2  0  0  0  0  0  0
  183.4310  179.5530  144.3560 O   0  0  0  0  0  1  0  0  0  0  0  0
  182.9770  178.7360  143.3180 C   0  0  0  0  0  2  0  0  0  0  0  0
  187.8170  176.7600  144.5270 C   0  0  0  0  0  2  0  0  0  0  0  0
  186.5410  178.2170  146.0300 C   0  0  0  0  0  2  0  0  0  0  0  0
  187.6490  177.5030  145.8260 C   0  0  0  0  0  0  0  0  0  0  0  0
  189.3860  178.3890  148.8940 O   0  0  0  0  0  1  0  0  0  0  0  0
  188.6360  177.5240  148.0920 C   0  0  2  0  0  3  0  0  0  0  0  0
  189.5140  176.6200  147.2260 C   0  0  2  0  0  3  0  0  0  0  0  0
  191.0080  176.8670  147.3840 C   0  0  0  0  0  1  0  0  0  0  0  0
  188.8670  177.8560  146.6290 C   0  0  1  0  0  3  0  0  0  0  0  0
  1  2  1  0  0  0  0
  3  2  1  0  0  0  0
  3 21  1  1  0  0  0
  4  7  1  0  0  0  0
  5 12  2  0  0  0  0
  6 12  1  6  0  0  0
  6  8  1  0  0  0  0
  6  3  1  0  0  0  0
  7  1  2  0  0  0  0
  8 13  1  1  0  0  0
  8  3  1  0  0  0  0
  9 11  1  0  0  0  0
 10  9  2  0  0  0  0
 10  5  1  0  0  0  0
 11  4  2  0  0  0  0
 12  4  1  0  0  0  0
 14 13  1  0  0  0  0
 15 14  1  1  0  0  0
 15 20  1  0  0  0  0
 16 17  1  0  0  0  0
 17 15  1  0  0  0  0
 18 16  1  0  0  0  0
 18 17  1  0  0  0  0
 20 19  1  0  0  0  0
 21 23  1  0  0  0  0
 23 22  2  0  0  0  0
 25 24  1  1  0  0  0
 26 27  1  1  0  0  0
 26 25  1  0  0  0  0
 28 23  1  6  0  0  0
 28 26  1  0  0  0  0
 28 25  1  0  0  0  0
M  END
>  <MODEL>
8

>  <REMARK>
 VINA RESULT:      -7.8      2.593      5.852
  Name = 
  8 active torsions:
  status: ('A' for Active; 'I' for Inactive)
    1  A    between atoms: C_6  and  C_20
    2  A    between atoms: C_7  and  C_15
    3  A    between atoms: C_7  and  C_27
    4  A    between atoms: C_13  and  C_20
    5  A    between atoms: C_13  and  C_28
    6  A    between atoms: C_14  and  C_16
    7  A    between atoms: C_16  and  C_25
    8  A    between atoms: C_16  and  C_27
                            x       y       z     vdW  Elec       q    Type
                         _______ _______ _______ _____ _____    ______ ____

>  <TORSDO>
F 8

$$$$
=
 OpenBabel11042412023D

 28 32  0  0  1  0  0  0  0  0999 V2000
  191.5600  176.7270  142.6600 C   0  0  0  0  0  3  0  0  0  0  0  0
  190.1990  176.1900  142.3650 C   0  0  0  0  0  2  0  0  0  0  0  0
  189.1840  177.3220  142.4180 C   0  0  2  0  0  0  0  0  0  0  0  0
  191.0540  177.0470  145.0080 C   0  0  0  0  0  0  0  0  0  0  0  0
  188.9380  177.2640  146.1110 N   0  0  0  0  0  0  0  0  0  0  0  0
  189.0100  178.0100  143.7720 C   0  0  1  0  0  3  0  0  0  0  0  0
  191.9070  177.0950  143.8560 N   0  0  0  0  0  0  0  0  0  0  0  0
  187.9300  177.0640  143.2460 C   0  0  1  0  0  3  0  0  0  0  0  0
  190.8250  176.5240  147.3620 C   0  0  0  0  0  3  0  0  0  0  0  0
  189.4710  176.8390  147.2860 C   0  0  0  0  0  3  0  0  0  0  0  0
  191.6140  176.6360  146.2200 C   0  0  0  0  0  3  0  0  0  0  0  0
  189.6750  177.3760  144.9710 C   0  0  0  0  0  0  0  0  0  0  0  0
  186.7300  177.8800  142.7950 C   0  0  0  0  0  2  0  0  0  0  0  0
  185.5660  177.6820  143.7570 C   0  0  0  0  0  2  0  0  0  0  0  0
  185.3410  178.8740  144.6940 C   0  0  1  0  0  3  0  0  0  0  0  0
  183.3450  179.0010  143.2190 C   0  0  0  0  0  2  0  0  0  0  0  0
  184.1000  179.6850  144.3430 C   0  0  0  0  0  3  0  0  0  0  0  0
  182.8570  178.8690  144.6470 C   0  0  0  0  0  2  0  0  0  0  0  0
  185.6810  179.5700  146.9820 O   0  0  0  0  0  1  0  0  0  0  0  0
  185.3760  178.4760  146.1690 C   0  0  0  0  0  2  0  0  0  0  0  0
  189.1630  178.3290  141.2570 C   0  0  0  0  0  2  0  0  0  0  0  0
  190.3580  177.3190  139.3700 C   0  0  0  0  0  2  0  0  0  0  0  0
  189.1870  177.6740  139.9020 C   0  0  0  0  0  0  0  0  0  0  0  0
  187.5020  179.2450  137.0900 O   0  0  0  0  0  1  0  0  0  0  0  0
  188.5140  178.4680  137.6600 C   0  0  2  0  0  3  0  0  0  0  0  0
  188.1380  176.9890  137.7450 C   0  0  2  0  0  3  0  0  0  0  0  0
  186.7400  176.6700  137.2330 C   0  0  0  0  0  1  0  0  0  0  0  0
  188.0270  177.8770  138.9710 C   0  0  1  0  0  3  0  0  0  0  0  0
  1  7  2  0  0  0  0
  2  3  1  0  0  0  0
  2  1  1  0  0  0  0
  3 21  1  6  0  0  0
  3  8  1  0  0  0  0
  3  6  1  0  0  0  0
  4 11  1  0  0  0  0
  5 10  2  0  0  0  0
  6 12  1  1  0  0  0
  7  4  1  0  0  0  0
  8 13  1  6  0  0  0
  8  6  1  0  0  0  0
 10  9  1  0  0  0  0
 11  9  2  0  0  0  0
 12  4  2  0  0  0  0
 12  5  1  0  0  0  0
 13 14  1  0  0  0  0
 15 14  1  6  0  0  0
 15 20  1  0  0  0  0
 16 17  1  0  0  0  0
 16 18  1  0  0  0  0
 17 18  1  0  0  0  0
 17 15  1  0  0  0  0
 20 19  1  0  0  0  0
 22 23  2  0  0  0  0
 23 21  1  0  0  0  0
 25 24  1  6  0  0  0
 25 26  1  0  0  0  0
 25 28  1  0  0  0  0
 26 27  1  6  0  0  0
 26 28  1  0  0  0  0
 28 23  1  1  0  0  0
M  END
>  <MODEL>
9

>  <REMARK>
 VINA RESULT:      -7.7      2.552      7.465
  Name = 
  8 active torsions:
  status: ('A' for Active; 'I' for Inactive)
    1  A    between atoms: C_6  and  C_20
    2  A    between atoms: C_7  and  C_15
    3  A    between atoms: C_7  and  C_27
    4  A    between atoms: C_13  and  C_20
    5  A    between atoms: C_13  and  C_28
    6  A    between atoms: C_14  and  C_16
    7  A    between atoms: C_16  and  C_25
    8  A    between atoms: C_16  and  C_27
                            x       y       z     vdW  Elec       q    Type
                         _______ _______ _______ _____ _____    ______ ____

>  <TORSDO>
F 8

$$$$
