=
 OpenBabel11042410573D

 56 63  0  0  1  0  0  0  0  0999 V2000
  184.6750  178.9440  139.1420 C   0  0  2  0  0  3  0  0  0  0  0  0
  181.4580  178.8370  142.3350 O   0  0  0  0  0  0  0  0  0  0  0  0
  185.7860  178.6670  141.3800 C   0  0  0  0  0  2  0  0  0  0  0  0
  182.6980  178.6160  142.3620 C   0  0  0  0  0  0  0  0  0  0  0  0
  182.9200  179.5570  144.5130 O   0  0  0  0  0  0  0  0  0  0  0  0
  184.4790  178.9710  140.6600 C   0  0  2  0  0  3  0  0  0  0  0  0
  183.4680  178.9010  143.5860 C   0  0  0  0  0  0  0  0  0  0  0  0
  183.3540  178.0570  141.1400 C   0  0  0  0  0  2  0  0  0  0  0  0
  185.7960  179.2500  142.7870 C   0  0  0  0  0  2  0  0  0  0  0  0
  184.9000  178.4460  143.7170 C   0  0  1  0  0  3  0  0  0  0  0  0
  185.4240  178.5820  145.1400 C   0  0  0  0  0  2  0  0  0  0  0  0
  186.3590  177.5070  145.4380 N   0  0  0  0  0  2  0  0  0  0  0  0
  187.5150  178.1170  146.0830 C   0  0  1  0  0  3  0  0  0  0  0  0
  187.3850  177.9720  147.5910 C   0  0  0  0  0  1  0  0  0  0  0  0
  188.8490  177.5580  145.5350 C   0  0  0  0  0  0  0  0  0  0  0  0
  188.5350  176.5500  144.4430 C   0  0  0  0  0  1  0  0  0  0  0  0
  189.6190  176.8010  146.6190 C   0  0  0  0  0  1  0  0  0  0  0  0
  189.6090  178.6490  144.8930 N   0  0  0  0  0  2  0  0  0  0  0  0
  191.5970  176.8960  144.6910 O   0  0  0  0  0  0  0  0  0  0  0  0
  192.1790  179.2600  144.3950 O   0  0  0  0  0  0  0  0  0  0  0  0
  191.1270  178.2140  144.1440 S   0  0  0  0  0  0  0  0  0  0  0  0
  191.0310  176.7050  142.0050 O   0  0  0  0  0  0  0  0  0  0  0  0
  190.0920  176.4620  140.9830 C   0  0  0  0  0  2  0  0  0  0  0  0
  189.1970  177.6690  140.8100 C   0  0  0  0  0  2  0  0  0  0  0  0
  190.8720  178.0490  142.3890 C   0  0  1  0  0  3  0  0  0  0  0  0
  189.4810  178.4890  142.0220 C   0  0  0  0  0  2  0  0  0  0  0  0
  183.0960  178.7040  138.2530 S   0  0  0  0  0  0  0  0  0  0  0  0
  183.5000  177.0180  137.6540 C   0  0  2  0  0  3  0  0  0  0  0  0
  182.1490  170.9880  136.2920 C   0  0  0  0  0  2  0  0  0  0  0  0
  182.9580  176.7700  136.2710 C   0  0  0  0  0  0  0  0  0  0  0  0
  182.9740  177.6900  135.4070 O   0  0  0  0  0  0  0  0  0  0  0  0
  182.3660  172.3980  135.8090 C   0  0  2  0  0  3  0  0  0  0  0  0
  183.6420  170.8570  136.4700 C   0  0  0  0  0  2  0  0  0  0  0  0
  184.4440  172.6430  137.4370 C   0  0  0  0  0  2  0  0  0  0  0  0
  182.6770  174.8320  138.2770 C   0  0  0  0  0  3  0  0  0  0  0  0
  184.1260  173.7440  136.5510 C   0  0  1  0  0  3  0  0  0  0  0  0
  183.8780  172.3030  136.0350 C   0  0  2  0  0  0  0  0  0  0  0  0
  181.9450  175.2240  134.5940 C   0  0  0  0  0  1  0  0  0  0  0  0
  182.4840  175.4590  135.9290 N   0  0  0  0  0  0  0  0  0  0  0  0
  181.7840  173.3280  136.6840 O   0  0  0  0  0  0  0  0  0  0  0  0
  182.7460  174.3370  136.8490 C   0  0  2  0  0  0  0  0  0  0  0  0
  183.0200  176.0320  138.6040 N   0  0  0  0  0  0  0  0  0  0  0  0
  185.7640  177.9880  138.6600 C   0  0  0  0  0  2  0  0  0  0  0  0
  186.8410  178.6840  138.1060 O   0  0  0  0  0  0  0  0  0  0  0  0
  187.0360  178.0910  136.8560 C   0  0  0  0  0  2  0  0  0  0  0  0
  191.3360  176.6000  137.1490 C   0  0  0  0  0  2  0  0  0  0  0  0
  190.0140  177.3360  137.4280 C   0  0  0  0  0  2  0  0  0  0  0  0
  187.7850  174.4880  137.0100 N   0  0  0  0  0  0  0  0  0  0  0  0
  188.8840  176.4320  137.2370 N   0  0  0  0  0  0  0  0  0  0  0  0
  190.1990  174.4270  137.4570 N   0  0  0  0  0  2  0  0  0  0  0  0
  187.5950  176.7080  136.9990 C   0  0  0  0  0  0  0  0  0  0  0  0
  188.9580  175.1000  137.2640 C   0  0  0  0  0  0  0  0  0  0  0  0
  186.9100  175.5090  136.8430 C   0  0  0  0  0  3  0  0  0  0  0  0
  191.3670  175.2230  137.8360 C   0  0  1  0  0  3  0  0  0  0  0  0
  193.7110  175.3590  137.3900 O   0  0  0  0  0  1  0  0  0  0  0  0
  192.6320  174.4730  137.4640 C   0  0  0  0  0  2  0  0  0  0  0  0
  1 43  1  1  0  0  0
  2  4  2  0  0  0  0
  3  9  1  0  0  0  0
  4  7  1  0  0  0  0
  6  1  1  6  0  0  0
  6  8  1  0  0  0  0
  6  3  1  0  0  0  0
  7 10  1  0  0  0  0
  7  5  2  0  0  0  0
  8  4  1  0  0  0  0
  9 10  1  0  0  0  0
 10 11  1  1  0  0  0
 11 12  1  0  0  0  0
 12 13  1  0  0  0  0
 13 14  1  1  0  0  0
 15 13  1  0  0  0  0
 15 17  1  0  0  0  0
 16 15  1  0  0  0  0
 18 15  1  0  0  0  0
 21 20  2  0  0  0  0
 21 19  2  0  0  0  0
 21 18  1  0  0  0  0
 22 25  1  0  0  0  0
 23 22  1  0  0  0  0
 24 23  1  0  0  0  0
 24 26  1  0  0  0  0
 25 21  1  1  0  0  0
 26 25  1  0  0  0  0
 27  1  1  0  0  0  0
 28 27  1  1  0  0  0
 28 42  1  0  0  0  0
 29 33  1  0  0  0  0
 30 28  1  0  0  0  0
 31 30  2  0  0  0  0
 32 37  1  0  0  0  0
 32 29  1  1  0  0  0
 32 40  1  0  0  0  0
 35 42  2  0  0  0  0
 36 41  1  0  0  0  0
 36 34  1  1  0  0  0
 37 33  1  6  0  0  0
 37 36  1  0  0  0  0
 37 34  1  0  0  0  0
 38 39  1  0  0  0  0
 39 30  1  0  0  0  0
 39 41  1  0  0  0  0
 40 41  1  0  0  0  0
 41 35  1  1  0  0  0
 44 43  1  0  0  0  0
 45 51  1  0  0  0  0
 45 44  1  0  0  0  0
 46 47  1  0  0  0  0
 46 54  1  0  0  0  0
 48 52  2  0  0  0  0
 49 52  1  0  0  0  0
 49 47  1  0  0  0  0
 50 54  1  0  0  0  0
 51 49  1  0  0  0  0
 52 50  1  0  0  0  0
 53 51  2  0  0  0  0
 53 48  1  0  0  0  0
 54 56  1  6  0  0  0
 55 56  1  0  0  0  0
M  END
>  <MODEL>
1

>  <REMARK>
 VINA RESULT:      -8.2      0.000      0.000
  Name = 
  15 active torsions:
  status: ('A' for Active; 'I' for Inactive)
    1  A    between atoms: C_2  and  C_11
    2  A    between atoms: C_2  and  N_25
    3  A    between atoms: N_3  and  C_11
    4  A    between atoms: N_3  and  S_47
    5  A    between atoms: C_5  and  S_19
    6  A    between atoms: S_19  and  C_35
    7  A    between atoms: C_21  and  C_35
    8  A    between atoms: C_24  and  C_35
    9  A    between atoms: C_24  and  O_52
   10  A    between atoms: N_25  and  C_27
   11  A    between atoms: C_27  and  C_49
   12  A    between atoms: C_28  and  S_47
   13  A    between atoms: C_32  and  CA_53
   14  A    between atoms: C_40  and  C_51
   15  A    between atoms: C_51  and  O_52
                            x       y       z     vdW  Elec       q    Type
                         _______ _______ _______ _____ _____    ______ ____

>  <TORSDO>
F 15

$$$$
=
 OpenBabel11042410573D

 56 63  0  0  1  0  0  0  0  0999 V2000
  187.2890  177.5810  138.3410 C   0  0  2  0  0  3  0  0  0  0  0  0
  191.6400  176.7610  139.3190 O   0  0  0  0  0  0  0  0  0  0  0  0
  187.7010  178.2310  140.7340 C   0  0  0  0  0  2  0  0  0  0  0  0
  190.7190  177.3530  139.9430 C   0  0  0  0  0  0  0  0  0  0  0  0
  191.4940  176.5690  142.0290 O   0  0  0  0  0  0  0  0  0  0  0  0
  188.2740  177.5260  139.5110 C   0  0  2  0  0  3  0  0  0  0  0  0
  190.7080  177.3420  141.4180 C   0  0  0  0  0  0  0  0  0  0  0  0
  189.6600  178.0610  139.1600 C   0  0  0  0  0  2  0  0  0  0  0  0
  188.3240  177.7080  142.0220 C   0  0  0  0  0  2  0  0  0  0  0  0
  189.7480  178.2170  142.1850 C   0  0  1  0  0  3  0  0  0  0  0  0
  190.0800  178.2770  143.6700 C   0  0  0  0  0  2  0  0  0  0  0  0
  188.8660  178.1440  144.4630 N   0  0  0  0  0  2  0  0  0  0  0  0
  189.1960  177.3030  145.6070 C   0  0  1  0  0  3  0  0  0  0  0  0
  190.7080  177.2440  145.7680 C   0  0  0  0  0  1  0  0  0  0  0  0
  188.4690  177.7580  146.8930 C   0  0  0  0  0  0  0  0  0  0  0  0
  189.4710  178.4680  147.7860 C   0  0  0  0  0  1  0  0  0  0  0  0
  187.9490  176.5590  147.6890 C   0  0  0  0  0  1  0  0  0  0  0  0
  187.4370  178.7540  146.5440 N   0  0  0  0  0  2  0  0  0  0  0  0
  184.9940  178.2680  147.4720 O   0  0  0  0  0  0  0  0  0  0  0  0
  185.8660  176.7040  145.7980 O   0  0  0  0  0  0  0  0  0  0  0  0
  185.8290  178.1440  146.2300 S   0  0  0  0  0  0  0  0  0  0  0  0
  185.5470  178.6900  143.6840 O   0  0  0  0  0  0  0  0  0  0  0  0
  184.4640  178.8120  142.7920 C   0  0  0  0  0  2  0  0  0  0  0  0
  183.2150  179.2060  143.5500 C   0  0  0  0  0  2  0  0  0  0  0  0
  185.0880  179.1240  144.9400 C   0  0  1  0  0  3  0  0  0  0  0  0
  183.5900  178.9820  144.9750 C   0  0  0  0  0  2  0  0  0  0  0  0
  188.1420  177.5090  136.7260 S   0  0  0  0  0  0  0  0  0  0  0  0
  187.2510  176.0200  136.1350 C   0  0  2  0  0  3  0  0  0  0  0  0
  183.2080  171.1900  136.7520 C   0  0  0  0  0  2  0  0  0  0  0  0
  185.8170  176.3240  135.7910 C   0  0  0  0  0  0  0  0  0  0  0  0
  185.5150  177.4150  135.2330 O   0  0  0  0  0  0  0  0  0  0  0  0
  183.4880  172.5730  136.2260 C   0  0  2  0  0  3  0  0  0  0  0  0
  184.0690  170.6320  135.6460 C   0  0  0  0  0  2  0  0  0  0  0  0
  185.9070  171.7990  135.4610 C   0  0  0  0  0  2  0  0  0  0  0  0
  186.4670  174.0370  137.2760 C   0  0  0  0  0  3  0  0  0  0  0  0
  185.4840  173.1490  135.1530 C   0  0  1  0  0  3  0  0  0  0  0  0
  184.4100  172.0310  135.1290 C   0  0  2  0  0  0  0  0  0  0  0  0
  183.4180  175.6360  135.7250 C   0  0  0  0  0  1  0  0  0  0  0  0
  184.8100  175.3330  136.0450 N   0  0  0  0  0  0  0  0  0  0  0  0
  184.2110  173.3330  137.1590 O   0  0  0  0  0  0  0  0  0  0  0  0
  185.2220  173.9690  136.4200 C   0  0  2  0  0  0  0  0  0  0  0  0
  187.3530  174.9630  137.1250 N   0  0  0  0  0  0  0  0  0  0  0  0
  186.2810  178.7260  138.4140 C   0  0  0  0  0  2  0  0  0  0  0  0
  184.9870  178.2480  138.6410 O   0  0  0  0  0  0  0  0  0  0  0  0
  184.2700  179.3690  139.0660 C   0  0  0  0  0  2  0  0  0  0  0  0
  181.7250  175.6070  139.4820 C   0  0  0  0  0  2  0  0  0  0  0  0
  182.6870  176.7710  139.7790 C   0  0  0  0  0  2  0  0  0  0  0  0
  180.6520  179.4440  138.3760 N   0  0  0  0  0  0  0  0  0  0  0  0
  182.1600  178.0140  139.2280 N   0  0  0  0  0  0  0  0  0  0  0  0
  179.8920  177.2170  139.0810 N   0  0  0  0  0  2  0  0  0  0  0  0
  182.7950  179.1520  138.9140 C   0  0  0  0  0  0  0  0  0  0  0  0
  180.8790  178.2320  138.9190 C   0  0  0  0  0  0  0  0  0  0  0  0
  181.8700  180.0370  138.3740 C   0  0  0  0  0  3  0  0  0  0  0  0
  180.2670  175.9930  139.7900 C   0  0  1  0  0  3  0  0  0  0  0  0
  179.2940  173.8960  140.3940 O   0  0  0  0  0  1  0  0  0  0  0  0
  179.3260  174.8710  139.3930 C   0  0  0  0  0  2  0  0  0  0  0  0
  1 43  1  6  0  0  0
  2  4  2  0  0  0  0
  3  9  1  0  0  0  0
  4  7  1  0  0  0  0
  6  1  1  6  0  0  0
  6  3  1  0  0  0  0
  7  5  2  0  0  0  0
  7 10  1  0  0  0  0
  8  6  1  0  0  0  0
  8  4  1  0  0  0  0
  9 10  1  0  0  0  0
 10 11  1  1  0  0  0
 11 12  1  0  0  0  0
 12 13  1  0  0  0  0
 13 14  1  1  0  0  0
 13 15  1  0  0  0  0
 15 17  1  0  0  0  0
 15 16  1  0  0  0  0
 18 15  1  0  0  0  0
 20 21  2  0  0  0  0
 21 18  1  0  0  0  0
 21 19  2  0  0  0  0
 22 25  1  0  0  0  0
 23 24  1  0  0  0  0
 23 22  1  0  0  0  0
 24 26  1  0  0  0  0
 25 26  1  0  0  0  0
 25 21  1  1  0  0  0
 27  1  1  0  0  0  0
 28 27  1  1  0  0  0
 28 42  1  0  0  0  0
 30 39  1  0  0  0  0
 30 28  1  0  0  0  0
 31 30  2  0  0  0  0
 32 29  1  1  0  0  0
 32 40  1  0  0  0  0
 33 29  1  0  0  0  0
 36 34  1  1  0  0  0
 36 41  1  0  0  0  0
 37 36  1  0  0  0  0
 37 34  1  1  0  0  0
 37 33  1  0  0  0  0
 37 32  1  0  0  0  0
 38 39  1  0  0  0  0
 39 41  1  0  0  0  0
 41 40  1  0  0  0  0
 41 35  1  1  0  0  0
 42 35  2  0  0  0  0
 43 44  1  0  0  0  0
 44 45  1  0  0  0  0
 46 47  1  0  0  0  0
 46 54  1  0  0  0  0
 48 52  2  0  0  0  0
 49 47  1  0  0  0  0
 50 54  1  0  0  0  0
 51 45  1  0  0  0  0
 51 49  1  0  0  0  0
 52 50  1  0  0  0  0
 52 49  1  0  0  0  0
 53 48  1  0  0  0  0
 53 51  2  0  0  0  0
 54 56  1  6  0  0  0
 56 55  1  0  0  0  0
M  END
>  <MODEL>
2

>  <REMARK>
 VINA RESULT:      -7.5      2.313      6.146
  Name = 
  15 active torsions:
  status: ('A' for Active; 'I' for Inactive)
    1  A    between atoms: C_2  and  C_11
    2  A    between atoms: C_2  and  N_25
    3  A    between atoms: N_3  and  C_11
    4  A    between atoms: N_3  and  S_47
    5  A    between atoms: C_5  and  S_19
    6  A    between atoms: S_19  and  C_35
    7  A    between atoms: C_21  and  C_35
    8  A    between atoms: C_24  and  C_35
    9  A    between atoms: C_24  and  O_52
   10  A    between atoms: N_25  and  C_27
   11  A    between atoms: C_27  and  C_49
   12  A    between atoms: C_28  and  S_47
   13  A    between atoms: C_32  and  CA_53
   14  A    between atoms: C_40  and  C_51
   15  A    between atoms: C_51  and  O_52
                            x       y       z     vdW  Elec       q    Type
                         _______ _______ _______ _____ _____    ______ ____

>  <TORSDO>
F 15

$$$$
=
 OpenBabel11042410573D

 56 63  0  0  1  0  0  0  0  0999 V2000
  189.5960  176.4440  137.3220 C   0  0  2  0  0  3  0  0  0  0  0  0
  185.9210  174.5380  135.4720 O   0  0  0  0  0  0  0  0  0  0  0  0
  187.5590  177.6270  138.2020 C   0  0  0  0  0  2  0  0  0  0  0  0
  186.0740  175.3860  136.3920 C   0  0  0  0  0  0  0  0  0  0  0  0
  184.1310  176.5650  135.7650 O   0  0  0  0  0  0  0  0  0  0  0  0
  188.0830  176.6280  137.1790 C   0  0  2  0  0  3  0  0  0  0  0  0
  185.0440  176.4150  136.6210 C   0  0  0  0  0  0  0  0  0  0  0  0
  187.3060  175.3140  137.2370 C   0  0  0  0  0  2  0  0  0  0  0  0
  186.2610  178.2740  137.7370 C   0  0  0  0  0  2  0  0  0  0  0  0
  185.0980  177.2980  137.8420 C   0  0  1  0  0  3  0  0  0  0  0  0
  183.8130  178.0900  138.0420 C   0  0  0  0  0  2  0  0  0  0  0  0
  183.1640  177.6920  139.2830 N   0  0  0  0  0  2  0  0  0  0  0  0
  181.7300  177.6630  139.0230 C   0  0  1  0  0  3  0  0  0  0  0  0
  181.2790  176.2200  138.8570 C   0  0  0  0  0  1  0  0  0  0  0  0
  180.9280  178.4270  140.1010 C   0  0  0  0  0  0  0  0  0  0  0  0
  179.4540  178.1100  139.9160 C   0  0  0  0  0  1  0  0  0  0  0  0
  181.0720  179.9410  139.9300 C   0  0  0  0  0  1  0  0  0  0  0  0
  181.3010  177.9240  141.4370 N   0  0  0  0  0  2  0  0  0  0  0  0
  180.2670  178.3380  143.8500 O   0  0  0  0  0  0  0  0  0  0  0  0
  180.3670  180.2740  142.3500 O   0  0  0  0  0  0  0  0  0  0  0  0
  181.0730  179.0180  142.7810 S   0  0  0  0  0  0  0  0  0  0  0  0
  182.7200  179.1160  144.8160 O   0  0  0  0  0  0  0  0  0  0  0  0
  184.0290  178.6670  145.0770 C   0  0  0  0  0  2  0  0  0  0  0  0
  184.8060  178.5690  143.7830 C   0  0  0  0  0  2  0  0  0  0  0  0
  182.6690  179.4430  143.4490 C   0  0  1  0  0  3  0  0  0  0  0  0
  183.7510  178.6800  142.7360 C   0  0  0  0  0  2  0  0  0  0  0  0
  190.0810  174.6840  137.2450 S   0  0  0  0  0  0  0  0  0  0  0  0
  191.6810  174.9910  136.4030 C   0  0  2  0  0  3  0  0  0  0  0  0
  197.9740  174.6350  135.8400 C   0  0  0  0  0  2  0  0  0  0  0  0
  192.2040  173.7510  135.7260 C   0  0  0  0  0  0  0  0  0  0  0  0
  191.4090  172.9600  135.1470 O   0  0  0  0  0  0  0  0  0  0  0  0
  196.6170  174.1160  135.4460 C   0  0  2  0  0  3  0  0  0  0  0  0
  197.7300  175.8390  134.9630 C   0  0  0  0  0  2  0  0  0  0  0  0
  195.7070  176.6020  135.2760 C   0  0  0  0  0  2  0  0  0  0  0  0
  193.9150  175.3690  137.2480 C   0  0  0  0  0  3  0  0  0  0  0  0
  194.8190  175.5140  134.9200 C   0  0  1  0  0  3  0  0  0  0  0  0
  196.3270  175.3550  134.5940 C   0  0  2  0  0  0  0  0  0  0  0  0
  194.1240  172.3090  135.0460 C   0  0  0  0  0  1  0  0  0  0  0  0
  193.6200  173.5170  135.6900 N   0  0  0  0  0  0  0  0  0  0  0  0
  195.7560  174.0560  136.5530 O   0  0  0  0  0  0  0  0  0  0  0  0
  194.5370  174.5920  136.1090 C   0  0  2  0  0  0  0  0  0  0  0  0
  192.6380  175.5290  137.3520 N   0  0  0  0  0  0  0  0  0  0  0  0
  190.2110  177.1640  138.5200 C   0  0  0  0  0  2  0  0  0  0  0  0
  190.3350  176.3080  139.6170 O   0  0  0  0  0  0  0  0  0  0  0  0
  190.8820  177.1060  140.6240 C   0  0  0  0  0  2  0  0  0  0  0  0
  191.6840  176.6560  145.0910 C   0  0  0  0  0  2  0  0  0  0  0  0
  191.7200  177.1500  143.6350 C   0  0  0  0  0  2  0  0  0  0  0  0
  188.1250  177.2210  143.0650 N   0  0  0  0  0  0  0  0  0  0  0  0
  190.3690  177.1920  143.0830 N   0  0  0  0  0  0  0  0  0  0  0  0
  189.2820  177.2260  145.2310 N   0  0  0  0  0  2  0  0  0  0  0  0
  189.9630  177.1830  141.8060 C   0  0  0  0  0  0  0  0  0  0  0  0
  189.2490  177.2410  143.8070 C   0  0  0  0  0  0  0  0  0  0  0  0
  188.5740  177.1870  141.7870 C   0  0  0  0  0  3  0  0  0  0  0  0
  190.5780  177.3640  145.8950 C   0  0  1  0  0  3  0  0  0  0  0  0
  191.7750  176.6150  147.8230 O   0  0  0  0  0  1  0  0  0  0  0  0
  190.4920  176.7910  147.2970 C   0  0  0  0  0  2  0  0  0  0  0  0
  1 43  1  1  0  0  0
  2  4  2  0  0  0  0
  4  7  1  0  0  0  0
  4  8  1  0  0  0  0
  5  7  2  0  0  0  0
  6  8  1  0  0  0  0
  6  1  1  1  0  0  0
  6  3  1  0  0  0  0
  7 10  1  0  0  0  0
  9 10  1  0  0  0  0
  9  3  1  0  0  0  0
 10 11  1  6  0  0  0
 11 12  1  0  0  0  0
 13 14  1  1  0  0  0
 13 12  1  0  0  0  0
 13 15  1  0  0  0  0
 15 18  1  0  0  0  0
 16 15  1  0  0  0  0
 17 15  1  0  0  0  0
 18 21  1  0  0  0  0
 20 21  2  0  0  0  0
 21 19  2  0  0  0  0
 22 23  1  0  0  0  0
 24 23  1  0  0  0  0
 25 21  1  6  0  0  0
 25 22  1  0  0  0  0
 26 25  1  0  0  0  0
 26 24  1  0  0  0  0
 27  1  1  0  0  0  0
 28 27  1  1  0  0  0
 28 42  1  0  0  0  0
 30 28  1  0  0  0  0
 31 30  2  0  0  0  0
 32 29  1  1  0  0  0
 32 40  1  0  0  0  0
 33 29  1  0  0  0  0
 35 42  2  0  0  0  0
 36 34  1  1  0  0  0
 36 41  1  0  0  0  0
 37 36  1  0  0  0  0
 37 33  1  6  0  0  0
 37 34  1  0  0  0  0
 37 32  1  0  0  0  0
 38 39  1  0  0  0  0
 39 30  1  0  0  0  0
 39 41  1  0  0  0  0
 41 40  1  0  0  0  0
 41 35  1  1  0  0  0
 43 44  1  0  0  0  0
 44 45  1  0  0  0  0
 45 51  1  0  0  0  0
 46 54  1  0  0  0  0
 47 46  1  0  0  0  0
 48 52  2  0  0  0  0
 49 47  1  0  0  0  0
 49 52  1  0  0  0  0
 50 54  1  0  0  0  0
 51 49  1  0  0  0  0
 52 50  1  0  0  0  0
 53 51  2  0  0  0  0
 53 48  1  0  0  0  0
 54 56  1  1  0  0  0
 56 55  1  0  0  0  0
M  END
>  <MODEL>
3

>  <REMARK>
 VINA RESULT:      -7.2      2.887      9.307
  Name = 
  15 active torsions:
  status: ('A' for Active; 'I' for Inactive)
    1  A    between atoms: C_2  and  C_11
    2  A    between atoms: C_2  and  N_25
    3  A    between atoms: N_3  and  C_11
    4  A    between atoms: N_3  and  S_47
    5  A    between atoms: C_5  and  S_19
    6  A    between atoms: S_19  and  C_35
    7  A    between atoms: C_21  and  C_35
    8  A    between atoms: C_24  and  C_35
    9  A    between atoms: C_24  and  O_52
   10  A    between atoms: N_25  and  C_27
   11  A    between atoms: C_27  and  C_49
   12  A    between atoms: C_28  and  S_47
   13  A    between atoms: C_32  and  CA_53
   14  A    between atoms: C_40  and  C_51
   15  A    between atoms: C_51  and  O_52
                            x       y       z     vdW  Elec       q    Type
                         _______ _______ _______ _____ _____    ______ ____

>  <TORSDO>
F 15

$$$$
=
 OpenBabel11042410573D

 56 63  0  0  1  0  0  0  0  0999 V2000
  188.0910  176.9750  138.2630 C   0  0  2  0  0  3  0  0  0  0  0  0
  192.3430  177.1910  139.8250 O   0  0  0  0  0  0  0  0  0  0  0  0
  188.0110  177.5530  140.7090 C   0  0  0  0  0  2  0  0  0  0  0  0
  191.2290  177.4970  140.3290 C   0  0  0  0  0  0  0  0  0  0  0  0
  191.8990  176.7960  142.4790 O   0  0  0  0  0  0  0  0  0  0  0  0
  188.8970  177.0900  139.5600 C   0  0  2  0  0  3  0  0  0  0  0  0
  191.0290  177.3890  141.7860 C   0  0  0  0  0  0  0  0  0  0  0  0
  190.1370  177.9710  139.4250 C   0  0  0  0  0  2  0  0  0  0  0  0
  188.5720  177.1170  142.0560 C   0  0  0  0  0  2  0  0  0  0  0  0
  189.7880  177.9500  142.4340 C   0  0  1  0  0  3  0  0  0  0  0  0
  189.8980  177.9950  143.9520 C   0  0  0  0  0  2  0  0  0  0  0  0
  189.0900  176.9410  144.5470 N   0  0  0  0  0  2  0  0  0  0  0  0
  189.5390  176.7880  145.9260 C   0  0  1  0  0  3  0  0  0  0  0  0
  191.0190  177.1280  146.0130 C   0  0  0  0  0  1  0  0  0  0  0  0
  188.6730  177.6010  146.9140 C   0  0  0  0  0  0  0  0  0  0  0  0
  189.5940  178.4410  147.7820 C   0  0  0  0  0  1  0  0  0  0  0  0
  187.9010  176.6810  147.8620 C   0  0  0  0  0  1  0  0  0  0  0  0
  187.8290  178.5480  146.1590 N   0  0  0  0  0  2  0  0  0  0  0  0
  185.5690  178.9600  147.4970 O   0  0  0  0  0  0  0  0  0  0  0  0
  185.7520  176.8450  146.2700 O   0  0  0  0  0  0  0  0  0  0  0  0
  186.1000  178.3080  146.2520 S   0  0  0  0  0  0  0  0  0  0  0  0
  185.7680  178.4360  143.6570 O   0  0  0  0  0  0  0  0  0  0  0  0
  184.6660  178.4250  142.7790 C   0  0  0  0  0  2  0  0  0  0  0  0
  183.4380  178.9520  143.4880 C   0  0  0  0  0  2  0  0  0  0  0  0
  185.3390  179.0740  144.8350 C   0  0  1  0  0  3  0  0  0  0  0  0
  183.8420  178.9580  144.9230 C   0  0  0  0  0  2  0  0  0  0  0  0
  188.8570  175.8080  137.0840 S   0  0  0  0  0  0  0  0  0  0  0  0
  187.4910  174.5870  137.1500 C   0  0  2  0  0  3  0  0  0  0  0  0
  182.9520  170.9830  134.6080 C   0  0  0  0  0  2  0  0  0  0  0  0
  187.9300  173.2270  136.6740 C   0  0  0  0  0  0  0  0  0  0  0  0
  189.0810  172.7960  136.9600 O   0  0  0  0  0  0  0  0  0  0  0  0
  184.3460  171.0900  135.1680 C   0  0  2  0  0  3  0  0  0  0  0  0
  182.4180  171.0700  136.0160 C   0  0  0  0  0  2  0  0  0  0  0  0
  183.4500  172.6490  137.1170 C   0  0  0  0  0  2  0  0  0  0  0  0
  185.4910  174.3130  135.8180 C   0  0  0  0  0  3  0  0  0  0  0  0
  184.8500  172.2740  137.1190 C   0  0  1  0  0  3  0  0  0  0  0  0
  183.8220  171.2360  136.5990 C   0  0  2  0  0  0  0  0  0  0  0  0
  187.4350  171.0930  135.4780 C   0  0  0  0  0  1  0  0  0  0  0  0
  187.0030  172.4050  135.9510 N   0  0  0  0  0  0  0  0  0  0  0  0
  184.9740  172.2710  134.7400 O   0  0  0  0  0  0  0  0  0  0  0  0
  185.5860  172.8040  135.8860 C   0  0  2  0  0  0  0  0  0  0  0  0
  186.3550  175.0800  136.3910 N   0  0  0  0  0  0  0  0  0  0  0  0
  187.7430  178.3120  137.6130 C   0  0  0  0  0  2  0  0  0  0  0  0
  186.5220  178.2450  136.9370 O   0  0  0  0  0  0  0  0  0  0  0  0
  185.5700  178.0960  137.9470 C   0  0  0  0  0  2  0  0  0  0  0  0
  181.8650  176.3430  139.9460 C   0  0  0  0  0  2  0  0  0  0  0  0
  183.0260  177.2780  139.5670 C   0  0  0  0  0  2  0  0  0  0  0  0
  182.6480  177.0680  135.9520 N   0  0  0  0  0  0  0  0  0  0  0  0
  183.1850  177.3220  138.1170 N   0  0  0  0  0  0  0  0  0  0  0  0
  180.9610  176.5250  137.6530 N   0  0  0  0  0  2  0  0  0  0  0  0
  184.2480  177.6720  137.3810 C   0  0  0  0  0  0  0  0  0  0  0  0
  182.2400  176.9930  137.2340 C   0  0  0  0  0  0  0  0  0  0  0  0
  183.9280  177.5040  136.0390 C   0  0  0  0  0  3  0  0  0  0  0  0
  180.6250  176.6080  139.0740 C   0  0  1  0  0  3  0  0  0  0  0  0
  180.0880  174.4170  139.8640 O   0  0  0  0  0  1  0  0  0  0  0  0
  179.5280  175.6080  139.3930 C   0  0  0  0  0  2  0  0  0  0  0  0
  1 43  1  6  0  0  0
  2  4  2  0  0  0  0
  3  9  1  0  0  0  0
  4  7  1  0  0  0  0
  6  1  1  6  0  0  0
  6  3  1  0  0  0  0
  7 10  1  0  0  0  0
  7  5  2  0  0  0  0
  8  6  1  0  0  0  0
  8  4  1  0  0  0  0
  9 10  1  0  0  0  0
 10 11  1  1  0  0  0
 11 12  1  0  0  0  0
 12 13  1  0  0  0  0
 13 14  1  6  0  0  0
 13 15  1  0  0  0  0
 15 16  1  0  0  0  0
 15 17  1  0  0  0  0
 18 21  1  0  0  0  0
 18 15  1  0  0  0  0
 21 20  2  0  0  0  0
 21 19  2  0  0  0  0
 22 25  1  0  0  0  0
 23 24  1  0  0  0  0
 23 22  1  0  0  0  0
 24 26  1  0  0  0  0
 25 26  1  0  0  0  0
 25 21  1  1  0  0  0
 27  1  1  0  0  0  0
 28 27  1  6  0  0  0
 29 33  1  0  0  0  0
 30 31  2  0  0  0  0
 30 28  1  0  0  0  0
 32 29  1  6  0  0  0
 32 37  1  0  0  0  0
 35 42  2  0  0  0  0
 36 34  1  6  0  0  0
 37 33  1  1  0  0  0
 37 34  1  0  0  0  0
 37 36  1  0  0  0  0
 38 39  1  0  0  0  0
 39 30  1  0  0  0  0
 40 32  1  0  0  0  0
 40 41  1  0  0  0  0
 41 35  1  6  0  0  0
 41 39  1  0  0  0  0
 41 36  1  0  0  0  0
 42 28  1  0  0  0  0
 44 43  1  0  0  0  0
 44 45  1  0  0  0  0
 47 46  1  0  0  0  0
 48 53  1  0  0  0  0
 48 52  2  0  0  0  0
 49 47  1  0  0  0  0
 50 54  1  0  0  0  0
 51 45  1  0  0  0  0
 51 49  1  0  0  0  0
 52 50  1  0  0  0  0
 52 49  1  0  0  0  0
 53 51  2  0  0  0  0
 54 56  1  1  0  0  0
 54 46  1  0  0  0  0
 56 55  1  0  0  0  0
M  END
>  <MODEL>
4

>  <REMARK>
 VINA RESULT:      -7.2      2.367      6.115
  Name = 
  15 active torsions:
  status: ('A' for Active; 'I' for Inactive)
    1  A    between atoms: C_2  and  C_11
    2  A    between atoms: C_2  and  N_25
    3  A    between atoms: N_3  and  C_11
    4  A    between atoms: N_3  and  S_47
    5  A    between atoms: C_5  and  S_19
    6  A    between atoms: S_19  and  C_35
    7  A    between atoms: C_21  and  C_35
    8  A    between atoms: C_24  and  C_35
    9  A    between atoms: C_24  and  O_52
   10  A    between atoms: N_25  and  C_27
   11  A    between atoms: C_27  and  C_49
   12  A    between atoms: C_28  and  S_47
   13  A    between atoms: C_32  and  CA_53
   14  A    between atoms: C_40  and  C_51
   15  A    between atoms: C_51  and  O_52
                            x       y       z     vdW  Elec       q    Type
                         _______ _______ _______ _____ _____    ______ ____

>  <TORSDO>
F 15

$$$$
=
 OpenBabel11042410573D

 56 63  0  0  1  0  0  0  0  0999 V2000
  182.4600  178.2130  139.0410 C   0  0  2  0  0  3  0  0  0  0  0  0
  180.7070  179.3340  143.0700 O   0  0  0  0  0  0  0  0  0  0  0  0
  184.2790  178.0600  140.7700 C   0  0  0  0  0  2  0  0  0  0  0  0
  181.8180  178.8510  142.7250 C   0  0  0  0  0  0  0  0  0  0  0  0
  182.9720  180.0520  144.3950 O   0  0  0  0  0  0  0  0  0  0  0  0
  182.8570  178.5260  140.4860 C   0  0  2  0  0  3  0  0  0  0  0  0
  183.0260  179.1520  143.5150 C   0  0  0  0  0  0  0  0  0  0  0  0
  181.8750  177.9720  141.5170 C   0  0  0  0  0  2  0  0  0  0  0  0
  184.9050  178.8450  141.9150 C   0  0  0  0  0  2  0  0  0  0  0  0
  184.3180  178.4190  143.2520 C   0  0  1  0  0  3  0  0  0  0  0  0
  185.3540  178.6620  144.3420 C   0  0  0  0  0  2  0  0  0  0  0  0
  186.2600  177.5270  144.4390 N   0  0  0  0  0  2  0  0  0  0  0  0
  187.4940  178.0190  145.0380 C   0  0  1  0  0  3  0  0  0  0  0  0
  187.3710  177.9720  146.5540 C   0  0  0  0  0  1  0  0  0  0  0  0
  188.7370  177.2680  144.5090 C   0  0  0  0  0  0  0  0  0  0  0  0
  188.2680  176.0910  143.6710 C   0  0  0  0  0  1  0  0  0  0  0  0
  189.5610  176.6810  145.6590 C   0  0  0  0  0  1  0  0  0  0  0  0
  189.4950  178.1530  143.6040 N   0  0  0  0  0  2  0  0  0  0  0  0
  190.9420  176.0300  142.9220 O   0  0  0  0  0  0  0  0  0  0  0  0
  191.7280  178.2060  142.1070 O   0  0  0  0  0  0  0  0  0  0  0  0
  190.5110  177.3760  142.4120 S   0  0  0  0  0  0  0  0  0  0  0  0
  188.4400  177.9880  140.9300 O   0  0  0  0  0  0  0  0  0  0  0  0
  188.2400  178.4170  139.6030 C   0  0  0  0  0  2  0  0  0  0  0  0
  189.3820  177.9420  138.7320 C   0  0  0  0  0  2  0  0  0  0  0  0
  189.5680  177.1480  140.9180 C   0  0  1  0  0  3  0  0  0  0  0  0
  190.4060  177.4930  139.7170 C   0  0  0  0  0  2  0  0  0  0  0  0
  180.7090  177.7040  138.9090 S   0  0  0  0  0  0  0  0  0  0  0  0
  180.1110  179.3290  138.3080 C   0  0  2  0  0  3  0  0  0  0  0  0
  180.8700  185.2660  136.2500 C   0  0  0  0  0  2  0  0  0  0  0  0
  180.3040  179.4830  136.8210 C   0  0  0  0  0  0  0  0  0  0  0  0
  180.1220  178.4990  136.0520 O   0  0  0  0  0  0  0  0  0  0  0  0
  180.6010  183.8190  135.9310 C   0  0  2  0  0  3  0  0  0  0  0  0
  179.4570  185.3780  136.7670 C   0  0  0  0  0  2  0  0  0  0  0  0
  178.9730  183.6540  138.0180 C   0  0  0  0  0  2  0  0  0  0  0  0
  180.9720  181.5740  138.5650 C   0  0  0  0  0  3  0  0  0  0  0  0
  179.1180  182.4960  137.1600 C   0  0  1  0  0  3  0  0  0  0  0  0
  179.1810  183.8980  136.5010 C   0  0  2  0  0  0  0  0  0  0  0  0
  180.8340  180.9180  134.8490 C   0  0  0  0  0  1  0  0  0  0  0  0
  180.6330  180.7740  136.2880 N   0  0  0  0  0  0  0  0  0  0  0  0
  181.4070  182.9710  136.7060 O   0  0  0  0  0  0  0  0  0  0  0  0
  180.5510  181.9570  137.1630 C   0  0  2  0  0  0  0  0  0  0  0  0
  180.7620  180.3960  139.0460 N   0  0  0  0  0  0  0  0  0  0  0  0
  183.4000  177.2500  138.3200 C   0  0  0  0  0  2  0  0  0  0  0  0
  184.1030  177.8960  137.3000 O   0  0  0  0  0  0  0  0  0  0  0  0
  184.1590  176.9610  136.2650 C   0  0  0  0  0  2  0  0  0  0  0  0
  188.3820  177.4550  134.6140 C   0  0  0  0  0  2  0  0  0  0  0  0
  187.0630  177.6910  135.3700 C   0  0  0  0  0  2  0  0  0  0  0  0
  186.7080  174.3490  136.7680 N   0  0  0  0  0  0  0  0  0  0  0  0
  186.6030  176.4490  135.9830 N   0  0  0  0  0  0  0  0  0  0  0  0
  188.7630  175.3860  135.9130 N   0  0  0  0  0  2  0  0  0  0  0  0
  185.3770  176.0950  136.3880 C   0  0  0  0  0  0  0  0  0  0  0  0
  187.3780  175.3950  136.2480 C   0  0  0  0  0  0  0  0  0  0  0  0
  185.4300  174.7900  136.8640 C   0  0  0  0  0  3  0  0  0  0  0  0
  189.3740  176.6360  135.4600 C   0  0  1  0  0  3  0  0  0  0  0  0
  190.8220  174.9440  134.5940 O   0  0  0  0  0  1  0  0  0  0  0  0
  190.6240  176.3260  134.6590 C   0  0  0  0  0  2  0  0  0  0  0  0
  1 43  1  1  0  0  0
  3  9  1  0  0  0  0
  4  2  2  0  0  0  0
  4  7  1  0  0  0  0
  6  1  1  6  0  0  0
  6  3  1  0  0  0  0
  6  8  1  0  0  0  0
  7  5  2  0  0  0  0
  8  4  1  0  0  0  0
  9 10  1  0  0  0  0
 10  7  1  0  0  0  0
 10 11  1  1  0  0  0
 11 12  1  0  0  0  0
 12 13  1  0  0  0  0
 13 14  1  1  0  0  0
 15 13  1  0  0  0  0
 15 17  1  0  0  0  0
 16 15  1  0  0  0  0
 18 15  1  0  0  0  0
 20 21  2  0  0  0  0
 21 19  2  0  0  0  0
 21 18  1  0  0  0  0
 23 22  1  0  0  0  0
 24 23  1  0  0  0  0
 24 26  1  0  0  0  0
 25 22  1  0  0  0  0
 25 21  1  1  0  0  0
 26 25  1  0  0  0  0
 27  1  1  0  0  0  0
 28 27  1  1  0  0  0
 28 42  1  0  0  0  0
 29 33  1  0  0  0  0
 30 28  1  0  0  0  0
 31 30  2  0  0  0  0
 32 29  1  1  0  0  0
 32 37  1  0  0  0  0
 32 40  1  0  0  0  0
 35 42  2  0  0  0  0
 36 41  1  0  0  0  0
 36 34  1  1  0  0  0
 37 33  1  6  0  0  0
 37 36  1  0  0  0  0
 37 34  1  0  0  0  0
 38 39  1  0  0  0  0
 39 30  1  0  0  0  0
 39 41  1  0  0  0  0
 40 41  1  0  0  0  0
 41 35  1  1  0  0  0
 44 43  1  0  0  0  0
 45 51  1  0  0  0  0
 45 44  1  0  0  0  0
 46 47  1  0  0  0  0
 46 54  1  0  0  0  0
 47 49  1  0  0  0  0
 48 53  1  0  0  0  0
 49 52  1  0  0  0  0
 49 51  1  0  0  0  0
 50 52  1  0  0  0  0
 51 53  2  0  0  0  0
 52 48  2  0  0  0  0
 54 56  1  6  0  0  0
 54 50  1  0  0  0  0
 55 56  1  0  0  0  0
M  END
>  <MODEL>
5

>  <REMARK>
 VINA RESULT:      -7.2      3.460      5.211
  Name = 
  15 active torsions:
  status: ('A' for Active; 'I' for Inactive)
    1  A    between atoms: C_2  and  C_11
    2  A    between atoms: C_2  and  N_25
    3  A    between atoms: N_3  and  C_11
    4  A    between atoms: N_3  and  S_47
    5  A    between atoms: C_5  and  S_19
    6  A    between atoms: S_19  and  C_35
    7  A    between atoms: C_21  and  C_35
    8  A    between atoms: C_24  and  C_35
    9  A    between atoms: C_24  and  O_52
   10  A    between atoms: N_25  and  C_27
   11  A    between atoms: C_27  and  C_49
   12  A    between atoms: C_28  and  S_47
   13  A    between atoms: C_32  and  CA_53
   14  A    between atoms: C_40  and  C_51
   15  A    between atoms: C_51  and  O_52
                            x       y       z     vdW  Elec       q    Type
                         _______ _______ _______ _____ _____    ______ ____

>  <TORSDO>
F 15

$$$$
=
 OpenBabel11042410573D

 56 63  0  0  1  0  0  0  0  0999 V2000
  189.9460  175.4090  136.8160 C   0  0  2  0  0  3  0  0  0  0  0  0
  186.9040  178.1730  134.9000 O   0  0  0  0  0  0  0  0  0  0  0  0
  187.8580  174.0900  136.3480 C   0  0  0  0  0  2  0  0  0  0  0  0
  186.9340  176.9260  135.0810 C   0  0  0  0  0  0  0  0  0  0  0  0
  184.6090  176.8280  135.4700 O   0  0  0  0  0  0  0  0  0  0  0  0
  188.4760  175.4810  136.3960 C   0  0  2  0  0  3  0  0  0  0  0  0
  185.6750  176.1830  135.2760 C   0  0  0  0  0  0  0  0  0  0  0  0
  188.2580  176.2310  135.0840 C   0  0  0  0  0  2  0  0  0  0  0  0
  186.3470  174.1440  136.5300 C   0  0  0  0  0  2  0  0  0  0  0  0
  185.6660  174.6750  135.2780 C   0  0  1  0  0  3  0  0  0  0  0  0
  184.2560  174.1050  135.2080 C   0  0  0  0  0  2  0  0  0  0  0  0
  183.8520  173.5990  136.5120 N   0  0  0  0  0  2  0  0  0  0  0  0
  182.5750  172.9200  136.3270 C   0  0  1  0  0  3  0  0  0  0  0  0
  182.6800  171.4970  136.8560 C   0  0  0  0  0  1  0  0  0  0  0  0
  181.4000  173.7100  136.9470 C   0  0  0  0  0  0  0  0  0  0  0  0
  180.4400  172.7210  137.5860 C   0  0  0  0  0  1  0  0  0  0  0  0
  180.6060  174.4560  135.8730 C   0  0  0  0  0  1  0  0  0  0  0  0
  181.9090  174.5660  138.0370 N   0  0  0  0  0  2  0  0  0  0  0  0
  180.4200  174.8820  140.2170 O   0  0  0  0  0  0  0  0  0  0  0  0
  179.4590  175.6720  138.1040 O   0  0  0  0  0  0  0  0  0  0  0  0
  180.7290  175.5280  138.8970 S   0  0  0  0  0  0  0  0  0  0  0  0
  182.4740  177.0510  140.1210 O   0  0  0  0  0  0  0  0  0  0  0  0
  183.4430  177.9940  139.7270 C   0  0  0  0  0  2  0  0  0  0  0  0
  183.0480  178.6150  138.4040 C   0  0  0  0  0  2  0  0  0  0  0  0
  181.4190  177.1440  139.1960 C   0  0  1  0  0  3  0  0  0  0  0  0
  181.9560  177.7250  137.9170 C   0  0  0  0  0  2  0  0  0  0  0  0
  190.5750  177.0290  137.3840 S   0  0  0  0  0  0  0  0  0  0  0  0
  190.2620  176.7130  139.1620 C   0  0  2  0  0  3  0  0  0  0  0  0
  190.1790  178.2820  145.2930 C   0  0  0  0  0  2  0  0  0  0  0  0
  189.0090  177.3980  139.6410 C   0  0  0  0  0  0  0  0  0  0  0  0
  187.9920  177.4580  138.8950 O   0  0  0  0  0  0  0  0  0  0  0  0
  189.4250  178.0960  144.0030 C   0  0  2  0  0  3  0  0  0  0  0  0
  190.2310  176.7810  145.4380 C   0  0  0  0  0  2  0  0  0  0  0  0
  190.7670  175.8570  143.5320 C   0  0  0  0  0  2  0  0  0  0  0  0
  191.3570  177.4980  141.1700 C   0  0  0  0  0  3  0  0  0  0  0  0
  189.7280  176.2500  142.6010 C   0  0  1  0  0  3  0  0  0  0  0  0
  189.5140  176.5700  144.1040 C   0  0  2  0  0  0  0  0  0  0  0  0
  187.7550  178.5990  141.4340 C   0  0  0  0  0  1  0  0  0  0  0  0
  188.9640  177.9220  140.9770 N   0  0  0  0  0  0  0  0  0  0  0  0
  190.1660  178.5710  142.9090 O   0  0  0  0  0  0  0  0  0  0  0  0
  190.0460  177.5830  141.9190 C   0  0  2  0  0  0  0  0  0  0  0  0
  191.4210  177.1070  139.9420 N   0  0  0  0  0  0  0  0  0  0  0  0
  190.8680  174.7580  135.7870 C   0  0  0  0  0  2  0  0  0  0  0  0
  192.1280  175.3600  135.7820 O   0  0  0  0  0  0  0  0  0  0  0  0
  193.0200  174.3080  135.5600 C   0  0  0  0  0  2  0  0  0  0  0  0
  195.8070  174.5030  139.1650 C   0  0  0  0  0  2  0  0  0  0  0  0
  194.8640  173.9900  138.0620 C   0  0  0  0  0  2  0  0  0  0  0  0
  196.4000  175.7420  135.2650 N   0  0  0  0  0  0  0  0  0  0  0  0
  195.1910  174.6180  136.7870 N   0  0  0  0  0  0  0  0  0  0  0  0
  197.4180  175.2520  137.4460 N   0  0  0  0  0  2  0  0  0  0  0  0
  194.4390  174.7710  135.6880 C   0  0  0  0  0  0  0  0  0  0  0  0
  196.3620  175.1850  136.4920 C   0  0  0  0  0  0  0  0  0  0  0  0
  195.1770  175.4780  134.7460 C   0  0  0  0  0  3  0  0  0  0  0  0
  197.2720  174.5020  138.6940 C   0  0  1  0  0  3  0  0  0  0  0  0
  197.4370  175.9800  140.5650 O   0  0  0  0  0  1  0  0  0  0  0  0
  198.1710  175.1080  139.7560 C   0  0  0  0  0  2  0  0  0  0  0  0
  1 43  1  6  0  0  0
  1 27  1  0  0  0  0
  2  4  2  0  0  0  0
  3  6  1  0  0  0  0
  3  9  1  0  0  0  0
  4  8  1  0  0  0  0
  4  7  1  0  0  0  0
  6  1  1  6  0  0  0
  7 10  1  0  0  0  0
  7  5  2  0  0  0  0
  8  6  1  0  0  0  0
 10 11  1  1  0  0  0
 10  9  1  0  0  0  0
 11 12  1  0  0  0  0
 13 12  1  0  0  0  0
 13 14  1  1  0  0  0
 13 15  1  0  0  0  0
 15 16  1  0  0  0  0
 15 18  1  0  0  0  0
 17 15  1  0  0  0  0
 18 21  1  0  0  0  0
 20 21  2  0  0  0  0
 21 19  2  0  0  0  0
 23 22  1  0  0  0  0
 24 23  1  0  0  0  0
 25 21  1  6  0  0  0
 25 22  1  0  0  0  0
 26 24  1  0  0  0  0
 26 25  1  0  0  0  0
 28 27  1  6  0  0  0
 28 30  1  0  0  0  0
 28 42  1  0  0  0  0
 29 33  1  0  0  0  0
 30 39  1  0  0  0  0
 31 30  2  0  0  0  0
 32 37  1  0  0  0  0
 32 29  1  1  0  0  0
 36 34  1  1  0  0  0
 36 37  1  0  0  0  0
 37 34  1  6  0  0  0
 37 33  1  0  0  0  0
 39 38  1  0  0  0  0
 39 41  1  0  0  0  0
 40 32  1  0  0  0  0
 41 35  1  6  0  0  0
 41 36  1  0  0  0  0
 41 40  1  0  0  0  0
 42 35  2  0  0  0  0
 44 43  1  0  0  0  0
 45 51  1  0  0  0  0
 45 44  1  0  0  0  0
 47 46  1  0  0  0  0
 48 52  2  0  0  0  0
 49 47  1  0  0  0  0
 50 54  1  0  0  0  0
 51 49  1  0  0  0  0
 52 49  1  0  0  0  0
 52 50  1  0  0  0  0
 53 48  1  0  0  0  0
 53 51  2  0  0  0  0
 54 46  1  0  0  0  0
 54 56  1  1  0  0  0
 56 55  1  0  0  0  0
M  END
>  <MODEL>
6

>  <REMARK>
 VINA RESULT:      -7.1      3.064      9.330
  Name = 
  15 active torsions:
  status: ('A' for Active; 'I' for Inactive)
    1  A    between atoms: C_2  and  C_11
    2  A    between atoms: C_2  and  N_25
    3  A    between atoms: N_3  and  C_11
    4  A    between atoms: N_3  and  S_47
    5  A    between atoms: C_5  and  S_19
    6  A    between atoms: S_19  and  C_35
    7  A    between atoms: C_21  and  C_35
    8  A    between atoms: C_24  and  C_35
    9  A    between atoms: C_24  and  O_52
   10  A    between atoms: N_25  and  C_27
   11  A    between atoms: C_27  and  C_49
   12  A    between atoms: C_28  and  S_47
   13  A    between atoms: C_32  and  CA_53
   14  A    between atoms: C_40  and  C_51
   15  A    between atoms: C_51  and  O_52
                            x       y       z     vdW  Elec       q    Type
                         _______ _______ _______ _____ _____    ______ ____

>  <TORSDO>
F 15

$$$$
=
 OpenBabel11042410573D

 56 63  0  0  1  0  0  0  0  0999 V2000
  188.3830  177.5400  138.6520 C   0  0  2  0  0  3  0  0  0  0  0  0
  192.8750  177.1350  139.1180 O   0  0  0  0  0  0  0  0  0  0  0  0
  189.1640  175.6400  137.2030 C   0  0  0  0  0  2  0  0  0  0  0  0
  192.0050  176.4200  138.5530 C   0  0  0  0  0  0  0  0  0  0  0  0
  193.4810  175.8280  136.8110 O   0  0  0  0  0  0  0  0  0  0  0  0
  189.5980  176.8200  138.0620 C   0  0  2  0  0  3  0  0  0  0  0  0
  192.3690  175.6220  137.3680 C   0  0  0  0  0  0  0  0  0  0  0  0
  190.6190  176.3960  139.1150 C   0  0  0  0  0  2  0  0  0  0  0  0
  190.2190  175.2890  136.1620 C   0  0  0  0  0  2  0  0  0  0  0  0
  191.4120  174.6000  136.8070 C   0  0  1  0  0  3  0  0  0  0  0  0
  192.0720  173.6950  135.7750 C   0  0  0  0  0  2  0  0  0  0  0  0
  192.7720  172.6030  136.4350 N   0  0  0  0  0  2  0  0  0  0  0  0
  193.8380  172.1770  135.5370 C   0  0  1  0  0  3  0  0  0  0  0  0
  194.1890  173.3190  134.5950 C   0  0  0  0  0  1  0  0  0  0  0  0
  195.0620  171.6290  136.3050 C   0  0  0  0  0  0  0  0  0  0  0  0
  196.1370  171.2630  135.2960 C   0  0  0  0  0  1  0  0  0  0  0  0
  194.7140  170.3420  137.0560 C   0  0  0  0  0  1  0  0  0  0  0  0
  195.6270  172.6980  137.1520 N   0  0  0  0  0  2  0  0  0  0  0  0
  197.6200  173.3110  135.5030 O   0  0  0  0  0  0  0  0  0  0  0  0
  198.1780  171.8960  137.4260 O   0  0  0  0  0  0  0  0  0  0  0  0
  197.3290  173.0430  136.9520 S   0  0  0  0  0  0  0  0  0  0  0  0
  196.8320  174.6390  138.9690 O   0  0  0  0  0  0  0  0  0  0  0  0
  197.5700  175.1570  140.0520 C   0  0  0  0  0  2  0  0  0  0  0  0
  199.0390  175.2130  139.6920 C   0  0  0  0  0  2  0  0  0  0  0  0
  197.7310  174.4990  137.8970 C   0  0  1  0  0  3  0  0  0  0  0  0
  199.1240  174.3890  138.4530 C   0  0  0  0  0  2  0  0  0  0  0  0
  187.2420  178.1330  137.3530 S   0  0  0  0  0  0  0  0  0  0  0  0
  185.7240  177.9280  138.3610 C   0  0  2  0  0  3  0  0  0  0  0  0
  179.8910  179.4980  140.2480 C   0  0  0  0  0  2  0  0  0  0  0  0
  184.5980  177.3250  137.5620 C   0  0  0  0  0  0  0  0  0  0  0  0
  184.8340  176.4210  136.7140 O   0  0  0  0  0  0  0  0  0  0  0  0
  180.7780  178.6070  139.4180 C   0  0  2  0  0  3  0  0  0  0  0  0
  180.3360  178.7400  141.4740 C   0  0  0  0  0  2  0  0  0  0  0  0
  182.4990  178.4360  141.4290 C   0  0  0  0  0  2  0  0  0  0  0  0
  184.1330  179.5200  139.2440 C   0  0  0  0  0  3  0  0  0  0  0  0
  182.7620  177.6720  140.2270 C   0  0  1  0  0  3  0  0  0  0  0  0
  181.2840  177.8610  140.6570 C   0  0  2  0  0  0  0  0  0  0  0  0
  182.1620  177.1710  137.0390 C   0  0  0  0  0  1  0  0  0  0  0  0
  183.2510  177.7450  137.8240 N   0  0  0  0  0  0  0  0  0  0  0  0
  181.8130  179.3410  138.8170 O   0  0  0  0  0  0  0  0  0  0  0  0
  182.9740  178.5760  139.0100 C   0  0  2  0  0  0  0  0  0  0  0  0
  185.3470  179.2020  138.9440 N   0  0  0  0  0  0  0  0  0  0  0  0
  188.7230  178.6290  139.6670 C   0  0  0  0  0  2  0  0  0  0  0  0
  188.1970  178.3310  140.9260 O   0  0  0  0  0  0  0  0  0  0  0  0
  189.1050  177.4260  141.4800 C   0  0  0  0  0  2  0  0  0  0  0  0
  185.9100  178.2770  144.6210 C   0  0  0  0  0  2  0  0  0  0  0  0
  186.7210  177.6200  143.4900 C   0  0  0  0  0  2  0  0  0  0  0  0
  190.0120  177.9410  145.0130 N   0  0  0  0  0  0  0  0  0  0  0  0
  188.1470  177.6860  143.7880 N   0  0  0  0  0  0  0  0  0  0  0  0
  187.8370  178.0360  146.1510 N   0  0  0  0  0  2  0  0  0  0  0  0
  189.2010  177.6010  142.9650 C   0  0  0  0  0  0  0  0  0  0  0  0
  188.6670  177.8620  145.0050 C   0  0  0  0  0  0  0  0  0  0  0  0
  190.3590  177.7710  143.7140 C   0  0  0  0  0  3  0  0  0  0  0  0
  186.3990  177.8110  146.0040 C   0  0  1  0  0  3  0  0  0  0  0  0
  184.3460  178.8160  146.7020 O   0  0  0  0  0  1  0  0  0  0  0  0
  185.6580  178.5480  147.1040 C   0  0  0  0  0  2  0  0  0  0  0  0
  1 43  1  6  0  0  0
  3  6  1  0  0  0  0
  4  8  1  0  0  0  0
  4  2  2  0  0  0  0
  5  7  2  0  0  0  0
  6  1  1  1  0  0  0
  6  8  1  0  0  0  0
  7  4  1  0  0  0  0
  9 10  1  0  0  0  0
  9  3  1  0  0  0  0
 10 11  1  6  0  0  0
 10  7  1  0  0  0  0
 11 12  1  0  0  0  0
 13 14  1  1  0  0  0
 13 15  1  0  0  0  0
 13 12  1  0  0  0  0
 15 17  1  0  0  0  0
 15 18  1  0  0  0  0
 16 15  1  0  0  0  0
 19 21  2  0  0  0  0
 21 18  1  0  0  0  0
 21 20  2  0  0  0  0
 22 23  1  0  0  0  0
 24 23  1  0  0  0  0
 25 21  1  1  0  0  0
 25 26  1  0  0  0  0
 25 22  1  0  0  0  0
 26 24  1  0  0  0  0
 27  1  1  0  0  0  0
 28 27  1  6  0  0  0
 28 42  1  0  0  0  0
 29 33  1  0  0  0  0
 30 39  1  0  0  0  0
 30 28  1  0  0  0  0
 31 30  2  0  0  0  0
 32 29  1  1  0  0  0
 32 37  1  0  0  0  0
 36 37  1  0  0  0  0
 36 34  1  1  0  0  0
 37 34  1  1  0  0  0
 37 33  1  0  0  0  0
 38 39  1  0  0  0  0
 39 41  1  0  0  0  0
 40 41  1  0  0  0  0
 40 32  1  0  0  0  0
 41 35  1  1  0  0  0
 41 36  1  0  0  0  0
 42 35  2  0  0  0  0
 43 44  1  0  0  0  0
 44 45  1  0  0  0  0
 45 51  1  0  0  0  0
 46 54  1  0  0  0  0
 47 49  1  0  0  0  0
 47 46  1  0  0  0  0
 49 52  1  0  0  0  0
 51 53  2  0  0  0  0
 51 49  1  0  0  0  0
 52 48  2  0  0  0  0
 52 50  1  0  0  0  0
 53 48  1  0  0  0  0
 54 50  1  0  0  0  0
 54 56  1  1  0  0  0
 55 56  1  0  0  0  0
M  END
>  <MODEL>
7

>  <REMARK>
 VINA RESULT:      -7.0      3.359      9.070
  Name = 
  15 active torsions:
  status: ('A' for Active; 'I' for Inactive)
    1  A    between atoms: C_2  and  C_11
    2  A    between atoms: C_2  and  N_25
    3  A    between atoms: N_3  and  C_11
    4  A    between atoms: N_3  and  S_47
    5  A    between atoms: C_5  and  S_19
    6  A    between atoms: S_19  and  C_35
    7  A    between atoms: C_21  and  C_35
    8  A    between atoms: C_24  and  C_35
    9  A    between atoms: C_24  and  O_52
   10  A    between atoms: N_25  and  C_27
   11  A    between atoms: C_27  and  C_49
   12  A    between atoms: C_28  and  S_47
   13  A    between atoms: C_32  and  CA_53
   14  A    between atoms: C_40  and  C_51
   15  A    between atoms: C_51  and  O_52
                            x       y       z     vdW  Elec       q    Type
                         _______ _______ _______ _____ _____    ______ ____

>  <TORSDO>
F 15

$$$$
=
 OpenBabel11042410573D

 56 63  0  0  1  0  0  0  0  0999 V2000
  189.4920  176.6350  138.3140 C   0  0  2  0  0  3  0  0  0  0  0  0
  187.1770  174.6030  134.9860 O   0  0  0  0  0  0  0  0  0  0  0  0
  187.1170  177.4550  138.3830 C   0  0  0  0  0  2  0  0  0  0  0  0
  186.8250  175.3300  135.9540 C   0  0  0  0  0  0  0  0  0  0  0  0
  185.1240  176.3620  134.6880 O   0  0  0  0  0  0  0  0  0  0  0  0
  188.1470  176.6680  137.5840 C   0  0  2  0  0  3  0  0  0  0  0  0
  185.6410  176.1990  135.8260 C   0  0  0  0  0  0  0  0  0  0  0  0
  187.6240  175.2810  137.2170 C   0  0  0  0  0  2  0  0  0  0  0  0
  186.0200  178.0120  137.4840 C   0  0  0  0  0  2  0  0  0  0  0  0
  185.0760  176.9090  137.0300 C   0  0  1  0  0  3  0  0  0  0  0  0
  183.7080  177.5190  136.7530 C   0  0  0  0  0  2  0  0  0  0  0  0
  183.0770  177.9280  138.0000 N   0  0  0  0  0  2  0  0  0  0  0  0
  181.7150  178.3320  137.6740 C   0  0  1  0  0  3  0  0  0  0  0  0
  181.5360  178.3220  136.1630 C   0  0  0  0  0  1  0  0  0  0  0  0
  180.6610  177.4770  138.4130 C   0  0  0  0  0  0  0  0  0  0  0  0
  180.4760  176.1770  137.6510 C   0  0  0  0  0  1  0  0  0  0  0  0
  179.2970  178.1710  138.4280 C   0  0  0  0  0  1  0  0  0  0  0  0
  181.1760  177.1120  139.7480 N   0  0  0  0  0  2  0  0  0  0  0  0
  179.8200  178.2100  141.7520 O   0  0  0  0  0  0  0  0  0  0  0  0
  181.1810  179.7240  140.3860 O   0  0  0  0  0  0  0  0  0  0  0  0
  181.1030  178.3460  140.9840 S   0  0  0  0  0  0  0  0  0  0  0  0
  183.6790  178.4140  141.4530 O   0  0  0  0  0  0  0  0  0  0  0  0
  184.5150  179.0220  142.4110 C   0  0  0  0  0  2  0  0  0  0  0  0
  183.7450  179.2500  143.6940 C   0  0  0  0  0  2  0  0  0  0  0  0
  182.4690  178.1150  142.1040 C   0  0  1  0  0  3  0  0  0  0  0  0
  182.3270  179.0270  143.2910 C   0  0  0  0  0  2  0  0  0  0  0  0
  189.7860  178.1620  139.2750 S   0  0  0  0  0  0  0  0  0  0  0  0
  190.0900  177.2990  140.8640 C   0  0  2  0  0  3  0  0  0  0  0  0
  191.7510  177.0290  146.9650 C   0  0  0  0  0  2  0  0  0  0  0  0
  188.9780  177.5370  141.8520 C   0  0  0  0  0  0  0  0  0  0  0  0
  187.7790  177.5830  141.4600 O   0  0  0  0  0  0  0  0  0  0  0  0
  190.6570  177.0550  145.9300 C   0  0  2  0  0  3  0  0  0  0  0  0
  192.0280  175.5950  146.5850 C   0  0  0  0  0  2  0  0  0  0  0  0
  192.0450  175.3820  144.4110 C   0  0  0  0  0  2  0  0  0  0  0  0
  191.6570  177.7070  142.6600 C   0  0  0  0  0  3  0  0  0  0  0  0
  190.7270  175.7870  143.9680 C   0  0  1  0  0  3  0  0  0  0  0  0
  190.9590  175.6190  145.4920 C   0  0  2  0  0  0  0  0  0  0  0  0
  188.2150  177.8870  144.2030 C   0  0  0  0  0  1  0  0  0  0  0  0
  189.2920  177.6430  143.2480 N   0  0  0  0  0  0  0  0  0  0  0  0
  190.9520  177.9660  144.9030 O   0  0  0  0  0  0  0  0  0  0  0  0
  190.6480  177.2940  143.7090 C   0  0  2  0  0  0  0  0  0  0  0  0
  191.3780  177.6980  141.4000 N   0  0  0  0  0  0  0  0  0  0  0  0
  190.6830  176.2670  137.4310 C   0  0  0  0  0  2  0  0  0  0  0  0
  191.2940  175.0890  137.8690 O   0  0  0  0  0  0  0  0  0  0  0  0
  191.8210  174.5160  136.7090 C   0  0  0  0  0  2  0  0  0  0  0  0
  195.8430  173.7660  138.7250 C   0  0  0  0  0  2  0  0  0  0  0  0
  194.5100  173.5620  137.9840 C   0  0  0  0  0  2  0  0  0  0  0  0
  194.8470  176.3130  135.6240 N   0  0  0  0  0  0  0  0  0  0  0  0
  194.3150  174.6170  136.9960 N   0  0  0  0  0  0  0  0  0  0  0  0
  196.6440  175.2210  136.8940 N   0  0  0  0  0  2  0  0  0  0  0  0
  193.1880  175.0540  136.4170 C   0  0  0  0  0  0  0  0  0  0  0  0
  195.2890  175.3720  136.4810 C   0  0  0  0  0  0  0  0  0  0  0  0
  193.5080  176.1140  135.5760 C   0  0  0  0  0  3  0  0  0  0  0  0
  196.9860  174.0810  137.7430 C   0  0  1  0  0  3  0  0  0  0  0  0
  198.2390  175.6890  138.9910 O   0  0  0  0  0  1  0  0  0  0  0  0
  198.2670  174.3800  138.5000 C   0  0  0  0  0  2  0  0  0  0  0  0
  1 43  1  6  0  0  0
  1 27  1  0  0  0  0
  2  4  2  0  0  0  0
  4  8  1  0  0  0  0
  5  7  2  0  0  0  0
  6  1  1  1  0  0  0
  6  3  1  0  0  0  0
  7  4  1  0  0  0  0
  7 10  1  0  0  0  0
  8  6  1  0  0  0  0
  9  3  1  0  0  0  0
 10 11  1  6  0  0  0
 10  9  1  0  0  0  0
 11 12  1  0  0  0  0
 13 14  1  6  0  0  0
 13 12  1  0  0  0  0
 13 15  1  0  0  0  0
 15 17  1  0  0  0  0
 15 18  1  0  0  0  0
 16 15  1  0  0  0  0
 18 21  1  0  0  0  0
 20 21  2  0  0  0  0
 21 19  2  0  0  0  0
 22 25  1  0  0  0  0
 22 23  1  0  0  0  0
 23 24  1  0  0  0  0
 25 21  1  6  0  0  0
 25 26  1  0  0  0  0
 26 24  1  0  0  0  0
 28 27  1  6  0  0  0
 28 42  1  0  0  0  0
 28 30  1  0  0  0  0
 30 39  1  0  0  0  0
 31 30  2  0  0  0  0
 32 29  1  1  0  0  0
 33 29  1  0  0  0  0
 36 34  1  6  0  0  0
 36 37  1  0  0  0  0
 37 34  1  6  0  0  0
 37 32  1  0  0  0  0
 37 33  1  0  0  0  0
 39 41  1  0  0  0  0
 39 38  1  0  0  0  0
 40 32  1  0  0  0  0
 41 35  1  6  0  0  0
 41 36  1  0  0  0  0
 41 40  1  0  0  0  0
 42 35  2  0  0  0  0
 43 44  1  0  0  0  0
 45 44  1  0  0  0  0
 47 46  1  0  0  0  0
 48 52  2  0  0  0  0
 49 47  1  0  0  0  0
 50 54  1  0  0  0  0
 51 45  1  0  0  0  0
 51 49  1  0  0  0  0
 52 50  1  0  0  0  0
 52 49  1  0  0  0  0
 53 48  1  0  0  0  0
 53 51  2  0  0  0  0
 54 56  1  1  0  0  0
 54 46  1  0  0  0  0
 56 55  1  0  0  0  0
M  END
>  <MODEL>
8

>  <REMARK>
 VINA RESULT:      -6.8      2.811      9.033
  Name = 
  15 active torsions:
  status: ('A' for Active; 'I' for Inactive)
    1  A    between atoms: C_2  and  C_11
    2  A    between atoms: C_2  and  N_25
    3  A    between atoms: N_3  and  C_11
    4  A    between atoms: N_3  and  S_47
    5  A    between atoms: C_5  and  S_19
    6  A    between atoms: S_19  and  C_35
    7  A    between atoms: C_21  and  C_35
    8  A    between atoms: C_24  and  C_35
    9  A    between atoms: C_24  and  O_52
   10  A    between atoms: N_25  and  C_27
   11  A    between atoms: C_27  and  C_49
   12  A    between atoms: C_28  and  S_47
   13  A    between atoms: C_32  and  CA_53
   14  A    between atoms: C_40  and  C_51
   15  A    between atoms: C_51  and  O_52
                            x       y       z     vdW  Elec       q    Type
                         _______ _______ _______ _____ _____    ______ ____

>  <TORSDO>
F 15

$$$$
=
 OpenBabel11042410573D

 56 63  0  0  1  0  0  0  0  0999 V2000
  187.1810  178.1320  137.4580 C   0  0  2  0  0  3  0  0  0  0  0  0
  182.6570  178.2010  137.7510 O   0  0  0  0  0  0  0  0  0  0  0  0
  186.5440  178.2400  139.8880 C   0  0  0  0  0  2  0  0  0  0  0  0
  183.5690  178.0810  138.6120 C   0  0  0  0  0  0  0  0  0  0  0  0
  182.3530  179.3130  140.2150 O   0  0  0  0  0  0  0  0  0  0  0  0
  186.0390  178.3440  138.4550 C   0  0  2  0  0  3  0  0  0  0  0  0
  183.3550  178.5840  139.9810 C   0  0  0  0  0  0  0  0  0  0  0  0
  184.8490  177.4170  138.2160 C   0  0  0  0  0  2  0  0  0  0  0  0
  185.6460  179.0030  140.8530 C   0  0  0  0  0  2  0  0  0  0  0  0
  184.3360  178.2630  141.0800 C   0  0  1  0  0  3  0  0  0  0  0  0
  183.8020  178.6260  142.4590 C   0  0  0  0  0  2  0  0  0  0  0  0
  184.7100  179.5480  143.1250 N   0  0  0  0  0  2  0  0  0  0  0  0
  184.5110  179.3790  144.5590 C   0  0  1  0  0  3  0  0  0  0  0  0
  183.2050  178.6360  144.8010 C   0  0  0  0  0  1  0  0  0  0  0  0
  185.7240  178.7070  145.2400 C   0  0  0  0  0  0  0  0  0  0  0  0
  185.3590  177.2670  145.5600 C   0  0  0  0  0  1  0  0  0  0  0  0
  186.0530  179.3790  146.5750 C   0  0  0  0  0  1  0  0  0  0  0  0
  186.8510  178.6530  144.2880 N   0  0  0  0  0  2  0  0  0  0  0  0
  187.5520  176.1200  143.8910 O   0  0  0  0  0  0  0  0  0  0  0  0
  188.2670  177.1410  146.0020 O   0  0  0  0  0  0  0  0  0  0  0  0
  188.0310  177.3880  144.5370 S   0  0  0  0  0  0  0  0  0  0  0  0
  190.4480  178.3790  144.7450 O   0  0  0  0  0  0  0  0  0  0  0  0
  191.7420  177.9710  144.3670 C   0  0  0  0  0  2  0  0  0  0  0  0
  191.6600  177.0440  143.1740 C   0  0  0  0  0  2  0  0  0  0  0  0
  189.5640  177.8770  143.7720 C   0  0  1  0  0  3  0  0  0  0  0  0
  190.2120  176.6950  143.1040 C   0  0  0  0  0  2  0  0  0  0  0  0
  188.7930  178.6530  138.1450 S   0  0  0  0  0  0  0  0  0  0  0  0
  189.6430  177.0680  137.7890 C   0  0  2  0  0  3  0  0  0  0  0  0
  193.9570  173.4480  134.9020 C   0  0  0  0  0  2  0  0  0  0  0  0
  190.9840  176.9860  138.4710 C   0  0  0  0  0  0  0  0  0  0  0  0
  191.1360  177.4540  139.6330 O   0  0  0  0  0  0  0  0  0  0  0  0
  193.5270  174.2020  136.1330 C   0  0  2  0  0  3  0  0  0  0  0  0
  192.9510  172.3780  135.2500 C   0  0  0  0  0  2  0  0  0  0  0  0
  191.0550  173.2890  135.8380 C   0  0  0  0  0  2  0  0  0  0  0  0
  190.6990  176.2030  135.7940 C   0  0  0  0  0  3  0  0  0  0  0  0
  191.3570  174.1090  136.9940 C   0  0  1  0  0  3  0  0  0  0  0  0
  192.4630  173.1550  136.4730 C   0  0  2  0  0  0  0  0  0  0  0  0
  193.3680  176.2460  138.4650 C   0  0  0  0  0  1  0  0  0  0  0  0
  192.0650  176.3110  137.8100 N   0  0  0  0  0  0  0  0  0  0  0  0
  192.9350  175.4290  135.7940 O   0  0  0  0  0  0  0  0  0  0  0  0
  191.7860  175.5230  136.5960 C   0  0  2  0  0  0  0  0  0  0  0  0
  189.7580  176.8840  136.3540 N   0  0  0  0  0  0  0  0  0  0  0  0
  186.9270  178.7150  136.0700 C   0  0  0  0  0  2  0  0  0  0  0  0
  187.2450  177.7950  135.0680 O   0  0  0  0  0  0  0  0  0  0  0  0
  186.0120  177.2810  134.6590 C   0  0  0  0  0  2  0  0  0  0  0  0
  182.6340  174.6040  136.1500 C   0  0  0  0  0  2  0  0  0  0  0  0
  183.4590  175.6050  135.3230 C   0  0  0  0  0  2  0  0  0  0  0  0
  186.5390  173.6710  135.1630 N   0  0  0  0  0  0  0  0  0  0  0  0
  184.8280  175.1240  135.1680 N   0  0  0  0  0  0  0  0  0  0  0  0
  184.2850  172.8300  135.6600 N   0  0  0  0  0  2  0  0  0  0  0  0
  185.9480  175.8000  134.8770 C   0  0  0  0  0  0  0  0  0  0  0  0
  185.2120  173.8530  135.3060 C   0  0  0  0  0  0  0  0  0  0  0  0
  187.0140  174.9090  134.8860 C   0  0  0  0  0  3  0  0  0  0  0  0
  182.8600  173.1590  135.6680 C   0  0  1  0  0  3  0  0  0  0  0  0
  183.0300  171.3490  137.2180 O   0  0  0  0  0  1  0  0  0  0  0  0
  182.1200  172.1800  136.5600 C   0  0  0  0  0  2  0  0  0  0  0  0
  1 43  1  6  0  0  0
  1 27  1  0  0  0  0
  2  4  2  0  0  0  0
  3  9  1  0  0  0  0
  4  7  1  0  0  0  0
  6  1  1  6  0  0  0
  6  3  1  0  0  0  0
  7  5  2  0  0  0  0
  7 10  1  0  0  0  0
  8  6  1  0  0  0  0
  8  4  1  0  0  0  0
  9 10  1  0  0  0  0
 10 11  1  1  0  0  0
 11 12  1  0  0  0  0
 12 13  1  0  0  0  0
 13 14  1  6  0  0  0
 13 15  1  0  0  0  0
 15 16  1  0  0  0  0
 15 17  1  0  0  0  0
 18 21  1  0  0  0  0
 18 15  1  0  0  0  0
 19 21  2  0  0  0  0
 21 20  2  0  0  0  0
 23 22  1  0  0  0  0
 24 23  1  0  0  0  0
 25 21  1  1  0  0  0
 25 22  1  0  0  0  0
 26 24  1  0  0  0  0
 26 25  1  0  0  0  0
 28 27  1  6  0  0  0
 28 30  1  0  0  0  0
 29 33  1  0  0  0  0
 30 31  2  0  0  0  0
 32 29  1  6  0  0  0
 32 37  1  0  0  0  0
 34 37  1  0  0  0  0
 35 42  2  0  0  0  0
 36 34  1  6  0  0  0
 37 33  1  1  0  0  0
 37 36  1  0  0  0  0
 39 38  1  0  0  0  0
 39 30  1  0  0  0  0
 40 32  1  0  0  0  0
 40 41  1  0  0  0  0
 41 35  1  6  0  0  0
 41 36  1  0  0  0  0
 41 39  1  0  0  0  0
 42 28  1  0  0  0  0
 44 43  1  0  0  0  0
 45 51  1  0  0  0  0
 45 44  1  0  0  0  0
 47 46  1  0  0  0  0
 48 52  2  0  0  0  0
 49 52  1  0  0  0  0
 49 47  1  0  0  0  0
 50 54  1  0  0  0  0
 51 53  2  0  0  0  0
 51 49  1  0  0  0  0
 52 50  1  0  0  0  0
 53 48  1  0  0  0  0
 54 46  1  0  0  0  0
 54 56  1  1  0  0  0
 56 55  1  0  0  0  0
M  END
>  <MODEL>
9

>  <REMARK>
 VINA RESULT:      -6.8      2.144      6.338
  Name = 
  15 active torsions:
  status: ('A' for Active; 'I' for Inactive)
    1  A    between atoms: C_2  and  C_11
    2  A    between atoms: C_2  and  N_25
    3  A    between atoms: N_3  and  C_11
    4  A    between atoms: N_3  and  S_47
    5  A    between atoms: C_5  and  S_19
    6  A    between atoms: S_19  and  C_35
    7  A    between atoms: C_21  and  C_35
    8  A    between atoms: C_24  and  C_35
    9  A    between atoms: C_24  and  O_52
   10  A    between atoms: N_25  and  C_27
   11  A    between atoms: C_27  and  C_49
   12  A    between atoms: C_28  and  S_47
   13  A    between atoms: C_32  and  CA_53
   14  A    between atoms: C_40  and  C_51
   15  A    between atoms: C_51  and  O_52
                            x       y       z     vdW  Elec       q    Type
                         _______ _______ _______ _____ _____    ______ ____

>  <TORSDO>
F 15

$$$$
