=
 OpenBabel11042412353D

 41 46  0  0  1  0  0  0  0  0999 V2000
  186.8240  178.0480  143.6870 C   0  0  0  0  0  0  0  0  0  0  0  0
  189.9150  177.3190  146.4370 C   0  0  0  0  0  0  0  0  0  0  0  0
  188.8680  177.5630  145.5280 C   0  0  0  0  0  0  0  0  0  0  0  0
  185.6990  178.2150  142.6960 C   0  0  0  0  0  2  0  0  0  0  0  0
  189.0970  177.4920  144.1910 N   0  0  0  0  0  0  0  0  0  0  0  0
  191.2840  176.9680  145.9630 C   0  0  0  0  0  1  0  0  0  0  0  0
  188.4110  177.7320  148.2870 C   0  0  0  0  0  3  0  0  0  0  0  0
  186.5400  178.1250  145.0720 C   0  0  0  0  0  0  0  0  0  0  0  0
  184.7330  179.2990  143.1550 C   0  0  0  0  0  2  0  0  0  0  0  0
  189.6810  177.4050  147.8100 C   0  0  0  0  0  3  0  0  0  0  0  0
  184.2380  178.9820  144.4860 N   0  0  0  0  0  0  0  0  0  0  0  0
  184.7460  178.2980  146.6610 O   0  0  0  0  0  0  0  0  0  0  0  0
  187.5760  177.8870  146.0040 C   0  0  0  0  0  0  0  0  0  0  0  0
  185.1460  178.4760  145.4780 C   0  0  0  0  0  0  0  0  0  0  0  0
  188.1340  177.7220  143.2610 C   0  0  0  0  0  0  0  0  0  0  0  0
  187.3690  177.9710  147.3900 C   0  0  0  0  0  3  0  0  0  0  0  0
  189.5530  176.8240  141.4280 N   0  0  0  0  0  0  0  0  0  0  0  0
  187.9340  178.2990  140.8260 N   0  0  0  0  0  2  0  0  0  0  0  0
  191.1890  176.2390  136.7400 C   0  0  0  0  0  1  0  0  0  0  0  0
  189.5400  177.9820  137.4300 C   0  0  0  0  0  2  0  0  0  0  0  0
  189.5820  177.0110  140.1000 C   0  0  0  0  0  0  0  0  0  0  0  0
  188.5280  177.6150  141.8340 C   0  0  0  0  0  0  0  0  0  0  0  0
  188.6290  177.9190  139.7420 C   0  0  0  0  0  0  0  0  0  0  0  0
  188.3410  178.3130  138.3280 C   0  0  0  0  0  2  0  0  0  0  0  0
  190.5760  176.4240  139.1480 C   0  0  0  0  0  2  0  0  0  0  0  0
  190.0690  176.5650  137.7040 C   0  0  2  0  0  3  0  0  0  0  0  0
  182.8060  179.0710  144.7360 C   0  0  0  0  0  2  0  0  0  0  0  0
  182.0350  178.9150  143.4360 C   0  0  0  0  0  2  0  0  0  0  0  0
  180.5610  178.6950  143.7230 C   0  0  0  0  0  2  0  0  0  0  0  0
  179.8550  178.1870  142.4780 C   0  0  0  0  0  2  0  0  0  0  0  0
  179.7290  179.2230  141.5520 O   0  0  0  0  0  0  0  0  0  0  0  0
  180.6430  177.8520  137.9690 S   0  0  0  0  0  0  0  0  0  0  0  0
  179.5380  178.5820  140.3240 C   0  0  2  0  0  3  0  0  0  0  0  0
  179.8270  177.1060  140.4420 C   0  0  0  0  0  2  0  0  0  0  0  0
  180.4630  179.1360  139.2490 C   0  0  1  0  0  3  0  0  0  0  0  0
  179.8780  176.5790  139.0260 C   0  0  0  0  0  2  0  0  0  0  0  0
  181.7740  179.4450  139.8010 N   0  0  0  0  0  2  0  0  0  0  0  0
  182.7290  179.3280  138.7100 C   0  0  0  0  0  2  0  0  0  0  0  0
  184.0330  178.7510  139.2250 C   0  0  2  0  0  3  0  0  0  0  0  0
  184.8890  179.7860  139.6040 O   0  0  0  0  0  1  0  0  0  0  0  0
  184.6870  177.9370  138.1280 C   0  0  0  0  0  1  0  0  0  0  0  0
  1  8  1  0  0  0  0
  2 10  2  0  0  0  0
  3 13  1  0  0  0  0
  3  2  1  0  0  0  0
  4  9  1  0  0  0  0
  4  1  1  0  0  0  0
  5  3  2  0  0  0  0
  6  2  1  0  0  0  0
  8 14  1  0  0  0  0
  8 13  2  0  0  0  0
  9 11  1  0  0  0  0
 10  7  1  0  0  0  0
 11 27  1  0  0  0  0
 11 14  1  0  0  0  0
 13 16  1  0  0  0  0
 14 12  2  0  0  0  0
 15  1  2  0  0  0  0
 15  5  1  0  0  0  0
 16  7  2  0  0  0  0
 17 22  2  0  0  0  0
 18 22  1  0  0  0  0
 20 26  1  0  0  0  0
 20 24  1  0  0  0  0
 21 17  1  0  0  0  0
 22 15  1  0  0  0  0
 23 21  2  0  0  0  0
 23 18  1  0  0  0  0
 24 23  1  0  0  0  0
 25 21  1  0  0  0  0
 26 19  1  6  0  0  0
 26 25  1  0  0  0  0
 28 29  1  0  0  0  0
 28 27  1  0  0  0  0
 30 29  1  0  0  0  0
 31 30  1  0  0  0  0
 32 36  1  0  0  0  0
 32 35  1  0  0  0  0
 33 34  1  0  0  0  0
 33 31  1  1  0  0  0
 35 37  1  1  0  0  0
 35 33  1  0  0  0  0
 36 34  1  0  0  0  0
 38 39  1  0  0  0  0
 38 37  1  0  0  0  0
 39 41  1  6  0  0  0
 39 40  1  0  0  0  0
M  END
>  <MODEL>
1

>  <REMARK>
 VINA RESULT:     -10.1      0.000      0.000
  Name = 
  10 active torsions:
  status: ('A' for Active; 'I' for Inactive)
    1  A    between atoms: C_1  and  C_33
    2  A    between atoms: C_4  and  C_21
    3  A    between atoms: C_4  and  C_29
    4  A    between atoms: N_6  and  C_33
    5  A    between atoms: N_6  and  C_40
    6  A    between atoms: C_8  and  O_28
    7  A    between atoms: C_8  and  C_29
    8  A    between atoms: C_11  and  O_28
    9  A    between atoms: C_21  and  N_22
   10  A    between atoms: C_30  and  C_37
                            x       y       z     vdW  Elec       q    Type
                         _______ _______ _______ _____ _____    ______ ____

>  <TORSDO>
F 10

$$$$
=
 OpenBabel11042412353D

 41 46  0  0  1  0  0  0  0  0999 V2000
  187.6970  178.0410  142.4050 C   0  0  0  0  0  0  0  0  0  0  0  0
  186.5510  178.0170  146.4470 C   0  0  0  0  0  0  0  0  0  0  0  0
  186.9510  178.0260  145.0970 C   0  0  0  0  0  0  0  0  0  0  0  0
  188.1160  178.1450  140.9600 C   0  0  0  0  0  2  0  0  0  0  0  0
  186.0360  178.2400  144.1180 N   0  0  0  0  0  0  0  0  0  0  0  0
  185.1310  178.2530  146.8340 C   0  0  0  0  0  1  0  0  0  0  0  0
  188.8290  177.5600  147.1240 C   0  0  0  0  0  3  0  0  0  0  0  0
  188.6850  177.8220  143.3960 C   0  0  0  0  0  0  0  0  0  0  0  0
  189.2140  177.1400  140.6430 C   0  0  0  0  0  2  0  0  0  0  0  0
  187.4920  177.7850  147.4520 C   0  0  0  0  0  3  0  0  0  0  0  0
  190.3380  177.3420  141.5470 N   0  0  0  0  0  0  0  0  0  0  0  0
  191.0570  177.6700  143.7440 O   0  0  0  0  0  0  0  0  0  0  0  0
  188.3070  177.8060  144.7580 C   0  0  0  0  0  0  0  0  0  0  0  0
  190.0900  177.5980  142.9390 C   0  0  0  0  0  0  0  0  0  0  0  0
  186.3530  178.2540  142.7960 C   0  0  0  0  0  0  0  0  0  0  0  0
  189.2310  177.5700  145.7870 C   0  0  0  0  0  3  0  0  0  0  0  0
  184.0570  177.8540  141.9320 N   0  0  0  0  0  0  0  0  0  0  0  0
  185.3300  179.3400  140.7770 N   0  0  0  0  0  2  0  0  0  0  0  0
  180.1340  178.3750  138.8760 C   0  0  0  0  0  1  0  0  0  0  0  0
  182.3970  179.3210  138.4080 C   0  0  0  0  0  2  0  0  0  0  0  0
  183.3570  178.3410  140.8960 C   0  0  0  0  0  0  0  0  0  0  0  0
  185.2490  178.4950  141.8350 C   0  0  0  0  0  0  0  0  0  0  0  0
  184.1320  179.2110  140.1860 C   0  0  0  0  0  0  0  0  0  0  0  0
  183.6450  179.9880  139.0040 C   0  0  0  0  0  2  0  0  0  0  0  0
  181.9820  177.9190  140.4850 C   0  0  0  0  0  2  0  0  0  0  0  0
  181.3880  178.9430  139.5050 C   0  0  2  0  0  3  0  0  0  0  0  0
  191.6800  177.4010  140.9870 C   0  0  0  0  0  2  0  0  0  0  0  0
  191.6210  177.3430  139.4700 C   0  0  0  0  0  2  0  0  0  0  0  0
  192.8090  176.5720  138.9260 C   0  0  0  0  0  2  0  0  0  0  0  0
  192.3360  175.4540  138.0140 C   0  0  0  0  0  2  0  0  0  0  0  0
  191.0010  175.1570  138.2870 O   0  0  0  0  0  0  0  0  0  0  0  0
  188.8140  175.0690  135.0060 S   0  0  0  0  0  0  0  0  0  0  0  0
  190.4930  174.6590  137.0820 C   0  0  2  0  0  3  0  0  0  0  0  0
  191.3620  175.0780  135.9230 C   0  0  0  0  0  2  0  0  0  0  0  0
  189.0900  175.1820  136.8030 C   0  0  1  0  0  3  0  0  0  0  0  0
  190.5770  174.7470  134.6750 C   0  0  0  0  0  2  0  0  0  0  0  0
  188.9620  176.5700  137.2180 N   0  0  0  0  0  2  0  0  0  0  0  0
  188.3650  177.2900  136.1040 C   0  0  0  0  0  2  0  0  0  0  0  0
  187.6860  178.5500  136.6070 C   0  0  2  0  0  3  0  0  0  0  0  0
  188.6000  179.3260  137.3200 O   0  0  0  0  0  1  0  0  0  0  0  0
  186.5360  178.1690  137.5150 C   0  0  0  0  0  1  0  0  0  0  0  0
  1 15  2  0  0  0  0
  1  8  1  0  0  0  0
  2  6  1  0  0  0  0
  2 10  2  0  0  0  0
  3  2  1  0  0  0  0
  4  1  1  0  0  0  0
  5  3  2  0  0  0  0
  7 10  1  0  0  0  0
  8 13  2  0  0  0  0
  9  4  1  0  0  0  0
  9 11  1  0  0  0  0
 11 14  1  0  0  0  0
 13  3  1  0  0  0  0
 13 16  1  0  0  0  0
 14  8  1  0  0  0  0
 14 12  2  0  0  0  0
 15  5  1  0  0  0  0
 16  7  2  0  0  0  0
 18 22  1  0  0  0  0
 20 24  1  0  0  0  0
 20 26  1  0  0  0  0
 21 17  1  0  0  0  0
 22 17  2  0  0  0  0
 22 15  1  0  0  0  0
 23 18  1  0  0  0  0
 23 21  2  0  0  0  0
 24 23  1  0  0  0  0
 25 21  1  0  0  0  0
 26 19  1  6  0  0  0
 26 25  1  0  0  0  0
 27 11  1  0  0  0  0
 28 27  1  0  0  0  0
 29 28  1  0  0  0  0
 30 31  1  0  0  0  0
 30 29  1  0  0  0  0
 32 35  1  0  0  0  0
 33 31  1  1  0  0  0
 34 33  1  0  0  0  0
 35 33  1  0  0  0  0
 35 37  1  6  0  0  0
 36 32  1  0  0  0  0
 36 34  1  0  0  0  0
 38 39  1  0  0  0  0
 38 37  1  0  0  0  0
 39 40  1  0  0  0  0
 39 41  1  1  0  0  0
M  END
>  <MODEL>
2

>  <REMARK>
 VINA RESULT:      -9.5      3.012      7.396
  Name = 
  10 active torsions:
  status: ('A' for Active; 'I' for Inactive)
    1  A    between atoms: C_1  and  C_33
    2  A    between atoms: C_4  and  C_21
    3  A    between atoms: C_4  and  C_29
    4  A    between atoms: N_6  and  C_33
    5  A    between atoms: N_6  and  C_40
    6  A    between atoms: C_8  and  O_28
    7  A    between atoms: C_8  and  C_29
    8  A    between atoms: C_11  and  O_28
    9  A    between atoms: C_21  and  N_22
   10  A    between atoms: C_30  and  C_37
                            x       y       z     vdW  Elec       q    Type
                         _______ _______ _______ _____ _____    ______ ____

>  <TORSDO>
F 10

$$$$
=
 OpenBabel11042412353D

 41 46  0  0  1  0  0  0  0  0999 V2000
  188.5390  177.6200  142.8180 C   0  0  0  0  0  0  0  0  0  0  0  0
  189.2570  177.0640  146.9190 C   0  0  0  0  0  0  0  0  0  0  0  0
  189.0330  177.2510  145.5420 C   0  0  0  0  0  0  0  0  0  0  0  0
  188.2910  177.9140  141.3590 C   0  0  0  0  0  2  0  0  0  0  0  0
  187.7870  177.5460  145.0900 N   0  0  0  0  0  0  0  0  0  0  0  0
  188.1500  177.1960  147.9080 C   0  0  0  0  0  1  0  0  0  0  0  0
  191.5950  176.6170  146.4820 C   0  0  0  0  0  3  0  0  0  0  0  0
  189.8540  177.3210  143.2480 C   0  0  0  0  0  0  0  0  0  0  0  0
  189.1260  176.9980  140.4750 C   0  0  0  0  0  2  0  0  0  0  0  0
  190.5360  176.7480  147.3810 C   0  0  0  0  0  3  0  0  0  0  0  0
  190.5330  177.1320  140.8230 N   0  0  0  0  0  0  0  0  0  0  0  0
  192.1400  177.2200  142.5150 O   0  0  0  0  0  0  0  0  0  0  0  0
  190.1030  177.1270  144.6260 C   0  0  0  0  0  0  0  0  0  0  0  0
  190.9180  177.2090  142.2050 C   0  0  0  0  0  0  0  0  0  0  0  0
  187.5010  177.7320  143.7740 C   0  0  0  0  0  0  0  0  0  0  0  0
  191.3780  176.8040  145.1160 C   0  0  0  0  0  3  0  0  0  0  0  0
  185.1440  178.2510  144.3700 N   0  0  0  0  0  0  0  0  0  0  0  0
  185.6240  178.1240  142.1530 N   0  0  0  0  0  2  0  0  0  0  0  0
  180.3160  179.2820  143.5750 C   0  0  0  0  0  1  0  0  0  0  0  0
  181.8980  178.5630  141.7820 C   0  0  0  0  0  2  0  0  0  0  0  0
  184.0370  178.4940  143.6520 C   0  0  0  0  0  0  0  0  0  0  0  0
  186.0930  178.0440  143.4230 C   0  0  0  0  0  0  0  0  0  0  0  0
  184.3190  178.3880  142.3220 C   0  0  0  0  0  0  0  0  0  0  0  0
  183.3290  178.6620  141.2340 C   0  0  0  0  0  2  0  0  0  0  0  0
  182.6640  178.7230  144.1990 C   0  0  0  0  0  2  0  0  0  0  0  0
  181.7570  179.3220  143.1120 C   0  0  2  0  0  3  0  0  0  0  0  0
  191.5020  177.3100  139.7500 C   0  0  0  0  0  2  0  0  0  0  0  0
  190.9160  176.8400  138.4290 C   0  0  0  0  0  2  0  0  0  0  0  0
  191.5050  175.4970  138.0410 C   0  0  0  0  0  2  0  0  0  0  0  0
  190.7870  174.9400  136.8250 C   0  0  0  0  0  2  0  0  0  0  0  0
  189.5400  175.5500  136.6940 O   0  0  0  0  0  0  0  0  0  0  0  0
  186.0670  173.7260  137.1020 S   0  0  0  0  0  0  0  0  0  0  0  0
  188.6250  174.5950  137.1480 C   0  0  2  0  0  3  0  0  0  0  0  0
  188.6120  173.3940  136.2350 C   0  0  0  0  0  2  0  0  0  0  0  0
  187.2060  175.1460  137.1860 C   0  0  1  0  0  3  0  0  0  0  0  0
  187.4060  172.5790  136.6410 C   0  0  0  0  0  2  0  0  0  0  0  0
  186.9590  176.0220  136.0510 N   0  0  0  0  0  2  0  0  0  0  0  0
  186.1990  177.1560  136.5510 C   0  0  0  0  0  2  0  0  0  0  0  0
  187.0030  177.8930  137.6050 C   0  0  2  0  0  3  0  0  0  0  0  0
  186.1540  178.6890  138.3760 O   0  0  0  0  0  1  0  0  0  0  0  0
  188.0320  178.7710  136.9250 C   0  0  0  0  0  1  0  0  0  0  0  0
  1  8  2  0  0  0  0
  1 15  1  0  0  0  0
  2 10  1  0  0  0  0
  2  6  1  0  0  0  0
  3  2  2  0  0  0  0
  4  1  1  0  0  0  0
  5  3  1  0  0  0  0
  7 10  2  0  0  0  0
  8 13  1  0  0  0  0
  9 11  1  0  0  0  0
  9  4  1  0  0  0  0
 11 14  1  0  0  0  0
 13 16  2  0  0  0  0
 13  3  1  0  0  0  0
 14 12  2  0  0  0  0
 14  8  1  0  0  0  0
 15  5  2  0  0  0  0
 16  7  1  0  0  0  0
 18 23  1  0  0  0  0
 18 22  1  0  0  0  0
 20 26  1  0  0  0  0
 21 25  1  0  0  0  0
 21 17  1  0  0  0  0
 22 15  1  0  0  0  0
 22 17  2  0  0  0  0
 23 21  2  0  0  0  0
 24 20  1  0  0  0  0
 24 23  1  0  0  0  0
 26 19  1  1  0  0  0
 26 25  1  0  0  0  0
 27 11  1  0  0  0  0
 28 27  1  0  0  0  0
 29 28  1  0  0  0  0
 30 29  1  0  0  0  0
 31 30  1  0  0  0  0
 32 35  1  0  0  0  0
 33 31  1  6  0  0  0
 33 35  1  0  0  0  0
 34 36  1  0  0  0  0
 34 33  1  0  0  0  0
 35 37  1  6  0  0  0
 36 32  1  0  0  0  0
 37 38  1  0  0  0  0
 38 39  1  0  0  0  0
 39 41  1  6  0  0  0
 39 40  1  0  0  0  0
M  END
>  <MODEL>
3

>  <REMARK>
 VINA RESULT:      -9.5      2.752      7.128
  Name = 
  10 active torsions:
  status: ('A' for Active; 'I' for Inactive)
    1  A    between atoms: C_1  and  C_33
    2  A    between atoms: C_4  and  C_21
    3  A    between atoms: C_4  and  C_29
    4  A    between atoms: N_6  and  C_33
    5  A    between atoms: N_6  and  C_40
    6  A    between atoms: C_8  and  O_28
    7  A    between atoms: C_8  and  C_29
    8  A    between atoms: C_11  and  O_28
    9  A    between atoms: C_21  and  N_22
   10  A    between atoms: C_30  and  C_37
                            x       y       z     vdW  Elec       q    Type
                         _______ _______ _______ _____ _____    ______ ____

>  <TORSDO>
F 10

$$$$
=
 OpenBabel11042412353D

 41 46  0  0  1  0  0  0  0  0999 V2000
  186.8080  178.1040  143.8080 C   0  0  0  0  0  0  0  0  0  0  0  0
  189.8230  177.2580  146.6090 C   0  0  0  0  0  0  0  0  0  0  0  0
  188.8010  177.5410  145.6820 C   0  0  0  0  0  0  0  0  0  0  0  0
  185.7070  178.3130  142.7990 C   0  0  0  0  0  2  0  0  0  0  0  0
  189.0490  177.4590  144.3500 N   0  0  0  0  0  0  0  0  0  0  0  0
  191.1840  176.8520  146.1580 C   0  0  0  0  0  1  0  0  0  0  0  0
  188.3060  177.7320  148.4340 C   0  0  0  0  0  3  0  0  0  0  0  0
  186.5050  178.1940  145.1890 C   0  0  0  0  0  0  0  0  0  0  0  0
  184.7770  179.4350  143.2400 C   0  0  0  0  0  2  0  0  0  0  0  0
  189.5700  177.3550  147.9780 C   0  0  0  0  0  3  0  0  0  0  0  0
  184.2480  179.1400  144.5640 N   0  0  0  0  0  0  0  0  0  0  0  0
  184.6930  178.4400  146.7470 O   0  0  0  0  0  0  0  0  0  0  0  0
  187.5160  177.9160  146.1380 C   0  0  0  0  0  0  0  0  0  0  0  0
  185.1190  178.6000  145.5710 C   0  0  0  0  0  0  0  0  0  0  0  0
  188.1110  177.7250  143.4040 C   0  0  0  0  0  0  0  0  0  0  0  0
  187.2890  178.0110  147.5190 C   0  0  0  0  0  3  0  0  0  0  0  0
  187.8390  178.2000  140.9790 N   0  0  0  0  0  0  0  0  0  0  0  0
  189.5860  176.8710  141.5610 N   0  0  0  0  0  2  0  0  0  0  0  0
  188.9010  177.9780  136.0980 C   0  0  0  0  0  1  0  0  0  0  0  0
  190.0020  176.5520  137.8270 C   0  0  0  0  0  2  0  0  0  0  0  0
  188.5220  177.8430  139.8810 C   0  0  0  0  0  0  0  0  0  0  0  0
  188.5240  177.6010  141.9840 C   0  0  0  0  0  0  0  0  0  0  0  0
  189.5530  177.0210  140.2280 C   0  0  0  0  0  0  0  0  0  0  0  0
  190.5590  176.4890  139.2560 C   0  0  0  0  0  2  0  0  0  0  0  0
  188.1580  178.1780  138.4690 C   0  0  0  0  0  2  0  0  0  0  0  0
  189.3550  177.9180  137.5410 C   0  0  2  0  0  3  0  0  0  0  0  0
  182.8170  179.2850  144.7900 C   0  0  0  0  0  2  0  0  0  0  0  0
  182.0410  178.3750  143.8530 C   0  0  0  0  0  2  0  0  0  0  0  0
  180.7250  179.0210  143.4620 C   0  0  0  0  0  2  0  0  0  0  0  0
  180.6690  179.2320  141.9600 C   0  0  0  0  0  2  0  0  0  0  0  0
  181.2170  178.1270  141.3090 O   0  0  0  0  0  0  0  0  0  0  0  0
  184.1940  178.1630  138.7220 S   0  0  0  0  0  0  0  0  0  0  0  0
  182.3100  178.6360  140.6000 C   0  0  2  0  0  3  0  0  0  0  0  0
  181.8500  179.3620  139.3600 C   0  0  0  0  0  2  0  0  0  0  0  0
  183.2540  177.5300  140.1490 C   0  0  1  0  0  3  0  0  0  0  0  0
  183.0940  179.6050  138.5370 C   0  0  0  0  0  2  0  0  0  0  0  0
  182.5100  176.3470  139.7410 N   0  0  0  0  0  2  0  0  0  0  0  0
  183.1370  175.8520  138.5260 C   0  0  0  0  0  2  0  0  0  0  0  0
  182.0840  175.2830  137.5960 C   0  0  2  0  0  3  0  0  0  0  0  0
  182.5020  175.4160  136.2710 O   0  0  0  0  0  1  0  0  0  0  0  0
  180.7860  176.0380  137.7890 C   0  0  0  0  0  1  0  0  0  0  0  0
  1  8  1  0  0  0  0
  2 10  2  0  0  0  0
  3 13  1  0  0  0  0
  3  2  1  0  0  0  0
  4  9  1  0  0  0  0
  4  1  1  0  0  0  0
  5  3  2  0  0  0  0
  6  2  1  0  0  0  0
  8 14  1  0  0  0  0
  8 13  2  0  0  0  0
  9 11  1  0  0  0  0
 10  7  1  0  0  0  0
 11 27  1  0  0  0  0
 11 14  1  0  0  0  0
 13 16  1  0  0  0  0
 14 12  2  0  0  0  0
 15  1  2  0  0  0  0
 15  5  1  0  0  0  0
 16  7  2  0  0  0  0
 17 22  2  0  0  0  0
 18 22  1  0  0  0  0
 20 24  1  0  0  0  0
 21 23  2  0  0  0  0
 21 17  1  0  0  0  0
 22 15  1  0  0  0  0
 23 18  1  0  0  0  0
 24 23  1  0  0  0  0
 25 21  1  0  0  0  0
 26 19  1  6  0  0  0
 26 20  1  0  0  0  0
 26 25  1  0  0  0  0
 28 27  1  0  0  0  0
 29 28  1  0  0  0  0
 30 29  1  0  0  0  0
 31 30  1  0  0  0  0
 32 35  1  0  0  0  0
 33 31  1  6  0  0  0
 34 33  1  0  0  0  0
 35 37  1  6  0  0  0
 35 33  1  0  0  0  0
 36 32  1  0  0  0  0
 36 34  1  0  0  0  0
 38 37  1  0  0  0  0
 39 41  1  6  0  0  0
 39 38  1  0  0  0  0
 40 39  1  0  0  0  0
M  END
>  <MODEL>
4

>  <REMARK>
 VINA RESULT:      -9.4      1.524      2.268
  Name = 
  10 active torsions:
  status: ('A' for Active; 'I' for Inactive)
    1  A    between atoms: C_1  and  C_33
    2  A    between atoms: C_4  and  C_21
    3  A    between atoms: C_4  and  C_29
    4  A    between atoms: N_6  and  C_33
    5  A    between atoms: N_6  and  C_40
    6  A    between atoms: C_8  and  O_28
    7  A    between atoms: C_8  and  C_29
    8  A    between atoms: C_11  and  O_28
    9  A    between atoms: C_21  and  N_22
   10  A    between atoms: C_30  and  C_37
                            x       y       z     vdW  Elec       q    Type
                         _______ _______ _______ _____ _____    ______ ____

>  <TORSDO>
F 10

$$$$
=
 OpenBabel11042412353D

 41 46  0  0  1  0  0  0  0  0999 V2000
  188.4870  177.6290  142.8280 C   0  0  0  0  0  0  0  0  0  0  0  0
  189.2250  177.1490  146.9350 C   0  0  0  0  0  0  0  0  0  0  0  0
  188.9940  177.3100  145.5560 C   0  0  0  0  0  0  0  0  0  0  0  0
  188.2330  177.8950  141.3650 C   0  0  0  0  0  2  0  0  0  0  0  0
  187.7470  177.5970  145.1040 N   0  0  0  0  0  0  0  0  0  0  0  0
  188.1230  177.3010  147.9270 C   0  0  0  0  0  1  0  0  0  0  0  0
  191.5610  176.6930  146.4960 C   0  0  0  0  0  3  0  0  0  0  0  0
  189.8050  177.3370  143.2570 C   0  0  0  0  0  0  0  0  0  0  0  0
  189.0630  176.9620  140.4950 C   0  0  0  0  0  2  0  0  0  0  0  0
  190.5060  176.8420  147.3970 C   0  0  0  0  0  3  0  0  0  0  0  0
  190.4720  177.1020  140.8330 N   0  0  0  0  0  0  0  0  0  0  0  0
  192.0870  177.2220  142.5160 O   0  0  0  0  0  0  0  0  0  0  0  0
  190.0610  177.1690  144.6380 C   0  0  0  0  0  0  0  0  0  0  0  0
  190.8640  177.2050  142.2110 C   0  0  0  0  0  0  0  0  0  0  0  0
  187.4540  177.7590  143.7870 C   0  0  0  0  0  0  0  0  0  0  0  0
  191.3370  176.8540  145.1280 C   0  0  0  0  0  3  0  0  0  0  0  0
  185.1010  178.2920  144.3840 N   0  0  0  0  0  0  0  0  0  0  0  0
  185.5690  178.1190  142.1680 N   0  0  0  0  0  0  0  0  0  0  0  0
  180.2700  179.3100  143.5930 C   0  0  0  0  0  1  0  0  0  0  0  0
  181.8420  178.5530  141.8070 C   0  0  0  0  0  2  0  0  0  0  0  0
  183.9900  178.5210  143.6670 C   0  0  1  0  0  3  0  0  0  0  0  0
  186.0450  178.0640  143.4370 C   0  0  0  0  0  0  0  0  0  0  0  0
  184.2660  178.3870  142.3370 C   0  0  0  0  0  0  0  0  0  0  0  0
  183.2690  178.6390  141.2500 C   0  0  0  0  0  2  0  0  0  0  0  0
  182.6200  178.7630  144.2170 C   0  0  0  0  0  2  0  0  0  0  0  0
  181.7080  179.3390  143.1220 C   0  0  2  0  0  3  0  0  0  0  0  0
  191.4350  177.2600  139.7520 C   0  0  0  0  0  2  0  0  0  0  0  0
  191.3270  176.1000  138.7770 C   0  0  0  0  0  2  0  0  0  0  0  0
  192.0000  176.4510  137.4640 C   0  0  0  0  0  2  0  0  0  0  0  0
  191.0000  176.3730  136.3240 C   0  0  0  0  0  2  0  0  0  0  0  0
  189.7840  175.8810  136.7980 O   0  0  0  0  0  0  0  0  0  0  0  0
  186.1730  177.1080  135.7940 S   0  0  0  0  0  0  0  0  0  0  0  0
  188.8110  176.6480  136.1480 C   0  0  2  0  0  3  0  0  0  0  0  0
  188.4970  177.8930  136.9410 C   0  0  0  0  0  2  0  0  0  0  0  0
  187.5060  175.8810  135.9830 C   0  0  1  0  0  3  0  0  0  0  0  0
  187.2530  178.4800  136.3150 C   0  0  0  0  0  2  0  0  0  0  0  0
  187.2350  175.0590  137.1520 N   0  0  0  0  0  2  0  0  0  0  0  0
  185.8260  174.7010  137.0990 C   0  0  0  0  0  2  0  0  0  0  0  0
  185.6320  173.2870  137.6100 C   0  0  2  0  0  3  0  0  0  0  0  0
  186.8300  172.5780  137.5040 O   0  0  0  0  0  1  0  0  0  0  0  0
  184.5670  172.5980  136.7830 C   0  0  0  0  0  1  0  0  0  0  0  0
  1  8  2  0  0  0  0
  1 15  1  0  0  0  0
  2 10  1  0  0  0  0
  2  6  1  0  0  0  0
  3  2  2  0  0  0  0
  4  1  1  0  0  0  0
  5  3  1  0  0  0  0
  7 10  2  0  0  0  0
  8 13  1  0  0  0  0
  9 11  1  0  0  0  0
  9  4  1  0  0  0  0
 11 14  1  0  0  0  0
 13 16  2  0  0  0  0
 13  3  1  0  0  0  0
 14 12  2  0  0  0  0
 14  8  1  0  0  0  0
 15  5  2  0  0  0  0
 16  7  1  0  0  0  0
 18 23  2  0  0  0  0
 18 22  1  0  0  0  0
 20 26  1  0  0  0  0
 21 25  1  1  0  0  0
 21 17  1  0  0  0  0
 22 15  1  0  0  0  0
 22 17  2  0  0  0  0
 23 21  1  0  0  0  0
 24 20  1  0  0  0  0
 24 23  1  0  0  0  0
 26 19  1  1  0  0  0
 26 25  1  0  0  0  0
 27 11  1  0  0  0  0
 28 27  1  0  0  0  0
 29 28  1  0  0  0  0
 30 31  1  0  0  0  0
 30 29  1  0  0  0  0
 32 35  1  0  0  0  0
 32 36  1  0  0  0  0
 33 31  1  1  0  0  0
 33 34  1  0  0  0  0
 35 33  1  0  0  0  0
 35 37  1  1  0  0  0
 36 34  1  0  0  0  0
 38 37  1  0  0  0  0
 38 39  1  0  0  0  0
 39 41  1  6  0  0  0
 40 39  1  0  0  0  0
M  END
>  <MODEL>
5

>  <REMARK>
 VINA RESULT:      -9.2      3.095      7.293
  Name = 
  10 active torsions:
  status: ('A' for Active; 'I' for Inactive)
    1  A    between atoms: C_1  and  C_33
    2  A    between atoms: C_4  and  C_21
    3  A    between atoms: C_4  and  C_29
    4  A    between atoms: N_6  and  C_33
    5  A    between atoms: N_6  and  C_40
    6  A    between atoms: C_8  and  O_28
    7  A    between atoms: C_8  and  C_29
    8  A    between atoms: C_11  and  O_28
    9  A    between atoms: C_21  and  N_22
   10  A    between atoms: C_30  and  C_37
                            x       y       z     vdW  Elec       q    Type
                         _______ _______ _______ _____ _____    ______ ____

>  <TORSDO>
F 10

$$$$
=
 OpenBabel11042412353D

 41 46  0  0  1  0  0  0  0  0999 V2000
  187.8030  177.9360  142.4510 C   0  0  0  0  0  0  0  0  0  0  0  0
  186.6910  177.9620  146.5020 C   0  0  0  0  0  0  0  0  0  0  0  0
  187.0800  177.9530  145.1490 C   0  0  0  0  0  0  0  0  0  0  0  0
  188.2130  178.0210  141.0020 C   0  0  0  0  0  2  0  0  0  0  0  0
  186.1650  178.2010  144.1770 N   0  0  0  0  0  0  0  0  0  0  0  0
  185.2840  178.2540  146.9000 C   0  0  0  0  0  1  0  0  0  0  0  0
  188.9540  177.4160  147.1610 C   0  0  0  0  0  3  0  0  0  0  0  0
  188.7900  177.6790  143.4340 C   0  0  0  0  0  0  0  0  0  0  0  0
  189.2690  176.9730  140.6780 C   0  0  0  0  0  2  0  0  0  0  0  0
  187.6300  177.6940  147.4990 C   0  0  0  0  0  3  0  0  0  0  0  0
  190.4070  177.1310  141.5720 N   0  0  0  0  0  0  0  0  0  0  0  0
  191.1570  177.4340  143.7630 O   0  0  0  0  0  0  0  0  0  0  0  0
  188.4230  177.6800  144.7990 C   0  0  0  0  0  0  0  0  0  0  0  0
  190.1810  177.3990  142.9650 C   0  0  0  0  0  0  0  0  0  0  0  0
  186.4720  178.2010  142.8530 C   0  0  0  0  0  0  0  0  0  0  0  0
  189.3450  177.4080  145.8210 C   0  0  0  0  0  3  0  0  0  0  0  0
  184.1610  177.8770  141.9980 N   0  0  0  0  0  0  0  0  0  0  0  0
  185.4700  179.3370  140.8500 N   0  0  0  0  0  0  0  0  0  0  0  0
  180.2380  178.5440  138.9690 C   0  0  0  0  0  1  0  0  0  0  0  0
  182.5250  179.4280  138.4980 C   0  0  0  0  0  2  0  0  0  0  0  0
  183.4700  178.3950  140.9710 C   0  0  1  0  0  3  0  0  0  0  0  0
  185.3700  178.4840  141.9000 C   0  0  0  0  0  0  0  0  0  0  0  0
  184.2660  179.2490  140.2650 C   0  0  0  0  0  0  0  0  0  0  0  0
  183.7950  180.0520  139.0930 C   0  0  0  0  0  2  0  0  0  0  0  0
  182.0800  178.0180  140.5630 C   0  0  0  0  0  2  0  0  0  0  0  0
  181.5120  179.0690  139.5970 C   0  0  2  0  0  3  0  0  0  0  0  0
  191.7460  177.1370  141.0010 C   0  0  0  0  0  2  0  0  0  0  0  0
  191.6880  177.5020  139.5270 C   0  0  0  0  0  2  0  0  0  0  0  0
  192.0470  176.3000  138.6730 C   0  0  0  0  0  2  0  0  0  0  0  0
  191.3530  176.3880  137.3260 C   0  0  0  0  0  2  0  0  0  0  0  0
  190.1320  175.7150  137.3810 O   0  0  0  0  0  0  0  0  0  0  0  0
  186.7850  176.8380  135.6220 S   0  0  0  0  0  0  0  0  0  0  0  0
  189.3100  176.3930  136.4750 C   0  0  2  0  0  3  0  0  0  0  0  0
  188.9230  177.7470  137.0160 C   0  0  0  0  0  2  0  0  0  0  0  0
  188.0190  175.6310  136.2060 C   0  0  1  0  0  3  0  0  0  0  0  0
  187.8220  178.2550  136.1130 C   0  0  0  0  0  2  0  0  0  0  0  0
  187.5280  174.9970  137.4200 N   0  0  0  0  0  2  0  0  0  0  0  0
  186.1740  174.5440  137.1410 C   0  0  0  0  0  2  0  0  0  0  0  0
  186.0220  173.0910  137.5460 C   0  0  2  0  0  3  0  0  0  0  0  0
  186.9420  172.3070  136.8490 O   0  0  0  0  0  1  0  0  0  0  0  0
  184.6180  172.6260  137.2190 C   0  0  0  0  0  1  0  0  0  0  0  0
  1 15  2  0  0  0  0
  1  8  1  0  0  0  0
  2  6  1  0  0  0  0
  2 10  2  0  0  0  0
  3  2  1  0  0  0  0
  4  1  1  0  0  0  0
  5  3  2  0  0  0  0
  7 10  1  0  0  0  0
  8 13  2  0  0  0  0
  9  4  1  0  0  0  0
  9 11  1  0  0  0  0
 11 14  1  0  0  0  0
 13  3  1  0  0  0  0
 13 16  1  0  0  0  0
 14  8  1  0  0  0  0
 14 12  2  0  0  0  0
 15  5  1  0  0  0  0
 16  7  2  0  0  0  0
 18 22  1  0  0  0  0
 20 24  1  0  0  0  0
 20 26  1  0  0  0  0
 21 25  1  6  0  0  0
 21 17  1  0  0  0  0
 22 17  2  0  0  0  0
 22 15  1  0  0  0  0
 23 18  2  0  0  0  0
 23 21  1  0  0  0  0
 24 23  1  0  0  0  0
 26 19  1  6  0  0  0
 26 25  1  0  0  0  0
 27 11  1  0  0  0  0
 28 27  1  0  0  0  0
 29 28  1  0  0  0  0
 30 31  1  0  0  0  0
 30 29  1  0  0  0  0
 32 36  1  0  0  0  0
 32 35  1  0  0  0  0
 33 34  1  0  0  0  0
 33 31  1  1  0  0  0
 35 33  1  0  0  0  0
 35 37  1  1  0  0  0
 36 34  1  0  0  0  0
 38 37  1  0  0  0  0
 38 39  1  0  0  0  0
 39 41  1  6  0  0  0
 40 39  1  0  0  0  0
M  END
>  <MODEL>
6

>  <REMARK>
 VINA RESULT:      -8.9      3.068      7.073
  Name = 
  10 active torsions:
  status: ('A' for Active; 'I' for Inactive)
    1  A    between atoms: C_1  and  C_33
    2  A    between atoms: C_4  and  C_21
    3  A    between atoms: C_4  and  C_29
    4  A    between atoms: N_6  and  C_33
    5  A    between atoms: N_6  and  C_40
    6  A    between atoms: C_8  and  O_28
    7  A    between atoms: C_8  and  C_29
    8  A    between atoms: C_11  and  O_28
    9  A    between atoms: C_21  and  N_22
   10  A    between atoms: C_30  and  C_37
                            x       y       z     vdW  Elec       q    Type
                         _______ _______ _______ _____ _____    ______ ____

>  <TORSDO>
F 10

$$$$
=
 OpenBabel11042412353D

 41 46  0  0  1  0  0  0  0  0999 V2000
  185.1020  178.6050  142.4040 C   0  0  0  0  0  0  0  0  0  0  0  0
  181.2630  179.0710  140.7640 C   0  0  0  0  0  0  0  0  0  0  0  0
  182.5430  178.9190  141.3290 C   0  0  0  0  0  0  0  0  0  0  0  0
  186.4930  178.5320  142.9830 C   0  0  0  0  0  2  0  0  0  0  0  0
  183.6280  178.7770  140.5250 N   0  0  0  0  0  0  0  0  0  0  0  0
  181.0660  179.0930  139.2860 C   0  0  0  0  0  1  0  0  0  0  0  0
  180.2940  179.1860  142.9780 C   0  0  0  0  0  3  0  0  0  0  0  0
  183.9980  178.7570  143.2780 C   0  0  0  0  0  0  0  0  0  0  0  0
  186.4990  177.7170  144.2690 C   0  0  0  0  0  2  0  0  0  0  0  0
  180.1460  179.2040  141.5910 C   0  0  0  0  0  3  0  0  0  0  0  0
  185.5500  178.2870  145.2140 N   0  0  0  0  0  0  0  0  0  0  0  0
  183.4010  179.1280  145.5750 O   0  0  0  0  0  0  0  0  0  0  0  0
  182.7010  178.9080  142.7340 C   0  0  0  0  0  0  0  0  0  0  0  0
  184.2650  178.7310  144.7480 C   0  0  0  0  0  0  0  0  0  0  0  0
  184.8900  178.6200  141.0040 C   0  0  0  0  0  0  0  0  0  0  0  0
  181.5620  179.0390  143.5430 C   0  0  0  0  0  3  0  0  0  0  0  0
  185.7310  178.2750  138.6910 N   0  0  0  0  0  0  0  0  0  0  0  0
  187.3020  178.4890  140.3180 N   0  0  0  0  0  0  0  0  0  0  0  0
  189.1260  177.6950  135.0660 C   0  0  0  0  0  1  0  0  0  0  0  0
  189.6760  177.6880  137.5020 C   0  0  0  0  0  2  0  0  0  0  0  0
  186.9560  178.1900  138.1510 C   0  0  1  0  0  3  0  0  0  0  0  0
  185.9810  178.4710  140.0090 C   0  0  0  0  0  0  0  0  0  0  0  0
  187.8980  178.2890  139.1330 C   0  0  0  0  0  0  0  0  0  0  0  0
  189.3720  178.3000  138.8760 C   0  0  0  0  0  2  0  0  0  0  0  0
  187.2700  177.9040  136.7170 C   0  0  0  0  0  2  0  0  0  0  0  0
  188.7380  178.2490  136.4210 C   0  0  2  0  0  3  0  0  0  0  0  0
  185.9790  178.5040  146.5880 C   0  0  0  0  0  2  0  0  0  0  0  0
  187.1000  177.5430  146.9470 C   0  0  0  0  0  2  0  0  0  0  0  0
  187.6980  177.9110  148.2920 C   0  0  0  0  0  2  0  0  0  0  0  0
  189.1630  178.2760  148.1330 C   0  0  0  0  0  2  0  0  0  0  0  0
  189.5810  177.9880  146.8340 O   0  0  0  0  0  0  0  0  0  0  0  0
  192.3390  175.3000  145.9830 S   0  0  0  0  0  0  0  0  0  0  0  0
  190.3090  176.7990  146.9480 C   0  0  2  0  0  3  0  0  0  0  0  0
  191.4460  176.9620  147.9260 C   0  0  0  0  0  2  0  0  0  0  0  0
  190.9190  176.3810  145.6170 C   0  0  1  0  0  3  0  0  0  0  0  0
  192.3220  175.7430  147.7500 C   0  0  0  0  0  2  0  0  0  0  0  0
  191.3830  177.5420  144.8710 N   0  0  0  0  0  2  0  0  0  0  0  0
  191.6810  177.0850  143.5230 C   0  0  0  0  0  2  0  0  0  0  0  0
  190.6430  177.6210  142.5550 C   0  0  2  0  0  3  0  0  0  0  0  0
  189.9340  178.6640  143.1530 O   0  0  0  0  0  1  0  0  0  0  0  0
  189.6830  176.5100  142.1850 C   0  0  0  0  0  1  0  0  0  0  0  0
  1  4  1  0  0  0  0
  1  8  1  0  0  0  0
  2  3  1  0  0  0  0
  2 10  2  0  0  0  0
  3 13  1  0  0  0  0
  4  9  1  0  0  0  0
  5 15  1  0  0  0  0
  5  3  2  0  0  0  0
  6  2  1  0  0  0  0
  7 16  2  0  0  0  0
  8 14  1  0  0  0  0
  9 11  1  0  0  0  0
 10  7  1  0  0  0  0
 11 27  1  0  0  0  0
 13  8  2  0  0  0  0
 13 16  1  0  0  0  0
 14 11  1  0  0  0  0
 14 12  2  0  0  0  0
 15  1  2  0  0  0  0
 17 22  2  0  0  0  0
 20 24  1  0  0  0  0
 21 25  1  1  0  0  0
 21 17  1  0  0  0  0
 21 23  1  0  0  0  0
 22 18  1  0  0  0  0
 22 15  1  0  0  0  0
 23 18  2  0  0  0  0
 24 23  1  0  0  0  0
 26 19  1  6  0  0  0
 26 25  1  0  0  0  0
 26 20  1  0  0  0  0
 27 28  1  0  0  0  0
 28 29  1  0  0  0  0
 30 29  1  0  0  0  0
 31 30  1  0  0  0  0
 32 36  1  0  0  0  0
 33 31  1  6  0  0  0
 33 34  1  0  0  0  0
 35 37  1  1  0  0  0
 35 32  1  0  0  0  0
 35 33  1  0  0  0  0
 36 34  1  0  0  0  0
 38 37  1  0  0  0  0
 39 41  1  1  0  0  0
 39 40  1  0  0  0  0
 39 38  1  0  0  0  0
M  END
>  <MODEL>
7

>  <REMARK>
 VINA RESULT:      -8.9      3.010      7.816
  Name = 
  10 active torsions:
  status: ('A' for Active; 'I' for Inactive)
    1  A    between atoms: C_1  and  C_33
    2  A    between atoms: C_4  and  C_21
    3  A    between atoms: C_4  and  C_29
    4  A    between atoms: N_6  and  C_33
    5  A    between atoms: N_6  and  C_40
    6  A    between atoms: C_8  and  O_28
    7  A    between atoms: C_8  and  C_29
    8  A    between atoms: C_11  and  O_28
    9  A    between atoms: C_21  and  N_22
   10  A    between atoms: C_30  and  C_37
                            x       y       z     vdW  Elec       q    Type
                         _______ _______ _______ _____ _____    ______ ____

>  <TORSDO>
F 10

$$$$
=
 OpenBabel11042412353D

 41 46  0  0  1  0  0  0  0  0999 V2000
  183.9730  178.4420  141.9860 C   0  0  0  0  0  0  0  0  0  0  0  0
  179.8100  178.7760  141.5310 C   0  0  0  0  0  0  0  0  0  0  0  0
  181.2040  178.6700  141.6990 C   0  0  0  0  0  0  0  0  0  0  0  0
  185.4740  178.4150  142.1260 C   0  0  0  0  0  2  0  0  0  0  0  0
  182.0020  178.4320  140.6270 N   0  0  0  0  0  0  0  0  0  0  0  0
  179.1800  178.6450  140.1860 C   0  0  0  0  0  1  0  0  0  0  0  0
  179.5460  179.1350  143.9100 C   0  0  0  0  0  3  0  0  0  0  0  0
  183.1770  178.6980  143.1290 C   0  0  0  0  0  0  0  0  0  0  0  0
  185.8820  177.7410  143.4290 C   0  0  0  0  0  2  0  0  0  0  0  0
  178.9890  179.0080  142.6370 C   0  0  0  0  0  3  0  0  0  0  0  0
  185.2470  178.4180  144.5500 N   0  0  0  0  0  0  0  0  0  0  0  0
  183.2870  179.3160  145.4480 O   0  0  0  0  0  0  0  0  0  0  0  0
  181.7750  178.8060  142.9860 C   0  0  0  0  0  0  0  0  0  0  0  0
  183.8730  178.8240  144.4460 C   0  0  0  0  0  0  0  0  0  0  0  0
  183.3520  178.3120  140.7200 C   0  0  0  0  0  0  0  0  0  0  0  0
  180.9270  179.0340  144.0810 C   0  0  0  0  0  3  0  0  0  0  0  0
  185.3070  178.6080  139.2140 N   0  0  0  0  0  0  0  0  0  0  0  0
  183.6430  177.2570  138.4610 N   0  0  0  0  0  0  0  0  0  0  0  0
  188.0870  177.9840  135.1050 C   0  0  0  0  0  1  0  0  0  0  0  0
  185.7260  177.2010  135.3190 C   0  0  0  0  0  2  0  0  0  0  0  0
  185.6280  178.1260  138.0030 C   0  0  1  0  0  3  0  0  0  0  0  0
  184.0980  178.0470  139.4650 C   0  0  0  0  0  0  0  0  0  0  0  0
  184.6150  177.3380  137.5390 C   0  0  0  0  0  0  0  0  0  0  0  0
  184.6690  176.5860  136.2470 C   0  0  0  0  0  2  0  0  0  0  0  0
  186.8440  178.4800  137.2070 C   0  0  0  0  0  2  0  0  0  0  0  0
  187.0410  177.4660  136.0690 C   0  0  2  0  0  3  0  0  0  0  0  0
  186.0630  178.7740  145.7020 C   0  0  0  0  0  2  0  0  0  0  0  0
  186.4990  177.5220  146.4450 C   0  0  0  0  0  2  0  0  0  0  0  0
  187.7110  177.8180  147.3080 C   0  0  0  0  0  2  0  0  0  0  0  0
  188.9220  177.0620  146.7900 C   0  0  0  0  0  2  0  0  0  0  0  0
  188.8490  176.9530  145.4020 O   0  0  0  0  0  0  0  0  0  0  0  0
  191.8310  177.2810  142.8420 S   0  0  0  0  0  0  0  0  0  0  0  0
  190.1510  177.2060  144.9550 C   0  0  2  0  0  3  0  0  0  0  0  0
  190.3220  178.6650  144.6140 C   0  0  0  0  0  2  0  0  0  0  0  0
  190.4810  176.4100  143.7000 C   0  0  1  0  0  3  0  0  0  0  0  0
  191.6390  178.7670  143.8790 C   0  0  0  0  0  2  0  0  0  0  0  0
  189.3280  176.3310  142.8170 N   0  0  0  0  0  2  0  0  0  0  0  0
  189.8210  176.5220  141.4620 C   0  0  0  0  0  2  0  0  0  0  0  0
  188.7840  177.2540  140.6320 C   0  0  2  0  0  3  0  0  0  0  0  0
  189.1430  177.2130  139.2840 O   0  0  0  0  0  1  0  0  0  0  0  0
  188.7100  178.6970  141.0870 C   0  0  0  0  0  1  0  0  0  0  0  0
  1  4  1  0  0  0  0
  1  8  1  0  0  0  0
  2  3  1  0  0  0  0
  2 10  2  0  0  0  0
  3 13  1  0  0  0  0
  4  9  1  0  0  0  0
  5 15  1  0  0  0  0
  5  3  2  0  0  0  0
  6  2  1  0  0  0  0
  7 16  2  0  0  0  0
  8 14  1  0  0  0  0
  9 11  1  0  0  0  0
 10  7  1  0  0  0  0
 11 27  1  0  0  0  0
 13  8  2  0  0  0  0
 13 16  1  0  0  0  0
 14 11  1  0  0  0  0
 14 12  2  0  0  0  0
 15  1  2  0  0  0  0
 17 22  2  0  0  0  0
 18 22  1  0  0  0  0
 20 26  1  0  0  0  0
 20 24  1  0  0  0  0
 21 25  1  6  0  0  0
 21 17  1  0  0  0  0
 22 15  1  0  0  0  0
 23 21  1  0  0  0  0
 23 18  2  0  0  0  0
 24 23  1  0  0  0  0
 26 19  1  6  0  0  0
 26 25  1  0  0  0  0
 27 28  1  0  0  0  0
 28 29  1  0  0  0  0
 30 29  1  0  0  0  0
 31 30  1  0  0  0  0
 32 35  1  0  0  0  0
 32 36  1  0  0  0  0
 33 31  1  6  0  0  0
 34 33  1  0  0  0  0
 35 37  1  6  0  0  0
 35 33  1  0  0  0  0
 36 34  1  0  0  0  0
 38 37  1  0  0  0  0
 39 41  1  1  0  0  0
 39 38  1  0  0  0  0
 40 39  1  0  0  0  0
M  END
>  <MODEL>
8

>  <REMARK>
 VINA RESULT:      -8.9      2.764      7.505
  Name = 
  10 active torsions:
  status: ('A' for Active; 'I' for Inactive)
    1  A    between atoms: C_1  and  C_33
    2  A    between atoms: C_4  and  C_21
    3  A    between atoms: C_4  and  C_29
    4  A    between atoms: N_6  and  C_33
    5  A    between atoms: N_6  and  C_40
    6  A    between atoms: C_8  and  O_28
    7  A    between atoms: C_8  and  C_29
    8  A    between atoms: C_11  and  O_28
    9  A    between atoms: C_21  and  N_22
   10  A    between atoms: C_30  and  C_37
                            x       y       z     vdW  Elec       q    Type
                         _______ _______ _______ _____ _____    ______ ____

>  <TORSDO>
F 10

$$$$
=
 OpenBabel11042412353D

 41 46  0  0  1  0  0  0  0  0999 V2000
  188.4850  177.6160  142.9040 C   0  0  0  0  0  0  0  0  0  0  0  0
  189.3540  177.0390  146.9730 C   0  0  0  0  0  0  0  0  0  0  0  0
  189.0790  177.2330  145.6060 C   0  0  0  0  0  0  0  0  0  0  0  0
  188.1830  177.9180  141.4570 C   0  0  0  0  0  2  0  0  0  0  0  0
  187.8180  177.5290  145.2020 N   0  0  0  0  0  0  0  0  0  0  0  0
  188.2840  177.1650  148.0030 C   0  0  0  0  0  1  0  0  0  0  0  0
  191.6750  176.5990  146.4490 C   0  0  0  0  0  3  0  0  0  0  0  0
  189.8160  177.3170  143.2840 C   0  0  0  0  0  0  0  0  0  0  0  0
  188.9870  177.0070  140.5380 C   0  0  0  0  0  2  0  0  0  0  0  0
  190.6500  176.7240  147.3870 C   0  0  0  0  0  3  0  0  0  0  0  0
  190.4060  177.1420  140.8350 N   0  0  0  0  0  0  0  0  0  0  0  0
  192.0730  177.2250  142.4680 O   0  0  0  0  0  0  0  0  0  0  0  0
  190.1160  177.1160  144.6510 C   0  0  0  0  0  0  0  0  0  0  0  0
  190.8410  177.2120  142.2020 C   0  0  0  0  0  0  0  0  0  0  0  0
  187.4830  177.7210  143.8990 C   0  0  0  0  0  0  0  0  0  0  0  0
  191.4080  176.7920  145.0930 C   0  0  0  0  0  3  0  0  0  0  0  0
  185.5870  178.0850  142.3320 N   0  0  0  0  0  0  0  0  0  0  0  0
  185.1300  178.3130  144.5460 N   0  0  0  0  0  2  0  0  0  0  0  0
  180.8990  179.1340  140.9450 C   0  0  0  0  0  1  0  0  0  0  0  0
  181.7570  179.4150  143.2730 C   0  0  0  0  0  2  0  0  0  0  0  0
  184.2920  178.3920  142.4980 C   0  0  0  0  0  0  0  0  0  0  0  0
  186.0630  178.0320  143.6010 C   0  0  0  0  0  0  0  0  0  0  0  0
  184.0250  178.5580  143.8250 C   0  0  0  0  0  0  0  0  0  0  0  0
  182.6620  178.8420  144.3730 C   0  0  0  0  0  2  0  0  0  0  0  0
  183.2990  178.6440  141.4080 C   0  0  0  0  0  2  0  0  0  0  0  0
  181.8710  178.5990  141.9750 C   0  0  2  0  0  3  0  0  0  0  0  0
  191.3340  177.3280  139.7280 C   0  0  0  0  0  2  0  0  0  0  0  0
  191.1700  176.2110  138.7110 C   0  0  0  0  0  2  0  0  0  0  0  0
  190.7700  176.7820  137.3630 C   0  0  0  0  0  2  0  0  0  0  0  0
  191.4080  175.9800  136.2430 C   0  0  0  0  0  2  0  0  0  0  0  0
  192.5100  175.2800  136.7340 O   0  0  0  0  0  0  0  0  0  0  0  0
  194.3970  172.3050  134.9620 S   0  0  0  0  0  0  0  0  0  0  0  0
  192.7440  174.2750  135.7900 C   0  0  2  0  0  3  0  0  0  0  0  0
  192.0940  172.9820  136.2160 C   0  0  0  0  0  2  0  0  0  0  0  0
  194.2320  173.9950  135.6220 C   0  0  1  0  0  3  0  0  0  0  0  0
  192.6480  171.9180  135.2980 C   0  0  0  0  0  2  0  0  0  0  0  0
  194.9230  174.0770  136.9000 N   0  0  0  0  0  2  0  0  0  0  0  0
  196.1530  174.8170  136.6670 C   0  0  0  0  0  2  0  0  0  0  0  0
  197.2220  174.3650  137.6430 C   0  0  2  0  0  3  0  0  0  0  0  0
  198.1080  175.4130  137.8920 O   0  0  0  0  0  1  0  0  0  0  0  0
  197.9810  173.1970  137.0480 C   0  0  0  0  0  1  0  0  0  0  0  0
  1  8  2  0  0  0  0
  1 15  1  0  0  0  0
  2 10  1  0  0  0  0
  2  6  1  0  0  0  0
  3  2  2  0  0  0  0
  4  1  1  0  0  0  0
  5  3  1  0  0  0  0
  7 10  2  0  0  0  0
  8 13  1  0  0  0  0
  9 11  1  0  0  0  0
  9  4  1  0  0  0  0
 11 14  1  0  0  0  0
 13 16  2  0  0  0  0
 13  3  1  0  0  0  0
 14 12  2  0  0  0  0
 14  8  1  0  0  0  0
 15  5  2  0  0  0  0
 16  7  1  0  0  0  0
 17 21  1  0  0  0  0
 17 22  2  0  0  0  0
 20 24  1  0  0  0  0
 21 23  2  0  0  0  0
 22 15  1  0  0  0  0
 22 18  1  0  0  0  0
 23 24  1  0  0  0  0
 23 18  1  0  0  0  0
 25 26  1  0  0  0  0
 25 21  1  0  0  0  0
 26 19  1  6  0  0  0
 26 20  1  0  0  0  0
 27 11  1  0  0  0  0
 28 27  1  0  0  0  0
 29 28  1  0  0  0  0
 30 31  1  0  0  0  0
 30 29  1  0  0  0  0
 32 36  1  0  0  0  0
 32 35  1  0  0  0  0
 33 34  1  0  0  0  0
 33 31  1  1  0  0  0
 35 33  1  0  0  0  0
 35 37  1  1  0  0  0
 36 34  1  0  0  0  0
 38 37  1  0  0  0  0
 38 39  1  0  0  0  0
 39 41  1  6  0  0  0
 39 40  1  0  0  0  0
M  END
>  <MODEL>
9

>  <REMARK>
 VINA RESULT:      -8.7      4.587      9.465
  Name = 
  10 active torsions:
  status: ('A' for Active; 'I' for Inactive)
    1  A    between atoms: C_1  and  C_33
    2  A    between atoms: C_4  and  C_21
    3  A    between atoms: C_4  and  C_29
    4  A    between atoms: N_6  and  C_33
    5  A    between atoms: N_6  and  C_40
    6  A    between atoms: C_8  and  O_28
    7  A    between atoms: C_8  and  C_29
    8  A    between atoms: C_11  and  O_28
    9  A    between atoms: C_21  and  N_22
   10  A    between atoms: C_30  and  C_37
                            x       y       z     vdW  Elec       q    Type
                         _______ _______ _______ _____ _____    ______ ____

>  <TORSDO>
F 10

$$$$
