=
 OpenBabel11042413313D

 41 43  0  0  1  0  0  0  0  0999 V2000
  185.6730  178.4680  138.0770 C   0  0  0  0  0  3  0  0  0  0  0  0
  186.9770  178.4110  137.8110 C   0  0  0  0  0  3  0  0  0  0  0  0
  185.0840  177.9280  139.3380 C   0  0  1  0  0  3  0  0  0  0  0  0
  186.9210  178.5120  140.8870 C   0  0  0  0  0  3  0  0  0  0  0  0
  184.7480  179.3350  141.5300 C   0  0  0  0  0  1  0  0  0  0  0  0
  188.0100  177.8830  138.7270 C   0  0  0  0  0  3  0  0  0  0  0  0
  187.9750  177.8720  140.0680 C   0  0  0  0  0  0  0  0  0  0  0  0
  185.6320  178.6190  140.5650 C   0  0  0  0  0  0  0  0  0  0  0  0
  183.1380  176.3070  139.2920 C   0  0  0  0  0  1  0  0  0  0  0  0
  183.5490  177.7800  139.2460 C   0  0  2  0  0  3  0  0  0  0  0  0
  183.0130  177.5460  136.9120 C   0  0  0  0  0  1  0  0  0  0  0  0
  183.0090  178.4580  138.0560 N   0  0  0  0  0  0  0  0  0  0  0  0
  179.8420  181.1510  135.6970 C   0  0  0  0  0  1  0  0  0  0  0  0
  181.6040  179.9330  139.4810 C   0  0  2  0  0  3  0  0  0  0  0  0
  180.4860  180.9640  139.3330 C   0  0  0  0  0  2  0  0  0  0  0  0
  180.8750  180.8320  136.7620 C   0  0  1  0  0  3  0  0  0  0  0  0
  181.6360  178.9310  138.3170 C   0  0  1  0  0  3  0  0  0  0  0  0
  180.6220  181.6440  138.0060 C   0  0  0  0  0  0  0  0  0  0  0  0
  180.5560  182.8620  137.9420 O   0  0  0  0  0  0  0  0  0  0  0  0
  180.8320  179.3300  137.0550 C   0  0  0  0  0  2  0  0  0  0  0  0
  181.4520  179.1720  140.7880 C   0  0  0  0  0  2  0  0  0  0  0  0
  179.3900  177.8070  141.0620 C   0  0  0  0  0  1  0  0  0  0  0  0
  180.0100  179.1810  141.2630 C   0  0  1  0  0  3  0  0  0  0  0  0
  179.9830  179.5450  142.7110 C   0  0  0  0  0  3  0  0  0  0  0  0
  180.2980  178.6500  143.6450 C   0  0  0  0  0  2  0  0  0  0  0  0
  189.1660  177.3320  140.7850 C   0  0  0  0  0  2  0  0  0  0  0  0
  189.1450  177.7240  142.2570 C   0  0  2  0  0  3  0  0  0  0  0  0
  191.5590  177.1410  142.4880 O   0  0  0  0  0  0  0  0  0  0  0  0
  190.5240  178.0260  142.7560 C   0  0  0  0  0  0  0  0  0  0  0  0
  190.7520  179.0720  143.4210 O   0  0  0  0  0  1  0  0  0  0  0  0
  188.5010  176.6130  143.0730 C   0  0  0  0  0  2  0  0  0  0  0  0
  187.8150  177.1770  144.2710 C   0  0  0  0  0  0  0  0  0  0  0  0
  186.5340  177.5810  144.2750 N   0  0  0  0  0  0  0  0  0  0  0  0
  188.3600  177.3020  145.5280 C   0  0  0  0  0  0  0  0  0  0  0  0
  187.3960  177.8160  146.3700 C   0  0  0  0  0  3  0  0  0  0  0  0
  186.2880  177.9720  145.5460 C   0  0  0  0  0  0  0  0  0  0  0  0
  184.7300  178.5960  147.2160 O   0  0  0  0  0  0  0  0  0  0  0  0
  184.9910  178.5010  145.9880 C   0  0  0  0  0  0  0  0  0  0  0  0
  183.9710  178.9300  144.9930 C   0  0  0  0  0  1  0  0  0  0  0  0
  190.1190  176.8510  147.2780 C   0  0  0  0  0  1  0  0  0  0  0  0
  189.6940  176.9410  145.8910 N   0  0  0  0  0  0  0  0  0  0  0  0
  1  3  1  0  0  0  0
  2  1  2  0  0  0  0
  2  6  1  0  0  0  0
  3 10  1  6  0  0  0
  3  8  1  0  0  0  0
  6  7  2  0  0  0  0
  7 26  1  0  0  0  0
  7  4  1  0  0  0  0
  8  4  2  0  0  0  0
  8  5  1  0  0  0  0
 10  9  1  6  0  0  0
 11 12  1  0  0  0  0
 12 10  1  0  0  0  0
 14 21  1  1  0  0  0
 15 14  1  0  0  0  0
 16 13  1  6  0  0  0
 16 20  1  0  0  0  0
 16 18  1  0  0  0  0
 17 12  1  6  0  0  0
 17 14  1  0  0  0  0
 18 15  1  0  0  0  0
 19 18  2  0  0  0  0
 20 17  1  0  0  0  0
 21 23  1  0  0  0  0
 23 22  1  1  0  0  0
 23 24  1  0  0  0  0
 24 25  2  0  0  0  0
 27 26  1  6  0  0  0
 27 29  1  0  0  0  0
 27 31  1  0  0  0  0
 28 29  2  0  0  0  0
 29 30  1  0  0  0  0
 31 32  1  0  0  0  0
 32 33  2  0  0  0  0
 32 34  1  0  0  0  0
 33 36  1  0  0  0  0
 34 41  2  0  0  0  0
 34 35  1  0  0  0  0
 36 38  1  0  0  0  0
 36 35  2  0  0  0  0
 38 37  2  0  0  0  0
 39 38  1  0  0  0  0
 41 40  1  0  0  0  0
M  END
>  <MODEL>
1

>  <REMARK>
 VINA RESULT:      -7.5      0.000      0.000
  Name = 
  13 active torsions:
  status: ('A' for Active; 'I' for Inactive)
    1  A    between atoms: C_5  and  C_19
    2  A    between atoms: C_5  and  C_33
    3  A    between atoms: C_6  and  C_8
    4  A    between atoms: C_6  and  C_38
    5  A    between atoms: C_9  and  C_36
    6  A    between atoms: C_14  and  N_35
    7  A    between atoms: C_16  and  C_26
    8  A    between atoms: C_19  and  C_21
    9  A    between atoms: C_19  and  C_26
   10  A    between atoms: C_20  and  C_38
   11  A    between atoms: C_23  and  N_32
   12  A    between atoms: N_35  and  C_36
   13  A    between atoms: C_37  and  C_39
                            x       y       z     vdW  Elec       q    Type
                         _______ _______ _______ _____ _____    ______ ____

>  <TORSDO>
F 13

$$$$
=
 OpenBabel11042413313D

 41 43  0  0  1  0  0  0  0  0999 V2000
  190.5470  177.6170  138.9550 C   0  0  0  0  0  3  0  0  0  0  0  0
  191.3810  177.5390  139.9910 C   0  0  0  0  0  3  0  0  0  0  0  0
  189.1580  177.0710  138.9980 C   0  0  1  0  0  3  0  0  0  0  0  0
  188.6220  177.6010  141.3530 C   0  0  0  0  0  3  0  0  0  0  0  0
  187.0520  178.4560  139.7350 C   0  0  0  0  0  1  0  0  0  0  0  0
  191.0420  176.9800  141.3160 C   0  0  0  0  0  3  0  0  0  0  0  0
  189.8350  176.9520  141.9000 C   0  0  0  0  0  0  0  0  0  0  0  0
  188.3160  177.7360  140.0620 C   0  0  0  0  0  0  0  0  0  0  0  0
  187.7180  178.2000  137.2450 C   0  0  0  0  0  1  0  0  0  0  0  0
  188.5360  176.9530  137.5890 C   0  0  2  0  0  3  0  0  0  0  0  0
  186.3160  176.0560  137.3510 C   0  0  0  0  0  1  0  0  0  0  0  0
  187.7370  175.7240  137.4490 N   0  0  0  0  0  0  0  0  0  0  0  0
  185.7570  172.3830  134.6630 C   0  0  0  0  0  1  0  0  0  0  0  0
  189.3080  174.0030  136.5790 C   0  0  2  0  0  3  0  0  0  0  0  0
  189.2860  172.7560  135.6990 C   0  0  0  0  0  2  0  0  0  0  0  0
  186.6890  172.9310  135.7280 C   0  0  1  0  0  3  0  0  0  0  0  0
  188.1610  174.9730  136.2520 C   0  0  1  0  0  3  0  0  0  0  0  0
  187.9440  172.1010  135.8110 C   0  0  0  0  0  0  0  0  0  0  0  0
  187.8750  170.8970  135.9990 O   0  0  0  0  0  0  0  0  0  0  0  0
  187.0040  174.3930  135.4020 C   0  0  0  0  0  2  0  0  0  0  0  0
  190.6320  174.7340  136.4320 C   0  0  0  0  0  2  0  0  0  0  0  0
  192.4980  173.1260  136.0850 C   0  0  0  0  0  1  0  0  0  0  0  0
  191.7560  173.9710  137.1090 C   0  0  1  0  0  3  0  0  0  0  0  0
  192.6940  174.9500  137.7350 C   0  0  0  0  0  3  0  0  0  0  0  0
  193.1780  175.9740  137.0350 C   0  0  0  0  0  2  0  0  0  0  0  0
  189.7450  176.3800  143.2740 C   0  0  0  0  0  2  0  0  0  0  0  0
  189.6040  177.4800  144.3180 C   0  0  2  0  0  3  0  0  0  0  0  0
  191.7370  177.4860  145.6100 O   0  0  0  0  0  1  0  0  0  0  0  0
  190.9330  178.0860  144.6510 C   0  0  0  0  0  0  0  0  0  0  0  0
  191.3250  179.1340  144.0720 O   0  0  0  0  0  0  0  0  0  0  0  0
  188.9330  176.9210  145.5630 C   0  0  0  0  0  2  0  0  0  0  0  0
  187.6190  177.5890  145.7930 C   0  0  0  0  0  0  0  0  0  0  0  0
  186.7500  177.8820  144.8110 N   0  0  0  0  0  0  0  0  0  0  0  0
  187.0940  177.9360  147.0160 C   0  0  1  0  0  3  0  0  0  0  0  0
  185.8440  178.4820  146.8120 C   0  0  0  0  0  3  0  0  0  0  0  0
  185.6810  178.4270  145.4340 C   0  0  0  0  0  0  0  0  0  0  0  0
  183.4490  179.2150  145.3540 O   0  0  0  0  0  0  0  0  0  0  0  0
  184.4900  178.9030  144.7170 C   0  0  0  0  0  0  0  0  0  0  0  0
  184.4970  179.0220  143.2340 C   0  0  0  0  0  1  0  0  0  0  0  0
  188.9930  178.3900  148.6120 C   0  0  0  0  0  1  0  0  0  0  0  0
  187.7360  177.7420  148.2780 N   0  0  0  0  0  2  0  0  0  0  0  0
  1  3  1  0  0  0  0
  1  2  2  0  0  0  0
  2  6  1  0  0  0  0
  3 10  1  6  0  0  0
  3  8  1  0  0  0  0
  4  7  1  0  0  0  0
  5  8  1  0  0  0  0
  6  7  2  0  0  0  0
  7 26  1  0  0  0  0
  8  4  2  0  0  0  0
 10  9  1  1  0  0  0
 11 12  1  0  0  0  0
 12 10  1  0  0  0  0
 14 21  1  6  0  0  0
 15 18  1  0  0  0  0
 15 14  1  0  0  0  0
 16 13  1  6  0  0  0
 16 18  1  0  0  0  0
 17 14  1  0  0  0  0
 17 12  1  1  0  0  0
 18 19  2  0  0  0  0
 20 16  1  0  0  0  0
 20 17  1  0  0  0  0
 21 23  1  0  0  0  0
 23 22  1  6  0  0  0
 23 24  1  0  0  0  0
 25 24  2  0  0  0  0
 27 26  1  6  0  0  0
 27 29  1  0  0  0  0
 27 31  1  0  0  0  0
 29 28  1  0  0  0  0
 30 29  2  0  0  0  0
 31 32  1  0  0  0  0
 32 34  1  0  0  0  0
 33 36  1  0  0  0  0
 33 32  2  0  0  0  0
 34 41  1  1  0  0  0
 35 34  1  0  0  0  0
 36 35  2  0  0  0  0
 38 37  2  0  0  0  0
 38 36  1  0  0  0  0
 39 38  1  0  0  0  0
 41 40  1  0  0  0  0
M  END
>  <MODEL>
2

>  <REMARK>
 VINA RESULT:      -7.1      3.883      7.294
  Name = 
  13 active torsions:
  status: ('A' for Active; 'I' for Inactive)
    1  A    between atoms: C_5  and  C_19
    2  A    between atoms: C_5  and  C_33
    3  A    between atoms: C_6  and  C_8
    4  A    between atoms: C_6  and  C_38
    5  A    between atoms: C_9  and  C_36
    6  A    between atoms: C_14  and  N_35
    7  A    between atoms: C_16  and  C_26
    8  A    between atoms: C_19  and  C_21
    9  A    between atoms: C_19  and  C_26
   10  A    between atoms: C_20  and  C_38
   11  A    between atoms: C_23  and  N_32
   12  A    between atoms: N_35  and  C_36
   13  A    between atoms: C_37  and  C_39
                            x       y       z     vdW  Elec       q    Type
                         _______ _______ _______ _____ _____    ______ ____

>  <TORSDO>
F 13

$$$$
=
 OpenBabel11042413313D

 41 43  0  0  1  0  0  0  0  0999 V2000
  190.0790  176.1720  137.3040 C   0  0  0  0  0  3  0  0  0  0  0  0
  190.8820  176.1690  138.3670 C   0  0  0  0  0  3  0  0  0  0  0  0
  188.6430  176.5710  137.3820 C   0  0  1  0  0  3  0  0  0  0  0  0
  188.8450  178.3660  139.0700 C   0  0  0  0  0  3  0  0  0  0  0  0
  187.7700  179.0200  137.0130 C   0  0  0  0  0  1  0  0  0  0  0  0
  190.4990  176.6110  139.7240 C   0  0  0  0  0  3  0  0  0  0  0  0
  189.5760  177.5290  140.0480 C   0  0  0  0  0  0  0  0  0  0  0  0
  188.4710  177.9990  137.8440 C   0  0  0  0  0  0  0  0  0  0  0  0
  188.6650  176.4000  134.8540 C   0  0  0  0  0  1  0  0  0  0  0  0
  187.8520  176.1430  136.1250 C   0  0  2  0  0  3  0  0  0  0  0  0
  186.0890  176.9090  134.6780 C   0  0  0  0  0  1  0  0  0  0  0  0
  186.5320  176.7940  136.0670 N   0  0  0  0  0  0  0  0  0  0  0  0
  185.2630  172.1930  136.3150 C   0  0  0  0  0  1  0  0  0  0  0  0
  184.1090  176.3830  136.4430 C   0  0  2  0  0  3  0  0  0  0  0  0
  183.1450  175.2090  136.6020 C   0  0  0  0  0  2  0  0  0  0  0  0
  185.1230  173.6550  135.9320 C   0  0  1  0  0  3  0  0  0  0  0  0
  185.5470  176.0210  136.8460 C   0  0  1  0  0  3  0  0  0  0  0  0
  183.6690  174.0380  135.8300 C   0  0  0  0  0  0  0  0  0  0  0  0
  182.9190  173.4150  135.0950 O   0  0  0  0  0  0  0  0  0  0  0  0
  185.8560  174.5080  136.9700 C   0  0  0  0  0  2  0  0  0  0  0  0
  183.6440  177.5680  137.2740 C   0  0  0  0  0  2  0  0  0  0  0  0
  184.7920  178.7820  139.1170 C   0  0  0  0  0  1  0  0  0  0  0  0
  184.1520  177.4670  138.7010 C   0  0  1  0  0  3  0  0  0  0  0  0
  183.0010  177.1540  139.6000 C   0  0  0  0  0  3  0  0  0  0  0  0
  182.6400  177.9990  140.5640 C   0  0  0  0  0  2  0  0  0  0  0  0
  189.3990  177.8510  141.4930 C   0  0  0  0  0  2  0  0  0  0  0  0
  190.4820  177.1950  142.3390 C   0  0  2  0  0  3  0  0  0  0  0  0
  190.9410  174.9960  143.4230 O   0  0  0  0  0  1  0  0  0  0  0  0
  190.0140  175.8870  142.8980 C   0  0  0  0  0  0  0  0  0  0  0  0
  188.7910  175.5860  142.8940 O   0  0  0  0  0  0  0  0  0  0  0  0
  190.9080  178.1430  143.4490 C   0  0  0  0  0  2  0  0  0  0  0  0
  190.0640  177.9390  144.6620 C   0  0  0  0  0  0  0  0  0  0  0  0
  188.7450  178.1950  144.7030 N   0  0  0  0  0  0  0  0  0  0  0  0
  190.4870  177.4150  145.8610 C   0  0  1  0  0  3  0  0  0  0  0  0
  189.4020  177.3400  146.7090 C   0  0  0  0  0  3  0  0  0  0  0  0
  188.3520  177.8360  145.9460 C   0  0  0  0  0  0  0  0  0  0  0  0
  186.7270  178.1090  147.6470 O   0  0  0  0  0  0  0  0  0  0  0  0
  186.9680  177.9640  146.4200 C   0  0  0  0  0  0  0  0  0  0  0  0
  185.8330  177.9240  145.4570 C   0  0  0  0  0  1  0  0  0  0  0  0
  192.1130  175.7460  146.8240 C   0  0  0  0  0  1  0  0  0  0  0  0
  191.8230  177.0040  146.1590 N   0  0  0  0  0  2  0  0  0  0  0  0
  1  3  1  0  0  0  0
  1  2  2  0  0  0  0
  2  6  1  0  0  0  0
  3 10  1  6  0  0  0
  3  8  1  0  0  0  0
  4  7  1  0  0  0  0
  5  8  1  0  0  0  0
  6  7  2  0  0  0  0
  7 26  1  0  0  0  0
  8  4  2  0  0  0  0
 10  9  1  6  0  0  0
 11 12  1  0  0  0  0
 12 10  1  0  0  0  0
 14 15  1  0  0  0  0
 14 17  1  0  0  0  0
 14 21  1  1  0  0  0
 16 13  1  1  0  0  0
 16 20  1  0  0  0  0
 17 12  1  6  0  0  0
 17 20  1  0  0  0  0
 18 16  1  0  0  0  0
 18 15  1  0  0  0  0
 19 18  2  0  0  0  0
 21 23  1  0  0  0  0
 23 22  1  1  0  0  0
 23 24  1  0  0  0  0
 24 25  2  0  0  0  0
 27 26  1  1  0  0  0
 27 29  1  0  0  0  0
 27 31  1  0  0  0  0
 29 28  1  0  0  0  0
 30 29  2  0  0  0  0
 31 32  1  0  0  0  0
 32 33  2  0  0  0  0
 32 34  1  0  0  0  0
 33 36  1  0  0  0  0
 34 41  1  6  0  0  0
 34 35  1  0  0  0  0
 36 38  1  0  0  0  0
 36 35  2  0  0  0  0
 38 37  2  0  0  0  0
 39 38  1  0  0  0  0
 41 40  1  0  0  0  0
M  END
>  <MODEL>
3

>  <REMARK>
 VINA RESULT:      -7.0      2.974      4.827
  Name = 
  13 active torsions:
  status: ('A' for Active; 'I' for Inactive)
    1  A    between atoms: C_5  and  C_19
    2  A    between atoms: C_5  and  C_33
    3  A    between atoms: C_6  and  C_8
    4  A    between atoms: C_6  and  C_38
    5  A    between atoms: C_9  and  C_36
    6  A    between atoms: C_14  and  N_35
    7  A    between atoms: C_16  and  C_26
    8  A    between atoms: C_19  and  C_21
    9  A    between atoms: C_19  and  C_26
   10  A    between atoms: C_20  and  C_38
   11  A    between atoms: C_23  and  N_32
   12  A    between atoms: N_35  and  C_36
   13  A    between atoms: C_37  and  C_39
                            x       y       z     vdW  Elec       q    Type
                         _______ _______ _______ _____ _____    ______ ____

>  <TORSDO>
F 13

$$$$
=
 OpenBabel11042413313D

 41 43  0  0  1  0  0  0  0  0999 V2000
  185.8680  178.8330  144.8980 C   0  0  0  0  0  3  0  0  0  0  0  0
  184.7600  179.1610  145.5610 C   0  0  0  0  0  3  0  0  0  0  0  0
  185.8470  178.0160  143.6490 C   0  0  1  0  0  3  0  0  0  0  0  0
  183.7590  178.9000  142.6620 C   0  0  0  0  0  3  0  0  0  0  0  0
  185.6940  179.0270  141.2290 C   0  0  0  0  0  1  0  0  0  0  0  0
  183.3840  178.8340  145.1320 C   0  0  0  0  0  3  0  0  0  0  0  0
  182.9450  178.6650  143.8760 C   0  0  0  0  0  0  0  0  0  0  0  0
  185.0700  178.6890  142.5410 C   0  0  0  0  0  0  0  0  0  0  0  0
  187.3130  175.9560  143.4980 C   0  0  0  0  0  1  0  0  0  0  0  0
  187.2460  177.4700  143.2880 C   0  0  2  0  0  3  0  0  0  0  0  0
  188.6980  177.3910  145.2050 C   0  0  0  0  0  1  0  0  0  0  0  0
  188.3100  178.1690  144.0290 N   0  0  0  0  0  0  0  0  0  0  0  0
  189.0090  178.5720  139.3180 C   0  0  0  0  0  1  0  0  0  0  0  0
  190.4220  177.1670  143.1830 C   0  0  2  0  0  3  0  0  0  0  0  0
  191.1670  176.9800  141.8620 C   0  0  0  0  0  2  0  0  0  0  0  0
  189.0380  177.8920  140.6740 C   0  0  1  0  0  3  0  0  0  0  0  0
  189.4820  178.3830  143.1590 C   0  0  1  0  0  3  0  0  0  0  0  0
  190.1720  176.9020  140.7460 C   0  0  0  0  0  0  0  0  0  0  0  0
  190.2690  176.0160  139.9130 O   0  0  0  0  0  0  0  0  0  0  0  0
  189.1590  178.9630  141.7600 C   0  0  0  0  0  2  0  0  0  0  0  0
  191.4060  177.3240  144.3300 C   0  0  0  0  0  2  0  0  0  0  0  0
  192.1850  174.9750  144.5860 C   0  0  0  0  0  1  0  0  0  0  0  0
  191.3940  176.1030  145.2320 C   0  0  1  0  0  3  0  0  0  0  0  0
  192.0070  176.4670  146.5440 C   0  0  0  0  0  3  0  0  0  0  0  0
  192.0870  175.5760  147.5300 C   0  0  0  0  0  2  0  0  0  0  0  0
  181.4920  178.3900  143.6840 C   0  0  0  0  0  2  0  0  0  0  0  0
  180.9450  179.1450  142.4790 C   0  0  2  0  0  3  0  0  0  0  0  0
  179.6150  181.2180  142.0850 O   0  0  0  0  0  0  0  0  0  0  0  0
  179.8790  180.1150  142.8860 C   0  0  0  0  0  0  0  0  0  0  0  0
  179.2240  179.9430  143.9480 O   0  0  0  0  0  1  0  0  0  0  0  0
  180.4190  178.1560  141.4500 C   0  0  0  0  0  2  0  0  0  0  0  0
  181.3070  178.1270  140.2520 C   0  0  0  0  0  0  0  0  0  0  0  0
  182.1780  177.1360  139.9940 N   0  0  0  0  0  2  0  0  0  0  0  0
  181.3180  179.0510  139.2340 C   0  0  0  0  0  0  0  0  0  0  0  0
  182.2380  178.6450  138.2900 C   0  0  0  0  0  3  0  0  0  0  0  0
  182.7420  177.4590  138.8090 C   0  0  0  0  0  0  0  0  0  0  0  0
  184.8530  177.1580  137.7790 O   0  0  0  0  0  0  0  0  0  0  0  0
  183.7710  176.6370  138.1580 C   0  0  0  0  0  0  0  0  0  0  0  0
  183.5480  175.1820  137.9390 C   0  0  0  0  0  1  0  0  0  0  0  0
  181.0090  181.4950  138.6950 C   0  0  0  0  0  1  0  0  0  0  0  0
  180.4980  180.2190  139.1680 N   0  0  0  0  0  2  0  0  0  0  0  0
  1  2  2  0  0  0  0
  3 10  1  6  0  0  0
  3  1  1  0  0  0  0
  4  7  1  0  0  0  0
  5  8  1  0  0  0  0
  6  2  1  0  0  0  0
  7  6  2  0  0  0  0
  8  4  2  0  0  0  0
  8  3  1  0  0  0  0
 10  9  1  1  0  0  0
 10 12  1  0  0  0  0
 12 11  1  0  0  0  0
 14 21  1  1  0  0  0
 15 14  1  0  0  0  0
 16 13  1  6  0  0  0
 16 18  1  0  0  0  0
 16 20  1  0  0  0  0
 17 14  1  0  0  0  0
 17 12  1  6  0  0  0
 18 15  1  0  0  0  0
 19 18  2  0  0  0  0
 20 17  1  0  0  0  0
 21 23  1  0  0  0  0
 23 22  1  6  0  0  0
 23 24  1  0  0  0  0
 24 25  2  0  0  0  0
 26  7  1  0  0  0  0
 27 31  1  6  0  0  0
 27 29  1  0  0  0  0
 27 26  1  0  0  0  0
 28 29  2  0  0  0  0
 29 30  1  0  0  0  0
 32 31  1  0  0  0  0
 33 32  1  0  0  0  0
 34 32  2  0  0  0  0
 35 36  2  0  0  0  0
 35 34  1  0  0  0  0
 36 33  1  0  0  0  0
 37 38  2  0  0  0  0
 38 36  1  0  0  0  0
 39 38  1  0  0  0  0
 40 41  1  0  0  0  0
 41 34  1  0  0  0  0
M  END
>  <MODEL>
4

>  <REMARK>
 VINA RESULT:      -7.0      2.315      9.426
  Name = 
  13 active torsions:
  status: ('A' for Active; 'I' for Inactive)
    1  A    between atoms: C_5  and  C_19
    2  A    between atoms: C_5  and  C_33
    3  A    between atoms: C_6  and  C_8
    4  A    between atoms: C_6  and  C_38
    5  A    between atoms: C_9  and  C_36
    6  A    between atoms: C_14  and  N_35
    7  A    between atoms: C_16  and  C_26
    8  A    between atoms: C_19  and  C_21
    9  A    between atoms: C_19  and  C_26
   10  A    between atoms: C_20  and  C_38
   11  A    between atoms: C_23  and  N_32
   12  A    between atoms: N_35  and  C_36
   13  A    between atoms: C_37  and  C_39
                            x       y       z     vdW  Elec       q    Type
                         _______ _______ _______ _____ _____    ______ ____

>  <TORSDO>
F 13

$$$$
=
 OpenBabel11042413313D

 41 43  0  0  1  0  0  0  0  0999 V2000
  189.7380  177.0240  137.3930 C   0  0  0  0  0  3  0  0  0  0  0  0
  190.9140  177.0900  138.0170 C   0  0  0  0  0  3  0  0  0  0  0  0
  188.4850  176.5990  138.0840 C   0  0  1  0  0  3  0  0  0  0  0  0
  188.9140  177.6150  140.2960 C   0  0  0  0  0  3  0  0  0  0  0  0
  186.8240  178.2490  139.2740 C   0  0  0  0  0  1  0  0  0  0  0  0
  191.1310  176.8270  139.4550 C   0  0  0  0  0  3  0  0  0  0  0  0
  190.2520  177.0000  140.4520 C   0  0  0  0  0  0  0  0  0  0  0  0
  188.1230  177.5170  139.2280 C   0  0  0  0  0  0  0  0  0  0  0  0
  187.9400  175.7570  135.7570 C   0  0  0  0  0  1  0  0  0  0  0  0
  187.3600  176.2530  137.0830 C   0  0  2  0  0  3  0  0  0  0  0  0
  186.8040  178.1190  135.6700 C   0  0  0  0  0  1  0  0  0  0  0  0
  186.4430  177.3880  136.8840 N   0  0  0  0  0  0  0  0  0  0  0  0
  182.1930  178.9820  138.3820 C   0  0  0  0  0  1  0  0  0  0  0  0
  184.8450  175.6250  137.6060 C   0  0  2  0  0  3  0  0  0  0  0  0
  183.4240  175.5040  138.1530 C   0  0  0  0  0  2  0  0  0  0  0  0
  183.4260  178.0970  138.3860 C   0  0  1  0  0  3  0  0  0  0  0  0
  185.0510  176.9090  136.7860 C   0  0  1  0  0  3  0  0  0  0  0  0
  183.0970  176.7350  138.9410 C   0  0  0  0  0  0  0  0  0  0  0  0
  182.5900  176.6270  140.0460 O   0  0  0  0  0  0  0  0  0  0  0  0
  183.9700  178.0040  136.9590 C   0  0  0  0  0  2  0  0  0  0  0  0
  185.1840  174.4240  136.7390 C   0  0  0  0  0  2  0  0  0  0  0  0
  184.2150  172.1690  137.1460 C   0  0  0  0  0  1  0  0  0  0  0  0
  185.2870  173.1590  137.5730 C   0  0  1  0  0  3  0  0  0  0  0  0
  186.6410  172.5610  137.3730 C   0  0  0  0  0  3  0  0  0  0  0  0
  187.0360  172.1540  136.1680 C   0  0  0  0  0  2  0  0  0  0  0  0
  190.7170  176.7160  141.8400 C   0  0  0  0  0  2  0  0  0  0  0  0
  189.8620  177.4470  142.8670 C   0  0  2  0  0  3  0  0  0  0  0  0
  191.5400  177.5670  144.7090 O   0  0  0  0  0  1  0  0  0  0  0  0
  190.7110  178.2340  143.8170 C   0  0  0  0  0  0  0  0  0  0  0  0
  190.6780  179.4940  143.8170 O   0  0  0  0  0  0  0  0  0  0  0  0
  188.9920  176.4480  143.6130 C   0  0  0  0  0  2  0  0  0  0  0  0
  187.8570  177.1440  144.2860 C   0  0  0  0  0  0  0  0  0  0  0  0
  186.7570  177.5700  143.6430 N   0  0  0  0  0  0  0  0  0  0  0  0
  187.7470  177.3880  145.6350 C   0  0  1  0  0  3  0  0  0  0  0  0
  186.5340  178.0030  145.8670 C   0  0  0  0  0  3  0  0  0  0  0  0
  185.9640  178.0940  144.6040 C   0  0  0  0  0  0  0  0  0  0  0  0
  183.9980  179.2470  145.2460 O   0  0  0  0  0  0  0  0  0  0  0  0
  184.6500  178.6880  144.3250 C   0  0  0  0  0  0  0  0  0  0  0  0
  184.0730  178.6390  142.9540 C   0  0  0  0  0  1  0  0  0  0  0  0
  189.0670  177.9370  147.7120 C   0  0  0  0  0  1  0  0  0  0  0  0
  188.7210  177.0420  146.6210 N   0  0  0  0  0  2  0  0  0  0  0  0
  1  2  2  0  0  0  0
  1  3  1  0  0  0  0
  2  6  1  0  0  0  0
  3 10  1  6  0  0  0
  3  8  1  0  0  0  0
  4  7  1  0  0  0  0
  6  7  2  0  0  0  0
  7 26  1  0  0  0  0
  8  5  1  0  0  0  0
  8  4  2  0  0  0  0
 10  9  1  6  0  0  0
 11 12  1  0  0  0  0
 12 10  1  0  0  0  0
 14 21  1  6  0  0  0
 14 15  1  0  0  0  0
 15 18  1  0  0  0  0
 16 13  1  6  0  0  0
 16 18  1  0  0  0  0
 17 12  1  1  0  0  0
 17 20  1  0  0  0  0
 17 14  1  0  0  0  0
 18 19  2  0  0  0  0
 20 16  1  0  0  0  0
 21 23  1  0  0  0  0
 23 22  1  6  0  0  0
 24 23  1  0  0  0  0
 25 24  2  0  0  0  0
 27 26  1  6  0  0  0
 27 31  1  0  0  0  0
 27 29  1  0  0  0  0
 29 30  2  0  0  0  0
 29 28  1  0  0  0  0
 31 32  1  0  0  0  0
 32 34  1  0  0  0  0
 33 32  2  0  0  0  0
 33 36  1  0  0  0  0
 34 35  1  0  0  0  0
 34 41  1  1  0  0  0
 36 35  2  0  0  0  0
 38 36  1  0  0  0  0
 38 37  2  0  0  0  0
 39 38  1  0  0  0  0
 41 40  1  0  0  0  0
M  END
>  <MODEL>
5

>  <REMARK>
 VINA RESULT:      -7.0      2.596      4.668
  Name = 
  13 active torsions:
  status: ('A' for Active; 'I' for Inactive)
    1  A    between atoms: C_5  and  C_19
    2  A    between atoms: C_5  and  C_33
    3  A    between atoms: C_6  and  C_8
    4  A    between atoms: C_6  and  C_38
    5  A    between atoms: C_9  and  C_36
    6  A    between atoms: C_14  and  N_35
    7  A    between atoms: C_16  and  C_26
    8  A    between atoms: C_19  and  C_21
    9  A    between atoms: C_19  and  C_26
   10  A    between atoms: C_20  and  C_38
   11  A    between atoms: C_23  and  N_32
   12  A    between atoms: N_35  and  C_36
   13  A    between atoms: C_37  and  C_39
                            x       y       z     vdW  Elec       q    Type
                         _______ _______ _______ _____ _____    ______ ____

>  <TORSDO>
F 13

$$$$
=
 OpenBabel11042413313D

 41 43  0  0  1  0  0  0  0  0999 V2000
  184.3090  178.6750  139.3570 C   0  0  0  0  0  3  0  0  0  0  0  0
  185.4270  179.2470  139.8000 C   0  0  0  0  0  3  0  0  0  0  0  0
  183.4770  177.7700  140.2060 C   0  0  1  0  0  3  0  0  0  0  0  0
  183.7750  178.9170  142.3760 C   0  0  0  0  0  3  0  0  0  0  0  0
  181.4830  178.5810  141.7100 C   0  0  0  0  0  1  0  0  0  0  0  0
  185.9570  179.1290  141.1750 C   0  0  0  0  0  3  0  0  0  0  0  0
  185.2540  178.9320  142.3000 C   0  0  0  0  0  0  0  0  0  0  0  0
  182.9440  178.4710  141.4340 C   0  0  0  0  0  0  0  0  0  0  0  0
  182.6060  175.4600  139.6390 C   0  0  0  0  0  1  0  0  0  0  0  0
  182.4630  176.9590  139.3700 C   0  0  2  0  0  3  0  0  0  0  0  0
  182.7500  176.0320  137.1680 C   0  0  0  0  0  1  0  0  0  0  0  0
  182.5750  177.2660  137.9330 N   0  0  0  0  0  0  0  0  0  0  0  0
  181.0170  181.7800  138.1270 C   0  0  0  0  0  1  0  0  0  0  0  0
  180.1220  177.5270  138.2440 C   0  0  2  0  0  3  0  0  0  0  0  0
  179.0830  178.6400  138.3770 C   0  0  0  0  0  2  0  0  0  0  0  0
  181.0740  180.3120  138.5070 C   0  0  1  0  0  3  0  0  0  0  0  0
  181.3700  177.9790  137.4680 C   0  0  1  0  0  3  0  0  0  0  0  0
  179.7300  179.8400  138.9970 C   0  0  0  0  0  0  0  0  0  0  0  0
  179.1750  180.4140  139.9200 O   0  0  0  0  0  0  0  0  0  0  0  0
  181.5430  179.5070  137.2920 C   0  0  0  0  0  2  0  0  0  0  0  0
  179.5170  176.3170  137.5500 C   0  0  0  0  0  2  0  0  0  0  0  0
  179.6380  173.9900  138.4190 C   0  0  0  0  0  1  0  0  0  0  0  0
  178.9460  175.3370  138.5580 C   0  0  1  0  0  3  0  0  0  0  0  0
  179.1600  175.8810  139.9320 C   0  0  0  0  0  3  0  0  0  0  0  0
  179.2430  175.0660  140.9830 C   0  0  0  0  0  2  0  0  0  0  0  0
  186.0060  178.9000  143.5880 C   0  0  0  0  0  2  0  0  0  0  0  0
  185.3250  177.9880  144.5990 C   0  0  2  0  0  3  0  0  0  0  0  0
  185.4480  179.1240  146.8170 O   0  0  0  0  0  1  0  0  0  0  0  0
  184.6930  178.7800  145.7030 C   0  0  0  0  0  0  0  0  0  0  0  0
  183.4860  179.1330  145.6320 O   0  0  0  0  0  0  0  0  0  0  0  0
  186.3320  176.9920  145.1510 C   0  0  0  0  0  2  0  0  0  0  0  0
  187.6290  177.1020  144.4210 C   0  0  0  0  0  0  0  0  0  0  0  0
  187.7840  176.7810  143.1260 N   0  0  0  0  0  0  0  0  0  0  0  0
  188.8050  177.5940  144.9370 C   0  0  1  0  0  3  0  0  0  0  0  0
  189.7560  177.5790  143.9380 C   0  0  0  0  0  3  0  0  0  0  0  0
  189.0750  177.0660  142.8420 C   0  0  0  0  0  0  0  0  0  0  0  0
  190.6490  176.0690  141.3810 O   0  0  0  0  0  0  0  0  0  0  0  0
  189.6730  176.8520  141.5170 C   0  0  0  0  0  0  0  0  0  0  0  0
  189.1330  177.5550  140.3210 C   0  0  0  0  0  1  0  0  0  0  0  0
  189.2980  177.1490  147.3700 C   0  0  0  0  0  1  0  0  0  0  0  0
  188.9930  178.0550  146.2760 N   0  0  0  0  0  2  0  0  0  0  0  0
  1  2  2  0  0  0  0
  1  3  1  0  0  0  0
  2  6  1  0  0  0  0
  3 10  1  6  0  0  0
  3  8  1  0  0  0  0
  6  7  2  0  0  0  0
  7  4  1  0  0  0  0
  7 26  1  0  0  0  0
  8  5  1  0  0  0  0
  8  4  2  0  0  0  0
 10  9  1  6  0  0  0
 11 12  1  0  0  0  0
 12 10  1  0  0  0  0
 14 21  1  6  0  0  0
 14 15  1  0  0  0  0
 15 18  1  0  0  0  0
 16 13  1  6  0  0  0
 16 18  1  0  0  0  0
 17 12  1  1  0  0  0
 17 14  1  0  0  0  0
 18 19  2  0  0  0  0
 20 17  1  0  0  0  0
 20 16  1  0  0  0  0
 21 23  1  0  0  0  0
 23 22  1  1  0  0  0
 23 24  1  0  0  0  0
 24 25  2  0  0  0  0
 27 26  1  6  0  0  0
 27 31  1  0  0  0  0
 27 29  1  0  0  0  0
 29 28  1  0  0  0  0
 30 29  2  0  0  0  0
 32 34  1  0  0  0  0
 32 31  1  0  0  0  0
 33 32  2  0  0  0  0
 34 41  1  6  0  0  0
 35 34  1  0  0  0  0
 36 33  1  0  0  0  0
 36 35  2  0  0  0  0
 37 38  2  0  0  0  0
 38 36  1  0  0  0  0
 39 38  1  0  0  0  0
 41 40  1  0  0  0  0
M  END
>  <MODEL>
6

>  <REMARK>
 VINA RESULT:      -6.8      1.755      3.985
  Name = 
  13 active torsions:
  status: ('A' for Active; 'I' for Inactive)
    1  A    between atoms: C_5  and  C_19
    2  A    between atoms: C_5  and  C_33
    3  A    between atoms: C_6  and  C_8
    4  A    between atoms: C_6  and  C_38
    5  A    between atoms: C_9  and  C_36
    6  A    between atoms: C_14  and  N_35
    7  A    between atoms: C_16  and  C_26
    8  A    between atoms: C_19  and  C_21
    9  A    between atoms: C_19  and  C_26
   10  A    between atoms: C_20  and  C_38
   11  A    between atoms: C_23  and  N_32
   12  A    between atoms: N_35  and  C_36
   13  A    between atoms: C_37  and  C_39
                            x       y       z     vdW  Elec       q    Type
                         _______ _______ _______ _____ _____    ______ ____

>  <TORSDO>
F 13

$$$$
=
 OpenBabel11042413313D

 41 43  0  0  1  0  0  0  0  0999 V2000
  182.7790  177.4110  136.6770 C   0  0  0  0  0  3  0  0  0  0  0  0
  183.6930  177.1690  135.7380 C   0  0  0  0  0  3  0  0  0  0  0  0
  183.0980  177.3890  138.1350 C   0  0  1  0  0  3  0  0  0  0  0  0
  185.3780  178.3390  138.0330 C   0  0  0  0  0  3  0  0  0  0  0  0
  183.8620  179.4920  139.5100 C   0  0  0  0  0  1  0  0  0  0  0  0
  185.1270  176.9180  135.9920 C   0  0  0  0  0  3  0  0  0  0  0  0
  185.8620  177.3770  137.0160 C   0  0  0  0  0  0  0  0  0  0  0  0
  184.1360  178.4220  138.5080 C   0  0  0  0  0  0  0  0  0  0  0  0
  181.8300  176.0920  139.9040 C   0  0  0  0  0  1  0  0  0  0  0  0
  181.8240  177.3320  139.0080 C   0  0  2  0  0  3  0  0  0  0  0  0
  179.7080  176.2960  138.5210 C   0  0  0  0  0  1  0  0  0  0  0  0
  180.6020  177.4050  138.1890 N   0  0  0  0  0  0  0  0  0  0  0  0
  180.4280  181.6050  135.9150 C   0  0  0  0  0  1  0  0  0  0  0  0
  180.4570  179.4020  139.6630 C   0  0  2  0  0  3  0  0  0  0  0  0
  180.3790  180.9230  139.5480 C   0  0  0  0  0  2  0  0  0  0  0  0
  180.8380  180.6290  137.0020 C   0  0  1  0  0  3  0  0  0  0  0  0
  179.9130  178.6900  138.4140 C   0  0  1  0  0  3  0  0  0  0  0  0
  181.0840  181.3550  138.3000 C   0  0  0  0  0  0  0  0  0  0  0  0
  181.8810  182.2790  138.3460 O   0  0  0  0  0  0  0  0  0  0  0  0
  179.7440  179.5700  137.1520 C   0  0  0  0  0  2  0  0  0  0  0  0
  179.6870  178.9230  140.8830 C   0  0  0  0  0  2  0  0  0  0  0  0
  179.4890  179.0030  143.3610 C   0  0  0  0  0  1  0  0  0  0  0  0
  180.3440  179.3970  142.1660 C   0  0  1  0  0  3  0  0  0  0  0  0
  181.6930  178.7680  142.2760 C   0  0  0  0  0  3  0  0  0  0  0  0
  182.4750  179.0090  143.3280 C   0  0  0  0  0  2  0  0  0  0  0  0
  187.3130  177.0340  137.0330 C   0  0  0  0  0  2  0  0  0  0  0  0
  188.1150  177.9950  136.1650 C   0  0  2  0  0  3  0  0  0  0  0  0
  190.0660  177.8700  134.6160 O   0  0  0  0  0  0  0  0  0  0  0  0
  188.9510  177.2530  135.1680 C   0  0  0  0  0  0  0  0  0  0  0  0
  188.6510  176.0800  134.8220 O   0  0  0  0  0  1  0  0  0  0  0  0
  188.9790  178.8830  137.0470 C   0  0  0  0  0  2  0  0  0  0  0  0
  189.2040  178.2400  138.3740 C   0  0  0  0  0  0  0  0  0  0  0  0
  188.4560  178.4920  139.4610 N   0  0  0  0  0  2  0  0  0  0  0  0
  190.1450  177.2760  138.6540 C   0  0  0  0  0  0  0  0  0  0  0  0
  190.0030  176.9010  139.9730 C   0  0  0  0  0  3  0  0  0  0  0  0
  188.9480  177.6830  140.4260 C   0  0  0  0  0  0  0  0  0  0  0  0
  187.3350  178.2350  142.0710 O   0  0  0  0  0  0  0  0  0  0  0  0
  188.4150  177.6490  141.7950 C   0  0  0  0  0  0  0  0  0  0  0  0
  189.1430  176.9230  142.8720 C   0  0  0  0  0  1  0  0  0  0  0  0
  192.3880  176.2460  138.1400 C   0  0  0  0  0  1  0  0  0  0  0  0
  191.0910  176.7480  137.7220 N   0  0  0  0  0  2  0  0  0  0  0  0
  1  3  1  0  0  0  0
  2  6  1  0  0  0  0
  2  1  2  0  0  0  0
  3  8  1  0  0  0  0
  3 10  1  1  0  0  0
  4  8  2  0  0  0  0
  6  7  2  0  0  0  0
  7 26  1  0  0  0  0
  7  4  1  0  0  0  0
  8  5  1  0  0  0  0
 10  9  1  6  0  0  0
 12 11  1  0  0  0  0
 12 10  1  0  0  0  0
 14 21  1  1  0  0  0
 15 14  1  0  0  0  0
 16 13  1  6  0  0  0
 16 20  1  0  0  0  0
 16 18  1  0  0  0  0
 17 12  1  6  0  0  0
 17 14  1  0  0  0  0
 18 19  2  0  0  0  0
 18 15  1  0  0  0  0
 20 17  1  0  0  0  0
 21 23  1  0  0  0  0
 23 24  1  0  0  0  0
 23 22  1  1  0  0  0
 24 25  2  0  0  0  0
 27 26  1  1  0  0  0
 27 31  1  0  0  0  0
 28 29  2  0  0  0  0
 29 27  1  0  0  0  0
 30 29  1  0  0  0  0
 31 32  1  0  0  0  0
 32 34  2  0  0  0  0
 32 33  1  0  0  0  0
 33 36  1  0  0  0  0
 34 35  1  0  0  0  0
 35 36  2  0  0  0  0
 36 38  1  0  0  0  0
 38 37  2  0  0  0  0
 38 39  1  0  0  0  0
 41 40  1  0  0  0  0
 41 34  1  0  0  0  0
M  END
>  <MODEL>
7

>  <REMARK>
 VINA RESULT:      -6.8      2.908      4.704
  Name = 
  13 active torsions:
  status: ('A' for Active; 'I' for Inactive)
    1  A    between atoms: C_5  and  C_19
    2  A    between atoms: C_5  and  C_33
    3  A    between atoms: C_6  and  C_8
    4  A    between atoms: C_6  and  C_38
    5  A    between atoms: C_9  and  C_36
    6  A    between atoms: C_14  and  N_35
    7  A    between atoms: C_16  and  C_26
    8  A    between atoms: C_19  and  C_21
    9  A    between atoms: C_19  and  C_26
   10  A    between atoms: C_20  and  C_38
   11  A    between atoms: C_23  and  N_32
   12  A    between atoms: N_35  and  C_36
   13  A    between atoms: C_37  and  C_39
                            x       y       z     vdW  Elec       q    Type
                         _______ _______ _______ _____ _____    ______ ____

>  <TORSDO>
F 13

$$$$
=
 OpenBabel11042413313D

 41 43  0  0  1  0  0  0  0  0999 V2000
  185.3720  179.8170  143.7910 C   0  0  0  0  0  3  0  0  0  0  0  0
  184.1950  180.0680  144.3610 C   0  0  0  0  0  3  0  0  0  0  0  0
  185.5690  178.7160  142.8020 C   0  0  1  0  0  3  0  0  0  0  0  0
  183.3850  178.8540  141.6510 C   0  0  0  0  0  3  0  0  0  0  0  0
  185.3080  179.0040  140.2040 C   0  0  0  0  0  1  0  0  0  0  0  0
  182.9340  179.3590  144.0560 C   0  0  0  0  0  3  0  0  0  0  0  0
  182.5890  178.7800  142.8970 C   0  0  0  0  0  0  0  0  0  0  0  0
  184.7150  178.8980  141.5680 C   0  0  0  0  0  0  0  0  0  0  0  0
  187.2860  177.7600  141.2020 C   0  0  0  0  0  1  0  0  0  0  0  0
  187.0640  178.3990  142.5750 C   0  0  2  0  0  3  0  0  0  0  0  0
  187.6420  176.1620  143.2450 C   0  0  0  0  0  1  0  0  0  0  0  0
  187.6120  177.5650  143.6580 N   0  0  0  0  0  0  0  0  0  0  0  0
  191.9470  177.1080  141.6990 C   0  0  0  0  0  1  0  0  0  0  0  0
  189.4830  177.3070  145.2750 C   0  0  2  0  0  3  0  0  0  0  0  0
  191.0000  177.1280  145.2720 C   0  0  0  0  0  2  0  0  0  0  0  0
  190.8340  176.8280  142.6910 C   0  0  1  0  0  3  0  0  0  0  0  0
  188.9720  178.0140  144.0090 C   0  0  1  0  0  3  0  0  0  0  0  0
  191.4040  176.4100  144.0220 C   0  0  0  0  0  0  0  0  0  0  0  0
  192.1750  175.4660  144.0920 O   0  0  0  0  0  0  0  0  0  0  0  0
  189.9650  178.0800  142.8230 C   0  0  0  0  0  2  0  0  0  0  0  0
  189.0450  178.0990  146.4960 C   0  0  0  0  0  2  0  0  0  0  0  0
  187.9170  177.7470  148.6850 C   0  0  0  0  0  1  0  0  0  0  0  0
  187.8830  177.4210  147.2000 C   0  0  1  0  0  3  0  0  0  0  0  0
  186.6060  177.9090  146.6010 C   0  0  0  0  0  3  0  0  0  0  0  0
  185.7210  178.5810  147.3350 C   0  0  0  0  0  2  0  0  0  0  0  0
  181.2320  178.1680  142.8070 C   0  0  0  0  0  2  0  0  0  0  0  0
  180.3740  178.8840  141.7730 C   0  0  2  0  0  3  0  0  0  0  0  0
  179.0310  179.9080  143.6080 O   0  0  0  0  0  1  0  0  0  0  0  0
  179.6580  180.0520  142.3780 C   0  0  0  0  0  0  0  0  0  0  0  0
  179.6170  181.1600  141.7820 O   0  0  0  0  0  0  0  0  0  0  0  0
  179.3900  177.9020  141.1560 C   0  0  0  0  0  2  0  0  0  0  0  0
  180.1010  176.9400  140.2650 C   0  0  0  0  0  0  0  0  0  0  0  0
  181.0930  177.2920  139.4300 N   0  0  0  0  0  0  0  0  0  0  0  0
  179.8940  175.5810  140.2160 C   0  0  1  0  0  3  0  0  0  0  0  0
  180.7800  175.0400  139.3070 C   0  0  0  0  0  3  0  0  0  0  0  0
  181.4950  176.1390  138.8490 C   0  0  0  0  0  0  0  0  0  0  0  0
  182.5300  175.2130  136.9310 O   0  0  0  0  0  0  0  0  0  0  0  0
  182.5680  176.0740  137.8480 C   0  0  0  0  0  0  0  0  0  0  0  0
  183.7120  177.0240  137.9040 C   0  0  0  0  0  1  0  0  0  0  0  0
  179.3120  173.7500  141.8480 C   0  0  0  0  0  1  0  0  0  0  0  0
  178.9350  174.8620  140.9930 N   0  0  0  0  0  2  0  0  0  0  0  0
  1  2  2  0  0  0  0
  3 10  1  6  0  0  0
  3  1  1  0  0  0  0
  4  7  1  0  0  0  0
  5  8  1  0  0  0  0
  6  2  1  0  0  0  0
  7  6  2  0  0  0  0
  8  4  2  0  0  0  0
  8  3  1  0  0  0  0
 10  9  1  6  0  0  0
 10 12  1  0  0  0  0
 11 12  1  0  0  0  0
 14 21  1  1  0  0  0
 15 14  1  0  0  0  0
 16 13  1  6  0  0  0
 16 20  1  0  0  0  0
 16 18  1  0  0  0  0
 17 12  1  6  0  0  0
 17 14  1  0  0  0  0
 18 19  2  0  0  0  0
 18 15  1  0  0  0  0
 20 17  1  0  0  0  0
 21 23  1  0  0  0  0
 23 22  1  1  0  0  0
 24 23  1  0  0  0  0
 24 25  2  0  0  0  0
 26  7  1  0  0  0  0
 27 31  1  1  0  0  0
 27 29  1  0  0  0  0
 27 26  1  0  0  0  0
 29 28  1  0  0  0  0
 30 29  2  0  0  0  0
 32 31  1  0  0  0  0
 33 32  2  0  0  0  0
 34 32  1  0  0  0  0
 34 41  1  1  0  0  0
 35 34  1  0  0  0  0
 36 35  2  0  0  0  0
 36 33  1  0  0  0  0
 37 38  2  0  0  0  0
 38 39  1  0  0  0  0
 38 36  1  0  0  0  0
 41 40  1  0  0  0  0
M  END
>  <MODEL>
8

>  <REMARK>
 VINA RESULT:      -6.8      2.632      9.422
  Name = 
  13 active torsions:
  status: ('A' for Active; 'I' for Inactive)
    1  A    between atoms: C_5  and  C_19
    2  A    between atoms: C_5  and  C_33
    3  A    between atoms: C_6  and  C_8
    4  A    between atoms: C_6  and  C_38
    5  A    between atoms: C_9  and  C_36
    6  A    between atoms: C_14  and  N_35
    7  A    between atoms: C_16  and  C_26
    8  A    between atoms: C_19  and  C_21
    9  A    between atoms: C_19  and  C_26
   10  A    between atoms: C_20  and  C_38
   11  A    between atoms: C_23  and  N_32
   12  A    between atoms: N_35  and  C_36
   13  A    between atoms: C_37  and  C_39
                            x       y       z     vdW  Elec       q    Type
                         _______ _______ _______ _____ _____    ______ ____

>  <TORSDO>
F 13

$$$$
=
 OpenBabel11042413313D

 41 43  0  0  1  0  0  0  0  0999 V2000
  185.6250  178.8450  144.8550 C   0  0  0  0  0  3  0  0  0  0  0  0
  184.5010  179.3030  145.4070 C   0  0  0  0  0  3  0  0  0  0  0  0
  185.6260  177.8880  143.7090 C   0  0  1  0  0  3  0  0  0  0  0  0
  183.6470  178.7490  142.5020 C   0  0  0  0  0  3  0  0  0  0  0  0
  185.6620  178.6110  141.1840 C   0  0  0  0  0  1  0  0  0  0  0  0
  183.1350  178.9940  144.9360 C   0  0  0  0  0  3  0  0  0  0  0  0
  182.7560  178.7000  143.6840 C   0  0  0  0  0  0  0  0  0  0  0  0
  184.9480  178.4620  142.4860 C   0  0  0  0  0  0  0  0  0  0  0  0
  187.7840  177.1570  144.8170 C   0  0  0  0  0  1  0  0  0  0  0  0
  187.0100  177.2350  143.4990 C   0  0  2  0  0  3  0  0  0  0  0  0
  188.5760  179.0040  143.0460 C   0  0  0  0  0  1  0  0  0  0  0  0
  187.7830  177.9260  142.4540 N   0  0  0  0  0  0  0  0  0  0  0  0
  191.7920  175.5830  143.5880 C   0  0  0  0  0  1  0  0  0  0  0  0
  189.4090  177.6470  140.5940 C   0  0  2  0  0  3  0  0  0  0  0  0
  190.7840  177.0320  140.3400 C   0  0  0  0  0  2  0  0  0  0  0  0
  190.9480  176.6460  142.9100 C   0  0  1  0  0  3  0  0  0  0  0  0
  188.6710  176.9730  141.7610 C   0  0  1  0  0  3  0  0  0  0  0  0
  191.5790  177.0720  141.6090 C   0  0  0  0  0  0  0  0  0  0  0  0
  192.7300  177.4780  141.5870 O   0  0  0  0  0  0  0  0  0  0  0  0
  189.5380  176.0920  142.6940 C   0  0  0  0  0  2  0  0  0  0  0  0
  188.5490  177.5560  139.3440 C   0  0  0  0  0  2  0  0  0  0  0  0
  188.6510  175.7770  137.6090 C   0  0  0  0  0  1  0  0  0  0  0  0
  189.3430  177.0090  138.1720 C   0  0  1  0  0  3  0  0  0  0  0  0
  189.4380  178.0640  137.1200 C   0  0  0  0  0  3  0  0  0  0  0  0
  188.6320  179.1240  137.1430 C   0  0  0  0  0  2  0  0  0  0  0  0
  181.3030  178.4760  143.4360 C   0  0  0  0  0  2  0  0  0  0  0  0
  180.7940  179.3650  142.3090 C   0  0  2  0  0  3  0  0  0  0  0  0
  179.0670  180.0010  143.9920 O   0  0  0  0  0  1  0  0  0  0  0  0
  179.6970  180.2660  142.7840 C   0  0  0  0  0  0  0  0  0  0  0  0
  179.3370  181.2590  142.0970 O   0  0  0  0  0  0  0  0  0  0  0  0
  180.3270  178.5020  141.1470 C   0  0  0  0  0  2  0  0  0  0  0  0
  181.3690  178.4510  140.0820 C   0  0  0  0  0  0  0  0  0  0  0  0
  182.0770  177.3480  139.7840 N   0  0  0  0  0  2  0  0  0  0  0  0
  181.7040  179.4780  139.2310 C   0  0  0  0  0  0  0  0  0  0  0  0
  182.6710  179.0230  138.3600 C   0  0  0  0  0  3  0  0  0  0  0  0
  182.8670  177.7030  138.7460 C   0  0  0  0  0  0  0  0  0  0  0  0
  183.5520  175.5560  138.0170 O   0  0  0  0  0  0  0  0  0  0  0  0
  183.8190  176.7830  138.1100 C   0  0  0  0  0  0  0  0  0  0  0  0
  185.1100  177.2880  137.5670 C   0  0  0  0  0  1  0  0  0  0  0  0
  181.4930  181.8010  138.2730 C   0  0  0  0  0  1  0  0  0  0  0  0
  181.1280  180.7860  139.2460 N   0  0  0  0  0  2  0  0  0  0  0  0
  1  2  2  0  0  0  0
  3 10  1  6  0  0  0
  3  1  1  0  0  0  0
  4  7  1  0  0  0  0
  5  8  1  0  0  0  0
  6  2  1  0  0  0  0
  7  6  2  0  0  0  0
  8  4  2  0  0  0  0
  8  3  1  0  0  0  0
 10  9  1  1  0  0  0
 12 11  1  0  0  0  0
 12 10  1  0  0  0  0
 14 21  1  6  0  0  0
 14 17  1  0  0  0  0
 15 14  1  0  0  0  0
 15 18  1  0  0  0  0
 16 13  1  6  0  0  0
 17 12  1  1  0  0  0
 17 20  1  0  0  0  0
 18 16  1  0  0  0  0
 19 18  2  0  0  0  0
 20 16  1  0  0  0  0
 23 22  1  6  0  0  0
 23 21  1  0  0  0  0
 24 25  2  0  0  0  0
 24 23  1  0  0  0  0
 26  7  1  0  0  0  0
 27 31  1  6  0  0  0
 27 29  1  0  0  0  0
 27 26  1  0  0  0  0
 29 28  1  0  0  0  0
 30 29  2  0  0  0  0
 32 31  1  0  0  0  0
 33 32  1  0  0  0  0
 34 41  1  0  0  0  0
 34 32  2  0  0  0  0
 35 36  2  0  0  0  0
 35 34  1  0  0  0  0
 36 33  1  0  0  0  0
 37 38  2  0  0  0  0
 38 36  1  0  0  0  0
 39 38  1  0  0  0  0
 40 41  1  0  0  0  0
M  END
>  <MODEL>
9

>  <REMARK>
 VINA RESULT:      -6.8      2.307      9.324
  Name = 
  13 active torsions:
  status: ('A' for Active; 'I' for Inactive)
    1  A    between atoms: C_5  and  C_19
    2  A    between atoms: C_5  and  C_33
    3  A    between atoms: C_6  and  C_8
    4  A    between atoms: C_6  and  C_38
    5  A    between atoms: C_9  and  C_36
    6  A    between atoms: C_14  and  N_35
    7  A    between atoms: C_16  and  C_26
    8  A    between atoms: C_19  and  C_21
    9  A    between atoms: C_19  and  C_26
   10  A    between atoms: C_20  and  C_38
   11  A    between atoms: C_23  and  N_32
   12  A    between atoms: N_35  and  C_36
   13  A    between atoms: C_37  and  C_39
                            x       y       z     vdW  Elec       q    Type
                         _______ _______ _______ _____ _____    ______ ____

>  <TORSDO>
F 13

$$$$
