=
 OpenBabel11042410543D

 26 27  0  0  1  0  0  0  0  0999 V2000
  188.9120  177.0340  143.9450 C   0  0  1  0  0  3  0  0  0  0  0  0
  189.1090  177.9260  139.8010 C   0  0  0  0  0  0  0  0  0  0  0  0
  190.0140  176.6680  141.7170 C   0  0  0  0  0  0  0  0  0  0  0  0
  188.8060  177.9020  138.5000 C   0  0  0  0  0  0  0  0  0  0  0  0
  190.8330  174.8840  137.3160 C   0  0  0  0  0  1  0  0  0  0  0  0
  190.2910  177.1370  140.3180 C   0  0  1  0  0  3  0  0  0  0  0  0
  188.6890  178.7540  142.0800 C   0  0  0  0  0  2  0  0  0  0  0  0
  187.7480  178.7080  137.9890 N   0  0  0  0  0  1  0  0  0  0  0  0
  189.1510  177.4480  142.5610 N   0  0  0  0  0  0  0  0  0  0  0  0
  190.6670  176.0240  139.4360 N   0  0  0  0  0  0  0  0  0  0  0  0
  190.5720  175.6270  142.1610 O   0  0  0  0  0  0  0  0  0  0  0  0
  190.3570  176.0000  138.1740 C   0  0  0  0  0  0  0  0  0  0  0  0
  188.3490  178.6840  140.6970 O   0  0  0  0  0  0  0  0  0  0  0  0
  189.4840  176.9930  137.6290 N   0  0  0  0  0  2  0  0  0  0  0  0
  189.6730  177.9110  144.9490 C   0  0  0  0  0  2  0  0  0  0  0  0
  191.5880  177.2080  146.2010 O   0  0  0  0  0  1  0  0  0  0  0  0
  191.1790  177.6750  144.9530 C   0  0  0  0  0  2  0  0  0  0  0  0
  187.4220  176.8970  144.2440 C   0  0  0  0  0  2  0  0  0  0  0  0
  187.0620  177.6600  145.5050 C   0  0  0  0  0  2  0  0  0  0  0  0
  185.9630  178.5650  145.2230 N   0  0  0  0  0  2  0  0  0  0  0  0
  185.5500  178.3070  143.8520 C   0  0  0  0  0  2  0  0  0  0  0  0
  183.7050  179.7750  144.2820 O   0  0  0  0  0  1  0  0  0  0  0  0
  184.0600  178.5680  143.6730 C   0  0  1  0  0  3  0  0  0  0  0  0
  183.6890  178.5890  142.1990 C   0  0  0  0  0  2  0  0  0  0  0  0
  184.9330  178.4700  141.3380 C   0  0  0  0  0  2  0  0  0  0  0  0
  184.9350  179.5280  140.3470 N   0  0  0  0  0  1  0  0  0  0  0  0
  1 18  1  1  0  0  0
  1 15  1  0  0  0  0
  2  6  1  0  0  0  0
  2 13  1  0  0  0  0
  3 11  2  0  0  0  0
  3  9  1  0  0  0  0
  4  2  2  0  0  0  0
  5 12  1  0  0  0  0
  6 10  1  6  0  0  0
  6  3  1  0  0  0  0
  7  9  1  0  0  0  0
  8  4  1  0  0  0  0
  9  1  1  0  0  0  0
 12 10  2  0  0  0  0
 13  7  1  0  0  0  0
 14 12  1  0  0  0  0
 14  4  1  0  0  0  0
 15 17  1  0  0  0  0
 17 16  1  0  0  0  0
 18 19  1  0  0  0  0
 20 19  1  0  0  0  0
 21 20  1  0  0  0  0
 23 21  1  0  0  0  0
 23 22  1  6  0  0  0
 24 23  1  0  0  0  0
 25 24  1  0  0  0  0
 26 25  1  0  0  0  0
M  END
>  <MODEL>
1

>  <REMARK>
 VINA RESULT:      -6.7      0.000      0.000
  Name = 
  10 active torsions:
  status: ('A' for Active; 'I' for Inactive)
    1  A    between atoms: C_3  and  C_23
    2  A    between atoms: C_5  and  C_12
    3  A    between atoms: C_5  and  N_15
    4  A    between atoms: C_5  and  C_26
    5  A    between atoms: C_8  and  C_23
    6  A    between atoms: C_8  and  C_24
    7  A    between atoms: C_12  and  C_19
    8  A    between atoms: C_21  and  N_22
    9  A    between atoms: C_21  and  C_26
   10  A    between atoms: N_22  and  C_24
                            x       y       z     vdW  Elec       q    Type
                         _______ _______ _______ _____ _____    ______ ____

>  <TORSDO>
F 10

$$$$
=
 OpenBabel11042410543D

 26 27  0  0  1  0  0  0  0  0999 V2000
  189.5390  177.0850  142.6530 C   0  0  1  0  0  3  0  0  0  0  0  0
  188.0880  178.2640  138.8430 C   0  0  0  0  0  0  0  0  0  0  0  0
  189.9670  177.4270  140.2010 C   0  0  0  0  0  0  0  0  0  0  0  0
  187.4470  178.1980  137.6730 C   0  0  0  0  0  0  0  0  0  0  0  0
  190.0930  176.5390  135.4660 C   0  0  0  0  0  1  0  0  0  0  0  0
  189.5870  178.0700  138.8980 C   0  0  1  0  0  3  0  0  0  0  0  0
  188.0660  178.6420  141.2750 C   0  0  0  0  0  2  0  0  0  0  0  0
  186.0490  178.4640  137.5970 N   0  0  0  0  0  1  0  0  0  0  0  0
  189.1540  177.6620  141.3630 N   0  0  0  0  0  0  0  0  0  0  0  0
  190.1100  177.3200  137.7490 N   0  0  0  0  0  0  0  0  0  0  0  0
  191.0140  176.7290  140.2840 O   0  0  0  0  0  0  0  0  0  0  0  0
  189.4760  177.2480  136.6160 C   0  0  0  0  0  0  0  0  0  0  0  0
  187.3890  178.5230  140.0250 O   0  0  0  0  0  0  0  0  0  0  0  0
  188.1480  177.7660  136.5030 N   0  0  0  0  0  2  0  0  0  0  0  0
  190.2620  178.1030  143.5460 C   0  0  0  0  0  2  0  0  0  0  0  0
  191.6900  177.1920  145.2380 O   0  0  0  0  0  1  0  0  0  0  0  0
  191.6760  177.6840  143.9330 C   0  0  0  0  0  2  0  0  0  0  0  0
  188.3640  176.3870  143.3320 C   0  0  0  0  0  2  0  0  0  0  0  0
  188.0950  177.0040  144.6910 C   0  0  0  0  0  2  0  0  0  0  0  0
  186.8090  177.6770  144.6690 N   0  0  0  0  0  2  0  0  0  0  0  0
  186.2280  177.5130  145.9930 C   0  0  0  0  0  2  0  0  0  0  0  0
  185.6750  179.5130  147.1910 O   0  0  0  0  0  1  0  0  0  0  0  0
  185.1840  178.5880  146.2670 C   0  0  1  0  0  3  0  0  0  0  0  0
  184.7820  179.2890  144.9790 C   0  0  0  0  0  2  0  0  0  0  0  0
  183.3630  178.9150  144.5930 C   0  0  0  0  0  2  0  0  0  0  0  0
  183.2850  178.7430  143.1550 N   0  0  0  0  0  1  0  0  0  0  0  0
  1 18  1  1  0  0  0
  1 15  1  0  0  0  0
  2  6  1  0  0  0  0
  2 13  1  0  0  0  0
  3 11  2  0  0  0  0
  3  9  1  0  0  0  0
  4  2  2  0  0  0  0
  5 12  1  0  0  0  0
  6 10  1  6  0  0  0
  6  3  1  0  0  0  0
  7  9  1  0  0  0  0
  8  4  1  0  0  0  0
  9  1  1  0  0  0  0
 12 10  2  0  0  0  0
 13  7  1  0  0  0  0
 14 12  1  0  0  0  0
 14  4  1  0  0  0  0
 15 17  1  0  0  0  0
 17 16  1  0  0  0  0
 18 19  1  0  0  0  0
 20 19  1  0  0  0  0
 20 21  1  0  0  0  0
 21 23  1  0  0  0  0
 23 22  1  1  0  0  0
 24 23  1  0  0  0  0
 25 24  1  0  0  0  0
 26 25  1  0  0  0  0
M  END
>  <MODEL>
2

>  <REMARK>
 VINA RESULT:      -6.5      1.793      2.107
  Name = 
  10 active torsions:
  status: ('A' for Active; 'I' for Inactive)
    1  A    between atoms: C_3  and  C_23
    2  A    between atoms: C_5  and  C_12
    3  A    between atoms: C_5  and  N_15
    4  A    between atoms: C_5  and  C_26
    5  A    between atoms: C_8  and  C_23
    6  A    between atoms: C_8  and  C_24
    7  A    between atoms: C_12  and  C_19
    8  A    between atoms: C_21  and  N_22
    9  A    between atoms: C_21  and  C_26
   10  A    between atoms: N_22  and  C_24
                            x       y       z     vdW  Elec       q    Type
                         _______ _______ _______ _____ _____    ______ ____

>  <TORSDO>
F 10

$$$$
=
 OpenBabel11042410543D

 26 27  0  0  1  0  0  0  0  0999 V2000
  186.0000  178.4990  144.0930 C   0  0  1  0  0  3  0  0  0  0  0  0
  183.9610  178.1750  140.3850 C   0  0  0  0  0  0  0  0  0  0  0  0
  186.0010  178.8300  141.6020 C   0  0  0  0  0  0  0  0  0  0  0  0
  183.4570  177.6220  139.2790 C   0  0  0  0  0  0  0  0  0  0  0  0
  186.4500  177.8350  136.9080 C   0  0  0  0  0  1  0  0  0  0  0  0
  185.2410  178.9780  140.3160 C   0  0  1  0  0  3  0  0  0  0  0  0
  183.8140  178.6530  142.7950 C   0  0  0  0  0  2  0  0  0  0  0  0
  182.2080  176.9360  139.3160 N   0  0  0  0  0  1  0  0  0  0  0  0
  185.2790  178.5930  142.8220 N   0  0  0  0  0  0  0  0  0  0  0  0
  186.0680  178.6360  139.1520 N   0  0  0  0  0  0  0  0  0  0  0  0
  187.2560  178.9620  141.6170 O   0  0  0  0  0  0  0  0  0  0  0  0
  185.5750  178.0850  138.0830 C   0  0  0  0  0  0  0  0  0  0  0  0
  183.3110  178.0290  141.6140 O   0  0  0  0  0  0  0  0  0  0  0  0
  184.2180  177.6360  138.0680 N   0  0  0  0  0  2  0  0  0  0  0  0
  185.2500  179.2000  145.2340 C   0  0  0  0  0  2  0  0  0  0  0  0
  185.8660  179.2190  147.5470 O   0  0  0  0  0  1  0  0  0  0  0  0
  185.2830  178.4350  146.5520 C   0  0  0  0  0  2  0  0  0  0  0  0
  186.4060  177.0620  144.4060 C   0  0  0  0  0  2  0  0  0  0  0  0
  187.9010  176.8820  144.2220 C   0  0  0  0  0  2  0  0  0  0  0  0
  188.5870  178.0940  144.6290 N   0  0  0  0  0  2  0  0  0  0  0  0
  189.1500  177.8340  145.9450 C   0  0  0  0  0  2  0  0  0  0  0  0
  191.4250  177.7250  145.1980 O   0  0  0  0  0  1  0  0  0  0  0  0
  190.4180  176.9970  145.8390 C   0  0  1  0  0  3  0  0  0  0  0  0
  190.8840  176.5480  147.2150 C   0  0  0  0  0  2  0  0  0  0  0  0
  192.1480  175.7170  147.1010 C   0  0  0  0  0  2  0  0  0  0  0  0
  192.9940  175.9670  148.2520 N   0  0  0  0  0  1  0  0  0  0  0  0
  1 18  1  1  0  0  0
  1 15  1  0  0  0  0
  2 13  1  0  0  0  0
  3 11  2  0  0  0  0
  3  9  1  0  0  0  0
  4  8  1  0  0  0  0
  4  2  2  0  0  0  0
  5 12  1  0  0  0  0
  6 10  1  6  0  0  0
  6  2  1  0  0  0  0
  6  3  1  0  0  0  0
  7  9  1  0  0  0  0
  9  1  1  0  0  0  0
 12 10  2  0  0  0  0
 13  7  1  0  0  0  0
 14 12  1  0  0  0  0
 14  4  1  0  0  0  0
 15 17  1  0  0  0  0
 17 16  1  0  0  0  0
 19 18  1  0  0  0  0
 19 20  1  0  0  0  0
 20 21  1  0  0  0  0
 23 22  1  1  0  0  0
 23 21  1  0  0  0  0
 23 24  1  0  0  0  0
 25 24  1  0  0  0  0
 25 26  1  0  0  0  0
M  END
>  <MODEL>
3

>  <REMARK>
 VINA RESULT:      -6.3      2.845      5.905
  Name = 
  10 active torsions:
  status: ('A' for Active; 'I' for Inactive)
    1  A    between atoms: C_3  and  C_23
    2  A    between atoms: C_5  and  C_12
    3  A    between atoms: C_5  and  N_15
    4  A    between atoms: C_5  and  C_26
    5  A    between atoms: C_8  and  C_23
    6  A    between atoms: C_8  and  C_24
    7  A    between atoms: C_12  and  C_19
    8  A    between atoms: C_21  and  N_22
    9  A    between atoms: C_21  and  C_26
   10  A    between atoms: N_22  and  C_24
                            x       y       z     vdW  Elec       q    Type
                         _______ _______ _______ _____ _____    ______ ____

>  <TORSDO>
F 10

$$$$
=
 OpenBabel11042410543D

 26 27  0  0  1  0  0  0  0  0999 V2000
  185.2680  179.1110  143.5560 C   0  0  1  0  0  3  0  0  0  0  0  0
  188.5280  177.5570  141.3270 C   0  0  0  0  0  0  0  0  0  0  0  0
  186.3140  178.6390  141.3210 C   0  0  0  0  0  0  0  0  0  0  0  0
  189.7330  177.4900  140.7550 C   0  0  0  0  0  0  0  0  0  0  0  0
  189.0640  179.2080  137.4050 C   0  0  0  0  0  1  0  0  0  0  0  0
  187.3090  177.8790  140.4920 C   0  0  1  0  0  3  0  0  0  0  0  0
  187.0900  177.3470  143.3130 C   0  0  0  0  0  2  0  0  0  0  0  0
  190.8760  177.1040  141.5140 N   0  0  0  0  0  1  0  0  0  0  0  0
  186.2670  178.4170  142.7400 N   0  0  0  0  0  0  0  0  0  0  0  0
  187.6370  178.5880  139.2490 N   0  0  0  0  0  0  0  0  0  0  0  0
  185.4960  179.4250  140.7690 O   0  0  0  0  0  0  0  0  0  0  0  0
  188.8160  178.5300  138.7030 C   0  0  0  0  0  0  0  0  0  0  0  0
  188.3760  177.3230  142.6970 O   0  0  0  0  0  0  0  0  0  0  0  0
  189.8960  177.8960  139.3930 N   0  0  0  0  0  2  0  0  0  0  0  0
  183.9560  178.3200  143.6550 C   0  0  0  0  0  2  0  0  0  0  0  0
  182.3920  178.7240  141.8890 O   0  0  0  0  0  1  0  0  0  0  0  0
  182.7330  179.1000  143.1880 C   0  0  0  0  0  2  0  0  0  0  0  0
  185.8390  179.5390  144.9050 C   0  0  0  0  0  2  0  0  0  0  0  0
  185.2190  178.7270  146.0250 C   0  0  0  0  0  2  0  0  0  0  0  0
  186.1290  178.6900  147.1550 N   0  0  0  0  0  2  0  0  0  0  0  0
  187.0600  177.5990  146.9070 C   0  0  0  0  0  2  0  0  0  0  0  0
  188.4730  178.2090  148.7440 O   0  0  0  0  0  1  0  0  0  0  0  0
  188.4640  177.9660  147.3680 C   0  0  1  0  0  3  0  0  0  0  0  0
  189.4510  176.8640  147.0190 C   0  0  0  0  0  2  0  0  0  0  0  0
  190.3470  177.2970  145.8750 C   0  0  0  0  0  2  0  0  0  0  0  0
  191.7260  176.9870  146.1990 N   0  0  0  0  0  1  0  0  0  0  0  0
  1 15  1  1  0  0  0
  1 18  1  0  0  0  0
  2 13  1  0  0  0  0
  3  9  1  0  0  0  0
  4  2  2  0  0  0  0
  4  8  1  0  0  0  0
  5 12  1  0  0  0  0
  6 10  1  6  0  0  0
  6  3  1  0  0  0  0
  6  2  1  0  0  0  0
  9  7  1  0  0  0  0
  9  1  1  0  0  0  0
 11  3  2  0  0  0  0
 12 10  2  0  0  0  0
 12 14  1  0  0  0  0
 13  7  1  0  0  0  0
 14  4  1  0  0  0  0
 16 17  1  0  0  0  0
 17 15  1  0  0  0  0
 18 19  1  0  0  0  0
 19 20  1  0  0  0  0
 21 20  1  0  0  0  0
 21 23  1  0  0  0  0
 23 22  1  1  0  0  0
 24 23  1  0  0  0  0
 25 26  1  0  0  0  0
 25 24  1  0  0  0  0
M  END
>  <MODEL>
4

>  <REMARK>
 VINA RESULT:      -6.2      2.134      5.247
  Name = 
  10 active torsions:
  status: ('A' for Active; 'I' for Inactive)
    1  A    between atoms: C_3  and  C_23
    2  A    between atoms: C_5  and  C_12
    3  A    between atoms: C_5  and  N_15
    4  A    between atoms: C_5  and  C_26
    5  A    between atoms: C_8  and  C_23
    6  A    between atoms: C_8  and  C_24
    7  A    between atoms: C_12  and  C_19
    8  A    between atoms: C_21  and  N_22
    9  A    between atoms: C_21  and  C_26
   10  A    between atoms: N_22  and  C_24
                            x       y       z     vdW  Elec       q    Type
                         _______ _______ _______ _____ _____    ______ ____

>  <TORSDO>
F 10

$$$$
=
 OpenBabel11042410543D

 26 27  0  0  1  0  0  0  0  0999 V2000
  185.5800  178.7320  144.0880 C   0  0  1  0  0  3  0  0  0  0  0  0
  183.7520  178.0900  140.3110 C   0  0  0  0  0  0  0  0  0  0  0  0
  185.6680  178.9700  141.5880 C   0  0  0  0  0  0  0  0  0  0  0  0
  183.3510  177.4530  139.2080 C   0  0  0  0  0  0  0  0  0  0  0  0
  186.4210  177.8440  136.9630 C   0  0  0  0  0  1  0  0  0  0  0  0
  184.9590  179.0000  140.2650 C   0  0  1  0  0  3  0  0  0  0  0  0
  183.4510  178.6420  142.6910 C   0  0  0  0  0  2  0  0  0  0  0  0
  182.1660  176.6610  139.2190 N   0  0  0  0  0  1  0  0  0  0  0  0
  184.9130  178.7150  142.7840 N   0  0  0  0  0  0  0  0  0  0  0  0
  185.8670  178.6910  139.1530 N   0  0  0  0  0  0  0  0  0  0  0  0
  186.9040  179.2130  141.6520 O   0  0  0  0  0  0  0  0  0  0  0  0
  185.4740  178.0590  138.0870 C   0  0  0  0  0  0  0  0  0  0  0  0
  183.0610  177.9330  141.5170 O   0  0  0  0  0  0  0  0  0  0  0  0
  184.1630  177.4900  138.0320 N   0  0  0  0  0  2  0  0  0  0  0  0
  184.6000  179.0310  145.2310 C   0  0  0  0  0  2  0  0  0  0  0  0
  185.6790  179.3800  147.3390 O   0  0  0  0  0  1  0  0  0  0  0  0
  185.0130  178.4280  146.5680 C   0  0  0  0  0  2  0  0  0  0  0  0
  186.4270  177.4830  144.3060 C   0  0  0  0  0  2  0  0  0  0  0  0
  187.8080  177.8590  144.8070 C   0  0  0  0  0  2  0  0  0  0  0  0
  188.7200  176.7530  144.5830 N   0  0  0  0  0  2  0  0  0  0  0  0
  188.4910  176.2900  143.2230 C   0  0  0  0  0  2  0  0  0  0  0  0
  189.6840  177.3600  141.4420 O   0  0  0  0  0  1  0  0  0  0  0  0
  189.7730  176.3510  142.4030 C   0  0  1  0  0  3  0  0  0  0  0  0
  190.9770  176.5810  143.3030 C   0  0  0  0  0  2  0  0  0  0  0  0
  191.6870  177.8650  142.9180 C   0  0  0  0  0  2  0  0  0  0  0  0
  191.5360  178.8370  143.9840 N   0  0  0  0  0  1  0  0  0  0  0  0
  1 18  1  1  0  0  0
  1 15  1  0  0  0  0
  2 13  1  0  0  0  0
  3 11  2  0  0  0  0
  3  9  1  0  0  0  0
  4  8  1  0  0  0  0
  4  2  2  0  0  0  0
  5 12  1  0  0  0  0
  6 10  1  6  0  0  0
  6  2  1  0  0  0  0
  6  3  1  0  0  0  0
  7  9  1  0  0  0  0
  9  1  1  0  0  0  0
 12 10  2  0  0  0  0
 13  7  1  0  0  0  0
 14 12  1  0  0  0  0
 14  4  1  0  0  0  0
 15 17  1  0  0  0  0
 17 16  1  0  0  0  0
 18 19  1  0  0  0  0
 20 19  1  0  0  0  0
 21 20  1  0  0  0  0
 23 22  1  6  0  0  0
 23 21  1  0  0  0  0
 23 24  1  0  0  0  0
 25 24  1  0  0  0  0
 25 26  1  0  0  0  0
M  END
>  <MODEL>
5

>  <REMARK>
 VINA RESULT:      -6.1      2.801      5.456
  Name = 
  10 active torsions:
  status: ('A' for Active; 'I' for Inactive)
    1  A    between atoms: C_3  and  C_23
    2  A    between atoms: C_5  and  C_12
    3  A    between atoms: C_5  and  N_15
    4  A    between atoms: C_5  and  C_26
    5  A    between atoms: C_8  and  C_23
    6  A    between atoms: C_8  and  C_24
    7  A    between atoms: C_12  and  C_19
    8  A    between atoms: C_21  and  N_22
    9  A    between atoms: C_21  and  C_26
   10  A    between atoms: N_22  and  C_24
                            x       y       z     vdW  Elec       q    Type
                         _______ _______ _______ _____ _____    ______ ____

>  <TORSDO>
F 10

$$$$
=
 OpenBabel11042410543D

 26 27  0  0  1  0  0  0  0  0999 V2000
  189.1800  177.1260  142.8090 C   0  0  1  0  0  3  0  0  0  0  0  0
  187.6900  178.0570  138.9460 C   0  0  0  0  0  0  0  0  0  0  0  0
  189.5560  177.2280  140.3270 C   0  0  0  0  0  0  0  0  0  0  0  0
  187.0130  177.9280  137.8020 C   0  0  0  0  0  0  0  0  0  0  0  0
  189.4930  175.9290  135.6870 C   0  0  0  0  0  1  0  0  0  0  0  0
  189.1760  177.7780  138.9820 C   0  0  1  0  0  3  0  0  0  0  0  0
  187.7610  178.6430  141.3350 C   0  0  0  0  0  2  0  0  0  0  0  0
  185.6310  178.2700  137.7360 N   0  0  0  0  0  1  0  0  0  0  0  0
  188.7920  177.6110  141.4830 N   0  0  0  0  0  0  0  0  0  0  0  0
  189.6210  176.9020  137.8910 N   0  0  0  0  0  0  0  0  0  0  0  0
  190.5630  176.4780  140.4460 O   0  0  0  0  0  0  0  0  0  0  0  0
  188.9510  176.7700  136.7850 C   0  0  0  0  0  0  0  0  0  0  0  0
  187.0410  178.4580  140.1170 O   0  0  0  0  0  0  0  0  0  0  0  0
  187.6530  177.3560  136.6580 N   0  0  0  0  0  2  0  0  0  0  0  0
  189.9250  178.1960  143.6190 C   0  0  0  0  0  2  0  0  0  0  0  0
  192.0410  179.0630  144.3270 O   0  0  0  0  0  1  0  0  0  0  0  0
  191.4430  178.0800  143.5390 C   0  0  0  0  0  2  0  0  0  0  0  0
  188.0020  176.4970  143.5470 C   0  0  0  0  0  2  0  0  0  0  0  0
  187.3100  177.5280  144.4180 C   0  0  0  0  0  2  0  0  0  0  0  0
  187.3720  177.1070  145.8060 N   0  0  0  0  0  2  0  0  0  0  0  0
  187.8710  178.2430  146.5660 C   0  0  0  0  0  2  0  0  0  0  0  0
  187.9180  177.4360  148.8220 O   0  0  0  0  0  1  0  0  0  0  0  0
  188.7280  177.7800  147.7370 C   0  0  1  0  0  3  0  0  0  0  0  0
  189.6010  176.6020  147.3340 C   0  0  0  0  0  2  0  0  0  0  0  0
  191.0620  177.0090  147.3090 C   0  0  0  0  0  2  0  0  0  0  0  0
  191.8100  176.0680  146.4980 N   0  0  0  0  0  1  0  0  0  0  0  0
  1 18  1  1  0  0  0
  1 15  1  0  0  0  0
  2  6  1  0  0  0  0
  2 13  1  0  0  0  0
  3 11  2  0  0  0  0
  3  9  1  0  0  0  0
  4  2  2  0  0  0  0
  5 12  1  0  0  0  0
  6 10  1  6  0  0  0
  6  3  1  0  0  0  0
  7  9  1  0  0  0  0
  8  4  1  0  0  0  0
  9  1  1  0  0  0  0
 12 10  2  0  0  0  0
 13  7  1  0  0  0  0
 14 12  1  0  0  0  0
 14  4  1  0  0  0  0
 17 15  1  0  0  0  0
 17 16  1  0  0  0  0
 18 19  1  0  0  0  0
 19 20  1  0  0  0  0
 20 21  1  0  0  0  0
 21 23  1  0  0  0  0
 23 22  1  1  0  0  0
 24 23  1  0  0  0  0
 25 24  1  0  0  0  0
 26 25  1  0  0  0  0
M  END
>  <MODEL>
6

>  <REMARK>
 VINA RESULT:      -6.0      2.233      3.907
  Name = 
  10 active torsions:
  status: ('A' for Active; 'I' for Inactive)
    1  A    between atoms: C_3  and  C_23
    2  A    between atoms: C_5  and  C_12
    3  A    between atoms: C_5  and  N_15
    4  A    between atoms: C_5  and  C_26
    5  A    between atoms: C_8  and  C_23
    6  A    between atoms: C_8  and  C_24
    7  A    between atoms: C_12  and  C_19
    8  A    between atoms: C_21  and  N_22
    9  A    between atoms: C_21  and  C_26
   10  A    between atoms: N_22  and  C_24
                            x       y       z     vdW  Elec       q    Type
                         _______ _______ _______ _____ _____    ______ ____

>  <TORSDO>
F 10

$$$$
=
 OpenBabel11042410543D

 26 27  0  0  1  0  0  0  0  0999 V2000
  185.3920  178.1930  142.8690 C   0  0  1  0  0  3  0  0  0  0  0  0
  181.1800  178.7170  142.9390 C   0  0  0  0  0  0  0  0  0  0  0  0
  183.2170  178.3050  141.6140 C   0  0  0  0  0  0  0  0  0  0  0  0
  179.8870  178.4300  143.1060 C   0  0  0  0  0  0  0  0  0  0  0  0
  179.0190  176.9040  139.7090 C   0  0  0  0  0  1  0  0  0  0  0  0
  181.7800  178.7360  141.5510 C   0  0  1  0  0  3  0  0  0  0  0  0
  183.3650  179.3650  143.8720 C   0  0  0  0  0  2  0  0  0  0  0  0
  179.2910  178.4930  144.3990 N   0  0  0  0  0  1  0  0  0  0  0  0
  183.9750  178.5590  142.8090 N   0  0  0  0  0  0  0  0  0  0  0  0
  181.0150  177.9380  140.5860 N   0  0  0  0  0  0  0  0  0  0  0  0
  183.7650  177.7700  140.6120 O   0  0  0  0  0  0  0  0  0  0  0  0
  179.7590  177.6490  140.7590 C   0  0  0  0  0  0  0  0  0  0  0  0
  181.9920  179.0120  144.0390 O   0  0  0  0  0  0  0  0  0  0  0  0
  179.1140  177.9660  141.9950 N   0  0  0  0  0  2  0  0  0  0  0  0
  186.2710  179.1600  142.0640 C   0  0  0  0  0  2  0  0  0  0  0  0
  186.8810  178.6310  139.8110 O   0  0  0  0  0  1  0  0  0  0  0  0
  187.2640  178.4640  141.1420 C   0  0  0  0  0  2  0  0  0  0  0  0
  185.8590  177.9760  144.3050 C   0  0  0  0  0  2  0  0  0  0  0  0
  187.1160  177.1280  144.3310 C   0  0  0  0  0  2  0  0  0  0  0  0
  188.1650  177.8440  145.0340 N   0  0  0  0  0  2  0  0  0  0  0  0
  187.9030  177.6800  146.4560 C   0  0  0  0  0  2  0  0  0  0  0  0
  188.8950  178.1460  148.5870 O   0  0  0  0  0  1  0  0  0  0  0  0
  189.1880  177.8020  147.2640 C   0  0  1  0  0  3  0  0  0  0  0  0
  189.9800  176.5050  147.2180 C   0  0  0  0  0  2  0  0  0  0  0  0
  191.4560  176.7930  147.0200 C   0  0  0  0  0  2  0  0  0  0  0  0
  192.1990  175.5490  147.0660 N   0  0  0  0  0  1  0  0  0  0  0  0
  1 15  1  1  0  0  0
  1 18  1  0  0  0  0
  2  4  2  0  0  0  0
  2 13  1  0  0  0  0
  3  9  1  0  0  0  0
  4  8  1  0  0  0  0
  5 12  1  0  0  0  0
  6 10  1  6  0  0  0
  6  3  1  0  0  0  0
  6  2  1  0  0  0  0
  7 13  1  0  0  0  0
  9  1  1  0  0  0  0
  9  7  1  0  0  0  0
 10 12  2  0  0  0  0
 11  3  2  0  0  0  0
 12 14  1  0  0  0  0
 14  4  1  0  0  0  0
 16 17  1  0  0  0  0
 17 15  1  0  0  0  0
 18 19  1  0  0  0  0
 19 20  1  0  0  0  0
 20 21  1  0  0  0  0
 21 23  1  0  0  0  0
 23 22  1  1  0  0  0
 24 23  1  0  0  0  0
 25 26  1  0  0  0  0
 25 24  1  0  0  0  0
M  END
>  <MODEL>
7

>  <REMARK>
 VINA RESULT:      -5.9      3.567      7.790
  Name = 
  10 active torsions:
  status: ('A' for Active; 'I' for Inactive)
    1  A    between atoms: C_3  and  C_23
    2  A    between atoms: C_5  and  C_12
    3  A    between atoms: C_5  and  N_15
    4  A    between atoms: C_5  and  C_26
    5  A    between atoms: C_8  and  C_23
    6  A    between atoms: C_8  and  C_24
    7  A    between atoms: C_12  and  C_19
    8  A    between atoms: C_21  and  N_22
    9  A    between atoms: C_21  and  C_26
   10  A    between atoms: N_22  and  C_24
                            x       y       z     vdW  Elec       q    Type
                         _______ _______ _______ _____ _____    ______ ____

>  <TORSDO>
F 10

$$$$
=
 OpenBabel11042410543D

 26 27  0  0  1  0  0  0  0  0999 V2000
  189.0100  178.0870  141.6610 C   0  0  1  0  0  3  0  0  0  0  0  0
  186.7830  177.8100  145.2630 C   0  0  0  0  0  0  0  0  0  0  0  0
  188.9530  177.5680  144.1190 C   0  0  0  0  0  0  0  0  0  0  0  0
  186.1510  178.1930  146.3750 C   0  0  0  0  0  0  0  0  0  0  0  0
  189.0330  178.2530  148.8880 C   0  0  0  0  0  1  0  0  0  0  0  0
  188.1680  177.2080  145.3470 C   0  0  1  0  0  3  0  0  0  0  0  0
  186.8190  177.5040  142.8210 C   0  0  0  0  0  2  0  0  0  0  0  0
  184.8140  178.6820  146.3170 N   0  0  0  0  0  1  0  0  0  0  0  0
  188.2570  177.7860  142.8800 N   0  0  0  0  0  0  0  0  0  0  0  0
  188.8800  177.5800  146.5760 N   0  0  0  0  0  0  0  0  0  0  0  0
  190.2120  177.6300  144.1640 O   0  0  0  0  0  0  0  0  0  0  0  0
  188.2610  177.9650  147.6520 C   0  0  0  0  0  0  0  0  0  0  0  0
  186.1740  177.9500  144.0120 O   0  0  0  0  0  0  0  0  0  0  0  0
  186.8510  178.2010  147.6230 N   0  0  0  0  0  2  0  0  0  0  0  0
  189.8330  176.8840  141.1810 C   0  0  0  0  0  2  0  0  0  0  0  0
  191.7480  177.1510  139.7690 O   0  0  0  0  0  1  0  0  0  0  0  0
  191.3310  177.1570  141.1000 C   0  0  0  0  0  2  0  0  0  0  0  0
  188.1210  178.7010  140.5840 C   0  0  0  0  0  2  0  0  0  0  0  0
  188.1880  177.8810  139.3100 C   0  0  0  0  0  2  0  0  0  0  0  0
  188.2640  178.7720  138.1670 N   0  0  0  0  0  2  0  0  0  0  0  0
  189.4180  178.3530  137.3860 C   0  0  0  0  0  2  0  0  0  0  0  0
  188.5720  177.4600  135.3290 O   0  0  0  0  0  1  0  0  0  0  0  0
  189.1010  177.1050  136.5720 C   0  0  1  0  0  3  0  0  0  0  0  0
  190.3440  176.2480  136.3940 C   0  0  0  0  0  2  0  0  0  0  0  0
  190.0740  174.8240  136.8420 C   0  0  0  0  0  2  0  0  0  0  0  0
  190.9360  174.5000  137.9620 N   0  0  0  0  0  1  0  0  0  0  0  0
  1 18  1  6  0  0  0
  1  9  1  0  0  0  0
  2  6  1  0  0  0  0
  2  4  2  0  0  0  0
  3 11  2  0  0  0  0
  4 14  1  0  0  0  0
  6  3  1  6  0  0  0
  6 10  1  0  0  0  0
  7  9  1  0  0  0  0
  7 13  1  0  0  0  0
  8  4  1  0  0  0  0
  9  3  1  0  0  0  0
 10 12  2  0  0  0  0
 12  5  1  0  0  0  0
 13  2  1  0  0  0  0
 14 12  1  0  0  0  0
 15  1  1  0  0  0  0
 16 17  1  0  0  0  0
 17 15  1  0  0  0  0
 19 18  1  0  0  0  0
 20 19  1  0  0  0  0
 21 20  1  0  0  0  0
 23 22  1  6  0  0  0
 23 21  1  0  0  0  0
 24 23  1  0  0  0  0
 24 25  1  0  0  0  0
 25 26  1  0  0  0  0
M  END
>  <MODEL>
8

>  <REMARK>
 VINA RESULT:      -5.9      2.204      7.090
  Name = 
  10 active torsions:
  status: ('A' for Active; 'I' for Inactive)
    1  A    between atoms: C_3  and  C_23
    2  A    between atoms: C_5  and  C_12
    3  A    between atoms: C_5  and  N_15
    4  A    between atoms: C_5  and  C_26
    5  A    between atoms: C_8  and  C_23
    6  A    between atoms: C_8  and  C_24
    7  A    between atoms: C_12  and  C_19
    8  A    between atoms: C_21  and  N_22
    9  A    between atoms: C_21  and  C_26
   10  A    between atoms: N_22  and  C_24
                            x       y       z     vdW  Elec       q    Type
                         _______ _______ _______ _____ _____    ______ ____

>  <TORSDO>
F 10

$$$$
=
 OpenBabel11042410543D

 26 27  0  0  1  0  0  0  0  0999 V2000
  189.9000  177.1270  140.2550 C   0  0  1  0  0  3  0  0  0  0  0  0
  190.7100  177.3900  144.4130 C   0  0  0  0  0  0  0  0  0  0  0  0
  189.1510  177.8160  142.5520 C   0  0  0  0  0  0  0  0  0  0  0  0
  190.8420  177.0140  145.6870 C   0  0  0  0  0  0  0  0  0  0  0  0
  187.2760  177.5000  146.9810 C   0  0  0  0  0  1  0  0  0  0  0  0
  189.4880  178.1650  143.9730 C   0  0  1  0  0  3  0  0  0  0  0  0
  191.5920  177.5170  142.1180 C   0  0  0  0  0  2  0  0  0  0  0  0
  192.0270  176.3590  146.1310 N   0  0  0  0  0  1  0  0  0  0  0  0
  190.2040  177.4210  141.6570 N   0  0  0  0  0  0  0  0  0  0  0  0
  188.3390  177.9770  144.8680 N   0  0  0  0  0  0  0  0  0  0  0  0
  187.9630  177.9150  142.1380 O   0  0  0  0  0  0  0  0  0  0  0  0
  188.4710  177.5980  146.1040 C   0  0  0  0  0  0  0  0  0  0  0  0
  191.6990  177.0820  143.4730 O   0  0  0  0  0  0  0  0  0  0  0  0
  189.7500  177.1860  146.5950 N   0  0  0  0  0  2  0  0  0  0  0  0
  189.2110  178.3080  139.5560 C   0  0  0  0  0  2  0  0  0  0  0  0
  186.8850  178.6260  139.0900 O   0  0  0  0  0  1  0  0  0  0  0  0
  188.0140  177.9030  138.7040 C   0  0  0  0  0  2  0  0  0  0  0  0
  191.1200  176.5910  139.5130 C   0  0  0  0  0  2  0  0  0  0  0  0
  190.6920  175.7340  138.3370 C   0  0  0  0  0  2  0  0  0  0  0  0
  191.3900  176.1710  137.1420 N   0  0  0  0  0  2  0  0  0  0  0  0
  192.7800  176.3750  137.5210 C   0  0  0  0  0  2  0  0  0  0  0  0
  194.9110  176.2700  136.4300 O   0  0  0  0  0  1  0  0  0  0  0  0
  193.7130  175.5760  136.6210 C   0  0  1  0  0  3  0  0  0  0  0  0
  193.9850  174.2020  137.2110 C   0  0  0  0  0  2  0  0  0  0  0  0
  194.9520  174.3070  138.3740 C   0  0  0  0  0  2  0  0  0  0  0  0
  195.4360  172.9840  138.7190 N   0  0  0  0  0  1  0  0  0  0  0  0
  1 18  1  6  0  0  0
  1  9  1  0  0  0  0
  2  4  2  0  0  0  0
  4  8  1  0  0  0  0
  4 14  1  0  0  0  0
  6  3  1  6  0  0  0
  6  2  1  0  0  0  0
  6 10  1  0  0  0  0
  7 13  1  0  0  0  0
  9  7  1  0  0  0  0
  9  3  1  0  0  0  0
 10 12  2  0  0  0  0
 11  3  2  0  0  0  0
 12 14  1  0  0  0  0
 12  5  1  0  0  0  0
 13  2  1  0  0  0  0
 15  1  1  0  0  0  0
 17 16  1  0  0  0  0
 17 15  1  0  0  0  0
 19 18  1  0  0  0  0
 20 21  1  0  0  0  0
 20 19  1  0  0  0  0
 23 22  1  1  0  0  0
 23 24  1  0  0  0  0
 23 21  1  0  0  0  0
 24 25  1  0  0  0  0
 25 26  1  0  0  0  0
M  END
>  <MODEL>
9

>  <REMARK>
 VINA RESULT:      -5.8      2.874      8.292
  Name = 
  10 active torsions:
  status: ('A' for Active; 'I' for Inactive)
    1  A    between atoms: C_3  and  C_23
    2  A    between atoms: C_5  and  C_12
    3  A    between atoms: C_5  and  N_15
    4  A    between atoms: C_5  and  C_26
    5  A    between atoms: C_8  and  C_23
    6  A    between atoms: C_8  and  C_24
    7  A    between atoms: C_12  and  C_19
    8  A    between atoms: C_21  and  N_22
    9  A    between atoms: C_21  and  C_26
   10  A    between atoms: N_22  and  C_24
                            x       y       z     vdW  Elec       q    Type
                         _______ _______ _______ _____ _____    ______ ____

>  <TORSDO>
F 10

$$$$
