=
 OpenBabel11032420033D

 46 51  0  0  1  0  0  0  0  0999 V2000
  187.3010  178.5710  138.8460 N   0  0  0  0  0  2  0  0  0  0  0  0
  189.6050  177.9330  138.5870 C   0  0  1  0  0  3  0  0  0  0  0  0
  189.0180  177.9680  136.8750 S   0  0  0  0  0  0  0  0  0  0  0  0
  188.3950  177.8580  139.4880 C   0  0  1  0  0  3  0  0  0  0  0  0
  187.2980  178.1910  137.4380 C   0  0  1  0  0  3  0  0  0  0  0  0
  187.3500  175.8210  136.6290 C   0  0  2  0  0  3  0  0  0  0  0  0
  187.7140  174.8910  137.6070 O   0  0  0  0  0  1  0  0  0  0  0  0
  185.5750  176.3180  135.1220 C   0  0  0  0  0  2  0  0  0  0  0  0
  186.4790  176.9160  137.2180 C   0  0  2  0  0  3  0  0  0  0  0  0
  185.3770  177.1740  136.2890 N   0  0  0  0  0  2  0  0  0  0  0  0
  186.5280  175.2090  135.5110 C   0  0  2  0  0  3  0  0  0  0  0  0
  184.7100  174.0100  136.7100 C   0  0  0  0  0  3  0  0  0  0  0  0
  183.9160  172.7970  137.1060 C   0  0  0  0  0  2  0  0  0  0  0  0
  185.7800  173.9440  135.8910 C   0  0  0  0  0  0  0  0  0  0  0  0
  186.1730  172.6420  135.2080 C   0  0  2  0  0  3  0  0  0  0  0  0
  185.4230  171.4100  135.7270 C   0  0  0  0  0  2  0  0  0  0  0  0
  183.9650  171.7390  136.0130 C   0  0  1  0  0  3  0  0  0  0  0  0
  183.2500  170.4940  136.4910 C   0  0  0  0  0  1  0  0  0  0  0  0
  187.6470  172.4030  135.2910 C   0  0  0  0  0  0  0  0  0  0  0  0
  188.4350  173.1200  134.6230 O   0  0  0  0  0  0  0  0  0  0  0  0
  188.1520  171.3990  136.1080 O   0  0  0  0  0  1  0  0  0  0  0  0
  190.4930  176.7180  138.8020 C   0  0  0  0  0  2  0  0  0  0  0  0
  191.3630  176.4700  137.5840 C   0  0  0  0  0  2  0  0  0  0  0  0
  192.6190  175.7060  137.9870 C   0  0  1  0  0  3  0  0  0  0  0  0
  193.0840  175.6610  135.4100 C   0  0  0  0  0  1  0  0  0  0  0  0
  193.4760  175.3030  136.8410 C   0  0  1  0  0  0  0  0  0  0  0  0
  193.7600  176.4470  137.6060 O   0  0  0  0  0  0  0  0  0  0  0  0
  196.8690  173.0460  137.3980 S   0  0  0  0  0  0  0  0  0  0  0  0
  195.9370  172.1890  136.0900 C   0  0  2  0  0  3  0  0  0  0  0  0
  194.1920  172.7200  136.0490 S   0  0  0  0  0  0  0  0  0  0  0  0
  194.4600  174.1670  137.1210 C   0  0  1  0  0  3  0  0  0  0  0  0
  195.9270  174.5690  137.1600 C   0  0  2  0  0  3  0  0  0  0  0  0
  196.0120  170.6900  136.3020 C   0  0  0  0  0  1  0  0  0  0  0  0
  196.3930  175.2670  135.8900 C   0  0  0  0  0  1  0  0  0  0  0  0
  188.7200  178.5040  140.8270 C   0  0  0  0  0  2  0  0  0  0  0  0
  187.7140  177.9070  143.1190 C   0  0  0  0  0  0  0  0  0  0  0  0
  185.1880  178.7010  142.1030 C   0  0  0  0  0  3  0  0  0  0  0  0
  186.3210  178.8020  141.3080 C   0  0  0  0  0  3  0  0  0  0  0  0
  187.5710  178.4010  141.7850 C   0  0  0  0  0  0  0  0  0  0  0  0
  185.2910  178.1780  143.3870 C   0  0  0  0  0  3  0  0  0  0  0  0
  186.5230  177.7690  143.8980 C   0  0  0  0  0  0  0  0  0  0  0  0
  186.4820  177.1560  145.2580 C   0  0  0  0  0  1  0  0  0  0  0  0
  189.4480  176.0700  143.2380 C   0  0  0  0  0  1  0  0  0  0  0  0
  190.1230  178.3040  143.1630 O   0  0  0  0  0  1  0  0  0  0  0  0
  189.1000  177.4930  143.6500 C   0  0  0  0  0  0  0  0  0  0  0  0
  189.1130  177.5860  145.1640 C   0  0  0  0  0  1  0  0  0  0  0  0
  1  4  1  0  0  0  0
  2 22  1  6  0  0  0
  2  4  1  0  0  0  0
  3  2  1  0  0  0  0
  4 35  1  1  0  0  0
  5  3  1  1  0  0  0
  5  1  1  0  0  0  0
  6  9  1  0  0  0  0
  6  7  1  1  0  0  0
  8 11  1  0  0  0  0
  8 10  1  0  0  0  0
  9 10  1  6  0  0  0
  9  5  1  0  0  0  0
 11 14  1  1  0  0  0
 11  6  1  0  0  0  0
 12 13  1  0  0  0  0
 14 12  2  0  0  0  0
 15 19  1  1  0  0  0
 15 16  1  0  0  0  0
 15 14  1  0  0  0  0
 16 17  1  0  0  0  0
 17 18  1  1  0  0  0
 17 13  1  0  0  0  0
 19 21  1  0  0  0  0
 20 19  2  0  0  0  0
 23 22  1  0  0  0  0
 24 23  1  6  0  0  0
 26 25  1  6  0  0  0
 26 31  1  0  0  0  0
 26 27  1  0  0  0  0
 26 24  1  0  0  0  0
 27 24  1  0  0  0  0
 29 33  1  1  0  0  0
 29 28  1  0  0  0  0
 30 29  1  0  0  0  0
 31 30  1  6  0  0  0
 31 32  1  0  0  0  0
 32 34  1  6  0  0  0
 32 28  1  0  0  0  0
 35 39  1  0  0  0  0
 36 45  1  0  0  0  0
 36 41  1  0  0  0  0
 37 40  1  0  0  0  0
 38 39  1  0  0  0  0
 38 37  2  0  0  0  0
 39 36  2  0  0  0  0
 40 41  2  0  0  0  0
 41 42  1  0  0  0  0
 43 45  1  0  0  0  0
 44 45  1  0  0  0  0
 45 46  1  0  0  0  0
M  END
>  <MODEL>
1

>  <REMARK>
 VINA RESULT:      -8.3      0.000      0.000
  Name = 
  10 active torsions:
  status: ('A' for Active; 'I' for Inactive)
    1  A    between atoms: C_8  and  C_10
    2  A    between atoms: C_9  and  C_23
    3  A    between atoms: C_10  and  C_12
    4  A    between atoms: C_12  and  C_16
    5  A    between atoms: C_15  and  C_26
    6  A    between atoms: C_18  and  C_43
    7  A    between atoms: C_19  and  C_45
    8  A    between atoms: C_22  and  C_42
    9  A    between atoms: C_25  and  C_29
   10  A    between atoms: C_29  and  C_41
                            x       y       z     vdW  Elec       q    Type
                         _______ _______ _______ _____ _____    ______ ____

>  <TORSDO>
F 10

$$$$
=
 OpenBabel11032420033D

 46 51  0  0  1  0  0  0  0  0999 V2000
  187.4600  178.2530  142.4140 N   0  0  0  0  0  2  0  0  0  0  0  0
  189.0050  177.6320  140.6790 C   0  0  1  0  0  3  0  0  0  0  0  0
  187.9810  178.8770  139.8580 S   0  0  0  0  0  0  0  0  0  0  0  0
  188.2560  177.1490  141.8990 C   0  0  1  0  0  3  0  0  0  0  0  0
  186.8320  178.9100  141.2730 C   0  0  1  0  0  3  0  0  0  0  0  0
  184.6360  179.1720  140.0980 C   0  0  2  0  0  3  0  0  0  0  0  0
  184.6670  178.8230  138.7440 O   0  0  0  0  0  1  0  0  0  0  0  0
  183.5100  178.6190  142.1220 C   0  0  0  0  0  2  0  0  0  0  0  0
  185.5040  178.2350  140.9190 C   0  0  2  0  0  3  0  0  0  0  0  0
  184.7720  177.8840  142.1370 N   0  0  0  0  0  2  0  0  0  0  0  0
  183.2480  179.0690  140.7010 C   0  0  2  0  0  3  0  0  0  0  0  0
  182.6120  176.8020  139.9020 C   0  0  0  0  0  3  0  0  0  0  0  0
  181.7170  175.8050  139.2220 C   0  0  0  0  0  2  0  0  0  0  0  0
  182.3120  178.1150  139.9820 C   0  0  0  0  0  0  0  0  0  0  0  0
  180.9730  178.6500  139.4960 C   0  0  2  0  0  3  0  0  0  0  0  0
  180.1420  177.6340  138.7030 C   0  0  0  0  0  2  0  0  0  0  0  0
  180.2610  176.2420  139.3060 C   0  0  1  0  0  3  0  0  0  0  0  0
  179.4040  175.2740  138.5190 C   0  0  0  0  0  1  0  0  0  0  0  0
  181.1410  179.8980  138.6900 C   0  0  0  0  0  0  0  0  0  0  0  0
  181.6530  179.8370  137.5430 O   0  0  0  0  0  0  0  0  0  0  0  0
  180.7270  181.1240  139.1970 O   0  0  0  0  0  1  0  0  0  0  0  0
  189.2650  176.4710  139.7330 C   0  0  0  0  0  2  0  0  0  0  0  0
  190.2220  176.8860  138.6300 C   0  0  0  0  0  2  0  0  0  0  0  0
  191.4750  176.0180  138.6740 C   0  0  1  0  0  3  0  0  0  0  0  0
  191.1800  175.9450  136.0730 C   0  0  0  0  0  1  0  0  0  0  0  0
  191.9330  175.5500  137.3400 C   0  0  1  0  0  0  0  0  0  0  0  0
  192.5160  176.6630  137.9710 O   0  0  0  0  0  0  0  0  0  0  0  0
  195.1970  173.0530  137.1520 S   0  0  0  0  0  0  0  0  0  0  0  0
  194.0310  172.4070  135.9110 C   0  0  2  0  0  3  0  0  0  0  0  0
  192.3410  173.0390  136.1830 S   0  0  0  0  0  0  0  0  0  0  0  0
  192.8620  174.3350  137.3510 C   0  0  1  0  0  3  0  0  0  0  0  0
  194.3450  174.6450  137.2170 C   0  0  2  0  0  3  0  0  0  0  0  0
  194.0260  170.8930  135.9500 C   0  0  0  0  0  1  0  0  0  0  0  0
  194.6800  175.4570  135.9740 C   0  0  0  0  0  1  0  0  0  0  0  0
  189.2500  176.6880  142.9560 C   0  0  0  0  0  2  0  0  0  0  0  0
  189.6730  177.2700  145.4260 C   0  0  0  0  0  0  0  0  0  0  0  0
  186.8610  177.3060  145.7940 C   0  0  0  0  0  3  0  0  0  0  0  0
  187.3950  177.0560  144.5370 C   0  0  0  0  0  3  0  0  0  0  0  0
  188.7780  177.0170  144.3410 C   0  0  0  0  0  0  0  0  0  0  0  0
  187.7090  177.5060  146.8760 C   0  0  0  0  0  3  0  0  0  0  0  0
  189.0950  177.4770  146.7170 C   0  0  0  0  0  0  0  0  0  0  0  0
  189.8890  177.6300  147.9720 C   0  0  0  0  0  1  0  0  0  0  0  0
  191.6590  178.5110  144.4720 C   0  0  0  0  0  1  0  0  0  0  0  0
  191.9170  177.2010  146.3880 O   0  0  0  0  0  1  0  0  0  0  0  0
  191.1970  177.2550  145.1970 C   0  0  0  0  0  0  0  0  0  0  0  0
  191.5750  176.0410  144.3700 C   0  0  0  0  0  1  0  0  0  0  0  0
  2 22  1  6  0  0  0
  2  4  1  0  0  0  0
  3  2  1  0  0  0  0
  4  1  1  0  0  0  0
  4 35  1  1  0  0  0
  5  3  1  6  0  0  0
  5  1  1  0  0  0  0
  6  7  1  6  0  0  0
  6 11  1  0  0  0  0
  6  9  1  0  0  0  0
  8 10  1  0  0  0  0
  9  5  1  0  0  0  0
  9 10  1  1  0  0  0
 11 14  1  6  0  0  0
 11  8  1  0  0  0  0
 12 14  2  0  0  0  0
 13 17  1  0  0  0  0
 13 12  1  0  0  0  0
 15 19  1  6  0  0  0
 15 14  1  0  0  0  0
 16 17  1  0  0  0  0
 16 15  1  0  0  0  0
 17 18  1  6  0  0  0
 19 21  1  0  0  0  0
 20 19  2  0  0  0  0
 23 22  1  0  0  0  0
 24 23  1  6  0  0  0
 26 25  1  6  0  0  0
 26 31  1  0  0  0  0
 26 27  1  0  0  0  0
 26 24  1  0  0  0  0
 27 24  1  0  0  0  0
 28 32  1  0  0  0  0
 29 33  1  1  0  0  0
 29 30  1  0  0  0  0
 29 28  1  0  0  0  0
 31 30  1  6  0  0  0
 32 34  1  6  0  0  0
 32 31  1  0  0  0  0
 35 39  1  0  0  0  0
 36 41  1  0  0  0  0
 37 40  1  0  0  0  0
 38 37  2  0  0  0  0
 39 38  1  0  0  0  0
 39 36  2  0  0  0  0
 41 40  2  0  0  0  0
 41 42  1  0  0  0  0
 43 45  1  0  0  0  0
 45 36  1  0  0  0  0
 45 44  1  0  0  0  0
 46 45  1  0  0  0  0
M  END
>  <MODEL>
2

>  <REMARK>
 VINA RESULT:      -7.9      3.535      5.028
  Name = 
  10 active torsions:
  status: ('A' for Active; 'I' for Inactive)
    1  A    between atoms: C_8  and  C_10
    2  A    between atoms: C_9  and  C_23
    3  A    between atoms: C_10  and  C_12
    4  A    between atoms: C_12  and  C_16
    5  A    between atoms: C_15  and  C_26
    6  A    between atoms: C_18  and  C_43
    7  A    between atoms: C_19  and  C_45
    8  A    between atoms: C_22  and  C_42
    9  A    between atoms: C_25  and  C_29
   10  A    between atoms: C_29  and  C_41
                            x       y       z     vdW  Elec       q    Type
                         _______ _______ _______ _____ _____    ______ ____

>  <TORSDO>
F 10

$$$$
=
 OpenBabel11032420033D

 46 51  0  0  1  0  0  0  0  0999 V2000
  188.6770  179.0140  138.1430 N   0  0  0  0  0  2  0  0  0  0  0  0
  190.0150  177.0400  137.8300 C   0  0  1  0  0  3  0  0  0  0  0  0
  189.4920  177.4260  136.1410 S   0  0  0  0  0  0  0  0  0  0  0  0
  189.0920  177.7720  138.7770 C   0  0  1  0  0  3  0  0  0  0  0  0
  188.3510  178.7090  136.7550 C   0  0  1  0  0  3  0  0  0  0  0  0
  186.1940  178.3290  137.9680 C   0  0  2  0  0  3  0  0  0  0  0  0
  185.3740  179.4590  138.0450 O   0  0  0  0  0  1  0  0  0  0  0  0
  186.1700  176.0820  137.1820 C   0  0  0  0  0  2  0  0  0  0  0  0
  186.8940  178.2580  136.6230 C   0  0  2  0  0  3  0  0  0  0  0  0
  186.8320  176.8740  136.1480 N   0  0  0  0  0  2  0  0  0  0  0  0
  185.4190  177.0310  138.0900 C   0  0  2  0  0  3  0  0  0  0  0  0
  183.6030  177.2230  136.4010 C   0  0  0  0  0  3  0  0  0  0  0  0
  182.1720  177.2990  135.9520 C   0  0  0  0  0  2  0  0  0  0  0  0
  183.9550  177.1260  137.7000 C   0  0  0  0  0  0  0  0  0  0  0  0
  182.9070  176.9560  138.7910 C   0  0  2  0  0  3  0  0  0  0  0  0
  181.4640  177.1600  138.3130 C   0  0  0  0  0  2  0  0  0  0  0  0
  181.2600  176.5680  136.9270 C   0  0  1  0  0  3  0  0  0  0  0  0
  179.8200  176.7590  136.5020 C   0  0  0  0  0  1  0  0  0  0  0  0
  183.1800  177.8510  139.9570 C   0  0  0  0  0  0  0  0  0  0  0  0
  183.6570  177.3690  141.0170 O   0  0  0  0  0  1  0  0  0  0  0  0
  182.9180  179.2130  139.8760 O   0  0  0  0  0  0  0  0  0  0  0  0
  189.9260  175.5420  138.0680 C   0  0  0  0  0  2  0  0  0  0  0  0
  190.7840  174.7910  137.0660 C   0  0  0  0  0  2  0  0  0  0  0  0
  192.2100  174.6680  137.5900 C   0  0  1  0  0  3  0  0  0  0  0  0
  192.7380  173.8510  135.1590 C   0  0  0  0  0  1  0  0  0  0  0  0
  193.1850  174.1760  136.5810 C   0  0  1  0  0  0  0  0  0  0  0  0
  193.0510  175.5450  136.8700 O   0  0  0  0  0  0  0  0  0  0  0  0
  197.1080  173.5240  137.6330 S   0  0  0  0  0  0  0  0  0  0  0  0
  196.6140  172.0430  136.6960 C   0  0  2  0  0  3  0  0  0  0  0  0
  194.7990  171.8940  136.5810 S   0  0  0  0  0  0  0  0  0  0  0  0
  194.4820  173.5970  137.1460 C   0  0  1  0  0  3  0  0  0  0  0  0
  195.7140  174.4760  136.9880 C   0  0  2  0  0  3  0  0  0  0  0  0
  197.1900  170.8040  137.3510 C   0  0  0  0  0  1  0  0  0  0  0  0
  195.9890  174.8730  135.5450 C   0  0  0  0  0  1  0  0  0  0  0  0
  189.8320  178.0730  140.0730 C   0  0  0  0  0  2  0  0  0  0  0  0
  189.3790  177.6860  142.5770 C   0  0  0  0  0  0  0  0  0  0  0  0
  186.6330  178.1640  142.0490 C   0  0  0  0  0  3  0  0  0  0  0  0
  187.5640  178.2510  141.0230 C   0  0  0  0  0  3  0  0  0  0  0  0
  188.9180  178.0030  141.2610 C   0  0  0  0  0  0  0  0  0  0  0  0
  187.0470  177.8110  143.3270 C   0  0  0  0  0  3  0  0  0  0  0  0
  188.3910  177.5580  143.6030 C   0  0  0  0  0  0  0  0  0  0  0  0
  188.6890  177.1130  144.9960 C   0  0  0  0  0  1  0  0  0  0  0  0
  191.1140  176.0790  143.4730 C   0  0  0  0  0  1  0  0  0  0  0  0
  191.6350  177.4680  141.6690 O   0  0  0  0  0  1  0  0  0  0  0  0
  190.8780  177.4420  142.8380 C   0  0  0  0  0  0  0  0  0  0  0  0
  191.4140  178.5180  143.7630 C   0  0  0  0  0  1  0  0  0  0  0  0
  1  4  1  0  0  0  0
  2 22  1  1  0  0  0
  2  4  1  0  0  0  0
  3  2  1  0  0  0  0
  4 35  1  1  0  0  0
  5  3  1  1  0  0  0
  5  1  1  0  0  0  0
  6  7  1  6  0  0  0
  6 11  1  0  0  0  0
  8 11  1  0  0  0  0
  9 10  1  1  0  0  0
  9  5  1  0  0  0  0
  9  6  1  0  0  0  0
 10  8  1  0  0  0  0
 11 14  1  6  0  0  0
 12 14  2  0  0  0  0
 13 12  1  0  0  0  0
 13 17  1  0  0  0  0
 14 15  1  0  0  0  0
 15 19  1  1  0  0  0
 16 15  1  0  0  0  0
 17 18  1  6  0  0  0
 17 16  1  0  0  0  0
 19 20  1  0  0  0  0
 21 19  2  0  0  0  0
 23 22  1  0  0  0  0
 24 23  1  6  0  0  0
 26 25  1  6  0  0  0
 26 27  1  0  0  0  0
 26 31  1  0  0  0  0
 26 24  1  0  0  0  0
 27 24  1  0  0  0  0
 29 33  1  1  0  0  0
 29 28  1  0  0  0  0
 30 29  1  0  0  0  0
 31 30  1  6  0  0  0
 32 34  1  6  0  0  0
 32 31  1  0  0  0  0
 32 28  1  0  0  0  0
 35 39  1  0  0  0  0
 36 45  1  0  0  0  0
 36 41  1  0  0  0  0
 37 40  1  0  0  0  0
 38 39  1  0  0  0  0
 38 37  2  0  0  0  0
 39 36  2  0  0  0  0
 40 41  2  0  0  0  0
 41 42  1  0  0  0  0
 44 45  1  0  0  0  0
 45 43  1  0  0  0  0
 45 46  1  0  0  0  0
M  END
>  <MODEL>
3

>  <REMARK>
 VINA RESULT:      -7.9      2.605      3.660
  Name = 
  10 active torsions:
  status: ('A' for Active; 'I' for Inactive)
    1  A    between atoms: C_8  and  C_10
    2  A    between atoms: C_9  and  C_23
    3  A    between atoms: C_10  and  C_12
    4  A    between atoms: C_12  and  C_16
    5  A    between atoms: C_15  and  C_26
    6  A    between atoms: C_18  and  C_43
    7  A    between atoms: C_19  and  C_45
    8  A    between atoms: C_22  and  C_42
    9  A    between atoms: C_25  and  C_29
   10  A    between atoms: C_29  and  C_41
                            x       y       z     vdW  Elec       q    Type
                         _______ _______ _______ _____ _____    ______ ____

>  <TORSDO>
F 10

$$$$
=
 OpenBabel11032420033D

 46 51  0  0  1  0  0  0  0  0999 V2000
  187.5150  178.2640  142.3220 N   0  0  0  0  0  2  0  0  0  0  0  0
  189.0540  177.5660  140.6120 C   0  0  1  0  0  3  0  0  0  0  0  0
  188.0490  178.7990  139.7490 S   0  0  0  0  0  0  0  0  0  0  0  0
  188.2950  177.1320  141.8440 C   0  0  1  0  0  3  0  0  0  0  0  0
  186.8980  178.8920  141.1590 C   0  0  1  0  0  3  0  0  0  0  0  0
  184.6840  179.1700  140.0230 C   0  0  2  0  0  3  0  0  0  0  0  0
  184.6910  178.8300  138.6660 O   0  0  0  0  0  1  0  0  0  0  0  0
  183.5890  178.6100  142.0610 C   0  0  0  0  0  2  0  0  0  0  0  0
  185.5620  178.2250  140.8230 C   0  0  2  0  0  3  0  0  0  0  0  0
  184.8480  177.8700  142.0520 N   0  0  0  0  0  2  0  0  0  0  0  0
  183.3060  179.0700  140.6470 C   0  0  2  0  0  3  0  0  0  0  0  0
  182.6420  176.8090  139.8550 C   0  0  0  0  0  3  0  0  0  0  0  0
  181.7310  175.8200  139.1850 C   0  0  0  0  0  2  0  0  0  0  0  0
  182.3540  178.1240  139.9380 C   0  0  0  0  0  0  0  0  0  0  0  0
  181.0140  178.6700  139.4690 C   0  0  2  0  0  3  0  0  0  0  0  0
  180.1650  177.6620  138.6840 C   0  0  0  0  0  2  0  0  0  0  0  0
  180.2800  176.2690  139.2850 C   0  0  1  0  0  3  0  0  0  0  0  0
  179.4060  175.3090  138.5070 C   0  0  0  0  0  1  0  0  0  0  0  0
  181.1830  179.9180  138.6610 C   0  0  0  0  0  0  0  0  0  0  0  0
  181.6820  179.8530  137.5090 O   0  0  0  0  0  0  0  0  0  0  0  0
  180.7860  181.1470  139.1730 O   0  0  0  0  0  1  0  0  0  0  0  0
  189.2990  176.3720  139.7030 C   0  0  0  0  0  2  0  0  0  0  0  0
  189.2700  176.7960  138.2460 C   0  0  0  0  0  2  0  0  0  0  0  0
  188.7230  175.6640  137.3840 C   0  0  1  0  0  3  0  0  0  0  0  0
  187.7660  177.6120  135.9190 C   0  0  0  0  0  1  0  0  0  0  0  0
  187.9510  176.1240  136.2000 C   0  0  1  0  0  0  0  0  0  0  0  0
  189.2980  175.7360  136.0960 O   0  0  0  0  0  0  0  0  0  0  0  0
  184.6420  174.0120  134.9700 S   0  0  0  0  0  0  0  0  0  0  0  0
  185.6140  172.8370  135.9640 C   0  0  2  0  0  3  0  0  0  0  0  0
  187.3380  173.3970  136.1730 S   0  0  0  0  0  0  0  0  0  0  0  0
  187.0090  175.0890  135.5860 C   0  0  1  0  0  3  0  0  0  0  0  0
  185.5280  175.4280  135.6610 C   0  0  2  0  0  3  0  0  0  0  0  0
  185.5940  171.4710  135.3090 C   0  0  0  0  0  1  0  0  0  0  0  0
  185.0430  175.6920  137.0800 C   0  0  0  0  0  1  0  0  0  0  0  0
  189.2810  176.6920  142.9180 C   0  0  0  0  0  2  0  0  0  0  0  0
  189.6570  177.2780  145.3950 C   0  0  0  0  0  0  0  0  0  0  0  0
  186.8390  177.2920  145.7140 C   0  0  0  0  0  3  0  0  0  0  0  0
  187.3960  177.0450  144.4670 C   0  0  0  0  0  3  0  0  0  0  0  0
  188.7820  177.0180  144.2940 C   0  0  0  0  0  0  0  0  0  0  0  0
  187.6660  177.4990  146.8110 C   0  0  0  0  0  3  0  0  0  0  0  0
  189.0550  177.4820  146.6750 C   0  0  0  0  0  0  0  0  0  0  0  0
  189.8260  177.6410  147.9440 C   0  0  0  0  0  1  0  0  0  0  0  0
  191.6500  178.5380  144.4790 C   0  0  0  0  0  1  0  0  0  0  0  0
  191.8840  177.2230  146.3950 O   0  0  0  0  0  1  0  0  0  0  0  0
  191.1840  177.2760  145.1910 C   0  0  0  0  0  0  0  0  0  0  0  0
  191.5860  176.0680  144.3670 C   0  0  0  0  0  1  0  0  0  0  0  0
  2 22  1  6  0  0  0
  2  4  1  0  0  0  0
  3  2  1  0  0  0  0
  4  1  1  0  0  0  0
  4 35  1  1  0  0  0
  5  3  1  6  0  0  0
  5  1  1  0  0  0  0
  6  7  1  6  0  0  0
  6 11  1  0  0  0  0
  6  9  1  0  0  0  0
  9  5  1  0  0  0  0
  9 10  1  1  0  0  0
 10  8  1  0  0  0  0
 11 14  1  6  0  0  0
 11  8  1  0  0  0  0
 12 14  2  0  0  0  0
 13 17  1  0  0  0  0
 13 12  1  0  0  0  0
 15 19  1  6  0  0  0
 15 14  1  0  0  0  0
 16 17  1  0  0  0  0
 16 15  1  0  0  0  0
 17 18  1  6  0  0  0
 19 21  1  0  0  0  0
 20 19  2  0  0  0  0
 23 22  1  0  0  0  0
 24 23  1  1  0  0  0
 26 25  1  6  0  0  0
 26 24  1  0  0  0  0
 27 26  1  0  0  0  0
 27 24  1  0  0  0  0
 28 32  1  0  0  0  0
 28 29  1  0  0  0  0
 29 33  1  6  0  0  0
 29 30  1  0  0  0  0
 31 32  1  0  0  0  0
 31 30  1  1  0  0  0
 31 26  1  0  0  0  0
 32 34  1  1  0  0  0
 35 39  1  0  0  0  0
 36 41  1  0  0  0  0
 37 40  1  0  0  0  0
 38 37  2  0  0  0  0
 39 38  1  0  0  0  0
 39 36  2  0  0  0  0
 41 40  2  0  0  0  0
 41 42  1  0  0  0  0
 43 45  1  0  0  0  0
 45 36  1  0  0  0  0
 45 44  1  0  0  0  0
 46 45  1  0  0  0  0
M  END
>  <MODEL>
4

>  <REMARK>
 VINA RESULT:      -7.8      3.829      6.497
  Name = 
  10 active torsions:
  status: ('A' for Active; 'I' for Inactive)
    1  A    between atoms: C_8  and  C_10
    2  A    between atoms: C_9  and  C_23
    3  A    between atoms: C_10  and  C_12
    4  A    between atoms: C_12  and  C_16
    5  A    between atoms: C_15  and  C_26
    6  A    between atoms: C_18  and  C_43
    7  A    between atoms: C_19  and  C_45
    8  A    between atoms: C_22  and  C_42
    9  A    between atoms: C_25  and  C_29
   10  A    between atoms: C_29  and  C_41
                            x       y       z     vdW  Elec       q    Type
                         _______ _______ _______ _____ _____    ______ ____

>  <TORSDO>
F 10

$$$$
=
 OpenBabel11032420033D

 46 51  0  0  1  0  0  0  0  0999 V2000
  188.0770  178.0820  141.6230 N   0  0  0  0  0  2  0  0  0  0  0  0
  189.9450  177.4500  140.2470 C   0  0  1  0  0  3  0  0  0  0  0  0
  189.0930  178.6630  139.2090 S   0  0  0  0  0  0  0  0  0  0  0  0
  188.9720  176.9790  141.3020 C   0  0  1  0  0  3  0  0  0  0  0  0
  187.6830  178.7050  140.3650 C   0  0  1  0  0  3  0  0  0  0  0  0
  186.6020  177.8840  138.2600 C   0  0  2  0  0  3  0  0  0  0  0  0
  186.9750  176.5870  137.8940 O   0  0  0  0  0  1  0  0  0  0  0  0
  184.6680  179.1740  138.7740 C   0  0  0  0  0  2  0  0  0  0  0  0
  186.4610  178.0030  139.7670 C   0  0  2  0  0  3  0  0  0  0  0  0
  185.2450  178.7680  140.0530 N   0  0  0  0  0  2  0  0  0  0  0  0
  185.2550  178.2910  137.6940 C   0  0  2  0  0  3  0  0  0  0  0  0
  183.6530  176.5040  138.3420 C   0  0  0  0  0  3  0  0  0  0  0  0
  182.7080  175.3670  138.0740 C   0  0  0  0  0  2  0  0  0  0  0  0
  184.3310  177.1350  137.3610 C   0  0  0  0  0  0  0  0  0  0  0  0
  184.0770  176.8150  135.8950 C   0  0  2  0  0  3  0  0  0  0  0  0
  183.2040  175.5750  135.6650 C   0  0  0  0  0  2  0  0  0  0  0  0
  182.0840  175.4980  136.6910 C   0  0  1  0  0  3  0  0  0  0  0  0
  181.2260  174.2830  136.4140 C   0  0  0  0  0  1  0  0  0  0  0  0
  185.3570  176.6750  135.1350 C   0  0  0  0  0  0  0  0  0  0  0  0
  185.8610  175.5350  134.9640 O   0  0  0  0  0  1  0  0  0  0  0  0
  185.9900  177.7950  134.6100 O   0  0  0  0  0  0  0  0  0  0  0  0
  190.4020  176.2750  139.3980 C   0  0  0  0  0  2  0  0  0  0  0  0
  190.1210  176.5370  137.9300 C   0  0  0  0  0  2  0  0  0  0  0  0
  191.4180  176.4760  137.1310 C   0  0  1  0  0  3  0  0  0  0  0  0
  190.2970  174.4020  135.9910 C   0  0  0  0  0  1  0  0  0  0  0  0
  191.4730  175.3620  136.1480 C   0  0  1  0  0  0  0  0  0  0  0  0
  191.1350  176.6710  135.7610 O   0  0  0  0  0  0  0  0  0  0  0  0
  195.1900  173.6420  135.7630 S   0  0  0  0  0  0  0  0  0  0  0  0
  195.5010  175.4340  135.8510 C   0  0  2  0  0  3  0  0  0  0  0  0
  193.9900  176.3970  135.5100 S   0  0  0  0  0  0  0  0  0  0  0  0
  192.8720  174.9690  135.6750 C   0  0  1  0  0  3  0  0  0  0  0  0
  193.5280  173.8330  136.4460 C   0  0  2  0  0  3  0  0  0  0  0  0
  196.5860  175.8160  134.8660 C   0  0  0  0  0  1  0  0  0  0  0  0
  193.6160  174.0950  137.9430 C   0  0  0  0  0  1  0  0  0  0  0  0
  189.7390  176.5550  142.5470 C   0  0  0  0  0  2  0  0  0  0  0  0
  189.6680  177.2700  145.0180 C   0  0  0  0  0  0  0  0  0  0  0  0
  186.8380  177.1640  144.8610 C   0  0  0  0  0  3  0  0  0  0  0  0
  187.6080  176.8890  143.7390 C   0  0  0  0  0  3  0  0  0  0  0  0
  189.0030  176.9190  143.8020 C   0  0  0  0  0  0  0  0  0  0  0  0
  187.4590  177.4600  146.0680 C   0  0  0  0  0  3  0  0  0  0  0  0
  188.8500  177.5020  146.1670 C   0  0  0  0  0  0  0  0  0  0  0  0
  189.3880  177.7550  147.5370 C   0  0  0  0  0  1  0  0  0  0  0  0
  191.7170  178.7250  144.7380 C   0  0  0  0  0  1  0  0  0  0  0  0
  191.7090  177.0200  146.3340 O   0  0  0  0  0  1  0  0  0  0  0  0
  191.2060  177.3310  145.0730 C   0  0  0  0  0  0  0  0  0  0  0  0
  191.7900  176.3410  144.0830 C   0  0  0  0  0  1  0  0  0  0  0  0
  2 22  1  6  0  0  0
  2  4  1  0  0  0  0
  3  2  1  0  0  0  0
  4  1  1  0  0  0  0
  4 35  1  1  0  0  0
  5  3  1  6  0  0  0
  5  1  1  0  0  0  0
  6  7  1  1  0  0  0
  6  9  1  0  0  0  0
  8 10  1  0  0  0  0
  9 10  1  6  0  0  0
  9  5  1  0  0  0  0
 11 14  1  1  0  0  0
 11  6  1  0  0  0  0
 11  8  1  0  0  0  0
 13 12  1  0  0  0  0
 14 12  2  0  0  0  0
 15 19  1  6  0  0  0
 15 14  1  0  0  0  0
 16 15  1  0  0  0  0
 16 17  1  0  0  0  0
 17 18  1  6  0  0  0
 17 13  1  0  0  0  0
 20 19  1  0  0  0  0
 21 19  2  0  0  0  0
 23 22  1  0  0  0  0
 24 23  1  1  0  0  0
 26 25  1  1  0  0  0
 26 24  1  0  0  0  0
 27 26  1  0  0  0  0
 27 24  1  0  0  0  0
 28 29  1  0  0  0  0
 28 32  1  0  0  0  0
 29 33  1  6  0  0  0
 30 29  1  0  0  0  0
 31 30  1  1  0  0  0
 31 26  1  0  0  0  0
 31 32  1  0  0  0  0
 32 34  1  1  0  0  0
 35 39  1  0  0  0  0
 36 45  1  0  0  0  0
 36 41  1  0  0  0  0
 37 40  1  0  0  0  0
 38 39  1  0  0  0  0
 38 37  2  0  0  0  0
 39 36  2  0  0  0  0
 40 41  2  0  0  0  0
 41 42  1  0  0  0  0
 43 45  1  0  0  0  0
 45 44  1  0  0  0  0
 46 45  1  0  0  0  0
M  END
>  <MODEL>
5

>  <REMARK>
 VINA RESULT:      -7.0      2.490      3.448
  Name = 
  10 active torsions:
  status: ('A' for Active; 'I' for Inactive)
    1  A    between atoms: C_8  and  C_10
    2  A    between atoms: C_9  and  C_23
    3  A    between atoms: C_10  and  C_12
    4  A    between atoms: C_12  and  C_16
    5  A    between atoms: C_15  and  C_26
    6  A    between atoms: C_18  and  C_43
    7  A    between atoms: C_19  and  C_45
    8  A    between atoms: C_22  and  C_42
    9  A    between atoms: C_25  and  C_29
   10  A    between atoms: C_29  and  C_41
                            x       y       z     vdW  Elec       q    Type
                         _______ _______ _______ _____ _____    ______ ____

>  <TORSDO>
F 10

$$$$
=
 OpenBabel11032420033D

 46 51  0  0  1  0  0  0  0  0999 V2000
  190.5360  177.2070  135.9100 N   0  0  0  0  0  2  0  0  0  0  0  0
  189.4080  175.0820  135.9030 C   0  0  1  0  0  3  0  0  0  0  0  0
  188.1260  176.2000  136.5200 S   0  0  0  0  0  0  0  0  0  0  0  0
  190.7410  175.7740  136.0680 C   0  0  1  0  0  3  0  0  0  0  0  0
  189.3320  177.5600  136.6540 C   0  0  1  0  0  3  0  0  0  0  0  0
  189.2380  176.7010  139.0050 C   0  0  2  0  0  3  0  0  0  0  0  0
  190.3390  175.9220  139.3740 O   0  0  0  0  0  1  0  0  0  0  0  0
  188.0670  178.6690  139.6560 C   0  0  0  0  0  2  0  0  0  0  0  0
  189.6640  177.8580  138.1190 C   0  0  2  0  0  3  0  0  0  0  0  0
  188.9570  179.0600  138.5660 N   0  0  0  0  0  2  0  0  0  0  0  0
  188.5420  177.3360  140.1930 C   0  0  2  0  0  3  0  0  0  0  0  0
  190.7490  177.3180  141.3390 C   0  0  0  0  0  3  0  0  0  0  0  0
  191.6690  177.4980  142.5130 C   0  0  0  0  0  2  0  0  0  0  0  0
  189.4160  177.5150  141.4210 C   0  0  0  0  0  0  0  0  0  0  0  0
  188.7760  178.0640  142.6870 C   0  0  2  0  0  3  0  0  0  0  0  0
  189.7200  178.1190  143.8950 C   0  0  0  0  0  2  0  0  0  0  0  0
  191.1190  178.5430  143.4750 C   0  0  1  0  0  3  0  0  0  0  0  0
  192.0130  178.6180  144.6940 C   0  0  0  0  0  1  0  0  0  0  0  0
  187.5410  177.3020  143.0510 C   0  0  0  0  0  0  0  0  0  0  0  0
  186.4160  177.8580  142.9640 O   0  0  0  0  0  0  0  0  0  0  0  0
  187.6280  175.9830  143.4770 O   0  0  0  0  0  1  0  0  0  0  0  0
  189.3900  173.7880  136.6990 C   0  0  0  0  0  2  0  0  0  0  0  0
  188.1650  172.9630  136.3490 C   0  0  0  0  0  2  0  0  0  0  0  0
  186.9490  173.4920  137.1010 C   0  0  1  0  0  3  0  0  0  0  0  0
  185.6630  172.8570  134.9100 C   0  0  0  0  0  1  0  0  0  0  0  0
  185.6820  173.4250  136.3260 C   0  0  1  0  0  0  0  0  0  0  0  0
  186.0160  172.4460  137.2780 O   0  0  0  0  0  0  0  0  0  0  0  0
  182.1400  174.9220  137.7870 S   0  0  0  0  0  0  0  0  0  0  0  0
  182.3630  175.7220  136.1670 C   0  0  2  0  0  3  0  0  0  0  0  0
  184.0880  175.5990  135.5880 S   0  0  0  0  0  0  0  0  0  0  0  0
  184.5600  174.3410  136.8170 C   0  0  1  0  0  3  0  0  0  0  0  0
  183.3410  173.6330  137.3870 C   0  0  2  0  0  3  0  0  0  0  0  0
  181.9530  177.1780  136.2530 C   0  0  0  0  0  1  0  0  0  0  0  0
  182.7180  172.6350  136.4210 C   0  0  0  0  0  1  0  0  0  0  0  0
  191.7080  175.2690  135.0060 C   0  0  0  0  0  2  0  0  0  0  0  0
  193.6250  174.0570  136.2220 C   0  0  0  0  0  0  0  0  0  0  0  0
  192.4660  171.6060  135.3910 C   0  0  0  0  0  3  0  0  0  0  0  0
  191.8550  172.8090  135.0660 C   0  0  0  0  0  3  0  0  0  0  0  0
  192.4210  174.0270  135.4530 C   0  0  0  0  0  0  0  0  0  0  0  0
  193.6630  171.6080  136.0960 C   0  0  0  0  0  3  0  0  0  0  0  0
  194.2550  172.8040  136.5010 C   0  0  0  0  0  0  0  0  0  0  0  0
  195.5770  172.6690  137.1820 C   0  0  0  0  0  1  0  0  0  0  0  0
  193.4220  176.0190  137.8060 C   0  0  0  0  0  1  0  0  0  0  0  0
  195.5330  175.2740  137.1400 O   0  0  0  0  0  1  0  0  0  0  0  0
  194.2270  175.4030  136.6710 C   0  0  0  0  0  0  0  0  0  0  0  0
  194.2470  176.3660  135.5000 C   0  0  0  0  0  1  0  0  0  0  0  0
  1  4  1  0  0  0  0
  2  4  1  0  0  0  0
  2  3  1  0  0  0  0
  2 22  1  1  0  0  0
  3  5  1  0  0  0  0
  4 35  1  6  0  0  0
  5  1  1  6  0  0  0
  5  9  1  0  0  0  0
  6  7  1  1  0  0  0
  6 11  1  0  0  0  0
  8 11  1  0  0  0  0
  9 10  1  1  0  0  0
  9  6  1  0  0  0  0
 10  8  1  0  0  0  0
 11 14  1  1  0  0  0
 12 14  2  0  0  0  0
 12 13  1  0  0  0  0
 13 17  1  0  0  0  0
 14 15  1  0  0  0  0
 15 19  1  1  0  0  0
 15 16  1  0  0  0  0
 17 16  1  0  0  0  0
 17 18  1  1  0  0  0
 19 21  1  0  0  0  0
 20 19  2  0  0  0  0
 23 22  1  0  0  0  0
 24 23  1  6  0  0  0
 24 27  1  0  0  0  0
 26 25  1  6  0  0  0
 26 31  1  0  0  0  0
 26 24  1  0  0  0  0
 26 27  1  0  0  0  0
 29 33  1  1  0  0  0
 29 28  1  0  0  0  0
 30 29  1  0  0  0  0
 31 30  1  6  0  0  0
 31 32  1  0  0  0  0
 32 34  1  6  0  0  0
 32 28  1  0  0  0  0
 35 39  1  0  0  0  0
 36 41  1  0  0  0  0
 36 45  1  0  0  0  0
 37 40  1  0  0  0  0
 38 37  2  0  0  0  0
 38 39  1  0  0  0  0
 39 36  2  0  0  0  0
 40 41  2  0  0  0  0
 41 42  1  0  0  0  0
 45 44  1  0  0  0  0
 45 43  1  0  0  0  0
 46 45  1  0  0  0  0
M  END
>  <MODEL>
6

>  <REMARK>
 VINA RESULT:      -6.2      2.650      9.375
  Name = 
  10 active torsions:
  status: ('A' for Active; 'I' for Inactive)
    1  A    between atoms: C_8  and  C_10
    2  A    between atoms: C_9  and  C_23
    3  A    between atoms: C_10  and  C_12
    4  A    between atoms: C_12  and  C_16
    5  A    between atoms: C_15  and  C_26
    6  A    between atoms: C_18  and  C_43
    7  A    between atoms: C_19  and  C_45
    8  A    between atoms: C_22  and  C_42
    9  A    between atoms: C_25  and  C_29
   10  A    between atoms: C_29  and  C_41
                            x       y       z     vdW  Elec       q    Type
                         _______ _______ _______ _____ _____    ______ ____

>  <TORSDO>
F 10

$$$$
=
 OpenBabel11032420033D

 46 51  0  0  1  0  0  0  0  0999 V2000
  187.6940  178.3360  139.1410 N   0  0  0  0  0  2  0  0  0  0  0  0
  189.3500  176.8950  138.1590 C   0  0  1  0  0  3  0  0  0  0  0  0
  188.3780  177.4050  136.7200 S   0  0  0  0  0  0  0  0  0  0  0  0
  188.5240  177.1680  139.3940 C   0  0  1  0  0  3  0  0  0  0  0  0
  187.1400  178.1960  137.7990 C   0  0  1  0  0  3  0  0  0  0  0  0
  185.9480  176.1760  136.9190 C   0  0  2  0  0  3  0  0  0  0  0  0
  186.1700  175.0130  137.6620 O   0  0  0  0  0  1  0  0  0  0  0  0
  184.1750  177.5750  136.1650 C   0  0  0  0  0  2  0  0  0  0  0  0
  185.8400  177.3880  137.8280 C   0  0  2  0  0  3  0  0  0  0  0  0
  184.7200  178.2090  137.3630 N   0  0  0  0  0  2  0  0  0  0  0  0
  184.6480  176.1380  136.1400 C   0  0  2  0  0  3  0  0  0  0  0  0
  183.0780  175.4220  137.9300 C   0  0  0  0  0  3  0  0  0  0  0  0
  182.0200  174.5420  138.5340 C   0  0  0  0  0  2  0  0  0  0  0  0
  183.5960  175.2000  136.7040 C   0  0  0  0  0  0  0  0  0  0  0  0
  183.0410  174.1110  135.7970 C   0  0  2  0  0  3  0  0  0  0  0  0
  182.0540  173.1620  136.4880 C   0  0  0  0  0  2  0  0  0  0  0  0
  181.1520  173.9190  137.4500 C   0  0  1  0  0  3  0  0  0  0  0  0
  180.1720  172.9570  138.0870 C   0  0  0  0  0  1  0  0  0  0  0  0
  184.1370  173.3180  135.1590 C   0  0  0  0  0  0  0  0  0  0  0  0
  184.0590  172.0640  135.1210 O   0  0  0  0  0  1  0  0  0  0  0  0
  185.2370  173.9590  134.6030 O   0  0  0  0  0  0  0  0  0  0  0  0
  189.6740  175.4130  138.0650 C   0  0  0  0  0  2  0  0  0  0  0  0
  190.5250  175.1300  136.8400 C   0  0  0  0  0  2  0  0  0  0  0  0
  191.6000  174.1030  137.1780 C   0  0  1  0  0  3  0  0  0  0  0  0
  193.1330  175.6330  135.7060 C   0  0  0  0  0  1  0  0  0  0  0  0
  192.9260  174.3930  136.5720 C   0  0  1  0  0  0  0  0  0  0  0  0
  192.6350  174.7300  137.9060 O   0  0  0  0  0  0  0  0  0  0  0  0
  195.8220  171.5680  137.3100 S   0  0  0  0  0  0  0  0  0  0  0  0
  196.3020  172.3400  135.7330 C   0  0  2  0  0  3  0  0  0  0  0  0
  194.9100  173.2420  134.9750 S   0  0  0  0  0  0  0  0  0  0  0  0
  193.8820  173.2040  136.4780 C   0  0  1  0  0  3  0  0  0  0  0  0
  194.7190  172.9380  137.7200 C   0  0  2  0  0  3  0  0  0  0  0  0
  196.8100  171.2820  134.7760 C   0  0  0  0  0  1  0  0  0  0  0  0
  195.5390  174.1420  138.1610 C   0  0  0  0  0  1  0  0  0  0  0  0
  189.4490  177.4360  140.5730 C   0  0  0  0  0  2  0  0  0  0  0  0
  189.3070  177.6220  143.1360 C   0  0  0  0  0  0  0  0  0  0  0  0
  186.4950  177.8660  142.8610 C   0  0  0  0  0  3  0  0  0  0  0  0
  187.2970  177.7470  141.7340 C   0  0  0  0  0  3  0  0  0  0  0  0
  188.6820  177.6090  141.8510 C   0  0  0  0  0  0  0  0  0  0  0  0
  187.0720  177.8320  144.1240 C   0  0  0  0  0  3  0  0  0  0  0  0
  188.4520  177.6980  144.2790 C   0  0  0  0  0  0  0  0  0  0  0  0
  188.9330  177.5980  145.6890 C   0  0  0  0  0  1  0  0  0  0  0  0
  191.2300  176.5290  144.3630 C   0  0  0  0  0  1  0  0  0  0  0  0
  191.4300  177.0220  142.0890 O   0  0  0  0  0  1  0  0  0  0  0  0
  190.8380  177.4980  143.2570 C   0  0  0  0  0  0  0  0  0  0  0  0
  191.4350  178.8590  143.5590 C   0  0  0  0  0  1  0  0  0  0  0  0
  1  4  1  0  0  0  0
  2 22  1  6  0  0  0
  2  4  1  0  0  0  0
  3  2  1  0  0  0  0
  4 35  1  1  0  0  0
  5  3  1  6  0  0  0
  5  9  1  0  0  0  0
  5  1  1  0  0  0  0
  6  7  1  1  0  0  0
  6  9  1  0  0  0  0
  8 10  1  0  0  0  0
  9 10  1  6  0  0  0
 11  8  1  0  0  0  0
 11 14  1  1  0  0  0
 11  6  1  0  0  0  0
 12 13  1  0  0  0  0
 14 12  2  0  0  0  0
 15 19  1  1  0  0  0
 15 16  1  0  0  0  0
 15 14  1  0  0  0  0
 16 17  1  0  0  0  0
 17 18  1  1  0  0  0
 17 13  1  0  0  0  0
 20 19  1  0  0  0  0
 21 19  2  0  0  0  0
 23 22  1  0  0  0  0
 24 23  1  6  0  0  0
 24 27  1  0  0  0  0
 26 25  1  6  0  0  0
 26 24  1  0  0  0  0
 26 27  1  0  0  0  0
 28 32  1  0  0  0  0
 29 33  1  6  0  0  0
 29 28  1  0  0  0  0
 30 29  1  0  0  0  0
 31 30  1  6  0  0  0
 31 26  1  0  0  0  0
 31 32  1  0  0  0  0
 32 34  1  6  0  0  0
 35 39  1  0  0  0  0
 36 45  1  0  0  0  0
 36 41  1  0  0  0  0
 37 40  1  0  0  0  0
 38 39  1  0  0  0  0
 38 37  2  0  0  0  0
 39 36  2  0  0  0  0
 40 41  2  0  0  0  0
 41 42  1  0  0  0  0
 44 45  1  0  0  0  0
 45 46  1  0  0  0  0
 45 43  1  0  0  0  0
M  END
>  <MODEL>
7

>  <REMARK>
 VINA RESULT:      -5.9      1.831      2.280
  Name = 
  10 active torsions:
  status: ('A' for Active; 'I' for Inactive)
    1  A    between atoms: C_8  and  C_10
    2  A    between atoms: C_9  and  C_23
    3  A    between atoms: C_10  and  C_12
    4  A    between atoms: C_12  and  C_16
    5  A    between atoms: C_15  and  C_26
    6  A    between atoms: C_18  and  C_43
    7  A    between atoms: C_19  and  C_45
    8  A    between atoms: C_22  and  C_42
    9  A    between atoms: C_25  and  C_29
   10  A    between atoms: C_29  and  C_41
                            x       y       z     vdW  Elec       q    Type
                         _______ _______ _______ _____ _____    ______ ____

>  <TORSDO>
F 10

$$$$
=
 OpenBabel11032420033D

 46 51  0  0  1  0  0  0  0  0999 V2000
  190.5410  177.6390  136.6900 N   0  0  0  0  0  2  0  0  0  0  0  0
  189.0920  175.7790  136.2180 C   0  0  1  0  0  3  0  0  0  0  0  0
  187.9570  176.9750  136.9630 S   0  0  0  0  0  0  0  0  0  0  0  0
  190.4990  176.1880  136.5840 C   0  0  1  0  0  3  0  0  0  0  0  0
  189.3500  178.0590  137.4190 C   0  0  1  0  0  3  0  0  0  0  0  0
  189.0350  176.7550  139.5340 C   0  0  2  0  0  3  0  0  0  0  0  0
  190.0550  175.8350  139.7960 O   0  0  0  0  0  1  0  0  0  0  0  0
  187.9520  178.6380  140.5100 C   0  0  0  0  0  2  0  0  0  0  0  0
  189.5970  178.0300  138.9300 C   0  0  2  0  0  3  0  0  0  0  0  0
  188.9400  179.1690  139.5740 N   0  0  0  0  0  2  0  0  0  0  0  0
  188.3000  177.1910  140.7870 C   0  0  2  0  0  3  0  0  0  0  0  0
  190.2750  176.3950  142.0710 C   0  0  0  0  0  3  0  0  0  0  0  0
  191.1180  176.2400  143.3050 C   0  0  0  0  0  2  0  0  0  0  0  0
  189.0960  177.0500  142.0720 C   0  0  0  0  0  0  0  0  0  0  0  0
  188.6060  177.7920  143.3070 C   0  0  2  0  0  3  0  0  0  0  0  0
  189.4250  177.5120  144.5740 C   0  0  0  0  0  2  0  0  0  0  0  0
  190.9080  177.4130  144.2530 C   0  0  1  0  0  3  0  0  0  0  0  0
  191.6860  177.1680  145.5280 C   0  0  0  0  0  1  0  0  0  0  0  0
  187.1600  177.5180  143.5740 C   0  0  0  0  0  0  0  0  0  0  0  0
  186.8070  176.3870  143.9950 O   0  0  0  0  0  1  0  0  0  0  0  0
  186.2060  178.5060  143.3670 O   0  0  0  0  0  0  0  0  0  0  0  0
  188.7970  174.3870  136.7510 C   0  0  0  0  0  2  0  0  0  0  0  0
  187.6060  173.7810  136.0320 C   0  0  0  0  0  2  0  0  0  0  0  0
  186.3700  173.8470  136.9220 C   0  0  1  0  0  3  0  0  0  0  0  0
  185.3190  175.1320  134.8970 C   0  0  0  0  0  1  0  0  0  0  0  0
  185.2170  174.5540  136.3060 C   0  0  1  0  0  0  0  0  0  0  0  0
  185.3090  173.1510  136.3030 O   0  0  0  0  0  0  0  0  0  0  0  0
  181.7040  175.2380  138.3330 S   0  0  0  0  0  0  0  0  0  0  0  0
  182.2570  176.8790  137.7730 C   0  0  2  0  0  3  0  0  0  0  0  0
  184.0220  176.8720  137.3100 S   0  0  0  0  0  0  0  0  0  0  0  0
  184.1530  175.0560  137.2820 C   0  0  1  0  0  3  0  0  0  0  0  0
  182.7870  174.4000  137.1540 C   0  0  2  0  0  3  0  0  0  0  0  0
  182.0170  177.9030  138.8640 C   0  0  0  0  0  1  0  0  0  0  0  0
  182.1990  174.5030  135.7540 C   0  0  0  0  0  1  0  0  0  0  0  0
  191.4610  175.7190  135.5020 C   0  0  0  0  0  2  0  0  0  0  0  0
  193.3030  174.3150  136.6240 C   0  0  0  0  0  0  0  0  0  0  0  0
  192.0030  171.9990  135.6280 C   0  0  0  0  0  3  0  0  0  0  0  0
  191.4650  173.2560  135.3900 C   0  0  0  0  0  3  0  0  0  0  0  0
  192.1000  174.4090  135.8580 C   0  0  0  0  0  0  0  0  0  0  0  0
  193.1980  171.8830  136.3280 C   0  0  0  0  0  3  0  0  0  0  0  0
  193.8590  173.0120  136.8130 C   0  0  0  0  0  0  0  0  0  0  0  0
  195.1690  172.7520  137.4790 C   0  0  0  0  0  1  0  0  0  0  0  0
  193.1890  176.1960  138.3110 C   0  0  0  0  0  1  0  0  0  0  0  0
  195.2620  175.3440  137.6570 O   0  0  0  0  0  1  0  0  0  0  0  0
  193.9830  175.5890  137.1630 C   0  0  0  0  0  0  0  0  0  0  0  0
  194.1010  176.6120  136.0500 C   0  0  0  0  0  1  0  0  0  0  0  0
  2  4  1  0  0  0  0
  2 22  1  1  0  0  0
  2  3  1  0  0  0  0
  3  5  1  0  0  0  0
  4 35  1  6  0  0  0
  4  1  1  0  0  0  0
  5  1  1  6  0  0  0
  5  9  1  0  0  0  0
  6  7  1  1  0  0  0
  6 11  1  0  0  0  0
  8 11  1  0  0  0  0
  9  6  1  0  0  0  0
  9 10  1  1  0  0  0
 10  8  1  0  0  0  0
 11 14  1  1  0  0  0
 12 14  2  0  0  0  0
 12 13  1  0  0  0  0
 13 17  1  0  0  0  0
 14 15  1  0  0  0  0
 15 19  1  1  0  0  0
 15 16  1  0  0  0  0
 17 16  1  0  0  0  0
 17 18  1  1  0  0  0
 19 20  1  0  0  0  0
 21 19  2  0  0  0  0
 23 22  1  0  0  0  0
 24 23  1  6  0  0  0
 26 25  1  6  0  0  0
 26 24  1  0  0  0  0
 26 31  1  0  0  0  0
 27 26  1  0  0  0  0
 27 24  1  0  0  0  0
 29 28  1  0  0  0  0
 29 33  1  1  0  0  0
 30 29  1  0  0  0  0
 31 30  1  6  0  0  0
 32 34  1  6  0  0  0
 32 31  1  0  0  0  0
 32 28  1  0  0  0  0
 35 39  1  0  0  0  0
 36 41  1  0  0  0  0
 36 45  1  0  0  0  0
 37 40  1  0  0  0  0
 38 37  2  0  0  0  0
 38 39  1  0  0  0  0
 39 36  2  0  0  0  0
 40 41  2  0  0  0  0
 41 42  1  0  0  0  0
 45 44  1  0  0  0  0
 45 43  1  0  0  0  0
 46 45  1  0  0  0  0
M  END
>  <MODEL>
8

>  <REMARK>
 VINA RESULT:      -5.8      2.796      9.367
  Name = 
  10 active torsions:
  status: ('A' for Active; 'I' for Inactive)
    1  A    between atoms: C_8  and  C_10
    2  A    between atoms: C_9  and  C_23
    3  A    between atoms: C_10  and  C_12
    4  A    between atoms: C_12  and  C_16
    5  A    between atoms: C_15  and  C_26
    6  A    between atoms: C_18  and  C_43
    7  A    between atoms: C_19  and  C_45
    8  A    between atoms: C_22  and  C_42
    9  A    between atoms: C_25  and  C_29
   10  A    between atoms: C_29  and  C_41
                            x       y       z     vdW  Elec       q    Type
                         _______ _______ _______ _____ _____    ______ ____

>  <TORSDO>
F 10

$$$$
=
 OpenBabel11032420033D

 46 51  0  0  1  0  0  0  0  0999 V2000
  184.7210  178.0760  140.2910 N   0  0  0  0  0  2  0  0  0  0  0  0
  184.7050  178.6150  142.6350 C   0  0  1  0  0  3  0  0  0  0  0  0
  182.9810  178.1560  142.3310 S   0  0  0  0  0  0  0  0  0  0  0  0
  185.3430  178.9200  141.3000 C   0  0  1  0  0  3  0  0  0  0  0  0
  183.2830  178.0920  140.5340 C   0  0  1  0  0  3  0  0  0  0  0  0
  181.1530  178.9920  139.5740 C   0  0  2  0  0  3  0  0  0  0  0  0
  180.3490  179.6670  140.4980 O   0  0  0  0  0  1  0  0  0  0  0  0
  182.2570  179.3310  137.4920 C   0  0  0  0  0  2  0  0  0  0  0  0
  182.6230  179.2760  139.8240 C   0  0  2  0  0  3  0  0  0  0  0  0
  183.2670  179.5160  138.5310 N   0  0  0  0  0  2  0  0  0  0  0  0
  180.8940  179.4230  138.1430 C   0  0  2  0  0  3  0  0  0  0  0  0
  179.7170  181.4170  139.0500 C   0  0  0  0  0  3  0  0  0  0  0  0
  179.1330  182.7990  138.9730 C   0  0  0  0  0  2  0  0  0  0  0  0
  180.3040  180.8140  137.9960 C   0  0  0  0  0  0  0  0  0  0  0  0
  180.5290  181.5560  136.6870 C   0  0  2  0  0  3  0  0  0  0  0  0
  179.8160  182.9120  136.6030 C   0  0  0  0  0  2  0  0  0  0  0  0
  179.8690  183.6390  137.9380 C   0  0  1  0  0  3  0  0  0  0  0  0
  179.1860  184.9830  137.8100 C   0  0  0  0  0  1  0  0  0  0  0  0
  180.1490  180.7170  135.5080 C   0  0  0  0  0  0  0  0  0  0  0  0
  178.9350  180.4910  135.2680 O   0  0  0  0  0  1  0  0  0  0  0  0
  181.1280  180.1910  134.6740 O   0  0  0  0  0  0  0  0  0  0  0  0
  184.7620  179.8390  143.5340 C   0  0  0  0  0  2  0  0  0  0  0  0
  184.8980  179.4280  144.9880 C   0  0  0  0  0  2  0  0  0  0  0  0
  185.8660  178.2560  145.1090 C   0  0  1  0  0  3  0  0  0  0  0  0
  186.5170  179.3870  147.3800 C   0  0  0  0  0  1  0  0  0  0  0  0
  186.6840  178.2730  146.3500 C   0  0  1  0  0  0  0  0  0  0  0  0
  185.5260  177.4830  146.2420 O   0  0  0  0  0  0  0  0  0  0  0  0
  190.1130  176.2240  147.3320 S   0  0  0  0  0  0  0  0  0  0  0  0
  190.6210  177.4170  146.0550 C   0  0  2  0  0  3  0  0  0  0  0  0
  189.1880  178.0610  145.1270 S   0  0  0  0  0  0  0  0  0  0  0  0
  187.9580  177.4280  146.3110 C   0  0  1  0  0  3  0  0  0  0  0  0
  188.5870  177.1320  147.6640 C   0  0  2  0  0  3  0  0  0  0  0  0
  191.5990  176.7630  145.1000 C   0  0  0  0  0  1  0  0  0  0  0  0
  188.9010  178.3850  148.4690 C   0  0  0  0  0  1  0  0  0  0  0  0
  186.8350  178.6280  141.3730 C   0  0  0  0  0  2  0  0  0  0  0  0
  188.7080  177.7260  139.8550 C   0  0  0  0  0  0  0  0  0  0  0  0
  187.0110  178.2260  137.6380 C   0  0  0  0  0  3  0  0  0  0  0  0
  186.5670  178.4880  138.9270 C   0  0  0  0  0  3  0  0  0  0  0  0
  187.3940  178.2630  140.0300 C   0  0  0  0  0  0  0  0  0  0  0  0
  188.3010  177.7500  137.4370 C   0  0  0  0  0  3  0  0  0  0  0  0
  189.1540  177.5110  138.5140 C   0  0  0  0  0  0  0  0  0  0  0  0
  190.5360  177.0740  138.1550 C   0  0  0  0  0  1  0  0  0  0  0  0
  190.9930  176.9950  140.6550 C   0  0  0  0  0  1  0  0  0  0  0  0
  189.7880  178.5840  141.8700 O   0  0  0  0  0  1  0  0  0  0  0  0
  189.6040  177.4530  141.0780 C   0  0  0  0  0  0  0  0  0  0  0  0
  188.9730  176.3780  141.9420 C   0  0  0  0  0  1  0  0  0  0  0  0
  1  4  1  0  0  0  0
  2 22  1  1  0  0  0
  3  2  1  0  0  0  0
  4 35  1  1  0  0  0
  4  2  1  0  0  0  0
  5  1  1  1  0  0  0
  5  3  1  0  0  0  0
  6  9  1  0  0  0  0
  6  7  1  1  0  0  0
  8 11  1  0  0  0  0
  8 10  1  0  0  0  0
  9 10  1  6  0  0  0
  9  5  1  0  0  0  0
 11 14  1  1  0  0  0
 11  6  1  0  0  0  0
 13 12  1  0  0  0  0
 14 12  2  0  0  0  0
 15 19  1  6  0  0  0
 15 14  1  0  0  0  0
 16 15  1  0  0  0  0
 16 17  1  0  0  0  0
 17 18  1  6  0  0  0
 17 13  1  0  0  0  0
 20 19  1  0  0  0  0
 21 19  2  0  0  0  0
 22 23  1  0  0  0  0
 24 23  1  1  0  0  0
 24 27  1  0  0  0  0
 24 26  1  0  0  0  0
 26 25  1  1  0  0  0
 27 26  1  0  0  0  0
 28 32  1  0  0  0  0
 29 33  1  6  0  0  0
 29 28  1  0  0  0  0
 30 29  1  0  0  0  0
 31 30  1  6  0  0  0
 31 26  1  0  0  0  0
 31 32  1  0  0  0  0
 32 34  1  6  0  0  0
 36 39  1  0  0  0  0
 36 45  1  0  0  0  0
 37 38  1  0  0  0  0
 38 39  2  0  0  0  0
 39 35  1  0  0  0  0
 40 37  2  0  0  0  0
 40 41  1  0  0  0  0
 41 36  2  0  0  0  0
 42 41  1  0  0  0  0
 43 45  1  0  0  0  0
 45 44  1  0  0  0  0
 45 46  1  0  0  0  0
M  END
>  <MODEL>
9

>  <REMARK>
 VINA RESULT:      -5.7      5.277      9.187
  Name = 
  10 active torsions:
  status: ('A' for Active; 'I' for Inactive)
    1  A    between atoms: C_8  and  C_10
    2  A    between atoms: C_9  and  C_23
    3  A    between atoms: C_10  and  C_12
    4  A    between atoms: C_12  and  C_16
    5  A    between atoms: C_15  and  C_26
    6  A    between atoms: C_18  and  C_43
    7  A    between atoms: C_19  and  C_45
    8  A    between atoms: C_22  and  C_42
    9  A    between atoms: C_25  and  C_29
   10  A    between atoms: C_29  and  C_41
                            x       y       z     vdW  Elec       q    Type
                         _______ _______ _______ _____ _____    ______ ____

>  <TORSDO>
F 10

$$$$
