=
 OpenBabel11032419573D

 52 57  0  0  1  0  0  0  0  0999 V2000
  187.2500  178.0240  140.0820 C   0  0  0  0  0  0  0  0  0  0  0  0
  183.8030  179.3990  140.6030 C   0  0  0  0  0  2  0  0  0  0  0  0
  190.8110  177.2560  141.3330 C   0  0  0  0  0  1  0  0  0  0  0  0
  184.5870  178.2900  142.7340 C   0  0  1  0  0  3  0  0  0  0  0  0
  183.4170  178.4780  141.7570 C   0  0  1  0  0  3  0  0  0  0  0  0
  188.3100  177.1880  140.7490 C   0  0  0  0  0  2  0  0  0  0  0  0
  185.7570  177.6120  142.0160 C   0  0  0  0  0  2  0  0  0  0  0  0
  185.0230  178.9240  139.9600 N   0  0  0  0  0  2  0  0  0  0  0  0
  188.9410  178.9440  138.5430 C   0  0  0  0  0  0  0  0  0  0  0  0
  189.6920  177.7070  140.4660 C   0  0  0  0  0  0  0  0  0  0  0  0
  186.0610  178.2290  140.6700 C   0  0  0  0  0  0  0  0  0  0  0  0
  187.5080  178.5170  138.6870 C   0  0  1  0  0  3  0  0  0  0  0  0
  189.9470  178.4750  139.4490 N   0  0  0  0  0  0  0  0  0  0  0  0
  189.2660  179.7270  137.6120 O   0  0  0  0  0  0  0  0  0  0  0  0
  184.9840  179.8140  144.6900 C   0  0  0  0  0  3  0  0  0  0  0  0
  185.0310  179.5820  143.3710 C   0  0  0  0  0  3  0  0  0  0  0  0
  184.4790  178.8200  145.6960 C   0  0  0  0  0  2  0  0  0  0  0  0
  185.4400  178.6630  146.8660 C   0  0  0  0  0  2  0  0  0  0  0  0
  187.8070  178.5030  148.4110 O   0  0  0  0  0  0  0  0  0  0  0  0
  187.8570  178.0420  147.2390 C   0  0  0  0  0  0  0  0  0  0  0  0
  186.6890  178.0630  146.4160 N   0  0  0  0  0  2  0  0  0  0  0  0
  192.3910  175.7760  147.6850 S   0  0  0  0  0  0  0  0  0  0  0  0
  190.0280  176.9240  147.5810 N   0  0  0  0  0  0  0  0  0  0  0  0
  189.5390  177.5100  145.3930 C   0  0  1  0  0  3  0  0  0  0  0  0
  191.0570  176.7970  145.2860 S   0  0  0  0  0  0  0  0  0  0  0  0
  189.1290  177.4910  146.7310 C   0  0  0  0  0  0  0  0  0  0  0  0
  188.7990  178.0640  144.2250 C   0  0  0  0  0  1  0  0  0  0  0  0
  191.1330  176.4970  146.9340 C   0  0  0  0  0  0  0  0  0  0  0  0
  182.1160  178.9020  142.4370 C   0  0  0  0  0  2  0  0  0  0  0  0
  181.1250  179.1930  141.4980 O   0  0  0  0  0  1  0  0  0  0  0  0
  187.1540  177.4230  137.6850 C   0  0  0  0  0  2  0  0  0  0  0  0
  187.4340  177.8550  136.3160 N   0  0  0  0  0  0  0  0  0  0  0  0
  188.3560  176.9830  135.5960 C   0  0  2  0  0  3  0  0  0  0  0  0
  187.0090  176.8450  135.4670 O   0  0  0  0  0  0  0  0  0  0  0  0
  188.9040  175.7780  136.3730 C   0  0  0  0  0  2  0  0  0  0  0  0
  192.4490  176.0600  137.6670 C   0  0  0  0  0  0  0  0  0  0  0  0
  191.1390  175.5090  135.2600 C   0  0  0  0  0  3  0  0  0  0  0  0
  193.0690  176.3190  138.8460 F   0  0  0  0  0  0  0  0  0  0  0  0
  191.0520  176.0670  137.6110 C   0  0  0  0  0  3  0  0  0  0  0  0
  192.5360  175.5080  135.3150 C   0  0  0  0  0  3  0  0  0  0  0  0
  190.3950  175.8000  136.4080 C   0  0  0  0  0  0  0  0  0  0  0  0
  193.2030  175.7800  136.5190 C   0  0  0  0  0  0  0  0  0  0  0  0
  194.6370  175.7930  136.6040 N   0  0  0  0  0  0  0  0  0  0  0  0
  197.6880  172.0900  136.8390 C   0  0  0  0  0  3  0  0  0  0  0  0
  197.4240  175.1870  138.4520 O   0  0  0  0  0  0  0  0  0  0  0  0
  197.7830  175.9800  136.1530 O   0  0  0  0  0  0  0  0  0  0  0  0
  195.1620  172.1600  136.8830 C   0  0  0  0  0  2  0  0  0  0  0  0
  195.5280  174.6700  136.6430 C   0  0  0  0  0  0  0  0  0  0  0  0
  196.4110  171.6540  137.5410 C   0  0  0  0  0  2  0  0  0  0  0  0
  197.2320  174.8640  136.9970 S   0  0  0  0  0  0  0  0  0  0  0  0
  195.1410  173.4410  136.7190 C   0  0  0  0  0  2  0  0  0  0  0  0
  198.1020  173.3580  136.5950 C   0  0  0  0  0  3  0  0  0  0  0  0
  1 11  2  0  0  0  0
  1  6  1  0  0  0  0
  2  5  1  0  0  0  0
  4 16  1  6  0  0  0
  5 29  1  1  0  0  0
  5  4  1  0  0  0  0
  7  4  1  0  0  0  0
  8  2  1  0  0  0  0
  8 11  1  0  0  0  0
  9 12  1  0  0  0  0
  9 13  1  0  0  0  0
 10  6  1  0  0  0  0
 10  3  1  0  0  0  0
 11  7  1  0  0  0  0
 12 31  1  6  0  0  0
 12  1  1  0  0  0  0
 13 10  2  0  0  0  0
 14  9  2  0  0  0  0
 15 17  1  0  0  0  0
 16 15  2  0  0  0  0
 17 18  1  0  0  0  0
 20 19  2  0  0  0  0
 21 18  1  0  0  0  0
 21 20  1  0  0  0  0
 24 27  1  1  0  0  0
 24 26  1  0  0  0  0
 25 24  1  0  0  0  0
 25 28  1  0  0  0  0
 26 20  1  0  0  0  0
 26 23  2  0  0  0  0
 28 23  1  0  0  0  0
 28 22  2  0  0  0  0
 30 29  1  0  0  0  0
 32 31  1  0  0  0  0
 33 32  1  0  0  0  0
 33 35  1  1  0  0  0
 34 33  1  0  0  0  0
 34 32  1  0  0  0  0
 35 41  1  0  0  0  0
 36 38  1  0  0  0  0
 37 40  2  0  0  0  0
 37 41  1  0  0  0  0
 39 36  1  0  0  0  0
 40 42  1  0  0  0  0
 41 39  2  0  0  0  0
 42 43  1  0  0  0  0
 42 36  2  0  0  0  0
 43 48  2  0  0  0  0
 44 49  1  0  0  0  0
 46 50  2  0  0  0  0
 47 49  1  0  0  0  0
 48 51  1  0  0  0  0
 48 50  1  0  0  0  0
 50 45  2  0  0  0  0
 51 47  1  0  0  0  0
 52 44  2  0  0  0  0
 52 50  1  0  0  0  0
M  END
>  <MODEL>
1

>  <REMARK>
 VINA RESULT:      -8.4      0.000      0.000
  Name = 
  12 active torsions:
  status: ('A' for Active; 'I' for Inactive)
    1  A    between atoms: N_6  and  C_19
    2  A    between atoms: C_8  and  C_21
    3  A    between atoms: C_11  and  C_47
    4  A    between atoms: C_12  and  C_15
    5  A    between atoms: C_15  and  C_45
    6  A    between atoms: C_18  and  C_29
    7  A    between atoms: C_19  and  C_41
    8  A    between atoms: C_20  and  C_21
    9  A    between atoms: C_20  and  N_30
   10  A    between atoms: C_23  and  C_25
   11  A    between atoms: N_33  and  C_34
   12  A    between atoms: N_33  and  C_49
                            x       y       z     vdW  Elec       q    Type
                         _______ _______ _______ _____ _____    ______ ____

>  <TORSDO>
F 12

$$$$
=
 OpenBabel11032419573D

 52 57  0  0  1  0  0  0  0  0999 V2000
  191.5000  175.8130  137.5390 C   0  0  0  0  0  0  0  0  0  0  0  0
  189.4180  178.4590  139.1860 C   0  0  0  0  0  2  0  0  0  0  0  0
  194.4380  173.3220  137.5560 C   0  0  0  0  0  1  0  0  0  0  0  0
  190.1040  176.7450  140.9120 C   0  0  1  0  0  3  0  0  0  0  0  0
  188.9580  177.6110  140.3690 C   0  0  1  0  0  3  0  0  0  0  0  0
  192.1600  174.4850  137.8010 C   0  0  0  0  0  2  0  0  0  0  0  0
  190.5660  175.7620  139.8330 C   0  0  0  0  0  2  0  0  0  0  0  0
  190.0400  177.6170  138.1690 N   0  0  0  0  0  2  0  0  0  0  0  0
  192.9500  176.1490  135.5740 C   0  0  0  0  0  0  0  0  0  0  0  0
  193.4900  174.3750  137.1100 C   0  0  0  0  0  0  0  0  0  0  0  0
  190.7600  176.4150  138.4840 C   0  0  0  0  0  0  0  0  0  0  0  0
  191.5850  176.3870  136.1540 C   0  0  1  0  0  3  0  0  0  0  0  0
  193.8040  175.1220  136.0930 N   0  0  0  0  0  0  0  0  0  0  0  0
  193.3510  176.8600  134.6160 O   0  0  0  0  0  0  0  0  0  0  0  0
  191.9520  177.2630  142.5300 C   0  0  0  0  0  3  0  0  0  0  0  0
  191.2650  177.5620  141.4190 C   0  0  0  0  0  3  0  0  0  0  0  0
  191.6490  176.0850  143.4110 C   0  0  0  0  0  2  0  0  0  0  0  0
  191.4820  176.4970  144.8660 C   0  0  0  0  0  2  0  0  0  0  0  0
  190.0650  178.9490  144.8820 O   0  0  0  0  0  0  0  0  0  0  0  0
  189.4230  177.9140  145.2090 C   0  0  0  0  0  0  0  0  0  0  0  0
  190.0700  176.6400  145.1920 N   0  0  0  0  0  2  0  0  0  0  0  0
  184.4460  178.5730  144.3830 S   0  0  0  0  0  0  0  0  0  0  0  0
  187.0340  178.2300  144.6810 N   0  0  0  0  0  0  0  0  0  0  0  0
  187.5390  177.9950  146.9310 C   0  0  1  0  0  3  0  0  0  0  0  0
  185.8710  178.2010  146.9140 S   0  0  0  0  0  0  0  0  0  0  0  0
  188.0080  178.0380  145.6130 C   0  0  0  0  0  0  0  0  0  0  0  0
  188.3400  177.8120  148.1740 C   0  0  0  0  0  1  0  0  0  0  0  0
  185.8130  178.3360  145.2440 C   0  0  0  0  0  0  0  0  0  0  0  0
  188.2540  178.4380  141.4440 C   0  0  0  0  0  2  0  0  0  0  0  0
  186.9500  178.7580  141.0650 O   0  0  0  0  0  1  0  0  0  0  0  0
  190.4970  175.7710  135.2790 C   0  0  0  0  0  2  0  0  0  0  0  0
  189.7260  176.8080  134.5940 N   0  0  0  0  0  0  0  0  0  0  0  0
  188.3280  176.8760  135.0070 C   0  0  2  0  0  3  0  0  0  0  0  0
  189.2670  177.6900  135.5590 O   0  0  0  0  0  0  0  0  0  0  0  0
  187.8760  175.8570  136.0610 C   0  0  0  0  0  2  0  0  0  0  0  0
  185.2560  177.8820  137.8920 C   0  0  0  0  0  0  0  0  0  0  0  0
  185.4430  175.4490  136.5290 C   0  0  0  0  0  3  0  0  0  0  0  0
  185.1800  179.0710  138.5410 F   0  0  0  0  0  0  0  0  0  0  0  0
  186.4760  177.4770  137.3430 C   0  0  0  0  0  3  0  0  0  0  0  0
  184.2240  175.8510  137.0820 C   0  0  0  0  0  3  0  0  0  0  0  0
  186.5750  176.2590  136.6680 C   0  0  0  0  0  0  0  0  0  0  0  0
  184.1190  177.0720  137.7650 C   0  0  0  0  0  0  0  0  0  0  0  0
  182.8810  177.5080  138.3510 N   0  0  0  0  0  2  0  0  0  0  0  0
  180.0180  181.0580  136.8430 C   0  0  0  0  0  3  0  0  0  0  0  0
  182.9310  180.8800  138.7770 O   0  0  0  0  0  0  0  0  0  0  0  0
  181.4180  179.6100  140.2420 O   0  0  0  0  0  0  0  0  0  0  0  0
  181.0570  179.1240  135.5910 C   0  0  0  0  0  2  0  0  0  0  0  0
  182.0010  178.5400  137.8840 C   0  0  1  0  0  3  0  0  0  0  0  0
  180.8300  180.6060  135.6390 C   0  0  0  0  0  2  0  0  0  0  0  0
  181.7180  179.9930  138.8190 S   0  0  0  0  0  0  0  0  0  0  0  0
  181.5860  178.6430  136.6670 C   0  0  0  0  0  2  0  0  0  0  0  0
  180.3110  180.8680  138.1540 C   0  0  0  0  0  3  0  0  0  0  0  0
  1  6  1  0  0  0  0
  1 11  2  0  0  0  0
  2  5  1  0  0  0  0
  4 16  1  6  0  0  0
  5  4  1  0  0  0  0
  5 29  1  1  0  0  0
  7  4  1  0  0  0  0
  8 11  1  0  0  0  0
  8  2  1  0  0  0  0
  9 13  1  0  0  0  0
  9 12  1  0  0  0  0
 10  3  1  0  0  0  0
 10  6  1  0  0  0  0
 11  7  1  0  0  0  0
 12 31  1  6  0  0  0
 12  1  1  0  0  0  0
 13 10  2  0  0  0  0
 14  9  2  0  0  0  0
 15 17  1  0  0  0  0
 16 15  2  0  0  0  0
 17 18  1  0  0  0  0
 18 21  1  0  0  0  0
 19 20  2  0  0  0  0
 20 26  1  0  0  0  0
 21 20  1  0  0  0  0
 22 28  2  0  0  0  0
 23 28  1  0  0  0  0
 23 26  2  0  0  0  0
 24 27  1  1  0  0  0
 25 24  1  0  0  0  0
 26 24  1  0  0  0  0
 28 25  1  0  0  0  0
 30 29  1  0  0  0  0
 32 33  1  0  0  0  0
 32 31  1  0  0  0  0
 32 34  1  0  0  0  0
 33 34  1  0  0  0  0
 33 35  1  1  0  0  0
 35 41  1  0  0  0  0
 36 38  1  0  0  0  0
 37 41  2  0  0  0  0
 37 40  1  0  0  0  0
 39 36  2  0  0  0  0
 40 42  2  0  0  0  0
 41 39  1  0  0  0  0
 42 36  1  0  0  0  0
 42 43  1  0  0  0  0
 44 52  2  0  0  0  0
 45 50  2  0  0  0  0
 47 49  1  0  0  0  0
 47 51  1  0  0  0  0
 48 43  1  6  0  0  0
 48 50  1  0  0  0  0
 49 44  1  0  0  0  0
 50 46  2  0  0  0  0
 51 48  1  0  0  0  0
 52 50  1  0  0  0  0
M  END
>  <MODEL>
2

>  <REMARK>
 VINA RESULT:      -7.7      3.546      8.866
  Name = 
  12 active torsions:
  status: ('A' for Active; 'I' for Inactive)
    1  A    between atoms: N_6  and  C_19
    2  A    between atoms: C_8  and  C_21
    3  A    between atoms: C_11  and  C_47
    4  A    between atoms: C_12  and  C_15
    5  A    between atoms: C_15  and  C_45
    6  A    between atoms: C_18  and  C_29
    7  A    between atoms: C_19  and  C_41
    8  A    between atoms: C_20  and  C_21
    9  A    between atoms: C_20  and  N_30
   10  A    between atoms: C_23  and  C_25
   11  A    between atoms: N_33  and  C_34
   12  A    between atoms: N_33  and  C_49
                            x       y       z     vdW  Elec       q    Type
                         _______ _______ _______ _____ _____    ______ ____

>  <TORSDO>
F 12

$$$$
=
 OpenBabel11032419573D

 52 57  0  0  1  0  0  0  0  0999 V2000
  189.2980  177.5930  145.3360 C   0  0  0  0  0  0  0  0  0  0  0  0
  187.3690  177.6050  142.1220 C   0  0  0  0  0  2  0  0  0  0  0  0
  192.4180  176.6870  147.4060 C   0  0  0  0  0  1  0  0  0  0  0  0
  189.8230  177.9450  141.6220 C   0  0  1  0  0  3  0  0  0  0  0  0
  188.3890  178.3960  141.3070 C   0  0  1  0  0  3  0  0  0  0  0  0
  190.6760  177.8240  145.8960 C   0  0  0  0  0  2  0  0  0  0  0  0
  190.1420  178.2230  143.0930 C   0  0  0  0  0  2  0  0  0  0  0  0
  187.6970  177.6670  143.5430 N   0  0  0  0  0  2  0  0  0  0  0  0
  188.6730  176.3580  147.3760 C   0  0  0  0  0  0  0  0  0  0  0  0
  190.9980  176.8620  147.0060 C   0  0  0  0  0  0  0  0  0  0  0  0
  189.0450  177.7720  144.0300 C   0  0  0  0  0  0  0  0  0  0  0  0
  188.1850  177.2800  146.2950 C   0  0  1  0  0  3  0  0  0  0  0  0
  190.0700  176.2390  147.6690 N   0  0  0  0  0  0  0  0  0  0  0  0
  187.8430  175.6800  148.0360 O   0  0  0  0  0  0  0  0  0  0  0  0
  190.8640  176.0860  140.2920 C   0  0  0  0  0  3  0  0  0  0  0  0
  190.0670  176.4950  141.2890 C   0  0  0  0  0  3  0  0  0  0  0  0
  191.6070  177.0190  139.3790 C   0  0  0  0  0  2  0  0  0  0  0  0
  191.1410  176.8840  137.9370 C   0  0  0  0  0  2  0  0  0  0  0  0
  189.0160  176.6210  136.0840 O   0  0  0  0  0  0  0  0  0  0  0  0
  189.2370  175.6400  136.8450 C   0  0  0  0  0  0  0  0  0  0  0  0
  190.3140  175.6950  137.7810 N   0  0  0  0  0  2  0  0  0  0  0  0
  184.9590  172.9980  137.6230 S   0  0  0  0  0  0  0  0  0  0  0  0
  187.1090  174.4680  137.2690 N   0  0  0  0  0  0  0  0  0  0  0  0
  188.7390  173.2220  136.1910 C   0  0  1  0  0  3  0  0  0  0  0  0
  187.4500  172.1540  136.3360 S   0  0  0  0  0  0  0  0  0  0  0  0
  188.3710  174.4480  136.7590 C   0  0  0  0  0  0  0  0  0  0  0  0
  190.0430  172.8700  135.5620 C   0  0  0  0  0  1  0  0  0  0  0  0
  186.4830  173.2830  137.1100 C   0  0  0  0  0  0  0  0  0  0  0  0
  188.0660  178.4050  139.8140 C   0  0  0  0  0  2  0  0  0  0  0  0
  188.9850  179.1760  139.1010 O   0  0  0  0  0  1  0  0  0  0  0  0
  187.6360  178.5770  146.8800 C   0  0  0  0  0  2  0  0  0  0  0  0
  186.3460  178.3540  147.5320 N   0  0  0  0  0  0  0  0  0  0  0  0
  185.2080  178.8860  146.7900 C   0  0  2  0  0  3  0  0  0  0  0  0
  185.5760  177.5820  146.6750 O   0  0  0  0  0  0  0  0  0  0  0  0
  185.5270  179.6080  145.4750 C   0  0  0  0  0  2  0  0  0  0  0  0
  182.2140  178.7730  143.8470 C   0  0  0  0  0  0  0  0  0  0  0  0
  184.8490  179.2980  143.0760 C   0  0  0  0  0  3  0  0  0  0  0  0
  180.9380  178.5300  144.2380 F   0  0  0  0  0  0  0  0  0  0  0  0
  183.1890  179.0380  144.8140 C   0  0  0  0  0  3  0  0  0  0  0  0
  183.8760  179.0270  142.1100 C   0  0  0  0  0  3  0  0  0  0  0  0
  184.5070  179.2940  144.4330 C   0  0  0  0  0  0  0  0  0  0  0  0
  182.5510  178.7650  142.4860 C   0  0  0  0  0  0  0  0  0  0  0  0
  181.5310  178.4750  141.5160 N   0  0  0  0  0  2  0  0  0  0  0  0
  182.1820  177.2430  136.9190 C   0  0  0  0  0  3  0  0  0  0  0  0
  183.0030  180.0290  138.8750 O   0  0  0  0  0  0  0  0  0  0  0  0
  180.5520  180.1740  139.0080 O   0  0  0  0  0  0  0  0  0  0  0  0
  182.6100  175.9590  139.0540 C   0  0  0  0  0  2  0  0  0  0  0  0
  181.7040  178.0730  140.1500 C   0  0  1  0  0  3  0  0  0  0  0  0
  183.1640  176.4210  137.7390 C   0  0  0  0  0  2  0  0  0  0  0  0
  181.7220  179.2430  138.8470 S   0  0  0  0  0  0  0  0  0  0  0  0
  182.1410  176.9150  139.7850 C   0  0  0  0  0  2  0  0  0  0  0  0
  181.5700  178.3970  137.2810 C   0  0  0  0  0  3  0  0  0  0  0  0
  1  6  1  0  0  0  0
  1 12  1  0  0  0  0
  2  8  1  0  0  0  0
  4 16  1  1  0  0  0
  4  7  1  0  0  0  0
  5 29  1  6  0  0  0
  5  4  1  0  0  0  0
  5  2  1  0  0  0  0
  6 10  1  0  0  0  0
  7 11  1  0  0  0  0
  8 11  1  0  0  0  0
  9 13  1  0  0  0  0
  9 14  2  0  0  0  0
 10  3  1  0  0  0  0
 10 13  2  0  0  0  0
 11  1  2  0  0  0  0
 12 31  1  1  0  0  0
 12  9  1  0  0  0  0
 15 16  2  0  0  0  0
 17 15  1  0  0  0  0
 18 17  1  0  0  0  0
 19 20  2  0  0  0  0
 20 21  1  0  0  0  0
 21 18  1  0  0  0  0
 24 27  1  1  0  0  0
 24 25  1  0  0  0  0
 24 26  1  0  0  0  0
 25 28  1  0  0  0  0
 26 20  1  0  0  0  0
 26 23  2  0  0  0  0
 28 23  1  0  0  0  0
 28 22  2  0  0  0  0
 30 29  1  0  0  0  0
 31 32  1  0  0  0  0
 33 35  1  6  0  0  0
 33 32  1  0  0  0  0
 34 33  1  0  0  0  0
 34 32  1  0  0  0  0
 36 38  1  0  0  0  0
 36 39  1  0  0  0  0
 37 41  1  0  0  0  0
 40 42  1  0  0  0  0
 40 37  2  0  0  0  0
 41 39  2  0  0  0  0
 41 35  1  0  0  0  0
 42 36  2  0  0  0  0
 43 42  1  0  0  0  0
 44 52  2  0  0  0  0
 44 49  1  0  0  0  0
 47 51  1  0  0  0  0
 48 43  1  1  0  0  0
 49 47  1  0  0  0  0
 50 45  2  0  0  0  0
 50 46  2  0  0  0  0
 50 48  1  0  0  0  0
 51 48  1  0  0  0  0
 52 50  1  0  0  0  0
M  END
>  <MODEL>
3

>  <REMARK>
 VINA RESULT:      -7.5      4.628     10.914
  Name = 
  12 active torsions:
  status: ('A' for Active; 'I' for Inactive)
    1  A    between atoms: N_6  and  C_19
    2  A    between atoms: C_8  and  C_21
    3  A    between atoms: C_11  and  C_47
    4  A    between atoms: C_12  and  C_15
    5  A    between atoms: C_15  and  C_45
    6  A    between atoms: C_18  and  C_29
    7  A    between atoms: C_19  and  C_41
    8  A    between atoms: C_20  and  C_21
    9  A    between atoms: C_20  and  N_30
   10  A    between atoms: C_23  and  C_25
   11  A    between atoms: N_33  and  C_34
   12  A    between atoms: N_33  and  C_49
                            x       y       z     vdW  Elec       q    Type
                         _______ _______ _______ _____ _____    ______ ____

>  <TORSDO>
F 12

$$$$
=
 OpenBabel11032419573D

 52 57  0  0  1  0  0  0  0  0999 V2000
  185.9900  175.7610  136.7760 C   0  0  0  0  0  0  0  0  0  0  0  0
  184.8750  172.6560  134.9970 C   0  0  0  0  0  2  0  0  0  0  0  0
  185.2410  178.9850  138.7460 C   0  0  0  0  0  1  0  0  0  0  0  0
  183.3940  173.0410  137.0080 C   0  0  1  0  0  3  0  0  0  0  0  0
  184.1830  172.0060  136.1920 C   0  0  1  0  0  3  0  0  0  0  0  0
  185.7430  176.5720  138.0200 C   0  0  0  0  0  2  0  0  0  0  0  0
  184.3520  174.0870  137.5840 C   0  0  0  0  0  2  0  0  0  0  0  0
  185.6850  173.7890  135.4330 N   0  0  0  0  0  2  0  0  0  0  0  0
  187.0660  177.7100  135.7170 C   0  0  0  0  0  0  0  0  0  0  0  0
  185.8250  178.0480  137.7520 C   0  0  0  0  0  0  0  0  0  0  0  0
  185.3410  174.6050  136.5650 C   0  0  0  0  0  0  0  0  0  0  0  0
  187.0720  176.2120  135.8380 C   0  0  1  0  0  3  0  0  0  0  0  0
  186.4510  178.5280  136.7190 N   0  0  0  0  0  0  0  0  0  0  0  0
  187.6090  178.2560  134.7210 O   0  0  0  0  0  0  0  0  0  0  0  0
  180.9940  173.5510  136.4710 C   0  0  0  0  0  3  0  0  0  0  0  0
  182.3000  173.7030  136.2100 C   0  0  0  0  0  3  0  0  0  0  0  0
  180.4580  172.6960  137.5840 C   0  0  0  0  0  2  0  0  0  0  0  0
  179.2750  173.3540  138.2790 C   0  0  0  0  0  2  0  0  0  0  0  0
  179.7650  174.0270  140.9850 O   0  0  0  0  0  0  0  0  0  0  0  0
  179.8460  174.9590  140.1400 C   0  0  0  0  0  0  0  0  0  0  0  0
  179.6410  174.6810  138.7540 N   0  0  0  0  0  2  0  0  0  0  0  0
  178.9430  179.2390  142.7390 S   0  0  0  0  0  0  0  0  0  0  0  0
  179.3050  176.9750  141.4540 N   0  0  0  0  0  0  0  0  0  0  0  0
  181.2600  177.0840  140.2130 C   0  0  1  0  0  3  0  0  0  0  0  0
  181.1780  178.5860  140.9630 S   0  0  0  0  0  0  0  0  0  0  0  0
  180.1460  176.3290  140.6000 C   0  0  0  0  0  0  0  0  0  0  0  0
  182.3540  176.6770  139.2880 C   0  0  0  0  0  1  0  0  0  0  0  0
  179.7400  178.2200  141.7430 C   0  0  0  0  0  0  0  0  0  0  0  0
  183.3590  170.7820  135.7980 C   0  0  0  0  0  2  0  0  0  0  0  0
  184.1440  169.6280  135.7750 O   0  0  0  0  0  1  0  0  0  0  0  0
  188.4220  175.7030  136.3330 C   0  0  0  0  0  2  0  0  0  0  0  0
  189.4770  176.6870  136.0860 N   0  0  0  0  0  0  0  0  0  0  0  0
  190.5050  176.7250  137.1210 C   0  0  2  0  0  3  0  0  0  0  0  0
  190.6740  175.9950  135.9850 O   0  0  0  0  0  0  0  0  0  0  0  0
  190.3210  175.7650  138.3030 C   0  0  0  0  0  2  0  0  0  0  0  0
  191.0480  177.3580  141.6580 C   0  0  0  0  0  0  0  0  0  0  0  0
  188.9180  177.1490  139.8600 C   0  0  0  0  0  3  0  0  0  0  0  0
  192.0950  177.4580  142.5140 F   0  0  0  0  0  0  0  0  0  0  0  0
  191.1980  176.6300  140.4730 C   0  0  0  0  0  3  0  0  0  0  0  0
  188.7660  177.8710  141.0470 C   0  0  0  0  0  3  0  0  0  0  0  0
  190.1340  176.5170  139.5770 C   0  0  0  0  0  0  0  0  0  0  0  0
  189.8300  177.9850  141.9540 C   0  0  0  0  0  0  0  0  0  0  0  0
  189.7000  178.7150  143.1850 N   0  0  0  0  0  2  0  0  0  0  0  0
  188.3780  176.9270  147.4420 C   0  0  0  0  0  3  0  0  0  0  0  0
  187.5310  176.2670  144.1090 O   0  0  0  0  0  0  0  0  0  0  0  0
  186.7090  178.5790  144.2650 O   0  0  0  0  0  0  0  0  0  0  0  0
  190.6680  177.3950  146.4820 C   0  0  0  0  0  2  0  0  0  0  0  0
  189.3280  178.2100  144.4750 C   0  0  1  0  0  3  0  0  0  0  0  0
  189.7750  176.3970  147.1570 C   0  0  0  0  0  2  0  0  0  0  0  0
  187.7190  177.5950  144.7880 S   0  0  0  0  0  0  0  0  0  0  0  0
  190.1710  177.8900  145.3980 C   0  0  0  0  0  2  0  0  0  0  0  0
  187.4810  177.4110  146.5480 C   0  0  0  0  0  3  0  0  0  0  0  0
  1  6  1  0  0  0  0
  2  8  1  0  0  0  0
  2  5  1  0  0  0  0
  4 16  1  6  0  0  0
  4  7  1  0  0  0  0
  5 29  1  6  0  0  0
  5  4  1  0  0  0  0
  8 11  1  0  0  0  0
  9 12  1  0  0  0  0
  9 13  1  0  0  0  0
 10  6  1  0  0  0  0
 10  3  1  0  0  0  0
 11  1  2  0  0  0  0
 11  7  1  0  0  0  0
 12 31  1  1  0  0  0
 12  1  1  0  0  0  0
 13 10  2  0  0  0  0
 14  9  2  0  0  0  0
 15 17  1  0  0  0  0
 16 15  2  0  0  0  0
 17 18  1  0  0  0  0
 18 21  1  0  0  0  0
 20 26  1  0  0  0  0
 20 19  2  0  0  0  0
 21 20  1  0  0  0  0
 23 28  1  0  0  0  0
 24 27  1  6  0  0  0
 24 26  1  0  0  0  0
 24 25  1  0  0  0  0
 25 28  1  0  0  0  0
 26 23  2  0  0  0  0
 28 22  2  0  0  0  0
 30 29  1  0  0  0  0
 32 31  1  0  0  0  0
 32 33  1  0  0  0  0
 33 35  1  1  0  0  0
 34 32  1  0  0  0  0
 34 33  1  0  0  0  0
 35 41  1  0  0  0  0
 36 42  1  0  0  0  0
 36 38  1  0  0  0  0
 37 40  1  0  0  0  0
 39 36  2  0  0  0  0
 40 42  2  0  0  0  0
 41 37  2  0  0  0  0
 41 39  1  0  0  0  0
 42 43  1  0  0  0  0
 45 50  2  0  0  0  0
 46 50  2  0  0  0  0
 47 49  1  0  0  0  0
 48 43  1  6  0  0  0
 48 50  1  0  0  0  0
 48 51  1  0  0  0  0
 49 44  1  0  0  0  0
 50 52  1  0  0  0  0
 51 47  1  0  0  0  0
 52 44  2  0  0  0  0
M  END
>  <MODEL>
4

>  <REMARK>
 VINA RESULT:      -7.4      4.558      9.072
  Name = 
  12 active torsions:
  status: ('A' for Active; 'I' for Inactive)
    1  A    between atoms: N_6  and  C_19
    2  A    between atoms: C_8  and  C_21
    3  A    between atoms: C_11  and  C_47
    4  A    between atoms: C_12  and  C_15
    5  A    between atoms: C_15  and  C_45
    6  A    between atoms: C_18  and  C_29
    7  A    between atoms: C_19  and  C_41
    8  A    between atoms: C_20  and  C_21
    9  A    between atoms: C_20  and  N_30
   10  A    between atoms: C_23  and  C_25
   11  A    between atoms: N_33  and  C_34
   12  A    between atoms: N_33  and  C_49
                            x       y       z     vdW  Elec       q    Type
                         _______ _______ _______ _____ _____    ______ ____

>  <TORSDO>
F 12

$$$$
=
 OpenBabel11032419573D

 52 57  0  0  1  0  0  0  0  0999 V2000
  189.4100  177.5550  145.3990 C   0  0  0  0  0  0  0  0  0  0  0  0
  187.5280  177.6130  142.1580 C   0  0  0  0  0  2  0  0  0  0  0  0
  192.5040  176.6260  147.4980 C   0  0  0  0  0  1  0  0  0  0  0  0
  189.9870  177.9700  141.6990 C   0  0  1  0  0  3  0  0  0  0  0  0
  188.5560  178.4210  141.3710 C   0  0  1  0  0  3  0  0  0  0  0  0
  190.7790  177.7810  145.9830 C   0  0  0  0  0  2  0  0  0  0  0  0
  190.2840  178.2250  143.1790 C   0  0  0  0  0  2  0  0  0  0  0  0
  187.8350  177.6530  143.5840 N   0  0  0  0  0  2  0  0  0  0  0  0
  188.7610  176.2840  147.4090 C   0  0  0  0  0  0  0  0  0  0  0  0
  191.0890  176.8030  147.0810 C   0  0  0  0  0  0  0  0  0  0  0  0
  189.1750  177.7550  144.0920 C   0  0  0  0  0  0  0  0  0  0  0  0
  188.2850  177.2220  146.3360 C   0  0  1  0  0  3  0  0  0  0  0  0
  190.1540  176.1650  147.7200 N   0  0  0  0  0  0  0  0  0  0  0  0
  187.9240  175.5920  148.0460 O   0  0  0  0  0  0  0  0  0  0  0  0
  190.9350  176.1380  140.2680 C   0  0  0  0  0  3  0  0  0  0  0  0
  190.2410  176.5270  141.3460 C   0  0  0  0  0  3  0  0  0  0  0  0
  191.5400  177.0880  139.2740 C   0  0  0  0  0  2  0  0  0  0  0  0
  191.5370  176.5080  137.8670 C   0  0  0  0  0  2  0  0  0  0  0  0
  194.1950  176.6770  136.9040 O   0  0  0  0  0  0  0  0  0  0  0  0
  193.7850  175.5380  137.2560 C   0  0  0  0  0  0  0  0  0  0  0  0
  192.4640  175.3880  137.7800 N   0  0  0  0  0  2  0  0  0  0  0  0
  195.7480  171.5170  134.8330 S   0  0  0  0  0  0  0  0  0  0  0  0
  194.6670  173.6220  135.9760 N   0  0  0  0  0  0  0  0  0  0  0  0
  195.5760  173.9190  138.0880 C   0  0  1  0  0  3  0  0  0  0  0  0
  196.3630  172.5550  137.5020 S   0  0  0  0  0  0  0  0  0  0  0  0
  194.6790  174.3720  137.1130 C   0  0  0  0  0  0  0  0  0  0  0  0
  195.8210  174.5040  139.4360 C   0  0  0  0  0  1  0  0  0  0  0  0
  195.5380  172.5930  136.0430 C   0  0  0  0  0  0  0  0  0  0  0  0
  188.2550  178.4540  139.8740 C   0  0  0  0  0  2  0  0  0  0  0  0
  186.8900  178.6250  139.6350 O   0  0  0  0  0  1  0  0  0  0  0  0
  187.7230  178.5070  146.9350 C   0  0  0  0  0  2  0  0  0  0  0  0
  186.4430  178.2610  147.5990 N   0  0  0  0  0  0  0  0  0  0  0  0
  185.2940  178.8260  146.9000 C   0  0  2  0  0  3  0  0  0  0  0  0
  185.6560  177.5270  146.7250 O   0  0  0  0  0  0  0  0  0  0  0  0
  185.5930  179.6010  145.6100 C   0  0  0  0  0  2  0  0  0  0  0  0
  182.3220  178.7380  143.9140 C   0  0  0  0  0  0  0  0  0  0  0  0
  184.9730  179.2610  143.2000 C   0  0  0  0  0  3  0  0  0  0  0  0
  181.0370  178.4970  144.2770 F   0  0  0  0  0  0  0  0  0  0  0  0
  183.2720  179.0180  144.9000 C   0  0  0  0  0  3  0  0  0  0  0  0
  184.0240  178.9760  142.2140 C   0  0  0  0  0  3  0  0  0  0  0  0
  184.5990  179.2720  144.5480 C   0  0  0  0  0  0  0  0  0  0  0  0
  182.6900  178.7150  142.5620 C   0  0  0  0  0  0  0  0  0  0  0  0
  181.6950  178.4120  141.5700 N   0  0  0  0  0  2  0  0  0  0  0  0
  182.4550  177.4750  136.9210 C   0  0  0  0  0  3  0  0  0  0  0  0
  183.4080  180.0280  139.1200 O   0  0  0  0  0  0  0  0  0  0  0  0
  180.9740  180.3690  139.1660 O   0  0  0  0  0  0  0  0  0  0  0  0
  182.6780  176.0050  138.9640 C   0  0  0  0  0  2  0  0  0  0  0  0
  181.8970  178.1000  140.1850 C   0  0  1  0  0  3  0  0  0  0  0  0
  183.3280  176.5140  137.7120 C   0  0  0  0  0  2  0  0  0  0  0  0
  182.0700  179.3570  138.9790 S   0  0  0  0  0  0  0  0  0  0  0  0
  182.2550  176.9390  139.7480 C   0  0  0  0  0  2  0  0  0  0  0  0
  181.9220  178.6470  137.3480 C   0  0  0  0  0  3  0  0  0  0  0  0
  1  6  1  0  0  0  0
  1 12  1  0  0  0  0
  2  8  1  0  0  0  0
  4 16  1  1  0  0  0
  4  7  1  0  0  0  0
  5 29  1  6  0  0  0
  5  4  1  0  0  0  0
  5  2  1  0  0  0  0
  6 10  1  0  0  0  0
  7 11  1  0  0  0  0
  8 11  1  0  0  0  0
  9 13  1  0  0  0  0
  9 14  2  0  0  0  0
 10  3  1  0  0  0  0
 10 13  2  0  0  0  0
 11  1  2  0  0  0  0
 12 31  1  1  0  0  0
 12  9  1  0  0  0  0
 15 16  2  0  0  0  0
 17 15  1  0  0  0  0
 18 17  1  0  0  0  0
 19 20  2  0  0  0  0
 20 21  1  0  0  0  0
 21 18  1  0  0  0  0
 22 28  2  0  0  0  0
 23 28  1  0  0  0  0
 23 26  2  0  0  0  0
 24 27  1  1  0  0  0
 25 24  1  0  0  0  0
 26 20  1  0  0  0  0
 26 24  1  0  0  0  0
 28 25  1  0  0  0  0
 30 29  1  0  0  0  0
 31 32  1  0  0  0  0
 33 35  1  6  0  0  0
 33 32  1  0  0  0  0
 34 33  1  0  0  0  0
 34 32  1  0  0  0  0
 36 38  1  0  0  0  0
 36 39  1  0  0  0  0
 37 41  1  0  0  0  0
 40 42  1  0  0  0  0
 40 37  2  0  0  0  0
 41 39  2  0  0  0  0
 41 35  1  0  0  0  0
 42 36  2  0  0  0  0
 43 42  1  0  0  0  0
 44 52  2  0  0  0  0
 44 49  1  0  0  0  0
 47 51  1  0  0  0  0
 48 43  1  1  0  0  0
 49 47  1  0  0  0  0
 50 45  2  0  0  0  0
 50 46  2  0  0  0  0
 50 48  1  0  0  0  0
 51 48  1  0  0  0  0
 52 50  1  0  0  0  0
M  END
>  <MODEL>
5

>  <REMARK>
 VINA RESULT:      -7.4      3.590     11.000
  Name = 
  12 active torsions:
  status: ('A' for Active; 'I' for Inactive)
    1  A    between atoms: N_6  and  C_19
    2  A    between atoms: C_8  and  C_21
    3  A    between atoms: C_11  and  C_47
    4  A    between atoms: C_12  and  C_15
    5  A    between atoms: C_15  and  C_45
    6  A    between atoms: C_18  and  C_29
    7  A    between atoms: C_19  and  C_41
    8  A    between atoms: C_20  and  C_21
    9  A    between atoms: C_20  and  N_30
   10  A    between atoms: C_23  and  C_25
   11  A    between atoms: N_33  and  C_34
   12  A    between atoms: N_33  and  C_49
                            x       y       z     vdW  Elec       q    Type
                         _______ _______ _______ _____ _____    ______ ____

>  <TORSDO>
F 12

$$$$
=
 OpenBabel11032419573D

 52 57  0  0  1  0  0  0  0  0999 V2000
  189.4230  177.5360  145.4160 C   0  0  0  0  0  0  0  0  0  0  0  0
  187.5500  177.6180  142.1700 C   0  0  0  0  0  2  0  0  0  0  0  0
  192.4850  176.5420  147.5300 C   0  0  0  0  0  1  0  0  0  0  0  0
  190.0190  177.9020  141.7130 C   0  0  1  0  0  3  0  0  0  0  0  0
  188.6020  178.3890  141.3780 C   0  0  1  0  0  3  0  0  0  0  0  0
  190.7970  177.7300  146.0000 C   0  0  0  0  0  2  0  0  0  0  0  0
  190.3200  178.1620  143.1920 C   0  0  0  0  0  2  0  0  0  0  0  0
  187.8550  177.6610  143.5960 N   0  0  0  0  0  2  0  0  0  0  0  0
  188.7350  176.3020  147.4350 C   0  0  0  0  0  0  0  0  0  0  0  0
  191.0770  176.7540  147.1080 C   0  0  0  0  0  0  0  0  0  0  0  0
  189.1960  177.7310  144.1070 C   0  0  0  0  0  0  0  0  0  0  0  0
  188.2870  177.2430  146.3530 C   0  0  1  0  0  3  0  0  0  0  0  0
  190.1240  176.1480  147.7510 N   0  0  0  0  0  0  0  0  0  0  0  0
  187.8780  175.6390  148.0770 O   0  0  0  0  0  0  0  0  0  0  0  0
  190.9060  176.0320  140.2920 C   0  0  0  0  0  3  0  0  0  0  0  0
  190.2340  176.4490  141.3740 C   0  0  0  0  0  3  0  0  0  0  0  0
  191.5220  176.9560  139.2810 C   0  0  0  0  0  2  0  0  0  0  0  0
  190.9870  176.6950  137.8800 C   0  0  0  0  0  2  0  0  0  0  0  0
  189.5160  175.5640  135.7420 O   0  0  0  0  0  0  0  0  0  0  0  0
  188.8850  175.8020  136.8080 C   0  0  0  0  0  0  0  0  0  0  0  0
  189.5750  176.3440  137.9360 N   0  0  0  0  0  2  0  0  0  0  0  0
  184.7960  172.8640  137.5390 S   0  0  0  0  0  0  0  0  0  0  0  0
  186.9830  174.2820  137.2020 N   0  0  0  0  0  0  0  0  0  0  0  0
  186.4240  176.4470  136.5890 C   0  0  1  0  0  3  0  0  0  0  0  0
  184.9370  175.6850  136.7650 S   0  0  0  0  0  0  0  0  0  0  0  0
  187.4370  175.5220  136.8700 C   0  0  0  0  0  0  0  0  0  0  0  0
  186.5840  177.8730  136.1870 C   0  0  0  0  0  1  0  0  0  0  0  0
  185.6350  174.2200  137.1870 C   0  0  0  0  0  0  0  0  0  0  0  0
  188.3040  178.4170  139.8800 C   0  0  0  0  0  2  0  0  0  0  0  0
  186.9460  178.6260  139.6370 O   0  0  0  0  0  1  0  0  0  0  0  0
  187.7590  178.5490  146.9390 C   0  0  0  0  0  2  0  0  0  0  0  0
  186.4540  178.3510  147.5690 N   0  0  0  0  0  0  0  0  0  0  0  0
  185.3300  178.8040  146.7560 C   0  0  2  0  0  3  0  0  0  0  0  0
  185.7240  177.5020  146.7520 O   0  0  0  0  0  0  0  0  0  0  0  0
  185.6760  179.4300  145.3980 C   0  0  0  0  0  2  0  0  0  0  0  0
  182.2450  178.8030  143.9310 C   0  0  0  0  0  0  0  0  0  0  0  0
  184.8640  179.1890  143.0340 C   0  0  0  0  0  3  0  0  0  0  0  0
  180.9780  178.6280  144.3830 F   0  0  0  0  0  0  0  0  0  0  0  0
  183.2790  179.0010  144.8510 C   0  0  0  0  0  3  0  0  0  0  0  0
  183.8300  178.9850  142.1160 C   0  0  0  0  0  3  0  0  0  0  0  0
  184.5900  179.1870  144.4060 C   0  0  0  0  0  0  0  0  0  0  0  0
  182.5120  178.7940  142.5560 C   0  0  0  0  0  0  0  0  0  0  0  0
  181.4310  178.5740  141.6350 N   0  0  0  0  0  2  0  0  0  0  0  0
  181.2630  179.3730  136.9010 C   0  0  0  0  0  3  0  0  0  0  0  0
  180.1020  176.8450  139.0280 O   0  0  0  0  0  0  0  0  0  0  0  0
  182.5180  176.5830  139.4010 O   0  0  0  0  0  0  0  0  0  0  0  0
  180.7310  180.8850  138.8550 C   0  0  0  0  0  2  0  0  0  0  0  0
  181.4040  178.8460  140.2260 C   0  0  1  0  0  3  0  0  0  0  0  0
  180.2660  180.3250  137.5440 C   0  0  0  0  0  2  0  0  0  0  0  0
  181.4270  177.5550  139.0440 S   0  0  0  0  0  0  0  0  0  0  0  0
  181.0740  179.9830  139.7140 C   0  0  0  0  0  2  0  0  0  0  0  0
  181.7680  178.2300  137.4270 C   0  0  0  0  0  3  0  0  0  0  0  0
  1  6  1  0  0  0  0
  1 12  1  0  0  0  0
  2  8  1  0  0  0  0
  4 16  1  1  0  0  0
  4  7  1  0  0  0  0
  5 29  1  6  0  0  0
  5  4  1  0  0  0  0
  5  2  1  0  0  0  0
  6 10  1  0  0  0  0
  7 11  1  0  0  0  0
  8 11  1  0  0  0  0
  9 13  1  0  0  0  0
  9 14  2  0  0  0  0
 10  3  1  0  0  0  0
 10 13  2  0  0  0  0
 11  1  2  0  0  0  0
 12 31  1  1  0  0  0
 12  9  1  0  0  0  0
 15 16  2  0  0  0  0
 17 15  1  0  0  0  0
 18 21  1  0  0  0  0
 18 17  1  0  0  0  0
 19 20  2  0  0  0  0
 20 26  1  0  0  0  0
 20 21  1  0  0  0  0
 24 27  1  6  0  0  0
 24 25  1  0  0  0  0
 24 26  1  0  0  0  0
 25 28  1  0  0  0  0
 26 23  2  0  0  0  0
 28 23  1  0  0  0  0
 28 22  2  0  0  0  0
 30 29  1  0  0  0  0
 31 32  1  0  0  0  0
 33 35  1  6  0  0  0
 33 32  1  0  0  0  0
 34 33  1  0  0  0  0
 34 32  1  0  0  0  0
 36 38  1  0  0  0  0
 36 39  1  0  0  0  0
 37 41  1  0  0  0  0
 40 42  1  0  0  0  0
 40 37  2  0  0  0  0
 41 39  2  0  0  0  0
 41 35  1  0  0  0  0
 42 36  2  0  0  0  0
 43 42  1  0  0  0  0
 44 52  2  0  0  0  0
 44 49  1  0  0  0  0
 45 50  2  0  0  0  0
 47 51  1  0  0  0  0
 48 43  1  1  0  0  0
 49 47  1  0  0  0  0
 50 46  2  0  0  0  0
 50 48  1  0  0  0  0
 51 48  1  0  0  0  0
 52 50  1  0  0  0  0
M  END
>  <MODEL>
6

>  <REMARK>
 VINA RESULT:      -7.3      4.802     11.189
  Name = 
  12 active torsions:
  status: ('A' for Active; 'I' for Inactive)
    1  A    between atoms: N_6  and  C_19
    2  A    between atoms: C_8  and  C_21
    3  A    between atoms: C_11  and  C_47
    4  A    between atoms: C_12  and  C_15
    5  A    between atoms: C_15  and  C_45
    6  A    between atoms: C_18  and  C_29
    7  A    between atoms: C_19  and  C_41
    8  A    between atoms: C_20  and  C_21
    9  A    between atoms: C_20  and  N_30
   10  A    between atoms: C_23  and  C_25
   11  A    between atoms: N_33  and  C_34
   12  A    between atoms: N_33  and  C_49
                            x       y       z     vdW  Elec       q    Type
                         _______ _______ _______ _____ _____    ______ ____

>  <TORSDO>
F 12

$$$$
=
 OpenBabel11032419573D

 52 57  0  0  1  0  0  0  0  0999 V2000
  191.7030  175.9050  137.6100 C   0  0  0  0  0  0  0  0  0  0  0  0
  189.3520  178.5000  138.9460 C   0  0  0  0  0  2  0  0  0  0  0  0
  194.6870  173.5050  138.0310 C   0  0  0  0  0  1  0  0  0  0  0  0
  189.8620  176.8230  140.7670 C   0  0  1  0  0  3  0  0  0  0  0  0
  188.7700  177.6490  140.0710 C   0  0  1  0  0  3  0  0  0  0  0  0
  192.3630  174.6000  137.9700 C   0  0  0  0  0  2  0  0  0  0  0  0
  190.4860  175.8450  139.7680 C   0  0  0  0  0  2  0  0  0  0  0  0
  190.1220  177.6690  138.0270 N   0  0  0  0  0  2  0  0  0  0  0  0
  193.3810  176.2670  135.8410 C   0  0  0  0  0  0  0  0  0  0  0  0
  193.7730  174.5250  137.4550 C   0  0  0  0  0  0  0  0  0  0  0  0
  190.8320  176.4920  138.4460 C   0  0  0  0  0  0  0  0  0  0  0  0
  191.9460  176.4690  136.2400 C   0  0  1  0  0  3  0  0  0  0  0  0
  194.1910  175.2720  136.4770 N   0  0  0  0  0  0  0  0  0  0  0  0
  193.8800  176.9830  134.9330 O   0  0  0  0  0  0  0  0  0  0  0  0
  191.5490  177.3560  142.5480 C   0  0  0  0  0  3  0  0  0  0  0  0
  190.9240  177.6790  141.4070 C   0  0  0  0  0  3  0  0  0  0  0  0
  191.2650  176.1080  143.3330 C   0  0  0  0  0  2  0  0  0  0  0  0
  191.1880  176.3880  144.8270 C   0  0  0  0  0  2  0  0  0  0  0  0
  189.9950  178.9370  145.1370 O   0  0  0  0  0  0  0  0  0  0  0  0
  189.2760  177.9340  145.3940 C   0  0  0  0  0  0  0  0  0  0  0  0
  189.8070  176.6180  145.2280 N   0  0  0  0  0  2  0  0  0  0  0  0
  184.2740  178.6640  144.8170 S   0  0  0  0  0  0  0  0  0  0  0  0
  186.8670  178.2710  144.9860 N   0  0  0  0  0  0  0  0  0  0  0  0
  187.5090  178.2310  147.2130 C   0  0  1  0  0  3  0  0  0  0  0  0
  185.8490  178.4850  147.2800 S   0  0  0  0  0  0  0  0  0  0  0  0
  187.8940  178.1370  145.8700 C   0  0  0  0  0  0  0  0  0  0  0  0
  188.3830  178.1400  148.4160 C   0  0  0  0  0  1  0  0  0  0  0  0
  185.6870  178.4670  145.6110 C   0  0  0  0  0  0  0  0  0  0  0  0
  187.9110  178.4620  141.0380 C   0  0  0  0  0  2  0  0  0  0  0  0
  187.3790  177.6560  142.0450 O   0  0  0  0  0  1  0  0  0  0  0  0
  190.9980  175.8120  135.2420 C   0  0  0  0  0  2  0  0  0  0  0  0
  190.1460  176.8100  134.5940 N   0  0  0  0  0  0  0  0  0  0  0  0
  188.7170  176.5580  134.7470 C   0  0  2  0  0  3  0  0  0  0  0  0
  189.3780  177.4050  135.5820 O   0  0  0  0  0  0  0  0  0  0  0  0
  188.3260  175.2980  135.5300 C   0  0  0  0  0  2  0  0  0  0  0  0
  185.1300  174.4850  137.3870 C   0  0  0  0  0  0  0  0  0  0  0  0
  186.2150  176.6020  135.9190 C   0  0  0  0  0  3  0  0  0  0  0  0
  184.6220  173.4520  138.1050 F   0  0  0  0  0  0  0  0  0  0  0  0
  186.4070  174.3710  136.8290 C   0  0  0  0  0  3  0  0  0  0  0  0
  184.9360  176.7140  136.4710 C   0  0  0  0  0  3  0  0  0  0  0  0
  186.9490  175.4230  136.0890 C   0  0  0  0  0  0  0  0  0  0  0  0
  184.3840  175.6590  137.2120 C   0  0  0  0  0  0  0  0  0  0  0  0
  183.0680  175.7430  137.7850 N   0  0  0  0  0  2  0  0  0  0  0  0
  181.2980  178.9620  140.8790 C   0  0  0  0  0  3  0  0  0  0  0  0
  180.6260  175.6060  140.1440 O   0  0  0  0  0  0  0  0  0  0  0  0
  180.0100  176.6040  137.9830 O   0  0  0  0  0  0  0  0  0  0  0  0
  183.6830  178.3180  140.3430 C   0  0  0  0  0  2  0  0  0  0  0  0
  182.5640  176.7330  138.6920 C   0  0  1  0  0  3  0  0  0  0  0  0
  182.6570  178.5370  141.4150 C   0  0  0  0  0  2  0  0  0  0  0  0
  180.8870  176.7430  139.1960 S   0  0  0  0  0  0  0  0  0  0  0  0
  183.3080  177.4900  139.4250 C   0  0  0  0  0  2  0  0  0  0  0  0
  180.5130  178.2930  139.9990 C   0  0  0  0  0  3  0  0  0  0  0  0
  1  6  1  0  0  0  0
  1 11  2  0  0  0  0
  2  5  1  0  0  0  0
  4 16  1  6  0  0  0
  5  4  1  0  0  0  0
  5 29  1  1  0  0  0
  7  4  1  0  0  0  0
  8 11  1  0  0  0  0
  8  2  1  0  0  0  0
  9 12  1  0  0  0  0
  9 13  1  0  0  0  0
 10  6  1  0  0  0  0
 10  3  1  0  0  0  0
 11  7  1  0  0  0  0
 12 31  1  6  0  0  0
 12  1  1  0  0  0  0
 13 10  2  0  0  0  0
 14  9  2  0  0  0  0
 15 17  1  0  0  0  0
 16 15  2  0  0  0  0
 17 18  1  0  0  0  0
 18 21  1  0  0  0  0
 19 20  2  0  0  0  0
 20 26  1  0  0  0  0
 21 20  1  0  0  0  0
 22 28  2  0  0  0  0
 23 28  1  0  0  0  0
 23 26  2  0  0  0  0
 24 25  1  0  0  0  0
 24 27  1  6  0  0  0
 26 24  1  0  0  0  0
 28 25  1  0  0  0  0
 29 30  1  0  0  0  0
 32 33  1  0  0  0  0
 32 31  1  0  0  0  0
 32 34  1  0  0  0  0
 33 35  1  1  0  0  0
 33 34  1  0  0  0  0
 35 41  1  0  0  0  0
 36 38  1  0  0  0  0
 37 41  2  0  0  0  0
 37 40  1  0  0  0  0
 39 36  2  0  0  0  0
 40 42  2  0  0  0  0
 41 39  1  0  0  0  0
 42 36  1  0  0  0  0
 42 43  1  0  0  0  0
 44 49  1  0  0  0  0
 46 50  2  0  0  0  0
 47 49  1  0  0  0  0
 48 43  1  1  0  0  0
 48 50  1  0  0  0  0
 48 51  1  0  0  0  0
 50 52  1  0  0  0  0
 50 45  2  0  0  0  0
 51 47  1  0  0  0  0
 52 44  2  0  0  0  0
M  END
>  <MODEL>
7

>  <REMARK>
 VINA RESULT:      -7.1      3.513      8.574
  Name = 
  12 active torsions:
  status: ('A' for Active; 'I' for Inactive)
    1  A    between atoms: N_6  and  C_19
    2  A    between atoms: C_8  and  C_21
    3  A    between atoms: C_11  and  C_47
    4  A    between atoms: C_12  and  C_15
    5  A    between atoms: C_15  and  C_45
    6  A    between atoms: C_18  and  C_29
    7  A    between atoms: C_19  and  C_41
    8  A    between atoms: C_20  and  C_21
    9  A    between atoms: C_20  and  N_30
   10  A    between atoms: C_23  and  C_25
   11  A    between atoms: N_33  and  C_34
   12  A    between atoms: N_33  and  C_49
                            x       y       z     vdW  Elec       q    Type
                         _______ _______ _______ _____ _____    ______ ____

>  <TORSDO>
F 12

$$$$
=
 OpenBabel11032419573D

 52 57  0  0  1  0  0  0  0  0999 V2000
  184.8590  176.3620  137.1020 C   0  0  0  0  0  0  0  0  0  0  0  0
  188.2030  178.0550  137.0970 C   0  0  0  0  0  2  0  0  0  0  0  0
  182.5180  173.4940  136.0410 C   0  0  0  0  0  1  0  0  0  0  0  0
  188.5380  175.5510  137.1780 C   0  0  1  0  0  3  0  0  0  0  0  0
  188.9820  176.9100  137.7390 C   0  0  1  0  0  3  0  0  0  0  0  0
  184.2110  175.0100  137.2390 C   0  0  0  0  0  2  0  0  0  0  0  0
  187.0640  175.3090  137.5150 C   0  0  0  0  0  2  0  0  0  0  0  0
  186.7680  177.8220  137.2140 N   0  0  0  0  0  2  0  0  0  0  0  0
  182.8080  177.2420  136.0560 C   0  0  0  0  0  0  0  0  0  0  0  0
  183.0300  174.8600  136.3210 C   0  0  0  0  0  0  0  0  0  0  0  0
  186.1880  176.5070  137.2240 C   0  0  0  0  0  0  0  0  0  0  0  0
  183.9710  177.5630  136.9510 C   0  0  1  0  0  3  0  0  0  0  0  0
  182.4060  175.8860  135.8270 N   0  0  0  0  0  0  0  0  0  0  0  0
  182.1750  178.1770  135.4980 O   0  0  0  0  0  0  0  0  0  0  0  0
  189.6720  174.5920  135.1540 C   0  0  0  0  0  3  0  0  0  0  0  0
  188.7730  175.4260  135.6950 C   0  0  0  0  0  3  0  0  0  0  0  0
  190.5610  173.6850  135.9560 C   0  0  0  0  0  2  0  0  0  0  0  0
  191.8000  173.2740  135.1730 C   0  0  0  0  0  2  0  0  0  0  0  0
  194.1070  171.7210  135.7020 O   0  0  0  0  0  0  0  0  0  0  0  0
  194.1210  172.9200  136.0940 C   0  0  0  0  0  0  0  0  0  0  0  0
  193.0010  173.7670  135.8320 N   0  0  0  0  0  2  0  0  0  0  0  0
  196.5360  174.8810  140.1200 S   0  0  0  0  0  0  0  0  0  0  0  0
  195.1810  173.8580  138.1140 N   0  0  0  0  0  0  0  0  0  0  0  0
  196.5910  173.5340  136.3020 C   0  0  1  0  0  3  0  0  0  0  0  0
  197.5980  174.1810  137.4820 S   0  0  0  0  0  0  0  0  0  0  0  0
  195.2970  173.4270  136.8280 C   0  0  0  0  0  0  0  0  0  0  0  0
  197.0480  173.1630  134.9340 C   0  0  0  0  0  1  0  0  0  0  0  0
  196.3590  174.2990  138.6050 C   0  0  0  0  0  0  0  0  0  0  0  0
  190.4930  177.1270  137.6880 C   0  0  0  0  0  2  0  0  0  0  0  0
  191.1600  176.2630  138.5580 O   0  0  0  0  0  1  0  0  0  0  0  0
  183.4980  178.0240  138.3270 C   0  0  0  0  0  2  0  0  0  0  0  0
  183.0220  176.8940  139.1240 N   0  0  0  0  0  0  0  0  0  0  0  0
  182.9590  177.1650  140.5570 C   0  0  2  0  0  3  0  0  0  0  0  0
  181.8610  177.2980  139.7640 O   0  0  0  0  0  0  0  0  0  0  0  0
  183.4130  178.5590  141.0090 C   0  0  0  0  0  2  0  0  0  0  0  0
  184.4880  178.6260  144.6370 C   0  0  0  0  0  0  0  0  0  0  0  0
  185.6080  178.0870  142.1330 C   0  0  0  0  0  3  0  0  0  0  0  0
  183.9260  178.8810  145.8450 F   0  0  0  0  0  0  0  0  0  0  0  0
  183.7080  178.7330  143.4810 C   0  0  0  0  0  3  0  0  0  0  0  0
  186.3900  177.9860  143.2880 C   0  0  0  0  0  3  0  0  0  0  0  0
  184.2670  178.4720  142.2280 C   0  0  0  0  0  0  0  0  0  0  0  0
  185.8360  178.2510  144.5490 C   0  0  0  0  0  0  0  0  0  0  0  0
  186.6160  178.1620  145.7530 N   0  0  0  0  0  0  0  0  0  0  0  0
  191.2770  177.1120  146.2550 C   0  0  0  0  0  3  0  0  0  0  0  0
  188.3140  176.0030  147.7550 O   0  0  0  0  0  0  0  0  0  0  0  0
  188.2540  178.3530  148.4760 O   0  0  0  0  0  0  0  0  0  0  0  0
  189.8360  177.3040  144.1870 C   0  0  0  0  0  2  0  0  0  0  0  0
  188.0170  177.8780  145.8760 C   0  0  0  0  0  0  0  0  0  0  0  0
  190.8180  176.4700  144.9540 C   0  0  0  0  0  2  0  0  0  0  0  0
  188.7240  177.4060  147.4060 S   0  0  0  0  0  0  0  0  0  0  0  0
  188.8020  177.6560  144.8760 C   0  0  0  0  0  2  0  0  0  0  0  0
  190.5040  177.5030  147.2980 C   0  0  0  0  0  3  0  0  0  0  0  0
  1 11  2  0  0  0  0
  1  6  1  0  0  0  0
  2  8  1  0  0  0  0
  2  5  1  0  0  0  0
  3 10  1  0  0  0  0
  4 16  1  6  0  0  0
  4  7  1  0  0  0  0
  4  5  1  0  0  0  0
  5 29  1  6  0  0  0
  8 11  1  0  0  0  0
  9 12  1  0  0  0  0
 10  6  1  0  0  0  0
 11  7  1  0  0  0  0
 12  1  1  0  0  0  0
 12 31  1  1  0  0  0
 13  9  1  0  0  0  0
 13 10  2  0  0  0  0
 14  9  2  0  0  0  0
 15 16  2  0  0  0  0
 15 17  1  0  0  0  0
 18 21  1  0  0  0  0
 18 17  1  0  0  0  0
 19 20  2  0  0  0  0
 20 26  1  0  0  0  0
 21 20  1  0  0  0  0
 23 28  1  0  0  0  0
 24 27  1  6  0  0  0
 24 26  1  0  0  0  0
 24 25  1  0  0  0  0
 25 28  1  0  0  0  0
 26 23  2  0  0  0  0
 28 22  2  0  0  0  0
 29 30  1  0  0  0  0
 31 32  1  0  0  0  0
 32 34  1  0  0  0  0
 32 33  1  0  0  0  0
 33 35  1  6  0  0  0
 34 33  1  0  0  0  0
 35 41  1  0  0  0  0
 36 38  1  0  0  0  0
 37 41  2  0  0  0  0
 37 40  1  0  0  0  0
 39 36  2  0  0  0  0
 40 42  2  0  0  0  0
 41 39  1  0  0  0  0
 42 36  1  0  0  0  0
 42 43  1  0  0  0  0
 43 48  2  0  0  0  0
 44 52  2  0  0  0  0
 47 51  1  0  0  0  0
 47 49  1  0  0  0  0
 48 50  1  0  0  0  0
 49 44  1  0  0  0  0
 50 45  2  0  0  0  0
 50 46  2  0  0  0  0
 51 48  1  0  0  0  0
 52 50  1  0  0  0  0
M  END
>  <MODEL>
8

>  <REMARK>
 VINA RESULT:      -7.0      3.064     10.261
  Name = 
  12 active torsions:
  status: ('A' for Active; 'I' for Inactive)
    1  A    between atoms: N_6  and  C_19
    2  A    between atoms: C_8  and  C_21
    3  A    between atoms: C_11  and  C_47
    4  A    between atoms: C_12  and  C_15
    5  A    between atoms: C_15  and  C_45
    6  A    between atoms: C_18  and  C_29
    7  A    between atoms: C_19  and  C_41
    8  A    between atoms: C_20  and  C_21
    9  A    between atoms: C_20  and  N_30
   10  A    between atoms: C_23  and  C_25
   11  A    between atoms: N_33  and  C_34
   12  A    between atoms: N_33  and  C_49
                            x       y       z     vdW  Elec       q    Type
                         _______ _______ _______ _____ _____    ______ ____

>  <TORSDO>
F 12

$$$$
=
 OpenBabel11032419573D

 52 57  0  0  1  0  0  0  0  0999 V2000
  189.0450  177.6700  145.3170 C   0  0  0  0  0  0  0  0  0  0  0  0
  187.3360  177.4770  141.9870 C   0  0  0  0  0  2  0  0  0  0  0  0
  192.0770  177.0330  147.6060 C   0  0  0  0  0  1  0  0  0  0  0  0
  189.7880  177.9800  141.6370 C   0  0  1  0  0  3  0  0  0  0  0  0
  188.3500  178.3210  141.2190 C   0  0  1  0  0  3  0  0  0  0  0  0
  190.3640  178.0100  145.9590 C   0  0  0  0  0  2  0  0  0  0  0  0
  189.9890  178.3110  143.1180 C   0  0  0  0  0  2  0  0  0  0  0  0
  187.5640  177.5910  143.4240 N   0  0  0  0  0  2  0  0  0  0  0  0
  188.3750  176.4360  147.3440 C   0  0  0  0  0  0  0  0  0  0  0  0
  190.6780  177.0980  147.1110 C   0  0  0  0  0  0  0  0  0  0  0  0
  188.8660  177.8030  143.9940 C   0  0  0  0  0  0  0  0  0  0  0  0
  187.8960  177.2980  146.2100 C   0  0  1  0  0  3  0  0  0  0  0  0
  189.7550  176.4230  147.7290 N   0  0  0  0  0  0  0  0  0  0  0  0
  187.5530  175.7140  147.9670 O   0  0  0  0  0  0  0  0  0  0  0  0
  191.0400  176.1730  140.4240 C   0  0  0  0  0  3  0  0  0  0  0  0
  190.1540  176.5450  141.3580 C   0  0  0  0  0  3  0  0  0  0  0  0
  191.7730  177.1370  139.5350 C   0  0  0  0  0  2  0  0  0  0  0  0
  191.9350  176.5910  138.1240 C   0  0  0  0  0  2  0  0  0  0  0  0
  192.8590  174.5870  136.3500 O   0  0  0  0  0  0  0  0  0  0  0  0
  193.7340  175.2550  136.9650 C   0  0  0  0  0  0  0  0  0  0  0  0
  193.3360  176.3030  137.8510 N   0  0  0  0  0  2  0  0  0  0  0  0
  198.2250  175.5790  134.5960 S   0  0  0  0  0  0  0  0  0  0  0  0
  195.8600  175.5050  135.7400 N   0  0  0  0  0  0  0  0  0  0  0  0
  195.9090  174.0490  137.5430 C   0  0  1  0  0  3  0  0  0  0  0  0
  197.4740  173.9830  136.9330 S   0  0  0  0  0  0  0  0  0  0  0  0
  195.1610  174.9380  136.7610 C   0  0  0  0  0  0  0  0  0  0  0  0
  195.4420  173.2620  138.7190 C   0  0  0  0  0  1  0  0  0  0  0  0
  197.1400  175.0780  135.7090 C   0  0  0  0  0  0  0  0  0  0  0  0
  188.1260  178.2760  139.7090 C   0  0  0  0  0  2  0  0  0  0  0  0
  189.0520  179.0730  139.0350 O   0  0  0  0  0  1  0  0  0  0  0  0
  187.2200  178.5650  146.7260 C   0  0  0  0  0  2  0  0  0  0  0  0
  185.8730  178.2770  147.2170 N   0  0  0  0  0  0  0  0  0  0  0  0
  184.8100  178.6930  146.3080 C   0  0  2  0  0  3  0  0  0  0  0  0
  185.2760  177.4150  146.3100 O   0  0  0  0  0  0  0  0  0  0  0  0
  185.2520  179.3780  145.0080 C   0  0  0  0  0  2  0  0  0  0  0  0
  183.6450  179.0020  141.6020 C   0  0  0  0  0  0  0  0  0  0  0  0
  182.8630  179.0980  144.2840 C   0  0  0  0  0  3  0  0  0  0  0  0
  184.0420  178.9480  140.3060 F   0  0  0  0  0  0  0  0  0  0  0  0
  184.6020  179.1730  142.6070 C   0  0  0  0  0  3  0  0  0  0  0  0
  181.9050  178.9340  143.2800 C   0  0  0  0  0  3  0  0  0  0  0  0
  184.2140  179.2290  143.9470 C   0  0  0  0  0  0  0  0  0  0  0  0
  182.2870  178.8810  141.9310 C   0  0  0  0  0  0  0  0  0  0  0  0
  181.3240  178.7200  140.8770 N   0  0  0  0  0  2  0  0  0  0  0  0
  179.9600  174.5910  138.8360 C   0  0  0  0  0  3  0  0  0  0  0  0
  183.0370  176.0790  139.5960 O   0  0  0  0  0  0  0  0  0  0  0  0
  182.1990  177.7320  137.9800 O   0  0  0  0  0  0  0  0  0  0  0  0
  179.2000  175.7150  140.9690 C   0  0  0  0  0  2  0  0  0  0  0  0
  180.8780  177.5000  140.2700 C   0  0  1  0  0  3  0  0  0  0  0  0
  179.6970  174.4530  140.3280 C   0  0  0  0  0  2  0  0  0  0  0  0
  181.8050  176.7110  139.0110 S   0  0  0  0  0  0  0  0  0  0  0  0
  179.9610  176.7380  140.7630 C   0  0  0  0  0  2  0  0  0  0  0  0
  180.8030  175.4600  138.2250 C   0  0  0  0  0  3  0  0  0  0  0  0
  1  6  1  0  0  0  0
  1 12  1  0  0  0  0
  2  8  1  0  0  0  0
  4 16  1  1  0  0  0
  4  7  1  0  0  0  0
  5 29  1  6  0  0  0
  5  4  1  0  0  0  0
  5  2  1  0  0  0  0
  6 10  1  0  0  0  0
  7 11  1  0  0  0  0
  8 11  1  0  0  0  0
  9 13  1  0  0  0  0
  9 14  2  0  0  0  0
 10  3  1  0  0  0  0
 10 13  2  0  0  0  0
 11  1  2  0  0  0  0
 12 31  1  1  0  0  0
 12  9  1  0  0  0  0
 15 16  2  0  0  0  0
 17 15  1  0  0  0  0
 18 17  1  0  0  0  0
 19 20  2  0  0  0  0
 20 21  1  0  0  0  0
 21 18  1  0  0  0  0
 22 28  2  0  0  0  0
 23 26  2  0  0  0  0
 24 27  1  6  0  0  0
 25 24  1  0  0  0  0
 26 20  1  0  0  0  0
 26 24  1  0  0  0  0
 28 23  1  0  0  0  0
 28 25  1  0  0  0  0
 30 29  1  0  0  0  0
 31 32  1  0  0  0  0
 33 35  1  6  0  0  0
 33 34  1  0  0  0  0
 33 32  1  0  0  0  0
 34 32  1  0  0  0  0
 36 42  2  0  0  0  0
 36 39  1  0  0  0  0
 38 36  1  0  0  0  0
 39 41  2  0  0  0  0
 40 37  2  0  0  0  0
 41 37  1  0  0  0  0
 41 35  1  0  0  0  0
 42 40  1  0  0  0  0
 43 42  1  0  0  0  0
 44 49  1  0  0  0  0
 46 50  2  0  0  0  0
 48 51  1  0  0  0  0
 48 43  1  1  0  0  0
 49 47  1  0  0  0  0
 50 45  2  0  0  0  0
 50 48  1  0  0  0  0
 51 47  1  0  0  0  0
 52 44  2  0  0  0  0
 52 50  1  0  0  0  0
M  END
>  <MODEL>
9

>  <REMARK>
 VINA RESULT:      -7.0      3.507     11.252
  Name = 
  12 active torsions:
  status: ('A' for Active; 'I' for Inactive)
    1  A    between atoms: N_6  and  C_19
    2  A    between atoms: C_8  and  C_21
    3  A    between atoms: C_11  and  C_47
    4  A    between atoms: C_12  and  C_15
    5  A    between atoms: C_15  and  C_45
    6  A    between atoms: C_18  and  C_29
    7  A    between atoms: C_19  and  C_41
    8  A    between atoms: C_20  and  C_21
    9  A    between atoms: C_20  and  N_30
   10  A    between atoms: C_23  and  C_25
   11  A    between atoms: N_33  and  C_34
   12  A    between atoms: N_33  and  C_49
                            x       y       z     vdW  Elec       q    Type
                         _______ _______ _______ _____ _____    ______ ____

>  <TORSDO>
F 12

$$$$
