=
 OpenBabel11032419403D

 49 51  0  0  1  0  0  0  0  0999 V2000
  184.4500  178.9450  139.6890 C   0  0  2  0  0  3  0  0  0  0  0  0
  184.0740  181.0470  138.6930 O   0  0  0  0  0  0  0  0  0  0  0  0
  183.5710  179.9850  139.0340 C   0  0  0  0  0  0  0  0  0  0  0  0
  182.1270  179.7170  138.7170 C   0  0  0  0  0  2  0  0  0  0  0  0
  181.1890  180.4090  139.7010 C   0  0  0  0  0  2  0  0  0  0  0  0
  180.7760  179.4920  140.7520 N   0  0  0  0  0  2  0  0  0  0  0  0
  180.0280  179.9210  141.8970 C   0  0  0  0  0  0  0  0  0  0  0  0
  179.6550  181.1070  142.0060 O   0  0  0  0  0  0  0  0  0  0  0  0
  179.7340  179.0150  142.9120 O   0  0  0  0  0  1  0  0  0  0  0  0
  183.8500  177.5700  139.5570 C   0  0  0  0  0  0  0  0  0  0  0  0
  183.2520  177.0670  140.5560 O   0  0  0  0  0  0  0  0  0  0  0  0
  183.8970  176.8540  138.3510 O   0  0  0  0  0  0  0  0  0  0  0  0
  184.7530  177.1610  137.2500 C   0  0  2  0  0  3  0  0  0  0  0  0
  184.3370  176.3650  136.0190 C   0  0  0  0  0  1  0  0  0  0  0  0
  186.9860  178.9850  137.1840 O   0  0  0  0  0  0  0  0  0  0  0  0
  186.1390  176.8490  137.5750 N   0  0  0  0  0  2  0  0  0  0  0  0
  187.2080  177.7500  137.3270 C   0  0  0  0  0  0  0  0  0  0  0  0
  188.6110  177.2080  137.2870 C   0  0  0  0  0  2  0  0  0  0  0  0
  190.0890  176.7580  135.4030 N   0  0  0  0  0  0  0  0  0  0  0  0
  190.4340  174.5590  135.9950 N   0  0  0  0  0  2  0  0  0  0  0  0
  190.9040  175.7450  135.3680 C   0  0  0  0  0  0  0  0  0  0  0  0
  188.3070  174.1640  136.9550 O   0  0  0  0  0  0  0  0  0  0  0  0
  188.8390  176.3600  136.0450 C   0  0  1  0  0  3  0  0  0  0  0  0
  189.1270  174.9530  136.4150 C   0  0  0  0  0  0  0  0  0  0  0  0
  192.5390  175.8710  134.6800 S   0  0  0  0  0  0  0  0  0  0  0  0
  193.3140  176.3560  137.2350 C   0  0  0  0  0  1  0  0  0  0  0  0
  193.3320  175.2600  136.1900 C   0  0  0  0  0  2  0  0  0  0  0  0
  184.8120  179.2310  141.1520 C   0  0  0  0  0  2  0  0  0  0  0  0
  186.1150  178.0260  143.0190 C   0  0  0  0  0  0  0  0  0  0  0  0
  186.0080  178.4920  141.6900 C   0  0  0  0  0  0  0  0  0  0  0  0
  188.3050  177.8140  141.2720 C   0  0  0  0  0  3  0  0  0  0  0  0
  187.1230  178.4130  140.8460 C   0  0  0  0  0  3  0  0  0  0  0  0
  188.3900  177.2660  142.5540 C   0  0  0  0  0  0  0  0  0  0  0  0
  187.3010  177.3910  143.4240 C   0  0  0  0  0  3  0  0  0  0  0  0
  185.0450  178.3120  144.0420 C   0  0  2  0  0  3  0  0  0  0  0  0
  184.5240  179.7330  143.9220 C   0  0  0  0  0  1  0  0  0  0  0  0
  184.6260  178.7050  146.3850 O   0  0  0  0  0  1  0  0  0  0  0  0
  185.4240  177.9940  145.4860 C   0  0  0  0  0  2  0  0  0  0  0  0
  189.9250  176.5250  143.1440 S   0  0  0  0  0  0  0  0  0  0  0  0
  191.1680  176.9020  146.3970 C   0  0  0  0  0  0  0  0  0  0  0  0
  189.2660  177.8200  145.4290 N   0  0  0  0  0  2  0  0  0  0  0  0
  192.0910  175.8790  147.2670 S   0  0  0  0  0  0  0  0  0  0  0  0
  191.5550  177.3460  145.1210 N   0  0  0  0  0  2  0  0  0  0  0  0
  189.6990  176.9430  146.5100 C   0  0  2  0  0  3  0  0  0  0  0  0
  190.3470  177.7710  144.4330 C   0  0  1  0  0  0  0  0  0  0  0  0
  190.5470  179.0330  143.8670 O   0  0  0  0  0  1  0  0  0  0  0  0
  188.7710  178.7570  147.8150 O   0  0  0  0  0  1  0  0  0  0  0  0
  188.1300  176.6140  148.2940 O   0  0  0  0  0  1  0  0  0  0  0  0
  189.1920  177.4250  147.8700 C   0  0  0  0  0  3  0  0  0  0  0  0
  1 28  1  1  0  0  0
  2  3  2  0  0  0  0
  3  1  1  0  0  0  0
  4  3  1  0  0  0  0
  4  5  1  0  0  0  0
  5  6  1  0  0  0  0
  6  7  1  0  0  0  0
  7  8  2  0  0  0  0
  7  9  1  0  0  0  0
 10  1  1  0  0  0  0
 10 11  2  0  0  0  0
 12 10  1  0  0  0  0
 13 14  1  6  0  0  0
 13 16  1  0  0  0  0
 13 12  1  0  0  0  0
 15 17  2  0  0  0  0
 17 16  1  0  0  0  0
 18 17  1  0  0  0  0
 19 23  1  0  0  0  0
 20 24  1  0  0  0  0
 21 19  2  0  0  0  0
 21 20  1  0  0  0  0
 23 24  1  0  0  0  0
 23 18  1  1  0  0  0
 24 22  2  0  0  0  0
 25 21  1  0  0  0  0
 25 27  1  0  0  0  0
 27 26  1  0  0  0  0
 28 30  1  0  0  0  0
 29 34  1  0  0  0  0
 29 35  1  0  0  0  0
 30 29  2  0  0  0  0
 31 33  1  0  0  0  0
 32 31  2  0  0  0  0
 32 30  1  0  0  0  0
 33 39  1  0  0  0  0
 33 34  2  0  0  0  0
 35 36  1  1  0  0  0
 35 38  1  0  0  0  0
 38 37  1  0  0  0  0
 39 45  1  0  0  0  0
 40 44  1  0  0  0  0
 40 42  2  0  0  0  0
 41 44  1  0  0  0  0
 43 40  1  0  0  0  0
 44 49  1  1  0  0  0
 45 46  1  6  0  0  0
 45 43  1  0  0  0  0
 45 41  1  0  0  0  0
 47 49  1  0  0  0  0
 49 48  1  0  0  0  0
M  END
>  <MODEL>
1

>  <REMARK>
 VINA RESULT:      -7.5      0.000      0.000
  Name = 
  19 active torsions:
  status: ('A' for Active; 'I' for Inactive)
    1  A    between atoms: C_2  and  O_7
    2  A    between atoms: C_2  and  N_35
    3  A    between atoms: C_3  and  C_12
    4  A    between atoms: S_4  and  C_27
    5  A    between atoms: S_4  and  C_32
    6  A    between atoms: O_7  and  C_10
    7  A    between atoms: C_8  and  C_46
    8  A    between atoms: C_9  and  C_25
    9  A    between atoms: C_9  and  C_43
   10  A    between atoms: C_10  and  C_24
   11  A    between atoms: C_12  and  C_36
   12  A    between atoms: N_14  and  C_25
   13  A    between atoms: C_24  and  C_43
   14  A    between atoms: C_24  and  C_46
   15  A    between atoms: C_28  and  S_41
   16  A    between atoms: CA_30  and  C_45
   17  A    between atoms: C_31  and  S_41
   18  A    between atoms: C_39  and  C_42
   19  A    between atoms: C_42  and  C_49
                            x       y       z     vdW  Elec       q    Type
                         _______ _______ _______ _____ _____    ______ ____

>  <TORSDO>
F 19

$$$$
=
 OpenBabel11032419403D

 49 51  0  0  1  0  0  0  0  0999 V2000
  188.2900  177.6160  136.8990 C   0  0  2  0  0  3  0  0  0  0  0  0
  189.3150  177.8320  134.7880 O   0  0  0  0  0  0  0  0  0  0  0  0
  189.1790  177.1270  135.7790 C   0  0  0  0  0  0  0  0  0  0  0  0
  189.9590  175.8470  135.8860 C   0  0  0  0  0  2  0  0  0  0  0  0
  191.4610  176.0840  135.7770 C   0  0  0  0  0  2  0  0  0  0  0  0
  192.1300  175.7280  137.0190 N   0  0  0  0  0  2  0  0  0  0  0  0
  193.4820  176.1140  137.3020 C   0  0  0  0  0  0  0  0  0  0  0  0
  194.1230  176.8250  136.5020 O   0  0  0  0  0  0  0  0  0  0  0  0
  194.0980  175.6740  138.4710 O   0  0  0  0  0  1  0  0  0  0  0  0
  189.0910  178.3550  137.9390 C   0  0  0  0  0  0  0  0  0  0  0  0
  189.0140  179.6200  137.9830 O   0  0  0  0  0  0  0  0  0  0  0  0
  189.8820  177.6810  138.8820 O   0  0  0  0  0  0  0  0  0  0  0  0
  189.4800  177.3770  140.2190 C   0  0  2  0  0  3  0  0  0  0  0  0
  188.2960  178.2460  140.6260 C   0  0  0  0  0  1  0  0  0  0  0  0
  190.2580  175.6680  142.4070 O   0  0  0  0  0  0  0  0  0  0  0  0
  190.5790  177.6030  141.1490 N   0  0  0  0  0  2  0  0  0  0  0  0
  190.7720  176.8170  142.3160 C   0  0  0  0  0  0  0  0  0  0  0  0
  191.6400  177.3650  143.4160 C   0  0  0  0  0  2  0  0  0  0  0  0
  189.4010  178.0540  144.0860 N   0  0  0  0  0  0  0  0  0  0  0  0
  189.4280  176.8130  146.0270 N   0  0  0  0  0  2  0  0  0  0  0  0
  188.6930  177.4060  144.9630 C   0  0  0  0  0  0  0  0  0  0  0  0
  191.7460  176.9890  146.4680 O   0  0  0  0  0  0  0  0  0  0  0  0
  190.8040  178.0490  144.4880 C   0  0  1  0  0  3  0  0  0  0  0  0
  190.7600  177.2280  145.7230 C   0  0  0  0  0  0  0  0  0  0  0  0
  186.9370  177.1830  144.7840 S   0  0  0  0  0  0  0  0  0  0  0  0
  185.3650  178.4070  146.6260 C   0  0  0  0  0  1  0  0  0  0  0  0
  186.5480  178.6840  145.7220 C   0  0  0  0  0  2  0  0  0  0  0  0
  187.4260  176.5340  137.5600 C   0  0  0  0  0  2  0  0  0  0  0  0
  184.9070  176.0170  137.4060 C   0  0  0  0  0  0  0  0  0  0  0  0
  185.9730  176.8790  137.7490 C   0  0  0  0  0  0  0  0  0  0  0  0
  184.3770  178.6350  138.2780 C   0  0  0  0  0  3  0  0  0  0  0  0
  185.6910  178.1920  138.1430 C   0  0  0  0  0  3  0  0  0  0  0  0
  183.3160  177.7620  138.0320 C   0  0  0  0  0  0  0  0  0  0  0  0
  183.5870  176.4650  137.5810 C   0  0  0  0  0  3  0  0  0  0  0  0
  185.1530  174.6890  136.7370 C   0  0  2  0  0  3  0  0  0  0  0  0
  185.4320  174.8550  135.2540 C   0  0  0  0  0  1  0  0  0  0  0  0
  184.6120  172.4880  137.5670 O   0  0  0  0  0  1  0  0  0  0  0  0
  184.0760  173.6340  136.9720 C   0  0  0  0  0  2  0  0  0  0  0  0
  181.6060  178.3240  138.1550 S   0  0  0  0  0  0  0  0  0  0  0  0
  180.3970  179.0700  141.3570 C   0  0  0  0  0  0  0  0  0  0  0  0
  182.2890  177.8750  140.7370 N   0  0  0  0  0  2  0  0  0  0  0  0
  179.4820  180.3300  141.8400 S   0  0  0  0  0  0  0  0  0  0  0  0
  179.9970  178.2230  140.3090 N   0  0  0  0  0  2  0  0  0  0  0  0
  181.8670  179.0660  141.4630 C   0  0  2  0  0  3  0  0  0  0  0  0
  181.1980  177.5880  139.7930 C   0  0  1  0  0  0  0  0  0  0  0  0
  180.9930  176.2090  139.6890 O   0  0  0  0  0  1  0  0  0  0  0  0
  181.5440  178.3490  143.7510 O   0  0  0  0  0  1  0  0  0  0  0  0
  183.6760  178.5190  142.9390 O   0  0  0  0  0  1  0  0  0  0  0  0
  182.3880  179.0700  142.8990 C   0  0  0  0  0  3  0  0  0  0  0  0
  1 28  1  1  0  0  0
  1 10  1  0  0  0  0
  2  3  2  0  0  0  0
  3  4  1  0  0  0  0
  3  1  1  0  0  0  0
  5  4  1  0  0  0  0
  5  6  1  0  0  0  0
  6  7  1  0  0  0  0
  7  9  1  0  0  0  0
  8  7  2  0  0  0  0
 10 11  2  0  0  0  0
 10 12  1  0  0  0  0
 12 13  1  0  0  0  0
 13 14  1  1  0  0  0
 13 16  1  0  0  0  0
 16 17  1  0  0  0  0
 17 15  2  0  0  0  0
 17 18  1  0  0  0  0
 19 23  1  0  0  0  0
 19 21  2  0  0  0  0
 21 20  1  0  0  0  0
 23 18  1  6  0  0  0
 23 24  1  0  0  0  0
 24 20  1  0  0  0  0
 24 22  2  0  0  0  0
 25 21  1  0  0  0  0
 25 27  1  0  0  0  0
 27 26  1  0  0  0  0
 28 30  1  0  0  0  0
 29 34  2  0  0  0  0
 29 30  1  0  0  0  0
 30 32  2  0  0  0  0
 32 31  1  0  0  0  0
 33 39  1  0  0  0  0
 33 31  2  0  0  0  0
 34 33  1  0  0  0  0
 35 36  1  6  0  0  0
 35 38  1  0  0  0  0
 35 29  1  0  0  0  0
 38 37  1  0  0  0  0
 39 45  1  0  0  0  0
 40 44  1  0  0  0  0
 40 42  2  0  0  0  0
 41 44  1  0  0  0  0
 43 40  1  0  0  0  0
 44 49  1  1  0  0  0
 45 46  1  6  0  0  0
 45 43  1  0  0  0  0
 45 41  1  0  0  0  0
 49 48  1  0  0  0  0
 49 47  1  0  0  0  0
M  END
>  <MODEL>
2

>  <REMARK>
 VINA RESULT:      -7.0      3.232      9.428
  Name = 
  19 active torsions:
  status: ('A' for Active; 'I' for Inactive)
    1  A    between atoms: C_2  and  O_7
    2  A    between atoms: C_2  and  N_35
    3  A    between atoms: C_3  and  C_12
    4  A    between atoms: S_4  and  C_27
    5  A    between atoms: S_4  and  C_32
    6  A    between atoms: O_7  and  C_10
    7  A    between atoms: C_8  and  C_46
    8  A    between atoms: C_9  and  C_25
    9  A    between atoms: C_9  and  C_43
   10  A    between atoms: C_10  and  C_24
   11  A    between atoms: C_12  and  C_36
   12  A    between atoms: N_14  and  C_25
   13  A    between atoms: C_24  and  C_43
   14  A    between atoms: C_24  and  C_46
   15  A    between atoms: C_28  and  S_41
   16  A    between atoms: CA_30  and  C_45
   17  A    between atoms: C_31  and  S_41
   18  A    between atoms: C_39  and  C_42
   19  A    between atoms: C_42  and  C_49
                            x       y       z     vdW  Elec       q    Type
                         _______ _______ _______ _____ _____    ______ ____

>  <TORSDO>
F 19

$$$$
=
 OpenBabel11032419403D

 49 51  0  0  1  0  0  0  0  0999 V2000
  187.5650  177.3520  142.1480 C   0  0  2  0  0  3  0  0  0  0  0  0
  188.5420  175.4790  143.1910 O   0  0  0  0  0  0  0  0  0  0  0  0
  188.0370  176.5810  143.3580 C   0  0  0  0  0  0  0  0  0  0  0  0
  187.9780  177.1630  144.7430 C   0  0  0  0  0  2  0  0  0  0  0  0
  189.2090  178.0050  145.0610 C   0  0  0  0  0  2  0  0  0  0  0  0
  190.3830  177.1610  145.2210 N   0  0  0  0  0  2  0  0  0  0  0  0
  190.9190  176.8270  146.5080 C   0  0  0  0  0  0  0  0  0  0  0  0
  190.3560  177.2120  147.5530 O   0  0  0  0  0  1  0  0  0  0  0  0
  192.0940  176.0850  146.5970 O   0  0  0  0  0  0  0  0  0  0  0  0
  188.7160  177.6730  141.2310 C   0  0  0  0  0  0  0  0  0  0  0  0
  189.7820  178.1430  141.7310 O   0  0  0  0  0  0  0  0  0  0  0  0
  188.6550  177.4270  139.8500 O   0  0  0  0  0  0  0  0  0  0  0  0
  189.5980  177.9060  138.8900 C   0  0  2  0  0  3  0  0  0  0  0  0
  188.8960  178.7620  137.8420 C   0  0  0  0  0  1  0  0  0  0  0  0
  192.2760  176.9680  139.3980 O   0  0  0  0  0  0  0  0  0  0  0  0
  190.2670  176.7940  138.2290 N   0  0  0  0  0  2  0  0  0  0  0  0
  191.6510  176.5220  138.3960 C   0  0  0  0  0  0  0  0  0  0  0  0
  192.3410  175.6540  137.3790 C   0  0  0  0  0  2  0  0  0  0  0  0
  194.4610  174.6800  138.0800 N   0  0  0  0  0  0  0  0  0  0  0  0
  195.3380  174.6600  135.9500 N   0  0  0  0  0  2  0  0  0  0  0  0
  195.2810  174.0980  137.2550 C   0  0  0  0  0  0  0  0  0  0  0  0
  194.2400  176.5990  135.1510 O   0  0  0  0  0  0  0  0  0  0  0  0
  193.8510  175.8370  137.4310 C   0  0  1  0  0  3  0  0  0  0  0  0
  194.4360  175.7600  136.0700 C   0  0  0  0  0  0  0  0  0  0  0  0
  196.1870  172.6320  137.6960 S   0  0  0  0  0  0  0  0  0  0  0  0
  198.0070  174.5360  138.3490 C   0  0  0  0  0  1  0  0  0  0  0  0
  197.7940  173.4030  137.3680 C   0  0  0  0  0  2  0  0  0  0  0  0
  186.7620  178.6210  142.4600 C   0  0  0  0  0  2  0  0  0  0  0  0
  184.1900  178.7490  142.3930 C   0  0  0  0  0  0  0  0  0  0  0  0
  185.4450  178.7580  141.7440 C   0  0  0  0  0  0  0  0  0  0  0  0
  184.3240  178.7830  139.5870 C   0  0  0  0  0  3  0  0  0  0  0  0
  185.4910  178.7360  140.3450 C   0  0  0  0  0  3  0  0  0  0  0  0
  183.0820  178.8700  140.2190 C   0  0  0  0  0  0  0  0  0  0  0  0
  183.0220  178.8350  141.6170 C   0  0  0  0  0  3  0  0  0  0  0  0
  184.0730  178.5180  143.8780 C   0  0  2  0  0  3  0  0  0  0  0  0
  182.6360  178.6430  144.3510 C   0  0  0  0  0  1  0  0  0  0  0  0
  184.7690  179.1420  146.1030 O   0  0  0  0  0  1  0  0  0  0  0  0
  185.0050  179.3630  144.7430 C   0  0  0  0  0  2  0  0  0  0  0  0
  181.5540  178.8880  139.2600 S   0  0  0  0  0  0  0  0  0  0  0  0
  182.2240  175.5580  138.4030 C   0  0  0  0  0  0  0  0  0  0  0  0
  180.1990  176.6960  138.4300 N   0  0  0  0  0  2  0  0  0  0  0  0
  183.5970  174.9080  137.8130 S   0  0  0  0  0  0  0  0  0  0  0  0
  182.2090  176.3000  139.5970 N   0  0  0  0  0  2  0  0  0  0  0  0
  181.1110  175.9900  137.5390 C   0  0  2  0  0  3  0  0  0  0  0  0
  181.0290  177.1470  139.5570 C   0  0  1  0  0  0  0  0  0  0  0  0
  180.3250  177.0310  140.7590 O   0  0  0  0  0  1  0  0  0  0  0  0
  179.8430  173.9360  137.6960 O   0  0  0  0  0  1  0  0  0  0  0  0
  179.4210  175.3620  135.9580 O   0  0  0  0  0  1  0  0  0  0  0  0
  180.4140  174.8470  136.8020 C   0  0  0  0  0  3  0  0  0  0  0  0
  1 28  1  1  0  0  0
  1  3  1  0  0  0  0
  2  3  2  0  0  0  0
  3  4  1  0  0  0  0
  4  5  1  0  0  0  0
  5  6  1  0  0  0  0
  6  7  1  0  0  0  0
  7  9  2  0  0  0  0
  7  8  1  0  0  0  0
 10 11  2  0  0  0  0
 10  1  1  0  0  0  0
 12 10  1  0  0  0  0
 13 14  1  6  0  0  0
 13 12  1  0  0  0  0
 16 17  1  0  0  0  0
 16 13  1  0  0  0  0
 17 15  2  0  0  0  0
 18 17  1  0  0  0  0
 20 24  1  0  0  0  0
 20 21  1  0  0  0  0
 21 25  1  0  0  0  0
 21 19  2  0  0  0  0
 22 24  2  0  0  0  0
 23 18  1  6  0  0  0
 23 19  1  0  0  0  0
 24 23  1  0  0  0  0
 27 25  1  0  0  0  0
 27 26  1  0  0  0  0
 29 35  1  0  0  0  0
 30 29  1  0  0  0  0
 30 28  1  0  0  0  0
 31 33  2  0  0  0  0
 31 32  1  0  0  0  0
 32 30  2  0  0  0  0
 33 34  1  0  0  0  0
 34 29  2  0  0  0  0
 35 36  1  1  0  0  0
 35 38  1  0  0  0  0
 38 37  1  0  0  0  0
 39 45  1  0  0  0  0
 39 33  1  0  0  0  0
 40 43  1  0  0  0  0
 41 45  1  0  0  0  0
 42 40  2  0  0  0  0
 44 49  1  1  0  0  0
 44 40  1  0  0  0  0
 44 41  1  0  0  0  0
 45 43  1  0  0  0  0
 45 46  1  1  0  0  0
 48 49  1  0  0  0  0
 49 47  1  0  0  0  0
M  END
>  <MODEL>
3

>  <REMARK>
 VINA RESULT:      -7.0      3.535      8.091
  Name = 
  19 active torsions:
  status: ('A' for Active; 'I' for Inactive)
    1  A    between atoms: C_2  and  O_7
    2  A    between atoms: C_2  and  N_35
    3  A    between atoms: C_3  and  C_12
    4  A    between atoms: S_4  and  C_27
    5  A    between atoms: S_4  and  C_32
    6  A    between atoms: O_7  and  C_10
    7  A    between atoms: C_8  and  C_46
    8  A    between atoms: C_9  and  C_25
    9  A    between atoms: C_9  and  C_43
   10  A    between atoms: C_10  and  C_24
   11  A    between atoms: C_12  and  C_36
   12  A    between atoms: N_14  and  C_25
   13  A    between atoms: C_24  and  C_43
   14  A    between atoms: C_24  and  C_46
   15  A    between atoms: C_28  and  S_41
   16  A    between atoms: CA_30  and  C_45
   17  A    between atoms: C_31  and  S_41
   18  A    between atoms: C_39  and  C_42
   19  A    between atoms: C_42  and  C_49
                            x       y       z     vdW  Elec       q    Type
                         _______ _______ _______ _____ _____    ______ ____

>  <TORSDO>
F 19

$$$$
=
 OpenBabel11032419403D

 49 51  0  0  1  0  0  0  0  0999 V2000
  189.2660  177.6220  140.6880 C   0  0  2  0  0  3  0  0  0  0  0  0
  190.0530  175.8640  142.0450 O   0  0  0  0  0  0  0  0  0  0  0  0
  190.1820  177.0420  141.7400 C   0  0  0  0  0  0  0  0  0  0  0  0
  191.2930  177.8450  142.3560 C   0  0  0  0  0  2  0  0  0  0  0  0
  191.7730  177.2400  143.6710 C   0  0  0  0  0  2  0  0  0  0  0  0
  190.8080  177.4830  144.7330 N   0  0  0  0  0  2  0  0  0  0  0  0
  190.9540  176.9260  146.0460 C   0  0  0  0  0  0  0  0  0  0  0  0
  191.9580  176.2480  146.3430 O   0  0  0  0  0  0  0  0  0  0  0  0
  189.9560  177.1240  146.9960 O   0  0  0  0  0  1  0  0  0  0  0  0
  188.0370  178.2250  141.3160 C   0  0  0  0  0  0  0  0  0  0  0  0
  187.6860  179.3940  140.9710 O   0  0  0  0  0  0  0  0  0  0  0  0
  187.2510  177.5150  142.2360 O   0  0  0  0  0  0  0  0  0  0  0  0
  186.6350  178.0800  143.3950 C   0  0  2  0  0  3  0  0  0  0  0  0
  187.1420  177.3880  144.6540 C   0  0  0  0  0  1  0  0  0  0  0  0
  184.6850  180.1330  143.9390 O   0  0  0  0  0  0  0  0  0  0  0  0
  185.1860  177.9410  143.3240 N   0  0  0  0  0  2  0  0  0  0  0  0
  184.2950  178.9400  143.7980 C   0  0  0  0  0  0  0  0  0  0  0  0
  182.8680  178.5560  144.0820 C   0  0  0  0  0  2  0  0  0  0  0  0
  182.1450  178.6840  141.7590 N   0  0  0  0  0  0  0  0  0  0  0  0
  179.9730  178.0840  142.2360 N   0  0  0  0  0  2  0  0  0  0  0  0
  181.0610  178.1140  141.3210 C   0  0  0  0  0  0  0  0  0  0  0  0
  179.8500  179.0690  144.3850 O   0  0  0  0  0  0  0  0  0  0  0  0
  181.9130  179.2160  143.0990 C   0  0  1  0  0  3  0  0  0  0  0  0
  180.5160  178.7860  143.3540 C   0  0  0  0  0  0  0  0  0  0  0  0
  180.9830  177.3280  139.7280 S   0  0  0  0  0  0  0  0  0  0  0  0
  183.0340  175.8220  138.7830 C   0  0  0  0  0  1  0  0  0  0  0  0
  182.7660  177.0090  139.6840 C   0  0  0  0  0  2  0  0  0  0  0  0
  188.8720  176.6540  139.5670 C   0  0  0  0  0  2  0  0  0  0  0  0
  189.5970  176.8740  137.1040 C   0  0  0  0  0  0  0  0  0  0  0  0
  189.8640  176.5100  138.4430 C   0  0  0  0  0  0  0  0  0  0  0  0
  192.0050  175.5820  137.7600 C   0  0  0  0  0  3  0  0  0  0  0  0
  191.0520  175.8320  138.7440 C   0  0  0  0  0  3  0  0  0  0  0  0
  191.7910  176.0220  136.4520 C   0  0  0  0  0  0  0  0  0  0  0  0
  190.5820  176.6490  136.1290 C   0  0  0  0  0  3  0  0  0  0  0  0
  188.2390  177.3710  136.6800 C   0  0  2  0  0  3  0  0  0  0  0  0
  187.9360  177.0030  135.2380 C   0  0  0  0  0  1  0  0  0  0  0  0
  189.1370  179.4950  137.3890 O   0  0  0  0  0  1  0  0  0  0  0  0
  187.9840  178.8560  136.9250 C   0  0  0  0  0  2  0  0  0  0  0  0
  192.9900  175.6710  135.1500 S   0  0  0  0  0  0  0  0  0  0  0  0
  196.2640  174.6520  135.8700 C   0  0  0  0  0  0  0  0  0  0  0  0
  194.5920  175.3710  137.3130 N   0  0  0  0  0  2  0  0  0  0  0  0
  197.2240  173.6280  135.0420 S   0  0  0  0  0  0  0  0  0  0  0  0
  195.6770  175.7740  135.2590 N   0  0  0  0  0  2  0  0  0  0  0  0
  195.4390  174.2230  137.0130 C   0  0  2  0  0  3  0  0  0  0  0  0
  194.5210  176.1400  136.0610 C   0  0  1  0  0  0  0  0  0  0  0  0
  194.5490  177.5110  136.3280 O   0  0  0  0  0  1  0  0  0  0  0  0
  196.5820  174.8640  139.0460 O   0  0  0  0  0  1  0  0  0  0  0  0
  195.5090  172.8450  138.9740 O   0  0  0  0  0  1  0  0  0  0  0  0
  196.2460  173.7780  138.2310 C   0  0  0  0  0  3  0  0  0  0  0  0
  1 28  1  6  0  0  0
  1 10  1  0  0  0  0
  1  3  1  0  0  0  0
  3  2  2  0  0  0  0
  3  4  1  0  0  0  0
  4  5  1  0  0  0  0
  5  6  1  0  0  0  0
  6  7  1  0  0  0  0
  7  8  2  0  0  0  0
  7  9  1  0  0  0  0
 10 12  1  0  0  0  0
 11 10  2  0  0  0  0
 12 13  1  0  0  0  0
 13 14  1  1  0  0  0
 16 13  1  0  0  0  0
 16 17  1  0  0  0  0
 17 15  2  0  0  0  0
 17 18  1  0  0  0  0
 19 23  1  0  0  0  0
 20 24  1  0  0  0  0
 21 19  2  0  0  0  0
 21 20  1  0  0  0  0
 23 24  1  0  0  0  0
 23 18  1  1  0  0  0
 24 22  2  0  0  0  0
 25 21  1  0  0  0  0
 26 27  1  0  0  0  0
 27 25  1  0  0  0  0
 29 30  1  0  0  0  0
 30 32  2  0  0  0  0
 30 28  1  0  0  0  0
 31 32  1  0  0  0  0
 33 31  2  0  0  0  0
 34 33  1  0  0  0  0
 34 29  2  0  0  0  0
 35 36  1  6  0  0  0
 35 38  1  0  0  0  0
 35 29  1  0  0  0  0
 38 37  1  0  0  0  0
 39 45  1  0  0  0  0
 39 33  1  0  0  0  0
 40 44  1  0  0  0  0
 42 40  2  0  0  0  0
 43 40  1  0  0  0  0
 43 45  1  0  0  0  0
 44 41  1  0  0  0  0
 44 49  1  1  0  0  0
 45 46  1  1  0  0  0
 45 41  1  0  0  0  0
 49 48  1  0  0  0  0
 49 47  1  0  0  0  0
M  END
>  <MODEL>
4

>  <REMARK>
 VINA RESULT:      -7.0      3.383      9.678
  Name = 
  19 active torsions:
  status: ('A' for Active; 'I' for Inactive)
    1  A    between atoms: C_2  and  O_7
    2  A    between atoms: C_2  and  N_35
    3  A    between atoms: C_3  and  C_12
    4  A    between atoms: S_4  and  C_27
    5  A    between atoms: S_4  and  C_32
    6  A    between atoms: O_7  and  C_10
    7  A    between atoms: C_8  and  C_46
    8  A    between atoms: C_9  and  C_25
    9  A    between atoms: C_9  and  C_43
   10  A    between atoms: C_10  and  C_24
   11  A    between atoms: C_12  and  C_36
   12  A    between atoms: N_14  and  C_25
   13  A    between atoms: C_24  and  C_43
   14  A    between atoms: C_24  and  C_46
   15  A    between atoms: C_28  and  S_41
   16  A    between atoms: CA_30  and  C_45
   17  A    between atoms: C_31  and  S_41
   18  A    between atoms: C_39  and  C_42
   19  A    between atoms: C_42  and  C_49
                            x       y       z     vdW  Elec       q    Type
                         _______ _______ _______ _____ _____    ______ ____

>  <TORSDO>
F 19

$$$$
=
 OpenBabel11032419403D

 49 51  0  0  1  0  0  0  0  0999 V2000
  184.4270  178.4150  142.5730 C   0  0  2  0  0  3  0  0  0  0  0  0
  183.0930  178.6620  144.5000 O   0  0  0  0  0  0  0  0  0  0  0  0
  184.2300  178.6840  144.0470 C   0  0  0  0  0  0  0  0  0  0  0  0
  185.3910  178.8920  144.9780 C   0  0  0  0  0  2  0  0  0  0  0  0
  185.0880  178.3950  146.3870 C   0  0  0  0  0  2  0  0  0  0  0  0
  186.1080  178.8430  147.3220 N   0  0  0  0  0  2  0  0  0  0  0  0
  187.3310  178.1240  147.5290 C   0  0  0  0  0  0  0  0  0  0  0  0
  187.5890  177.1010  146.8630 O   0  0  0  0  0  0  0  0  0  0  0  0
  188.2330  178.5550  148.4980 O   0  0  0  0  0  1  0  0  0  0  0  0
  185.8100  178.8160  142.1320 C   0  0  0  0  0  0  0  0  0  0  0  0
  185.9310  179.7100  141.2410 O   0  0  0  0  0  0  0  0  0  0  0  0
  186.9620  178.2600  142.7100 O   0  0  0  0  0  0  0  0  0  0  0  0
  187.7410  177.2100  142.1330 C   0  0  2  0  0  3  0  0  0  0  0  0
  188.3680  176.3550  143.2280 C   0  0  0  0  0  1  0  0  0  0  0  0
  187.5920  177.7060  139.2970 O   0  0  0  0  0  0  0  0  0  0  0  0
  188.7970  177.7580  141.2910 N   0  0  0  0  0  2  0  0  0  0  0  0
  188.7120  177.7860  139.8740 C   0  0  0  0  0  0  0  0  0  0  0  0
  189.9790  177.9600  139.0810 C   0  0  0  0  0  2  0  0  0  0  0  0
  191.4550  176.3640  137.9820 N   0  0  0  0  0  0  0  0  0  0  0  0
  193.3110  177.0110  139.1820 N   0  0  0  0  0  2  0  0  0  0  0  0
  192.7510  176.4730  137.9910 C   0  0  0  0  0  0  0  0  0  0  0  0
  192.1910  177.5870  141.1860 O   0  0  0  0  0  0  0  0  0  0  0  0
  190.9180  176.7780  139.2750 C   0  0  1  0  0  3  0  0  0  0  0  0
  192.1480  177.1970  139.9900 C   0  0  0  0  0  0  0  0  0  0  0  0
  193.7440  176.0800  136.5690 S   0  0  0  0  0  0  0  0  0  0  0  0
  192.5600  173.9180  135.4340 C   0  0  0  0  0  1  0  0  0  0  0  0
  192.3380  175.4000  135.6490 C   0  0  0  0  0  2  0  0  0  0  0  0
  183.3710  179.0410  141.6540 C   0  0  0  0  0  2  0  0  0  0  0  0
  181.0320  178.0920  141.1370 C   0  0  0  0  0  0  0  0  0  0  0  0
  182.4360  178.0760  140.9750 C   0  0  0  0  0  0  0  0  0  0  0  0
  182.2570  176.0340  139.6680 C   0  0  0  0  0  3  0  0  0  0  0  0
  183.0310  177.0210  140.2720 C   0  0  0  0  0  3  0  0  0  0  0  0
  180.8640  176.0930  139.7440 C   0  0  0  0  0  0  0  0  0  0  0  0
  180.2620  177.1110  140.4910 C   0  0  0  0  0  3  0  0  0  0  0  0
  180.3600  179.0500  142.0870 C   0  0  2  0  0  3  0  0  0  0  0  0
  179.8760  178.3440  143.3410 C   0  0  0  0  0  1  0  0  0  0  0  0
  179.5210  181.2620  141.6120 O   0  0  0  0  0  1  0  0  0  0  0  0
  179.2470  179.8980  141.4770 C   0  0  0  0  0  2  0  0  0  0  0  0
  179.8420  174.8010  139.0070 S   0  0  0  0  0  0  0  0  0  0  0  0
  180.3670  172.8400  136.1530 C   0  0  0  0  0  0  0  0  0  0  0  0
  181.8770  174.1380  137.3490 N   0  0  0  0  0  2  0  0  0  0  0  0
  179.5560  171.5160  135.6560 S   0  0  0  0  0  0  0  0  0  0  0  0
  179.7080  174.0510  136.4270 N   0  0  0  0  0  2  0  0  0  0  0  0
  181.6110  172.7650  136.9390 C   0  0  2  0  0  3  0  0  0  0  0  0
  180.5700  174.8130  137.3160 C   0  0  1  0  0  0  0  0  0  0  0  0
  180.7070  176.1180  136.8350 O   0  0  0  0  0  1  0  0  0  0  0  0
  183.4700  173.1290  135.4330 O   0  0  0  0  0  1  0  0  0  0  0  0
  183.6780  171.5580  137.0830 O   0  0  0  0  0  1  0  0  0  0  0  0
  182.7910  172.1600  136.1790 C   0  0  0  0  0  3  0  0  0  0  0  0
  1 28  1  6  0  0  0
  1  3  1  0  0  0  0
  3  2  2  0  0  0  0
  3  4  1  0  0  0  0
  4  5  1  0  0  0  0
  5  6  1  0  0  0  0
  6  7  1  0  0  0  0
  7  9  1  0  0  0  0
  8  7  2  0  0  0  0
 10  1  1  0  0  0  0
 10 12  1  0  0  0  0
 11 10  2  0  0  0  0
 13 12  1  0  0  0  0
 13 14  1  1  0  0  0
 15 17  2  0  0  0  0
 16 13  1  0  0  0  0
 17 16  1  0  0  0  0
 18 17  1  0  0  0  0
 19 21  2  0  0  0  0
 19 23  1  0  0  0  0
 20 24  1  0  0  0  0
 21 20  1  0  0  0  0
 23 18  1  6  0  0  0
 23 24  1  0  0  0  0
 24 22  2  0  0  0  0
 25 21  1  0  0  0  0
 26 27  1  0  0  0  0
 27 25  1  0  0  0  0
 29 35  1  0  0  0  0
 30 29  1  0  0  0  0
 30 28  1  0  0  0  0
 31 33  2  0  0  0  0
 31 32  1  0  0  0  0
 32 30  2  0  0  0  0
 33 34  1  0  0  0  0
 34 29  2  0  0  0  0
 35 36  1  1  0  0  0
 38 37  1  0  0  0  0
 38 35  1  0  0  0  0
 39 33  1  0  0  0  0
 40 43  1  0  0  0  0
 40 44  1  0  0  0  0
 42 40  2  0  0  0  0
 43 45  1  0  0  0  0
 44 49  1  6  0  0  0
 44 41  1  0  0  0  0
 45 46  1  6  0  0  0
 45 41  1  0  0  0  0
 45 39  1  0  0  0  0
 47 49  1  0  0  0  0
 49 48  1  0  0  0  0
M  END
>  <MODEL>
5

>  <REMARK>
 VINA RESULT:      -6.9      3.913      8.334
  Name = 
  19 active torsions:
  status: ('A' for Active; 'I' for Inactive)
    1  A    between atoms: C_2  and  O_7
    2  A    between atoms: C_2  and  N_35
    3  A    between atoms: C_3  and  C_12
    4  A    between atoms: S_4  and  C_27
    5  A    between atoms: S_4  and  C_32
    6  A    between atoms: O_7  and  C_10
    7  A    between atoms: C_8  and  C_46
    8  A    between atoms: C_9  and  C_25
    9  A    between atoms: C_9  and  C_43
   10  A    between atoms: C_10  and  C_24
   11  A    between atoms: C_12  and  C_36
   12  A    between atoms: N_14  and  C_25
   13  A    between atoms: C_24  and  C_43
   14  A    between atoms: C_24  and  C_46
   15  A    between atoms: C_28  and  S_41
   16  A    between atoms: CA_30  and  C_45
   17  A    between atoms: C_31  and  S_41
   18  A    between atoms: C_39  and  C_42
   19  A    between atoms: C_42  and  C_49
                            x       y       z     vdW  Elec       q    Type
                         _______ _______ _______ _____ _____    ______ ____

>  <TORSDO>
F 19

$$$$
=
 OpenBabel11032419403D

 49 51  0  0  1  0  0  0  0  0999 V2000
  188.7470  177.4550  141.2320 C   0  0  2  0  0  3  0  0  0  0  0  0
  191.0930  177.2800  141.3690 O   0  0  0  0  0  0  0  0  0  0  0  0
  190.0220  176.9160  141.8360 C   0  0  0  0  0  0  0  0  0  0  0  0
  190.0110  176.0170  143.0410 C   0  0  0  0  0  2  0  0  0  0  0  0
  191.3330  176.0640  143.7990 C   0  0  0  0  0  2  0  0  0  0  0  0
  191.2000  176.8470  145.0180 N   0  0  0  0  0  2  0  0  0  0  0  0
  191.6670  176.3760  146.2890 C   0  0  0  0  0  0  0  0  0  0  0  0
  192.2600  175.2820  146.3850 O   0  0  0  0  0  0  0  0  0  0  0  0
  191.4370  177.1320  147.4350 O   0  0  0  0  0  1  0  0  0  0  0  0
  188.9430  177.8000  139.7790 C   0  0  0  0  0  0  0  0  0  0  0  0
  189.0310  179.0210  139.4480 O   0  0  0  0  0  0  0  0  0  0  0  0
  189.0720  176.8090  138.7930 O   0  0  0  0  0  0  0  0  0  0  0  0
  190.0270  176.8320  137.7300 C   0  0  2  0  0  3  0  0  0  0  0  0
  189.3230  177.0340  136.3930 C   0  0  0  0  0  1  0  0  0  0  0  0
  192.7570  176.4470  138.5730 O   0  0  0  0  0  0  0  0  0  0  0  0
  190.7800  175.5850  137.6900 N   0  0  0  0  0  2  0  0  0  0  0  0
  192.1760  175.5240  137.9370 C   0  0  0  0  0  0  0  0  0  0  0  0
  192.9370  174.3140  137.4660 C   0  0  0  0  0  2  0  0  0  0  0  0
  194.8870  173.0000  138.1070 N   0  0  0  0  0  0  0  0  0  0  0  0
  196.2200  173.8760  136.4450 N   0  0  0  0  0  2  0  0  0  0  0  0
  195.8970  172.7970  137.3130 C   0  0  0  0  0  0  0  0  0  0  0  0
  195.2450  176.0310  136.3760 O   0  0  0  0  0  0  0  0  0  0  0  0
  194.3870  174.3610  137.9260 C   0  0  1  0  0  3  0  0  0  0  0  0
  195.2660  174.8610  136.8420 C   0  0  0  0  0  0  0  0  0  0  0  0
  196.7440  171.2350  137.2410 S   0  0  0  0  0  0  0  0  0  0  0  0
  194.5550  169.6800  136.8460 C   0  0  0  0  0  1  0  0  0  0  0  0
  195.3480  170.3300  137.9600 C   0  0  0  0  0  2  0  0  0  0  0  0
  188.1240  178.6390  141.9820 C   0  0  0  0  0  2  0  0  0  0  0  0
  185.8480  178.6180  143.1890 C   0  0  0  0  0  0  0  0  0  0  0  0
  186.6190  178.6830  142.0070 C   0  0  0  0  0  0  0  0  0  0  0  0
  184.5840  178.5940  140.6800 C   0  0  0  0  0  3  0  0  0  0  0  0
  185.9740  178.6310  140.7660 C   0  0  0  0  0  3  0  0  0  0  0  0
  183.8110  178.6230  141.8420 C   0  0  0  0  0  0  0  0  0  0  0  0
  184.4470  178.6170  143.0880 C   0  0  0  0  0  3  0  0  0  0  0  0
  186.4910  178.4150  144.5380 C   0  0  2  0  0  3  0  0  0  0  0  0
  186.8700  176.9620  144.7610 C   0  0  0  0  0  1  0  0  0  0  0  0
  185.3650  177.9350  146.6170 O   0  0  0  0  0  1  0  0  0  0  0  0
  185.6980  178.9570  145.7240 C   0  0  0  0  0  2  0  0  0  0  0  0
  182.0110  178.5310  141.7580 S   0  0  0  0  0  0  0  0  0  0  0  0
  180.5570  176.8650  139.0410 C   0  0  0  0  0  0  0  0  0  0  0  0
  182.7460  177.5890  139.3280 N   0  0  0  0  0  2  0  0  0  0  0  0
  179.2770  175.8550  139.0230 S   0  0  0  0  0  0  0  0  0  0  0  0
  180.4720  178.1590  139.5830 N   0  0  0  0  0  2  0  0  0  0  0  0
  181.9490  176.3860  139.1210 C   0  0  2  0  0  3  0  0  0  0  0  0
  181.8240  178.5670  139.9260 C   0  0  1  0  0  0  0  0  0  0  0  0
  182.0730  179.8450  139.4190 O   0  0  0  0  0  1  0  0  0  0  0  0
  182.8170  176.4600  136.8640 O   0  0  0  0  0  1  0  0  0  0  0  0
  183.4690  174.7530  138.2410 O   0  0  0  0  0  1  0  0  0  0  0  0
  182.4100  175.6030  137.8920 C   0  0  0  0  0  3  0  0  0  0  0  0
  1  3  1  0  0  0  0
  1 28  1  1  0  0  0
  2  3  2  0  0  0  0
  3  4  1  0  0  0  0
  4  5  1  0  0  0  0
  5  6  1  0  0  0  0
  6  7  1  0  0  0  0
  7  8  2  0  0  0  0
  7  9  1  0  0  0  0
 10  1  1  0  0  0  0
 11 10  2  0  0  0  0
 12 10  1  0  0  0  0
 13 14  1  6  0  0  0
 13 12  1  0  0  0  0
 16 13  1  0  0  0  0
 16 17  1  0  0  0  0
 17 15  2  0  0  0  0
 18 17  1  0  0  0  0
 20 24  1  0  0  0  0
 20 21  1  0  0  0  0
 21 19  2  0  0  0  0
 22 24  2  0  0  0  0
 23 18  1  6  0  0  0
 23 19  1  0  0  0  0
 24 23  1  0  0  0  0
 25 21  1  0  0  0  0
 25 27  1  0  0  0  0
 26 27  1  0  0  0  0
 28 30  1  0  0  0  0
 29 35  1  0  0  0  0
 30 29  2  0  0  0  0
 31 32  2  0  0  0  0
 31 33  1  0  0  0  0
 32 30  1  0  0  0  0
 33 34  2  0  0  0  0
 34 29  1  0  0  0  0
 35 36  1  1  0  0  0
 35 38  1  0  0  0  0
 38 37  1  0  0  0  0
 39 33  1  0  0  0  0
 40 44  1  0  0  0  0
 40 43  1  0  0  0  0
 41 45  1  0  0  0  0
 42 40  2  0  0  0  0
 43 45  1  0  0  0  0
 44 49  1  6  0  0  0
 44 41  1  0  0  0  0
 45 46  1  6  0  0  0
 45 39  1  0  0  0  0
 47 49  1  0  0  0  0
 49 48  1  0  0  0  0
M  END
>  <MODEL>
6

>  <REMARK>
 VINA RESULT:      -6.6      3.588      8.098
  Name = 
  19 active torsions:
  status: ('A' for Active; 'I' for Inactive)
    1  A    between atoms: C_2  and  O_7
    2  A    between atoms: C_2  and  N_35
    3  A    between atoms: C_3  and  C_12
    4  A    between atoms: S_4  and  C_27
    5  A    between atoms: S_4  and  C_32
    6  A    between atoms: O_7  and  C_10
    7  A    between atoms: C_8  and  C_46
    8  A    between atoms: C_9  and  C_25
    9  A    between atoms: C_9  and  C_43
   10  A    between atoms: C_10  and  C_24
   11  A    between atoms: C_12  and  C_36
   12  A    between atoms: N_14  and  C_25
   13  A    between atoms: C_24  and  C_43
   14  A    between atoms: C_24  and  C_46
   15  A    between atoms: C_28  and  S_41
   16  A    between atoms: CA_30  and  C_45
   17  A    between atoms: C_31  and  S_41
   18  A    between atoms: C_39  and  C_42
   19  A    between atoms: C_42  and  C_49
                            x       y       z     vdW  Elec       q    Type
                         _______ _______ _______ _____ _____    ______ ____

>  <TORSDO>
F 19

$$$$
=
 OpenBabel11032419403D

 49 51  0  0  1  0  0  0  0  0999 V2000
  189.1070  176.4400  136.6610 C   0  0  2  0  0  3  0  0  0  0  0  0
  190.9210  176.4250  135.1560 O   0  0  0  0  0  0  0  0  0  0  0  0
  190.2880  175.7840  135.9850 C   0  0  0  0  0  0  0  0  0  0  0  0
  190.7530  174.4050  136.3610 C   0  0  0  0  0  2  0  0  0  0  0  0
  192.2550  174.3610  136.6220 C   0  0  0  0  0  2  0  0  0  0  0  0
  192.5840  175.0590  137.8560 N   0  0  0  0  0  2  0  0  0  0  0  0
  193.4770  176.1800  137.8900 C   0  0  0  0  0  0  0  0  0  0  0  0
  193.9680  176.6360  136.8370 O   0  0  0  0  0  0  0  0  0  0  0  0
  193.8200  176.7560  139.1100 O   0  0  0  0  0  1  0  0  0  0  0  0
  189.5600  177.3520  137.7700 C   0  0  0  0  0  0  0  0  0  0  0  0
  189.4140  178.6040  137.6290 O   0  0  0  0  0  0  0  0  0  0  0  0
  190.0960  176.8540  138.9680 O   0  0  0  0  0  0  0  0  0  0  0  0
  190.0410  177.5210  140.2300 C   0  0  2  0  0  3  0  0  0  0  0  0
  191.0180  176.8810  141.2090 C   0  0  0  0  0  1  0  0  0  0  0  0
  188.9330  179.2470  142.2560 O   0  0  0  0  0  0  0  0  0  0  0  0
  188.6960  177.4550  140.7860 N   0  0  0  0  0  2  0  0  0  0  0  0
  188.2940  178.2120  141.9180 C   0  0  0  0  0  0  0  0  0  0  0  0
  187.0670  177.7810  142.6730 C   0  0  0  0  0  2  0  0  0  0  0  0
  188.8660  176.6510  143.8660 N   0  0  0  0  0  0  0  0  0  0  0  0
  188.5440  177.8480  145.8070 N   0  0  0  0  0  2  0  0  0  0  0  0
  189.4160  177.1340  144.9410 C   0  0  0  0  0  0  0  0  0  0  0  0
  186.2040  178.1340  145.6050 O   0  0  0  0  0  0  0  0  0  0  0  0
  187.4320  176.9310  143.8810 C   0  0  1  0  0  3  0  0  0  0  0  0
  187.2920  177.7110  145.1350 C   0  0  0  0  0  0  0  0  0  0  0  0
  191.1630  177.0040  145.2490 S   0  0  0  0  0  0  0  0  0  0  0  0
  192.1250  176.0150  147.5860 C   0  0  0  0  0  1  0  0  0  0  0  0
  190.9350  176.7690  147.0310 C   0  0  0  0  0  2  0  0  0  0  0  0
  188.0330  175.4710  137.1710 C   0  0  0  0  0  2  0  0  0  0  0  0
  185.5610  174.8660  136.7680 C   0  0  0  0  0  0  0  0  0  0  0  0
  186.6140  175.8080  136.7980 C   0  0  0  0  0  0  0  0  0  0  0  0
  185.1270  177.4930  135.8690 C   0  0  0  0  0  3  0  0  0  0  0  0
  186.3880  177.1010  136.3090 C   0  0  0  0  0  3  0  0  0  0  0  0
  184.0580  176.5960  135.9230 C   0  0  0  0  0  0  0  0  0  0  0  0
  184.2850  175.2850  136.3560 C   0  0  0  0  0  3  0  0  0  0  0  0
  185.8060  173.4040  137.0380 C   0  0  2  0  0  3  0  0  0  0  0  0
  186.2590  172.6730  135.7870 C   0  0  0  0  0  1  0  0  0  0  0  0
  184.0740  171.7350  136.8400 O   0  0  0  0  0  1  0  0  0  0  0  0
  184.6520  172.6640  137.7100 C   0  0  0  0  0  2  0  0  0  0  0  0
  182.4240  177.0650  135.3170 S   0  0  0  0  0  0  0  0  0  0  0  0
  181.1400  179.4990  137.4840 C   0  0  0  0  0  0  0  0  0  0  0  0
  182.5920  177.7430  137.9330 N   0  0  0  0  0  2  0  0  0  0  0  0
  180.6400  181.0130  137.1440 S   0  0  0  0  0  0  0  0  0  0  0  0
  180.6160  178.3790  136.8150 N   0  0  0  0  0  2  0  0  0  0  0  0
  182.5000  179.1980  137.9640 C   0  0  2  0  0  3  0  0  0  0  0  0
  181.5940  177.3120  136.9430 C   0  0  1  0  0  0  0  0  0  0  0  0
  180.9600  176.1410  137.3670 O   0  0  0  0  0  1  0  0  0  0  0  0
  182.5270  178.8240  140.3540 O   0  0  0  0  0  1  0  0  0  0  0  0
  184.1590  180.1290  139.4230 O   0  0  0  0  0  1  0  0  0  0  0  0
  182.8090  179.7580  139.3520 C   0  0  0  0  0  3  0  0  0  0  0  0
  1 28  1  1  0  0  0
  1 10  1  0  0  0  0
  2  3  2  0  0  0  0
  3  4  1  0  0  0  0
  3  1  1  0  0  0  0
  4  5  1  0  0  0  0
  5  6  1  0  0  0  0
  6  7  1  0  0  0  0
  7  9  1  0  0  0  0
  8  7  2  0  0  0  0
 10 12  1  0  0  0  0
 11 10  2  0  0  0  0
 12 13  1  0  0  0  0
 13 16  1  0  0  0  0
 13 14  1  1  0  0  0
 16 17  1  0  0  0  0
 17 15  2  0  0  0  0
 17 18  1  0  0  0  0
 19 23  1  0  0  0  0
 19 21  2  0  0  0  0
 21 25  1  0  0  0  0
 21 20  1  0  0  0  0
 23 18  1  6  0  0  0
 23 24  1  0  0  0  0
 24 22  2  0  0  0  0
 24 20  1  0  0  0  0
 25 27  1  0  0  0  0
 27 26  1  0  0  0  0
 29 30  1  0  0  0  0
 29 35  1  0  0  0  0
 30 28  1  0  0  0  0
 31 33  2  0  0  0  0
 31 32  1  0  0  0  0
 32 30  2  0  0  0  0
 33 34  1  0  0  0  0
 34 29  2  0  0  0  0
 35 36  1  6  0  0  0
 35 38  1  0  0  0  0
 37 38  1  0  0  0  0
 39 33  1  0  0  0  0
 39 45  1  0  0  0  0
 40 44  1  0  0  0  0
 41 44  1  0  0  0  0
 42 40  2  0  0  0  0
 43 45  1  0  0  0  0
 43 40  1  0  0  0  0
 44 49  1  1  0  0  0
 45 46  1  1  0  0  0
 45 41  1  0  0  0  0
 49 48  1  0  0  0  0
 49 47  1  0  0  0  0
M  END
>  <MODEL>
7

>  <REMARK>
 VINA RESULT:      -6.6      3.428      9.934
  Name = 
  19 active torsions:
  status: ('A' for Active; 'I' for Inactive)
    1  A    between atoms: C_2  and  O_7
    2  A    between atoms: C_2  and  N_35
    3  A    between atoms: C_3  and  C_12
    4  A    between atoms: S_4  and  C_27
    5  A    between atoms: S_4  and  C_32
    6  A    between atoms: O_7  and  C_10
    7  A    between atoms: C_8  and  C_46
    8  A    between atoms: C_9  and  C_25
    9  A    between atoms: C_9  and  C_43
   10  A    between atoms: C_10  and  C_24
   11  A    between atoms: C_12  and  C_36
   12  A    between atoms: N_14  and  C_25
   13  A    between atoms: C_24  and  C_43
   14  A    between atoms: C_24  and  C_46
   15  A    between atoms: C_28  and  S_41
   16  A    between atoms: CA_30  and  C_45
   17  A    between atoms: C_31  and  S_41
   18  A    between atoms: C_39  and  C_42
   19  A    between atoms: C_42  and  C_49
                            x       y       z     vdW  Elec       q    Type
                         _______ _______ _______ _____ _____    ______ ____

>  <TORSDO>
F 19

$$$$
=
 OpenBabel11032419403D

 49 51  0  0  1  0  0  0  0  0999 V2000
  183.8590  179.3020  140.4280 C   0  0  2  0  0  3  0  0  0  0  0  0
  184.7310  180.1490  138.4100 O   0  0  0  0  0  0  0  0  0  0  0  0
  184.4420  179.1430  139.0440 C   0  0  0  0  0  0  0  0  0  0  0  0
  184.7520  177.7910  138.4630 C   0  0  0  0  0  2  0  0  0  0  0  0
  185.9950  177.8210  137.5800 C   0  0  0  0  0  2  0  0  0  0  0  0
  187.2030  177.7750  138.3890 N   0  0  0  0  0  2  0  0  0  0  0  0
  188.3310  178.6240  138.1360 C   0  0  0  0  0  0  0  0  0  0  0  0
  188.2920  179.4820  137.2310 O   0  0  0  0  0  0  0  0  0  0  0  0
  189.4920  178.4760  138.8900 O   0  0  0  0  0  1  0  0  0  0  0  0
  184.7710  178.7070  141.4690 C   0  0  0  0  0  0  0  0  0  0  0  0
  186.0060  178.9900  141.4310 O   0  0  0  0  0  0  0  0  0  0  0  0
  184.2840  177.8880  142.4990 O   0  0  0  0  0  0  0  0  0  0  0  0
  184.1010  178.2990  143.8550 C   0  0  2  0  0  3  0  0  0  0  0  0
  183.6280  179.7470  143.9090 C   0  0  0  0  0  1  0  0  0  0  0  0
  184.4410  178.6320  146.6990 O   0  0  0  0  0  0  0  0  0  0  0  0
  185.3470  178.1760  144.6010 N   0  0  0  0  0  2  0  0  0  0  0  0
  185.4660  178.5490  145.9660 C   0  0  0  0  0  0  0  0  0  0  0  0
  186.8400  178.7960  146.5270 C   0  0  0  0  0  2  0  0  0  0  0  0
  188.6020  177.5430  145.4040 N   0  0  0  0  0  0  0  0  0  0  0  0
  189.9630  177.4860  147.2610 N   0  0  0  0  0  2  0  0  0  0  0  0
  189.8240  177.4870  145.8460 C   0  0  0  0  0  0  0  0  0  0  0  0
  188.2510  177.4250  148.8930 O   0  0  0  0  0  0  0  0  0  0  0  0
  187.6710  177.5220  146.5290 C   0  0  1  0  0  3  0  0  0  0  0  0
  188.6010  177.5030  147.6850 C   0  0  0  0  0  0  0  0  0  0  0  0
  191.2270  177.5210  144.7530 S   0  0  0  0  0  0  0  0  0  0  0  0
  190.3180  175.6340  143.0280 C   0  0  0  0  0  1  0  0  0  0  0  0
  190.2290  177.1220  143.2940 C   0  0  0  0  0  2  0  0  0  0  0  0
  182.4330  178.7630  140.5970 C   0  0  0  0  0  2  0  0  0  0  0  0
  181.2900  178.1910  138.3600 C   0  0  0  0  0  0  0  0  0  0  0  0
  181.9650  177.8000  139.5380 C   0  0  0  0  0  0  0  0  0  0  0  0
  181.6150  175.4640  138.9600 C   0  0  0  0  0  3  0  0  0  0  0  0
  182.0830  176.4380  139.8390 C   0  0  0  0  0  3  0  0  0  0  0  0
  181.0300  175.8400  137.7490 C   0  0  0  0  0  0  0  0  0  0  0  0
  180.8560  177.1990  137.4650 C   0  0  0  0  0  3  0  0  0  0  0  0
  180.9100  179.6280  138.1100 C   0  0  2  0  0  3  0  0  0  0  0  0
  179.5610  179.9620  138.7210 C   0  0  0  0  0  1  0  0  0  0  0  0
  180.7560  181.4480  136.5340 O   0  0  0  0  0  1  0  0  0  0  0  0
  180.9710  180.0720  136.6520 C   0  0  0  0  0  2  0  0  0  0  0  0
  180.3760  174.5990  136.6140 S   0  0  0  0  0  0  0  0  0  0  0  0
  182.5590  172.1020  135.4890 C   0  0  0  0  0  0  0  0  0  0  0  0
  183.0380  174.1130  136.5480 N   0  0  0  0  0  2  0  0  0  0  0  0
  182.2830  170.5060  135.3040 S   0  0  0  0  0  0  0  0  0  0  0  0
  181.7450  173.0700  134.8750 N   0  0  0  0  0  2  0  0  0  0  0  0
  183.1730  172.6700  136.7020 C   0  0  2  0  0  3  0  0  0  0  0  0
  181.9040  174.3010  135.6300 C   0  0  1  0  0  0  0  0  0  0  0  0
  182.1550  175.3610  134.7550 O   0  0  0  0  0  1  0  0  0  0  0  0
  185.3890  172.4450  135.7590 O   0  0  0  0  0  1  0  0  0  0  0  0
  185.1830  172.9950  137.9690 O   0  0  0  0  0  1  0  0  0  0  0  0
  184.6280  172.2550  136.9160 C   0  0  0  0  0  3  0  0  0  0  0  0
  1 28  1  6  0  0  0
  1 10  1  0  0  0  0
  2  3  2  0  0  0  0
  3  1  1  0  0  0  0
  4  3  1  0  0  0  0
  5  6  1  0  0  0  0
  5  4  1  0  0  0  0
  7  6  1  0  0  0  0
  7  9  1  0  0  0  0
  8  7  2  0  0  0  0
 10 12  1  0  0  0  0
 11 10  2  0  0  0  0
 12 13  1  0  0  0  0
 13 14  1  6  0  0  0
 13 16  1  0  0  0  0
 16 17  1  0  0  0  0
 17 18  1  0  0  0  0
 17 15  2  0  0  0  0
 19 21  2  0  0  0  0
 19 23  1  0  0  0  0
 20 24  1  0  0  0  0
 21 20  1  0  0  0  0
 23 18  1  1  0  0  0
 23 24  1  0  0  0  0
 24 22  2  0  0  0  0
 25 21  1  0  0  0  0
 26 27  1  0  0  0  0
 27 25  1  0  0  0  0
 29 30  1  0  0  0  0
 30 32  2  0  0  0  0
 30 28  1  0  0  0  0
 31 32  1  0  0  0  0
 33 31  2  0  0  0  0
 34 33  1  0  0  0  0
 34 29  2  0  0  0  0
 35 29  1  0  0  0  0
 35 36  1  6  0  0  0
 37 38  1  0  0  0  0
 38 35  1  0  0  0  0
 39 33  1  0  0  0  0
 40 44  1  0  0  0  0
 41 44  1  0  0  0  0
 42 40  2  0  0  0  0
 43 40  1  0  0  0  0
 43 45  1  0  0  0  0
 44 49  1  6  0  0  0
 45 46  1  6  0  0  0
 45 41  1  0  0  0  0
 45 39  1  0  0  0  0
 47 49  1  0  0  0  0
 49 48  1  0  0  0  0
M  END
>  <MODEL>
8

>  <REMARK>
 VINA RESULT:      -6.6      3.509      9.504
  Name = 
  19 active torsions:
  status: ('A' for Active; 'I' for Inactive)
    1  A    between atoms: C_2  and  O_7
    2  A    between atoms: C_2  and  N_35
    3  A    between atoms: C_3  and  C_12
    4  A    between atoms: S_4  and  C_27
    5  A    between atoms: S_4  and  C_32
    6  A    between atoms: O_7  and  C_10
    7  A    between atoms: C_8  and  C_46
    8  A    between atoms: C_9  and  C_25
    9  A    between atoms: C_9  and  C_43
   10  A    between atoms: C_10  and  C_24
   11  A    between atoms: C_12  and  C_36
   12  A    between atoms: N_14  and  C_25
   13  A    between atoms: C_24  and  C_43
   14  A    between atoms: C_24  and  C_46
   15  A    between atoms: C_28  and  S_41
   16  A    between atoms: CA_30  and  C_45
   17  A    between atoms: C_31  and  S_41
   18  A    between atoms: C_39  and  C_42
   19  A    between atoms: C_42  and  C_49
                            x       y       z     vdW  Elec       q    Type
                         _______ _______ _______ _____ _____    ______ ____

>  <TORSDO>
F 19

$$$$
=
 OpenBabel11032419403D

 49 51  0  0  1  0  0  0  0  0999 V2000
  190.9540  175.2620  136.9350 C   0  0  2  0  0  3  0  0  0  0  0  0
  191.8840  176.2350  135.0010 O   0  0  0  0  0  0  0  0  0  0  0  0
  192.0990  175.8460  136.1410 C   0  0  0  0  0  0  0  0  0  0  0  0
  193.4640  176.0370  136.7400 C   0  0  0  0  0  2  0  0  0  0  0  0
  193.7500  175.0230  137.8430 C   0  0  0  0  0  2  0  0  0  0  0  0
  195.0650  175.2490  138.4230 N   0  0  0  0  0  2  0  0  0  0  0  0
  195.8130  174.2060  139.0620 C   0  0  0  0  0  0  0  0  0  0  0  0
  195.3760  173.0380  139.0960 O   0  0  0  0  0  0  0  0  0  0  0  0
  197.0290  174.5000  139.6730 O   0  0  0  0  0  1  0  0  0  0  0  0
  190.4460  173.9960  136.2970 C   0  0  0  0  0  0  0  0  0  0  0  0
  191.1720  172.9570  136.3400 O   0  0  0  0  0  0  0  0  0  0  0  0
  189.1790  173.9250  135.6970 O   0  0  0  0  0  0  0  0  0  0  0  0
  188.0590  173.2160  136.2300 C   0  0  2  0  0  3  0  0  0  0  0  0
  187.7370  172.0060  135.3610 C   0  0  0  0  0  1  0  0  0  0  0  0
  185.7550  172.8600  137.9260 O   0  0  0  0  0  0  0  0  0  0  0  0
  186.8890  174.0820  136.2970 N   0  0  0  0  0  2  0  0  0  0  0  0
  185.7140  173.7300  137.0120 C   0  0  0  0  0  0  0  0  0  0  0  0
  184.4320  174.4490  136.6870 C   0  0  0  0  0  2  0  0  0  0  0  0
  183.4860  175.9690  138.3400 N   0  0  0  0  0  0  0  0  0  0  0  0
  181.3070  175.4530  137.7980 N   0  0  0  0  0  2  0  0  0  0  0  0
  182.2560  176.3890  138.2940 C   0  0  0  0  0  0  0  0  0  0  0  0
  181.6700  173.1940  137.1940 O   0  0  0  0  0  0  0  0  0  0  0  0
  183.5430  174.5730  137.9160 C   0  0  1  0  0  3  0  0  0  0  0  0
  182.1260  174.3070  137.5670 C   0  0  0  0  0  0  0  0  0  0  0  0
  181.8100  178.0580  138.7160 S   0  0  0  0  0  0  0  0  0  0  0  0
  184.0820  178.8560  139.9680 C   0  0  0  0  0  1  0  0  0  0  0  0
  183.5150  178.6570  138.5780 C   0  0  0  0  0  2  0  0  0  0  0  0
  189.7930  176.2270  137.2030 C   0  0  0  0  0  2  0  0  0  0  0  0
  188.7190  177.6940  139.0290 C   0  0  0  0  0  0  0  0  0  0  0  0
  189.6830  176.7490  138.6110 C   0  0  0  0  0  0  0  0  0  0  0  0
  190.7360  176.8610  140.7990 C   0  0  0  0  0  3  0  0  0  0  0  0
  190.7030  176.3760  139.4940 C   0  0  0  0  0  3  0  0  0  0  0  0
  189.7350  177.7230  141.2510 C   0  0  0  0  0  0  0  0  0  0  0  0
  188.7430  178.1470  140.3590 C   0  0  0  0  0  3  0  0  0  0  0  0
  187.7580  178.3220  138.0530 C   0  0  2  0  0  3  0  0  0  0  0  0
  186.7210  177.3230  137.5700 C   0  0  0  0  0  1  0  0  0  0  0  0
  188.1630  178.3670  135.6750 O   0  0  0  0  0  1  0  0  0  0  0  0
  188.4060  179.0430  136.8740 C   0  0  0  0  0  2  0  0  0  0  0  0
  189.7800  178.4000  142.9220 S   0  0  0  0  0  0  0  0  0  0  0  0
  187.0760  177.7170  145.0420 C   0  0  0  0  0  0  0  0  0  0  0  0
  189.2860  177.0210  145.2000 N   0  0  0  0  0  2  0  0  0  0  0  0
  185.7350  178.6040  145.3120 S   0  0  0  0  0  0  0  0  0  0  0  0
  187.4550  177.3240  143.7460 N   0  0  0  0  0  2  0  0  0  0  0  0
  188.2680  177.7890  145.9050 C   0  0  2  0  0  3  0  0  0  0  0  0
  188.8810  177.0440  143.7870 C   0  0  1  0  0  0  0  0  0  0  0  0
  189.1350  175.8080  143.1860 O   0  0  0  0  0  1  0  0  0  0  0  0
  189.0950  176.4460  147.7390 O   0  0  0  0  0  1  0  0  0  0  0  0
  187.9090  178.3440  148.2110 O   0  0  0  0  0  1  0  0  0  0  0  0
  188.0420  177.2670  147.3230 C   0  0  0  0  0  3  0  0  0  0  0  0
  1 28  1  6  0  0  0
  2  3  2  0  0  0  0
  3  4  1  0  0  0  0
  3  1  1  0  0  0  0
  4  5  1  0  0  0  0
  5  6  1  0  0  0  0
  6  7  1  0  0  0  0
  7  8  2  0  0  0  0
  7  9  1  0  0  0  0
 10 11  2  0  0  0  0
 10  1  1  0  0  0  0
 12 13  1  0  0  0  0
 12 10  1  0  0  0  0
 13 14  1  6  0  0  0
 13 16  1  0  0  0  0
 16 17  1  0  0  0  0
 17 15  2  0  0  0  0
 18 17  1  0  0  0  0
 20 21  1  0  0  0  0
 21 19  2  0  0  0  0
 21 25  1  0  0  0  0
 22 24  2  0  0  0  0
 23 18  1  6  0  0  0
 23 19  1  0  0  0  0
 24 20  1  0  0  0  0
 24 23  1  0  0  0  0
 27 25  1  0  0  0  0
 27 26  1  0  0  0  0
 28 30  1  0  0  0  0
 29 34  1  0  0  0  0
 30 29  2  0  0  0  0
 30 32  1  0  0  0  0
 31 33  1  0  0  0  0
 32 31  2  0  0  0  0
 33 39  1  0  0  0  0
 34 33  2  0  0  0  0
 35 36  1  6  0  0  0
 35 29  1  0  0  0  0
 37 38  1  0  0  0  0
 38 35  1  0  0  0  0
 39 45  1  0  0  0  0
 40 42  2  0  0  0  0
 40 44  1  0  0  0  0
 41 44  1  0  0  0  0
 43 45  1  0  0  0  0
 43 40  1  0  0  0  0
 44 49  1  1  0  0  0
 45 46  1  6  0  0  0
 45 41  1  0  0  0  0
 49 47  1  0  0  0  0
 49 48  1  0  0  0  0
M  END
>  <MODEL>
9

>  <REMARK>
 VINA RESULT:      -6.5      3.446      8.324
  Name = 
  19 active torsions:
  status: ('A' for Active; 'I' for Inactive)
    1  A    between atoms: C_2  and  O_7
    2  A    between atoms: C_2  and  N_35
    3  A    between atoms: C_3  and  C_12
    4  A    between atoms: S_4  and  C_27
    5  A    between atoms: S_4  and  C_32
    6  A    between atoms: O_7  and  C_10
    7  A    between atoms: C_8  and  C_46
    8  A    between atoms: C_9  and  C_25
    9  A    between atoms: C_9  and  C_43
   10  A    between atoms: C_10  and  C_24
   11  A    between atoms: C_12  and  C_36
   12  A    between atoms: N_14  and  C_25
   13  A    between atoms: C_24  and  C_43
   14  A    between atoms: C_24  and  C_46
   15  A    between atoms: C_28  and  S_41
   16  A    between atoms: CA_30  and  C_45
   17  A    between atoms: C_31  and  S_41
   18  A    between atoms: C_39  and  C_42
   19  A    between atoms: C_42  and  C_49
                            x       y       z     vdW  Elec       q    Type
                         _______ _______ _______ _____ _____    ______ ____

>  <TORSDO>
F 19

$$$$
