=
 OpenBabel11042413133D

 56 60  0  0  1  0  0  0  0  0999 V2000
  185.3390  176.5610  137.2310 N   0  0  0  0  0  2  0  0  0  0  0  0
  186.7220  176.2070  137.2090 C   0  0  0  0  0  0  0  0  0  0  0  0
  187.0850  175.0310  137.4800 O   0  0  0  0  0  0  0  0  0  0  0  0
  187.0530  178.5660  136.4850 C   0  0  0  0  0  1  0  0  0  0  0  0
  187.7230  177.2330  136.7860 C   0  0  1  0  0  3  0  0  0  0  0  0
  188.7830  177.4020  137.8600 C   0  0  0  0  0  2  0  0  0  0  0  0
  187.5460  179.0480  141.6880 O   0  0  0  0  0  0  0  0  0  0  0  0
  188.1590  177.8190  139.1440 C   0  0  0  0  0  0  0  0  0  0  0  0
  186.9880  178.2760  139.1430 O   0  0  0  0  0  0  0  0  0  0  0  0
  188.8820  177.6570  140.3660 N   0  0  0  0  0  2  0  0  0  0  0  0
  188.5010  178.2260  141.6220 C   0  0  0  0  0  0  0  0  0  0  0  0
  188.3910  175.6520  142.7120 O   0  0  0  0  0  0  0  0  0  0  0  0
  192.2240  178.9030  144.6290 F   0  0  0  0  0  0  0  0  0  0  0  0
  191.9000  176.1330  145.6200 O   0  0  0  0  0  1  0  0  0  0  0  0
  190.9260  176.8770  144.9580 C   0  0  1  0  0  0  0  0  0  0  0  0
  189.2150  176.4390  143.2460 C   0  0  0  0  0  0  0  0  0  0  0  0
  191.3880  177.9030  141.6070 O   0  0  0  0  0  1  0  0  0  0  0  0
  191.6300  177.8380  143.9750 C   0  0  1  0  0  3  0  0  0  0  0  0
  189.3050  177.8820  142.8460 C   0  0  1  0  0  3  0  0  0  0  0  0
  190.0600  175.9800  144.2530 O   0  0  0  0  0  0  0  0  0  0  0  0
  190.7800  178.3350  142.7880 C   0  0  2  0  0  3  0  0  0  0  0  0
  190.1190  177.6700  145.9880 C   0  0  0  0  0  2  0  0  0  0  0  0
  188.9810  176.9560  146.3690 O   0  0  0  0  0  0  0  0  0  0  0  0
  185.7760  179.3910  146.5930 O   0  0  0  0  0  0  0  0  0  0  0  0
  187.7730  178.5520  147.7580 C   0  0  2  0  0  3  0  0  0  0  0  0
  186.6450  177.2650  145.8600 C   0  0  0  0  0  2  0  0  0  0  0  0
  187.7370  177.5140  148.8720 C   0  0  0  0  0  1  0  0  0  0  0  0
  186.4810  179.3870  147.8190 C   0  0  0  0  0  2  0  0  0  0  0  0
  185.4200  178.0570  146.3350 C   0  0  0  0  0  2  0  0  0  0  0  0
  187.9450  177.8930  146.3750 C   0  0  2  0  0  3  0  0  0  0  0  0
  184.2870  175.6060  137.5530 C   0  0  0  0  0  2  0  0  0  0  0  0
  183.3510  176.1790  138.5990 C   0  0  0  0  0  2  0  0  0  0  0  0
  183.9800  177.2290  139.2740 O   0  0  0  0  0  0  0  0  0  0  0  0
  178.9310  179.1880  136.0430 C   0  0  0  0  0  2  0  0  0  0  0  0
  179.6290  177.2000  141.1280 C   0  0  0  0  0  2  0  0  0  0  0  0
  180.3480  178.5240  140.9190 C   0  0  0  0  0  2  0  0  0  0  0  0
  181.4120  179.1590  137.1430 C   0  0  1  0  0  3  0  0  0  0  0  0
  178.9340  176.8060  136.7640 N   0  0  0  0  0  2  0  0  0  0  0  0
  179.6250  177.8250  135.9710 C   0  0  2  0  0  3  0  0  0  0  0  0
  182.7830  178.9020  143.8080 C   0  0  0  0  0  3  0  0  0  0  0  0
  184.0120  178.7130  143.1760 C   0  0  0  0  0  3  0  0  0  0  0  0
  181.1240  177.9180  136.2960 C   0  0  0  0  0  2  0  0  0  0  0  0
  182.8760  178.3720  141.0550 C   0  0  0  0  0  0  0  0  0  0  0  0
  182.9060  179.3280  137.3630 C   0  0  0  0  0  2  0  0  0  0  0  0
  182.9570  178.1370  139.5730 C   0  0  1  0  0  3  0  0  0  0  0  0
  184.0570  178.4550  141.8060 C   0  0  0  0  0  3  0  0  0  0  0  0
  179.0510  177.0850  138.1950 C   0  0  0  0  0  2  0  0  0  0  0  0
  181.6310  178.5720  141.6940 C   0  0  0  0  0  0  0  0  0  0  0  0
  181.5970  178.8360  143.0770 C   0  0  0  0  0  0  0  0  0  0  0  0
  183.2040  179.4590  138.8490 C   0  0  0  0  0  2  0  0  0  0  0  0
  180.1960  176.1650  140.2790 N   0  0  0  0  0  2  0  0  0  0  0  0
  180.4510  175.1320  138.2160 O   0  0  0  0  0  0  0  0  0  0  0  0
  180.3830  179.0310  143.7320 O   0  0  0  0  0  1  0  0  0  0  0  0
  180.7920  180.4300  136.5340 C   0  0  0  0  0  2  0  0  0  0  0  0
  179.8020  180.1770  135.5520 O   0  0  0  0  0  0  0  0  0  0  0  0
  179.9420  176.0810  138.8740 C   0  0  0  0  0  0  0  0  0  0  0  0
  1 31  1  0  0  0  0
  2  1  1  0  0  0  0
  2  3  2  0  0  0  0
  5  4  1  1  0  0  0
  5  2  1  0  0  0  0
  5  6  1  0  0  0  0
  6  8  1  0  0  0  0
  8 10  1  0  0  0  0
  9  8  2  0  0  0  0
 10 11  1  0  0  0  0
 11  7  2  0  0  0  0
 12 16  2  0  0  0  0
 15 14  1  1  0  0  0
 15 22  1  0  0  0  0
 16 20  1  0  0  0  0
 18 13  1  1  0  0  0
 18 15  1  0  0  0  0
 19 11  1  6  0  0  0
 19 16  1  0  0  0  0
 20 15  1  0  0  0  0
 21 17  1  6  0  0  0
 21 19  1  0  0  0  0
 21 18  1  0  0  0  0
 22 23  1  0  0  0  0
 24 28  1  0  0  0  0
 25 28  1  0  0  0  0
 25 27  1  1  0  0  0
 26 29  1  0  0  0  0
 26 30  1  0  0  0  0
 29 24  1  0  0  0  0
 30 23  1  1  0  0  0
 30 25  1  0  0  0  0
 31 32  1  0  0  0  0
 32 33  1  0  0  0  0
 36 35  1  0  0  0  0
 36 48  1  0  0  0  0
 37 42  1  6  0  0  0
 37 44  1  0  0  0  0
 38 47  1  0  0  0  0
 39 34  1  1  0  0  0
 39 42  1  0  0  0  0
 39 38  1  0  0  0  0
 41 40  1  0  0  0  0
 43 48  2  0  0  0  0
 43 46  1  0  0  0  0
 44 50  1  0  0  0  0
 45 33  1  1  0  0  0
 45 43  1  0  0  0  0
 46 41  2  0  0  0  0
 47 56  1  0  0  0  0
 48 49  1  0  0  0  0
 49 53  1  0  0  0  0
 49 40  2  0  0  0  0
 50 45  1  0  0  0  0
 51 35  1  0  0  0  0
 52 56  2  0  0  0  0
 54 37  1  0  0  0  0
 55 34  1  0  0  0  0
 55 54  1  0  0  0  0
 56 51  1  0  0  0  0
M  END
>  <MODEL>
1

>  <REMARK>
 VINA RESULT:      -9.0      0.000      0.000
  Name = 
  11 active torsions:
  status: ('A' for Active; 'I' for Inactive)
    1  A    between atoms: N_1  and  C_24
    2  A    between atoms: C_8  and  C_30
    3  A    between atoms: C_10  and  C_35
    4  A    between atoms: C_20  and  C_49
    5  A    between atoms: C_24  and  C_51
    6  A    between atoms: C_25  and  O_39
    7  A    between atoms: C_30  and  C_35
    8  A    between atoms: O_39  and  C_51
    9  A    between atoms: C_40  and  C_50
   10  A    between atoms: C_46  and  O_54
   11  A    between atoms: C_49  and  O_54
                            x       y       z     vdW  Elec       q    Type
                         _______ _______ _______ _____ _____    ______ ____

>  <TORSDO>
F 11

$$$$
=
 OpenBabel11042413133D

 56 60  0  0  1  0  0  0  0  0999 V2000
  186.6050  176.3350  135.9410 N   0  0  0  0  0  2  0  0  0  0  0  0
  187.4830  177.4440  135.7450 C   0  0  0  0  0  0  0  0  0  0  0  0
  187.1670  178.3760  134.9570 O   0  0  0  0  0  0  0  0  0  0  0  0
  189.0430  178.9450  136.9730 C   0  0  0  0  0  1  0  0  0  0  0  0
  188.7450  177.5170  136.5420 C   0  0  1  0  0  3  0  0  0  0  0  0
  188.6520  176.6050  137.7520 C   0  0  0  0  0  2  0  0  0  0  0  0
  187.8790  179.1230  141.2100 O   0  0  0  0  0  0  0  0  0  0  0  0
  188.1610  177.3610  138.9350 C   0  0  0  0  0  0  0  0  0  0  0  0
  187.1040  178.0350  138.8430 O   0  0  0  0  0  0  0  0  0  0  0  0
  188.8730  177.2790  140.1720 N   0  0  0  0  0  2  0  0  0  0  0  0
  188.6490  178.1270  141.3010 C   0  0  0  0  0  0  0  0  0  0  0  0
  188.3430  175.6870  142.6350 O   0  0  0  0  0  0  0  0  0  0  0  0
  192.3550  178.8500  144.3200 F   0  0  0  0  0  0  0  0  0  0  0  0
  191.8220  176.2200  145.5690 O   0  0  0  0  0  1  0  0  0  0  0  0
  190.9140  176.9570  144.8130 C   0  0  1  0  0  0  0  0  0  0  0  0
  189.2090  176.4670  143.1100 C   0  0  0  0  0  0  0  0  0  0  0  0
  191.5070  177.6120  141.3910 O   0  0  0  0  0  1  0  0  0  0  0  0
  191.7000  177.7670  143.7590 C   0  0  1  0  0  3  0  0  0  0  0  0
  189.4060  177.8540  142.5720 C   0  0  1  0  0  3  0  0  0  0  0  0
  190.0010  176.0550  144.1780 O   0  0  0  0  0  0  0  0  0  0  0  0
  190.9090  178.1990  142.5080 C   0  0  2  0  0  3  0  0  0  0  0  0
  190.1450  177.9010  145.7400 C   0  0  0  0  0  2  0  0  0  0  0  0
  189.1240  177.2110  146.3990 O   0  0  0  0  0  0  0  0  0  0  0  0
  185.7340  179.3920  146.4840 O   0  0  0  0  0  0  0  0  0  0  0  0
  187.6980  178.6420  147.7610 C   0  0  2  0  0  3  0  0  0  0  0  0
  186.8170  177.3760  145.7240 C   0  0  0  0  0  2  0  0  0  0  0  0
  187.6590  177.5480  148.8200 C   0  0  0  0  0  1  0  0  0  0  0  0
  186.3450  179.3770  147.7600 C   0  0  0  0  0  2  0  0  0  0  0  0
  185.5020  178.0510  146.1380 C   0  0  0  0  0  2  0  0  0  0  0  0
  188.0220  178.0690  146.3670 C   0  0  2  0  0  3  0  0  0  0  0  0
  185.3190  176.2200  135.2680 C   0  0  0  0  0  2  0  0  0  0  0  0
  184.2160  176.8020  136.1290 C   0  0  0  0  0  2  0  0  0  0  0  0
  184.4230  176.4550  137.4670 O   0  0  0  0  0  0  0  0  0  0  0  0
  178.9310  179.0300  139.1930 C   0  0  0  0  0  2  0  0  0  0  0  0
  180.2960  175.0770  135.6140 C   0  0  0  0  0  2  0  0  0  0  0  0
  180.6370  174.7040  137.0480 C   0  0  0  0  0  2  0  0  0  0  0  0
  181.3700  177.8510  139.3620 C   0  0  1  0  0  3  0  0  0  0  0  0
  179.5780  179.2890  136.8040 N   0  0  0  0  0  2  0  0  0  0  0  0
  179.9530  179.5740  138.1910 C   0  0  2  0  0  3  0  0  0  0  0  0
  182.9870  171.7260  136.8620 C   0  0  0  0  0  3  0  0  0  0  0  0
  184.2000  172.2920  137.2540 C   0  0  0  0  0  3  0  0  0  0  0  0
  181.3870  179.1310  138.5240 C   0  0  0  0  0  2  0  0  0  0  0  0
  183.1210  174.4560  137.4990 C   0  0  0  0  0  0  0  0  0  0  0  0
  182.7750  177.4760  139.8020 C   0  0  0  0  0  2  0  0  0  0  0  0
  183.2090  175.9020  137.8940 C   0  0  1  0  0  3  0  0  0  0  0  0
  184.2640  173.6480  137.5760 C   0  0  0  0  0  3  0  0  0  0  0  0
  179.6680  177.8590  136.5180 C   0  0  0  0  0  2  0  0  0  0  0  0
  181.8890  173.8800  137.1100 C   0  0  0  0  0  0  0  0  0  0  0  0
  181.8350  172.5100  136.7910 C   0  0  0  0  0  0  0  0  0  0  0  0
  183.0800  176.0380  139.4090 C   0  0  0  0  0  2  0  0  0  0  0  0
  181.0840  176.2170  135.1750 N   0  0  0  0  0  2  0  0  0  0  0  0
  181.5280  178.4950  135.1360 O   0  0  0  0  0  0  0  0  0  0  0  0
  180.6350  171.9190  136.4010 O   0  0  0  0  0  1  0  0  0  0  0  0
  180.4200  177.9630  140.5680 C   0  0  0  0  0  2  0  0  0  0  0  0
  179.4970  179.0350  140.4800 O   0  0  0  0  0  0  0  0  0  0  0  0
  180.8120  177.5590  135.5890 C   0  0  0  0  0  0  0  0  0  0  0  0
  2  1  1  0  0  0  0
  2  5  1  0  0  0  0
  3  2  2  0  0  0  0
  5  4  1  1  0  0  0
  5  6  1  0  0  0  0
  6  8  1  0  0  0  0
  7 11  2  0  0  0  0
  8 10  1  0  0  0  0
  9  8  2  0  0  0  0
 10 11  1  0  0  0  0
 12 16  2  0  0  0  0
 15 14  1  1  0  0  0
 15 22  1  0  0  0  0
 16 20  1  0  0  0  0
 18 13  1  1  0  0  0
 18 15  1  0  0  0  0
 19 11  1  6  0  0  0
 19 16  1  0  0  0  0
 20 15  1  0  0  0  0
 21 17  1  6  0  0  0
 21 19  1  0  0  0  0
 21 18  1  0  0  0  0
 22 23  1  0  0  0  0
 24 28  1  0  0  0  0
 25 27  1  1  0  0  0
 26 29  1  0  0  0  0
 26 30  1  0  0  0  0
 28 25  1  0  0  0  0
 29 24  1  0  0  0  0
 30 23  1  1  0  0  0
 30 25  1  0  0  0  0
 31  1  1  0  0  0  0
 31 32  1  0  0  0  0
 32 33  1  0  0  0  0
 34 55  1  0  0  0  0
 35 36  1  0  0  0  0
 36 48  1  0  0  0  0
 37 42  1  1  0  0  0
 37 44  1  0  0  0  0
 37 54  1  0  0  0  0
 38 39  1  0  0  0  0
 39 42  1  1  0  0  0
 39 34  1  0  0  0  0
 40 41  1  0  0  0  0
 41 46  2  0  0  0  0
 43 46  1  0  0  0  0
 43 45  1  0  0  0  0
 45 33  1  1  0  0  0
 45 50  1  0  0  0  0
 47 38  1  0  0  0  0
 48 43  2  0  0  0  0
 49 40  2  0  0  0  0
 49 48  1  0  0  0  0
 50 44  1  0  0  0  0
 51 56  1  0  0  0  0
 51 35  1  0  0  0  0
 52 56  2  0  0  0  0
 53 49  1  0  0  0  0
 55 54  1  0  0  0  0
 56 47  1  0  0  0  0
M  END
>  <MODEL>
2

>  <REMARK>
 VINA RESULT:      -8.7      1.780      3.709
  Name = 
  11 active torsions:
  status: ('A' for Active; 'I' for Inactive)
    1  A    between atoms: N_1  and  C_24
    2  A    between atoms: C_8  and  C_30
    3  A    between atoms: C_10  and  C_35
    4  A    between atoms: C_20  and  C_49
    5  A    between atoms: C_24  and  C_51
    6  A    between atoms: C_25  and  O_39
    7  A    between atoms: C_30  and  C_35
    8  A    between atoms: O_39  and  C_51
    9  A    between atoms: C_40  and  C_50
   10  A    between atoms: C_46  and  O_54
   11  A    between atoms: C_49  and  O_54
                            x       y       z     vdW  Elec       q    Type
                         _______ _______ _______ _____ _____    ______ ____

>  <TORSDO>
F 11

$$$$
=
 OpenBabel11042413133D

 56 60  0  0  1  0  0  0  0  0999 V2000
  186.6950  177.9350  141.8530 N   0  0  0  0  0  2  0  0  0  0  0  0
  187.9280  178.2680  142.4910 C   0  0  0  0  0  0  0  0  0  0  0  0
  188.6960  179.1300  141.9850 O   0  0  0  0  0  0  0  0  0  0  0  0
  187.0040  177.4140  144.6380 C   0  0  0  0  0  1  0  0  0  0  0  0
  188.2570  177.6340  143.8040 C   0  0  1  0  0  3  0  0  0  0  0  0
  188.9860  176.3210  143.5820 C   0  0  0  0  0  2  0  0  0  0  0  0
  191.8100  177.3630  140.4470 O   0  0  0  0  0  0  0  0  0  0  0  0
  190.0980  176.5030  142.6120 C   0  0  0  0  0  0  0  0  0  0  0  0
  191.2550  176.7550  143.0360 O   0  0  0  0  0  0  0  0  0  0  0  0
  189.8480  176.3480  141.2130 N   0  0  0  0  0  2  0  0  0  0  0  0
  190.7580  176.7220  140.1750 C   0  0  0  0  0  0  0  0  0  0  0  0
  189.4220  178.6040  138.5940 O   0  0  0  0  0  0  0  0  0  0  0  0
  191.3840  174.2940  136.0420 F   0  0  0  0  0  0  0  0  0  0  0  0
  189.9300  176.4260  134.5940 O   0  0  0  0  0  1  0  0  0  0  0  0
  189.8600  176.1830  135.9630 C   0  0  1  0  0  0  0  0  0  0  0  0
  189.7760  177.5480  138.0080 C   0  0  0  0  0  0  0  0  0  0  0  0
  192.7050  176.5640  138.0250 O   0  0  0  0  0  1  0  0  0  0  0  0
  191.2180  175.6120  136.4280 C   0  0  1  0  0  3  0  0  0  0  0  0
  190.3990  176.4020  138.7490 C   0  0  1  0  0  3  0  0  0  0  0  0
  189.5730  177.4140  136.6370 O   0  0  0  0  0  0  0  0  0  0  0  0
  191.5500  175.7870  137.9240 C   0  0  2  0  0  3  0  0  0  0  0  0
  188.7410  175.1740  136.2340 C   0  0  0  0  0  2  0  0  0  0  0  0
  187.7190  175.3170  135.2920 O   0  0  0  0  0  0  0  0  0  0  0  0
  184.9610  172.6470  136.5230 O   0  0  0  0  0  0  0  0  0  0  0  0
  185.3420  174.7870  135.3730 C   0  0  2  0  0  3  0  0  0  0  0  0
  187.0200  173.7950  137.0260 C   0  0  0  0  0  2  0  0  0  0  0  0
  185.0880  176.1500  136.0030 C   0  0  0  0  0  1  0  0  0  0  0  0
  184.3330  173.7790  135.9530 C   0  0  0  0  0  2  0  0  0  0  0  0
  185.7570  173.1220  137.5770 C   0  0  0  0  0  2  0  0  0  0  0  0
  186.7930  174.3190  135.6030 C   0  0  2  0  0  3  0  0  0  0  0  0
  186.2560  178.5610  140.6130 C   0  0  0  0  0  2  0  0  0  0  0  0
  184.8060  178.9920  140.7220 C   0  0  0  0  0  2  0  0  0  0  0  0
  183.9700  177.9670  140.2700 O   0  0  0  0  0  0  0  0  0  0  0  0
  179.6430  178.7560  135.7500 C   0  0  0  0  0  2  0  0  0  0  0  0
  179.4940  176.5270  140.7810 C   0  0  0  0  0  2  0  0  0  0  0  0
  179.8140  178.0130  140.8140 C   0  0  0  0  0  2  0  0  0  0  0  0
  181.6240  179.3100  137.5220 C   0  0  1  0  0  3  0  0  0  0  0  0
  180.1600  176.4090  136.3970 N   0  0  0  0  0  2  0  0  0  0  0  0
  180.7050  177.6570  135.8580 C   0  0  2  0  0  3  0  0  0  0  0  0
  181.1450  178.7570  144.2920 C   0  0  0  0  0  3  0  0  0  0  0  0
  182.4970  178.9860  144.0400 C   0  0  0  0  0  3  0  0  0  0  0  0
  181.9600  178.1320  136.6050 C   0  0  0  0  0  2  0  0  0  0  0  0
  182.1350  178.5620  141.6740 C   0  0  0  0  0  0  0  0  0  0  0  0
  182.8810  179.8670  138.1690 C   0  0  0  0  0  2  0  0  0  0  0  0
  182.6820  178.5150  140.2760 C   0  0  1  0  0  3  0  0  0  0  0  0
  182.9880  178.8950  142.7370 C   0  0  0  0  0  3  0  0  0  0  0  0
  179.7970  176.5590  137.8040 C   0  0  0  0  0  2  0  0  0  0  0  0
  180.7630  178.3380  141.9290 C   0  0  0  0  0  0  0  0  0  0  0  0
  180.2780  178.4370  143.2470 C   0  0  0  0  0  0  0  0  0  0  0  0
  182.7110  179.9210  139.6800 C   0  0  0  0  0  2  0  0  0  0  0  0
  180.5530  175.7860  140.1130 N   0  0  0  0  0  2  0  0  0  0  0  0
  181.6540  175.0860  138.1940 O   0  0  0  0  0  0  0  0  0  0  0  0
  178.9310  178.2160  143.5250 O   0  0  0  0  0  1  0  0  0  0  0  0
  180.8430  180.4120  136.7830 C   0  0  0  0  0  2  0  0  0  0  0  0
  180.2790  179.9940  135.5520 O   0  0  0  0  0  0  0  0  0  0  0  0
  180.7270  175.7810  138.6940 C   0  0  0  0  0  0  0  0  0  0  0  0
  1  2  1  0  0  0  0
  2  5  1  0  0  0  0
  3  2  2  0  0  0  0
  5  4  1  6  0  0  0
  6  5  1  0  0  0  0
  8  9  2  0  0  0  0
  8  6  1  0  0  0  0
 10  8  1  0  0  0  0
 11  7  2  0  0  0  0
 11 10  1  0  0  0  0
 15 14  1  6  0  0  0
 15 22  1  0  0  0  0
 15 18  1  0  0  0  0
 15 20  1  0  0  0  0
 16 12  2  0  0  0  0
 16 19  1  0  0  0  0
 18 13  1  1  0  0  0
 18 21  1  0  0  0  0
 19 11  1  1  0  0  0
 20 16  1  0  0  0  0
 21 17  1  6  0  0  0
 21 19  1  0  0  0  0
 23 22  1  0  0  0  0
 24 29  1  0  0  0  0
 25 30  1  0  0  0  0
 25 28  1  0  0  0  0
 25 27  1  1  0  0  0
 26 29  1  0  0  0  0
 28 24  1  0  0  0  0
 30 23  1  1  0  0  0
 30 26  1  0  0  0  0
 31 32  1  0  0  0  0
 31  1  1  0  0  0  0
 33 32  1  0  0  0  0
 35 36  1  0  0  0  0
 36 48  1  0  0  0  0
 37 42  1  6  0  0  0
 37 44  1  0  0  0  0
 38 47  1  0  0  0  0
 39 34  1  1  0  0  0
 39 38  1  0  0  0  0
 39 42  1  0  0  0  0
 41 40  1  0  0  0  0
 43 48  2  0  0  0  0
 43 46  1  0  0  0  0
 44 50  1  0  0  0  0
 45 33  1  1  0  0  0
 45 43  1  0  0  0  0
 46 41  2  0  0  0  0
 47 56  1  0  0  0  0
 48 49  1  0  0  0  0
 49 53  1  0  0  0  0
 49 40  2  0  0  0  0
 50 45  1  0  0  0  0
 51 35  1  0  0  0  0
 52 56  2  0  0  0  0
 54 37  1  0  0  0  0
 55 34  1  0  0  0  0
 55 54  1  0  0  0  0
 56 51  1  0  0  0  0
M  END
>  <MODEL>
3

>  <REMARK>
 VINA RESULT:      -7.8      2.485      6.235
  Name = 
  11 active torsions:
  status: ('A' for Active; 'I' for Inactive)
    1  A    between atoms: N_1  and  C_24
    2  A    between atoms: C_8  and  C_30
    3  A    between atoms: C_10  and  C_35
    4  A    between atoms: C_20  and  C_49
    5  A    between atoms: C_24  and  C_51
    6  A    between atoms: C_25  and  O_39
    7  A    between atoms: C_30  and  C_35
    8  A    between atoms: O_39  and  C_51
    9  A    between atoms: C_40  and  C_50
   10  A    between atoms: C_46  and  O_54
   11  A    between atoms: C_49  and  O_54
                            x       y       z     vdW  Elec       q    Type
                         _______ _______ _______ _____ _____    ______ ____

>  <TORSDO>
F 11

$$$$
=
 OpenBabel11042413133D

 56 60  0  0  1  0  0  0  0  0999 V2000
  185.4730  178.2540  142.6270 N   0  0  0  0  0  2  0  0  0  0  0  0
  186.8960  178.2780  142.5120 C   0  0  0  0  0  0  0  0  0  0  0  0
  187.4510  178.9200  141.5800 O   0  0  0  0  0  0  0  0  0  0  0  0
  186.8820  177.2550  144.7810 C   0  0  0  0  0  1  0  0  0  0  0  0
  187.7170  177.5900  143.5540 C   0  0  1  0  0  3  0  0  0  0  0  0
  188.3460  176.3330  142.9800 C   0  0  0  0  0  2  0  0  0  0  0  0
  192.0960  177.5720  141.1630 O   0  0  0  0  0  0  0  0  0  0  0  0
  189.7360  176.6090  142.5280 C   0  0  0  0  0  0  0  0  0  0  0  0
  190.5820  177.0370  143.3550 O   0  0  0  0  0  0  0  0  0  0  0  0
  190.1040  176.3460  141.1730 N   0  0  0  0  0  2  0  0  0  0  0  0
  191.3200  176.7810  140.5580 C   0  0  0  0  0  0  0  0  0  0  0  0
  189.6680  177.5760  138.4440 O   0  0  0  0  0  0  0  0  0  0  0  0
  194.3210  175.2350  137.0980 F   0  0  0  0  0  0  0  0  0  0  0  0
  192.4000  176.1640  135.0460 O   0  0  0  0  0  1  0  0  0  0  0  0
  192.0980  175.9000  136.3800 C   0  0  1  0  0  0  0  0  0  0  0  0
  190.6990  176.9290  138.1220 C   0  0  0  0  0  0  0  0  0  0  0  0
  193.5310  177.8150  138.9820 O   0  0  0  0  0  1  0  0  0  0  0  0
  193.3470  176.2090  137.2340 C   0  0  1  0  0  3  0  0  0  0  0  0
  191.6170  176.3390  139.1510 C   0  0  1  0  0  3  0  0  0  0  0  0
  190.9980  176.7270  136.7770 O   0  0  0  0  0  0  0  0  0  0  0  0
  193.0900  176.5160  138.7230 C   0  0  2  0  0  3  0  0  0  0  0  0
  191.7110  174.4260  136.5210 C   0  0  0  0  0  2  0  0  0  0  0  0
  192.0760  173.7150  135.3750 O   0  0  0  0  0  0  0  0  0  0  0  0
  193.4190  170.0360  136.3320 O   0  0  0  0  0  0  0  0  0  0  0  0
  194.0420  172.3760  135.9010 C   0  0  2  0  0  3  0  0  0  0  0  0
  191.8830  171.3410  135.0070 C   0  0  0  0  0  2  0  0  0  0  0  0
  194.6850  172.8630  134.6090 C   0  0  0  0  0  1  0  0  0  0  0  0
  194.5020  170.9310  136.1680 C   0  0  0  0  0  2  0  0  0  0  0  0
  192.7040  170.0500  135.1230 C   0  0  0  0  0  2  0  0  0  0  0  0
  192.5050  172.4690  135.8390 C   0  0  2  0  0  3  0  0  0  0  0  0
  184.5970  178.9620  141.7040 C   0  0  0  0  0  2  0  0  0  0  0  0
  184.9480  178.6170  140.2700 C   0  0  0  0  0  2  0  0  0  0  0  0
  184.0300  177.6920  139.7650 O   0  0  0  0  0  0  0  0  0  0  0  0
  187.2960  175.6220  134.7820 C   0  0  0  0  0  2  0  0  0  0  0  0
  181.9180  175.9550  135.9060 C   0  0  0  0  0  2  0  0  0  0  0  0
  182.5840  177.3210  135.8470 C   0  0  0  0  0  2  0  0  0  0  0  0
  186.4430  177.2340  136.7940 C   0  0  1  0  0  3  0  0  0  0  0  0
  185.8740  173.9480  135.9530 N   0  0  0  0  0  2  0  0  0  0  0  0
  186.9960  174.8790  136.0880 C   0  0  2  0  0  3  0  0  0  0  0  0
  180.1580  179.7770  137.4300 C   0  0  0  0  0  3  0  0  0  0  0  0
  180.7960  180.0770  138.6330 C   0  0  0  0  0  3  0  0  0  0  0  0
  186.8370  175.8370  137.2790 C   0  0  0  0  0  2  0  0  0  0  0  0
  182.6100  178.5650  138.0570 C   0  0  0  0  0  0  0  0  0  0  0  0
  186.4060  178.2170  137.9510 C   0  0  0  0  0  2  0  0  0  0  0  0
  183.9470  177.9700  138.3950 C   0  0  1  0  0  3  0  0  0  0  0  0
  182.0180  179.4790  138.9410 C   0  0  0  0  0  3  0  0  0  0  0  0
  184.6150  174.6670  135.7660 C   0  0  0  0  0  2  0  0  0  0  0  0
  181.9670  178.2670  136.8340 C   0  0  0  0  0  0  0  0  0  0  0  0
  180.7360  178.8800  136.5310 C   0  0  0  0  0  0  0  0  0  0  0  0
  185.0620  178.9300  137.9890 C   0  0  0  0  0  2  0  0  0  0  0  0
  182.4470  175.1700  137.0100 N   0  0  0  0  0  2  0  0  0  0  0  0
  184.1000  173.8530  137.9680 O   0  0  0  0  0  0  0  0  0  0  0  0
  180.0790  178.6000  135.3350 O   0  0  0  0  0  1  0  0  0  0  0  0
  187.3650  177.7340  135.6660 C   0  0  0  0  0  2  0  0  0  0  0  0
  188.1370  176.7150  135.0560 O   0  0  0  0  0  0  0  0  0  0  0  0
  183.7310  174.5420  136.9770 C   0  0  0  0  0  0  0  0  0  0  0  0
  2  1  1  0  0  0  0
  2  5  1  0  0  0  0
  3  2  2  0  0  0  0
  5  4  1  1  0  0  0
  6  5  1  0  0  0  0
  8  6  1  0  0  0  0
  8  9  2  0  0  0  0
 10  8  1  0  0  0  0
 11  7  2  0  0  0  0
 11 10  1  0  0  0  0
 15 14  1  6  0  0  0
 15 22  1  0  0  0  0
 15 20  1  0  0  0  0
 15 18  1  0  0  0  0
 16 12  2  0  0  0  0
 16 19  1  0  0  0  0
 18 13  1  1  0  0  0
 18 21  1  0  0  0  0
 19 11  1  1  0  0  0
 20 16  1  0  0  0  0
 21 17  1  6  0  0  0
 21 19  1  0  0  0  0
 23 22  1  0  0  0  0
 25 27  1  6  0  0  0
 25 28  1  0  0  0  0
 26 29  1  0  0  0  0
 26 30  1  0  0  0  0
 28 24  1  0  0  0  0
 29 24  1  0  0  0  0
 30 23  1  6  0  0  0
 30 25  1  0  0  0  0
 31  1  1  0  0  0  0
 32 31  1  0  0  0  0
 33 32  1  0  0  0  0
 34 55  1  0  0  0  0
 35 51  1  0  0  0  0
 36 35  1  0  0  0  0
 36 48  1  0  0  0  0
 37 54  1  6  0  0  0
 37 42  1  0  0  0  0
 37 44  1  0  0  0  0
 38 39  1  0  0  0  0
 39 34  1  6  0  0  0
 39 42  1  0  0  0  0
 40 41  1  0  0  0  0
 41 46  2  0  0  0  0
 43 45  1  0  0  0  0
 43 46  1  0  0  0  0
 44 50  1  0  0  0  0
 45 33  1  1  0  0  0
 47 38  1  0  0  0  0
 47 56  1  0  0  0  0
 48 43  2  0  0  0  0
 49 48  1  0  0  0  0
 49 40  2  0  0  0  0
 50 45  1  0  0  0  0
 53 49  1  0  0  0  0
 55 54  1  0  0  0  0
 56 51  1  0  0  0  0
 56 52  2  0  0  0  0
M  END
>  <MODEL>
4

>  <REMARK>
 VINA RESULT:      -7.2      3.883      7.926
  Name = 
  11 active torsions:
  status: ('A' for Active; 'I' for Inactive)
    1  A    between atoms: N_1  and  C_24
    2  A    between atoms: C_8  and  C_30
    3  A    between atoms: C_10  and  C_35
    4  A    between atoms: C_20  and  C_49
    5  A    between atoms: C_24  and  C_51
    6  A    between atoms: C_25  and  O_39
    7  A    between atoms: C_30  and  C_35
    8  A    between atoms: O_39  and  C_51
    9  A    between atoms: C_40  and  C_50
   10  A    between atoms: C_46  and  O_54
   11  A    between atoms: C_49  and  O_54
                            x       y       z     vdW  Elec       q    Type
                         _______ _______ _______ _____ _____    ______ ____

>  <TORSDO>
F 11

$$$$
=
 OpenBabel11042413133D

 56 60  0  0  1  0  0  0  0  0999 V2000
  185.8840  177.3000  134.9140 N   0  0  0  0  0  2  0  0  0  0  0  0
  187.2160  177.5340  135.3750 C   0  0  0  0  0  0  0  0  0  0  0  0
  187.4420  178.3990  136.2630 O   0  0  0  0  0  0  0  0  0  0  0  0
  189.6350  177.4560  134.7950 C   0  0  0  0  0  1  0  0  0  0  0  0
  188.3240  176.6850  134.8410 C   0  0  1  0  0  3  0  0  0  0  0  0
  188.4740  175.4300  135.6820 C   0  0  0  0  0  2  0  0  0  0  0  0
  191.5820  175.3240  138.7190 O   0  0  0  0  0  0  0  0  0  0  0  0
  189.6680  175.5360  136.5630 C   0  0  0  0  0  0  0  0  0  0  0  0
  190.7950  175.1960  136.1210 O   0  0  0  0  0  0  0  0  0  0  0  0
  189.5260  176.0620  137.8840 N   0  0  0  0  0  2  0  0  0  0  0  0
  190.5310  175.9990  138.9000 C   0  0  0  0  0  0  0  0  0  0  0  0
  192.6480  177.1260  140.3400 O   0  0  0  0  0  0  0  0  0  0  0  0
  187.6870  178.3490  142.0230 F   0  0  0  0  0  0  0  0  0  0  0  0
  190.0920  179.4140  143.3800 O   0  0  0  0  0  1  0  0  0  0  0  0
  190.0560  178.2940  142.5530 C   0  0  1  0  0  0  0  0  0  0  0  0
  191.4970  177.3260  140.8100 C   0  0  0  0  0  0  0  0  0  0  0  0
  189.2330  178.5880  139.1280 O   0  0  0  0  0  1  0  0  0  0  0  0
  188.9550  178.5050  141.4910 C   0  0  1  0  0  3  0  0  0  0  0  0
  190.2770  176.6890  140.2120 C   0  0  1  0  0  3  0  0  0  0  0  0
  191.3360  178.1400  141.9280 O   0  0  0  0  0  0  0  0  0  0  0  0
  189.1020  177.6910  140.1900 C   0  0  2  0  0  3  0  0  0  0  0  0
  189.7450  177.0580  143.4000 C   0  0  0  0  0  2  0  0  0  0  0  0
  190.1610  177.2560  144.7190 O   0  0  0  0  0  0  0  0  0  0  0  0
  186.8350  178.3030  146.7440 O   0  0  0  0  0  0  0  0  0  0  0  0
  189.2200  177.7250  146.9170 C   0  0  2  0  0  3  0  0  0  0  0  0
  187.7720  177.0140  144.9350 C   0  0  0  0  0  2  0  0  0  0  0  0
  189.7360  176.3750  147.3960 C   0  0  0  0  0  1  0  0  0  0  0  0
  187.8950  178.0320  147.6400 C   0  0  0  0  0  2  0  0  0  0  0  0
  186.6540  177.1410  145.9770 C   0  0  0  0  0  2  0  0  0  0  0  0
  189.0380  177.7510  145.3870 C   0  0  2  0  0  3  0  0  0  0  0  0
  184.7330  178.0230  135.4360 C   0  0  0  0  0  2  0  0  0  0  0  0
  183.6730  177.0540  135.9220 C   0  0  0  0  0  2  0  0  0  0  0  0
  184.1870  176.2690  136.9590 O   0  0  0  0  0  0  0  0  0  0  0  0
  178.9310  178.8240  139.3310 C   0  0  0  0  0  2  0  0  0  0  0  0
  179.8760  174.6980  135.8130 C   0  0  0  0  0  2  0  0  0  0  0  0
  180.4330  174.4170  137.1990 C   0  0  0  0  0  2  0  0  0  0  0  0
  181.4030  177.7100  139.2040 C   0  0  1  0  0  3  0  0  0  0  0  0
  179.2150  178.9570  136.8620 N   0  0  0  0  0  2  0  0  0  0  0  0
  179.7800  179.3300  138.1610 C   0  0  2  0  0  3  0  0  0  0  0  0
  182.8180  171.4840  136.8340 C   0  0  0  0  0  3  0  0  0  0  0  0
  184.0580  172.0970  137.0100 C   0  0  0  0  0  3  0  0  0  0  0  0
  181.2590  178.9380  138.3030 C   0  0  0  0  0  2  0  0  0  0  0  0
  182.9620  174.2480  137.2920 C   0  0  0  0  0  0  0  0  0  0  0  0
  182.8670  177.3900  139.4520 C   0  0  0  0  0  2  0  0  0  0  0  0
  183.0650  175.7170  137.5900 C   0  0  1  0  0  3  0  0  0  0  0  0
  184.1280  173.4710  137.2440 C   0  0  0  0  0  3  0  0  0  0  0  0
  179.3050  177.5140  136.6460 C   0  0  0  0  0  2  0  0  0  0  0  0
  181.7050  173.6250  137.1210 C   0  0  0  0  0  0  0  0  0  0  0  0
  181.6450  172.2370  136.8900 C   0  0  0  0  0  0  0  0  0  0  0  0
  183.1530  175.9380  139.0980 C   0  0  0  0  0  2  0  0  0  0  0  0
  180.5570  175.8270  135.2010 N   0  0  0  0  0  2  0  0  0  0  0  0
  180.9240  178.1080  134.9720 O   0  0  0  0  0  0  0  0  0  0  0  0
  180.4190  171.6000  136.7140 O   0  0  0  0  0  1  0  0  0  0  0  0
  180.6360  177.8720  140.5290 C   0  0  0  0  0  2  0  0  0  0  0  0
  179.6790  178.9170  140.5180 O   0  0  0  0  0  0  0  0  0  0  0  0
  180.3100  177.1850  135.5760 C   0  0  0  0  0  0  0  0  0  0  0  0
  1  2  1  0  0  0  0
  1 31  1  0  0  0  0
  2  3  2  0  0  0  0
  5  4  1  1  0  0  0
  5  2  1  0  0  0  0
  5  6  1  0  0  0  0
  6  8  1  0  0  0  0
  7 11  2  0  0  0  0
  8 10  1  0  0  0  0
  9  8  2  0  0  0  0
 10 11  1  0  0  0  0
 12 16  2  0  0  0  0
 15 14  1  1  0  0  0
 15 22  1  0  0  0  0
 16 20  1  0  0  0  0
 18 13  1  1  0  0  0
 18 15  1  0  0  0  0
 19 11  1  6  0  0  0
 19 16  1  0  0  0  0
 20 15  1  0  0  0  0
 21 17  1  6  0  0  0
 21 19  1  0  0  0  0
 21 18  1  0  0  0  0
 22 23  1  0  0  0  0
 24 28  1  0  0  0  0
 25 27  1  1  0  0  0
 25 28  1  0  0  0  0
 26 30  1  0  0  0  0
 26 29  1  0  0  0  0
 29 24  1  0  0  0  0
 30 23  1  6  0  0  0
 30 25  1  0  0  0  0
 31 32  1  0  0  0  0
 32 33  1  0  0  0  0
 34 55  1  0  0  0  0
 35 36  1  0  0  0  0
 37 42  1  1  0  0  0
 37 44  1  0  0  0  0
 37 54  1  0  0  0  0
 38 39  1  0  0  0  0
 39 42  1  1  0  0  0
 39 34  1  0  0  0  0
 40 49  2  0  0  0  0
 40 41  1  0  0  0  0
 41 46  2  0  0  0  0
 43 45  1  0  0  0  0
 45 33  1  6  0  0  0
 45 50  1  0  0  0  0
 46 43  1  0  0  0  0
 47 38  1  0  0  0  0
 48 36  1  0  0  0  0
 48 43  2  0  0  0  0
 49 48  1  0  0  0  0
 50 44  1  0  0  0  0
 51 56  1  0  0  0  0
 51 35  1  0  0  0  0
 52 56  2  0  0  0  0
 53 49  1  0  0  0  0
 55 54  1  0  0  0  0
 56 47  1  0  0  0  0
M  END
>  <MODEL>
5

>  <REMARK>
 VINA RESULT:      -6.7      2.401      4.438
  Name = 
  11 active torsions:
  status: ('A' for Active; 'I' for Inactive)
    1  A    between atoms: N_1  and  C_24
    2  A    between atoms: C_8  and  C_30
    3  A    between atoms: C_10  and  C_35
    4  A    between atoms: C_20  and  C_49
    5  A    between atoms: C_24  and  C_51
    6  A    between atoms: C_25  and  O_39
    7  A    between atoms: C_30  and  C_35
    8  A    between atoms: O_39  and  C_51
    9  A    between atoms: C_40  and  C_50
   10  A    between atoms: C_46  and  O_54
   11  A    between atoms: C_49  and  O_54
                            x       y       z     vdW  Elec       q    Type
                         _______ _______ _______ _____ _____    ______ ____

>  <TORSDO>
F 11

$$$$
=
 OpenBabel11042413133D

 56 60  0  0  1  0  0  0  0  0999 V2000
  186.9910  178.7990  141.0730 N   0  0  0  0  0  2  0  0  0  0  0  0
  187.7140  177.8980  141.9130 C   0  0  0  0  0  0  0  0  0  0  0  0
  187.1050  177.1780  142.7500 O   0  0  0  0  0  0  0  0  0  0  0  0
  189.7890  176.8040  142.7430 C   0  0  0  0  0  1  0  0  0  0  0  0
  189.1910  177.7700  141.7310 C   0  0  1  0  0  3  0  0  0  0  0  0
  189.5070  177.3200  140.3160 C   0  0  0  0  0  2  0  0  0  0  0  0
  193.6820  177.1430  139.1190 O   0  0  0  0  0  0  0  0  0  0  0  0
  190.9760  177.1690  140.1360 C   0  0  0  0  0  0  0  0  0  0  0  0
  191.7590  177.7200  140.9510 O   0  0  0  0  0  0  0  0  0  0  0  0
  191.4780  176.3660  139.0650 N   0  0  0  0  0  2  0  0  0  0  0  0
  192.8430  176.3300  138.6420 C   0  0  0  0  0  0  0  0  0  0  0  0
  193.8540  177.2510  136.2020 O   0  0  0  0  0  0  0  0  0  0  0  0
  194.2840  171.9700  137.1310 F   0  0  0  0  0  0  0  0  0  0  0  0
  195.2760  173.1900  134.6240 O   0  0  0  0  0  1  0  0  0  0  0  0
  194.3380  173.7550  135.4840 C   0  0  1  0  0  0  0  0  0  0  0  0
  193.8570  176.0030  136.3600 C   0  0  0  0  0  0  0  0  0  0  0  0
  195.2140  174.6570  138.7880 O   0  0  0  0  0  1  0  0  0  0  0  0
  194.6520  173.2880  136.9230 C   0  0  1  0  0  3  0  0  0  0  0  0
  193.2420  175.3560  137.5660 C   0  0  1  0  0  3  0  0  0  0  0  0
  194.4220  175.1810  135.3880 O   0  0  0  0  0  0  0  0  0  0  0  0
  194.1210  174.1860  138.0580 C   0  0  2  0  0  3  0  0  0  0  0  0
  192.9390  173.2920  135.0710 C   0  0  0  0  0  2  0  0  0  0  0  0
  192.1620  174.3840  134.6790 O   0  0  0  0  0  0  0  0  0  0  0  0
  188.3660  173.4630  135.6790 O   0  0  0  0  0  0  0  0  0  0  0  0
  189.8490  175.1500  134.6770 C   0  0  2  0  0  3  0  0  0  0  0  0
  190.6950  173.3640  136.2960 C   0  0  0  0  0  2  0  0  0  0  0  0
  190.2980  176.4200  135.3880 C   0  0  0  0  0  1  0  0  0  0  0  0
  188.4380  174.7810  135.1700 C   0  0  0  0  0  2  0  0  0  0  0  0
  189.2390  173.4130  136.7780 C   0  0  0  0  0  2  0  0  0  0  0  0
  190.8400  173.9920  134.9060 C   0  0  2  0  0  3  0  0  0  0  0  0
  185.5410  178.9310  141.1250 C   0  0  0  0  0  2  0  0  0  0  0  0
  184.9500  178.8340  139.7320 C   0  0  0  0  0  2  0  0  0  0  0  0
  183.6620  178.2950  139.7990 O   0  0  0  0  0  0  0  0  0  0  0  0
  183.2580  173.6510  135.5520 C   0  0  0  0  0  2  0  0  0  0  0  0
  179.6750  177.3850  137.4240 C   0  0  0  0  0  2  0  0  0  0  0  0
  180.8500  178.0220  136.7010 C   0  0  0  0  0  2  0  0  0  0  0  0
  184.1700  175.8420  136.8690 C   0  0  1  0  0  3  0  0  0  0  0  0
  181.7670  173.4750  137.5360 N   0  0  0  0  0  2  0  0  0  0  0  0
  183.1560  173.5460  137.0760 C   0  0  2  0  0  3  0  0  0  0  0  0
  180.7960  181.7140  137.5880 C   0  0  0  0  0  3  0  0  0  0  0  0
  181.9040  181.8250  138.4290 C   0  0  0  0  0  3  0  0  0  0  0  0
  183.9660  174.6380  137.7910 C   0  0  0  0  0  2  0  0  0  0  0  0
  182.3380  179.4460  138.1810 C   0  0  0  0  0  0  0  0  0  0  0  0
  185.0750  176.8740  137.5210 C   0  0  0  0  0  2  0  0  0  0  0  0
  183.2100  178.2590  138.4740 C   0  0  1  0  0  3  0  0  0  0  0  0
  182.6730  180.6970  138.7190 C   0  0  0  0  0  3  0  0  0  0  0  0
  181.0750  174.7440  137.3140 C   0  0  0  0  0  2  0  0  0  0  0  0
  181.2210  179.3360  137.3220 C   0  0  0  0  0  0  0  0  0  0  0  0
  180.4540  180.4810  137.0330 C   0  0  0  0  0  0  0  0  0  0  0  0
  184.4010  178.2380  137.5180 C   0  0  0  0  0  2  0  0  0  0  0  0
  180.1170  176.7050  138.6310 N   0  0  0  0  0  2  0  0  0  0  0  0
  181.1130  174.9090  139.7120 O   0  0  0  0  0  0  0  0  0  0  0  0
  179.3450  180.3980  136.1940 O   0  0  0  0  0  1  0  0  0  0  0  0
  184.7040  175.4260  135.4860 C   0  0  0  0  0  2  0  0  0  0  0  0
  184.5620  174.0460  135.2030 O   0  0  0  0  0  0  0  0  0  0  0  0
  180.7900  175.4440  138.6150 C   0  0  0  0  0  0  0  0  0  0  0  0
  1 31  1  0  0  0  0
  1  2  1  0  0  0  0
  2  3  2  0  0  0  0
  5  2  1  0  0  0  0
  5  4  1  1  0  0  0
  6  5  1  0  0  0  0
  8  6  1  0  0  0  0
  8  9  2  0  0  0  0
 10  8  1  0  0  0  0
 11 10  1  0  0  0  0
 11  7  2  0  0  0  0
 12 16  2  0  0  0  0
 15 14  1  6  0  0  0
 15 18  1  0  0  0  0
 16 19  1  0  0  0  0
 18 13  1  1  0  0  0
 18 21  1  0  0  0  0
 19 21  1  0  0  0  0
 19 11  1  1  0  0  0
 20 15  1  0  0  0  0
 20 16  1  0  0  0  0
 21 17  1  6  0  0  0
 22 15  1  0  0  0  0
 23 22  1  0  0  0  0
 24 29  1  0  0  0  0
 25 30  1  0  0  0  0
 25 28  1  0  0  0  0
 25 27  1  1  0  0  0
 26 29  1  0  0  0  0
 28 24  1  0  0  0  0
 30 23  1  1  0  0  0
 30 26  1  0  0  0  0
 32 33  1  0  0  0  0
 32 31  1  0  0  0  0
 35 51  1  0  0  0  0
 36 48  1  0  0  0  0
 36 35  1  0  0  0  0
 37 54  1  6  0  0  0
 37 44  1  0  0  0  0
 37 42  1  0  0  0  0
 39 34  1  6  0  0  0
 39 38  1  0  0  0  0
 39 42  1  0  0  0  0
 40 41  1  0  0  0  0
 41 46  2  0  0  0  0
 43 45  1  0  0  0  0
 43 46  1  0  0  0  0
 45 33  1  1  0  0  0
 47 38  1  0  0  0  0
 47 56  1  0  0  0  0
 48 43  2  0  0  0  0
 49 48  1  0  0  0  0
 49 40  2  0  0  0  0
 50 44  1  0  0  0  0
 50 45  1  0  0  0  0
 53 49  1  0  0  0  0
 55 54  1  0  0  0  0
 55 34  1  0  0  0  0
 56 51  1  0  0  0  0
 56 52  2  0  0  0  0
M  END
>  <MODEL>
6

>  <REMARK>
 VINA RESULT:      -6.4      3.872      7.456
  Name = 
  11 active torsions:
  status: ('A' for Active; 'I' for Inactive)
    1  A    between atoms: N_1  and  C_24
    2  A    between atoms: C_8  and  C_30
    3  A    between atoms: C_10  and  C_35
    4  A    between atoms: C_20  and  C_49
    5  A    between atoms: C_24  and  C_51
    6  A    between atoms: C_25  and  O_39
    7  A    between atoms: C_30  and  C_35
    8  A    between atoms: O_39  and  C_51
    9  A    between atoms: C_40  and  C_50
   10  A    between atoms: C_46  and  O_54
   11  A    between atoms: C_49  and  O_54
                            x       y       z     vdW  Elec       q    Type
                         _______ _______ _______ _____ _____    ______ ____

>  <TORSDO>
F 11

$$$$
=
 OpenBabel11042413133D

 56 60  0  0  1  0  0  0  0  0999 V2000
  189.6990  176.2200  142.7010 N   0  0  0  0  0  2  0  0  0  0  0  0
  189.4150  177.0640  143.8170 C   0  0  0  0  0  0  0  0  0  0  0  0
  190.1420  178.0640  144.0630 O   0  0  0  0  0  0  0  0  0  0  0  0
  187.8620  177.9670  145.5400 C   0  0  0  0  0  1  0  0  0  0  0  0
  188.2000  176.7860  144.6420 C   0  0  1  0  0  3  0  0  0  0  0  0
  187.0240  176.4470  143.7450 C   0  0  0  0  0  2  0  0  0  0  0  0
  185.3650  180.1100  142.0960 O   0  0  0  0  0  0  0  0  0  0  0  0
  186.5930  177.6470  142.9790 C   0  0  0  0  0  0  0  0  0  0  0  0
  187.4610  178.4340  142.5230 O   0  0  0  0  0  0  0  0  0  0  0  0
  185.2020  177.8670  142.7340 N   0  0  0  0  0  2  0  0  0  0  0  0
  184.6450  179.0820  142.2260 C   0  0  0  0  0  0  0  0  0  0  0  0
  183.4680  177.1280  140.6070 O   0  0  0  0  0  0  0  0  0  0  0  0
  180.1070  180.4100  143.2280 F   0  0  0  0  0  0  0  0  0  0  0  0
  179.1090  178.2620  141.4520 O   0  0  0  0  0  1  0  0  0  0  0  0
  180.3890  178.8100  141.4220 C   0  0  1  0  0  0  0  0  0  0  0  0
  182.6780  177.9600  141.1240 C   0  0  0  0  0  0  0  0  0  0  0  0
  182.5810  178.4570  144.1730 O   0  0  0  0  0  1  0  0  0  0  0  0
  180.7650  179.2520  142.8540 C   0  0  1  0  0  3  0  0  0  0  0  0
  183.1730  179.1310  141.9220 C   0  0  1  0  0  3  0  0  0  0  0  0
  181.3050  177.8180  140.9440 O   0  0  0  0  0  0  0  0  0  0  0  0
  182.2730  179.3620  143.1550 C   0  0  2  0  0  3  0  0  0  0  0  0
  180.3940  180.0140  140.4780 C   0  0  0  0  0  2  0  0  0  0  0  0
  180.2290  179.5960  139.1560 O   0  0  0  0  0  0  0  0  0  0  0  0
  179.9520  182.9430  136.9250 O   0  0  0  0  0  0  0  0  0  0  0  0
  179.8430  180.4860  136.9210 C   0  0  2  0  0  3  0  0  0  0  0  0
  181.0910  181.8040  138.7190 C   0  0  0  0  0  2  0  0  0  0  0  0
  180.9550  179.5840  136.4000 C   0  0  0  0  0  1  0  0  0  0  0  0
  179.8460  181.7930  136.1070 C   0  0  0  0  0  2  0  0  0  0  0  0
  181.1820  182.8430  137.5940 C   0  0  0  0  0  2  0  0  0  0  0  0
  180.0010  180.7670  138.4280 C   0  0  2  0  0  3  0  0  0  0  0  0
  190.8130  176.4610  141.7950 C   0  0  0  0  0  2  0  0  0  0  0  0
  190.3120  176.9910  140.4660 C   0  0  0  0  0  2  0  0  0  0  0  0
  189.5480  176.0140  139.8220 O   0  0  0  0  0  0  0  0  0  0  0  0
  192.6640  174.3600  134.5940 C   0  0  0  0  0  2  0  0  0  0  0  0
  187.3190  174.7790  135.8380 C   0  0  0  0  0  2  0  0  0  0  0  0
  188.0380  176.1160  135.9120 C   0  0  0  0  0  2  0  0  0  0  0  0
  191.9030  175.7810  136.7780 C   0  0  1  0  0  3  0  0  0  0  0  0
  191.1910  172.6280  135.6050 N   0  0  0  0  0  2  0  0  0  0  0  0
  192.3520  173.4960  135.8190 C   0  0  2  0  0  3  0  0  0  0  0  0
  185.7330  178.4820  137.7870 C   0  0  0  0  0  3  0  0  0  0  0  0
  186.3980  178.6280  139.0040 C   0  0  0  0  0  3  0  0  0  0  0  0
  192.2470  174.3270  137.1060 C   0  0  0  0  0  2  0  0  0  0  0  0
  188.1420  177.1170  138.2410 C   0  0  0  0  0  0  0  0  0  0  0  0
  191.9200  176.6370  138.0330 C   0  0  0  0  0  2  0  0  0  0  0  0
  189.4590  176.4380  138.4900 C   0  0  1  0  0  3  0  0  0  0  0  0
  187.5990  177.9540  139.2260 C   0  0  0  0  0  3  0  0  0  0  0  0
  189.9600  173.4100  135.5170 C   0  0  0  0  0  2  0  0  0  0  0  0
  187.4720  176.9750  137.0040 C   0  0  0  0  0  0  0  0  0  0  0  0
  186.2620  177.6640  136.7880 C   0  0  0  0  0  0  0  0  0  0  0  0
  190.6060  177.3930  138.1690 C   0  0  0  0  0  2  0  0  0  0  0  0
  187.8300  173.8610  136.8440 N   0  0  0  0  0  2  0  0  0  0  0  0
  189.4420  172.3870  137.6290 O   0  0  0  0  0  0  0  0  0  0  0  0
  185.5800  177.5380  135.5810 O   0  0  0  0  0  1  0  0  0  0  0  0
  192.8290  176.3630  135.6940 C   0  0  0  0  0  2  0  0  0  0  0  0
  193.5520  175.3850  134.9660 O   0  0  0  0  0  0  0  0  0  0  0  0
  189.0880  173.1910  136.7230 C   0  0  0  0  0  0  0  0  0  0  0  0
  1  2  1  0  0  0  0
  2  3  2  0  0  0  0
  2  5  1  0  0  0  0
  5  4  1  6  0  0  0
  6  5  1  0  0  0  0
  7 11  2  0  0  0  0
  8  6  1  0  0  0  0
  9  8  2  0  0  0  0
 10  8  1  0  0  0  0
 11 10  1  0  0  0  0
 12 16  2  0  0  0  0
 15 14  1  1  0  0  0
 15 18  1  0  0  0  0
 16 19  1  0  0  0  0
 18 21  1  0  0  0  0
 18 13  1  6  0  0  0
 19 11  1  1  0  0  0
 19 21  1  0  0  0  0
 20 16  1  0  0  0  0
 20 15  1  0  0  0  0
 21 17  1  1  0  0  0
 22 15  1  0  0  0  0
 23 22  1  0  0  0  0
 24 29  1  0  0  0  0
 25 27  1  6  0  0  0
 25 30  1  0  0  0  0
 28 25  1  0  0  0  0
 28 24  1  0  0  0  0
 29 26  1  0  0  0  0
 30 26  1  0  0  0  0
 30 23  1  1  0  0  0
 31  1  1  0  0  0  0
 32 31  1  0  0  0  0
 33 32  1  0  0  0  0
 34 55  1  0  0  0  0
 35 36  1  0  0  0  0
 35 51  1  0  0  0  0
 36 48  1  0  0  0  0
 37 54  1  6  0  0  0
 37 42  1  0  0  0  0
 37 44  1  0  0  0  0
 38 39  1  0  0  0  0
 39 34  1  6  0  0  0
 39 42  1  0  0  0  0
 40 41  1  0  0  0  0
 41 46  2  0  0  0  0
 43 45  1  0  0  0  0
 43 46  1  0  0  0  0
 44 50  1  0  0  0  0
 45 33  1  1  0  0  0
 47 38  1  0  0  0  0
 47 56  1  0  0  0  0
 48 43  2  0  0  0  0
 49 48  1  0  0  0  0
 49 40  2  0  0  0  0
 50 45  1  0  0  0  0
 53 49  1  0  0  0  0
 55 54  1  0  0  0  0
 56 51  1  0  0  0  0
 56 52  2  0  0  0  0
M  END
>  <MODEL>
7

>  <REMARK>
 VINA RESULT:      -6.3      3.369      9.610
  Name = 
  11 active torsions:
  status: ('A' for Active; 'I' for Inactive)
    1  A    between atoms: N_1  and  C_24
    2  A    between atoms: C_8  and  C_30
    3  A    between atoms: C_10  and  C_35
    4  A    between atoms: C_20  and  C_49
    5  A    between atoms: C_24  and  C_51
    6  A    between atoms: C_25  and  O_39
    7  A    between atoms: C_30  and  C_35
    8  A    between atoms: O_39  and  C_51
    9  A    between atoms: C_40  and  C_50
   10  A    between atoms: C_46  and  O_54
   11  A    between atoms: C_49  and  O_54
                            x       y       z     vdW  Elec       q    Type
                         _______ _______ _______ _____ _____    ______ ____

>  <TORSDO>
F 11

$$$$
=
 OpenBabel11042413133D

 56 60  0  0  1  0  0  0  0  0999 V2000
  186.7660  177.4020  138.7350 N   0  0  0  0  0  2  0  0  0  0  0  0
  187.4830  177.9090  137.6090 C   0  0  0  0  0  0  0  0  0  0  0  0
  187.5690  179.1510  137.4130 O   0  0  0  0  0  0  0  0  0  0  0  0
  189.1780  177.6640  135.8030 C   0  0  0  0  0  1  0  0  0  0  0  0
  188.1900  176.9460  136.7100 C   0  0  1  0  0  3  0  0  0  0  0  0
  188.8970  175.8850  137.5340 C   0  0  0  0  0  2  0  0  0  0  0  0
  191.9680  177.0930  140.3620 O   0  0  0  0  0  0  0  0  0  0  0  0
  189.9740  176.4990  138.3550 C   0  0  0  0  0  0  0  0  0  0  0  0
  191.0700  176.7990  137.8150 O   0  0  0  0  0  0  0  0  0  0  0  0
  189.7380  176.7780  139.7370 N   0  0  0  0  0  2  0  0  0  0  0  0
  190.7480  177.1410  140.6810 C   0  0  0  0  0  0  0  0  0  0  0  0
  189.7610  175.1860  142.4230 O   0  0  0  0  0  0  0  0  0  0  0  0
  190.9180  179.9680  144.5980 F   0  0  0  0  0  0  0  0  0  0  0  0
  189.8590  177.7360  146.2290 O   0  0  0  0  0  1  0  0  0  0  0  0
  189.7520  177.8520  144.8450 C   0  0  1  0  0  0  0  0  0  0  0  0
  189.9200  176.3320  142.9180 C   0  0  0  0  0  0  0  0  0  0  0  0
  192.6290  177.8140  142.7910 O   0  0  0  0  0  1  0  0  0  0  0  0
  190.9890  178.6140  144.3210 C   0  0  1  0  0  3  0  0  0  0  0  0
  190.3330  177.5060  142.0800 C   0  0  1  0  0  3  0  0  0  0  0  0
  189.6910  176.5390  144.2750 O   0  0  0  0  0  0  0  0  0  0  0  0
  191.3530  178.3800  142.8410 C   0  0  2  0  0  3  0  0  0  0  0  0
  188.4740  178.6210  144.5060 C   0  0  0  0  0  2  0  0  0  0  0  0
  187.3510  177.9160  144.9460 O   0  0  0  0  0  0  0  0  0  0  0  0
  183.9960  179.4070  143.2800 O   0  0  0  0  0  0  0  0  0  0  0  0
  185.2180  179.0130  145.3780 C   0  0  2  0  0  3  0  0  0  0  0  0
  185.6520  177.6550  143.2570 C   0  0  0  0  0  2  0  0  0  0  0  0
  184.8800  177.9040  146.3660 C   0  0  0  0  0  1  0  0  0  0  0  0
  183.9200  179.4750  144.6910 C   0  0  0  0  0  2  0  0  0  0  0  0
  184.2020  178.0560  142.9570 C   0  0  0  0  0  2  0  0  0  0  0  0
  186.2620  178.5490  144.3420 C   0  0  2  0  0  3  0  0  0  0  0  0
  186.1140  178.2680  139.7080 C   0  0  0  0  0  2  0  0  0  0  0  0
  184.8160  178.8140  139.1450 C   0  0  0  0  0  2  0  0  0  0  0  0
  183.7700  177.9280  139.4190 O   0  0  0  0  0  0  0  0  0  0  0  0
  181.1830  173.6350  135.5900 C   0  0  0  0  0  2  0  0  0  0  0  0
  179.1260  177.8100  138.5300 C   0  0  0  0  0  2  0  0  0  0  0  0
  180.0860  178.2800  137.4480 C   0  0  0  0  0  2  0  0  0  0  0  0
  182.8440  175.5770  136.5070 C   0  0  1  0  0  3  0  0  0  0  0  0
  180.4290  173.6080  137.9610 N   0  0  0  0  0  2  0  0  0  0  0  0
  181.5760  173.4720  137.0610 C   0  0  2  0  0  3  0  0  0  0  0  0
  180.9670  181.8800  138.2730 C   0  0  0  0  0  3  0  0  0  0  0  0
  182.2920  181.7640  138.6920 C   0  0  0  0  0  3  0  0  0  0  0  0
  182.7540  174.3780  137.4530 C   0  0  0  0  0  2  0  0  0  0  0  0
  182.2030  179.3620  138.3310 C   0  0  0  0  0  0  0  0  0  0  0  0
  184.0780  176.4110  136.8080 C   0  0  0  0  0  2  0  0  0  0  0  0
  182.9040  178.0340  138.3230 C   0  0  1  0  0  3  0  0  0  0  0  0
  182.9080  180.5120  138.7150 C   0  0  0  0  0  3  0  0  0  0  0  0
  179.9330  174.9830  137.9760 C   0  0  0  0  0  2  0  0  0  0  0  0
  180.8620  179.4820  137.8980 C   0  0  0  0  0  0  0  0  0  0  0  0
  180.2520  180.7510  137.8750 C   0  0  0  0  0  0  0  0  0  0  0  0
  183.6870  177.8650  137.0220 C   0  0  0  0  0  2  0  0  0  0  0  0
  179.8200  177.0060  139.5230 N   0  0  0  0  0  2  0  0  0  0  0  0
  180.7940  175.0170  140.2190 O   0  0  0  0  0  0  0  0  0  0  0  0
  178.9310  180.8950  137.4590 O   0  0  0  0  0  1  0  0  0  0  0  0
  182.8080  175.1500  135.0280 C   0  0  0  0  0  2  0  0  0  0  0  0
  182.3440  173.8270  134.8200 O   0  0  0  0  0  0  0  0  0  0  0  0
  180.2210  175.6530  139.2910 C   0  0  0  0  0  0  0  0  0  0  0  0
  1 31  1  0  0  0  0
  2  1  1  0  0  0  0
  3  2  2  0  0  0  0
  5  4  1  1  0  0  0
  5  6  1  0  0  0  0
  5  2  1  0  0  0  0
  6  8  1  0  0  0  0
  7 11  2  0  0  0  0
  8 10  1  0  0  0  0
  9  8  2  0  0  0  0
 10 11  1  0  0  0  0
 12 16  2  0  0  0  0
 15 14  1  1  0  0  0
 16 20  1  0  0  0  0
 18 13  1  6  0  0  0
 18 15  1  0  0  0  0
 19 11  1  6  0  0  0
 19 21  1  0  0  0  0
 19 16  1  0  0  0  0
 20 15  1  0  0  0  0
 21 17  1  1  0  0  0
 21 18  1  0  0  0  0
 22 15  1  0  0  0  0
 22 23  1  0  0  0  0
 24 28  1  0  0  0  0
 25 27  1  1  0  0  0
 26 30  1  0  0  0  0
 28 25  1  0  0  0  0
 29 26  1  0  0  0  0
 29 24  1  0  0  0  0
 30 23  1  1  0  0  0
 30 25  1  0  0  0  0
 32 33  1  0  0  0  0
 32 31  1  0  0  0  0
 35 51  1  0  0  0  0
 36 48  1  0  0  0  0
 36 35  1  0  0  0  0
 37 54  1  6  0  0  0
 37 44  1  0  0  0  0
 37 42  1  0  0  0  0
 38 47  1  0  0  0  0
 39 34  1  6  0  0  0
 39 42  1  0  0  0  0
 39 38  1  0  0  0  0
 40 41  1  0  0  0  0
 41 46  2  0  0  0  0
 43 46  1  0  0  0  0
 44 50  1  0  0  0  0
 45 43  1  0  0  0  0
 45 33  1  1  0  0  0
 47 56  1  0  0  0  0
 48 43  2  0  0  0  0
 49 48  1  0  0  0  0
 49 40  2  0  0  0  0
 50 45  1  0  0  0  0
 53 49  1  0  0  0  0
 55 54  1  0  0  0  0
 55 34  1  0  0  0  0
 56 51  1  0  0  0  0
 56 52  2  0  0  0  0
M  END
>  <MODEL>
8

>  <REMARK>
 VINA RESULT:      -6.2      1.987      3.451
  Name = 
  11 active torsions:
  status: ('A' for Active; 'I' for Inactive)
    1  A    between atoms: N_1  and  C_24
    2  A    between atoms: C_8  and  C_30
    3  A    between atoms: C_10  and  C_35
    4  A    between atoms: C_20  and  C_49
    5  A    between atoms: C_24  and  C_51
    6  A    between atoms: C_25  and  O_39
    7  A    between atoms: C_30  and  C_35
    8  A    between atoms: O_39  and  C_51
    9  A    between atoms: C_40  and  C_50
   10  A    between atoms: C_46  and  O_54
   11  A    between atoms: C_49  and  O_54
                            x       y       z     vdW  Elec       q    Type
                         _______ _______ _______ _____ _____    ______ ____

>  <TORSDO>
F 11

$$$$
=
 OpenBabel11042413133D

 56 60  0  0  1  0  0  0  0  0999 V2000
  190.0170  176.1050  142.6630 N   0  0  0  0  0  2  0  0  0  0  0  0
  189.9050  177.1200  143.6610 C   0  0  0  0  0  0  0  0  0  0  0  0
  190.6320  178.1490  143.6100 O   0  0  0  0  0  0  0  0  0  0  0  0
  188.7350  178.2520  145.5440 C   0  0  0  0  0  1  0  0  0  0  0  0
  188.8630  176.9770  144.7230 C   0  0  1  0  0  3  0  0  0  0  0  0
  187.5290  176.6090  144.1000 C   0  0  0  0  0  2  0  0  0  0  0  0
  185.6770  179.7370  141.7170 O   0  0  0  0  0  0  0  0  0  0  0  0
  187.0970  177.6600  143.1400 C   0  0  0  0  0  0  0  0  0  0  0  0
  187.8570  178.6350  142.9070 O   0  0  0  0  0  0  0  0  0  0  0  0
  185.8460  177.5280  142.4630 N   0  0  0  0  0  2  0  0  0  0  0  0
  185.2130  178.5640  141.7070 C   0  0  0  0  0  0  0  0  0  0  0  0
  182.7210  179.0140  142.8960 O   0  0  0  0  0  0  0  0  0  0  0  0
  182.6940  177.8630  137.6410 F   0  0  0  0  0  0  0  0  0  0  0  0
  180.1880  178.3790  139.1300 O   0  0  0  0  0  1  0  0  0  0  0  0
  181.4070  178.0120  139.6960 C   0  0  1  0  0  0  0  0  0  0  0  0
  182.6950  178.6340  141.6960 C   0  0  0  0  0  0  0  0  0  0  0  0
  184.2260  180.1310  139.4690 O   0  0  0  0  0  1  0  0  0  0  0  0
  182.5440  178.5780  138.8170 C   0  0  1  0  0  3  0  0  0  0  0  0
  183.9450  178.2450  140.9630 C   0  0  1  0  0  3  0  0  0  0  0  0
  181.4810  178.5480  141.0220 O   0  0  0  0  0  0  0  0  0  0  0  0
  183.9060  178.7730  139.5130 C   0  0  2  0  0  3  0  0  0  0  0  0
  181.4910  176.4850  139.7520 C   0  0  0  0  0  2  0  0  0  0  0  0
  180.2950  175.9150  139.3110 O   0  0  0  0  0  0  0  0  0  0  0  0
  181.0320  172.5600  137.2000 O   0  0  0  0  0  0  0  0  0  0  0  0
  181.1460  175.0170  137.2120 C   0  0  2  0  0  3  0  0  0  0  0  0
  179.5390  173.7070  138.7070 C   0  0  0  0  0  2  0  0  0  0  0  0
  180.1730  175.9190  136.4640 C   0  0  0  0  0  1  0  0  0  0  0  0
  181.3120  173.7070  136.4210 C   0  0  0  0  0  2  0  0  0  0  0  0
  179.6870  172.6650  137.5910 C   0  0  0  0  0  2  0  0  0  0  0  0
  180.6690  174.7420  138.6520 C   0  0  2  0  0  3  0  0  0  0  0  0
  190.9490  176.1980  141.5470 C   0  0  0  0  0  2  0  0  0  0  0  0
  190.2380  176.6940  140.3030 C   0  0  0  0  0  2  0  0  0  0  0  0
  190.2480  175.7000  139.3210 O   0  0  0  0  0  0  0  0  0  0  0  0
  194.3870  175.0210  134.6110 C   0  0  0  0  0  2  0  0  0  0  0  0
  188.8960  175.3430  134.8040 C   0  0  0  0  0  2  0  0  0  0  0  0
  189.5680  176.6170  135.2880 C   0  0  0  0  0  2  0  0  0  0  0  0
  193.1780  176.0040  136.8340 C   0  0  1  0  0  3  0  0  0  0  0  0
  192.7590  173.1670  134.9360 N   0  0  0  0  0  2  0  0  0  0  0  0
  193.8410  173.9410  135.5490 C   0  0  2  0  0  3  0  0  0  0  0  0
  186.9010  178.6330  137.0900 C   0  0  0  0  0  3  0  0  0  0  0  0
  187.3020  178.5160  138.4200 C   0  0  0  0  0  3  0  0  0  0  0  0
  193.4650  174.5040  136.9280 C   0  0  0  0  0  2  0  0  0  0  0  0
  189.1830  177.1340  137.7400 C   0  0  0  0  0  0  0  0  0  0  0  0
  192.9280  176.5930  138.2120 C   0  0  0  0  0  2  0  0  0  0  0  0
  190.4280  176.3810  138.1110 C   0  0  1  0  0  3  0  0  0  0  0  0
  188.4400  177.7750  138.7420 C   0  0  0  0  0  3  0  0  0  0  0  0
  191.5620  173.9870  134.7580 C   0  0  0  0  0  2  0  0  0  0  0  0
  188.7810  177.2600  136.3910 C   0  0  0  0  0  0  0  0  0  0  0  0
  187.6330  178.0130  136.0760 C   0  0  0  0  0  0  0  0  0  0  0  0
  191.6060  177.3460  138.2260 C   0  0  0  0  0  2  0  0  0  0  0  0
  189.2010  174.2290  135.6880 N   0  0  0  0  0  2  0  0  0  0  0  0
  190.6350  172.5830  136.4740 O   0  0  0  0  0  0  0  0  0  0  0  0
  187.2140  178.1480  134.7550 O   0  0  0  0  0  1  0  0  0  0  0  0
  194.3000  176.7600  136.0990 C   0  0  0  0  0  2  0  0  0  0  0  0
  195.1670  175.9260  135.3520 O   0  0  0  0  0  0  0  0  0  0  0  0
  190.4640  173.5600  135.6940 C   0  0  0  0  0  0  0  0  0  0  0  0
  1  2  1  0  0  0  0
  2  5  1  0  0  0  0
  3  2  2  0  0  0  0
  5  4  1  6  0  0  0
  6  5  1  0  0  0  0
  8  6  1  0  0  0  0
  9  8  2  0  0  0  0
 10  8  1  0  0  0  0
 11  7  2  0  0  0  0
 11 10  1  0  0  0  0
 15 14  1  6  0  0  0
 15 22  1  0  0  0  0
 15 20  1  0  0  0  0
 16 12  2  0  0  0  0
 18 13  1  6  0  0  0
 18 21  1  0  0  0  0
 18 15  1  0  0  0  0
 19 16  1  0  0  0  0
 19 11  1  1  0  0  0
 20 16  1  0  0  0  0
 21 17  1  1  0  0  0
 21 19  1  0  0  0  0
 23 22  1  0  0  0  0
 24 29  1  0  0  0  0
 25 27  1  6  0  0  0
 25 30  1  0  0  0  0
 28 24  1  0  0  0  0
 28 25  1  0  0  0  0
 29 26  1  0  0  0  0
 30 26  1  0  0  0  0
 30 23  1  6  0  0  0
 31  1  1  0  0  0  0
 32 31  1  0  0  0  0
 33 32  1  0  0  0  0
 34 55  1  0  0  0  0
 35 36  1  0  0  0  0
 35 51  1  0  0  0  0
 36 48  1  0  0  0  0
 37 54  1  1  0  0  0
 37 42  1  0  0  0  0
 37 44  1  0  0  0  0
 38 39  1  0  0  0  0
 39 34  1  6  0  0  0
 39 42  1  0  0  0  0
 40 41  1  0  0  0  0
 41 46  2  0  0  0  0
 43 45  1  0  0  0  0
 43 46  1  0  0  0  0
 44 50  1  0  0  0  0
 45 50  1  0  0  0  0
 45 33  1  1  0  0  0
 47 38  1  0  0  0  0
 47 56  1  0  0  0  0
 48 43  2  0  0  0  0
 49 48  1  0  0  0  0
 49 40  2  0  0  0  0
 51 56  1  0  0  0  0
 53 49  1  0  0  0  0
 55 54  1  0  0  0  0
 56 52  2  0  0  0  0
M  END
>  <MODEL>
9

>  <REMARK>
 VINA RESULT:      -6.1      3.712     10.124
  Name = 
  11 active torsions:
  status: ('A' for Active; 'I' for Inactive)
    1  A    between atoms: N_1  and  C_24
    2  A    between atoms: C_8  and  C_30
    3  A    between atoms: C_10  and  C_35
    4  A    between atoms: C_20  and  C_49
    5  A    between atoms: C_24  and  C_51
    6  A    between atoms: C_25  and  O_39
    7  A    between atoms: C_30  and  C_35
    8  A    between atoms: O_39  and  C_51
    9  A    between atoms: C_40  and  C_50
   10  A    between atoms: C_46  and  O_54
   11  A    between atoms: C_49  and  O_54
                            x       y       z     vdW  Elec       q    Type
                         _______ _______ _______ _____ _____    ______ ____

>  <TORSDO>
F 11

$$$$
