=
 OpenBabel11042412513D

 43 49  0  0  1  0  0  0  0  0999 V2000
  183.0900  178.6640  141.3220 C   0  0  0  0  0  0  0  0  0  0  0  0
  188.0410  178.6030  138.6820 C   0  0  0  0  0  0  0  0  0  0  0  0
  190.0280  176.4320  137.9510 C   0  0  0  0  0  0  0  0  0  0  0  0
  184.4840  179.0110  139.2250 C   0  0  0  0  0  3  0  0  0  0  0  0
  185.4430  178.1060  142.0740 C   0  0  0  0  0  3  0  0  0  0  0  0
  185.7480  178.7400  139.5360 C   0  0  0  0  0  0  0  0  0  0  0  0
  186.6830  178.8760  138.5010 O   0  0  0  0  0  0  0  0  0  0  0  0
  186.2430  178.3050  140.8650 C   0  0  0  0  0  0  0  0  0  0  0  0
  184.1360  178.2550  142.2620 C   0  0  0  0  0  3  0  0  0  0  0  0
  189.3840  177.3770  137.1260 O   0  0  0  0  0  0  0  0  0  0  0  0
  188.5020  178.2170  139.8780 C   0  0  0  0  0  0  0  0  0  0  0  0
  188.9730  178.6850  137.5180 C   0  0  0  0  0  2  0  0  0  0  0  0
  183.2670  178.9770  140.0410 C   0  0  0  0  0  3  0  0  0  0  0  0
  181.7640  178.7330  141.8320 N   0  0  0  0  0  1  0  0  0  0  0  0
  187.5500  178.0600  140.9960 C   0  0  0  0  0  3  0  0  0  0  0  0
  190.3000  176.6330  139.2510 C   0  0  0  0  0  3  0  0  0  0  0  0
  189.9630  177.8730  140.0280 C   0  0  2  0  0  3  0  0  0  0  0  0
  191.6180  174.6120  137.6240 N   0  0  0  0  0  0  0  0  0  0  0  0
  192.0320  173.4630  137.0390 C   0  0  0  0  0  3  0  0  0  0  0  0
  189.5330  174.4400  136.4700 C   0  0  0  0  0  0  0  0  0  0  0  0
  190.3900  175.1330  137.3580 C   0  0  0  0  0  0  0  0  0  0  0  0
  190.0000  173.2990  135.8950 N   0  0  0  0  0  0  0  0  0  0  0  0
  191.2140  172.8220  136.1670 N   0  0  0  0  0  0  0  0  0  0  0  0
  185.5080  175.7170  135.7120 C   0  0  0  0  0  0  0  0  0  0  0  0
  184.1140  176.1670  135.4560 C   0  0  0  0  0  1  0  0  0  0  0  0
  185.8500  175.1640  136.9500 C   0  0  0  0  0  3  0  0  0  0  0  0
  188.1390  174.8560  136.1890 C   0  0  0  0  0  0  0  0  0  0  0  0
  186.4790  175.8580  134.7170 C   0  0  0  0  0  3  0  0  0  0  0  0
  187.7900  175.4350  134.9570 C   0  0  0  0  0  3  0  0  0  0  0  0
  187.1620  174.7410  137.1890 C   0  0  0  0  0  3  0  0  0  0  0  0
  190.3290  177.6960  141.4260 N   0  0  0  0  0  2  0  0  0  0  0  0
  190.2360  176.3260  141.7050 N   0  0  0  0  0  2  0  0  0  0  0  0
  190.9120  176.1070  142.9710 C   0  0  0  0  0  2  0  0  0  0  0  0
  188.8320  177.0350  144.5350 C   0  0  0  0  0  0  0  0  0  0  0  0
  190.0580  176.5370  144.0630 N   0  0  0  0  0  0  0  0  0  0  0  0
  189.8740  176.8640  145.4170 C   0  0  0  0  0  0  0  0  0  0  0  0
  188.3420  177.9880  148.5910 C   0  0  0  0  0  1  0  0  0  0  0  0
  187.4780  177.8120  146.2100 C   0  0  0  0  0  3  0  0  0  0  0  0
  188.5760  177.6340  147.1630 C   0  0  0  0  0  0  0  0  0  0  0  0
  187.5800  177.5060  144.8050 C   0  0  0  0  0  3  0  0  0  0  0  0
  189.8620  177.1330  146.7560 C   0  0  0  0  0  0  0  0  0  0  0  0
  190.9420  176.9540  147.6240 O   0  0  0  0  0  0  0  0  0  0  0  0
  191.9770  176.0210  147.3560 C   0  0  0  0  0  1  0  0  0  0  0  0
  1 14  1  0  0  0  0
  1  9  1  0  0  0  0
  2 11  2  0  0  0  0
  3 16  2  0  0  0  0
  4  6  2  0  0  0  0
  4 13  1  0  0  0  0
  5  9  2  0  0  0  0
  6  8  1  0  0  0  0
  7  2  1  0  0  0  0
  7  6  1  0  0  0  0
  8 15  2  0  0  0  0
  8  5  1  0  0  0  0
 10 12  1  0  0  0  0
 10  3  1  0  0  0  0
 11 17  1  0  0  0  0
 11 15  1  0  0  0  0
 12  2  1  0  0  0  0
 13  1  2  0  0  0  0
 16 17  1  0  0  0  0
 17 31  1  1  0  0  0
 19 18  2  0  0  0  0
 20 21  2  0  0  0  0
 21 18  1  0  0  0  0
 21  3  1  0  0  0  0
 22 23  2  0  0  0  0
 22 20  1  0  0  0  0
 23 19  1  0  0  0  0
 24 26  1  0  0  0  0
 25 24  1  0  0  0  0
 26 30  2  0  0  0  0
 27 20  1  0  0  0  0
 27 30  1  0  0  0  0
 28 29  1  0  0  0  0
 28 24  2  0  0  0  0
 29 27  2  0  0  0  0
 31 32  1  0  0  0  0
 32 33  1  0  0  0  0
 33 35  1  0  0  0  0
 34 40  2  0  0  0  0
 34 36  1  0  0  0  0
 35 34  1  0  0  0  0
 35 36  1  0  0  0  0
 36 41  2  0  0  0  0
 38 39  2  0  0  0  0
 39 37  1  0  0  0  0
 40 38  1  0  0  0  0
 41 39  1  0  0  0  0
 41 42  1  0  0  0  0
 43 42  1  0  0  0  0
M  END
>  <MODEL>
1

>  <REMARK>
 VINA RESULT:      -9.6      0.000      0.000
  Name = 
  7 active torsions:
  status: ('A' for Active; 'I' for Inactive)
    1  A    between atoms: N_4  and  N_32
    2  A    between atoms: N_4  and  C_42
    3  A    between atoms: C_6  and  C_21
    4  A    between atoms: C_7  and  C_15
    5  A    between atoms: N_10  and  C_29
    6  A    between atoms: O_26  and  C_43
    7  A    between atoms: C_29  and  N_32
                            x       y       z     vdW  Elec       q    Type
                         _______ _______ _______ _____ _____    ______ ____

>  <TORSDO>
F 7

$$$$
=
 OpenBabel11042412513D

 43 49  0  0  1  0  0  0  0  0999 V2000
  182.2100  178.8710  142.4900 C   0  0  0  0  0  0  0  0  0  0  0  0
  186.0900  178.5290  138.4500 C   0  0  0  0  0  0  0  0  0  0  0  0
  187.9310  176.3330  137.4580 C   0  0  0  0  0  0  0  0  0  0  0  0
  182.8530  178.9030  140.0300 C   0  0  0  0  0  3  0  0  0  0  0  0
  184.7190  178.5280  142.5270 C   0  0  0  0  0  3  0  0  0  0  0  0
  184.1700  178.7310  139.9590 C   0  0  0  0  0  0  0  0  0  0  0  0
  184.7230  178.7210  138.6720 O   0  0  0  0  0  0  0  0  0  0  0  0
  185.0860  178.5460  141.1100 C   0  0  0  0  0  0  0  0  0  0  0  0
  183.5260  178.6630  143.0970 C   0  0  0  0  0  3  0  0  0  0  0  0
  186.9860  177.1020  136.7500 O   0  0  0  0  0  0  0  0  0  0  0  0
  186.9290  178.3680  139.4800 C   0  0  0  0  0  0  0  0  0  0  0  0
  186.6050  178.4430  137.0510 C   0  0  0  0  0  2  0  0  0  0  0  0
  181.9540  178.9680  141.1870 C   0  0  0  0  0  3  0  0  0  0  0  0
  181.1060  178.9810  143.3790 N   0  0  0  0  0  1  0  0  0  0  0  0
  186.3850  178.3710  140.8530 C   0  0  0  0  0  3  0  0  0  0  0  0
  188.5730  176.7610  138.5580 C   0  0  0  0  0  3  0  0  0  0  0  0
  188.3880  178.1020  139.2060 C   0  0  2  0  0  3  0  0  0  0  0  0
  189.4840  174.5120  136.9930 N   0  0  0  0  0  0  0  0  0  0  0  0
  189.7990  173.2930  136.4900 C   0  0  0  0  0  3  0  0  0  0  0  0
  187.1870  174.1310  136.4570 C   0  0  0  0  0  0  0  0  0  0  0  0
  188.2020  174.9650  136.9840 C   0  0  0  0  0  0  0  0  0  0  0  0
  187.5550  172.9230  135.9490 N   0  0  0  0  0  0  0  0  0  0  0  0
  188.8220  172.5140  135.9620 N   0  0  0  0  0  0  0  0  0  0  0  0
  182.9980  175.0570  136.4980 C   0  0  0  0  0  0  0  0  0  0  0  0
  181.5440  175.3710  136.5040 C   0  0  0  0  0  1  0  0  0  0  0  0
  183.7680  175.3250  135.3610 C   0  0  0  0  0  3  0  0  0  0  0  0
  185.7460  174.4750  136.4910 C   0  0  0  0  0  0  0  0  0  0  0  0
  183.5920  174.4840  137.6260 C   0  0  0  0  0  3  0  0  0  0  0  0
  184.9590  174.1890  137.6190 C   0  0  0  0  0  3  0  0  0  0  0  0
  185.1350  175.0290  135.3560 C   0  0  0  0  0  3  0  0  0  0  0  0
  189.1810  178.1770  140.4240 N   0  0  0  0  0  2  0  0  0  0  0  0
  189.6070  176.8750  140.7190 N   0  0  0  0  0  2  0  0  0  0  0  0
  190.6190  176.9870  141.7540 C   0  0  0  0  0  2  0  0  0  0  0  0
  188.8350  177.3190  143.8370 C   0  0  0  0  0  0  0  0  0  0  0  0
  189.9810  177.1110  143.0520 N   0  0  0  0  0  0  0  0  0  0  0  0
  190.0630  177.2170  144.4500 C   0  0  0  0  0  0  0  0  0  0  0  0
  189.1420  177.6220  148.0100 C   0  0  0  0  0  1  0  0  0  0  0  0
  187.7980  177.6150  145.8560 C   0  0  0  0  0  3  0  0  0  0  0  0
  189.0960  177.5070  146.5260 C   0  0  0  0  0  0  0  0  0  0  0  0
  187.6220  177.5220  144.4290 C   0  0  0  0  0  3  0  0  0  0  0  0
  190.3150  177.2990  145.7900 C   0  0  0  0  0  0  0  0  0  0  0  0
  191.5770  177.1980  146.3810 O   0  0  0  0  0  0  0  0  0  0  0  0
  192.1280  175.9500  146.7730 C   0  0  0  0  0  1  0  0  0  0  0  0
  1  9  1  0  0  0  0
  1 14  1  0  0  0  0
  2  7  1  0  0  0  0
  2 11  2  0  0  0  0
  3 16  2  0  0  0  0
  4 13  1  0  0  0  0
  5  9  2  0  0  0  0
  6  4  2  0  0  0  0
  6  8  1  0  0  0  0
  7  6  1  0  0  0  0
  8  5  1  0  0  0  0
 10 12  1  0  0  0  0
 10  3  1  0  0  0  0
 11 15  1  0  0  0  0
 12  2  1  0  0  0  0
 13  1  2  0  0  0  0
 15  8  2  0  0  0  0
 16 17  1  0  0  0  0
 17 11  1  0  0  0  0
 17 31  1  1  0  0  0
 19 18  2  0  0  0  0
 20 27  1  0  0  0  0
 20 21  2  0  0  0  0
 21 18  1  0  0  0  0
 21  3  1  0  0  0  0
 22 23  2  0  0  0  0
 22 20  1  0  0  0  0
 23 19  1  0  0  0  0
 24 25  1  0  0  0  0
 24 28  1  0  0  0  0
 26 24  2  0  0  0  0
 27 29  1  0  0  0  0
 29 28  2  0  0  0  0
 30 26  1  0  0  0  0
 30 27  2  0  0  0  0
 31 32  1  0  0  0  0
 32 33  1  0  0  0  0
 33 35  1  0  0  0  0
 34 40  2  0  0  0  0
 34 36  1  0  0  0  0
 35 34  1  0  0  0  0
 35 36  1  0  0  0  0
 36 41  2  0  0  0  0
 38 39  2  0  0  0  0
 39 37  1  0  0  0  0
 40 38  1  0  0  0  0
 41 42  1  0  0  0  0
 41 39  1  0  0  0  0
 42 43  1  0  0  0  0
M  END
>  <MODEL>
2

>  <REMARK>
 VINA RESULT:      -9.0      1.407      2.002
  Name = 
  7 active torsions:
  status: ('A' for Active; 'I' for Inactive)
    1  A    between atoms: N_4  and  N_32
    2  A    between atoms: N_4  and  C_42
    3  A    between atoms: C_6  and  C_21
    4  A    between atoms: C_7  and  C_15
    5  A    between atoms: N_10  and  C_29
    6  A    between atoms: O_26  and  C_43
    7  A    between atoms: C_29  and  N_32
                            x       y       z     vdW  Elec       q    Type
                         _______ _______ _______ _____ _____    ______ ____

>  <TORSDO>
F 7

$$$$
=
 OpenBabel11042412513D

 43 49  0  0  1  0  0  0  0  0999 V2000
  184.9820  178.6560  144.3930 C   0  0  0  0  0  0  0  0  0  0  0  0
  187.5290  178.2590  139.4080 C   0  0  0  0  0  0  0  0  0  0  0  0
  188.2490  175.9550  137.5720 C   0  0  0  0  0  0  0  0  0  0  0  0
  185.0430  179.1250  141.8940 C   0  0  0  0  0  3  0  0  0  0  0  0
  187.1670  177.6180  143.6460 C   0  0  0  0  0  3  0  0  0  0  0  0
  186.1730  178.6100  141.4180 C   0  0  0  0  0  0  0  0  0  0  0  0
  186.3940  178.7680  140.0440 O   0  0  0  0  0  0  0  0  0  0  0  0
  187.2000  177.8870  142.2080 C   0  0  0  0  0  0  0  0  0  0  0  0
  186.2480  177.9370  144.5500 C   0  0  0  0  0  3  0  0  0  0  0  0
  187.4910  177.1140  137.3070 O   0  0  0  0  0  0  0  0  0  0  0  0
  188.4670  177.6110  140.1100 C   0  0  0  0  0  0  0  0  0  0  0  0
  187.6660  178.3870  137.9260 C   0  0  0  0  0  2  0  0  0  0  0  0
  184.4960  179.1480  143.2540 C   0  0  0  0  0  3  0  0  0  0  0  0
  184.2040  178.8480  145.5670 N   0  0  0  0  0  1  0  0  0  0  0  0
  188.2720  177.4220  141.5620 C   0  0  0  0  0  3  0  0  0  0  0  0
  189.2230  175.8910  138.4960 C   0  0  0  0  0  3  0  0  0  0  0  0
  189.6520  177.0210  139.3870 C   0  0  2  0  0  3  0  0  0  0  0  0
  186.6900  174.1860  136.9520 N   0  0  0  0  0  0  0  0  0  0  0  0
  186.3700  173.0180  136.3450 C   0  0  0  0  0  3  0  0  0  0  0  0
  188.8800  174.0710  136.0040 C   0  0  0  0  0  0  0  0  0  0  0  0
  187.9280  174.7330  136.8160 C   0  0  0  0  0  0  0  0  0  0  0  0
  188.5170  172.8930  135.4280 N   0  0  0  0  0  0  0  0  0  0  0  0
  187.3000  172.3780  135.5920 N   0  0  0  0  0  0  0  0  0  0  0  0
  192.7740  175.6060  135.0590 C   0  0  0  0  0  0  0  0  0  0  0  0
  194.1250  176.1290  134.7260 C   0  0  0  0  0  1  0  0  0  0  0  0
  192.6410  174.4450  135.8280 C   0  0  0  0  0  3  0  0  0  0  0  0
  190.2200  174.6260  135.6980 C   0  0  0  0  0  0  0  0  0  0  0  0
  191.6350  176.2690  134.5940 C   0  0  0  0  0  3  0  0  0  0  0  0
  190.3640  175.7770  134.9070 C   0  0  0  0  0  3  0  0  0  0  0  0
  191.3700  173.9540  136.1410 C   0  0  0  0  0  3  0  0  0  0  0  0
  190.6690  176.5570  140.3190 N   0  0  0  0  0  2  0  0  0  0  0  0
  191.7520  177.4400  140.2170 N   0  0  0  0  0  2  0  0  0  0  0  0
  192.6460  177.1390  141.3210 C   0  0  0  0  0  2  0  0  0  0  0  0
  191.1410  178.1110  143.4230 C   0  0  0  0  0  0  0  0  0  0  0  0
  191.9520  177.3330  142.5810 N   0  0  0  0  0  0  0  0  0  0  0  0
  191.6760  176.9360  143.9000 C   0  0  0  0  0  0  0  0  0  0  0  0
  190.3490  176.8710  147.3520 C   0  0  0  0  0  1  0  0  0  0  0  0
  190.1060  178.5070  145.4270 C   0  0  0  0  0  3  0  0  0  0  0  0
  190.6660  177.2590  145.9500 C   0  0  0  0  0  0  0  0  0  0  0  0
  190.3390  178.9920  144.0900 C   0  0  0  0  0  3  0  0  0  0  0  0
  191.5100  176.4110  145.1500 C   0  0  0  0  0  0  0  0  0  0  0  0
  192.0750  175.2180  145.6050 O   0  0  0  0  0  0  0  0  0  0  0  0
  192.4300  174.1660  144.7200 C   0  0  0  0  0  1  0  0  0  0  0  0
  1  9  1  0  0  0  0
  1 14  1  0  0  0  0
  2  7  1  0  0  0  0
  2 11  2  0  0  0  0
  3 16  2  0  0  0  0
  4 13  1  0  0  0  0
  5  9  2  0  0  0  0
  6  4  2  0  0  0  0
  6  8  1  0  0  0  0
  7  6  1  0  0  0  0
  8  5  1  0  0  0  0
 10  3  1  0  0  0  0
 10 12  1  0  0  0  0
 11 15  1  0  0  0  0
 12  2  1  0  0  0  0
 13  1  2  0  0  0  0
 15  8  2  0  0  0  0
 16 17  1  0  0  0  0
 17 11  1  0  0  0  0
 17 31  1  1  0  0  0
 19 18  2  0  0  0  0
 20 21  2  0  0  0  0
 21 18  1  0  0  0  0
 21  3  1  0  0  0  0
 22 23  2  0  0  0  0
 22 20  1  0  0  0  0
 23 19  1  0  0  0  0
 24 26  1  0  0  0  0
 25 24  1  0  0  0  0
 26 30  2  0  0  0  0
 27 20  1  0  0  0  0
 27 30  1  0  0  0  0
 28 29  1  0  0  0  0
 28 24  2  0  0  0  0
 29 27  2  0  0  0  0
 32 31  1  0  0  0  0
 32 33  1  0  0  0  0
 33 35  1  0  0  0  0
 34 36  2  0  0  0  0
 34 40  1  0  0  0  0
 35 34  1  0  0  0  0
 35 36  1  0  0  0  0
 36 41  1  0  0  0  0
 38 39  1  0  0  0  0
 39 37  1  0  0  0  0
 40 38  2  0  0  0  0
 41 42  1  0  0  0  0
 41 39  2  0  0  0  0
 43 42  1  0  0  0  0
M  END
>  <MODEL>
3

>  <REMARK>
 VINA RESULT:      -8.8      2.037      3.497
  Name = 
  7 active torsions:
  status: ('A' for Active; 'I' for Inactive)
    1  A    between atoms: N_4  and  N_32
    2  A    between atoms: N_4  and  C_42
    3  A    between atoms: C_6  and  C_21
    4  A    between atoms: C_7  and  C_15
    5  A    between atoms: N_10  and  C_29
    6  A    between atoms: O_26  and  C_43
    7  A    between atoms: C_29  and  N_32
                            x       y       z     vdW  Elec       q    Type
                         _______ _______ _______ _____ _____    ______ ____

>  <TORSDO>
F 7

$$$$
=
 OpenBabel11042412513D

 43 49  0  0  1  0  0  0  0  0999 V2000
  186.9970  177.6210  146.2300 C   0  0  0  0  0  0  0  0  0  0  0  0
  183.0750  179.0580  142.4820 C   0  0  0  0  0  0  0  0  0  0  0  0
  181.6590  177.6020  140.2310 C   0  0  0  0  0  0  0  0  0  0  0  0
  184.6230  178.3460  145.6780 C   0  0  0  0  0  3  0  0  0  0  0  0
  187.0140  177.8400  143.7070 C   0  0  0  0  0  3  0  0  0  0  0  0
  184.5460  178.4890  144.3580 C   0  0  0  0  0  0  0  0  0  0  0  0
  183.3030  178.8900  143.8510 O   0  0  0  0  0  0  0  0  0  0  0  0
  185.6470  178.2560  143.3910 C   0  0  0  0  0  0  0  0  0  0  0  0
  187.5730  177.5780  144.8840 C   0  0  0  0  0  3  0  0  0  0  0  0
  181.1200  178.2830  141.3410 O   0  0  0  0  0  0  0  0  0  0  0  0
  184.0620  178.8580  141.6000 C   0  0  0  0  0  0  0  0  0  0  0  0
  181.7050  179.4050  141.9990 C   0  0  0  0  0  2  0  0  0  0  0  0
  185.7440  177.9490  146.5360 C   0  0  0  0  0  3  0  0  0  0  0  0
  187.8620  177.2830  147.3070 N   0  0  0  0  0  1  0  0  0  0  0  0
  185.3880  178.4330  142.0930 C   0  0  0  0  0  3  0  0  0  0  0  0
  182.8410  177.9030  139.6690 C   0  0  0  0  0  3  0  0  0  0  0  0
  183.7700  178.9900  140.1260 C   0  0  2  0  0  3  0  0  0  0  0  0
  180.6560  175.3930  140.4740 N   0  0  0  0  0  0  0  0  0  0  0  0
  180.0310  174.2910  139.9910 C   0  0  0  0  0  3  0  0  0  0  0  0
  180.4580  176.4340  138.3330 C   0  0  0  0  0  0  0  0  0  0  0  0
  180.8950  176.4700  139.6790 C   0  0  0  0  0  0  0  0  0  0  0  0
  179.8500  175.3010  137.8900 N   0  0  0  0  0  0  0  0  0  0  0  0
  179.6420  174.2570  138.6920 N   0  0  0  0  0  0  0  0  0  0  0  0
  180.7380  179.7180  135.5850 C   0  0  0  0  0  0  0  0  0  0  0  0
  180.8310  180.8490  134.6250 C   0  0  0  0  0  1  0  0  0  0  0  0
  181.5560  178.5940  135.4260 C   0  0  0  0  0  3  0  0  0  0  0  0
  180.5690  177.5860  137.4070 C   0  0  0  0  0  0  0  0  0  0  0  0
  179.8230  179.7730  136.6410 C   0  0  0  0  0  3  0  0  0  0  0  0
  179.7350  178.7080  137.5430 C   0  0  0  0  0  3  0  0  0  0  0  0
  181.4670  177.5300  136.3300 C   0  0  0  0  0  3  0  0  0  0  0  0
  184.9920  178.9620  139.3360 N   0  0  0  0  0  2  0  0  0  0  0  0
  184.8830  177.8830  138.4480 N   0  0  0  0  0  2  0  0  0  0  0  0
  185.9160  178.0590  137.4430 C   0  0  0  0  0  2  0  0  0  0  0  0
  188.0890  177.7240  139.1160 C   0  0  0  0  0  0  0  0  0  0  0  0
  187.2150  177.7570  138.0170 N   0  0  0  0  0  0  0  0  0  0  0  0
  188.5610  177.3810  137.8690 C   0  0  0  0  0  0  0  0  0  0  0  0
  192.0960  176.5880  138.6140 C   0  0  0  0  0  1  0  0  0  0  0  0
  190.1470  177.3530  140.0490 C   0  0  0  0  0  3  0  0  0  0  0  0
  190.6650  176.9830  138.7300 C   0  0  0  0  0  0  0  0  0  0  0  0
  188.7840  177.7540  140.2910 C   0  0  0  0  0  3  0  0  0  0  0  0
  189.8330  176.9970  137.5560 C   0  0  0  0  0  0  0  0  0  0  0  0
  190.2820  176.6620  136.2760 O   0  0  0  0  0  0  0  0  0  0  0  0
  189.5060  176.9170  135.1150 C   0  0  0  0  0  1  0  0  0  0  0  0
  1 13  2  0  0  0  0
  1 14  1  0  0  0  0
  2  7  1  0  0  0  0
  3 10  1  0  0  0  0
  4 13  1  0  0  0  0
  5  9  2  0  0  0  0
  6  4  2  0  0  0  0
  7  6  1  0  0  0  0
  8  5  1  0  0  0  0
  8  6  1  0  0  0  0
  9  1  1  0  0  0  0
 10 12  1  0  0  0  0
 11 15  1  0  0  0  0
 11  2  2  0  0  0  0
 12  2  1  0  0  0  0
 15  8  2  0  0  0  0
 16 17  1  0  0  0  0
 16  3  2  0  0  0  0
 17 31  1  6  0  0  0
 17 11  1  0  0  0  0
 19 18  1  0  0  0  0
 20 21  1  0  0  0  0
 21  3  1  0  0  0  0
 21 18  2  0  0  0  0
 22 20  2  0  0  0  0
 22 23  1  0  0  0  0
 23 19  2  0  0  0  0
 24 28  1  0  0  0  0
 25 24  1  0  0  0  0
 26 24  2  0  0  0  0
 26 30  1  0  0  0  0
 27 29  1  0  0  0  0
 27 20  1  0  0  0  0
 28 29  2  0  0  0  0
 30 27  2  0  0  0  0
 32 31  1  0  0  0  0
 33 35  1  0  0  0  0
 33 32  1  0  0  0  0
 34 40  1  0  0  0  0
 35 34  1  0  0  0  0
 36 35  1  0  0  0  0
 36 34  2  0  0  0  0
 37 39  1  0  0  0  0
 38 40  2  0  0  0  0
 39 38  1  0  0  0  0
 41 36  1  0  0  0  0
 41 39  2  0  0  0  0
 42 41  1  0  0  0  0
 43 42  1  0  0  0  0
M  END
>  <MODEL>
4

>  <REMARK>
 VINA RESULT:      -8.6      3.358      7.895
  Name = 
  7 active torsions:
  status: ('A' for Active; 'I' for Inactive)
    1  A    between atoms: N_4  and  N_32
    2  A    between atoms: N_4  and  C_42
    3  A    between atoms: C_6  and  C_21
    4  A    between atoms: C_7  and  C_15
    5  A    between atoms: N_10  and  C_29
    6  A    between atoms: O_26  and  C_43
    7  A    between atoms: C_29  and  N_32
                            x       y       z     vdW  Elec       q    Type
                         _______ _______ _______ _____ _____    ______ ____

>  <TORSDO>
F 7

$$$$
=
 OpenBabel11042412513D

 43 49  0  0  1  0  0  0  0  0999 V2000
  189.3130  176.6970  135.3430 C   0  0  0  0  0  0  0  0  0  0  0  0
  184.3430  176.7810  137.9480 C   0  0  0  0  0  0  0  0  0  0  0  0
  182.0100  178.7180  138.0030 C   0  0  0  0  0  0  0  0  0  0  0  0
  186.9930  175.7250  135.7170 C   0  0  0  0  0  3  0  0  0  0  0  0
  188.3170  178.2030  137.1190 C   0  0  0  0  0  3  0  0  0  0  0  0
  186.3960  176.4640  136.6490 C   0  0  0  0  0  0  0  0  0  0  0  0
  185.0940  176.0820  136.9990 O   0  0  0  0  0  0  0  0  0  0  0  0
  186.9820  177.6430  137.3320 C   0  0  0  0  0  0  0  0  0  0  0  0
  189.2820  177.8100  136.2950 C   0  0  0  0  0  3  0  0  0  0  0  0
  182.0330  177.3460  137.6800 O   0  0  0  0  0  0  0  0  0  0  0  0
  184.8620  177.8420  138.5770 C   0  0  0  0  0  0  0  0  0  0  0  0
  182.9310  176.3760  138.2160 C   0  0  0  0  0  2  0  0  0  0  0  0
  188.3270  175.8300  135.1190 C   0  0  0  0  0  3  0  0  0  0  0  0
  190.5090  176.5290  134.5940 N   0  0  0  0  0  1  0  0  0  0  0  0
  186.2310  178.2780  138.2360 C   0  0  0  0  0  3  0  0  0  0  0  0
  182.8810  179.3050  138.8400 C   0  0  0  0  0  3  0  0  0  0  0  0
  184.0060  178.6120  139.5520 C   0  0  2  0  0  3  0  0  0  0  0  0
  181.1030  179.8120  136.0220 N   0  0  0  0  0  0  0  0  0  0  0  0
  180.2430  180.6480  135.3930 C   0  0  0  0  0  3  0  0  0  0  0  0
  179.9420  180.1750  138.0780 C   0  0  0  0  0  0  0  0  0  0  0  0
  180.9920  179.5620  137.3540 C   0  0  0  0  0  0  0  0  0  0  0  0
  179.1130  181.0190  137.4060 N   0  0  0  0  0  0  0  0  0  0  0  0
  179.2570  181.2530  136.1020 N   0  0  0  0  0  0  0  0  0  0  0  0
  179.2050  179.3100  142.2150 C   0  0  0  0  0  0  0  0  0  0  0  0
  178.9570  179.0030  143.6490 C   0  0  0  0  0  1  0  0  0  0  0  0
  179.0020  178.3250  141.2420 C   0  0  0  0  0  3  0  0  0  0  0  0
  179.6610  179.8950  139.5060 C   0  0  0  0  0  0  0  0  0  0  0  0
  179.6520  180.5800  141.8410 C   0  0  0  0  0  3  0  0  0  0  0  0
  179.8850  180.8680  140.4930 C   0  0  0  0  0  3  0  0  0  0  0  0
  179.2350  178.6150  139.8940 C   0  0  0  0  0  3  0  0  0  0  0  0
  184.7910  179.5820  140.3010 N   0  0  0  0  0  2  0  0  0  0  0  0
  184.7440  179.1970  141.6470 N   0  0  0  0  0  2  0  0  0  0  0  0
  185.9790  178.4860  141.9260 C   0  0  0  0  0  2  0  0  0  0  0  0
  185.6420  178.4510  144.6670 C   0  0  0  0  0  0  0  0  0  0  0  0
  186.1330  178.3130  143.3590 N   0  0  0  0  0  0  0  0  0  0  0  0
  186.9210  177.9790  144.4730 C   0  0  0  0  0  0  0  0  0  0  0  0
  188.0400  177.4350  147.9570 C   0  0  0  0  0  1  0  0  0  0  0  0
  185.8750  178.2860  146.9390 C   0  0  0  0  0  3  0  0  0  0  0  0
  187.2370  177.7800  146.7510 C   0  0  0  0  0  0  0  0  0  0  0  0
  185.0000  178.6540  145.8540 C   0  0  0  0  0  3  0  0  0  0  0  0
  187.8110  177.6150  145.4420 C   0  0  0  0  0  0  0  0  0  0  0  0
  189.1070  177.1460  145.2110 O   0  0  0  0  0  0  0  0  0  0  0  0
  190.1860  178.0230  144.9230 C   0  0  0  0  0  1  0  0  0  0  0  0
  1  9  1  0  0  0  0
  2 12  1  0  0  0  0
  2 11  2  0  0  0  0
  3 16  2  0  0  0  0
  4  6  2  0  0  0  0
  5  8  1  0  0  0  0
  6  7  1  0  0  0  0
  6  8  1  0  0  0  0
  7  2  1  0  0  0  0
  8 15  2  0  0  0  0
  9  5  2  0  0  0  0
 10  3  1  0  0  0  0
 10 12  1  0  0  0  0
 11 17  1  0  0  0  0
 13  1  2  0  0  0  0
 13  4  1  0  0  0  0
 14  1  1  0  0  0  0
 15 11  1  0  0  0  0
 16 17  1  0  0  0  0
 17 31  1  6  0  0  0
 18 21  1  0  0  0  0
 19 18  2  0  0  0  0
 19 23  1  0  0  0  0
 20 27  1  0  0  0  0
 21  3  1  0  0  0  0
 21 20  2  0  0  0  0
 22 20  1  0  0  0  0
 23 22  2  0  0  0  0
 24 25  1  0  0  0  0
 26 24  2  0  0  0  0
 27 30  2  0  0  0  0
 27 29  1  0  0  0  0
 28 24  1  0  0  0  0
 29 28  2  0  0  0  0
 30 26  1  0  0  0  0
 31 32  1  0  0  0  0
 32 33  1  0  0  0  0
 33 35  1  0  0  0  0
 34 40  1  0  0  0  0
 35 36  1  0  0  0  0
 35 34  1  0  0  0  0
 36 34  2  0  0  0  0
 36 41  1  0  0  0  0
 39 38  1  0  0  0  0
 39 37  1  0  0  0  0
 40 38  2  0  0  0  0
 41 39  2  0  0  0  0
 42 41  1  0  0  0  0
 43 42  1  0  0  0  0
M  END
>  <MODEL>
5

>  <REMARK>
 VINA RESULT:      -8.6      3.246      7.784
  Name = 
  7 active torsions:
  status: ('A' for Active; 'I' for Inactive)
    1  A    between atoms: N_4  and  N_32
    2  A    between atoms: N_4  and  C_42
    3  A    between atoms: C_6  and  C_21
    4  A    between atoms: C_7  and  C_15
    5  A    between atoms: N_10  and  C_29
    6  A    between atoms: O_26  and  C_43
    7  A    between atoms: C_29  and  N_32
                            x       y       z     vdW  Elec       q    Type
                         _______ _______ _______ _____ _____    ______ ____

>  <TORSDO>
F 7

$$$$
=
 OpenBabel11042412513D

 43 49  0  0  1  0  0  0  0  0999 V2000
  189.3830  176.4020  135.7920 C   0  0  0  0  0  0  0  0  0  0  0  0
  184.9720  178.7290  138.3660 C   0  0  0  0  0  0  0  0  0  0  0  0
  183.8210  178.5630  141.1670 C   0  0  0  0  0  0  0  0  0  0  0  0
  188.1650  178.4500  136.6810 C   0  0  0  0  0  3  0  0  0  0  0  0
  187.2470  175.4490  136.7640 C   0  0  0  0  0  3  0  0  0  0  0  0
  187.0190  178.0340  137.2110 C   0  0  0  0  0  0  0  0  0  0  0  0
  186.1950  179.0260  137.7590 O   0  0  0  0  0  0  0  0  0  0  0  0
  186.5490  176.6280  137.2760 C   0  0  0  0  0  0  0  0  0  0  0  0
  188.4220  175.3560  136.1490 C   0  0  0  0  0  3  0  0  0  0  0  0
  184.2270  179.6920  140.4260 O   0  0  0  0  0  0  0  0  0  0  0  0
  184.5330  177.4660  138.4250 C   0  0  0  0  0  0  0  0  0  0  0  0
  184.1800  179.8210  139.0070 C   0  0  0  0  0  2  0  0  0  0  0  0
  189.2480  177.7050  136.0310 C   0  0  0  0  0  3  0  0  0  0  0  0
  190.5670  175.9820  135.1270 N   0  0  0  0  0  1  0  0  0  0  0  0
  185.3720  176.3890  137.8600 C   0  0  0  0  0  3  0  0  0  0  0  0
  183.3730  177.4240  140.6120 C   0  0  0  0  0  3  0  0  0  0  0  0
  183.2390  177.1680  139.1400 C   0  0  2  0  0  3  0  0  0  0  0  0
  182.8130  178.8840  143.3640 N   0  0  0  0  0  0  0  0  0  0  0  0
  182.8740  179.0340  144.7090 C   0  0  0  0  0  3  0  0  0  0  0  0
  185.1690  178.4920  143.3080 C   0  0  0  0  0  0  0  0  0  0  0  0
  183.9310  178.6250  142.6340 C   0  0  0  0  0  0  0  0  0  0  0  0
  185.1820  178.6680  144.6570 N   0  0  0  0  0  0  0  0  0  0  0  0
  184.0700  178.9330  145.3410 N   0  0  0  0  0  0  0  0  0  0  0  0
  188.8590  177.4620  141.3770 C   0  0  0  0  0  0  0  0  0  0  0  0
  190.1420  177.1150  140.7100 C   0  0  0  0  0  1  0  0  0  0  0  0
  188.0370  178.4570  140.8390 C   0  0  0  0  0  3  0  0  0  0  0  0
  186.4300  178.1080  142.6310 C   0  0  0  0  0  0  0  0  0  0  0  0
  188.4820  176.8010  142.5490 C   0  0  0  0  0  3  0  0  0  0  0  0
  187.2760  177.1280  143.1760 C   0  0  0  0  0  3  0  0  0  0  0  0
  186.8300  178.7830  141.4670 C   0  0  0  0  0  3  0  0  0  0  0  0
  182.8070  175.7970  138.9130 N   0  0  0  0  0  2  0  0  0  0  0  0
  181.9530  175.8130  137.8020 N   0  0  0  0  0  2  0  0  0  0  0  0
  180.7350  176.4860  138.2170 C   0  0  0  0  0  2  0  0  0  0  0  0
  180.7570  178.6970  136.5610 C   0  0  0  0  0  0  0  0  0  0  0  0
  180.7020  177.8270  137.6620 N   0  0  0  0  0  0  0  0  0  0  0  0
  180.6940  179.2210  137.8330 C   0  0  0  0  0  0  0  0  0  0  0  0
  180.7290  182.8530  137.1330 C   0  0  0  0  0  1  0  0  0  0  0  0
  180.8060  180.7960  135.6480 C   0  0  0  0  0  3  0  0  0  0  0  0
  180.7370  181.3710  136.9930 C   0  0  0  0  0  0  0  0  0  0  0  0
  180.8210  179.3800  135.3810 C   0  0  0  0  0  3  0  0  0  0  0  0
  180.6810  180.5450  138.1700 C   0  0  0  0  0  0  0  0  0  0  0  0
  180.6240  181.0440  139.4730 O   0  0  0  0  0  0  0  0  0  0  0  0
  180.4030  180.2010  140.5940 C   0  0  0  0  0  1  0  0  0  0  0  0
  1 13  2  0  0  0  0
  1  9  1  0  0  0  0
  2 11  2  0  0  0  0
  2 12  1  0  0  0  0
  3 21  1  0  0  0  0
  4  6  2  0  0  0  0
  5  8  1  0  0  0  0
  6  8  1  0  0  0  0
  6  7  1  0  0  0  0
  7  2  1  0  0  0  0
  8 15  2  0  0  0  0
  9  5  2  0  0  0  0
 10  3  1  0  0  0  0
 11 17  1  0  0  0  0
 12 10  1  0  0  0  0
 13  4  1  0  0  0  0
 14  1  1  0  0  0  0
 15 11  1  0  0  0  0
 16  3  2  0  0  0  0
 17 31  1  1  0  0  0
 17 16  1  0  0  0  0
 18 19  1  0  0  0  0
 19 23  2  0  0  0  0
 20 22  2  0  0  0  0
 21 20  1  0  0  0  0
 21 18  2  0  0  0  0
 22 23  1  0  0  0  0
 24 28  1  0  0  0  0
 25 24  1  0  0  0  0
 26 24  2  0  0  0  0
 26 30  1  0  0  0  0
 27 29  1  0  0  0  0
 27 20  1  0  0  0  0
 28 29  2  0  0  0  0
 30 27  2  0  0  0  0
 32 33  1  0  0  0  0
 32 31  1  0  0  0  0
 34 35  1  0  0  0  0
 34 36  1  0  0  0  0
 35 36  1  0  0  0  0
 35 33  1  0  0  0  0
 36 41  2  0  0  0  0
 38 39  2  0  0  0  0
 39 37  1  0  0  0  0
 39 41  1  0  0  0  0
 40 38  1  0  0  0  0
 40 34  2  0  0  0  0
 41 42  1  0  0  0  0
 42 43  1  0  0  0  0
M  END
>  <MODEL>
6

>  <REMARK>
 VINA RESULT:      -8.5      3.284      9.332
  Name = 
  7 active torsions:
  status: ('A' for Active; 'I' for Inactive)
    1  A    between atoms: N_4  and  N_32
    2  A    between atoms: N_4  and  C_42
    3  A    between atoms: C_6  and  C_21
    4  A    between atoms: C_7  and  C_15
    5  A    between atoms: N_10  and  C_29
    6  A    between atoms: O_26  and  C_43
    7  A    between atoms: C_29  and  N_32
                            x       y       z     vdW  Elec       q    Type
                         _______ _______ _______ _____ _____    ______ ____

>  <TORSDO>
F 7

$$$$
=
 OpenBabel11042412513D

 43 49  0  0  1  0  0  0  0  0999 V2000
  180.6280  174.3190  136.4510 C   0  0  0  0  0  0  0  0  0  0  0  0
  185.4530  177.0890  135.7110 C   0  0  0  0  0  0  0  0  0  0  0  0
  188.2180  176.8990  136.9430 C   0  0  0  0  0  0  0  0  0  0  0  0
  182.6080  174.9670  134.9920 C   0  0  0  0  0  3  0  0  0  0  0  0
  181.9970  175.8390  137.9460 C   0  0  0  0  0  3  0  0  0  0  0  0
  183.3840  175.7760  135.7080 C   0  0  0  0  0  0  0  0  0  0  0  0
  184.5390  176.2480  135.0700 O   0  0  0  0  0  0  0  0  0  0  0  0
  183.1360  176.2090  137.1050 C   0  0  0  0  0  0  0  0  0  0  0  0
  180.9580  175.0560  137.6740 C   0  0  0  0  0  3  0  0  0  0  0  0
  187.8290  176.8280  135.5900 O   0  0  0  0  0  0  0  0  0  0  0  0
  185.2380  177.4920  136.9690 C   0  0  0  0  0  0  0  0  0  0  0  0
  186.7080  177.4890  135.0060 C   0  0  0  0  0  2  0  0  0  0  0  0
  181.3470  174.3000  135.3300 C   0  0  0  0  0  3  0  0  0  0  0  0
  179.4270  173.5590  136.4670 N   0  0  0  0  0  1  0  0  0  0  0  0
  184.0320  177.0160  137.6770 C   0  0  0  0  0  3  0  0  0  0  0  0
  187.5380  177.5770  137.8830 C   0  0  0  0  0  3  0  0  0  0  0  0
  186.2720  178.3500  137.6540 C   0  0  2  0  0  3  0  0  0  0  0  0
  190.4960  176.8510  137.8090 N   0  0  0  0  0  0  0  0  0  0  0  0
  191.6550  176.2230  138.1220 C   0  0  0  0  0  3  0  0  0  0  0  0
  189.5200  174.7490  137.2340 C   0  0  0  0  0  0  0  0  0  0  0  0
  189.4200  176.1550  137.3550 C   0  0  0  0  0  0  0  0  0  0  0  0
  190.7080  174.1650  137.5440 N   0  0  0  0  0  0  0  0  0  0  0  0
  191.7490  174.8780  137.9740 N   0  0  0  0  0  0  0  0  0  0  0  0
  186.1840  172.3040  136.0890 C   0  0  0  0  0  0  0  0  0  0  0  0
  185.0230  171.4660  135.6890 C   0  0  0  0  0  1  0  0  0  0  0  0
  186.0570  173.2250  137.1350 C   0  0  0  0  0  3  0  0  0  0  0  0
  188.3820  173.8790  136.8510 C   0  0  0  0  0  0  0  0  0  0  0  0
  187.4000  172.1800  135.4110 C   0  0  0  0  0  3  0  0  0  0  0  0
  188.4920  172.9690  135.7870 C   0  0  0  0  0  3  0  0  0  0  0  0
  187.1500  174.0130  137.5100 C   0  0  0  0  0  3  0  0  0  0  0  0
  185.7770  178.8760  138.9180 N   0  0  0  0  0  2  0  0  0  0  0  0
  186.7370  178.5760  139.8920 N   0  0  0  0  0  2  0  0  0  0  0  0
  186.0470  178.5470  141.1690 C   0  0  0  0  0  2  0  0  0  0  0  0
  188.3050  178.0080  142.6670 C   0  0  0  0  0  0  0  0  0  0  0  0
  186.9950  178.2730  142.2340 N   0  0  0  0  0  0  0  0  0  0  0  0
  187.2730  177.9740  143.5780 C   0  0  0  0  0  0  0  0  0  0  0  0
  189.0740  177.1240  146.6960 C   0  0  0  0  0  1  0  0  0  0  0  0
  189.8240  177.4820  144.2970 C   0  0  0  0  0  3  0  0  0  0  0  0
  188.7390  177.4430  145.2800 C   0  0  0  0  0  0  0  0  0  0  0  0
  189.6300  177.7770  142.9000 C   0  0  0  0  0  3  0  0  0  0  0  0
  187.3720  177.6980  144.9120 C   0  0  0  0  0  0  0  0  0  0  0  0
  186.3010  177.6640  145.8090 O   0  0  0  0  0  0  0  0  0  0  0  0
  185.7230  178.8480  146.3380 C   0  0  0  0  0  1  0  0  0  0  0  0
  1 14  1  0  0  0  0
  1  9  1  0  0  0  0
  2 11  2  0  0  0  0
  3 21  1  0  0  0  0
  3 16  2  0  0  0  0
  4 13  1  0  0  0  0
  4  6  2  0  0  0  0
  6  8  1  0  0  0  0
  7  6  1  0  0  0  0
  7  2  1  0  0  0  0
  8 15  2  0  0  0  0
  8  5  1  0  0  0  0
  9  5  2  0  0  0  0
 10  3  1  0  0  0  0
 11 17  1  0  0  0  0
 11 15  1  0  0  0  0
 12 10  1  0  0  0  0
 12  2  1  0  0  0  0
 13  1  2  0  0  0  0
 17 16  1  0  0  0  0
 17 31  1  1  0  0  0
 18 19  1  0  0  0  0
 20 21  1  0  0  0  0
 20 22  2  0  0  0  0
 21 18  2  0  0  0  0
 22 23  1  0  0  0  0
 23 19  2  0  0  0  0
 24 26  1  0  0  0  0
 25 24  1  0  0  0  0
 26 30  2  0  0  0  0
 27 20  1  0  0  0  0
 27 30  1  0  0  0  0
 28 29  1  0  0  0  0
 28 24  2  0  0  0  0
 29 27  2  0  0  0  0
 31 32  1  0  0  0  0
 32 33  1  0  0  0  0
 33 35  1  0  0  0  0
 34 40  2  0  0  0  0
 34 36  1  0  0  0  0
 35 34  1  0  0  0  0
 35 36  1  0  0  0  0
 36 41  2  0  0  0  0
 38 39  2  0  0  0  0
 39 37  1  0  0  0  0
 40 38  1  0  0  0  0
 41 39  1  0  0  0  0
 41 42  1  0  0  0  0
 42 43  1  0  0  0  0
M  END
>  <MODEL>
7

>  <REMARK>
 VINA RESULT:      -8.5      2.749      4.262
  Name = 
  7 active torsions:
  status: ('A' for Active; 'I' for Inactive)
    1  A    between atoms: N_4  and  N_32
    2  A    between atoms: N_4  and  C_42
    3  A    between atoms: C_6  and  C_21
    4  A    between atoms: C_7  and  C_15
    5  A    between atoms: N_10  and  C_29
    6  A    between atoms: O_26  and  C_43
    7  A    between atoms: C_29  and  N_32
                            x       y       z     vdW  Elec       q    Type
                         _______ _______ _______ _____ _____    ______ ____

>  <TORSDO>
F 7

$$$$
=
 OpenBabel11042412513D

 43 49  0  0  1  0  0  0  0  0999 V2000
  182.2000  176.0780  136.0830 C   0  0  0  0  0  0  0  0  0  0  0  0
  187.3280  178.2340  136.8230 C   0  0  0  0  0  0  0  0  0  0  0  0
  189.9940  177.1040  137.7250 C   0  0  0  0  0  0  0  0  0  0  0  0
  184.3050  177.1540  135.1470 C   0  0  0  0  0  3  0  0  0  0  0  0
  183.6540  176.4180  138.1290 C   0  0  0  0  0  3  0  0  0  0  0  0
  185.1300  177.3720  136.1670 C   0  0  0  0  0  0  0  0  0  0  0  0
  186.3580  177.9670  135.8520 O   0  0  0  0  0  0  0  0  0  0  0  0
  184.8650  177.0360  137.5870 C   0  0  0  0  0  0  0  0  0  0  0  0
  182.5500  176.0220  137.5040 C   0  0  0  0  0  3  0  0  0  0  0  0
  189.6640  177.7970  136.5430 O   0  0  0  0  0  0  0  0  0  0  0  0
  187.0990  177.9430  138.1090 C   0  0  0  0  0  0  0  0  0  0  0  0
  188.6500  178.7920  136.4120 C   0  0  0  0  0  2  0  0  0  0  0  0
  182.9640  176.5630  135.1070 C   0  0  0  0  0  3  0  0  0  0  0  0
  180.9230  175.5690  135.7180 N   0  0  0  0  0  1  0  0  0  0  0  0
  185.8160  177.3120  138.4830 C   0  0  0  0  0  3  0  0  0  0  0  0
  189.3480  177.2640  138.8930 C   0  0  0  0  0  3  0  0  0  0  0  0
  188.1870  178.1860  139.1250 C   0  0  2  0  0  3  0  0  0  0  0  0
  192.3160  176.4770  138.1210 N   0  0  0  0  0  0  0  0  0  0  0  0
  193.3750  175.6390  138.0120 C   0  0  0  0  0  3  0  0  0  0  0  0
  190.9200  174.8370  137.0890 C   0  0  0  0  0  0  0  0  0  0  0  0
  191.0870  176.1190  137.6650 C   0  0  0  0  0  0  0  0  0  0  0  0
  192.0160  174.0370  136.9870 N   0  0  0  0  0  0  0  0  0  0  0  0
  193.2100  174.4240  137.4330 N   0  0  0  0  0  0  0  0  0  0  0  0
  187.0880  173.3040  135.9160 C   0  0  0  0  0  0  0  0  0  0  0  0
  185.7560  172.7740  135.5190 C   0  0  0  0  0  1  0  0  0  0  0  0
  187.8690  172.6100  136.8470 C   0  0  0  0  0  3  0  0  0  0  0  0
  189.6090  174.2990  136.6550 C   0  0  0  0  0  0  0  0  0  0  0  0
  187.5540  174.5020  135.3660 C   0  0  0  0  0  3  0  0  0  0  0  0
  188.8060  175.0000  135.7400 C   0  0  0  0  0  3  0  0  0  0  0  0
  189.1220  173.1100  137.2190 C   0  0  0  0  0  3  0  0  0  0  0  0
  187.6930  178.0280  140.4850 N   0  0  0  0  0  2  0  0  0  0  0  0
  188.7600  178.3150  141.3460 N   0  0  0  0  0  2  0  0  0  0  0  0
  189.0200  177.1080  142.1110 C   0  0  0  0  0  2  0  0  0  0  0  0
  187.5040  177.5060  144.3860 C   0  0  0  0  0  0  0  0  0  0  0  0
  188.5470  177.2790  143.4730 N   0  0  0  0  0  0  0  0  0  0  0  0
  188.8010  177.4440  144.8450 C   0  0  0  0  0  0  0  0  0  0  0  0
  188.3240  177.9880  148.4720 C   0  0  0  0  0  1  0  0  0  0  0  0
  186.7220  177.8760  146.5060 C   0  0  0  0  0  3  0  0  0  0  0  0
  188.0950  177.8100  147.0110 C   0  0  0  0  0  0  0  0  0  0  0  0
  186.3720  177.7210  145.1170 C   0  0  0  0  0  3  0  0  0  0  0  0
  189.2160  177.5850  146.1380 C   0  0  0  0  0  0  0  0  0  0  0  0
  190.5440  177.5240  146.5690 O   0  0  0  0  0  0  0  0  0  0  0  0
  191.1550  176.3010  146.9550 C   0  0  0  0  0  1  0  0  0  0  0  0
  1  9  1  0  0  0  0
  2 11  2  0  0  0  0
  3 16  2  0  0  0  0
  4  6  2  0  0  0  0
  6  8  1  0  0  0  0
  7  6  1  0  0  0  0
  7  2  1  0  0  0  0
  8  5  1  0  0  0  0
  8 15  2  0  0  0  0
  9  5  2  0  0  0  0
 10  3  1  0  0  0  0
 11 15  1  0  0  0  0
 11 17  1  0  0  0  0
 12 10  1  0  0  0  0
 12  2  1  0  0  0  0
 13  4  1  0  0  0  0
 13  1  2  0  0  0  0
 14  1  1  0  0  0  0
 16 17  1  0  0  0  0
 17 31  1  1  0  0  0
 19 18  1  0  0  0  0
 20 21  1  0  0  0  0
 21  3  1  0  0  0  0
 21 18  2  0  0  0  0
 22 20  2  0  0  0  0
 22 23  1  0  0  0  0
 23 19  2  0  0  0  0
 24 26  1  0  0  0  0
 25 24  1  0  0  0  0
 26 30  2  0  0  0  0
 27 20  1  0  0  0  0
 27 30  1  0  0  0  0
 28 29  1  0  0  0  0
 28 24  2  0  0  0  0
 29 27  2  0  0  0  0
 31 32  1  0  0  0  0
 32 33  1  0  0  0  0
 33 35  1  0  0  0  0
 34 36  2  0  0  0  0
 34 40  1  0  0  0  0
 35 34  1  0  0  0  0
 35 36  1  0  0  0  0
 36 41  1  0  0  0  0
 38 39  1  0  0  0  0
 39 37  1  0  0  0  0
 40 38  2  0  0  0  0
 41 42  1  0  0  0  0
 41 39  2  0  0  0  0
 42 43  1  0  0  0  0
M  END
>  <MODEL>
8

>  <REMARK>
 VINA RESULT:      -8.1      2.021      2.885
  Name = 
  7 active torsions:
  status: ('A' for Active; 'I' for Inactive)
    1  A    between atoms: N_4  and  N_32
    2  A    between atoms: N_4  and  C_42
    3  A    between atoms: C_6  and  C_21
    4  A    between atoms: C_7  and  C_15
    5  A    between atoms: N_10  and  C_29
    6  A    between atoms: O_26  and  C_43
    7  A    between atoms: C_29  and  N_32
                            x       y       z     vdW  Elec       q    Type
                         _______ _______ _______ _____ _____    ______ ____

>  <TORSDO>
F 7

$$$$
=
 OpenBabel11042412513D

 43 49  0  0  1  0  0  0  0  0999 V2000
  187.2610  177.5020  146.0780 C   0  0  0  0  0  0  0  0  0  0  0  0
  183.1850  179.0570  142.5490 C   0  0  0  0  0  0  0  0  0  0  0  0
  181.6230  177.6520  140.3620 C   0  0  0  0  0  0  0  0  0  0  0  0
  184.8790  178.2830  145.6550 C   0  0  0  0  0  3  0  0  0  0  0  0
  187.1540  177.7440  143.5600 C   0  0  0  0  0  3  0  0  0  0  0  0
  184.7370  178.4390  144.3420 C   0  0  0  0  0  0  0  0  0  0  0  0
  183.4790  178.8710  143.9030 O   0  0  0  0  0  0  0  0  0  0  0  0
  185.7820  178.1910  143.3180 C   0  0  0  0  0  0  0  0  0  0  0  0
  187.7660  177.4590  144.7040 C   0  0  0  0  0  3  0  0  0  0  0  0
  181.1560  178.3340  141.5040 O   0  0  0  0  0  0  0  0  0  0  0  0
  184.1200  178.8440  141.6160 C   0  0  0  0  0  0  0  0  0  0  0  0
  181.8000  179.4370  142.1400 C   0  0  0  0  0  2  0  0  0  0  0  0
  186.0330  177.8550  146.4510 C   0  0  0  0  0  3  0  0  0  0  0  0
  188.1730  177.1360  147.1060 N   0  0  0  0  0  1  0  0  0  0  0  0
  185.4600  178.3870  142.0370 C   0  0  0  0  0  3  0  0  0  0  0  0
  182.7810  177.9330  139.7420 C   0  0  0  0  0  3  0  0  0  0  0  0
  183.7560  178.9950  140.1600 C   0  0  2  0  0  3  0  0  0  0  0  0
  180.7390  175.3880  140.5580 N   0  0  0  0  0  0  0  0  0  0  0  0
  180.0710  174.3090  140.0850 C   0  0  0  0  0  3  0  0  0  0  0  0
  180.1460  176.6080  138.5910 C   0  0  0  0  0  0  0  0  0  0  0  0
  180.8070  176.5420  139.8410 C   0  0  0  0  0  0  0  0  0  0  0  0
  179.5020  175.4930  138.1510 N   0  0  0  0  0  0  0  0  0  0  0  0
  179.4650  174.3740  138.8730 N   0  0  0  0  0  0  0  0  0  0  0  0
  179.9480  180.2280  136.2970 C   0  0  0  0  0  0  0  0  0  0  0  0
  179.8830  181.4880  135.5090 C   0  0  0  0  0  1  0  0  0  0  0  0
  179.1000  180.0420  137.3940 C   0  0  0  0  0  3  0  0  0  0  0  0
  180.0640  177.8420  137.7750 C   0  0  0  0  0  0  0  0  0  0  0  0
  180.8660  179.2340  135.9460 C   0  0  0  0  0  3  0  0  0  0  0  0
  180.9270  178.0490  136.6860 C   0  0  0  0  0  3  0  0  0  0  0  0
  179.1630  178.8570  138.1330 C   0  0  0  0  0  3  0  0  0  0  0  0
  184.9350  178.9490  139.3080 N   0  0  0  0  0  2  0  0  0  0  0  0
  184.5150  178.4940  138.0500 N   0  0  0  0  0  2  0  0  0  0  0  0
  185.5020  177.5270  137.6020 C   0  0  0  0  0  2  0  0  0  0  0  0
  183.7370  175.5780  136.7530 C   0  0  0  0  0  0  0  0  0  0  0  0
  184.8440  176.2790  137.2590 N   0  0  0  0  0  0  0  0  0  0  0  0
  184.7960  174.8750  137.2810 C   0  0  0  0  0  0  0  0  0  0  0  0
  183.6530  171.3840  136.8420 C   0  0  0  0  0  1  0  0  0  0  0  0
  182.6210  173.6350  136.2830 C   0  0  0  0  0  3  0  0  0  0  0  0
  183.7390  172.8710  136.8390 C   0  0  0  0  0  0  0  0  0  0  0  0
  182.5850  175.0750  136.2230 C   0  0  0  0  0  3  0  0  0  0  0  0
  184.9060  173.5170  137.3800 C   0  0  0  0  0  0  0  0  0  0  0  0
  185.9940  172.8340  137.9290 O   0  0  0  0  0  0  0  0  0  0  0  0
  187.2010  172.6370  137.2090 C   0  0  0  0  0  1  0  0  0  0  0  0
  1 13  2  0  0  0  0
  1 14  1  0  0  0  0
  2  7  1  0  0  0  0
  3 10  1  0  0  0  0
  4 13  1  0  0  0  0
  5  9  2  0  0  0  0
  6  4  2  0  0  0  0
  7  6  1  0  0  0  0
  8  5  1  0  0  0  0
  8  6  1  0  0  0  0
  9  1  1  0  0  0  0
 10 12  1  0  0  0  0
 11 15  1  0  0  0  0
 11  2  2  0  0  0  0
 12  2  1  0  0  0  0
 15  8  2  0  0  0  0
 16 17  1  0  0  0  0
 16  3  2  0  0  0  0
 17 31  1  6  0  0  0
 17 11  1  0  0  0  0
 19 18  1  0  0  0  0
 20 21  1  0  0  0  0
 21  3  1  0  0  0  0
 21 18  2  0  0  0  0
 22 20  2  0  0  0  0
 22 23  1  0  0  0  0
 23 19  2  0  0  0  0
 24 26  1  0  0  0  0
 25 24  1  0  0  0  0
 26 30  2  0  0  0  0
 27 30  1  0  0  0  0
 27 20  1  0  0  0  0
 28 24  2  0  0  0  0
 28 29  1  0  0  0  0
 29 27  2  0  0  0  0
 32 31  1  0  0  0  0
 33 32  1  0  0  0  0
 34 35  1  0  0  0  0
 34 36  1  0  0  0  0
 35 36  1  0  0  0  0
 35 33  1  0  0  0  0
 36 41  2  0  0  0  0
 38 39  2  0  0  0  0
 39 37  1  0  0  0  0
 39 41  1  0  0  0  0
 40 38  1  0  0  0  0
 40 34  2  0  0  0  0
 41 42  1  0  0  0  0
 43 42  1  0  0  0  0
M  END
>  <MODEL>
9

>  <REMARK>
 VINA RESULT:      -8.0      3.910      8.734
  Name = 
  7 active torsions:
  status: ('A' for Active; 'I' for Inactive)
    1  A    between atoms: N_4  and  N_32
    2  A    between atoms: N_4  and  C_42
    3  A    between atoms: C_6  and  C_21
    4  A    between atoms: C_7  and  C_15
    5  A    between atoms: N_10  and  C_29
    6  A    between atoms: O_26  and  C_43
    7  A    between atoms: C_29  and  N_32
                            x       y       z     vdW  Elec       q    Type
                         _______ _______ _______ _____ _____    ______ ____

>  <TORSDO>
F 7

$$$$
