=
 OpenBabel11032420183D

 64 69  0  0  1  0  0  0  0  0999 V2000
  184.5210  179.2250  142.3320 C   0  0  0  0  0  0  0  0  0  0  0  0
  183.4670  178.7230  141.6990 C   0  0  0  0  0  0  0  0  0  0  0  0
  183.9080  179.2040  144.7070 C   0  0  0  0  0  0  0  0  0  0  0  0
  182.6810  178.6750  144.6690 C   0  0  0  0  0  3  0  0  0  0  0  0
  182.0740  178.7600  142.2110 C   0  0  0  0  0  0  0  0  0  0  0  0
  183.7800  178.1650  140.3570 C   0  0  0  0  0  2  0  0  0  0  0  0
  181.7560  178.7030  143.5180 C   0  0  0  0  0  3  0  0  0  0  0  0
  185.1140  178.7600  139.9440 C   0  0  1  0  0  3  0  0  0  0  0  0
  184.4140  180.0360  143.5770 C   0  0  0  0  0  2  0  0  0  0  0  0
  186.0660  179.0940  141.4560 S   0  0  0  0  0  0  0  0  0  0  0  0
  185.9510  178.3300  146.0350 C   0  0  0  0  0  0  0  0  0  0  0  0
  184.7430  179.0870  145.8690 N   0  0  0  0  0  2  0  0  0  0  0  0
  186.4950  178.3210  147.1690 O   0  0  0  0  0  0  0  0  0  0  0  0
  186.5630  177.5940  144.9050 C   0  0  0  0  0  3  0  0  0  0  0  0
  187.7500  176.9740  144.8910 C   0  0  0  0  0  0  0  0  0  0  0  0
  189.3340  176.8860  146.9480 N   0  0  0  0  0  0  0  0  0  0  0  0
  188.6270  176.9260  146.0330 C   0  0  0  0  0  0  0  0  0  0  0  0
  188.1780  176.2790  143.6420 C   0  0  0  0  0  2  0  0  0  0  0  0
  190.3640  177.4620  143.9650 C   0  0  0  0  0  3  0  0  0  0  0  0
  190.8630  177.3910  141.2070 C   0  0  0  0  0  0  0  0  0  0  0  0
  191.7920  177.9800  142.0820 C   0  0  0  0  0  3  0  0  0  0  0  0
  191.5420  178.0150  143.4550 C   0  0  0  0  0  3  0  0  0  0  0  0
  189.4330  176.8740  143.1000 C   0  0  0  0  0  0  0  0  0  0  0  0
  189.6890  176.8370  141.7250 C   0  0  0  0  0  3  0  0  0  0  0  0
  191.0810  177.3500  139.8290 O   0  0  0  0  0  0  0  0  0  0  0  0
  190.0230  177.4130  138.8800 C   0  0  0  0  0  2  0  0  0  0  0  0
  190.4720  176.7830  137.5770 C   0  0  0  0  0  2  0  0  0  0  0  0
  190.9960  175.3730  137.8320 C   0  0  0  0  0  2  0  0  0  0  0  0
  192.2730  175.1030  137.1620 N   0  0  0  0  0  0  0  0  0  0  0  0
  193.3950  175.6310  137.9390 C   0  0  0  0  0  2  0  0  0  0  0  0
  193.9500  176.7300  137.2850 O   0  0  0  0  0  1  0  0  0  0  0  0
  192.3860  173.6780  136.7950 C   0  0  0  0  0  2  0  0  0  0  0  0
  192.6290  171.7270  134.6000 C   0  0  0  0  0  1  0  0  0  0  0  0
  193.7920  173.1880  136.3990 C   0  0  2  0  0  0  0  0  0  0  0  0
  195.6700  173.8290  135.0290 O   0  0  0  0  0  1  0  0  0  0  0  0
  194.2860  173.6380  135.0250 C   0  0  1  0  0  3  0  0  0  0  0  0
  193.9190  172.1700  135.2730 C   0  0  2  0  0  0  0  0  0  0  0  0
  194.7720  173.1080  137.3920 O   0  0  0  0  0  1  0  0  0  0  0  0
  195.0530  171.1560  135.3950 C   0  0  0  0  0  2  0  0  0  0  0  0
  194.6560  170.0610  136.2650 N   0  0  0  0  0  1  0  0  0  0  0  0
  186.0060  177.5930  138.8830 S   0  0  0  0  0  0  0  0  0  0  0  0
  184.9060  177.8620  137.5680 O   0  0  0  0  0  0  0  0  0  0  0  0
  183.2370  176.3830  136.7340 C   0  0  0  0  0  0  0  0  0  0  0  0
  183.6320  177.3070  137.6110 C   0  0  0  0  0  3  0  0  0  0  0  0
  187.8840  172.7730  135.5640 N   0  0  0  0  0  1  0  0  0  0  0  0
  186.6790  172.9160  137.9190 O   0  0  0  0  0  1  0  0  0  0  0  0
  184.9760  174.7170  135.9430 N   0  0  0  0  0  0  0  0  0  0  0  0
  184.1670  175.8760  135.7030 C   0  0  0  0  0  0  0  0  0  0  0  0
  185.7780  172.6970  136.8730 C   0  0  2  0  0  3  0  0  0  0  0  0
  186.0700  174.3270  135.0760 C   0  0  0  0  0  2  0  0  0  0  0  0
  184.2490  176.4760  134.5970 O   0  0  0  0  0  0  0  0  0  0  0  0
  186.4390  172.9230  135.5080 C   0  0  1  0  0  3  0  0  0  0  0  0
  184.6730  173.7320  136.9610 C   0  0  0  0  0  2  0  0  0  0  0  0
  180.8400  176.6720  137.3280 O   0  0  0  0  0  1  0  0  0  0  0  0
  181.5710  174.7210  136.3850 O   0  0  0  0  0  0  0  0  0  0  0  0
  181.8510  175.8780  136.8020 C   0  0  0  0  0  0  0  0  0  0  0  0
  180.9620  178.7540  141.1930 C   0  0  2  0  0  3  0  0  0  0  0  0
  180.5160  180.1600  140.8020 C   0  0  1  0  0  3  0  0  0  0  0  0
  179.2000  179.8780  138.5900 N   0  0  0  0  0  2  0  0  0  0  0  0
  181.4040  180.7070  139.9140 O   0  0  0  0  0  0  0  0  0  0  0  0
  180.0750  180.1560  139.4960 C   0  0  0  0  0  0  0  0  0  0  0  0
  179.8070  177.8880  141.6100 C   0  0  0  0  0  0  0  0  0  0  0  0
  179.6670  176.5230  141.0330 C   0  0  0  0  0  1  0  0  0  0  0  0
  178.9890  178.2860  142.4230 O   0  0  0  0  0  0  0  0  0  0  0  0
  1  9  1  0  0  0  0
  2  5  1  0  0  0  0
  2  1  2  0  0  0  0
  3 12  1  0  0  0  0
  4  3  2  0  0  0  0
  5  7  2  0  0  0  0
  6  2  1  0  0  0  0
  7  4  1  0  0  0  0
  8 41  1  6  0  0  0
  8  6  1  0  0  0  0
  8 10  1  0  0  0  0
  9  3  1  0  0  0  0
 10  1  1  0  0  0  0
 11 13  2  0  0  0  0
 12 11  1  0  0  0  0
 14 11  1  0  0  0  0
 15 14  2  0  0  0  0
 15 17  1  0  0  0  0
 17 16  3  0  0  0  0
 18 15  1  0  0  0  0
 20 24  2  0  0  0  0
 20 21  1  0  0  0  0
 21 22  2  0  0  0  0
 22 19  1  0  0  0  0
 23 18  1  0  0  0  0
 23 19  2  0  0  0  0
 24 23  1  0  0  0  0
 25 20  1  0  0  0  0
 26 25  1  0  0  0  0
 27 28  1  0  0  0  0
 27 26  1  0  0  0  0
 29 28  1  0  0  0  0
 29 30  1  0  0  0  0
 31 30  1  0  0  0  0
 32 29  1  0  0  0  0
 34 32  1  0  0  0  0
 34 38  1  1  0  0  0
 36 35  1  1  0  0  0
 36 37  1  0  0  0  0
 36 34  1  0  0  0  0
 37 33  1  6  0  0  0
 37 39  1  0  0  0  0
 37 34  1  0  0  0  0
 39 40  1  0  0  0  0
 42 44  1  0  0  0  0
 42 41  1  0  0  0  0
 43 56  1  0  0  0  0
 43 44  2  0  0  0  0
 47 53  1  0  0  0  0
 48 47  1  0  0  0  0
 48 43  1  0  0  0  0
 49 53  1  0  0  0  0
 49 46  1  1  0  0  0
 50 52  1  0  0  0  0
 50 47  1  0  0  0  0
 51 48  2  0  0  0  0
 52 45  1  1  0  0  0
 52 49  1  0  0  0  0
 55 56  2  0  0  0  0
 56 54  1  0  0  0  0
 57 62  1  1  0  0  0
 57  5  1  0  0  0  0
 58 57  1  6  0  0  0
 59 61  2  0  0  0  0
 60 58  1  0  0  0  0
 61 60  1  0  0  0  0
 61 58  1  0  0  0  0
 62 64  2  0  0  0  0
 63 62  1  0  0  0  0
M  END
>  <MODEL>
1

>  <REMARK>
 VINA RESULT:      -7.0      0.000      0.000
  Name = 
  22 active torsions:
  status: ('A' for Active; 'I' for Inactive)
    1  A    between atoms: C_3  and  C_10
    2  A    between atoms: C_4  and  N_17
    3  A    between atoms: N_5  and  C_6
    4  A    between atoms: N_5  and  C_54
    5  A    between atoms: N_5  and  C_61
    6  A    between atoms: C_8  and  C_38
    7  A    between atoms: C_9  and  C_38
    8  A    between atoms: C_12  and  C_19
    9  A    between atoms: C_12  and  C_61
   10  A    between atoms: C_13  and  O_39
   11  A    between atoms: C_19  and  O_39
   12  A    between atoms: C_20  and  C_53
   13  A    between atoms: C_21  and  C_38
   14  A    between atoms: C_25  and  C_54
   15  A    between atoms: C_30  and  C_33
   16  A    between atoms: C_30  and  C_58
   17  A    between atoms: C_32  and  C_42
   18  A    between atoms: C_37  and  O_46
   19  A    between atoms: C_42  and  C_56
   20  A    between atoms: O_46  and  S_63
   21  A    between atoms: C_50  and  C_56
   22  A    between atoms: C_51  and  S_63
                            x       y       z     vdW  Elec       q    Type
                         _______ _______ _______ _____ _____    ______ ____

>  <TORSDO>
F 22

$$$$
=
 OpenBabel11032420183D

 64 69  0  0  1  0  0  0  0  0999 V2000
  184.1250  178.5410  141.3190 C   0  0  0  0  0  0  0  0  0  0  0  0
  184.8490  178.8420  140.2470 C   0  0  0  0  0  0  0  0  0  0  0  0
  185.7340  178.4540  143.1700 C   0  0  0  0  0  0  0  0  0  0  0  0
  186.8800  178.7520  142.5510 C   0  0  0  0  0  3  0  0  0  0  0  0
  186.2970  178.5540  140.0930 C   0  0  0  0  0  0  0  0  0  0  0  0
  184.0610  179.4460  139.1400 C   0  0  0  0  0  2  0  0  0  0  0  0
  187.1720  178.5550  141.1160 C   0  0  0  0  0  3  0  0  0  0  0  0
  182.6070  179.1010  139.4080 C   0  0  1  0  0  3  0  0  0  0  0  0
  184.6470  177.7270  142.4520 C   0  0  0  0  0  2  0  0  0  0  0  0
  182.3950  178.9480  141.2070 S   0  0  0  0  0  0  0  0  0  0  0  0
  186.4120  178.4330  145.6680 C   0  0  0  0  0  0  0  0  0  0  0  0
  185.5400  178.7240  144.5660 N   0  0  0  0  0  2  0  0  0  0  0  0
  186.0130  178.7040  146.8300 O   0  0  0  0  0  0  0  0  0  0  0  0
  187.7580  177.8510  145.4550 C   0  0  0  0  0  3  0  0  0  0  0  0
  188.7140  177.6670  146.3740 C   0  0  0  0  0  0  0  0  0  0  0  0
  188.4200  178.2900  148.8790 N   0  0  0  0  0  0  0  0  0  0  0  0
  188.5490  178.0130  147.7630 C   0  0  0  0  0  0  0  0  0  0  0  0
  190.0050  177.0520  145.9470 C   0  0  0  0  0  2  0  0  0  0  0  0
  188.9880  176.1970  143.8210 C   0  0  0  0  0  3  0  0  0  0  0  0
  191.1690  177.1530  142.3400 C   0  0  0  0  0  0  0  0  0  0  0  0
  190.1090  176.4930  141.6970 C   0  0  0  0  0  3  0  0  0  0  0  0
  189.0230  176.0170  142.4360 C   0  0  0  0  0  3  0  0  0  0  0  0
  190.0420  176.8530  144.4690 C   0  0  0  0  0  0  0  0  0  0  0  0
  191.1260  177.3330  143.7260 C   0  0  0  0  0  3  0  0  0  0  0  0
  192.2720  177.6310  141.6300 O   0  0  0  0  0  0  0  0  0  0  0  0
  192.2850  177.7430  140.2120 C   0  0  0  0  0  2  0  0  0  0  0  0
  192.8410  176.4700  139.6080 C   0  0  0  0  0  2  0  0  0  0  0  0
  192.6420  176.4790  138.0950 C   0  0  0  0  0  2  0  0  0  0  0  0
  192.9990  175.2050  137.4600 N   0  0  0  0  0  0  0  0  0  0  0  0
  191.8250  174.5720  136.8560 C   0  0  0  0  0  2  0  0  0  0  0  0
  192.1310  173.2640  136.4850 O   0  0  0  0  0  1  0  0  0  0  0  0
  194.1510  175.3730  136.5510 C   0  0  0  0  0  2  0  0  0  0  0  0
  195.4960  173.1810  135.1110 C   0  0  0  0  0  1  0  0  0  0  0  0
  195.5100  174.8730  137.0760 C   0  0  2  0  0  0  0  0  0  0  0  0
  197.8620  175.3910  136.9470 O   0  0  0  0  0  1  0  0  0  0  0  0
  196.7130  175.1680  136.1830 C   0  0  1  0  0  3  0  0  0  0  0  0
  196.2000  173.7320  136.3410 C   0  0  2  0  0  0  0  0  0  0  0  0
  195.7540  174.9340  138.4510 O   0  0  0  0  0  1  0  0  0  0  0  0
  197.0190  172.7670  137.1950 C   0  0  0  0  0  2  0  0  0  0  0  0
  196.1360  171.9360  137.9980 N   0  0  0  0  0  1  0  0  0  0  0  0
  181.5350  180.4090  138.7560 S   0  0  0  0  0  0  0  0  0  0  0  0
  180.2110  179.3040  138.5620 O   0  0  0  0  0  0  0  0  0  0  0  0
  179.7390  177.7580  136.8140 C   0  0  0  0  0  0  0  0  0  0  0  0
  179.7450  179.0050  137.2870 C   0  0  0  0  0  3  0  0  0  0  0  0
  182.9250  172.6790  137.0440 N   0  0  0  0  0  1  0  0  0  0  0  0
  182.8160  174.2620  134.9220 O   0  0  0  0  0  1  0  0  0  0  0  0
  181.2570  175.7710  137.2320 N   0  0  0  0  0  0  0  0  0  0  0  0
  180.1900  176.6310  137.6560 C   0  0  0  0  0  0  0  0  0  0  0  0
  183.1570  174.9560  136.0860 C   0  0  2  0  0  3  0  0  0  0  0  0
  181.5700  174.5200  137.8920 C   0  0  0  0  0  2  0  0  0  0  0  0
  179.6230  176.4220  138.7630 O   0  0  0  0  0  0  0  0  0  0  0  0
  182.9160  174.1030  137.3370 C   0  0  1  0  0  3  0  0  0  0  0  0
  182.2310  176.1480  136.2280 C   0  0  0  0  0  2  0  0  0  0  0  0
  178.9320  176.2390  135.0190 O   0  0  0  0  0  1  0  0  0  0  0  0
  179.2060  178.4720  134.6080 O   0  0  0  0  0  0  0  0  0  0  0  0
  179.2820  177.5200  135.4310 C   0  0  0  0  0  0  0  0  0  0  0  0
  186.8180  178.3560  138.6920 C   0  0  2  0  0  3  0  0  0  0  0  0
  186.1980  177.1460  138.0000 C   0  0  1  0  0  3  0  0  0  0  0  0
  187.1750  177.1460  135.6020 N   0  0  0  0  0  2  0  0  0  0  0  0
  185.0950  177.5280  137.2830 O   0  0  0  0  0  0  0  0  0  0  0  0
  186.4160  177.2330  136.6420 C   0  0  0  0  0  0  0  0  0  0  0  0
  188.3200  178.3340  138.6380 C   0  0  0  0  0  0  0  0  0  0  0  0
  189.0380  177.0320  138.6980 C   0  0  0  0  0  1  0  0  0  0  0  0
  188.9570  179.3700  138.5340 O   0  0  0  0  0  0  0  0  0  0  0  0
  1  9  1  0  0  0  0
  2  1  2  0  0  0  0
  3 12  1  0  0  0  0
  4  3  2  0  0  0  0
  5  2  1  0  0  0  0
  5  7  2  0  0  0  0
  6  8  1  0  0  0  0
  6  2  1  0  0  0  0
  7  4  1  0  0  0  0
  8 41  1  1  0  0  0
  8 10  1  0  0  0  0
  9  3  1  0  0  0  0
 10  1  1  0  0  0  0
 11 13  2  0  0  0  0
 12 11  1  0  0  0  0
 14 11  1  0  0  0  0
 14 15  2  0  0  0  0
 15 17  1  0  0  0  0
 17 16  3  0  0  0  0
 18 15  1  0  0  0  0
 19 23  1  0  0  0  0
 20 24  1  0  0  0  0
 21 20  2  0  0  0  0
 21 22  1  0  0  0  0
 22 19  2  0  0  0  0
 23 18  1  0  0  0  0
 24 23  2  0  0  0  0
 25 20  1  0  0  0  0
 26 25  1  0  0  0  0
 27 26  1  0  0  0  0
 28 27  1  0  0  0  0
 29 28  1  0  0  0  0
 30 29  1  0  0  0  0
 31 30  1  0  0  0  0
 32 34  1  0  0  0  0
 32 29  1  0  0  0  0
 34 38  1  1  0  0  0
 36 37  1  0  0  0  0
 36 35  1  1  0  0  0
 36 34  1  0  0  0  0
 37 33  1  6  0  0  0
 37 34  1  0  0  0  0
 37 39  1  0  0  0  0
 39 40  1  0  0  0  0
 42 41  1  0  0  0  0
 43 44  2  0  0  0  0
 43 48  1  0  0  0  0
 44 42  1  0  0  0  0
 47 48  1  0  0  0  0
 47 50  1  0  0  0  0
 48 51  2  0  0  0  0
 49 46  1  6  0  0  0
 49 53  1  0  0  0  0
 49 52  1  0  0  0  0
 52 45  1  6  0  0  0
 52 50  1  0  0  0  0
 53 47  1  0  0  0  0
 54 56  1  0  0  0  0
 55 56  2  0  0  0  0
 56 43  1  0  0  0  0
 57 62  1  1  0  0  0
 57  5  1  0  0  0  0
 58 57  1  1  0  0  0
 59 61  2  0  0  0  0
 60 58  1  0  0  0  0
 61 60  1  0  0  0  0
 61 58  1  0  0  0  0
 62 63  1  0  0  0  0
 64 62  2  0  0  0  0
M  END
>  <MODEL>
2

>  <REMARK>
 VINA RESULT:      -6.5      2.410      4.291
  Name = 
  22 active torsions:
  status: ('A' for Active; 'I' for Inactive)
    1  A    between atoms: C_3  and  C_10
    2  A    between atoms: C_4  and  N_17
    3  A    between atoms: N_5  and  C_6
    4  A    between atoms: N_5  and  C_54
    5  A    between atoms: N_5  and  C_61
    6  A    between atoms: C_8  and  C_38
    7  A    between atoms: C_9  and  C_38
    8  A    between atoms: C_12  and  C_19
    9  A    between atoms: C_12  and  C_61
   10  A    between atoms: C_13  and  O_39
   11  A    between atoms: C_19  and  O_39
   12  A    between atoms: C_20  and  C_53
   13  A    between atoms: C_21  and  C_38
   14  A    between atoms: C_25  and  C_54
   15  A    between atoms: C_30  and  C_33
   16  A    between atoms: C_30  and  C_58
   17  A    between atoms: C_32  and  C_42
   18  A    between atoms: C_37  and  O_46
   19  A    between atoms: C_42  and  C_56
   20  A    between atoms: O_46  and  S_63
   21  A    between atoms: C_50  and  C_56
   22  A    between atoms: C_51  and  S_63
                            x       y       z     vdW  Elec       q    Type
                         _______ _______ _______ _____ _____    ______ ____

>  <TORSDO>
F 22

$$$$
=
 OpenBabel11032420183D

 64 69  0  0  1  0  0  0  0  0999 V2000
  188.8750  175.9250  136.7180 C   0  0  0  0  0  0  0  0  0  0  0  0
  189.4490  176.7500  137.5870 C   0  0  0  0  0  0  0  0  0  0  0  0
  186.4990  176.5380  136.7330 C   0  0  0  0  0  0  0  0  0  0  0  0
  186.4810  177.5440  137.6130 C   0  0  0  0  0  3  0  0  0  0  0  0
  188.7530  177.4020  138.7250 C   0  0  0  0  0  0  0  0  0  0  0  0
  190.9110  176.9230  137.3760 C   0  0  0  0  0  2  0  0  0  0  0  0
  187.4590  177.7700  138.6970 C   0  0  0  0  0  3  0  0  0  0  0  0
  191.3660  175.7490  136.5270 C   0  0  1  0  0  3  0  0  0  0  0  0
  187.4810  175.4230  136.8700 C   0  0  0  0  0  2  0  0  0  0  0  0
  189.9640  175.2400  135.4870 S   0  0  0  0  0  0  0  0  0  0  0  0
  184.1030  176.2250  135.8030 C   0  0  0  0  0  0  0  0  0  0  0  0
  185.5190  176.4320  135.6890 N   0  0  0  0  0  2  0  0  0  0  0  0
  183.4340  176.1020  134.7450 O   0  0  0  0  0  0  0  0  0  0  0  0
  183.4330  176.1800  137.1230 C   0  0  0  0  0  3  0  0  0  0  0  0
  182.7980  175.1370  137.6720 C   0  0  0  0  0  0  0  0  0  0  0  0
  182.6030  172.8230  136.5070 N   0  0  0  0  0  0  0  0  0  0  0  0
  182.6890  173.8530  137.0270 C   0  0  0  0  0  0  0  0  0  0  0  0
  182.1930  175.3010  139.0270 C   0  0  0  0  0  2  0  0  0  0  0  0
  181.3600  177.6240  138.5880 C   0  0  0  0  0  3  0  0  0  0  0  0
  182.6150  178.5640  140.9120 C   0  0  0  0  0  0  0  0  0  0  0  0
  181.8830  179.4420  140.0960 C   0  0  0  0  0  3  0  0  0  0  0  0
  181.2590  178.9730  138.9380 C   0  0  0  0  0  3  0  0  0  0  0  0
  182.0880  176.7430  139.3960 C   0  0  0  0  0  0  0  0  0  0  0  0
  182.7090  177.2140  140.5570 C   0  0  0  0  0  3  0  0  0  0  0  0
  183.2580  179.0050  142.0690 O   0  0  0  0  0  0  0  0  0  0  0  0
  184.6670  179.1880  142.1460 C   0  0  0  0  0  2  0  0  0  0  0  0
  185.0660  179.4540  143.5830 C   0  0  0  0  0  2  0  0  0  0  0  0
  185.4720  178.1490  144.2630 C   0  0  0  0  0  2  0  0  0  0  0  0
  186.3540  178.3530  145.4180 N   0  0  0  0  0  0  0  0  0  0  0  0
  185.6450  179.0220  146.5100 C   0  0  0  0  0  2  0  0  0  0  0  0
  184.4290  178.3810  146.7480 O   0  0  0  0  0  1  0  0  0  0  0  0
  187.0280  177.0950  145.7940 C   0  0  0  0  0  2  0  0  0  0  0  0
  189.8820  177.0140  145.0610 C   0  0  0  0  0  1  0  0  0  0  0  0
  188.0790  177.1960  146.9160 C   0  0  2  0  0  0  0  0  0  0  0  0
  189.2410  178.8460  148.2360 O   0  0  0  0  0  1  0  0  0  0  0  0
  188.9110  178.4780  146.9290 C   0  0  1  0  0  3  0  0  0  0  0  0
  189.5540  177.1420  146.5400 C   0  0  2  0  0  0  0  0  0  0  0  0
  187.7620  176.6740  148.1730 O   0  0  0  0  0  1  0  0  0  0  0  0
  190.4900  176.4750  147.5460 C   0  0  0  0  0  2  0  0  0  0  0  0
  191.8680  176.5850  147.0980 N   0  0  0  0  0  1  0  0  0  0  0  0
  192.7690  176.2460  135.4940 S   0  0  0  0  0  0  0  0  0  0  0  0
  193.7350  174.9270  136.0740 O   0  0  0  0  0  0  0  0  0  0  0  0
  195.6780  174.6340  137.4180 C   0  0  0  0  0  0  0  0  0  0  0  0
  194.4180  175.0500  137.2770 C   0  0  0  0  0  3  0  0  0  0  0  0
  197.8410  169.6510  134.8700 N   0  0  0  0  0  1  0  0  0  0  0  0
  196.3700  169.6660  137.0740 O   0  0  0  0  0  1  0  0  0  0  0  0
  196.4060  172.6540  136.0130 N   0  0  0  0  0  0  0  0  0  0  0  0
  196.4150  174.0640  136.2710 C   0  0  0  0  0  0  0  0  0  0  0  0
  195.7710  170.3760  136.0300 C   0  0  2  0  0  3  0  0  0  0  0  0
  197.2990  172.0210  135.0640 C   0  0  0  0  0  2  0  0  0  0  0  0
  197.0630  174.8330  135.5100 O   0  0  0  0  0  0  0  0  0  0  0  0
  196.7560  170.6190  134.8790 C   0  0  1  0  0  3  0  0  0  0  0  0
  195.3960  171.7550  136.5340 C   0  0  0  0  0  2  0  0  0  0  0  0
  195.5690  175.0430  139.8680 O   0  0  0  0  0  1  0  0  0  0  0  0
  197.5670  174.5680  138.8610 O   0  0  0  0  0  0  0  0  0  0  0  0
  196.3250  174.7430  138.7400 C   0  0  0  0  0  0  0  0  0  0  0  0
  189.5830  177.7590  139.9320 C   0  0  2  0  0  3  0  0  0  0  0  0
  190.5480  176.6460  140.3300 C   0  0  1  0  0  3  0  0  0  0  0  0
  191.6360  177.4360  142.5440 N   0  0  0  0  0  2  0  0  0  0  0  0
  191.8130  176.9400  139.8940 O   0  0  0  0  0  0  0  0  0  0  0  0
  191.3910  177.1030  141.3220 C   0  0  0  0  0  0  0  0  0  0  0  0
  188.7430  178.2230  141.0880 C   0  0  0  0  0  0  0  0  0  0  0  0
  187.9680  177.2300  141.8790 C   0  0  0  0  0  1  0  0  0  0  0  0
  188.6980  179.4050  141.3920 O   0  0  0  0  0  0  0  0  0  0  0  0
  1  9  1  0  0  0  0
  1  2  2  0  0  0  0
  2  5  1  0  0  0  0
  3  9  1  0  0  0  0
  3  4  2  0  0  0  0
  4  7  1  0  0  0  0
  5 57  1  0  0  0  0
  6  2  1  0  0  0  0
  7  5  2  0  0  0  0
  8 41  1  6  0  0  0
  8  6  1  0  0  0  0
 10  8  1  0  0  0  0
 10  1  1  0  0  0  0
 11 14  1  0  0  0  0
 12 11  1  0  0  0  0
 12  3  1  0  0  0  0
 13 11  2  0  0  0  0
 14 15  2  0  0  0  0
 15 18  1  0  0  0  0
 16 17  3  0  0  0  0
 17 15  1  0  0  0  0
 18 23  1  0  0  0  0
 19 22  2  0  0  0  0
 19 23  1  0  0  0  0
 20 25  1  0  0  0  0
 21 20  2  0  0  0  0
 22 21  1  0  0  0  0
 23 24  2  0  0  0  0
 24 20  1  0  0  0  0
 25 26  1  0  0  0  0
 26 27  1  0  0  0  0
 27 28  1  0  0  0  0
 28 29  1  0  0  0  0
 29 32  1  0  0  0  0
 29 30  1  0  0  0  0
 30 31  1  0  0  0  0
 32 34  1  0  0  0  0
 34 36  1  0  0  0  0
 34 38  1  1  0  0  0
 36 35  1  1  0  0  0
 37 33  1  6  0  0  0
 37 34  1  0  0  0  0
 37 36  1  0  0  0  0
 37 39  1  0  0  0  0
 40 39  1  0  0  0  0
 41 42  1  0  0  0  0
 42 44  1  0  0  0  0
 43 56  1  0  0  0  0
 44 43  2  0  0  0  0
 47 48  1  0  0  0  0
 47 53  1  0  0  0  0
 48 43  1  0  0  0  0
 49 53  1  0  0  0  0
 49 46  1  1  0  0  0
 50 47  1  0  0  0  0
 51 48  2  0  0  0  0
 52 45  1  1  0  0  0
 52 50  1  0  0  0  0
 52 49  1  0  0  0  0
 56 55  2  0  0  0  0
 56 54  1  0  0  0  0
 57 62  1  1  0  0  0
 58 57  1  6  0  0  0
 58 61  1  0  0  0  0
 60 58  1  0  0  0  0
 60 61  1  0  0  0  0
 61 59  2  0  0  0  0
 62 64  2  0  0  0  0
 62 63  1  0  0  0  0
M  END
>  <MODEL>
3

>  <REMARK>
 VINA RESULT:      -6.4      2.774     10.820
  Name = 
  22 active torsions:
  status: ('A' for Active; 'I' for Inactive)
    1  A    between atoms: C_3  and  C_10
    2  A    between atoms: C_4  and  N_17
    3  A    between atoms: N_5  and  C_6
    4  A    between atoms: N_5  and  C_54
    5  A    between atoms: N_5  and  C_61
    6  A    between atoms: C_8  and  C_38
    7  A    between atoms: C_9  and  C_38
    8  A    between atoms: C_12  and  C_19
    9  A    between atoms: C_12  and  C_61
   10  A    between atoms: C_13  and  O_39
   11  A    between atoms: C_19  and  O_39
   12  A    between atoms: C_20  and  C_53
   13  A    between atoms: C_21  and  C_38
   14  A    between atoms: C_25  and  C_54
   15  A    between atoms: C_30  and  C_33
   16  A    between atoms: C_30  and  C_58
   17  A    between atoms: C_32  and  C_42
   18  A    between atoms: C_37  and  O_46
   19  A    between atoms: C_42  and  C_56
   20  A    between atoms: O_46  and  S_63
   21  A    between atoms: C_50  and  C_56
   22  A    between atoms: C_51  and  S_63
                            x       y       z     vdW  Elec       q    Type
                         _______ _______ _______ _____ _____    ______ ____

>  <TORSDO>
F 22

$$$$
=
 OpenBabel11032420183D

 64 69  0  0  1  0  0  0  0  0999 V2000
  188.5580  178.4000  142.7390 C   0  0  0  0  0  0  0  0  0  0  0  0
  187.9190  177.8450  143.7630 C   0  0  0  0  0  0  0  0  0  0  0  0
  190.9340  177.9460  143.1480 C   0  0  0  0  0  0  0  0  0  0  0  0
  190.8880  177.2520  144.2900 C   0  0  0  0  0  3  0  0  0  0  0  0
  188.5130  177.6020  145.1020 C   0  0  0  0  0  0  0  0  0  0  0  0
  186.4910  177.5390  143.4870 C   0  0  0  0  0  2  0  0  0  0  0  0
  189.8120  177.3110  145.3010 C   0  0  0  0  0  3  0  0  0  0  0  0
  186.0950  178.3780  142.2840 C   0  0  1  0  0  3  0  0  0  0  0  0
  189.9180  178.9970  142.8530 C   0  0  0  0  0  2  0  0  0  0  0  0
  187.5810  178.6260  141.2670 S   0  0  0  0  0  0  0  0  0  0  0  0
  191.9730  177.2520  140.8810 C   0  0  0  0  0  0  0  0  0  0  0  0
  192.0110  177.7850  142.2130 N   0  0  0  0  0  2  0  0  0  0  0  0
  193.0580  177.1470  140.2520 O   0  0  0  0  0  0  0  0  0  0  0  0
  190.6970  176.8550  140.2430 C   0  0  0  0  0  3  0  0  0  0  0  0
  190.5200  176.4200  138.9890 C   0  0  0  0  0  0  0  0  0  0  0  0
  192.4680  176.1310  137.2950 N   0  0  0  0  0  0  0  0  0  0  0  0
  191.6010  176.2590  138.0510 C   0  0  0  0  0  0  0  0  0  0  0  0
  189.1400  176.0620  138.5460 C   0  0  0  0  0  2  0  0  0  0  0  0
  188.9390  178.4350  137.7660 C   0  0  0  0  0  3  0  0  0  0  0  0
  187.2270  177.6550  135.6860 C   0  0  0  0  0  0  0  0  0  0  0  0
  187.5770  179.0060  135.8490 C   0  0  0  0  0  3  0  0  0  0  0  0
  188.4300  179.3930  136.8850 C   0  0  0  0  0  3  0  0  0  0  0  0
  188.5940  177.0870  137.6110 C   0  0  0  0  0  0  0  0  0  0  0  0
  187.7440  176.7010  136.5690 C   0  0  0  0  0  3  0  0  0  0  0  0
  186.3700  177.2390  134.6660 O   0  0  0  0  0  0  0  0  0  0  0  0
  185.0070  177.6380  134.5950 C   0  0  0  0  0  2  0  0  0  0  0  0
  184.1180  176.4120  134.5980 C   0  0  0  0  0  2  0  0  0  0  0  0
  183.3940  176.2940  135.9360 C   0  0  0  0  0  2  0  0  0  0  0  0
  183.7180  175.0580  136.6580 N   0  0  0  0  0  0  0  0  0  0  0  0
  182.6410  174.6900  137.5790 C   0  0  0  0  0  2  0  0  0  0  0  0
  181.4130  174.7600  136.9220 O   0  0  0  0  0  1  0  0  0  0  0  0
  184.1280  173.9920  135.7230 C   0  0  0  0  0  2  0  0  0  0  0  0
  186.8450  173.7480  134.6090 C   0  0  0  0  0  1  0  0  0  0  0  0
  185.0630  172.9090  136.2940 C   0  0  2  0  0  0  0  0  0  0  0  0
  186.5940  172.5450  138.1220 O   0  0  0  0  0  1  0  0  0  0  0  0
  186.2650  173.4230  137.0850 C   0  0  1  0  0  3  0  0  0  0  0  0
  186.4630  172.7730  135.7120 C   0  0  2  0  0  0  0  0  0  0  0  0
  184.4940  171.7240  136.7700 O   0  0  0  0  0  1  0  0  0  0  0  0
  187.0460  171.3630  135.6610 C   0  0  0  0  0  2  0  0  0  0  0  0
  188.2840  171.3600  134.8990 N   0  0  0  0  0  1  0  0  0  0  0  0
  184.8150  177.5210  141.3320 S   0  0  0  0  0  0  0  0  0  0  0  0
  183.8060  178.9330  141.3110 O   0  0  0  0  0  0  0  0  0  0  0  0
  181.4460  178.6670  141.4710 C   0  0  0  0  0  0  0  0  0  0  0  0
  182.6210  178.9450  142.0370 C   0  0  0  0  0  3  0  0  0  0  0  0
  179.7170  180.3090  135.9650 N   0  0  0  0  0  1  0  0  0  0  0  0
  179.5720  181.8830  138.0910 O   0  0  0  0  0  1  0  0  0  0  0  0
  181.0830  179.2600  139.0330 N   0  0  0  0  0  0  0  0  0  0  0  0
  181.3680  178.2850  140.0450 C   0  0  0  0  0  0  0  0  0  0  0  0
  180.8460  181.3340  137.9220 C   0  0  2  0  0  3  0  0  0  0  0  0
  180.7540  178.9050  137.6680 C   0  0  0  0  0  2  0  0  0  0  0  0
  181.5520  177.0820  139.7180 O   0  0  0  0  0  0  0  0  0  0  0  0
  180.8350  180.2020  136.8880 C   0  0  1  0  0  3  0  0  0  0  0  0
  181.2700  180.6840  139.2250 C   0  0  0  0  0  2  0  0  0  0  0  0
  180.2270  178.3260  143.6100 O   0  0  0  0  0  1  0  0  0  0  0  0
  179.1540  179.2140  141.7960 O   0  0  0  0  0  0  0  0  0  0  0  0
  180.2200  178.7530  142.2880 C   0  0  0  0  0  0  0  0  0  0  0  0
  187.5750  177.5800  146.2820 C   0  0  2  0  0  3  0  0  0  0  0  0
  186.8490  178.9080  146.4800 C   0  0  1  0  0  3  0  0  0  0  0  0
  184.4930  178.2830  147.3520 N   0  0  0  0  0  2  0  0  0  0  0  0
  186.0910  179.2000  145.3760 O   0  0  0  0  0  0  0  0  0  0  0  0
  185.5020  178.6730  146.6490 C   0  0  0  0  0  0  0  0  0  0  0  0
  188.2480  177.1070  147.5390 C   0  0  0  0  0  0  0  0  0  0  0  0
  188.9270  178.0920  148.4240 C   0  0  0  0  0  1  0  0  0  0  0  0
  188.2350  175.9270  147.8490 O   0  0  0  0  0  0  0  0  0  0  0  0
  1  9  1  0  0  0  0
  1  2  2  0  0  0  0
  2  5  1  0  0  0  0
  3  4  2  0  0  0  0
  4  7  1  0  0  0  0
  5  7  2  0  0  0  0
  5 57  1  0  0  0  0
  6  2  1  0  0  0  0
  8 41  1  6  0  0  0
  8  6  1  0  0  0  0
  9  3  1  0  0  0  0
 10  8  1  0  0  0  0
 10  1  1  0  0  0  0
 11 12  1  0  0  0  0
 12  3  1  0  0  0  0
 13 11  2  0  0  0  0
 14 11  1  0  0  0  0
 15 14  2  0  0  0  0
 16 17  3  0  0  0  0
 17 15  1  0  0  0  0
 18 15  1  0  0  0  0
 20 21  2  0  0  0  0
 20 24  1  0  0  0  0
 21 22  1  0  0  0  0
 22 19  2  0  0  0  0
 23 19  1  0  0  0  0
 23 18  1  0  0  0  0
 24 23  2  0  0  0  0
 25 20  1  0  0  0  0
 26 27  1  0  0  0  0
 26 25  1  0  0  0  0
 27 28  1  0  0  0  0
 28 29  1  0  0  0  0
 29 30  1  0  0  0  0
 31 30  1  0  0  0  0
 32 34  1  0  0  0  0
 32 29  1  0  0  0  0
 34 38  1  1  0  0  0
 34 36  1  0  0  0  0
 36 35  1  1  0  0  0
 37 33  1  6  0  0  0
 37 34  1  0  0  0  0
 37 36  1  0  0  0  0
 39 37  1  0  0  0  0
 40 39  1  0  0  0  0
 42 41  1  0  0  0  0
 42 44  1  0  0  0  0
 43 44  2  0  0  0  0
 43 56  1  0  0  0  0
 47 53  1  0  0  0  0
 47 48  1  0  0  0  0
 48 43  1  0  0  0  0
 49 46  1  1  0  0  0
 49 53  1  0  0  0  0
 50 47  1  0  0  0  0
 51 48  2  0  0  0  0
 52 45  1  6  0  0  0
 52 50  1  0  0  0  0
 52 49  1  0  0  0  0
 55 56  2  0  0  0  0
 56 54  1  0  0  0  0
 57 62  1  1  0  0  0
 58 57  1  6  0  0  0
 58 61  1  0  0  0  0
 60 58  1  0  0  0  0
 60 61  1  0  0  0  0
 61 59  2  0  0  0  0
 62 64  2  0  0  0  0
 62 63  1  0  0  0  0
M  END
>  <MODEL>
4

>  <REMARK>
 VINA RESULT:      -6.0      2.676      7.843
  Name = 
  22 active torsions:
  status: ('A' for Active; 'I' for Inactive)
    1  A    between atoms: C_3  and  C_10
    2  A    between atoms: C_4  and  N_17
    3  A    between atoms: N_5  and  C_6
    4  A    between atoms: N_5  and  C_54
    5  A    between atoms: N_5  and  C_61
    6  A    between atoms: C_8  and  C_38
    7  A    between atoms: C_9  and  C_38
    8  A    between atoms: C_12  and  C_19
    9  A    between atoms: C_12  and  C_61
   10  A    between atoms: C_13  and  O_39
   11  A    between atoms: C_19  and  O_39
   12  A    between atoms: C_20  and  C_53
   13  A    between atoms: C_21  and  C_38
   14  A    between atoms: C_25  and  C_54
   15  A    between atoms: C_30  and  C_33
   16  A    between atoms: C_30  and  C_58
   17  A    between atoms: C_32  and  C_42
   18  A    between atoms: C_37  and  O_46
   19  A    between atoms: C_42  and  C_56
   20  A    between atoms: O_46  and  S_63
   21  A    between atoms: C_50  and  C_56
   22  A    between atoms: C_51  and  S_63
                            x       y       z     vdW  Elec       q    Type
                         _______ _______ _______ _____ _____    ______ ____

>  <TORSDO>
F 22

$$$$
=
 OpenBabel11032420183D

 64 69  0  0  1  0  0  0  0  0999 V2000
  184.4010  179.2920  142.5210 C   0  0  0  0  0  0  0  0  0  0  0  0
  183.2780  178.7850  142.0230 C   0  0  0  0  0  0  0  0  0  0  0  0
  184.1050  179.2240  144.9550 C   0  0  0  0  0  0  0  0  0  0  0  0
  182.8910  178.6770  145.0700 C   0  0  0  0  0  3  0  0  0  0  0  0
  181.9640  178.7930  142.7140 C   0  0  0  0  0  0  0  0  0  0  0  0
  183.4190  178.2530  140.6420 C   0  0  0  0  0  2  0  0  0  0  0  0
  181.8220  178.7100  144.0500 C   0  0  0  0  0  3  0  0  0  0  0  0
  184.6800  178.8750  140.0670 C   0  0  1  0  0  3  0  0  0  0  0  0
  184.4480  180.0810  143.7830 C   0  0  0  0  0  2  0  0  0  0  0  0
  185.8180  179.1980  141.4470 S   0  0  0  0  0  0  0  0  0  0  0  0
  186.2990  178.3310  146.0000 C   0  0  0  0  0  0  0  0  0  0  0  0
  185.0880  179.1000  145.9950 N   0  0  0  0  0  2  0  0  0  0  0  0
  186.9910  178.3180  147.0510 O   0  0  0  0  0  0  0  0  0  0  0  0
  186.7470  177.5870  144.8000 C   0  0  0  0  0  3  0  0  0  0  0  0
  187.9360  177.0020  144.6080 C   0  0  0  0  0  0  0  0  0  0  0  0
  189.8290  177.0060  146.3870 N   0  0  0  0  0  0  0  0  0  0  0  0
  188.9850  177.0060  145.5960 C   0  0  0  0  0  0  0  0  0  0  0  0
  188.1810  176.2900  143.3190 C   0  0  0  0  0  2  0  0  0  0  0  0
  190.2050  177.7690  143.2810 C   0  0  0  0  0  3  0  0  0  0  0  0
  190.9480  176.7650  140.7700 C   0  0  0  0  0  0  0  0  0  0  0  0
  191.7350  177.7400  141.4060 C   0  0  0  0  0  3  0  0  0  0  0  0
  191.3640  178.2390  142.6570 C   0  0  0  0  0  3  0  0  0  0  0  0
  189.4160  176.7980  142.6530 C   0  0  0  0  0  0  0  0  0  0  0  0
  189.7930  176.2960  141.4030 C   0  0  0  0  0  3  0  0  0  0  0  0
  191.2890  176.2540  139.5170 O   0  0  0  0  0  0  0  0  0  0  0  0
  190.3590  176.1630  138.4440 C   0  0  0  0  0  2  0  0  0  0  0  0
  191.0240  176.6060  137.1570 C   0  0  0  0  0  2  0  0  0  0  0  0
  192.0650  175.5770  136.7260 C   0  0  0  0  0  2  0  0  0  0  0  0
  191.7720  174.2240  137.2110 N   0  0  0  0  0  0  0  0  0  0  0  0
  190.9840  173.4730  136.2310 C   0  0  0  0  0  2  0  0  0  0  0  0
  191.1010  174.0670  134.9750 O   0  0  0  0  0  1  0  0  0  0  0  0
  193.0030  173.5480  137.6670 C   0  0  0  0  0  2  0  0  0  0  0  0
  195.6410  174.3800  138.6820 C   0  0  0  0  0  1  0  0  0  0  0  0
  194.1930  173.5710  136.6900 C   0  0  2  0  0  0  0  0  0  0  0  0
  195.8570  172.1020  135.7470 O   0  0  0  0  0  1  0  0  0  0  0  0
  195.2800  172.5280  136.9460 C   0  0  1  0  0  3  0  0  0  0  0  0
  195.5540  174.0120  137.2090 C   0  0  2  0  0  0  0  0  0  0  0  0
  193.9430  173.8580  135.3450 O   0  0  0  0  0  1  0  0  0  0  0  0
  196.4490  174.7630  136.2250 C   0  0  0  0  0  2  0  0  0  0  0  0
  196.0330  176.1530  136.1300 N   0  0  0  0  0  1  0  0  0  0  0  0
  185.4380  177.7390  138.8780 S   0  0  0  0  0  0  0  0  0  0  0  0
  184.0500  177.8110  137.8390 O   0  0  0  0  0  0  0  0  0  0  0  0
  182.9060  175.9560  136.8820 C   0  0  0  0  0  0  0  0  0  0  0  0
  183.0950  176.8030  137.8940 C   0  0  0  0  0  3  0  0  0  0  0  0
  188.4440  175.4500  134.6300 N   0  0  0  0  0  1  0  0  0  0  0  0
  187.8200  174.9290  137.1520 O   0  0  0  0  0  1  0  0  0  0  0  0
  185.0810  175.5010  135.6620 N   0  0  0  0  0  0  0  0  0  0  0  0
  183.7480  176.0310  135.6700 C   0  0  0  0  0  0  0  0  0  0  0  0
  186.9980  174.2480  136.2490 C   0  0  2  0  0  3  0  0  0  0  0  0
  186.0260  175.7640  134.5960 C   0  0  0  0  0  2  0  0  0  0  0  0
  183.2860  176.5720  134.6290 O   0  0  0  0  0  0  0  0  0  0  0  0
  187.1640  174.7890  134.8230 C   0  0  1  0  0  3  0  0  0  0  0  0
  185.5510  174.5150  136.6140 C   0  0  0  0  0  2  0  0  0  0  0  0
  181.8170  173.8520  136.1250 O   0  0  0  0  0  0  0  0  0  0  0  0
  180.9270  175.0590  137.8520 O   0  0  0  0  0  1  0  0  0  0  0  0
  181.8360  174.9440  136.9850 C   0  0  0  0  0  0  0  0  0  0  0  0
  180.7280  178.7870  141.8510 C   0  0  2  0  0  3  0  0  0  0  0  0
  180.8020  177.7600  140.7260 C   0  0  1  0  0  3  0  0  0  0  0  0
  178.9340  178.4250  139.0610 N   0  0  0  0  0  2  0  0  0  0  0  0
  179.9010  176.7510  140.9480 O   0  0  0  0  0  0  0  0  0  0  0  0
  179.6640  177.8440  139.9520 C   0  0  0  0  0  0  0  0  0  0  0  0
  180.3750  180.1580  141.3470 C   0  0  0  0  0  0  0  0  0  0  0  0
  180.8950  180.6120  140.0290 C   0  0  0  0  0  1  0  0  0  0  0  0
  179.6600  180.9000  142.0010 O   0  0  0  0  0  0  0  0  0  0  0  0
  1  9  1  0  0  0  0
  2  1  2  0  0  0  0
  2  5  1  0  0  0  0
  3  4  2  0  0  0  0
  3 12  1  0  0  0  0
  5  7  2  0  0  0  0
  6  2  1  0  0  0  0
  7  4  1  0  0  0  0
  8 41  1  6  0  0  0
  8  6  1  0  0  0  0
  8 10  1  0  0  0  0
  9  3  1  0  0  0  0
 10  1  1  0  0  0  0
 11 13  2  0  0  0  0
 12 11  1  0  0  0  0
 14 11  1  0  0  0  0
 15 14  2  0  0  0  0
 15 17  1  0  0  0  0
 17 16  3  0  0  0  0
 18 15  1  0  0  0  0
 20 24  2  0  0  0  0
 20 21  1  0  0  0  0
 21 22  2  0  0  0  0
 22 19  1  0  0  0  0
 23 19  2  0  0  0  0
 23 18  1  0  0  0  0
 24 23  1  0  0  0  0
 25 20  1  0  0  0  0
 26 25  1  0  0  0  0
 27 26  1  0  0  0  0
 28 27  1  0  0  0  0
 28 29  1  0  0  0  0
 29 32  1  0  0  0  0
 30 29  1  0  0  0  0
 31 30  1  0  0  0  0
 34 38  1  6  0  0  0
 34 36  1  0  0  0  0
 34 37  1  0  0  0  0
 34 32  1  0  0  0  0
 36 35  1  6  0  0  0
 36 37  1  0  0  0  0
 37 33  1  1  0  0  0
 39 37  1  0  0  0  0
 40 39  1  0  0  0  0
 42 44  1  0  0  0  0
 42 41  1  0  0  0  0
 43 56  1  0  0  0  0
 43 44  2  0  0  0  0
 47 48  1  0  0  0  0
 47 53  1  0  0  0  0
 48 43  1  0  0  0  0
 49 53  1  0  0  0  0
 49 46  1  1  0  0  0
 50 52  1  0  0  0  0
 50 47  1  0  0  0  0
 51 48  2  0  0  0  0
 52 45  1  1  0  0  0
 52 49  1  0  0  0  0
 54 56  2  0  0  0  0
 56 55  1  0  0  0  0
 57 62  1  6  0  0  0
 57  5  1  0  0  0  0
 58 60  1  0  0  0  0
 58 57  1  1  0  0  0
 59 61  2  0  0  0  0
 61 58  1  0  0  0  0
 61 60  1  0  0  0  0
 62 64  2  0  0  0  0
 63 62  1  0  0  0  0
M  END
>  <MODEL>
5

>  <REMARK>
 VINA RESULT:      -5.8      1.464      2.060
  Name = 
  22 active torsions:
  status: ('A' for Active; 'I' for Inactive)
    1  A    between atoms: C_3  and  C_10
    2  A    between atoms: C_4  and  N_17
    3  A    between atoms: N_5  and  C_6
    4  A    between atoms: N_5  and  C_54
    5  A    between atoms: N_5  and  C_61
    6  A    between atoms: C_8  and  C_38
    7  A    between atoms: C_9  and  C_38
    8  A    between atoms: C_12  and  C_19
    9  A    between atoms: C_12  and  C_61
   10  A    between atoms: C_13  and  O_39
   11  A    between atoms: C_19  and  O_39
   12  A    between atoms: C_20  and  C_53
   13  A    between atoms: C_21  and  C_38
   14  A    between atoms: C_25  and  C_54
   15  A    between atoms: C_30  and  C_33
   16  A    between atoms: C_30  and  C_58
   17  A    between atoms: C_32  and  C_42
   18  A    between atoms: C_37  and  O_46
   19  A    between atoms: C_42  and  C_56
   20  A    between atoms: O_46  and  S_63
   21  A    between atoms: C_50  and  C_56
   22  A    between atoms: C_51  and  S_63
                            x       y       z     vdW  Elec       q    Type
                         _______ _______ _______ _____ _____    ______ ____

>  <TORSDO>
F 22

$$$$
=
 OpenBabel11032420183D

 64 69  0  0  1  0  0  0  0  0999 V2000
  188.5000  178.5000  142.2750 C   0  0  0  0  0  0  0  0  0  0  0  0
  187.7730  177.9170  143.2220 C   0  0  0  0  0  0  0  0  0  0  0  0
  190.8260  177.9560  142.8340 C   0  0  0  0  0  0  0  0  0  0  0  0
  190.6770  177.2110  143.9340 C   0  0  0  0  0  3  0  0  0  0  0  0
  188.2590  177.5940  144.5870 C   0  0  0  0  0  0  0  0  0  0  0  0
  186.3610  177.6680  142.8270 C   0  0  0  0  0  2  0  0  0  0  0  0
  189.5310  177.2540  144.8660 C   0  0  0  0  0  3  0  0  0  0  0  0
  186.0790  178.5740  141.6420 C   0  0  1  0  0  3  0  0  0  0  0  0
  189.8630  179.0500  142.5180 C   0  0  0  0  0  2  0  0  0  0  0  0
  187.6420  178.8250  140.7490 S   0  0  0  0  0  0  0  0  0  0  0  0
  192.0430  177.1800  140.6850 C   0  0  0  0  0  0  0  0  0  0  0  0
  191.9650  177.8080  141.9730 N   0  0  0  0  0  2  0  0  0  0  0  0
  193.1680  177.1080  140.1260 O   0  0  0  0  0  0  0  0  0  0  0  0
  190.8360  176.6480  140.0110 C   0  0  0  0  0  3  0  0  0  0  0  0
  190.7670  176.1000  138.7910 C   0  0  0  0  0  0  0  0  0  0  0  0
  192.8340  175.7950  137.2480 N   0  0  0  0  0  0  0  0  0  0  0  0
  191.9140  175.9330  137.9350 C   0  0  0  0  0  0  0  0  0  0  0  0
  189.4430  175.6160  138.3010 C   0  0  0  0  0  2  0  0  0  0  0  0
  189.2180  178.0070  137.5820 C   0  0  0  0  0  3  0  0  0  0  0  0
  186.6790  177.4950  136.5090 C   0  0  0  0  0  0  0  0  0  0  0  0
  187.2320  178.7840  136.4390 C   0  0  0  0  0  3  0  0  0  0  0  0
  188.4970  179.0380  136.9740 C   0  0  0  0  0  3  0  0  0  0  0  0
  188.6730  176.7190  137.6570 C   0  0  0  0  0  0  0  0  0  0  0  0
  187.4080  176.4670  137.1160 C   0  0  0  0  0  3  0  0  0  0  0  0
  185.4130  177.2120  135.9920 O   0  0  0  0  0  0  0  0  0  0  0  0
  184.2410  177.1830  136.7980 C   0  0  0  0  0  2  0  0  0  0  0  0
  183.6020  175.8130  136.7140 C   0  0  0  0  0  2  0  0  0  0  0  0
  184.5950  174.8070  136.1380 C   0  0  0  0  0  2  0  0  0  0  0  0
  184.0470  174.0350  135.0170 N   0  0  0  0  0  0  0  0  0  0  0  0
  184.7670  172.7710  134.8480 C   0  0  0  0  0  2  0  0  0  0  0  0
  185.7270  172.6360  135.8490 O   0  0  0  0  0  1  0  0  0  0  0  0
  182.5810  173.9040  135.1320 C   0  0  0  0  0  2  0  0  0  0  0  0
  179.7050  173.3120  134.8800 C   0  0  0  0  0  1  0  0  0  0  0  0
  182.0580  172.5560  135.6620 C   0  0  2  0  0  0  0  0  0  0  0  0
  181.8230  170.2530  134.9850 O   0  0  0  0  0  1  0  0  0  0  0  0
  181.5690  171.5720  134.6010 C   0  0  1  0  0  3  0  0  0  0  0  0
  180.5710  172.2530  135.5440 C   0  0  2  0  0  0  0  0  0  0  0  0
  182.7010  171.9800  136.7620 O   0  0  0  0  0  1  0  0  0  0  0  0
  179.9540  171.4160  136.6630 C   0  0  0  0  0  2  0  0  0  0  0  0
  180.4760  171.8400  137.9520 N   0  0  0  0  0  1  0  0  0  0  0  0
  184.8500  177.8020  140.5570 S   0  0  0  0  0  0  0  0  0  0  0  0
  183.6360  178.9530  141.0190 O   0  0  0  0  0  0  0  0  0  0  0  0
  181.5000  178.7400  142.0480 C   0  0  0  0  0  0  0  0  0  0  0  0
  182.8310  178.7000  142.1230 C   0  0  0  0  0  3  0  0  0  0  0  0
  179.9170  176.5360  136.6970 N   0  0  0  0  0  1  0  0  0  0  0  0
  181.0840  175.1070  138.5990 O   0  0  0  0  0  1  0  0  0  0  0  0
  180.4680  177.9420  139.8760 N   0  0  0  0  0  0  0  0  0  0  0  0
  180.8260  179.0110  140.7610 C   0  0  0  0  0  0  0  0  0  0  0  0
  179.9520  175.7830  139.0610 C   0  0  2  0  0  3  0  0  0  0  0  0
  180.0360  178.1630  138.5100 C   0  0  0  0  0  2  0  0  0  0  0  0
  180.5660  180.2020  140.4400 O   0  0  0  0  0  0  0  0  0  0  0  0
  179.4750  176.8330  138.0500 C   0  0  1  0  0  3  0  0  0  0  0  0
  180.3290  176.5650  140.3040 C   0  0  0  0  0  2  0  0  0  0  0  0
  179.3820  178.1080  143.1860 O   0  0  0  0  0  0  0  0  0  0  0  0
  181.2220  178.6940  144.4110 O   0  0  0  0  0  1  0  0  0  0  0  0
  180.7070  178.5170  143.2730 C   0  0  0  0  0  0  0  0  0  0  0  0
  187.2360  177.5450  145.6920 C   0  0  2  0  0  3  0  0  0  0  0  0
  186.1920  178.6520  145.5770 C   0  0  1  0  0  3  0  0  0  0  0  0
  184.4830  178.1900  147.4660 N   0  0  0  0  0  2  0  0  0  0  0  0
  185.1210  178.2160  144.8410 O   0  0  0  0  0  0  0  0  0  0  0  0
  185.0890  178.3240  146.3350 C   0  0  0  0  0  0  0  0  0  0  0  0
  187.8660  177.4990  147.0550 C   0  0  0  0  0  0  0  0  0  0  0  0
  188.4750  176.2310  147.5400 C   0  0  0  0  0  1  0  0  0  0  0  0
  187.8940  178.4910  147.7650 O   0  0  0  0  0  0  0  0  0  0  0  0
  1  9  1  0  0  0  0
  1  2  2  0  0  0  0
  2  5  1  0  0  0  0
  3  4  2  0  0  0  0
  4  7  1  0  0  0  0
  5  7  2  0  0  0  0
  5 57  1  0  0  0  0
  6  2  1  0  0  0  0
  8 41  1  6  0  0  0
  8  6  1  0  0  0  0
  9  3  1  0  0  0  0
 10  8  1  0  0  0  0
 10  1  1  0  0  0  0
 11 12  1  0  0  0  0
 12  3  1  0  0  0  0
 13 11  2  0  0  0  0
 14 11  1  0  0  0  0
 15 14  2  0  0  0  0
 16 17  3  0  0  0  0
 17 15  1  0  0  0  0
 18 15  1  0  0  0  0
 19 23  1  0  0  0  0
 20 24  1  0  0  0  0
 21 20  2  0  0  0  0
 21 22  1  0  0  0  0
 22 19  2  0  0  0  0
 23 18  1  0  0  0  0
 24 23  2  0  0  0  0
 25 20  1  0  0  0  0
 25 26  1  0  0  0  0
 27 26  1  0  0  0  0
 28 27  1  0  0  0  0
 29 32  1  0  0  0  0
 29 28  1  0  0  0  0
 30 29  1  0  0  0  0
 30 31  1  0  0  0  0
 32 34  1  0  0  0  0
 34 38  1  1  0  0  0
 36 35  1  1  0  0  0
 36 37  1  0  0  0  0
 36 34  1  0  0  0  0
 37 33  1  6  0  0  0
 37 34  1  0  0  0  0
 37 39  1  0  0  0  0
 39 40  1  0  0  0  0
 41 42  1  0  0  0  0
 42 44  1  0  0  0  0
 43 44  2  0  0  0  0
 43 56  1  0  0  0  0
 47 53  1  0  0  0  0
 47 48  1  0  0  0  0
 48 43  1  0  0  0  0
 49 46  1  6  0  0  0
 49 53  1  0  0  0  0
 50 47  1  0  0  0  0
 51 48  2  0  0  0  0
 52 45  1  6  0  0  0
 52 50  1  0  0  0  0
 52 49  1  0  0  0  0
 54 56  2  0  0  0  0
 56 55  1  0  0  0  0
 57 62  1  1  0  0  0
 58 57  1  1  0  0  0
 58 61  1  0  0  0  0
 60 58  1  0  0  0  0
 60 61  1  0  0  0  0
 61 59  2  0  0  0  0
 62 63  1  0  0  0  0
 62 64  2  0  0  0  0
M  END
>  <MODEL>
6

>  <REMARK>
 VINA RESULT:      -5.1      2.579      8.364
  Name = 
  22 active torsions:
  status: ('A' for Active; 'I' for Inactive)
    1  A    between atoms: C_3  and  C_10
    2  A    between atoms: C_4  and  N_17
    3  A    between atoms: N_5  and  C_6
    4  A    between atoms: N_5  and  C_54
    5  A    between atoms: N_5  and  C_61
    6  A    between atoms: C_8  and  C_38
    7  A    between atoms: C_9  and  C_38
    8  A    between atoms: C_12  and  C_19
    9  A    between atoms: C_12  and  C_61
   10  A    between atoms: C_13  and  O_39
   11  A    between atoms: C_19  and  O_39
   12  A    between atoms: C_20  and  C_53
   13  A    between atoms: C_21  and  C_38
   14  A    between atoms: C_25  and  C_54
   15  A    between atoms: C_30  and  C_33
   16  A    between atoms: C_30  and  C_58
   17  A    between atoms: C_32  and  C_42
   18  A    between atoms: C_37  and  O_46
   19  A    between atoms: C_42  and  C_56
   20  A    between atoms: O_46  and  S_63
   21  A    between atoms: C_50  and  C_56
   22  A    between atoms: C_51  and  S_63
                            x       y       z     vdW  Elec       q    Type
                         _______ _______ _______ _____ _____    ______ ____

>  <TORSDO>
F 22

$$$$
=
 OpenBabel11032420183D

 64 69  0  0  1  0  0  0  0  0999 V2000
  190.9230  175.7720  137.6070 C   0  0  0  0  0  0  0  0  0  0  0  0
  192.2170  175.4720  137.5820 C   0  0  0  0  0  0  0  0  0  0  0  0
  189.8720  174.1800  136.0640 C   0  0  0  0  0  0  0  0  0  0  0  0
  190.9210  173.4590  135.6560 C   0  0  0  0  0  3  0  0  0  0  0  0
  192.9130  174.8080  136.4510 C   0  0  0  0  0  0  0  0  0  0  0  0
  192.9640  175.9310  138.7840 C   0  0  0  0  0  2  0  0  0  0  0  0
  192.3300  173.9040  135.6420 C   0  0  0  0  0  3  0  0  0  0  0  0
  192.1070  176.9980  139.4410 C   0  0  1  0  0  3  0  0  0  0  0  0
  190.0290  175.6180  136.4260 C   0  0  0  0  0  2  0  0  0  0  0  0
  190.3680  176.6210  139.0700 S   0  0  0  0  0  0  0  0  0  0  0  0
  187.3030  174.2980  136.3620 C   0  0  0  0  0  0  0  0  0  0  0  0
  188.5430  173.6360  136.0730 N   0  0  0  0  0  2  0  0  0  0  0  0
  186.2500  173.6090  136.3700 O   0  0  0  0  0  0  0  0  0  0  0  0
  187.2470  175.7550  136.6210 C   0  0  0  0  0  3  0  0  0  0  0  0
  186.3510  176.6280  136.1430 C   0  0  0  0  0  0  0  0  0  0  0  0
  184.3810  175.9390  134.5950 N   0  0  0  0  0  0  0  0  0  0  0  0
  185.2600  176.2460  135.2830 C   0  0  0  0  0  0  0  0  0  0  0  0
  186.4700  178.0620  136.5380 C   0  0  0  0  0  2  0  0  0  0  0  0
  187.0150  178.2050  138.9810 C   0  0  0  0  0  3  0  0  0  0  0  0
  184.3280  178.7130  139.5980 C   0  0  0  0  0  0  0  0  0  0  0  0
  185.2910  178.6520  140.6190 C   0  0  0  0  0  3  0  0  0  0  0  0
  186.6290  178.3980  140.3100 C   0  0  0  0  0  3  0  0  0  0  0  0
  186.0610  178.2640  137.9580 C   0  0  0  0  0  0  0  0  0  0  0  0
  184.7220  178.5230  138.2700 C   0  0  0  0  0  3  0  0  0  0  0  0
  182.9820  178.9560  139.8760 O   0  0  0  0  0  0  0  0  0  0  0  0
  182.3880  178.6520  141.1330 C   0  0  0  0  0  2  0  0  0  0  0  0
  180.9010  178.9350  141.0730 C   0  0  0  0  0  2  0  0  0  0  0  0
  180.1470  177.6790  140.6440 C   0  0  0  0  0  2  0  0  0  0  0  0
  179.6890  177.7310  139.2510 N   0  0  0  0  0  0  0  0  0  0  0  0
  179.4350  179.1100  138.8320 C   0  0  0  0  0  2  0  0  0  0  0  0
  180.2340  179.4270  137.7350 O   0  0  0  0  0  1  0  0  0  0  0  0
  180.5980  176.9720  138.3690 C   0  0  0  0  0  2  0  0  0  0  0  0
  182.6760  174.9700  137.7670 C   0  0  0  0  0  1  0  0  0  0  0  0
  180.1580  175.5390  138.0110 C   0  0  2  0  0  0  0  0  0  0  0  0
  179.5310  173.4640  139.0680 O   0  0  0  0  0  1  0  0  0  0  0  0
  180.5070  174.4640  139.0380 C   0  0  1  0  0  3  0  0  0  0  0  0
  181.2300  174.5070  137.6880 C   0  0  2  0  0  0  0  0  0  0  0  0
  178.9390  175.3640  137.3500 O   0  0  0  0  0  1  0  0  0  0  0  0
  180.8680  173.4520  136.6440 C   0  0  0  0  0  2  0  0  0  0  0  0
  182.0640  172.9990  135.9540 N   0  0  0  0  0  1  0  0  0  0  0  0
  192.3850  176.9910  141.2320 S   0  0  0  0  0  0  0  0  0  0  0  0
  191.1660  178.2010  141.4820 O   0  0  0  0  0  0  0  0  0  0  0  0
  189.6090  177.0720  142.8840 C   0  0  0  0  0  0  0  0  0  0  0  0
  189.8720  177.8170  141.8100 C   0  0  0  0  0  3  0  0  0  0  0  0
  191.8670  177.4920  148.4270 N   0  0  0  0  0  1  0  0  0  0  0  0
  189.5590  178.5620  147.6850 O   0  0  0  0  0  1  0  0  0  0  0  0
  190.5760  176.8530  145.2170 N   0  0  0  0  0  0  0  0  0  0  0  0
  190.6940  176.6620  143.8000 C   0  0  0  0  0  0  0  0  0  0  0  0
  189.6440  177.2050  147.3610 C   0  0  2  0  0  3  0  0  0  0  0  0
  191.6930  176.7000  146.1270 C   0  0  0  0  0  2  0  0  0  0  0  0
  191.7390  176.1410  143.3260 O   0  0  0  0  0  0  0  0  0  0  0  0
  191.0790  176.6830  147.5120 C   0  0  1  0  0  3  0  0  0  0  0  0
  189.3080  177.0360  145.8930 C   0  0  0  0  0  2  0  0  0  0  0  0
  187.2180  177.6050  143.3100 O   0  0  0  0  0  1  0  0  0  0  0  0
  187.9190  175.4300  143.2130 O   0  0  0  0  0  0  0  0  0  0  0  0
  188.2170  176.6530  143.1420 C   0  0  0  0  0  0  0  0  0  0  0  0
  194.3820  175.0960  136.2770 C   0  0  2  0  0  3  0  0  0  0  0  0
  194.6870  175.8270  134.9730 C   0  0  1  0  0  3  0  0  0  0  0  0
  196.9090  177.0900  135.3920 N   0  0  0  0  0  2  0  0  0  0  0  0
  194.2310  177.1170  135.0370 O   0  0  0  0  0  0  0  0  0  0  0  0
  195.6780  176.7610  135.1910 C   0  0  0  0  0  0  0  0  0  0  0  0
  195.2320  173.8690  136.4530 C   0  0  0  0  0  0  0  0  0  0  0  0
  195.4220  172.9380  135.3080 C   0  0  0  0  0  1  0  0  0  0  0  0
  195.7750  173.6330  137.5200 O   0  0  0  0  0  0  0  0  0  0  0  0
  1 10  1  0  0  0  0
  2  1  2  0  0  0  0
  2  6  1  0  0  0  0
  3 12  1  0  0  0  0
  3  9  1  0  0  0  0
  4  3  2  0  0  0  0
  5  2  1  0  0  0  0
  6  8  1  0  0  0  0
  7  4  1  0  0  0  0
  7  5  2  0  0  0  0
  8 41  1  1  0  0  0
  9  1  1  0  0  0  0
 10  8  1  0  0  0  0
 11 13  2  0  0  0  0
 11 14  1  0  0  0  0
 12 11  1  0  0  0  0
 15 18  1  0  0  0  0
 15 14  2  0  0  0  0
 16 17  3  0  0  0  0
 17 15  1  0  0  0  0
 18 23  1  0  0  0  0
 19 22  1  0  0  0  0
 20 25  1  0  0  0  0
 20 21  1  0  0  0  0
 22 21  2  0  0  0  0
 23 24  1  0  0  0  0
 23 19  2  0  0  0  0
 24 20  2  0  0  0  0
 25 26  1  0  0  0  0
 27 26  1  0  0  0  0
 28 27  1  0  0  0  0
 29 28  1  0  0  0  0
 30 29  1  0  0  0  0
 31 30  1  0  0  0  0
 32 29  1  0  0  0  0
 34 38  1  6  0  0  0
 34 32  1  0  0  0  0
 34 36  1  0  0  0  0
 36 35  1  6  0  0  0
 37 33  1  1  0  0  0
 37 34  1  0  0  0  0
 37 36  1  0  0  0  0
 39 37  1  0  0  0  0
 40 39  1  0  0  0  0
 41 42  1  0  0  0  0
 42 44  1  0  0  0  0
 43 56  1  0  0  0  0
 43 48  1  0  0  0  0
 44 43  2  0  0  0  0
 47 53  1  0  0  0  0
 47 50  1  0  0  0  0
 48 47  1  0  0  0  0
 49 52  1  0  0  0  0
 49 46  1  6  0  0  0
 50 52  1  0  0  0  0
 51 48  2  0  0  0  0
 52 45  1  1  0  0  0
 53 49  1  0  0  0  0
 56 55  2  0  0  0  0
 56 54  1  0  0  0  0
 57  5  1  0  0  0  0
 57 62  1  6  0  0  0
 58 60  1  0  0  0  0
 58 61  1  0  0  0  0
 58 57  1  1  0  0  0
 60 61  1  0  0  0  0
 61 59  2  0  0  0  0
 62 64  2  0  0  0  0
 63 62  1  0  0  0  0
M  END
>  <MODEL>
7

>  <REMARK>
 VINA RESULT:      -4.8      2.551     11.816
  Name = 
  22 active torsions:
  status: ('A' for Active; 'I' for Inactive)
    1  A    between atoms: C_3  and  C_10
    2  A    between atoms: C_4  and  N_17
    3  A    between atoms: N_5  and  C_6
    4  A    between atoms: N_5  and  C_54
    5  A    between atoms: N_5  and  C_61
    6  A    between atoms: C_8  and  C_38
    7  A    between atoms: C_9  and  C_38
    8  A    between atoms: C_12  and  C_19
    9  A    between atoms: C_12  and  C_61
   10  A    between atoms: C_13  and  O_39
   11  A    between atoms: C_19  and  O_39
   12  A    between atoms: C_20  and  C_53
   13  A    between atoms: C_21  and  C_38
   14  A    between atoms: C_25  and  C_54
   15  A    between atoms: C_30  and  C_33
   16  A    between atoms: C_30  and  C_58
   17  A    between atoms: C_32  and  C_42
   18  A    between atoms: C_37  and  O_46
   19  A    between atoms: C_42  and  C_56
   20  A    between atoms: O_46  and  S_63
   21  A    between atoms: C_50  and  C_56
   22  A    between atoms: C_51  and  S_63
                            x       y       z     vdW  Elec       q    Type
                         _______ _______ _______ _____ _____    ______ ____

>  <TORSDO>
F 22

$$$$
=
 OpenBabel11032420183D

 64 69  0  0  1  0  0  0  0  0999 V2000
  185.5790  175.9980  135.7020 C   0  0  0  0  0  0  0  0  0  0  0  0
  184.9050  174.9480  135.2460 C   0  0  0  0  0  0  0  0  0  0  0  0
  187.9310  175.5110  135.1990 C   0  0  0  0  0  0  0  0  0  0  0  0
  187.8420  174.3230  134.5940 C   0  0  0  0  0  3  0  0  0  0  0  0
  185.4680  173.5840  135.0830 C   0  0  0  0  0  0  0  0  0  0  0  0
  183.4710  175.2280  134.9690 C   0  0  0  0  0  2  0  0  0  0  0  0
  186.7520  173.3390  134.7640 C   0  0  0  0  0  3  0  0  0  0  0  0
  183.1250  176.4960  135.7300 C   0  0  1  0  0  3  0  0  0  0  0  0
  186.9570  175.9020  136.2600 C   0  0  0  0  0  2  0  0  0  0  0  0
  184.6360  177.5010  135.8520 S   0  0  0  0  0  0  0  0  0  0  0  0
  190.0160  176.9070  135.8380 C   0  0  0  0  0  0  0  0  0  0  0  0
  189.0170  176.4120  134.9340 N   0  0  0  0  0  2  0  0  0  0  0  0
  190.8480  177.7440  135.4020 O   0  0  0  0  0  0  0  0  0  0  0  0
  190.0910  176.4360  137.2400 C   0  0  0  0  0  3  0  0  0  0  0  0
  191.1970  176.2160  137.9610 C   0  0  0  0  0  0  0  0  0  0  0  0
  193.5930  176.6050  137.0360 N   0  0  0  0  0  0  0  0  0  0  0  0
  192.5270  176.4320  137.4500 C   0  0  0  0  0  0  0  0  0  0  0  0
  191.0490  175.7480  139.3700 C   0  0  0  0  0  2  0  0  0  0  0  0
  191.0440  177.4130  141.2450 C   0  0  0  0  0  3  0  0  0  0  0  0
  188.3670  178.0620  140.7230 C   0  0  0  0  0  0  0  0  0  0  0  0
  189.0620  178.7000  141.7640 C   0  0  0  0  0  3  0  0  0  0  0  0
  190.3960  178.3750  142.0230 C   0  0  0  0  0  3  0  0  0  0  0  0
  190.3580  176.7720  140.2060 C   0  0  0  0  0  0  0  0  0  0  0  0
  189.0240  177.1030  139.9460 C   0  0  0  0  0  3  0  0  0  0  0  0
  187.0320  178.3590  140.4460 O   0  0  0  0  0  0  0  0  0  0  0  0
  186.0980  178.7240  141.4560 C   0  0  0  0  0  2  0  0  0  0  0  0
  186.4830  178.0660  142.7650 C   0  0  0  0  0  2  0  0  0  0  0  0
  185.7270  178.7160  143.9200 C   0  0  0  0  0  2  0  0  0  0  0  0
  186.4300  178.6050  145.2030 N   0  0  0  0  0  0  0  0  0  0  0  0
  185.5150  178.8290  146.3240 C   0  0  0  0  0  2  0  0  0  0  0  0
  184.1950  178.7810  145.8750 O   0  0  0  0  0  1  0  0  0  0  0  0
  187.2040  177.3500  145.2740 C   0  0  0  0  0  2  0  0  0  0  0  0
  189.9920  178.3040  145.2830 C   0  0  0  0  0  1  0  0  0  0  0  0
  188.0480  177.1430  146.5450 C   0  0  2  0  0  0  0  0  0  0  0  0
  188.4810  178.1750  148.6820 O   0  0  0  0  0  1  0  0  0  0  0  0
  188.4200  178.4150  147.3070 C   0  0  1  0  0  3  0  0  0  0  0  0
  189.4920  177.6240  146.5480 C   0  0  2  0  0  0  0  0  0  0  0  0
  187.7880  176.0230  147.3410 O   0  0  0  0  0  1  0  0  0  0  0  0
  190.4850  176.7960  147.3620 C   0  0  0  0  0  2  0  0  0  0  0  0
  191.5360  176.2830  146.4980 N   0  0  0  0  0  1  0  0  0  0  0  0
  181.8310  177.4070  134.8490 S   0  0  0  0  0  0  0  0  0  0  0  0
  181.2040  178.0590  136.3290 O   0  0  0  0  0  0  0  0  0  0  0  0
  181.5500  179.9410  137.7460 C   0  0  0  0  0  0  0  0  0  0  0  0
  181.2470  179.4300  136.5520 C   0  0  0  0  0  3  0  0  0  0  0  0
  180.9720  178.9100  143.6280 N   0  0  0  0  0  1  0  0  0  0  0  0
  179.7210  180.8570  142.3390 O   0  0  0  0  0  1  0  0  0  0  0  0
  181.2010  179.1370  140.1250 N   0  0  0  0  0  0  0  0  0  0  0  0
  181.9020  179.0560  138.8760 C   0  0  0  0  0  0  0  0  0  0  0  0
  179.5340  179.6120  141.7330 C   0  0  2  0  0  3  0  0  0  0  0  0
  181.6610  178.4760  141.3300 C   0  0  0  0  0  2  0  0  0  0  0  0
  182.8350  178.2190  138.7380 O   0  0  0  0  0  0  0  0  0  0  0  0
  180.4990  178.5630  142.2980 C   0  0  1  0  0  3  0  0  0  0  0  0
  179.8870  179.7300  140.2630 C   0  0  0  0  0  2  0  0  0  0  0  0
  180.4760  182.1570  137.4030 O   0  0  0  0  0  0  0  0  0  0  0  0
  182.4450  181.9910  138.5560 O   0  0  0  0  0  1  0  0  0  0  0  0
  181.5220  181.4060  137.9270 C   0  0  0  0  0  0  0  0  0  0  0  0
  184.5110  172.4240  135.1800 C   0  0  2  0  0  3  0  0  0  0  0  0
  183.6480  172.4780  136.4380 C   0  0  1  0  0  3  0  0  0  0  0  0
  185.2850  172.9940  138.3770 N   0  0  0  0  0  2  0  0  0  0  0  0
  183.6670  171.2650  137.0760 O   0  0  0  0  0  0  0  0  0  0  0  0
  184.4580  172.4450  137.5520 C   0  0  0  0  0  0  0  0  0  0  0  0
  185.1990  171.0980  135.0200 C   0  0  0  0  0  0  0  0  0  0  0  0
  186.6750  171.0110  135.1910 C   0  0  0  0  0  1  0  0  0  0  0  0
  184.5610  170.0900  134.7620 O   0  0  0  0  0  0  0  0  0  0  0  0
  1 10  1  0  0  0  0
  1  9  1  0  0  0  0
  2  1  2  0  0  0  0
  3  9  1  0  0  0  0
  4  7  1  0  0  0  0
  4  3  2  0  0  0  0
  5 57  1  0  0  0  0
  5  2  1  0  0  0  0
  6  2  1  0  0  0  0
  6  8  1  0  0  0  0
  7  5  2  0  0  0  0
  8 41  1  6  0  0  0
  8 10  1  0  0  0  0
 11 14  1  0  0  0  0
 12  3  1  0  0  0  0
 12 11  1  0  0  0  0
 13 11  2  0  0  0  0
 14 15  2  0  0  0  0
 15 18  1  0  0  0  0
 16 17  3  0  0  0  0
 17 15  1  0  0  0  0
 18 23  1  0  0  0  0
 19 22  1  0  0  0  0
 20 21  1  0  0  0  0
 21 22  2  0  0  0  0
 23 19  2  0  0  0  0
 24 23  1  0  0  0  0
 24 20  2  0  0  0  0
 25 20  1  0  0  0  0
 25 26  1  0  0  0  0
 26 27  1  0  0  0  0
 27 28  1  0  0  0  0
 28 29  1  0  0  0  0
 29 32  1  0  0  0  0
 29 30  1  0  0  0  0
 31 30  1  0  0  0  0
 32 34  1  0  0  0  0
 34 37  1  0  0  0  0
 34 36  1  0  0  0  0
 34 38  1  1  0  0  0
 36 35  1  1  0  0  0
 37 33  1  6  0  0  0
 37 36  1  0  0  0  0
 37 39  1  0  0  0  0
 40 39  1  0  0  0  0
 41 42  1  0  0  0  0
 42 44  1  0  0  0  0
 43 56  1  0  0  0  0
 43 48  1  0  0  0  0
 44 43  2  0  0  0  0
 47 53  1  0  0  0  0
 47 50  1  0  0  0  0
 48 47  1  0  0  0  0
 49 52  1  0  0  0  0
 49 46  1  1  0  0  0
 50 52  1  0  0  0  0
 51 48  2  0  0  0  0
 52 45  1  1  0  0  0
 53 49  1  0  0  0  0
 54 56  2  0  0  0  0
 56 55  1  0  0  0  0
 57 62  1  1  0  0  0
 58 57  1  6  0  0  0
 58 60  1  0  0  0  0
 58 61  1  0  0  0  0
 60 61  1  0  0  0  0
 61 59  2  0  0  0  0
 62 63  1  0  0  0  0
 64 62  2  0  0  0  0
M  END
>  <MODEL>
8

>  <REMARK>
 VINA RESULT:      -4.7      2.887      9.315
  Name = 
  22 active torsions:
  status: ('A' for Active; 'I' for Inactive)
    1  A    between atoms: C_3  and  C_10
    2  A    between atoms: C_4  and  N_17
    3  A    between atoms: N_5  and  C_6
    4  A    between atoms: N_5  and  C_54
    5  A    between atoms: N_5  and  C_61
    6  A    between atoms: C_8  and  C_38
    7  A    between atoms: C_9  and  C_38
    8  A    between atoms: C_12  and  C_19
    9  A    between atoms: C_12  and  C_61
   10  A    between atoms: C_13  and  O_39
   11  A    between atoms: C_19  and  O_39
   12  A    between atoms: C_20  and  C_53
   13  A    between atoms: C_21  and  C_38
   14  A    between atoms: C_25  and  C_54
   15  A    between atoms: C_30  and  C_33
   16  A    between atoms: C_30  and  C_58
   17  A    between atoms: C_32  and  C_42
   18  A    between atoms: C_37  and  O_46
   19  A    between atoms: C_42  and  C_56
   20  A    between atoms: O_46  and  S_63
   21  A    between atoms: C_50  and  C_56
   22  A    between atoms: C_51  and  S_63
                            x       y       z     vdW  Elec       q    Type
                         _______ _______ _______ _____ _____    ______ ____

>  <TORSDO>
F 22

$$$$
=
 OpenBabel11032420183D

 64 69  0  0  1  0  0  0  0  0999 V2000
  188.6640  177.6770  138.8200 C   0  0  0  0  0  0  0  0  0  0  0  0
  188.8310  177.4190  140.1120 C   0  0  0  0  0  0  0  0  0  0  0  0
  190.3890  176.3570  137.6790 C   0  0  0  0  0  0  0  0  0  0  0  0
  190.9910  175.7460  138.7050 C   0  0  0  0  0  3  0  0  0  0  0  0
  190.1080  176.9840  140.7320 C   0  0  0  0  0  0  0  0  0  0  0  0
  187.6220  177.6780  140.9380 C   0  0  0  0  0  2  0  0  0  0  0  0
  191.0230  176.2220  140.1030 C   0  0  0  0  0  3  0  0  0  0  0  0
  186.7270  178.5900  140.1180 C   0  0  1  0  0  3  0  0  0  0  0  0
  189.7890  177.7120  137.8440 C   0  0  0  0  0  2  0  0  0  0  0  0
  187.0390  178.2410  138.3610 S   0  0  0  0  0  0  0  0  0  0  0  0
  189.4580  174.8540  135.7870 C   0  0  0  0  0  0  0  0  0  0  0  0
  190.3850  175.7870  136.3610 N   0  0  0  0  0  2  0  0  0  0  0  0
  189.6800  174.4360  134.6210 O   0  0  0  0  0  0  0  0  0  0  0  0
  188.2550  174.4060  136.5270 C   0  0  0  0  0  3  0  0  0  0  0  0
  186.9990  174.8390  136.3660 C   0  0  0  0  0  0  0  0  0  0  0  0
  186.3320  176.6370  134.6140 N   0  0  0  0  0  0  0  0  0  0  0  0
  186.6270  175.8350  135.3940 C   0  0  0  0  0  0  0  0  0  0  0  0
  185.9250  174.2440  137.2150 C   0  0  0  0  0  2  0  0  0  0  0  0
  186.1880  172.2230  135.7550 C   0  0  0  0  0  3  0  0  0  0  0  0
  183.5560  171.4270  136.3030 C   0  0  0  0  0  0  0  0  0  0  0  0
  184.3690  170.6550  135.4570 C   0  0  0  0  0  3  0  0  0  0  0  0
  185.6800  171.0530  135.1840 C   0  0  0  0  0  3  0  0  0  0  0  0
  185.3830  172.9980  136.5990 C   0  0  0  0  0  0  0  0  0  0  0  0
  184.0730  172.5940  136.8750 C   0  0  0  0  0  3  0  0  0  0  0  0
  182.2400  171.0600  136.5870 O   0  0  0  0  0  0  0  0  0  0  0  0
  181.1400  171.4390  135.7670 C   0  0  0  0  0  2  0  0  0  0  0  0
  181.2750  172.8980  135.3820 C   0  0  0  0  0  2  0  0  0  0  0  0
  179.8990  173.5570  135.3430 C   0  0  0  0  0  2  0  0  0  0  0  0
  179.7930  174.7200  136.2310 N   0  0  0  0  0  0  0  0  0  0  0  0
  179.3130  174.3270  137.5570 C   0  0  0  0  0  2  0  0  0  0  0  0
  180.3910  173.9630  138.3620 O   0  0  0  0  0  1  0  0  0  0  0  0
  181.0460  175.5000  136.2300 C   0  0  0  0  0  2  0  0  0  0  0  0
  182.9730  176.7790  138.0580 C   0  0  0  0  0  1  0  0  0  0  0  0
  180.9080  177.0090  136.5070 C   0  0  2  0  0  0  0  0  0  0  0  0
  181.5330  179.1400  135.5670 O   0  0  0  0  0  1  0  0  0  0  0  0
  182.0250  177.8890  135.9490 C   0  0  1  0  0  3  0  0  0  0  0  0
  181.8950  177.6690  137.4600 C   0  0  2  0  0  0  0  0  0  0  0  0
  179.6300  177.5750  136.4820 O   0  0  0  0  0  1  0  0  0  0  0  0
  181.3570  178.8180  138.3110 C   0  0  0  0  0  2  0  0  0  0  0  0
  182.4380  179.7180  138.6780 N   0  0  0  0  0  1  0  0  0  0  0  0
  184.9900  178.2740  140.5250 S   0  0  0  0  0  0  0  0  0  0  0  0
  185.1070  179.2010  141.9880 O   0  0  0  0  0  0  0  0  0  0  0  0
  184.5680  178.8140  144.2740 C   0  0  0  0  0  0  0  0  0  0  0  0
  185.3140  178.5520  143.2000 C   0  0  0  0  0  3  0  0  0  0  0  0
  179.0130  179.8520  142.2590 N   0  0  0  0  0  1  0  0  0  0  0  0
  180.2660  177.5310  142.0110 O   0  0  0  0  0  1  0  0  0  0  0  0
  182.1400  179.3620  143.7960 N   0  0  0  0  0  0  0  0  0  0  0  0
  183.4510  179.7790  144.2000 C   0  0  0  0  0  0  0  0  0  0  0  0
  180.2660  177.9970  143.3290 C   0  0  2  0  0  3  0  0  0  0  0  0
  181.0820  180.2970  143.4700 C   0  0  0  0  0  2  0  0  0  0  0  0
  183.6590  180.9870  144.4930 O   0  0  0  0  0  0  0  0  0  0  0  0
  179.8190  179.4630  143.4040 C   0  0  1  0  0  3  0  0  0  0  0  0
  181.6910  177.9850  143.8460 C   0  0  0  0  0  2  0  0  0  0  0  0
  185.8220  177.1090  145.5800 O   0  0  0  0  0  0  0  0  0  0  0  0
  184.2920  178.4610  146.6110 O   0  0  0  0  0  1  0  0  0  0  0  0
  184.8790  178.1300  145.5450 C   0  0  0  0  0  0  0  0  0  0  0  0
  190.3290  177.3350  142.1810 C   0  0  2  0  0  3  0  0  0  0  0  0
  191.7810  177.6950  142.4830 C   0  0  1  0  0  3  0  0  0  0  0  0
  192.0030  177.5640  145.0600 N   0  0  0  0  0  2  0  0  0  0  0  0
  191.8830  179.0260  142.7910 O   0  0  0  0  0  0  0  0  0  0  0  0
  191.9200  177.9490  143.8310 C   0  0  0  0  0  0  0  0  0  0  0  0
  189.7990  176.2820  143.1130 C   0  0  0  0  0  0  0  0  0  0  0  0
  188.4990  176.5000  143.8030 C   0  0  0  0  0  1  0  0  0  0  0  0
  190.4180  175.2470  143.3040 O   0  0  0  0  0  0  0  0  0  0  0  0
  1  2  2  0  0  0  0
  2  5  1  0  0  0  0
  2  6  1  0  0  0  0
  3  9  1  0  0  0  0
  3  4  2  0  0  0  0
  4  7  1  0  0  0  0
  5 57  1  0  0  0  0
  7  5  2  0  0  0  0
  8 41  1  1  0  0  0
  8  6  1  0  0  0  0
  9  1  1  0  0  0  0
 10  1  1  0  0  0  0
 10  8  1  0  0  0  0
 11 12  1  0  0  0  0
 11 14  1  0  0  0  0
 12  3  1  0  0  0  0
 13 11  2  0  0  0  0
 15 14  2  0  0  0  0
 15 18  1  0  0  0  0
 16 17  3  0  0  0  0
 17 15  1  0  0  0  0
 19 23  1  0  0  0  0
 20 25  1  0  0  0  0
 20 24  1  0  0  0  0
 21 20  2  0  0  0  0
 22 21  1  0  0  0  0
 22 19  2  0  0  0  0
 23 24  2  0  0  0  0
 23 18  1  0  0  0  0
 26 25  1  0  0  0  0
 27 26  1  0  0  0  0
 28 27  1  0  0  0  0
 28 29  1  0  0  0  0
 29 30  1  0  0  0  0
 30 31  1  0  0  0  0
 32 29  1  0  0  0  0
 32 34  1  0  0  0  0
 34 38  1  6  0  0  0
 34 37  1  0  0  0  0
 36 35  1  1  0  0  0
 36 34  1  0  0  0  0
 36 37  1  0  0  0  0
 37 33  1  1  0  0  0
 37 39  1  0  0  0  0
 39 40  1  0  0  0  0
 41 42  1  0  0  0  0
 42 44  1  0  0  0  0
 43 56  1  0  0  0  0
 44 43  2  0  0  0  0
 47 53  1  0  0  0  0
 47 48  1  0  0  0  0
 48 43  1  0  0  0  0
 48 51  2  0  0  0  0
 49 46  1  6  0  0  0
 49 52  1  0  0  0  0
 49 53  1  0  0  0  0
 50 47  1  0  0  0  0
 52 45  1  6  0  0  0
 52 50  1  0  0  0  0
 56 54  2  0  0  0  0
 56 55  1  0  0  0  0
 57 62  1  1  0  0  0
 58 57  1  1  0  0  0
 58 60  1  0  0  0  0
 58 61  1  0  0  0  0
 60 61  1  0  0  0  0
 61 59  2  0  0  0  0
 62 64  2  0  0  0  0
 62 63  1  0  0  0  0
M  END
>  <MODEL>
9

>  <REMARK>
 VINA RESULT:      -4.6      2.963     10.802
  Name = 
  22 active torsions:
  status: ('A' for Active; 'I' for Inactive)
    1  A    between atoms: C_3  and  C_10
    2  A    between atoms: C_4  and  N_17
    3  A    between atoms: N_5  and  C_6
    4  A    between atoms: N_5  and  C_54
    5  A    between atoms: N_5  and  C_61
    6  A    between atoms: C_8  and  C_38
    7  A    between atoms: C_9  and  C_38
    8  A    between atoms: C_12  and  C_19
    9  A    between atoms: C_12  and  C_61
   10  A    between atoms: C_13  and  O_39
   11  A    between atoms: C_19  and  O_39
   12  A    between atoms: C_20  and  C_53
   13  A    between atoms: C_21  and  C_38
   14  A    between atoms: C_25  and  C_54
   15  A    between atoms: C_30  and  C_33
   16  A    between atoms: C_30  and  C_58
   17  A    between atoms: C_32  and  C_42
   18  A    between atoms: C_37  and  O_46
   19  A    between atoms: C_42  and  C_56
   20  A    between atoms: O_46  and  S_63
   21  A    between atoms: C_50  and  C_56
   22  A    between atoms: C_51  and  S_63
                            x       y       z     vdW  Elec       q    Type
                         _______ _______ _______ _____ _____    ______ ____

>  <TORSDO>
F 22

$$$$
