=
 OpenBabel11042411293D

 55 59  0  0  1  0  0  0  0  0999 V2000
  186.4170  178.3240  140.9140 C   0  0  0  0  0  0  0  0  0  0  0  0
  184.9040  179.4020  139.3540 C   0  0  0  0  0  0  0  0  0  0  0  0
  185.6580  178.9480  138.3180 N   0  0  0  0  0  0  0  0  0  0  0  0
  185.2690  179.0920  140.6640 C   0  0  0  0  0  3  0  0  0  0  0  0
  186.7870  178.2210  138.5240 C   0  0  0  0  0  3  0  0  0  0  0  0
  187.2060  177.9080  139.8180 C   0  0  0  0  0  0  0  0  0  0  0  0
  189.2680  178.4380  138.0730 O   0  0  0  0  0  1  0  0  0  0  0  0
  191.2340  177.9480  142.0700 C   0  0  0  0  0  2  0  0  0  0  0  0
  190.4310  177.6470  141.0640 C   0  0  0  0  0  0  0  0  0  0  0  0
  189.0910  177.3820  141.2210 O   0  0  0  0  0  0  0  0  0  0  0  0
  190.8610  177.6100  139.6510 C   0  0  0  0  0  2  0  0  0  0  0  0
  188.4760  177.1110  139.9740 C   0  0  2  0  0  3  0  0  0  0  0  0
  189.5630  177.3340  138.8810 C   0  0  1  0  0  0  0  0  0  0  0  0
  188.5770  175.8550  137.1050 C   0  0  0  0  0  3  0  0  0  0  0  0
  189.7480  176.0800  138.0060 C   0  0  1  0  0  3  0  0  0  0  0  0
  190.9210  176.2680  137.0390 C   0  0  2  0  0  3  0  0  0  0  0  0
  188.9180  175.8550  135.8250 C   0  0  0  0  0  3  0  0  0  0  0  0
  190.3780  176.0670  135.6290 C   0  0  0  0  0  2  0  0  0  0  0  0
  193.3920  175.8450  137.5220 C   0  0  0  0  0  0  0  0  0  0  0  0
  193.7010  177.0260  137.2120 O   0  0  0  0  0  0  0  0  0  0  0  0
  192.0400  175.3730  137.3470 N   0  0  0  0  0  0  0  0  0  0  0  0
  191.7640  173.9400  137.3650 C   0  0  0  0  0  2  0  0  0  0  0  0
  192.1000  173.3160  136.0190 C   0  0  0  0  0  1  0  0  0  0  0  0
  194.4410  174.9440  138.0920 C   0  0  0  0  0  2  0  0  0  0  0  0
  195.3900  174.5570  137.0510 N   0  0  0  0  0  2  0  0  0  0  0  0
  196.6040  174.1850  139.0210 O   0  0  0  0  0  1  0  0  0  0  0  0
  196.7170  174.3040  137.6320 C   0  0  1  0  0  0  0  0  0  0  0  0
  197.2550  173.0010  137.1040 C   0  0  0  0  0  3  0  0  0  0  0  0
  198.5330  172.6440  137.2400 C   0  0  0  0  0  2  0  0  0  0  0  0
  197.4220  176.1470  136.4230 O   0  0  0  0  0  0  0  0  0  0  0  0
  197.6300  175.3900  137.3280 N   0  0  0  0  0  0  0  0  0  0  0  0
  182.6890  179.6840  138.6090 N   0  0  0  0  0  0  0  0  0  0  0  0
  183.7390  180.1910  139.1150 N   0  0  0  0  0  0  0  0  0  0  0  0
  181.5110  180.5050  138.3550 C   0  0  1  0  0  3  0  0  0  0  0  0
  180.3680  180.1140  139.2430 C   0  0  0  0  0  0  0  0  0  0  0  0
  180.5700  179.4830  140.3150 O   0  0  0  0  0  1  0  0  0  0  0  0
  179.0830  180.5460  138.9300 O   0  0  0  0  0  0  0  0  0  0  0  0
  181.8280  182.0040  138.4500 C   0  0  0  0  0  2  0  0  0  0  0  0
  180.1990  182.9070  135.1370 C   0  0  0  0  0  3  0  0  0  0  0  0
  180.3720  184.2950  135.1190 C   0  0  0  0  0  3  0  0  0  0  0  0
  181.0280  184.9350  136.1770 C   0  0  0  0  0  3  0  0  0  0  0  0
  180.6870  182.1550  136.2080 C   0  0  0  0  0  3  0  0  0  0  0  0
  181.3480  182.7910  137.2670 C   0  0  0  0  0  0  0  0  0  0  0  0
  181.5140  184.1830  137.2500 C   0  0  0  0  0  3  0  0  0  0  0  0
  186.8040  177.9880  142.2230 O   0  0  0  0  0  0  0  0  0  0  0  0
  186.4380  177.3190  144.5610 N   0  0  0  0  0  2  0  0  0  0  0  0
  184.7150  178.1020  143.2250 O   0  0  0  0  0  0  0  0  0  0  0  0
  185.9430  177.8400  143.3230 C   0  0  0  0  0  0  0  0  0  0  0  0
  188.6930  176.5420  144.1900 N   0  0  0  0  0  0  0  0  0  0  0  0
  191.8560  176.9490  145.9460 N   0  0  0  0  0  1  0  0  0  0  0  0
  189.9840  176.4470  144.5190 N   0  0  0  0  0  0  0  0  0  0  0  0
  189.6170  177.7720  146.4550 C   0  0  0  0  0  3  0  0  0  0  0  0
  187.8160  177.2570  144.9450 C   0  0  0  0  0  0  0  0  0  0  0  0
  190.4750  177.0540  145.6280 C   0  0  0  0  0  0  0  0  0  0  0  0
  188.2720  177.8720  146.1110 C   0  0  0  0  0  3  0  0  0  0  0  0
  1 45  1  0  0  0  0
  2  4  1  0  0  0  0
  3  5  1  0  0  0  0
  3  2  2  0  0  0  0
  4  1  2  0  0  0  0
  5  6  2  0  0  0  0
  6  1  1  0  0  0  0
  9 10  1  0  0  0  0
  9  8  2  0  0  0  0
 11  9  1  0  0  0  0
 12  6  1  6  0  0  0
 12 10  1  0  0  0  0
 13  7  1  6  0  0  0
 13 11  1  0  0  0  0
 13 12  1  0  0  0  0
 15 14  1  6  0  0  0
 15 13  1  0  0  0  0
 16 21  1  1  0  0  0
 16 15  1  0  0  0  0
 17 14  2  0  0  0  0
 18 17  1  0  0  0  0
 18 16  1  0  0  0  0
 19 24  1  0  0  0  0
 20 19  2  0  0  0  0
 21 22  1  0  0  0  0
 21 19  1  0  0  0  0
 23 22  1  0  0  0  0
 25 27  1  0  0  0  0
 25 24  1  0  0  0  0
 27 26  1  1  0  0  0
 28 29  2  0  0  0  0
 28 27  1  0  0  0  0
 30 31  2  0  0  0  0
 31 27  1  0  0  0  0
 32 33  2  0  0  0  0
 33  2  1  0  0  0  0
 34 38  1  1  0  0  0
 34 32  1  0  0  0  0
 34 35  1  0  0  0  0
 35 36  1  0  0  0  0
 37 35  2  0  0  0  0
 39 42  1  0  0  0  0
 40 39  2  0  0  0  0
 40 41  1  0  0  0  0
 41 44  2  0  0  0  0
 42 43  2  0  0  0  0
 43 38  1  0  0  0  0
 44 43  1  0  0  0  0
 45 48  1  0  0  0  0
 46 53  1  0  0  0  0
 47 48  2  0  0  0  0
 48 46  1  0  0  0  0
 49 51  1  0  0  0  0
 49 53  2  0  0  0  0
 51 54  2  0  0  0  0
 53 55  1  0  0  0  0
 54 50  1  0  0  0  0
 54 52  1  0  0  0  0
 55 52  2  0  0  0  0
M  END
>  <MODEL>
1

>  <REMARK>
 VINA RESULT:      -8.3      0.000      0.000
  Name = 
  17 active torsions:
  status: ('A' for Active; 'I' for Inactive)
    1  A    between atoms: C_1  and  C_31
    2  A    between atoms: C_2  and  C_8
    3  A    between atoms: C_7  and  O_9
    4  A    between atoms: C_8  and  N_13
    5  A    between atoms: C_8  and  C_30
    6  A    between atoms: O_9  and  C_51
    7  A    between atoms: C_10  and  C_23
    8  A    between atoms: C_12  and  C_50
    9  A    between atoms: C_14  and  N_40
   10  A    between atoms: C_17  and  N_52
   11  A    between atoms: N_18  and  C_42
   12  A    between atoms: C_23  and  N_33
   13  A    between atoms: C_30  and  C_37
   14  A    between atoms: C_31  and  N_33
   15  A    between atoms: C_31  and  N_43
   16  A    between atoms: C_34  and  N_52
   17  A    between atoms: C_45  and  C_47
                            x       y       z     vdW  Elec       q    Type
                         _______ _______ _______ _____ _____    ______ ____

>  <TORSDO>
F 17

$$$$
=
 OpenBabel11042411293D

 55 59  0  0  1  0  0  0  0  0999 V2000
  183.4990  178.4680  141.2980 C   0  0  0  0  0  0  0  0  0  0  0  0
  185.3770  178.1430  142.7980 C   0  0  0  0  0  0  0  0  0  0  0  0
  186.2220  178.1620  141.7340 N   0  0  0  0  0  0  0  0  0  0  0  0
  184.0060  178.3010  142.5970 C   0  0  0  0  0  3  0  0  0  0  0  0
  185.7640  178.2990  140.4620 C   0  0  0  0  0  3  0  0  0  0  0  0
  184.3980  178.4340  140.2090 C   0  0  0  0  0  0  0  0  0  0  0  0
  182.6290  176.5610  139.2390 O   0  0  0  0  0  1  0  0  0  0  0  0
  181.1860  180.4740  137.5970 C   0  0  0  0  0  2  0  0  0  0  0  0
  182.0590  179.5270  137.8950 C   0  0  0  0  0  0  0  0  0  0  0  0
  183.2280  179.7650  138.5790 O   0  0  0  0  0  0  0  0  0  0  0  0
  181.8620  178.0970  137.5760 C   0  0  0  0  0  2  0  0  0  0  0  0
  183.9570  178.5670  138.7730 C   0  0  2  0  0  3  0  0  0  0  0  0
  183.0740  177.4100  138.2190 C   0  0  1  0  0  0  0  0  0  0  0  0
  182.9910  176.3860  135.9250 C   0  0  0  0  0  3  0  0  0  0  0  0
  183.8230  176.5920  137.1490 C   0  0  1  0  0  3  0  0  0  0  0  0
  185.0410  177.3670  136.6350 C   0  0  2  0  0  3  0  0  0  0  0  0
  183.5610  176.8830  134.8380 C   0  0  0  0  0  3  0  0  0  0  0  0
  184.8820  177.5040  135.1250 C   0  0  0  0  0  2  0  0  0  0  0  0
  187.3850  177.4500  137.6430 C   0  0  0  0  0  0  0  0  0  0  0  0
  187.3660  178.7080  137.6990 O   0  0  0  0  0  0  0  0  0  0  0  0
  186.3030  176.7300  137.0160 N   0  0  0  0  0  0  0  0  0  0  0  0
  186.4870  175.3310  136.6380 C   0  0  0  0  0  2  0  0  0  0  0  0
  185.6180  174.4280  137.5000 C   0  0  0  0  0  1  0  0  0  0  0  0
  188.5360  176.7130  138.2490 C   0  0  0  0  0  2  0  0  0  0  0  0
  189.3890  177.6360  138.9930 N   0  0  0  0  0  2  0  0  0  0  0  0
  191.6170  177.7560  139.7090 O   0  0  0  0  0  1  0  0  0  0  0  0
  190.5040  176.9130  139.6230 C   0  0  1  0  0  0  0  0  0  0  0  0
  190.1200  176.5200  141.0230 C   0  0  0  0  0  3  0  0  0  0  0  0
  190.7370  177.0040  142.1010 C   0  0  0  0  0  2  0  0  0  0  0  0
  191.8580  175.7150  138.1790 O   0  0  0  0  0  0  0  0  0  0  0  0
  190.8640  175.7410  138.8470 N   0  0  0  0  0  0  0  0  0  0  0  0
  186.2620  178.9550  144.8220 N   0  0  0  0  0  0  0  0  0  0  0  0
  185.8790  177.9660  144.1230 N   0  0  0  0  0  0  0  0  0  0  0  0
  186.7870  178.7600  146.1680 C   0  0  1  0  0  3  0  0  0  0  0  0
  185.7800  179.1410  147.2120 C   0  0  0  0  0  0  0  0  0  0  0  0
  186.0150  180.0760  148.0230 O   0  0  0  0  0  1  0  0  0  0  0  0
  184.5340  178.5250  147.2130 O   0  0  0  0  0  0  0  0  0  0  0  0
  187.3170  177.3330  146.3730 C   0  0  0  0  0  2  0  0  0  0  0  0
  190.8780  176.4250  147.3440 C   0  0  0  0  0  3  0  0  0  0  0  0
  191.6020  177.0180  146.3040 C   0  0  0  0  0  3  0  0  0  0  0  0
  190.9330  177.7220  145.2960 C   0  0  0  0  0  3  0  0  0  0  0  0
  189.4860  176.5400  147.3820 C   0  0  0  0  0  3  0  0  0  0  0  0
  188.8140  177.2480  146.3760 C   0  0  0  0  0  0  0  0  0  0  0  0
  189.5410  177.8350  145.3320 C   0  0  0  0  0  3  0  0  0  0  0  0
  182.1220  178.6380  141.0650 O   0  0  0  0  0  0  0  0  0  0  0  0
  179.8830  178.0000  141.8560 N   0  0  0  0  0  2  0  0  0  0  0  0
  181.2680  179.3910  143.0860 O   0  0  0  0  0  0  0  0  0  0  0  0
  181.1220  178.6910  142.0500 C   0  0  0  0  0  0  0  0  0  0  0  0
  179.2410  177.2370  139.6580 N   0  0  0  0  0  0  0  0  0  0  0  0
  178.9310  173.9700  138.0790 N   0  0  0  0  0  1  0  0  0  0  0  0
  179.0090  176.2790  138.7560 N   0  0  0  0  0  0  0  0  0  0  0  0
  179.5670  174.6060  140.3460 C   0  0  0  0  0  3  0  0  0  0  0  0
  179.6590  176.9410  140.9190 C   0  0  0  0  0  0  0  0  0  0  0  0
  179.1710  174.9680  139.0620 C   0  0  0  0  0  0  0  0  0  0  0  0
  179.8100  175.6040  141.2860 C   0  0  0  0  0  3  0  0  0  0  0  0
  1  4  2  0  0  0  0
  2 33  1  0  0  0  0
  3  2  2  0  0  0  0
  4  2  1  0  0  0  0
  5  3  1  0  0  0  0
  6  5  2  0  0  0  0
  6  1  1  0  0  0  0
  8  9  2  0  0  0  0
  9 10  1  0  0  0  0
 10 12  1  0  0  0  0
 11  9  1  0  0  0  0
 11 13  1  0  0  0  0
 12  6  1  1  0  0  0
 13 12  1  0  0  0  0
 13  7  1  1  0  0  0
 15 14  1  6  0  0  0
 15 13  1  0  0  0  0
 16 21  1  6  0  0  0
 16 15  1  0  0  0  0
 17 18  1  0  0  0  0
 17 14  2  0  0  0  0
 18 16  1  0  0  0  0
 19 20  2  0  0  0  0
 19 24  1  0  0  0  0
 21 19  1  0  0  0  0
 22 21  1  0  0  0  0
 22 23  1  0  0  0  0
 24 25  1  0  0  0  0
 25 27  1  0  0  0  0
 27 26  1  1  0  0  0
 27 28  1  0  0  0  0
 28 29  2  0  0  0  0
 30 31  2  0  0  0  0
 31 27  1  0  0  0  0
 32 34  1  0  0  0  0
 33 32  2  0  0  0  0
 34 38  1  1  0  0  0
 34 35  1  0  0  0  0
 35 37  2  0  0  0  0
 35 36  1  0  0  0  0
 38 43  1  0  0  0  0
 39 42  1  0  0  0  0
 40 39  2  0  0  0  0
 41 44  2  0  0  0  0
 41 40  1  0  0  0  0
 43 42  2  0  0  0  0
 44 43  1  0  0  0  0
 45  1  1  0  0  0  0
 45 48  1  0  0  0  0
 46 48  1  0  0  0  0
 48 47  2  0  0  0  0
 49 53  2  0  0  0  0
 50 54  1  0  0  0  0
 51 54  2  0  0  0  0
 51 49  1  0  0  0  0
 52 55  2  0  0  0  0
 53 55  1  0  0  0  0
 53 46  1  0  0  0  0
 54 52  1  0  0  0  0
M  END
>  <MODEL>
2

>  <REMARK>
 VINA RESULT:      -8.3      3.674      8.974
  Name = 
  17 active torsions:
  status: ('A' for Active; 'I' for Inactive)
    1  A    between atoms: C_1  and  C_31
    2  A    between atoms: C_2  and  C_8
    3  A    between atoms: C_7  and  O_9
    4  A    between atoms: C_8  and  N_13
    5  A    between atoms: C_8  and  C_30
    6  A    between atoms: O_9  and  C_51
    7  A    between atoms: C_10  and  C_23
    8  A    between atoms: C_12  and  C_50
    9  A    between atoms: C_14  and  N_40
   10  A    between atoms: C_17  and  N_52
   11  A    between atoms: N_18  and  C_42
   12  A    between atoms: C_23  and  N_33
   13  A    between atoms: C_30  and  C_37
   14  A    between atoms: C_31  and  N_33
   15  A    between atoms: C_31  and  N_43
   16  A    between atoms: C_34  and  N_52
   17  A    between atoms: C_45  and  C_47
                            x       y       z     vdW  Elec       q    Type
                         _______ _______ _______ _____ _____    ______ ____

>  <TORSDO>
F 17

$$$$
=
 OpenBabel11042411293D

 55 59  0  0  1  0  0  0  0  0999 V2000
  186.1410  178.4600  140.2690 C   0  0  0  0  0  0  0  0  0  0  0  0
  184.2960  179.3820  138.9930 C   0  0  0  0  0  0  0  0  0  0  0  0
  184.8560  178.9080  137.8500 N   0  0  0  0  0  0  0  0  0  0  0  0
  184.9260  179.1600  140.2180 C   0  0  0  0  0  3  0  0  0  0  0  0
  186.0430  178.2460  137.8590 C   0  0  0  0  0  3  0  0  0  0  0  0
  186.7230  178.0230  139.0570 C   0  0  0  0  0  0  0  0  0  0  0  0
  188.6680  179.0480  137.4010 O   0  0  0  0  0  1  0  0  0  0  0  0
  190.8430  177.8360  141.1280 C   0  0  0  0  0  2  0  0  0  0  0  0
  190.0120  177.7080  140.1080 C   0  0  0  0  0  0  0  0  0  0  0  0
  188.6980  177.3290  140.2480 O   0  0  0  0  0  0  0  0  0  0  0  0
  190.3780  178.0040  138.7070 C   0  0  0  0  0  2  0  0  0  0  0  0
  188.0420  177.2940  138.9940 C   0  0  2  0  0  3  0  0  0  0  0  0
  189.0620  177.8160  137.9400 C   0  0  1  0  0  0  0  0  0  0  0  0
  190.6990  176.3520  136.7190 C   0  0  0  0  0  3  0  0  0  0  0  0
  189.2750  176.7950  136.8070 C   0  0  1  0  0  3  0  0  0  0  0  0
  188.5090  175.5010  137.0990 C   0  0  2  0  0  3  0  0  0  0  0  0
  190.8320  175.0440  136.8790 C   0  0  0  0  0  3  0  0  0  0  0  0
  189.5260  174.3650  137.0910 C   0  0  0  0  0  2  0  0  0  0  0  0
  186.2170  174.5510  136.5000 C   0  0  0  0  0  0  0  0  0  0  0  0
  186.1610  173.8880  137.5690 O   0  0  0  0  0  0  0  0  0  0  0  0
  187.4110  175.2830  136.1550 N   0  0  0  0  0  0  0  0  0  0  0  0
  187.6060  175.7460  134.7840 C   0  0  0  0  0  2  0  0  0  0  0  0
  187.0190  177.1380  134.6030 C   0  0  0  0  0  1  0  0  0  0  0  0
  185.0220  174.5820  135.6010 C   0  0  0  0  0  2  0  0  0  0  0  0
  183.8060  174.3310  136.3710 N   0  0  0  0  0  2  0  0  0  0  0  0
  181.5920  174.7420  135.7210 O   0  0  0  0  0  1  0  0  0  0  0  0
  182.7940  175.3590  136.0850 C   0  0  1  0  0  0  0  0  0  0  0  0
  182.5340  176.1670  137.3260 C   0  0  0  0  0  3  0  0  0  0  0  0
  183.0370  175.8380  138.5170 C   0  0  0  0  0  2  0  0  0  0  0  0
  183.4390  177.3850  135.1730 O   0  0  0  0  0  0  0  0  0  0  0  0
  183.2240  176.2200  134.9990 N   0  0  0  0  0  0  0  0  0  0  0  0
  182.0620  179.6660  138.3080 N   0  0  0  0  0  0  0  0  0  0  0  0
  183.0640  180.1030  138.9560 N   0  0  0  0  0  0  0  0  0  0  0  0
  180.8140  180.4200  138.2650 C   0  0  1  0  0  3  0  0  0  0  0  0
  179.7800  179.8240  139.1720 C   0  0  0  0  0  0  0  0  0  0  0  0
  179.7330  178.5800  139.3670 O   0  0  0  0  0  0  0  0  0  0  0  0
  178.9330  180.6660  139.8860 O   0  0  0  0  0  1  0  0  0  0  0  0
  181.0390  181.9130  138.5480 C   0  0  0  0  0  2  0  0  0  0  0  0
  180.3490  183.0610  134.9910 C   0  0  0  0  0  3  0  0  0  0  0  0
  180.6480  184.4250  135.0840 C   0  0  0  0  0  3  0  0  0  0  0  0
  181.0850  184.9670  136.2980 C   0  0  0  0  0  3  0  0  0  0  0  0
  180.4930  182.2350  136.1100 C   0  0  0  0  0  3  0  0  0  0  0  0
  180.9330  182.7740  137.3250 C   0  0  0  0  0  0  0  0  0  0  0  0
  181.2260  184.1420  137.4180 C   0  0  0  0  0  3  0  0  0  0  0  0
  186.7950  178.2130  141.4890 O   0  0  0  0  0  0  0  0  0  0  0  0
  186.7770  177.4640  143.8310 N   0  0  0  0  0  2  0  0  0  0  0  0
  185.1060  178.8120  142.9610 O   0  0  0  0  0  0  0  0  0  0  0  0
  186.1940  178.2110  142.7580 C   0  0  0  0  0  0  0  0  0  0  0  0
  188.4850  175.9140  143.1200 N   0  0  0  0  0  0  0  0  0  0  0  0
  192.0090  175.4560  143.9150 N   0  0  0  0  0  1  0  0  0  0  0  0
  189.7300  175.4290  143.1400 N   0  0  0  0  0  0  0  0  0  0  0  0
  190.3700  177.0620  144.7410 C   0  0  0  0  0  3  0  0  0  0  0  0
  188.1260  176.9870  143.8750 C   0  0  0  0  0  0  0  0  0  0  0  0
  190.6890  175.9830  143.9230 C   0  0  0  0  0  0  0  0  0  0  0  0
  189.0730  177.5680  144.7190 C   0  0  0  0  0  3  0  0  0  0  0  0
  1 45  1  0  0  0  0
  2  4  1  0  0  0  0
  3  5  1  0  0  0  0
  3  2  2  0  0  0  0
  4  1  2  0  0  0  0
  5  6  2  0  0  0  0
  6  1  1  0  0  0  0
  9 10  1  0  0  0  0
  9  8  2  0  0  0  0
 11  9  1  0  0  0  0
 12  6  1  1  0  0  0
 12 10  1  0  0  0  0
 13  7  1  6  0  0  0
 13 11  1  0  0  0  0
 13 12  1  0  0  0  0
 14 17  2  0  0  0  0
 15 14  1  1  0  0  0
 15 16  1  0  0  0  0
 15 13  1  0  0  0  0
 16 21  1  6  0  0  0
 17 18  1  0  0  0  0
 18 16  1  0  0  0  0
 19 20  2  0  0  0  0
 21 19  1  0  0  0  0
 22 21  1  0  0  0  0
 23 22  1  0  0  0  0
 24 25  1  0  0  0  0
 24 19  1  0  0  0  0
 27 26  1  6  0  0  0
 27 25  1  0  0  0  0
 27 28  1  0  0  0  0
 28 29  2  0  0  0  0
 31 30  2  0  0  0  0
 31 27  1  0  0  0  0
 32 33  2  0  0  0  0
 33  2  1  0  0  0  0
 34 32  1  0  0  0  0
 34 38  1  1  0  0  0
 34 35  1  0  0  0  0
 35 36  2  0  0  0  0
 35 37  1  0  0  0  0
 39 40  2  0  0  0  0
 39 42  1  0  0  0  0
 40 41  1  0  0  0  0
 41 44  2  0  0  0  0
 42 43  2  0  0  0  0
 43 44  1  0  0  0  0
 43 38  1  0  0  0  0
 45 48  1  0  0  0  0
 46 53  1  0  0  0  0
 48 47  2  0  0  0  0
 48 46  1  0  0  0  0
 49 51  1  0  0  0  0
 49 53  2  0  0  0  0
 50 54  1  0  0  0  0
 51 54  2  0  0  0  0
 53 55  1  0  0  0  0
 54 52  1  0  0  0  0
 55 52  2  0  0  0  0
M  END
>  <MODEL>
3

>  <REMARK>
 VINA RESULT:      -7.9      3.210      5.779
  Name = 
  17 active torsions:
  status: ('A' for Active; 'I' for Inactive)
    1  A    between atoms: C_1  and  C_31
    2  A    between atoms: C_2  and  C_8
    3  A    between atoms: C_7  and  O_9
    4  A    between atoms: C_8  and  N_13
    5  A    between atoms: C_8  and  C_30
    6  A    between atoms: O_9  and  C_51
    7  A    between atoms: C_10  and  C_23
    8  A    between atoms: C_12  and  C_50
    9  A    between atoms: C_14  and  N_40
   10  A    between atoms: C_17  and  N_52
   11  A    between atoms: N_18  and  C_42
   12  A    between atoms: C_23  and  N_33
   13  A    between atoms: C_30  and  C_37
   14  A    between atoms: C_31  and  N_33
   15  A    between atoms: C_31  and  N_43
   16  A    between atoms: C_34  and  N_52
   17  A    between atoms: C_45  and  C_47
                            x       y       z     vdW  Elec       q    Type
                         _______ _______ _______ _____ _____    ______ ____

>  <TORSDO>
F 17

$$$$
=
 OpenBabel11042411293D

 55 59  0  0  1  0  0  0  0  0999 V2000
  188.0470  177.5610  139.2380 C   0  0  0  0  0  0  0  0  0  0  0  0
  188.3460  177.9320  141.6160 C   0  0  0  0  0  0  0  0  0  0  0  0
  189.6720  177.6660  141.4850 N   0  0  0  0  0  0  0  0  0  0  0  0
  187.5160  177.8890  140.4950 C   0  0  0  0  0  3  0  0  0  0  0  0
  190.2150  177.3240  140.2880 C   0  0  0  0  0  3  0  0  0  0  0  0
  189.4210  177.2420  139.1430 C   0  0  0  0  0  0  0  0  0  0  0  0
  188.4670  175.0030  137.8580 O   0  0  0  0  0  1  0  0  0  0  0  0
  189.2000  177.9860  134.5940 C   0  0  0  0  0  2  0  0  0  0  0  0
  189.4680  177.2760  135.6770 C   0  0  0  0  0  0  0  0  0  0  0  0
  189.8960  177.8340  136.8580 O   0  0  0  0  0  0  0  0  0  0  0  0
  189.2920  175.8120  135.7640 C   0  0  0  0  0  2  0  0  0  0  0  0
  190.0860  176.8420  137.8510 C   0  0  2  0  0  3  0  0  0  0  0  0
  189.6190  175.4930  137.2300 C   0  0  1  0  0  0  0  0  0  0  0  0
  190.2540  173.0970  136.8150 C   0  0  0  0  0  3  0  0  0  0  0  0
  190.7340  174.4320  137.2830 C   0  0  1  0  0  3  0  0  0  0  0  0
  191.8550  174.7810  136.2990 C   0  0  2  0  0  3  0  0  0  0  0  0
  190.9390  172.6500  135.7740 C   0  0  0  0  0  3  0  0  0  0  0  0
  192.0120  173.5930  135.3570 C   0  0  0  0  0  2  0  0  0  0  0  0
  194.0550  174.1400  137.4250 C   0  0  0  0  0  0  0  0  0  0  0  0
  193.7510  172.9180  137.4250 O   0  0  0  0  0  0  0  0  0  0  0  0
  193.1030  175.1290  136.9820 N   0  0  0  0  0  0  0  0  0  0  0  0
  193.3150  176.5360  137.3110 C   0  0  0  0  0  2  0  0  0  0  0  0
  193.4450  176.7170  138.8160 C   0  0  0  0  0  1  0  0  0  0  0  0
  195.4220  174.5500  137.8730 C   0  0  0  0  0  2  0  0  0  0  0  0
  196.4230  174.1000  136.9090 N   0  0  0  0  0  2  0  0  0  0  0  0
  197.7450  175.3750  138.3660 O   0  0  0  0  0  1  0  0  0  0  0  0
  197.6680  174.8670  137.0650 C   0  0  1  0  0  0  0  0  0  0  0  0
  198.8470  173.9560  136.8600 C   0  0  0  0  0  3  0  0  0  0  0  0
  198.7410  172.6270  136.8810 C   0  0  0  0  0  2  0  0  0  0  0  0
  197.2140  175.8960  135.0430 O   0  0  0  0  0  0  0  0  0  0  0  0
  197.7140  175.9750  136.1290 N   0  0  0  0  0  0  0  0  0  0  0  0
  186.5740  178.0130  143.1640 N   0  0  0  0  0  0  0  0  0  0  0  0
  187.7900  178.2580  142.8900 N   0  0  0  0  0  0  0  0  0  0  0  0
  186.0150  178.3660  144.4630 C   0  0  1  0  0  3  0  0  0  0  0  0
  184.5710  178.7560  144.3520 C   0  0  0  0  0  0  0  0  0  0  0  0
  183.8760  178.9560  145.3840 O   0  0  0  0  0  1  0  0  0  0  0  0
  184.0260  179.0010  143.0960 O   0  0  0  0  0  0  0  0  0  0  0  0
  186.2330  177.2550  145.5000 C   0  0  0  0  0  2  0  0  0  0  0  0
  188.2000  178.3000  148.5800 C   0  0  0  0  0  3  0  0  0  0  0  0
  189.4990  177.9380  148.2080 C   0  0  0  0  0  3  0  0  0  0  0  0
  189.7360  177.3670  146.9520 C   0  0  0  0  0  3  0  0  0  0  0  0
  187.1370  178.0970  147.6960 C   0  0  0  0  0  3  0  0  0  0  0  0
  187.3710  177.5300  146.4370 C   0  0  0  0  0  0  0  0  0  0  0  0
  188.6730  177.1620  146.0690 C   0  0  0  0  0  3  0  0  0  0  0  0
  187.2380  177.5190  138.0880 O   0  0  0  0  0  0  0  0  0  0  0  0
  185.2080  178.6500  137.2840 N   0  0  0  0  0  2  0  0  0  0  0  0
  187.3150  179.5760  137.0190 O   0  0  0  0  0  0  0  0  0  0  0  0
  186.6270  178.6230  137.4720 C   0  0  0  0  0  0  0  0  0  0  0  0
  183.5970  178.3370  139.0550 N   0  0  0  0  0  0  0  0  0  0  0  0
  181.4970  175.5660  140.1360 N   0  0  0  0  0  1  0  0  0  0  0  0
  182.7150  177.6040  139.7400 N   0  0  0  0  0  0  0  0  0  0  0  0
  183.1250  175.7400  138.3270 C   0  0  0  0  0  3  0  0  0  0  0  0
  184.2610  177.8320  137.9800 C   0  0  0  0  0  0  0  0  0  0  0  0
  182.4510  176.3180  139.3980 C   0  0  0  0  0  0  0  0  0  0  0  0
  184.0430  176.5050  137.6120 C   0  0  0  0  0  3  0  0  0  0  0  0
  1  4  2  0  0  0  0
  2 33  1  0  0  0  0
  3  2  2  0  0  0  0
  4  2  1  0  0  0  0
  5  3  1  0  0  0  0
  6  1  1  0  0  0  0
  6  5  2  0  0  0  0
  8  9  2  0  0  0  0
  9 11  1  0  0  0  0
  9 10  1  0  0  0  0
 10 12  1  0  0  0  0
 11 13  1  0  0  0  0
 12  6  1  1  0  0  0
 13 15  1  0  0  0  0
 13 12  1  0  0  0  0
 13  7  1  1  0  0  0
 15 14  1  6  0  0  0
 16 21  1  1  0  0  0
 16 15  1  0  0  0  0
 17 14  2  0  0  0  0
 18 17  1  0  0  0  0
 18 16  1  0  0  0  0
 19 20  2  0  0  0  0
 19 24  1  0  0  0  0
 21 22  1  0  0  0  0
 21 19  1  0  0  0  0
 22 23  1  0  0  0  0
 25 27  1  0  0  0  0
 25 24  1  0  0  0  0
 27 26  1  1  0  0  0
 28 29  2  0  0  0  0
 28 27  1  0  0  0  0
 30 31  2  0  0  0  0
 31 27  1  0  0  0  0
 32 34  1  0  0  0  0
 33 32  2  0  0  0  0
 34 38  1  1  0  0  0
 35 34  1  0  0  0  0
 35 36  1  0  0  0  0
 37 35  2  0  0  0  0
 38 43  1  0  0  0  0
 40 39  1  0  0  0  0
 41 40  2  0  0  0  0
 42 39  2  0  0  0  0
 43 42  1  0  0  0  0
 44 43  2  0  0  0  0
 44 41  1  0  0  0  0
 45  1  1  0  0  0  0
 46 48  1  0  0  0  0
 46 53  1  0  0  0  0
 47 48  2  0  0  0  0
 48 45  1  0  0  0  0
 49 51  1  0  0  0  0
 52 54  1  0  0  0  0
 53 49  2  0  0  0  0
 54 51  2  0  0  0  0
 54 50  1  0  0  0  0
 55 53  1  0  0  0  0
 55 52  2  0  0  0  0
M  END
>  <MODEL>
4

>  <REMARK>
 VINA RESULT:      -7.8      3.196      7.170
  Name = 
  17 active torsions:
  status: ('A' for Active; 'I' for Inactive)
    1  A    between atoms: C_1  and  C_31
    2  A    between atoms: C_2  and  C_8
    3  A    between atoms: C_7  and  O_9
    4  A    between atoms: C_8  and  N_13
    5  A    between atoms: C_8  and  C_30
    6  A    between atoms: O_9  and  C_51
    7  A    between atoms: C_10  and  C_23
    8  A    between atoms: C_12  and  C_50
    9  A    between atoms: C_14  and  N_40
   10  A    between atoms: C_17  and  N_52
   11  A    between atoms: N_18  and  C_42
   12  A    between atoms: C_23  and  N_33
   13  A    between atoms: C_30  and  C_37
   14  A    between atoms: C_31  and  N_33
   15  A    between atoms: C_31  and  N_43
   16  A    between atoms: C_34  and  N_52
   17  A    between atoms: C_45  and  C_47
                            x       y       z     vdW  Elec       q    Type
                         _______ _______ _______ _____ _____    ______ ____

>  <TORSDO>
F 17

$$$$
=
 OpenBabel11042411293D

 55 59  0  0  1  0  0  0  0  0999 V2000
  183.2360  177.6710  139.2420 C   0  0  0  0  0  0  0  0  0  0  0  0
  184.6840  178.5960  140.9530 C   0  0  0  0  0  0  0  0  0  0  0  0
  185.6280  178.8510  140.0090 N   0  0  0  0  0  0  0  0  0  0  0  0
  183.4740  178.0080  140.5830 C   0  0  0  0  0  3  0  0  0  0  0  0
  185.4390  178.5170  138.7050 C   0  0  0  0  0  3  0  0  0  0  0  0
  184.2560  177.9040  138.2920 C   0  0  0  0  0  0  0  0  0  0  0  0
  184.9320  175.3450  137.5350 O   0  0  0  0  0  1  0  0  0  0  0  0
  181.1910  176.2770  135.2490 C   0  0  0  0  0  2  0  0  0  0  0  0
  182.4060  176.4790  135.7290 C   0  0  0  0  0  0  0  0  0  0  0  0
  182.7650  177.6100  136.4240 O   0  0  0  0  0  0  0  0  0  0  0  0
  183.5060  175.4980  135.6220 C   0  0  0  0  0  2  0  0  0  0  0  0
  184.1190  177.5470  136.8330 C   0  0  2  0  0  3  0  0  0  0  0  0
  184.6480  176.1420  136.4200 C   0  0  1  0  0  0  0  0  0  0  0  0
  185.8150  177.4190  134.5970 C   0  0  0  0  0  3  0  0  0  0  0  0
  185.8970  176.2500  135.5240 C   0  0  1  0  0  3  0  0  0  0  0  0
  187.1400  176.5420  136.3700 C   0  0  2  0  0  3  0  0  0  0  0  0
  186.8140  178.2720  134.7710 C   0  0  0  0  0  3  0  0  0  0  0  0
  187.7550  177.8310  135.8350 C   0  0  0  0  0  2  0  0  0  0  0  0
  189.5140  175.6050  136.4440 C   0  0  0  0  0  0  0  0  0  0  0  0
  190.0190  176.7500  136.3040 O   0  0  0  0  0  0  0  0  0  0  0  0
  188.0850  175.4220  136.3690 N   0  0  0  0  0  0  0  0  0  0  0  0
  187.5340  174.0840  136.1760 C   0  0  0  0  0  2  0  0  0  0  0  0
  187.7500  173.6210  134.7430 C   0  0  0  0  0  1  0  0  0  0  0  0
  190.4140  174.4400  136.7070 C   0  0  0  0  0  2  0  0  0  0  0  0
  191.6810  174.6140  136.0010 N   0  0  0  0  0  2  0  0  0  0  0  0
  192.3000  174.6560  138.2620 O   0  0  0  0  0  1  0  0  0  0  0  0
  192.8000  174.6600  136.9560 C   0  0  1  0  0  0  0  0  0  0  0  0
  193.6520  173.4320  136.7880 C   0  0  0  0  0  3  0  0  0  0  0  0
  193.5650  172.6360  135.7220 C   0  0  0  0  0  2  0  0  0  0  0  0
  193.6870  176.6920  137.6200 O   0  0  0  0  0  0  0  0  0  0  0  0
  193.5940  175.8590  136.7630 N   0  0  0  0  0  0  0  0  0  0  0  0
  185.4590  178.0980  143.1190 N   0  0  0  0  0  0  0  0  0  0  0  0
  184.9170  178.9260  142.3230 N   0  0  0  0  0  0  0  0  0  0  0  0
  185.6760  178.4410  144.5200 C   0  0  1  0  0  3  0  0  0  0  0  0
  184.3820  178.7170  145.2250 C   0  0  0  0  0  0  0  0  0  0  0  0
  183.2980  178.7700  144.5850 O   0  0  0  0  0  0  0  0  0  0  0  0
  184.3680  178.8110  146.6120 O   0  0  0  0  0  1  0  0  0  0  0  0
  186.5120  177.3770  145.2460 C   0  0  0  0  0  2  0  0  0  0  0  0
  190.3090  177.5590  145.2480 C   0  0  0  0  0  3  0  0  0  0  0  0
  190.6020  177.1330  143.9480 C   0  0  0  0  0  3  0  0  0  0  0  0
  189.5650  176.7990  143.0690 C   0  0  0  0  0  3  0  0  0  0  0  0
  188.9800  177.6590  145.6700 C   0  0  0  0  0  3  0  0  0  0  0  0
  187.9410  177.3290  144.7910 C   0  0  0  0  0  0  0  0  0  0  0  0
  188.2360  176.8950  143.4910 C   0  0  0  0  0  3  0  0  0  0  0  0
  182.0230  177.0860  138.8370 O   0  0  0  0  0  0  0  0  0  0  0  0
  180.0900  178.0210  140.0360 N   0  0  0  0  0  2  0  0  0  0  0  0
  180.5910  175.7600  140.0920 O   0  0  0  0  0  0  0  0  0  0  0  0
  180.8890  176.9000  139.6460 C   0  0  0  0  0  0  0  0  0  0  0  0
  180.0430  180.4320  140.1610 N   0  0  0  0  0  0  0  0  0  0  0  0
  180.0590  183.1180  137.7030 N   0  0  0  0  0  1  0  0  0  0  0  0
  180.0310  181.6480  139.6100 N   0  0  0  0  0  0  0  0  0  0  0  0
  180.0770  180.6930  137.4360 C   0  0  0  0  0  3  0  0  0  0  0  0
  180.0920  179.3050  139.4010 C   0  0  0  0  0  0  0  0  0  0  0  0
  180.0580  181.8110  138.2630 C   0  0  0  0  0  0  0  0  0  0  0  0
  180.0910  179.4250  138.0110 C   0  0  0  0  0  3  0  0  0  0  0  0
  1  4  2  0  0  0  0
  2 33  1  0  0  0  0
  3  2  2  0  0  0  0
  4  2  1  0  0  0  0
  5  3  1  0  0  0  0
  6  5  2  0  0  0  0
  6  1  1  0  0  0  0
  8  9  2  0  0  0  0
  9 10  1  0  0  0  0
 10 12  1  0  0  0  0
 11  9  1  0  0  0  0
 11 13  1  0  0  0  0
 12  6  1  1  0  0  0
 13 12  1  0  0  0  0
 13  7  1  1  0  0  0
 14 17  2  0  0  0  0
 15 14  1  6  0  0  0
 15 16  1  0  0  0  0
 15 13  1  0  0  0  0
 16 21  1  6  0  0  0
 17 18  1  0  0  0  0
 18 16  1  0  0  0  0
 19 24  1  0  0  0  0
 20 19  2  0  0  0  0
 21 19  1  0  0  0  0
 22 21  1  0  0  0  0
 23 22  1  0  0  0  0
 25 24  1  0  0  0  0
 25 27  1  0  0  0  0
 27 26  1  1  0  0  0
 28 27  1  0  0  0  0
 29 28  2  0  0  0  0
 31 27  1  0  0  0  0
 31 30  2  0  0  0  0
 32 34  1  0  0  0  0
 33 32  2  0  0  0  0
 34 35  1  0  0  0  0
 34 38  1  1  0  0  0
 35 37  1  0  0  0  0
 36 35  2  0  0  0  0
 39 42  1  0  0  0  0
 40 39  2  0  0  0  0
 41 44  2  0  0  0  0
 41 40  1  0  0  0  0
 43 38  1  0  0  0  0
 43 42  2  0  0  0  0
 44 43  1  0  0  0  0
 45  1  1  0  0  0  0
 45 48  1  0  0  0  0
 48 46  1  0  0  0  0
 48 47  2  0  0  0  0
 50 54  1  0  0  0  0
 51 49  1  0  0  0  0
 52 55  2  0  0  0  0
 52 54  1  0  0  0  0
 53 46  1  0  0  0  0
 53 49  2  0  0  0  0
 54 51  2  0  0  0  0
 55 53  1  0  0  0  0
M  END
>  <MODEL>
5

>  <REMARK>
 VINA RESULT:      -7.6      2.854      8.021
  Name = 
  17 active torsions:
  status: ('A' for Active; 'I' for Inactive)
    1  A    between atoms: C_1  and  C_31
    2  A    between atoms: C_2  and  C_8
    3  A    between atoms: C_7  and  O_9
    4  A    between atoms: C_8  and  N_13
    5  A    between atoms: C_8  and  C_30
    6  A    between atoms: O_9  and  C_51
    7  A    between atoms: C_10  and  C_23
    8  A    between atoms: C_12  and  C_50
    9  A    between atoms: C_14  and  N_40
   10  A    between atoms: C_17  and  N_52
   11  A    between atoms: N_18  and  C_42
   12  A    between atoms: C_23  and  N_33
   13  A    between atoms: C_30  and  C_37
   14  A    between atoms: C_31  and  N_33
   15  A    between atoms: C_31  and  N_43
   16  A    between atoms: C_34  and  N_52
   17  A    between atoms: C_45  and  C_47
                            x       y       z     vdW  Elec       q    Type
                         _______ _______ _______ _____ _____    ______ ____

>  <TORSDO>
F 17

$$$$
=
 OpenBabel11042411293D

 55 59  0  0  1  0  0  0  0  0999 V2000
  186.2940  178.5900  140.4960 C   0  0  0  0  0  0  0  0  0  0  0  0
  184.5160  179.5410  139.1480 C   0  0  0  0  0  0  0  0  0  0  0  0
  185.0600  178.9730  138.0400 N   0  0  0  0  0  0  0  0  0  0  0  0
  185.1210  179.3540  140.3910 C   0  0  0  0  0  3  0  0  0  0  0  0
  186.2070  178.2460  138.1020 C   0  0  0  0  0  3  0  0  0  0  0  0
  186.8620  178.0530  139.3190 C   0  0  0  0  0  0  0  0  0  0  0  0
  188.8000  178.7480  137.4930 O   0  0  0  0  0  1  0  0  0  0  0  0
  191.0350  177.8970  141.2830 C   0  0  0  0  0  2  0  0  0  0  0  0
  190.1640  177.6890  140.3110 C   0  0  0  0  0  0  0  0  0  0  0  0
  188.8370  177.4050  140.5340 O   0  0  0  0  0  0  0  0  0  0  0  0
  190.4960  177.7840  138.8750 C   0  0  0  0  0  2  0  0  0  0  0  0
  188.1370  177.2490  139.3130 C   0  0  2  0  0  3  0  0  0  0  0  0
  189.1470  177.5750  138.1740 C   0  0  1  0  0  0  0  0  0  0  0  0
  188.2220  176.4790  136.1100 C   0  0  0  0  0  3  0  0  0  0  0  0
  189.2670  176.4080  137.1750 C   0  0  1  0  0  3  0  0  0  0  0  0
  190.5850  176.4980  136.3990 C   0  0  2  0  0  3  0  0  0  0  0  0
  188.7440  176.5580  134.8950 C   0  0  0  0  0  3  0  0  0  0  0  0
  190.2320  176.5430  134.9170 C   0  0  0  0  0  2  0  0  0  0  0  0
  192.8840  175.6140  137.0680 C   0  0  0  0  0  0  0  0  0  0  0  0
  193.4200  176.7390  136.8890 O   0  0  0  0  0  0  0  0  0  0  0  0
  191.4980  175.4020  136.7310 N   0  0  0  0  0  0  0  0  0  0  0  0
  190.9830  174.0410  136.6020 C   0  0  0  0  0  2  0  0  0  0  0  0
  191.6240  173.3400  135.4140 C   0  0  0  0  0  1  0  0  0  0  0  0
  193.7000  174.5050  137.6520 C   0  0  0  0  0  2  0  0  0  0  0  0
  194.7900  175.0520  138.4560 N   0  0  0  0  0  2  0  0  0  0  0  0
  195.8630  172.9850  138.7240 O   0  0  0  0  0  1  0  0  0  0  0  0
  196.0270  174.2860  138.2370 C   0  0  1  0  0  0  0  0  0  0  0  0
  196.3030  174.1900  136.7610 C   0  0  0  0  0  3  0  0  0  0  0  0
  197.5060  174.4270  136.2380 C   0  0  0  0  0  2  0  0  0  0  0  0
  197.0740  175.2210  140.0770 O   0  0  0  0  0  0  0  0  0  0  0  0
  197.1460  174.9040  138.9240 N   0  0  0  0  0  0  0  0  0  0  0  0
  182.1800  179.7860  139.0020 N   0  0  0  0  0  0  0  0  0  0  0  0
  183.3280  180.3280  139.0540 N   0  0  0  0  0  0  0  0  0  0  0  0
  180.9750  180.6000  138.8900 C   0  0  1  0  0  3  0  0  0  0  0  0
  180.7800  181.1030  137.4910 C   0  0  0  0  0  0  0  0  0  0  0  0
  180.3210  180.3490  136.5920 O   0  0  0  0  0  0  0  0  0  0  0  0
  181.0110  182.4460  137.2120 O   0  0  0  0  0  1  0  0  0  0  0  0
  179.7350  179.8600  139.4140 C   0  0  0  0  0  2  0  0  0  0  0  0
  179.7140  180.1260  143.2050 C   0  0  0  0  0  3  0  0  0  0  0  0
  179.8970  178.7880  143.5720 C   0  0  0  0  0  3  0  0  0  0  0  0
  180.0390  177.8040  142.5870 C   0  0  0  0  0  3  0  0  0  0  0  0
  179.6800  180.4830  141.8540 C   0  0  0  0  0  3  0  0  0  0  0  0
  179.8260  179.5000  140.8670 C   0  0  0  0  0  0  0  0  0  0  0  0
  180.0020  178.1600  141.2370 C   0  0  0  0  0  3  0  0  0  0  0  0
  186.9210  178.3770  141.7370 O   0  0  0  0  0  0  0  0  0  0  0  0
  186.8210  177.4390  144.0080 N   0  0  0  0  0  2  0  0  0  0  0  0
  185.1730  178.8440  143.1870 O   0  0  0  0  0  0  0  0  0  0  0  0
  186.2730  178.2680  142.9780 C   0  0  0  0  0  0  0  0  0  0  0  0
  188.5780  175.9890  143.2110 N   0  0  0  0  0  0  0  0  0  0  0  0
  192.0640  175.4600  144.1230 N   0  0  0  0  0  1  0  0  0  0  0  0
  189.8260  175.5110  143.2370 N   0  0  0  0  0  0  0  0  0  0  0  0
  190.3690  176.9540  145.0440 C   0  0  0  0  0  3  0  0  0  0  0  0
  188.1720  176.9670  144.0650 C   0  0  0  0  0  0  0  0  0  0  0  0
  190.7390  175.9760  144.1260 C   0  0  0  0  0  0  0  0  0  0  0  0
  189.0700  177.4520  145.0150 C   0  0  0  0  0  3  0  0  0  0  0  0
  1 45  1  0  0  0  0
  2  4  1  0  0  0  0
  3  5  1  0  0  0  0
  3  2  2  0  0  0  0
  4  1  2  0  0  0  0
  5  6  2  0  0  0  0
  6  1  1  0  0  0  0
  9 10  1  0  0  0  0
  9  8  2  0  0  0  0
 11  9  1  0  0  0  0
 12  6  1  1  0  0  0
 12 10  1  0  0  0  0
 13  7  1  6  0  0  0
 13 11  1  0  0  0  0
 13 12  1  0  0  0  0
 15 14  1  6  0  0  0
 15 13  1  0  0  0  0
 16 21  1  6  0  0  0
 16 15  1  0  0  0  0
 17 18  1  0  0  0  0
 17 14  2  0  0  0  0
 18 16  1  0  0  0  0
 19 24  1  0  0  0  0
 20 19  2  0  0  0  0
 21 19  1  0  0  0  0
 22 21  1  0  0  0  0
 23 22  1  0  0  0  0
 24 25  1  0  0  0  0
 27 25  1  0  0  0  0
 27 26  1  1  0  0  0
 27 31  1  0  0  0  0
 28 27  1  0  0  0  0
 29 28  2  0  0  0  0
 31 30  2  0  0  0  0
 32 33  2  0  0  0  0
 33  2  1  0  0  0  0
 34 32  1  0  0  0  0
 34 38  1  6  0  0  0
 35 34  1  0  0  0  0
 36 35  2  0  0  0  0
 37 35  1  0  0  0  0
 38 43  1  0  0  0  0
 39 40  1  0  0  0  0
 41 40  2  0  0  0  0
 42 39  2  0  0  0  0
 43 44  2  0  0  0  0
 43 42  1  0  0  0  0
 44 41  1  0  0  0  0
 45 48  1  0  0  0  0
 46 53  1  0  0  0  0
 48 47  2  0  0  0  0
 48 46  1  0  0  0  0
 49 51  1  0  0  0  0
 49 53  2  0  0  0  0
 50 54  1  0  0  0  0
 51 54  2  0  0  0  0
 53 55  1  0  0  0  0
 54 52  1  0  0  0  0
 55 52  2  0  0  0  0
M  END
>  <MODEL>
6

>  <REMARK>
 VINA RESULT:      -7.5      1.631      2.991
  Name = 
  17 active torsions:
  status: ('A' for Active; 'I' for Inactive)
    1  A    between atoms: C_1  and  C_31
    2  A    between atoms: C_2  and  C_8
    3  A    between atoms: C_7  and  O_9
    4  A    between atoms: C_8  and  N_13
    5  A    between atoms: C_8  and  C_30
    6  A    between atoms: O_9  and  C_51
    7  A    between atoms: C_10  and  C_23
    8  A    between atoms: C_12  and  C_50
    9  A    between atoms: C_14  and  N_40
   10  A    between atoms: C_17  and  N_52
   11  A    between atoms: N_18  and  C_42
   12  A    between atoms: C_23  and  N_33
   13  A    between atoms: C_30  and  C_37
   14  A    between atoms: C_31  and  N_33
   15  A    between atoms: C_31  and  N_43
   16  A    between atoms: C_34  and  N_52
   17  A    between atoms: C_45  and  C_47
                            x       y       z     vdW  Elec       q    Type
                         _______ _______ _______ _____ _____    ______ ____

>  <TORSDO>
F 17

$$$$
=
 OpenBabel11042411293D

 55 59  0  0  1  0  0  0  0  0999 V2000
  184.3750  178.5570  142.0680 C   0  0  0  0  0  0  0  0  0  0  0  0
  186.4770  178.6630  140.8620 C   0  0  0  0  0  0  0  0  0  0  0  0
  185.7970  178.8770  139.7060 N   0  0  0  0  0  0  0  0  0  0  0  0
  185.7780  178.5050  142.0590 C   0  0  0  0  0  3  0  0  0  0  0  0
  184.4390  178.9110  139.6740 C   0  0  0  0  0  3  0  0  0  0  0  0
  183.6960  178.7320  140.8420 C   0  0  0  0  0  0  0  0  0  0  0  0
  182.4090  176.3840  140.2030 O   0  0  0  0  0  1  0  0  0  0  0  0
  179.8810  178.2570  143.3960 C   0  0  0  0  0  2  0  0  0  0  0  0
  180.5860  178.1990  142.2790 C   0  0  0  0  0  0  0  0  0  0  0  0
  181.6020  179.0760  141.9810 O   0  0  0  0  0  0  0  0  0  0  0  0
  180.4010  177.1620  141.2430 C   0  0  0  0  0  2  0  0  0  0  0  0
  182.1920  178.7670  140.7320 C   0  0  2  0  0  3  0  0  0  0  0  0
  181.5130  177.4600  140.2270 C   0  0  1  0  0  0  0  0  0  0  0  0
  180.4760  179.0670  138.5970 C   0  0  0  0  0  3  0  0  0  0  0  0
  180.8890  177.6510  138.8310 C   0  0  1  0  0  3  0  0  0  0  0  0
  181.9300  177.3890  137.7380 C   0  0  2  0  0  3  0  0  0  0  0  0
  181.0850  179.6040  137.5510 C   0  0  0  0  0  3  0  0  0  0  0  0
  182.0090  178.6480  136.8820 C   0  0  0  0  0  2  0  0  0  0  0  0
  182.6360  175.3780  136.3330 C   0  0  0  0  0  0  0  0  0  0  0  0
  183.8260  175.7850  136.2670 O   0  0  0  0  0  0  0  0  0  0  0  0
  181.6190  176.1910  136.9540 N   0  0  0  0  0  0  0  0  0  0  0  0
  180.2100  175.8920  136.7200 C   0  0  0  0  0  2  0  0  0  0  0  0
  179.6720  174.9730  137.8070 C   0  0  0  0  0  1  0  0  0  0  0  0
  182.2960  174.0330  135.7750 C   0  0  0  0  0  2  0  0  0  0  0  0
  183.5150  173.2650  135.5350 N   0  0  0  0  0  2  0  0  0  0  0  0
  182.4330  171.9080  137.1110 O   0  0  0  0  0  1  0  0  0  0  0  0
  183.6800  172.2270  136.5650 C   0  0  1  0  0  0  0  0  0  0  0  0
  184.2350  170.9790  135.9330 C   0  0  0  0  0  3  0  0  0  0  0  0
  184.0810  170.6980  134.6390 C   0  0  0  0  0  2  0  0  0  0  0  0
  185.6360  173.1420  137.3960 O   0  0  0  0  0  0  0  0  0  0  0  0
  184.5520  172.6880  137.6280 N   0  0  0  0  0  0  0  0  0  0  0  0
  188.5170  177.4980  140.7070 N   0  0  0  0  0  0  0  0  0  0  0  0
  187.9040  178.5990  140.8670 N   0  0  0  0  0  0  0  0  0  0  0  0
  189.9740  177.4440  140.7300 C   0  0  1  0  0  3  0  0  0  0  0  0
  190.4860  177.0020  142.0680 C   0  0  0  0  0  0  0  0  0  0  0  0
  191.1580  177.7850  142.7920 O   0  0  0  0  0  1  0  0  0  0  0  0
  190.1260  175.7510  142.5560 O   0  0  0  0  0  0  0  0  0  0  0  0
  190.5320  176.5840  139.5870 C   0  0  0  0  0  2  0  0  0  0  0  0
  189.0110  176.2100  136.1230 C   0  0  0  0  0  3  0  0  0  0  0  0
  188.7350  177.5440  135.8030 C   0  0  0  0  0  3  0  0  0  0  0  0
  189.0550  178.5630  136.7070 C   0  0  0  0  0  3  0  0  0  0  0  0
  189.6120  175.8930  137.3450 C   0  0  0  0  0  3  0  0  0  0  0  0
  189.9370  176.9120  138.2490 C   0  0  0  0  0  0  0  0  0  0  0  0
  189.6540  178.2470  137.9290 C   0  0  0  0  0  3  0  0  0  0  0  0
  183.6430  178.4100  143.2600 O   0  0  0  0  0  0  0  0  0  0  0  0
  184.0090  179.4530  145.4560 N   0  0  0  0  0  2  0  0  0  0  0  0
  182.4900  180.3080  143.9310 O   0  0  0  0  0  0  0  0  0  0  0  0
  183.3600  179.4320  144.1810 C   0  0  0  0  0  0  0  0  0  0  0  0
  185.7100  178.8300  147.0530 N   0  0  0  0  0  0  0  0  0  0  0  0
  188.7110  176.7730  146.9140 N   0  0  0  0  0  1  0  0  0  0  0  0
  186.8330  178.1970  147.4030 N   0  0  0  0  0  0  0  0  0  0  0  0
  187.0790  177.3530  145.1970 C   0  0  0  0  0  3  0  0  0  0  0  0
  185.2090  178.7470  145.7900 C   0  0  0  0  0  0  0  0  0  0  0  0
  187.5270  177.4490  146.5100 C   0  0  0  0  0  0  0  0  0  0  0  0
  185.9080  178.0130  144.8320 C   0  0  0  0  0  3  0  0  0  0  0  0
  1 45  1  0  0  0  0
  2 33  1  0  0  0  0
  2  4  1  0  0  0  0
  3  2  2  0  0  0  0
  4  1  2  0  0  0  0
  5  3  1  0  0  0  0
  5  6  2  0  0  0  0
  6  1  1  0  0  0  0
  9  8  2  0  0  0  0
 10  9  1  0  0  0  0
 11  9  1  0  0  0  0
 12  6  1  1  0  0  0
 12 10  1  0  0  0  0
 13  7  1  6  0  0  0
 13 12  1  0  0  0  0
 13 11  1  0  0  0  0
 15 14  1  1  0  0  0
 15 13  1  0  0  0  0
 16 21  1  6  0  0  0
 16 15  1  0  0  0  0
 17 14  2  0  0  0  0
 18 17  1  0  0  0  0
 18 16  1  0  0  0  0
 19 21  1  0  0  0  0
 20 19  2  0  0  0  0
 22 21  1  0  0  0  0
 22 23  1  0  0  0  0
 24 19  1  0  0  0  0
 25 24  1  0  0  0  0
 25 27  1  0  0  0  0
 27 26  1  1  0  0  0
 27 31  1  0  0  0  0
 28 27  1  0  0  0  0
 29 28  2  0  0  0  0
 30 31  2  0  0  0  0
 32 34  1  0  0  0  0
 32 33  2  0  0  0  0
 34 38  1  6  0  0  0
 34 35  1  0  0  0  0
 35 37  2  0  0  0  0
 35 36  1  0  0  0  0
 39 42  1  0  0  0  0
 40 39  2  0  0  0  0
 40 41  1  0  0  0  0
 41 44  2  0  0  0  0
 42 43  2  0  0  0  0
 43 38  1  0  0  0  0
 44 43  1  0  0  0  0
 45 48  1  0  0  0  0
 46 53  1  0  0  0  0
 47 48  2  0  0  0  0
 48 46  1  0  0  0  0
 49 51  1  0  0  0  0
 52 54  1  0  0  0  0
 53 49  2  0  0  0  0
 54 50  1  0  0  0  0
 54 51  2  0  0  0  0
 55 52  2  0  0  0  0
 55 53  1  0  0  0  0
M  END
>  <MODEL>
7

>  <REMARK>
 VINA RESULT:      -7.5      4.077      9.044
  Name = 
  17 active torsions:
  status: ('A' for Active; 'I' for Inactive)
    1  A    between atoms: C_1  and  C_31
    2  A    between atoms: C_2  and  C_8
    3  A    between atoms: C_7  and  O_9
    4  A    between atoms: C_8  and  N_13
    5  A    between atoms: C_8  and  C_30
    6  A    between atoms: O_9  and  C_51
    7  A    between atoms: C_10  and  C_23
    8  A    between atoms: C_12  and  C_50
    9  A    between atoms: C_14  and  N_40
   10  A    between atoms: C_17  and  N_52
   11  A    between atoms: N_18  and  C_42
   12  A    between atoms: C_23  and  N_33
   13  A    between atoms: C_30  and  C_37
   14  A    between atoms: C_31  and  N_33
   15  A    between atoms: C_31  and  N_43
   16  A    between atoms: C_34  and  N_52
   17  A    between atoms: C_45  and  C_47
                            x       y       z     vdW  Elec       q    Type
                         _______ _______ _______ _____ _____    ______ ____

>  <TORSDO>
F 17

$$$$
=
 OpenBabel11042411293D

 55 59  0  0  1  0  0  0  0  0999 V2000
  185.8310  178.7670  141.1070 C   0  0  0  0  0  0  0  0  0  0  0  0
  188.0690  178.1390  141.8000 C   0  0  0  0  0  0  0  0  0  0  0  0
  188.4280  178.0010  140.4970 N   0  0  0  0  0  0  0  0  0  0  0  0
  186.7690  178.5290  142.1240 C   0  0  0  0  0  3  0  0  0  0  0  0
  187.5400  178.2020  139.4880 C   0  0  0  0  0  3  0  0  0  0  0  0
  186.2220  178.5680  139.7640 C   0  0  0  0  0  0  0  0  0  0  0  0
  184.1350  176.7930  139.4970 O   0  0  0  0  0  1  0  0  0  0  0  0
  182.3680  180.8050  138.5630 C   0  0  0  0  0  2  0  0  0  0  0  0
  183.2440  179.8160  138.5020 C   0  0  0  0  0  0  0  0  0  0  0  0
  184.5930  179.9900  138.7040 O   0  0  0  0  0  0  0  0  0  0  0  0
  182.8770  178.4060  138.2600 C   0  0  0  0  0  2  0  0  0  0  0  0
  185.2860  178.7600  138.5970 C   0  0  2  0  0  3  0  0  0  0  0  0
  184.2080  177.6540  138.3960 C   0  0  1  0  0  0  0  0  0  0  0  0
  183.3360  176.9580  136.1440 C   0  0  0  0  0  3  0  0  0  0  0  0
  184.4670  176.8410  137.1130 C   0  0  1  0  0  3  0  0  0  0  0  0
  185.6630  177.4140  136.3470 C   0  0  2  0  0  3  0  0  0  0  0  0
  183.7180  177.4600  134.9800 C   0  0  0  0  0  3  0  0  0  0  0  0
  185.1740  177.7630  134.9460 C   0  0  0  0  0  2  0  0  0  0  0  0
  188.1680  176.9420  136.1960 C   0  0  0  0  0  0  0  0  0  0  0  0
  188.4180  178.1330  135.8700 O   0  0  0  0  0  0  0  0  0  0  0  0
  186.8030  176.4940  136.3350 N   0  0  0  0  0  0  0  0  0  0  0  0
  186.5100  175.0640  136.3590 C   0  0  0  0  0  2  0  0  0  0  0  0
  186.4840  174.5020  134.9450 C   0  0  0  0  0  1  0  0  0  0  0  0
  189.3040  176.0040  136.4540 C   0  0  0  0  0  2  0  0  0  0  0  0
  190.5370  176.7570  136.6720 N   0  0  0  0  0  2  0  0  0  0  0  0
  190.4570  175.7120  138.7680 O   0  0  0  0  0  1  0  0  0  0  0  0
  191.3200  176.1560  137.7620 C   0  0  1  0  0  0  0  0  0  0  0  0
  192.0690  174.9590  137.2410 C   0  0  0  0  0  3  0  0  0  0  0  0
  191.4540  173.8490  136.8340 C   0  0  0  0  0  2  0  0  0  0  0  0
  193.3650  176.8220  138.6180 O   0  0  0  0  0  0  0  0  0  0  0  0
  192.2410  177.1230  138.3300 N   0  0  0  0  0  0  0  0  0  0  0  0
  188.7270  177.1340  143.8250 N   0  0  0  0  0  0  0  0  0  0  0  0
  189.0100  177.8920  142.8450 N   0  0  0  0  0  0  0  0  0  0  0  0
  189.6910  176.9030  144.8940 C   0  0  1  0  0  3  0  0  0  0  0  0
  191.0980  177.1040  144.4170 C   0  0  0  0  0  0  0  0  0  0  0  0
  191.7930  178.0630  144.8450 O   0  0  0  0  0  1  0  0  0  0  0  0
  191.6730  176.1590  143.5740 O   0  0  0  0  0  0  0  0  0  0  0  0
  189.3780  177.7470  146.1380 C   0  0  0  0  0  2  0  0  0  0  0  0
  185.6040  177.3710  145.8810 C   0  0  0  0  0  3  0  0  0  0  0  0
  185.1770  178.1990  146.9240 C   0  0  0  0  0  3  0  0  0  0  0  0
  186.1150  178.8880  147.7020 C   0  0  0  0  0  3  0  0  0  0  0  0
  186.9680  177.2350  145.6080 C   0  0  0  0  0  3  0  0  0  0  0  0
  187.9090  177.9260  146.3820 C   0  0  0  0  0  0  0  0  0  0  0  0
  187.4790  178.7500  147.4320 C   0  0  0  0  0  3  0  0  0  0  0  0
  184.5160  179.1690  141.4010 O   0  0  0  0  0  0  0  0  0  0  0  0
  182.5540  179.2980  142.8780 N   0  0  0  0  0  2  0  0  0  0  0  0
  184.7120  179.5470  143.6820 O   0  0  0  0  0  0  0  0  0  0  0  0
  183.9720  179.3230  142.6870 C   0  0  0  0  0  0  0  0  0  0  0  0
  181.8090  177.5440  141.3960 N   0  0  0  0  0  0  0  0  0  0  0  0
  178.9320  177.0990  139.2090 N   0  0  0  0  0  1  0  0  0  0  0  0
  180.9510  177.0180  140.5180 N   0  0  0  0  0  0  0  0  0  0  0  0
  179.5880  178.9580  140.6450 C   0  0  0  0  0  3  0  0  0  0  0  0
  181.6000  178.7690  141.9510 C   0  0  0  0  0  0  0  0  0  0  0  0
  179.8360  177.6880  140.1340 C   0  0  0  0  0  0  0  0  0  0  0  0
  180.4820  179.5060  141.5610 C   0  0  0  0  0  3  0  0  0  0  0  0
  1 45  1  0  0  0  0
  1  4  2  0  0  0  0
  2  4  1  0  0  0  0
  2 33  1  0  0  0  0
  3  2  2  0  0  0  0
  5  6  2  0  0  0  0
  5  3  1  0  0  0  0
  6  1  1  0  0  0  0
  9  8  2  0  0  0  0
  9 10  1  0  0  0  0
 11 13  1  0  0  0  0
 11  9  1  0  0  0  0
 12 10  1  0  0  0  0
 12  6  1  1  0  0  0
 13 12  1  0  0  0  0
 13  7  1  1  0  0  0
 15 14  1  6  0  0  0
 15 13  1  0  0  0  0
 16 21  1  6  0  0  0
 16 15  1  0  0  0  0
 17 14  2  0  0  0  0
 18 17  1  0  0  0  0
 18 16  1  0  0  0  0
 19 21  1  0  0  0  0
 19 24  1  0  0  0  0
 20 19  2  0  0  0  0
 21 22  1  0  0  0  0
 23 22  1  0  0  0  0
 24 25  1  0  0  0  0
 25 27  1  0  0  0  0
 27 31  1  0  0  0  0
 27 26  1  1  0  0  0
 28 27  1  0  0  0  0
 29 28  2  0  0  0  0
 31 30  2  0  0  0  0
 32 34  1  0  0  0  0
 33 32  2  0  0  0  0
 34 38  1  1  0  0  0
 35 36  1  0  0  0  0
 35 34  1  0  0  0  0
 37 35  2  0  0  0  0
 38 43  1  0  0  0  0
 39 40  1  0  0  0  0
 40 41  2  0  0  0  0
 42 39  2  0  0  0  0
 42 43  1  0  0  0  0
 43 44  2  0  0  0  0
 44 41  1  0  0  0  0
 45 48  1  0  0  0  0
 48 46  1  0  0  0  0
 48 47  2  0  0  0  0
 49 53  2  0  0  0  0
 50 54  1  0  0  0  0
 51 49  1  0  0  0  0
 52 55  2  0  0  0  0
 53 46  1  0  0  0  0
 54 51  2  0  0  0  0
 54 52  1  0  0  0  0
 55 53  1  0  0  0  0
M  END
>  <MODEL>
8

>  <REMARK>
 VINA RESULT:      -7.4      3.007      8.180
  Name = 
  17 active torsions:
  status: ('A' for Active; 'I' for Inactive)
    1  A    between atoms: C_1  and  C_31
    2  A    between atoms: C_2  and  C_8
    3  A    between atoms: C_7  and  O_9
    4  A    between atoms: C_8  and  N_13
    5  A    between atoms: C_8  and  C_30
    6  A    between atoms: O_9  and  C_51
    7  A    between atoms: C_10  and  C_23
    8  A    between atoms: C_12  and  C_50
    9  A    between atoms: C_14  and  N_40
   10  A    between atoms: C_17  and  N_52
   11  A    between atoms: N_18  and  C_42
   12  A    between atoms: C_23  and  N_33
   13  A    between atoms: C_30  and  C_37
   14  A    between atoms: C_31  and  N_33
   15  A    between atoms: C_31  and  N_43
   16  A    between atoms: C_34  and  N_52
   17  A    between atoms: C_45  and  C_47
                            x       y       z     vdW  Elec       q    Type
                         _______ _______ _______ _____ _____    ______ ____

>  <TORSDO>
F 17

$$$$
=
 OpenBabel11042411293D

 55 59  0  0  1  0  0  0  0  0999 V2000
  184.7300  177.4680  137.8870 C   0  0  0  0  0  0  0  0  0  0  0  0
  186.5610  178.4670  139.1250 C   0  0  0  0  0  0  0  0  0  0  0  0
  185.6890  179.3310  139.7060 N   0  0  0  0  0  0  0  0  0  0  0  0
  186.0950  177.5200  138.2120 C   0  0  0  0  0  3  0  0  0  0  0  0
  184.3650  179.3230  139.3990 C   0  0  0  0  0  3  0  0  0  0  0  0
  183.8570  178.4120  138.4720 C   0  0  0  0  0  0  0  0  0  0  0  0
  182.5380  180.7750  138.9760 O   0  0  0  0  0  1  0  0  0  0  0  0
  180.9200  179.3640  135.0420 C   0  0  0  0  0  2  0  0  0  0  0  0
  181.2890  179.2760  136.3080 C   0  0  0  0  0  0  0  0  0  0  0  0
  182.1480  178.3100  136.7780 O   0  0  0  0  0  0  0  0  0  0  0  0
  180.8670  180.2270  137.3560 C   0  0  0  0  0  2  0  0  0  0  0  0
  182.3810  178.4680  138.1650 C   0  0  2  0  0  3  0  0  0  0  0  0
  181.6410  179.7680  138.5990 C   0  0  1  0  0  0  0  0  0  0  0  0
  179.3420  178.9800  139.2380 C   0  0  0  0  0  3  0  0  0  0  0  0
  180.6490  179.4960  139.7460 C   0  0  1  0  0  3  0  0  0  0  0  0
  181.1630  178.3660  140.6440 C   0  0  2  0  0  3  0  0  0  0  0  0
  179.0450  177.7860  139.7300 C   0  0  0  0  0  3  0  0  0  0  0  0
  180.0880  177.2850  140.6660 C   0  0  0  0  0  2  0  0  0  0  0  0
  182.8090  178.6160  142.5790 C   0  0  0  0  0  0  0  0  0  0  0  0
  183.6240  177.8160  142.0480 O   0  0  0  0  0  0  0  0  0  0  0  0
  181.5140  178.8420  141.9840 N   0  0  0  0  0  0  0  0  0  0  0  0
  180.4580  179.4740  142.7680 C   0  0  0  0  0  2  0  0  0  0  0  0
  179.9660  178.5320  143.8570 C   0  0  0  0  0  1  0  0  0  0  0  0
  183.2080  179.3410  143.8250 C   0  0  0  0  0  2  0  0  0  0  0  0
  183.8430  178.4170  144.7620 N   0  0  0  0  0  2  0  0  0  0  0  0
  185.1800  180.3260  145.0170 O   0  0  0  0  0  1  0  0  0  0  0  0
  185.1490  178.9390  145.1930 C   0  0  1  0  0  0  0  0  0  0  0  0
  185.3400  178.6610  146.6600 C   0  0  0  0  0  3  0  0  0  0  0  0
  186.5460  178.5430  147.2180 C   0  0  0  0  0  2  0  0  0  0  0  0
  186.1460  177.2270  143.9980 O   0  0  0  0  0  0  0  0  0  0  0  0
  186.2230  178.3450  144.4200 N   0  0  0  0  0  0  0  0  0  0  0  0
  188.6520  177.4550  139.5080 N   0  0  0  0  0  0  0  0  0  0  0  0
  187.9530  178.5140  139.4400 N   0  0  0  0  0  0  0  0  0  0  0  0
  190.0690  177.5150  139.8470 C   0  0  1  0  0  3  0  0  0  0  0  0
  190.3030  177.1810  141.2900 C   0  0  0  0  0  0  0  0  0  0  0  0
  190.7760  178.0380  142.0830 O   0  0  0  0  0  1  0  0  0  0  0  0
  189.8960  175.9430  141.7770 O   0  0  0  0  0  0  0  0  0  0  0  0
  190.9180  176.6460  138.9090 C   0  0  0  0  0  2  0  0  0  0  0  0
  189.1620  174.6910  136.1620 C   0  0  0  0  0  3  0  0  0  0  0  0
  188.8440  175.7140  135.2620 C   0  0  0  0  0  3  0  0  0  0  0  0
  189.2110  177.0360  135.5430 C   0  0  0  0  0  3  0  0  0  0  0  0
  189.8530  174.9860  137.3410 C   0  0  0  0  0  3  0  0  0  0  0  0
  190.2260  176.3060  137.6220 C   0  0  0  0  0  0  0  0  0  0  0  0
  189.9000  177.3310  136.7230 C   0  0  0  0  0  3  0  0  0  0  0  0
  184.2290  176.5200  136.9770 O   0  0  0  0  0  0  0  0  0  0  0  0
  184.6350  174.8690  135.2000 N   0  0  0  0  0  2  0  0  0  0  0  0
  185.5220  177.0070  135.1140 O   0  0  0  0  0  0  0  0  0  0  0  0
  184.8030  176.1840  135.7400 C   0  0  0  0  0  0  0  0  0  0  0  0
  182.3600  174.0640  135.1410 N   0  0  0  0  0  0  0  0  0  0  0  0
  180.5920  171.2880  136.7000 N   0  0  0  0  0  1  0  0  0  0  0  0
  181.3920  173.2150  135.4990 N   0  0  0  0  0  0  0  0  0  0  0  0
  182.9140  172.0160  136.8730 C   0  0  0  0  0  3  0  0  0  0  0  0
  183.6330  173.9270  135.6010 C   0  0  0  0  0  0  0  0  0  0  0  0
  181.6370  172.1850  136.3460 C   0  0  0  0  0  0  0  0  0  0  0  0
  183.9220  172.9000  136.4980 C   0  0  0  0  0  3  0  0  0  0  0  0
  1  4  2  0  0  0  0
  1  6  1  0  0  0  0
  2 33  1  0  0  0  0
  2  3  2  0  0  0  0
  4  2  1  0  0  0  0
  5  3  1  0  0  0  0
  6  5  2  0  0  0  0
  8  9  2  0  0  0  0
  9 10  1  0  0  0  0
  9 11  1  0  0  0  0
 10 12  1  0  0  0  0
 11 13  1  0  0  0  0
 12  6  1  6  0  0  0
 12 13  1  0  0  0  0
 13  7  1  1  0  0  0
 13 15  1  0  0  0  0
 14 17  2  0  0  0  0
 15 14  1  6  0  0  0
 15 16  1  0  0  0  0
 16 18  1  0  0  0  0
 16 21  1  1  0  0  0
 17 18  1  0  0  0  0
 19 24  1  0  0  0  0
 20 19  2  0  0  0  0
 21 19  1  0  0  0  0
 21 22  1  0  0  0  0
 22 23  1  0  0  0  0
 24 25  1  0  0  0  0
 25 27  1  0  0  0  0
 27 26  1  6  0  0  0
 27 28  1  0  0  0  0
 28 29  2  0  0  0  0
 30 31  2  0  0  0  0
 31 27  1  0  0  0  0
 32 34  1  0  0  0  0
 33 32  2  0  0  0  0
 34 38  1  6  0  0  0
 34 35  1  0  0  0  0
 35 37  2  0  0  0  0
 35 36  1  0  0  0  0
 39 42  1  0  0  0  0
 40 41  1  0  0  0  0
 40 39  2  0  0  0  0
 41 44  2  0  0  0  0
 42 43  2  0  0  0  0
 43 38  1  0  0  0  0
 44 43  1  0  0  0  0
 45  1  1  0  0  0  0
 46 53  1  0  0  0  0
 46 48  1  0  0  0  0
 47 48  2  0  0  0  0
 48 45  1  0  0  0  0
 49 51  1  0  0  0  0
 49 53  2  0  0  0  0
 51 54  2  0  0  0  0
 53 55  1  0  0  0  0
 54 50  1  0  0  0  0
 54 52  1  0  0  0  0
 55 52  2  0  0  0  0
M  END
>  <MODEL>
9

>  <REMARK>
 VINA RESULT:      -7.3      3.914     10.964
  Name = 
  17 active torsions:
  status: ('A' for Active; 'I' for Inactive)
    1  A    between atoms: C_1  and  C_31
    2  A    between atoms: C_2  and  C_8
    3  A    between atoms: C_7  and  O_9
    4  A    between atoms: C_8  and  N_13
    5  A    between atoms: C_8  and  C_30
    6  A    between atoms: O_9  and  C_51
    7  A    between atoms: C_10  and  C_23
    8  A    between atoms: C_12  and  C_50
    9  A    between atoms: C_14  and  N_40
   10  A    between atoms: C_17  and  N_52
   11  A    between atoms: N_18  and  C_42
   12  A    between atoms: C_23  and  N_33
   13  A    between atoms: C_30  and  C_37
   14  A    between atoms: C_31  and  N_33
   15  A    between atoms: C_31  and  N_43
   16  A    between atoms: C_34  and  N_52
   17  A    between atoms: C_45  and  C_47
                            x       y       z     vdW  Elec       q    Type
                         _______ _______ _______ _____ _____    ______ ____

>  <TORSDO>
F 17

$$$$
