=
 OpenBabel11032420083D

 28 30  0  0  1  0  0  0  0  0999 V2000
  190.1950  176.8580  143.9540 C   0  0  2  0  0  3  0  0  0  0  0  0
  187.8360  177.5170  143.1290 C   0  0  0  0  0  0  0  0  0  0  0  0
  186.0880  177.9300  144.7880 C   0  0  0  0  0  0  0  0  0  0  0  0
  185.5870  178.2670  142.2960 C   0  0  0  0  0  2  0  0  0  0  0  0
  183.4840  178.9210  142.3940 C   0  0  0  0  0  2  0  0  0  0  0  0
  182.9980  179.3220  143.7820 C   0  0  0  0  0  2  0  0  0  0  0  0
  188.3130  177.2900  145.4980 C   0  0  0  0  0  3  0  0  0  0  0  0
  184.1630  179.5480  144.7360 C   0  0  0  0  0  2  0  0  0  0  0  0
  184.2890  177.7780  142.4590 O   0  0  0  0  0  0  0  0  0  0  0  0
  186.4970  177.8610  143.4300 C   0  0  0  0  0  0  0  0  0  0  0  0
  188.7440  177.2210  144.1740 C   0  0  0  0  0  0  0  0  0  0  0  0
  184.6770  178.2020  145.2210 C   0  0  0  0  0  2  0  0  0  0  0  0
  188.2820  177.4590  141.6980 C   0  0  0  0  0  1  0  0  0  0  0  0
  186.9990  177.6330  145.8000 C   0  0  0  0  0  3  0  0  0  0  0  0
  192.5060  175.3430  146.5570 C   0  0  0  0  0  3  0  0  0  0  0  0
  191.2910  177.1550  147.6020 C   0  0  0  0  0  3  0  0  0  0  0  0
  190.9070  176.6270  145.2640 C   0  0  0  0  0  0  0  0  0  0  0  0
  190.6290  177.4060  146.3970 C   0  0  0  0  0  3  0  0  0  0  0  0
  192.2350  176.1240  147.6900 C   0  0  0  0  0  0  0  0  0  0  0  0
  191.8440  175.5930  145.3520 C   0  0  0  0  0  3  0  0  0  0  0  0
  192.8770  174.7250  149.4960 O   0  0  0  0  0  0  0  0  0  0  0  0
  192.9290  175.8640  148.9610 C   0  0  0  0  0  0  0  0  0  0  0  0
  193.6500  176.8760  149.5850 O   0  0  0  0  0  1  0  0  0  0  0  0
  190.9040  177.7920  143.0580 N   0  0  0  0  0  0  0  0  0  0  0  0
  190.9460  179.9700  143.9880 O   0  0  0  0  0  1  0  0  0  0  0  0
  191.6590  178.7740  143.8460 C   0  0  0  0  0  2  0  0  0  0  0  0
  191.8140  177.5950  140.9520 C   0  0  0  0  0  1  0  0  0  0  0  0
  191.8400  177.0610  142.3040 N   0  0  0  0  0  2  0  0  0  0  0  0
  1 24  1  1  0  0  0
  1 11  1  0  0  0  0
  1 17  1  0  0  0  0
  2 10  2  0  0  0  0
  2 11  1  0  0  0  0
  3 12  1  0  0  0  0
  3 14  2  0  0  0  0
  4  9  1  0  0  0  0
  4 10  1  0  0  0  0
  5  9  1  0  0  0  0
  5  6  1  0  0  0  0
  6  8  1  0  0  0  0
  7 14  1  0  0  0  0
  8 12  1  0  0  0  0
 10  3  1  0  0  0  0
 11  7  2  0  0  0  0
 13  2  1  0  0  0  0
 15 19  1  0  0  0  0
 16 19  2  0  0  0  0
 17 20  1  0  0  0  0
 17 18  2  0  0  0  0
 18 16  1  0  0  0  0
 19 22  1  0  0  0  0
 20 15  2  0  0  0  0
 22 21  2  0  0  0  0
 22 23  1  0  0  0  0
 24 26  1  0  0  0  0
 26 25  1  0  0  0  0
 27 28  1  0  0  0  0
 28 24  1  0  0  0  0
M  END
>  <MODEL>
1

>  <REMARK>
 VINA RESULT:      -8.2      0.000      0.000
  Name = 
  6 active torsions:
  status: ('A' for Active; 'I' for Inactive)
    1  A    between atoms: C_5  and  N_10
    2  A    between atoms: C_5  and  C_15
    3  A    between atoms: C_5  and  C_21
    4  A    between atoms: N_10  and  C_16
    5  A    between atoms: N_10  and  N_17
    6  A    between atoms: C_18  and  C_26
                            x       y       z     vdW  Elec       q    Type
                         _______ _______ _______ _____ _____    ______ ____

>  <TORSDO>
F 6

$$$$
=
 OpenBabel11032420083D

 28 30  0  0  1  0  0  0  0  0999 V2000
  183.9300  179.1230  140.6740 C   0  0  2  0  0  3  0  0  0  0  0  0
  184.8240  178.6160  143.0460 C   0  0  0  0  0  0  0  0  0  0  0  0
  187.1060  177.7670  143.2800 C   0  0  0  0  0  0  0  0  0  0  0  0
  185.7010  178.2450  145.3720 C   0  0  0  0  0  2  0  0  0  0  0  0
  187.1360  177.6980  146.9530 C   0  0  0  0  0  2  0  0  0  0  0  0
  188.5790  177.5350  146.4850 C   0  0  0  0  0  2  0  0  0  0  0  0
  186.2040  178.2420  141.0840 C   0  0  0  0  0  3  0  0  0  0  0  0
  188.7900  178.1490  145.1080 C   0  0  0  0  0  2  0  0  0  0  0  0
  186.2470  177.1390  146.0280 O   0  0  0  0  0  0  0  0  0  0  0  0
  185.8790  178.1650  143.8750 C   0  0  0  0  0  0  0  0  0  0  0  0
  184.9900  178.6440  141.6400 C   0  0  0  0  0  0  0  0  0  0  0  0
  188.2590  177.1950  144.0510 C   0  0  0  0  0  2  0  0  0  0  0  0
  183.5310  179.0560  143.6660 C   0  0  0  0  0  1  0  0  0  0  0  0
  187.2460  177.8020  141.8940 C   0  0  0  0  0  3  0  0  0  0  0  0
  180.5160  177.4650  140.7650 C   0  0  0  0  0  3  0  0  0  0  0  0
  182.0920  175.8790  139.8410 C   0  0  0  0  0  3  0  0  0  0  0  0
  182.8430  178.0910  140.4990 C   0  0  0  0  0  0  0  0  0  0  0  0
  183.1160  176.8200  139.9730 C   0  0  0  0  0  3  0  0  0  0  0  0
  180.7850  176.1950  140.2350 C   0  0  0  0  0  0  0  0  0  0  0  0
  181.5400  178.4060  140.8980 C   0  0  0  0  0  3  0  0  0  0  0  0
  178.9890  175.1820  139.0590 O   0  0  0  0  0  0  0  0  0  0  0  0
  179.7100  175.2010  140.0930 C   0  0  0  0  0  0  0  0  0  0  0  0
  179.4770  174.2710  141.1000 O   0  0  0  0  0  1  0  0  0  0  0  0
  184.4800  179.6180  139.3970 N   0  0  0  0  0  0  0  0  0  0  0  0
  185.4770  178.2260  137.7610 O   0  0  0  0  0  1  0  0  0  0  0  0
  184.2660  178.6260  138.3360 C   0  0  0  0  0  2  0  0  0  0  0  0
  182.5820  180.3450  138.3160 C   0  0  0  0  0  1  0  0  0  0  0  0
  183.7730  180.7770  139.0290 N   0  0  0  0  0  2  0  0  0  0  0  0
  1 24  1  6  0  0  0
  1 11  1  0  0  0  0
  2 13  1  0  0  0  0
  2 10  1  0  0  0  0
  3 10  2  0  0  0  0
  3 12  1  0  0  0  0
  4  9  1  0  0  0  0
  6  5  1  0  0  0  0
  7 11  1  0  0  0  0
  7 14  2  0  0  0  0
  8  6  1  0  0  0  0
  9  5  1  0  0  0  0
 10  4  1  0  0  0  0
 11  2  2  0  0  0  0
 12  8  1  0  0  0  0
 14  3  1  0  0  0  0
 15 20  1  0  0  0  0
 16 18  2  0  0  0  0
 16 19  1  0  0  0  0
 17  1  1  0  0  0  0
 17 20  2  0  0  0  0
 18 17  1  0  0  0  0
 19 15  2  0  0  0  0
 21 22  2  0  0  0  0
 22 19  1  0  0  0  0
 22 23  1  0  0  0  0
 25 26  1  0  0  0  0
 26 24  1  0  0  0  0
 27 28  1  0  0  0  0
 28 24  1  0  0  0  0
M  END
>  <MODEL>
2

>  <REMARK>
 VINA RESULT:      -7.5      4.033      9.220
  Name = 
  6 active torsions:
  status: ('A' for Active; 'I' for Inactive)
    1  A    between atoms: C_5  and  N_10
    2  A    between atoms: C_5  and  C_15
    3  A    between atoms: C_5  and  C_21
    4  A    between atoms: N_10  and  C_16
    5  A    between atoms: N_10  and  N_17
    6  A    between atoms: C_18  and  C_26
                            x       y       z     vdW  Elec       q    Type
                         _______ _______ _______ _____ _____    ______ ____

>  <TORSDO>
F 6

$$$$
=
 OpenBabel11032420083D

 28 30  0  0  1  0  0  0  0  0999 V2000
  190.3030  177.6360  139.6880 C   0  0  2  0  0  3  0  0  0  0  0  0
  192.2080  176.2420  138.6330 C   0  0  0  0  0  0  0  0  0  0  0  0
  191.6190  174.3830  137.1570 C   0  0  0  0  0  0  0  0  0  0  0  0
  194.0840  174.9830  137.5340 C   0  0  0  0  0  2  0  0  0  0  0  0
  195.0640  173.4780  136.2550 C   0  0  0  0  0  2  0  0  0  0  0  0
  194.1370  172.7590  135.2800 C   0  0  0  0  0  2  0  0  0  0  0  0
  189.8800  175.7130  138.1910 C   0  0  0  0  0  3  0  0  0  0  0  0
  192.8110  173.4930  135.1290 C   0  0  0  0  0  2  0  0  0  0  0  0
  194.4490  173.6350  137.5020 O   0  0  0  0  0  0  0  0  0  0  0  0
  192.6110  175.1700  137.8030 C   0  0  0  0  0  0  0  0  0  0  0  0
  190.8310  176.5060  138.8330 C   0  0  0  0  0  0  0  0  0  0  0  0
  191.9270  173.1730  136.3240 C   0  0  0  0  0  2  0  0  0  0  0  0
  193.2470  177.0900  139.3040 C   0  0  0  0  0  1  0  0  0  0  0  0
  190.2700  174.6600  137.3700 C   0  0  0  0  0  3  0  0  0  0  0  0
  191.4490  177.9170  143.2960 C   0  0  0  0  0  3  0  0  0  0  0  0
  190.0560  175.9480  143.1070 C   0  0  0  0  0  3  0  0  0  0  0  0
  190.4680  177.3330  141.1570 C   0  0  0  0  0  0  0  0  0  0  0  0
  189.8690  176.2120  141.7470 C   0  0  0  0  0  3  0  0  0  0  0  0
  190.8460  176.7990  143.8900 C   0  0  0  0  0  0  0  0  0  0  0  0
  191.2620  178.1800  141.9370 C   0  0  0  0  0  3  0  0  0  0  0  0
  192.0370  175.8540  145.7120 O   0  0  0  0  0  0  0  0  0  0  0  0
  191.0390  176.5170  145.3210 C   0  0  0  0  0  0  0  0  0  0  0  0
  190.1220  176.9790  146.2580 O   0  0  0  0  0  1  0  0  0  0  0  0
  188.9360  178.0550  139.3250 N   0  0  0  0  0  0  0  0  0  0  0  0
  186.8450  178.6460  140.2680 O   0  0  0  0  0  1  0  0  0  0  0  0
  188.2150  178.5160  140.5190 C   0  0  0  0  0  2  0  0  0  0  0  0
  188.3980  178.7550  137.1990 C   0  0  0  0  0  1  0  0  0  0  0  0
  189.0260  179.1520  138.4480 N   0  0  0  0  0  2  0  0  0  0  0  0
  1 24  1  1  0  0  0
  1 17  1  0  0  0  0
  2 11  1  0  0  0  0
  2 13  1  0  0  0  0
  3 14  2  0  0  0  0
  3 10  1  0  0  0  0
  4 10  1  0  0  0  0
  5  9  1  0  0  0  0
  6  5  1  0  0  0  0
  7 11  2  0  0  0  0
  8  6  1  0  0  0  0
  8 12  1  0  0  0  0
  9  4  1  0  0  0  0
 10  2  2  0  0  0  0
 11  1  1  0  0  0  0
 12  3  1  0  0  0  0
 14  7  1  0  0  0  0
 15 19  1  0  0  0  0
 16 19  2  0  0  0  0
 17 18  2  0  0  0  0
 17 20  1  0  0  0  0
 18 16  1  0  0  0  0
 19 22  1  0  0  0  0
 20 15  2  0  0  0  0
 22 21  2  0  0  0  0
 22 23  1  0  0  0  0
 24 26  1  0  0  0  0
 25 26  1  0  0  0  0
 27 28  1  0  0  0  0
 28 24  1  0  0  0  0
M  END
>  <MODEL>
3

>  <REMARK>
 VINA RESULT:      -7.4      4.420      8.030
  Name = 
  6 active torsions:
  status: ('A' for Active; 'I' for Inactive)
    1  A    between atoms: C_5  and  N_10
    2  A    between atoms: C_5  and  C_15
    3  A    between atoms: C_5  and  C_21
    4  A    between atoms: N_10  and  C_16
    5  A    between atoms: N_10  and  N_17
    6  A    between atoms: C_18  and  C_26
                            x       y       z     vdW  Elec       q    Type
                         _______ _______ _______ _____ _____    ______ ____

>  <TORSDO>
F 6

$$$$
=
 OpenBabel11032420083D

 28 30  0  0  1  0  0  0  0  0999 V2000
  182.2430  178.7280  141.2880 C   0  0  2  0  0  3  0  0  0  0  0  0
  183.5360  178.1940  139.1140 C   0  0  0  0  0  0  0  0  0  0  0  0
  183.4370  175.9190  138.2220 C   0  0  0  0  0  0  0  0  0  0  0  0
  184.7090  177.7390  136.9390 C   0  0  0  0  0  2  0  0  0  0  0  0
  185.4110  176.5860  135.1960 C   0  0  0  0  0  2  0  0  0  0  0  0
  184.7410  175.2290  135.0090 C   0  0  0  0  0  2  0  0  0  0  0  0
  182.2640  176.4760  140.2650 C   0  0  0  0  0  3  0  0  0  0  0  0
  183.4680  175.1180  135.8380 C   0  0  0  0  0  2  0  0  0  0  0  0
  185.6870  176.8220  136.5470 O   0  0  0  0  0  0  0  0  0  0  0  0
  183.9140  177.2530  138.1270 C   0  0  0  0  0  0  0  0  0  0  0  0
  182.7120  177.7950  140.1940 C   0  0  0  0  0  0  0  0  0  0  0  0
  183.8400  174.8210  137.2820 C   0  0  0  0  0  2  0  0  0  0  0  0
  184.0200  179.6100  139.0130 C   0  0  0  0  0  1  0  0  0  0  0  0
  182.6280  175.5490  139.2940 C   0  0  0  0  0  3  0  0  0  0  0  0
  183.4520  178.9490  144.8800 C   0  0  0  0  0  3  0  0  0  0  0  0
  185.3230  178.2720  143.5030 C   0  0  0  0  0  3  0  0  0  0  0  0
  183.1500  178.6600  142.4910 C   0  0  0  0  0  0  0  0  0  0  0  0
  184.5020  178.3070  142.3720 C   0  0  0  0  0  3  0  0  0  0  0  0
  184.8030  178.5910  144.7640 C   0  0  0  0  0  0  0  0  0  0  0  0
  182.6320  178.9860  143.7490 C   0  0  0  0  0  3  0  0  0  0  0  0
  185.4910  179.3610  146.9010 O   0  0  0  0  0  1  0  0  0  0  0  0
  185.6700  178.5520  145.9520 C   0  0  0  0  0  0  0  0  0  0  0  0
  186.6990  177.6210  146.0390 O   0  0  0  0  0  0  0  0  0  0  0  0
  180.8140  178.5690  141.6210 N   0  0  0  0  0  0  0  0  0  0  0  0
  180.0500  180.8040  141.4520 O   0  0  0  0  0  1  0  0  0  0  0  0
  180.3270  179.7550  142.3360 C   0  0  0  0  0  2  0  0  0  0  0  0
  178.9310  177.6390  140.6800 C   0  0  0  0  0  1  0  0  0  0  0  0
  180.0860  178.4820  140.4210 N   0  0  0  0  0  2  0  0  0  0  0  0
  1 24  1  1  0  0  0
  1 17  1  0  0  0  0
  2 11  1  0  0  0  0
  3 14  2  0  0  0  0
  4 10  1  0  0  0  0
  5  9  1  0  0  0  0
  6  5  1  0  0  0  0
  6  8  1  0  0  0  0
  8 12  1  0  0  0  0
  9  4  1  0  0  0  0
 10  3  1  0  0  0  0
 10  2  2  0  0  0  0
 11  7  2  0  0  0  0
 11  1  1  0  0  0  0
 12  3  1  0  0  0  0
 13  2  1  0  0  0  0
 14  7  1  0  0  0  0
 16 19  2  0  0  0  0
 17 20  1  0  0  0  0
 18 17  2  0  0  0  0
 18 16  1  0  0  0  0
 19 15  1  0  0  0  0
 19 22  1  0  0  0  0
 20 15  2  0  0  0  0
 22 23  2  0  0  0  0
 22 21  1  0  0  0  0
 24 26  1  0  0  0  0
 25 26  1  0  0  0  0
 28 27  1  0  0  0  0
 28 24  1  0  0  0  0
M  END
>  <MODEL>
4

>  <REMARK>
 VINA RESULT:      -7.3      5.609      8.748
  Name = 
  6 active torsions:
  status: ('A' for Active; 'I' for Inactive)
    1  A    between atoms: C_5  and  N_10
    2  A    between atoms: C_5  and  C_15
    3  A    between atoms: C_5  and  C_21
    4  A    between atoms: N_10  and  C_16
    5  A    between atoms: N_10  and  N_17
    6  A    between atoms: C_18  and  C_26
                            x       y       z     vdW  Elec       q    Type
                         _______ _______ _______ _____ _____    ______ ____

>  <TORSDO>
F 6

$$$$
=
 OpenBabel11032420083D

 28 30  0  0  1  0  0  0  0  0999 V2000
  189.0480  177.2580  139.8460 C   0  0  2  0  0  3  0  0  0  0  0  0
  187.9790  177.5810  142.1770 C   0  0  0  0  0  0  0  0  0  0  0  0
  189.2850  176.9840  144.1580 C   0  0  0  0  0  0  0  0  0  0  0  0
  186.9530  178.0170  144.4300 C   0  0  0  0  0  2  0  0  0  0  0  0
  186.7970  178.0830  146.6280 C   0  0  0  0  0  2  0  0  0  0  0  0
  188.1100  177.8640  147.3740 C   0  0  0  0  0  2  0  0  0  0  0  0
  190.2230  176.6860  141.9460 C   0  0  0  0  0  3  0  0  0  0  0  0
  189.3090  178.0220  146.4480 C   0  0  0  0  0  2  0  0  0  0  0  0
  186.6920  177.2100  145.5400 O   0  0  0  0  0  0  0  0  0  0  0  0
  188.0820  177.4780  143.5850 C   0  0  0  0  0  0  0  0  0  0  0  0
  189.0570  177.1720  141.3560 C   0  0  0  0  0  0  0  0  0  0  0  0
  189.4740  176.7530  145.6280 C   0  0  0  0  0  2  0  0  0  0  0  0
  186.7200  178.1190  141.5650 C   0  0  0  0  0  1  0  0  0  0  0  0
  190.3320  176.5860  143.3290 C   0  0  0  0  0  3  0  0  0  0  0  0
  191.4650  175.1690  137.7970 C   0  0  0  0  0  3  0  0  0  0  0  0
  192.7580  176.7530  139.0890 C   0  0  0  0  0  3  0  0  0  0  0  0
  190.3370  176.7390  139.2610 C   0  0  0  0  0  0  0  0  0  0  0  0
  191.5790  177.2690  139.6350 C   0  0  0  0  0  3  0  0  0  0  0  0
  192.7090  175.7010  138.1660 C   0  0  0  0  0  0  0  0  0  0  0  0
  190.2870  175.6840  138.3440 C   0  0  0  0  0  3  0  0  0  0  0  0
  194.3170  173.9840  137.8520 O   0  0  0  0  0  1  0  0  0  0  0  0
  193.9530  175.1620  137.5930 C   0  0  0  0  0  0  0  0  0  0  0  0
  194.7400  175.9490  136.7600 O   0  0  0  0  0  0  0  0  0  0  0  0
  188.6660  178.5900  139.3370 N   0  0  0  0  0  0  0  0  0  0  0  0
  189.0550  180.1450  137.5940 O   0  0  0  0  0  1  0  0  0  0  0  0
  189.4280  178.9030  138.1220 C   0  0  0  0  0  2  0  0  0  0  0  0
  187.1600  177.5260  137.9580 C   0  0  0  0  0  1  0  0  0  0  0  0
  187.3070  178.5540  138.9750 N   0  0  0  0  0  2  0  0  0  0  0  0
  1 24  1  1  0  0  0
  1 11  1  0  0  0  0
  2 10  1  0  0  0  0
  3 12  1  0  0  0  0
  4  9  1  0  0  0  0
  5  6  1  0  0  0  0
  7 14  2  0  0  0  0
  8  6  1  0  0  0  0
  9  5  1  0  0  0  0
 10  3  2  0  0  0  0
 10  4  1  0  0  0  0
 11  7  1  0  0  0  0
 11  2  2  0  0  0  0
 12  8  1  0  0  0  0
 13  2  1  0  0  0  0
 14  3  1  0  0  0  0
 15 19  2  0  0  0  0
 15 20  1  0  0  0  0
 16 18  2  0  0  0  0
 17 18  1  0  0  0  0
 17  1  1  0  0  0  0
 19 16  1  0  0  0  0
 20 17  2  0  0  0  0
 22 21  1  0  0  0  0
 22 19  1  0  0  0  0
 23 22  2  0  0  0  0
 25 26  1  0  0  0  0
 26 24  1  0  0  0  0
 27 28  1  0  0  0  0
 28 24  1  0  0  0  0
M  END
>  <MODEL>
5

>  <REMARK>
 VINA RESULT:      -7.2      3.803      6.572
  Name = 
  6 active torsions:
  status: ('A' for Active; 'I' for Inactive)
    1  A    between atoms: C_5  and  N_10
    2  A    between atoms: C_5  and  C_15
    3  A    between atoms: C_5  and  C_21
    4  A    between atoms: N_10  and  C_16
    5  A    between atoms: N_10  and  N_17
    6  A    between atoms: C_18  and  C_26
                            x       y       z     vdW  Elec       q    Type
                         _______ _______ _______ _____ _____    ______ ____

>  <TORSDO>
F 6

$$$$
=
 OpenBabel11032420083D

 28 30  0  0  1  0  0  0  0  0999 V2000
  181.0360  178.6880  139.8580 C   0  0  2  0  0  3  0  0  0  0  0  0
  183.1940  178.5210  141.2710 C   0  0  0  0  0  0  0  0  0  0  0  0
  183.0590  178.9690  143.6720 C   0  0  0  0  0  0  0  0  0  0  0  0
  185.2870  178.2370  142.6330 C   0  0  0  0  0  2  0  0  0  0  0  0
  186.5750  178.2110  144.4220 C   0  0  0  0  0  2  0  0  0  0  0  0
  185.8310  178.2710  145.7520 C   0  0  0  0  0  2  0  0  0  0  0  0
  181.0770  179.1280  142.2910 C   0  0  0  0  0  3  0  0  0  0  0  0
  184.3510  177.9560  145.5770 C   0  0  0  0  0  2  0  0  0  0  0  0
  185.9980  179.0810  143.4900 O   0  0  0  0  0  0  0  0  0  0  0  0
  183.8320  178.6240  142.5310 C   0  0  0  0  0  0  0  0  0  0  0  0
  181.8080  178.7850  141.1540 C   0  0  0  0  0  0  0  0  0  0  0  0
  183.6420  179.1870  145.0370 C   0  0  0  0  0  2  0  0  0  0  0  0
  183.9980  178.1400  140.0640 C   0  0  0  0  0  1  0  0  0  0  0  0
  181.6970  179.2250  143.5330 C   0  0  0  0  0  3  0  0  0  0  0  0
  181.1980  181.9660  137.9510 C   0  0  0  0  0  3  0  0  0  0  0  0
  179.1810  181.9790  139.2890 C   0  0  0  0  0  3  0  0  0  0  0  0
  180.6590  180.0540  139.3420 C   0  0  0  0  0  0  0  0  0  0  0  0
  179.4940  180.7050  139.7710 C   0  0  0  0  0  3  0  0  0  0  0  0
  180.0300  182.6170  138.3750 C   0  0  0  0  0  0  0  0  0  0  0  0
  181.5100  180.6930  138.4340 C   0  0  0  0  0  3  0  0  0  0  0  0
  179.2330  184.8360  138.6460 O   0  0  0  0  0  1  0  0  0  0  0  0
  179.6960  183.9580  137.8700 C   0  0  0  0  0  0  0  0  0  0  0  0
  179.8880  184.2710  136.5290 O   0  0  0  0  0  0  0  0  0  0  0  0
  179.8990  177.7500  139.9220 N   0  0  0  0  0  0  0  0  0  0  0  0
  180.1270  176.9840  137.6930 O   0  0  0  0  0  1  0  0  0  0  0  0
  179.2730  177.6230  138.6000 C   0  0  0  0  0  2  0  0  0  0  0  0
  179.3160  175.7740  140.9490 C   0  0  0  0  0  1  0  0  0  0  0  0
  180.3910  176.4790  140.2700 N   0  0  0  0  0  2  0  0  0  0  0  0
  1 24  1  1  0  0  0
  1 11  1  0  0  0  0
  2 10  1  0  0  0  0
  3 12  1  0  0  0  0
  4  9  1  0  0  0  0
  5  6  1  0  0  0  0
  7 14  2  0  0  0  0
  8  6  1  0  0  0  0
  9  5  1  0  0  0  0
 10  4  1  0  0  0  0
 10  3  2  0  0  0  0
 11  2  2  0  0  0  0
 11  7  1  0  0  0  0
 12  8  1  0  0  0  0
 13  2  1  0  0  0  0
 14  3  1  0  0  0  0
 15 19  2  0  0  0  0
 15 20  1  0  0  0  0
 16 18  2  0  0  0  0
 17 18  1  0  0  0  0
 17  1  1  0  0  0  0
 19 16  1  0  0  0  0
 20 17  2  0  0  0  0
 22 19  1  0  0  0  0
 22 21  1  0  0  0  0
 23 22  2  0  0  0  0
 24 28  1  0  0  0  0
 25 26  1  0  0  0  0
 26 24  1  0  0  0  0
 28 27  1  0  0  0  0
M  END
>  <MODEL>
6

>  <REMARK>
 VINA RESULT:      -7.2      5.588     11.344
  Name = 
  6 active torsions:
  status: ('A' for Active; 'I' for Inactive)
    1  A    between atoms: C_5  and  N_10
    2  A    between atoms: C_5  and  C_15
    3  A    between atoms: C_5  and  C_21
    4  A    between atoms: N_10  and  C_16
    5  A    between atoms: N_10  and  N_17
    6  A    between atoms: C_18  and  C_26
                            x       y       z     vdW  Elec       q    Type
                         _______ _______ _______ _____ _____    ______ ____

>  <TORSDO>
F 6

$$$$
=
 OpenBabel11032420083D

 28 30  0  0  1  0  0  0  0  0999 V2000
  189.3950  177.9220  141.4060 C   0  0  2  0  0  3  0  0  0  0  0  0
  191.3070  177.1420  139.8510 C   0  0  0  0  0  0  0  0  0  0  0  0
  190.7330  175.9060  137.8200 C   0  0  0  0  0  0  0  0  0  0  0  0
  193.1810  176.5000  138.3050 C   0  0  0  0  0  2  0  0  0  0  0  0
  194.1630  175.6320  136.5330 C   0  0  0  0  0  2  0  0  0  0  0  0
  193.2210  175.2510  135.3950 C   0  0  0  0  0  2  0  0  0  0  0  0
  188.9890  176.6470  139.3270 C   0  0  0  0  0  3  0  0  0  0  0  0
  191.8520  175.8950  135.5680 C   0  0  0  0  0  2  0  0  0  0  0  0
  193.6130  175.2830  137.7710 O   0  0  0  0  0  0  0  0  0  0  0  0
  191.7170  176.4730  138.6730 C   0  0  0  0  0  0  0  0  0  0  0  0
  189.9320  177.2180  140.1800 C   0  0  0  0  0  0  0  0  0  0  0  0
  191.0560  175.1050  136.5930 C   0  0  0  0  0  2  0  0  0  0  0  0
  192.3370  177.7600  140.7490 C   0  0  0  0  0  1  0  0  0  0  0  0
  189.3860  175.9930  138.1650 C   0  0  0  0  0  3  0  0  0  0  0  0
  190.9590  175.6270  143.9940 C   0  0  0  0  0  3  0  0  0  0  0  0
  191.1420  177.9000  144.8040 C   0  0  0  0  0  3  0  0  0  0  0  0
  190.1000  177.4580  142.6560 C   0  0  0  0  0  0  0  0  0  0  0  0
  190.5080  178.3630  143.6470 C   0  0  0  0  0  3  0  0  0  0  0  0
  191.3730  176.5300  144.9840 C   0  0  0  0  0  0  0  0  0  0  0  0
  190.3240  176.0900  142.8390 C   0  0  0  0  0  3  0  0  0  0  0  0
  192.0550  176.7560  147.2460 O   0  0  0  0  0  1  0  0  0  0  0  0
  192.0420  176.0490  146.2030 C   0  0  0  0  0  0  0  0  0  0  0  0
  192.6670  174.8070  146.2160 O   0  0  0  0  0  0  0  0  0  0  0  0
  187.9240  177.8770  141.5110 N   0  0  0  0  0  0  0  0  0  0  0  0
  187.0520  176.7500  143.4040 O   0  0  0  0  0  1  0  0  0  0  0  0
  187.5140  177.9790  142.9170 C   0  0  0  0  0  2  0  0  0  0  0  0
  185.9620  179.0020  141.0810 C   0  0  0  0  0  1  0  0  0  0  0  0
  187.3960  178.9980  140.8440 N   0  0  0  0  0  2  0  0  0  0  0  0
  1 24  1  1  0  0  0
  1 17  1  0  0  0  0
  2 11  1  0  0  0  0
  2 13  1  0  0  0  0
  3 14  2  0  0  0  0
  3 10  1  0  0  0  0
  4 10  1  0  0  0  0
  5  9  1  0  0  0  0
  6  8  1  0  0  0  0
  6  5  1  0  0  0  0
  7 11  2  0  0  0  0
  8 12  1  0  0  0  0
  9  4  1  0  0  0  0
 10  2  2  0  0  0  0
 11  1  1  0  0  0  0
 12  3  1  0  0  0  0
 14  7  1  0  0  0  0
 15 19  1  0  0  0  0
 16 19  2  0  0  0  0
 17 20  1  0  0  0  0
 17 18  2  0  0  0  0
 18 16  1  0  0  0  0
 19 22  1  0  0  0  0
 20 15  2  0  0  0  0
 22 23  2  0  0  0  0
 22 21  1  0  0  0  0
 24 26  1  0  0  0  0
 26 25  1  0  0  0  0
 28 27  1  0  0  0  0
 28 24  1  0  0  0  0
M  END
>  <MODEL>
7

>  <REMARK>
 VINA RESULT:      -7.0      3.407      6.879
  Name = 
  6 active torsions:
  status: ('A' for Active; 'I' for Inactive)
    1  A    between atoms: C_5  and  N_10
    2  A    between atoms: C_5  and  C_15
    3  A    between atoms: C_5  and  C_21
    4  A    between atoms: N_10  and  C_16
    5  A    between atoms: N_10  and  N_17
    6  A    between atoms: C_18  and  C_26
                            x       y       z     vdW  Elec       q    Type
                         _______ _______ _______ _____ _____    ______ ____

>  <TORSDO>
F 6

$$$$
=
 OpenBabel11032420083D

 28 30  0  0  1  0  0  0  0  0999 V2000
  183.4730  178.6510  138.9670 C   0  0  2  0  0  3  0  0  0  0  0  0
  184.8810  176.9380  137.6380 C   0  0  0  0  0  0  0  0  0  0  0  0
  184.1360  174.6090  137.5730 C   0  0  0  0  0  0  0  0  0  0  0  0
  186.2090  175.3240  136.2430 C   0  0  0  0  0  2  0  0  0  0  0  0
  186.7690  173.4060  135.3110 C   0  0  0  0  0  2  0  0  0  0  0  0
  185.7000  172.3200  135.3800 C   0  0  0  0  0  2  0  0  0  0  0  0
  182.8710  176.2570  138.8170 C   0  0  0  0  0  3  0  0  0  0  0  0
  184.3390  172.9000  135.7390 C   0  0  0  0  0  2  0  0  0  0  0  0
  186.8420  174.1090  136.5190 O   0  0  0  0  0  0  0  0  0  0  0  0
  185.0760  175.6060  137.2000 C   0  0  0  0  0  0  0  0  0  0  0  0
  183.7740  177.2580  138.4600 C   0  0  0  0  0  0  0  0  0  0  0  0
  184.2860  173.1550  137.2370 C   0  0  0  0  0  2  0  0  0  0  0  0
  185.8580  178.0010  137.2340 C   0  0  0  0  0  1  0  0  0  0  0  0
  183.0540  174.9480  138.3840 C   0  0  0  0  0  3  0  0  0  0  0  0
  185.2490  179.0370  142.2990 C   0  0  0  0  0  3  0  0  0  0  0  0
  182.8940  178.7060  142.7430 C   0  0  0  0  0  3  0  0  0  0  0  0
  183.7020  178.7540  140.4540 C   0  0  0  0  0  0  0  0  0  0  0  0
  182.6470  178.6250  141.3690 C   0  0  0  0  0  3  0  0  0  0  0  0
  184.1960  178.9140  143.2160 C   0  0  0  0  0  0  0  0  0  0  0  0
  185.0030  178.9550  140.9260 C   0  0  0  0  0  3  0  0  0  0  0  0
  183.4940  179.1350  145.4730 O   0  0  0  0  0  1  0  0  0  0  0  0
  184.4500  178.9990  144.6630 C   0  0  0  0  0  0  0  0  0  0  0  0
  185.7500  178.9310  145.1520 O   0  0  0  0  0  0  0  0  0  0  0  0
  182.1550  179.1580  138.5390 N   0  0  0  0  0  0  0  0  0  0  0  0
  181.0280  181.0990  139.2950 O   0  0  0  0  0  1  0  0  0  0  0  0
  182.1380  180.6250  138.5860 C   0  0  0  0  0  2  0  0  0  0  0  0
  180.5280  178.5310  137.0350 C   0  0  0  0  0  1  0  0  0  0  0  0
  181.9500  178.7860  137.1980 N   0  0  0  0  0  2  0  0  0  0  0  0
  1 24  1  1  0  0  0
  1 17  1  0  0  0  0
  2 11  1  0  0  0  0
  3 14  2  0  0  0  0
  4  9  1  0  0  0  0
  4 10  1  0  0  0  0
  5  6  1  0  0  0  0
  5  9  1  0  0  0  0
  6  8  1  0  0  0  0
  8 12  1  0  0  0  0
 10  3  1  0  0  0  0
 10  2  2  0  0  0  0
 11  7  2  0  0  0  0
 11  1  1  0  0  0  0
 12  3  1  0  0  0  0
 13  2  1  0  0  0  0
 14  7  1  0  0  0  0
 15 19  1  0  0  0  0
 16 19  2  0  0  0  0
 17 20  1  0  0  0  0
 17 18  2  0  0  0  0
 18 16  1  0  0  0  0
 19 22  1  0  0  0  0
 20 15  2  0  0  0  0
 22 23  2  0  0  0  0
 22 21  1  0  0  0  0
 24 26  1  0  0  0  0
 26 25  1  0  0  0  0
 27 28  1  0  0  0  0
 28 24  1  0  0  0  0
M  END
>  <MODEL>
8

>  <REMARK>
 VINA RESULT:      -7.0      6.275      9.334
  Name = 
  6 active torsions:
  status: ('A' for Active; 'I' for Inactive)
    1  A    between atoms: C_5  and  N_10
    2  A    between atoms: C_5  and  C_15
    3  A    between atoms: C_5  and  C_21
    4  A    between atoms: N_10  and  C_16
    5  A    between atoms: N_10  and  N_17
    6  A    between atoms: C_18  and  C_26
                            x       y       z     vdW  Elec       q    Type
                         _______ _______ _______ _____ _____    ______ ____

>  <TORSDO>
F 6

$$$$
=
 OpenBabel11032420083D

 28 30  0  0  1  0  0  0  0  0999 V2000
  190.2280  177.8040  142.4800 C   0  0  2  0  0  3  0  0  0  0  0  0
  187.7930  178.1280  143.2850 C   0  0  0  0  0  0  0  0  0  0  0  0
  186.0720  178.6550  141.6280 C   0  0  0  0  0  0  0  0  0  0  0  0
  185.4190  178.3230  144.0860 C   0  0  0  0  0  2  0  0  0  0  0  0
  183.2390  178.6320  143.9680 C   0  0  0  0  0  2  0  0  0  0  0  0
  182.6610  178.6100  142.5570 C   0  0  0  0  0  2  0  0  0  0  0  0
  188.3740  178.3590  140.9390 C   0  0  0  0  0  3  0  0  0  0  0  0
  183.6430  178.0050  141.5620 C   0  0  0  0  0  2  0  0  0  0  0  0
  184.4530  179.3280  143.9970 O   0  0  0  0  0  0  0  0  0  0  0  0
  186.4410  178.4130  142.9790 C   0  0  0  0  0  0  0  0  0  0  0  0
  188.7640  178.1120  142.2550 C   0  0  0  0  0  0  0  0  0  0  0  0
  184.6890  179.0470  141.1990 C   0  0  0  0  0  2  0  0  0  0  0  0
  188.1880  177.8540  144.7050 C   0  0  0  0  0  1  0  0  0  0  0  0
  187.0460  178.6340  140.6320 C   0  0  0  0  0  3  0  0  0  0  0  0
  192.8690  177.1320  139.8380 C   0  0  0  0  0  3  0  0  0  0  0  0
  190.7860  176.1660  139.0740 C   0  0  0  0  0  3  0  0  0  0  0  0
  190.8820  177.3020  141.2170 C   0  0  0  0  0  0  0  0  0  0  0  0
  190.1560  176.6020  140.2430 C   0  0  0  0  0  3  0  0  0  0  0  0
  192.1470  176.4270  138.8650 C   0  0  0  0  0  0  0  0  0  0  0  0
  192.2390  177.5690  141.0060 C   0  0  0  0  0  3  0  0  0  0  0  0
  193.9340  176.4200  137.3030 O   0  0  0  0  0  1  0  0  0  0  0  0
  192.8050  175.9650  137.6330 C   0  0  0  0  0  0  0  0  0  0  0  0
  192.1890  175.0230  136.8180 O   0  0  0  0  0  0  0  0  0  0  0  0
  190.4710  176.9400  143.6510 N   0  0  0  0  0  0  0  0  0  0  0  0
  191.8610  175.0310  143.8330 O   0  0  0  0  0  1  0  0  0  0  0  0
  190.7210  175.5600  143.2170 C   0  0  0  0  0  2  0  0  0  0  0  0
  191.5790  178.8390  144.3350 C   0  0  0  0  0  1  0  0  0  0  0  0
  191.6380  177.3870  144.2980 N   0  0  0  0  0  2  0  0  0  0  0  0
  1 24  1  1  0  0  0
  2 13  1  0  0  0  0
  3 10  2  0  0  0  0
  5  9  1  0  0  0  0
  6  5  1  0  0  0  0
  7 11  1  0  0  0  0
  8  6  1  0  0  0  0
  9  4  1  0  0  0  0
 10  2  1  0  0  0  0
 10  4  1  0  0  0  0
 11  1  1  0  0  0  0
 11  2  2  0  0  0  0
 12  8  1  0  0  0  0
 12  3  1  0  0  0  0
 14  7  2  0  0  0  0
 14  3  1  0  0  0  0
 15 20  1  0  0  0  0
 16 18  2  0  0  0  0
 17  1  1  0  0  0  0
 18 17  1  0  0  0  0
 19 16  1  0  0  0  0
 19 15  2  0  0  0  0
 20 17  2  0  0  0  0
 21 22  1  0  0  0  0
 22 19  1  0  0  0  0
 23 22  2  0  0  0  0
 24 28  1  0  0  0  0
 26 24  1  0  0  0  0
 26 25  1  0  0  0  0
 28 27  1  0  0  0  0
M  END
>  <MODEL>
9

>  <REMARK>
 VINA RESULT:      -7.0      2.890      5.682
  Name = 
  6 active torsions:
  status: ('A' for Active; 'I' for Inactive)
    1  A    between atoms: C_5  and  N_10
    2  A    between atoms: C_5  and  C_15
    3  A    between atoms: C_5  and  C_21
    4  A    between atoms: N_10  and  C_16
    5  A    between atoms: N_10  and  N_17
    6  A    between atoms: C_18  and  C_26
                            x       y       z     vdW  Elec       q    Type
                         _______ _______ _______ _____ _____    ______ ____

>  <TORSDO>
F 6

$$$$
