=
 OpenBabel11032420293D

 33 37  0  0  1  0  0  0  0  0999 V2000
  189.1420  176.5930  144.0360 C   0  0  2  0  0  3  0  0  0  0  0  0
  183.9410  178.8350  144.6840 C   0  0  0  0  0  3  0  0  0  0  0  0
  185.6900  177.9390  143.2510 C   0  0  0  0  0  0  0  0  0  0  0  0
  183.1270  179.0420  143.5650 C   0  0  0  0  0  0  0  0  0  0  0  0
  183.6020  178.6940  142.2890 C   0  0  0  0  0  3  0  0  0  0  0  0
  185.2170  178.2860  144.5370 C   0  0  0  0  0  0  0  0  0  0  0  0
  186.0290  178.0800  145.6550 C   0  0  0  0  0  3  0  0  0  0  0  0
  184.8790  178.1450  142.1330 C   0  0  0  0  0  3  0  0  0  0  0  0
  186.9670  177.3910  143.1020 C   0  0  0  0  0  3  0  0  0  0  0  0
  187.7780  177.1850  144.2240 C   0  0  0  0  0  0  0  0  0  0  0  0
  187.3050  177.5300  145.5000 C   0  0  0  0  0  3  0  0  0  0  0  0
  181.8560  179.5920  143.7480 O   0  0  0  0  0  0  0  0  0  0  0  0
  180.6700  178.8090  143.7210 C   0  0  0  0  0  1  0  0  0  0  0  0
  190.7710  177.2210  146.0100 C   0  0  0  0  0  2  0  0  0  0  0  0
  190.1940  178.8620  144.3080 O   0  0  0  0  0  1  0  0  0  0  0  0
  191.6360  176.9530  144.7790 C   0  0  0  0  0  2  0  0  0  0  0  0
  190.2370  177.5050  144.6250 C   0  0  0  0  0  0  0  0  0  0  0  0
  189.3480  176.1890  142.6060 C   0  0  0  0  0  3  0  0  0  0  0  0
  189.9050  177.0230  141.7350 C   0  0  0  0  0  3  0  0  0  0  0  0
  190.1160  176.6830  140.3590 N   0  0  0  0  0  2  0  0  0  0  0  0
  189.2480  178.6190  139.3510 O   0  0  0  0  0  0  0  0  0  0  0  0
  189.7890  177.4890  139.2160 C   0  0  0  0  0  0  0  0  0  0  0  0
  193.7240  175.7070  138.0530 C   0  0  0  0  0  3  0  0  0  0  0  0
  189.7460  174.7780  137.1420 C   0  0  0  0  0  0  0  0  0  0  0  0
  189.0990  176.0170  137.4050 N   0  0  0  0  0  0  0  0  0  0  0  0
  192.6690  176.6300  138.1490 C   0  0  0  0  0  3  0  0  0  0  0  0
  187.7490  176.3520  136.9850 C   0  0  0  0  0  1  0  0  0  0  0  0
  189.1640  173.7470  136.7100 O   0  0  0  0  0  0  0  0  0  0  0  0
  191.1530  174.9000  137.4200 C   0  0  0  0  0  0  0  0  0  0  0  0
  190.1020  176.9950  137.8390 C   0  0  2  0  0  3  0  0  0  0  0  0
  191.3800  176.1970  137.8310 C   0  0  0  0  0  0  0  0  0  0  0  0
  192.1800  173.9650  137.3120 C   0  0  0  0  0  3  0  0  0  0  0  0
  193.4810  174.3820  137.6380 C   0  0  0  0  0  3  0  0  0  0  0  0
  1 18  1  6  0  0  0
  1 10  1  0  0  0  0
  1 17  1  0  0  0  0
  3  6  1  0  0  0  0
  4 12  1  0  0  0  0
  4  2  2  0  0  0  0
  5  4  1  0  0  0  0
  6  2  1  0  0  0  0
  6  7  2  0  0  0  0
  8  5  2  0  0  0  0
  8  3  1  0  0  0  0
  9  3  2  0  0  0  0
  9 10  1  0  0  0  0
 10 11  2  0  0  0  0
 11  7  1  0  0  0  0
 13 12  1  0  0  0  0
 15 17  1  0  0  0  0
 16 14  1  0  0  0  0
 17 16  1  0  0  0  0
 17 14  1  0  0  0  0
 19 18  2  0  0  0  0
 20 19  1  0  0  0  0
 22 21  2  0  0  0  0
 22 20  1  0  0  0  0
 23 26  1  0  0  0  0
 24 25  1  0  0  0  0
 24 29  1  0  0  0  0
 25 30  1  0  0  0  0
 27 25  1  0  0  0  0
 28 24  2  0  0  0  0
 29 31  1  0  0  0  0
 30 22  1  1  0  0  0
 31 30  1  0  0  0  0
 31 26  2  0  0  0  0
 32 29  2  0  0  0  0
 32 33  1  0  0  0  0
 33 23  2  0  0  0  0
M  END
>  <MODEL>
1

>  <REMARK>
 VINA RESULT:      -9.8      0.000      0.000
  Name = 
  6 active torsions:
  status: ('A' for Active; 'I' for Inactive)
    1  A    between atoms: C_1  and  C_11
    2  A    between atoms: C_6  and  O_7
    3  A    between atoms: C_11  and  C_25
    4  A    between atoms: C_11  and  C_33
    5  A    between atoms: N_12  and  C_16
    6  A    between atoms: C_23  and  C_28
                            x       y       z     vdW  Elec       q    Type
                         _______ _______ _______ _____ _____    ______ ____

>  <TORSDO>
F 6

$$$$
=
 OpenBabel11032420293D

 33 37  0  0  1  0  0  0  0  0999 V2000
  188.8360  177.1900  138.1970 C   0  0  2  0  0  3  0  0  0  0  0  0
  192.5540  173.2240  136.4820 C   0  0  0  0  0  3  0  0  0  0  0  0
  192.0930  175.4120  137.4390 C   0  0  0  0  0  0  0  0  0  0  0  0
  193.9280  173.4610  136.5970 C   0  0  0  0  0  0  0  0  0  0  0  0
  194.3790  174.6780  137.1350 C   0  0  0  0  0  3  0  0  0  0  0  0
  191.6340  174.1890  136.8990 C   0  0  0  0  0  0  0  0  0  0  0  0
  190.2620  173.9510  136.7840 C   0  0  0  0  0  3  0  0  0  0  0  0
  193.4640  175.6500  137.5550 C   0  0  0  0  0  3  0  0  0  0  0  0
  191.1740  176.3780  137.8560 C   0  0  0  0  0  3  0  0  0  0  0  0
  189.8000  176.1380  137.7390 C   0  0  0  0  0  0  0  0  0  0  0  0
  189.3480  174.9220  137.2030 C   0  0  0  0  0  3  0  0  0  0  0  0
  194.8210  172.4740  136.1710 O   0  0  0  0  0  0  0  0  0  0  0  0
  196.0730  172.2470  136.8040 C   0  0  0  0  0  1  0  0  0  0  0  0
  188.5610  177.7320  135.6320 C   0  0  0  0  0  2  0  0  0  0  0  0
  188.9440  179.5160  137.2430 O   0  0  0  0  0  1  0  0  0  0  0  0
  187.2290  178.0560  136.3070 C   0  0  0  0  0  2  0  0  0  0  0  0
  188.5270  178.1970  137.0700 C   0  0  0  0  0  0  0  0  0  0  0  0
  189.2960  177.7990  139.4890 C   0  0  0  0  0  3  0  0  0  0  0  0
  188.5790  177.6680  140.5990 C   0  0  0  0  0  3  0  0  0  0  0  0
  188.9770  178.2370  141.8530 N   0  0  0  0  0  2  0  0  0  0  0  0
  188.6140  176.3800  143.2440 O   0  0  0  0  0  0  0  0  0  0  0  0
  188.9870  177.5770  143.1290 C   0  0  0  0  0  0  0  0  0  0  0  0
  186.7580  177.6430  147.0080 C   0  0  0  0  0  3  0  0  0  0  0  0
  190.8110  177.3380  146.0060 C   0  0  0  0  0  0  0  0  0  0  0  0
  190.8210  177.8960  144.6970 N   0  0  0  0  0  0  0  0  0  0  0  0
  187.2910  178.0790  145.7820 C   0  0  0  0  0  3  0  0  0  0  0  0
  192.0170  178.3040  143.9800 C   0  0  0  0  0  1  0  0  0  0  0  0
  191.8350  176.9280  146.6140 O   0  0  0  0  0  0  0  0  0  0  0  0
  189.4660  177.3430  146.5210 C   0  0  0  0  0  0  0  0  0  0  0  0
  189.4590  178.3100  144.3450 C   0  0  2  0  0  3  0  0  0  0  0  0
  188.6580  177.9110  145.5580 C   0  0  0  0  0  0  0  0  0  0  0  0
  188.9670  176.9060  147.7450 C   0  0  0  0  0  3  0  0  0  0  0  0
  187.5910  177.0590  147.9830 C   0  0  0  0  0  3  0  0  0  0  0  0
  1 18  1  1  0  0  0
  2  4  2  0  0  0  0
  2  6  1  0  0  0  0
  3  8  1  0  0  0  0
  3  9  1  0  0  0  0
  4  5  1  0  0  0  0
  5  8  2  0  0  0  0
  6  3  2  0  0  0  0
  7  6  1  0  0  0  0
  7 11  2  0  0  0  0
 10  9  2  0  0  0  0
 10  1  1  0  0  0  0
 11 10  1  0  0  0  0
 12  4  1  0  0  0  0
 12 13  1  0  0  0  0
 14 16  1  0  0  0  0
 14 17  1  0  0  0  0
 16 17  1  0  0  0  0
 17 15  1  0  0  0  0
 17  1  1  0  0  0  0
 18 19  2  0  0  0  0
 19 20  1  0  0  0  0
 20 22  1  0  0  0  0
 22 21  2  0  0  0  0
 23 33  1  0  0  0  0
 24 29  1  0  0  0  0
 24 28  2  0  0  0  0
 25 24  1  0  0  0  0
 26 23  2  0  0  0  0
 27 25  1  0  0  0  0
 29 32  1  0  0  0  0
 30 22  1  6  0  0  0
 30 25  1  0  0  0  0
 30 31  1  0  0  0  0
 31 26  1  0  0  0  0
 31 29  2  0  0  0  0
 32 33  2  0  0  0  0
M  END
>  <MODEL>
2

>  <REMARK>
 VINA RESULT:      -8.7      3.052      9.793
  Name = 
  6 active torsions:
  status: ('A' for Active; 'I' for Inactive)
    1  A    between atoms: C_1  and  C_11
    2  A    between atoms: C_6  and  O_7
    3  A    between atoms: C_11  and  C_25
    4  A    between atoms: C_11  and  C_33
    5  A    between atoms: N_12  and  C_16
    6  A    between atoms: C_23  and  C_28
                            x       y       z     vdW  Elec       q    Type
                         _______ _______ _______ _____ _____    ______ ____

>  <TORSDO>
F 6

$$$$
=
 OpenBabel11032420293D

 33 37  0  0  1  0  0  0  0  0999 V2000
  184.9630  179.0720  143.8180 C   0  0  2  0  0  3  0  0  0  0  0  0
  189.0500  177.2050  147.3240 C   0  0  0  0  0  3  0  0  0  0  0  0
  188.2540  177.6840  145.0770 C   0  0  0  0  0  0  0  0  0  0  0  0
  190.2710  176.7640  146.8000 C   0  0  0  0  0  0  0  0  0  0  0  0
  190.4760  176.7870  145.4100 C   0  0  0  0  0  3  0  0  0  0  0  0
  188.0410  177.6640  146.4740 C   0  0  0  0  0  0  0  0  0  0  0  0
  186.8240  178.1030  146.9980 C   0  0  0  0  0  3  0  0  0  0  0  0
  189.4710  177.2460  144.5520 C   0  0  0  0  0  3  0  0  0  0  0  0
  187.2450  178.1430  144.2250 C   0  0  0  0  0  3  0  0  0  0  0  0
  186.0260  178.5820  144.7530 C   0  0  0  0  0  0  0  0  0  0  0  0
  185.8190  178.5620  146.1420 C   0  0  0  0  0  3  0  0  0  0  0  0
  191.2580  176.3110  147.6790 O   0  0  0  0  0  0  0  0  0  0  0  0
  192.4130  175.6080  147.2390 C   0  0  0  0  0  1  0  0  0  0  0  0
  182.4010  179.6890  143.7880 C   0  0  0  0  0  2  0  0  0  0  0  0
  183.4980  179.0450  145.8630 O   0  0  0  0  0  1  0  0  0  0  0  0
  182.4970  178.1640  143.8210 C   0  0  0  0  0  2  0  0  0  0  0  0
  183.5670  179.0120  144.4710 C   0  0  0  0  0  0  0  0  0  0  0  0
  185.0740  178.3860  142.4880 C   0  0  0  0  0  3  0  0  0  0  0  0
  185.2920  179.0810  141.3780 C   0  0  0  0  0  3  0  0  0  0  0  0
  185.4000  178.4680  140.0860 N   0  0  0  0  0  2  0  0  0  0  0  0
  184.3350  180.1160  138.7950 O   0  0  0  0  0  0  0  0  0  0  0  0
  184.9260  179.0050  138.8400 C   0  0  0  0  0  0  0  0  0  0  0  0
  188.9560  178.3020  137.0270 C   0  0  0  0  0  3  0  0  0  0  0  0
  185.5390  175.9290  137.4910 C   0  0  0  0  0  0  0  0  0  0  0  0
  184.5280  176.9170  137.6540 N   0  0  0  0  0  0  0  0  0  0  0  0
  187.6650  178.8270  137.2170 C   0  0  0  0  0  3  0  0  0  0  0  0
  183.1000  176.6640  137.5680 C   0  0  0  0  0  1  0  0  0  0  0  0
  185.3250  174.6880  137.4700 O   0  0  0  0  0  0  0  0  0  0  0  0
  186.8180  176.5700  137.3290 C   0  0  0  0  0  0  0  0  0  0  0  0
  185.1430  178.2460  137.5690 C   0  0  2  0  0  3  0  0  0  0  0  0
  186.6050  177.9320  137.3730 C   0  0  0  0  0  0  0  0  0  0  0  0
  188.0850  176.0230  137.1390 C   0  0  0  0  0  3  0  0  0  0  0  0
  189.1640  176.9090  136.9900 C   0  0  0  0  0  3  0  0  0  0  0  0
  1 18  1  6  0  0  0
  1 17  1  0  0  0  0
  1 10  1  0  0  0  0
  3  6  1  0  0  0  0
  4  2  1  0  0  0  0
  4 12  1  0  0  0  0
  5  4  2  0  0  0  0
  6  7  1  0  0  0  0
  6  2  2  0  0  0  0
  8  3  2  0  0  0  0
  8  5  1  0  0  0  0
  9 10  2  0  0  0  0
  9  3  1  0  0  0  0
 10 11  1  0  0  0  0
 11  7  2  0  0  0  0
 13 12  1  0  0  0  0
 14 16  1  0  0  0  0
 14 17  1  0  0  0  0
 16 17  1  0  0  0  0
 17 15  1  0  0  0  0
 19 18  2  0  0  0  0
 20 19  1  0  0  0  0
 21 22  2  0  0  0  0
 22 20  1  0  0  0  0
 23 26  1  0  0  0  0
 24 25  1  0  0  0  0
 26 31  2  0  0  0  0
 27 25  1  0  0  0  0
 28 24  2  0  0  0  0
 29 31  1  0  0  0  0
 29 24  1  0  0  0  0
 30 25  1  0  0  0  0
 30 22  1  1  0  0  0
 31 30  1  0  0  0  0
 32 29  2  0  0  0  0
 33 23  2  0  0  0  0
 33 32  1  0  0  0  0
M  END
>  <MODEL>
3

>  <REMARK>
 VINA RESULT:      -8.7      2.776      5.964
  Name = 
  6 active torsions:
  status: ('A' for Active; 'I' for Inactive)
    1  A    between atoms: C_1  and  C_11
    2  A    between atoms: C_6  and  O_7
    3  A    between atoms: C_11  and  C_25
    4  A    between atoms: C_11  and  C_33
    5  A    between atoms: N_12  and  C_16
    6  A    between atoms: C_23  and  C_28
                            x       y       z     vdW  Elec       q    Type
                         _______ _______ _______ _____ _____    ______ ____

>  <TORSDO>
F 6

$$$$
=
 OpenBabel11032420293D

 33 37  0  0  1  0  0  0  0  0999 V2000
  182.9190  179.0150  142.4900 C   0  0  2  0  0  3  0  0  0  0  0  0
  186.6250  178.0020  146.7010 C   0  0  0  0  0  3  0  0  0  0  0  0
  186.0680  178.0010  144.3340 C   0  0  0  0  0  0  0  0  0  0  0  0
  187.8980  177.5020  146.4040 C   0  0  0  0  0  0  0  0  0  0  0  0
  188.2490  177.2530  145.0670 C   0  0  0  0  0  3  0  0  0  0  0  0
  185.7090  178.2540  145.6770 C   0  0  0  0  0  0  0  0  0  0  0  0
  184.4390  178.7530  145.9740 C   0  0  0  0  0  3  0  0  0  0  0  0
  187.3380  177.5020  144.0350 C   0  0  0  0  0  3  0  0  0  0  0  0
  185.1520  178.2510  143.3080 C   0  0  0  0  0  3  0  0  0  0  0  0
  183.8800  178.7520  143.6090 C   0  0  0  0  0  0  0  0  0  0  0  0
  183.5270  179.0030  144.9440 C   0  0  0  0  0  3  0  0  0  0  0  0
  188.7900  177.2620  147.4530 O   0  0  0  0  0  0  0  0  0  0  0  0
  189.0530  178.2190  148.4700 C   0  0  0  0  0  1  0  0  0  0  0  0
  180.4000  179.7540  142.7230 C   0  0  0  0  0  2  0  0  0  0  0  0
  181.2750  177.8970  144.0320 O   0  0  0  0  0  1  0  0  0  0  0  0
  180.4250  178.5130  141.8310 C   0  0  0  0  0  2  0  0  0  0  0  0
  181.4680  178.7000  142.9090 C   0  0  0  0  0  0  0  0  0  0  0  0
  183.3790  178.3400  141.2310 C   0  0  0  0  0  3  0  0  0  0  0  0
  183.5890  179.0370  140.1210 C   0  0  0  0  0  3  0  0  0  0  0  0
  184.0230  178.4350  138.8950 N   0  0  0  0  0  2  0  0  0  0  0  0
  186.3460  178.6280  139.1790 O   0  0  0  0  0  0  0  0  0  0  0  0
  185.3810  178.2440  138.4670 C   0  0  0  0  0  0  0  0  0  0  0  0
  189.3960  178.2530  136.4910 C   0  0  0  0  0  3  0  0  0  0  0  0
  186.4210  175.3490  136.9840 C   0  0  0  0  0  0  0  0  0  0  0  0
  185.2740  176.1570  137.2190 N   0  0  0  0  0  0  0  0  0  0  0  0
  188.0470  178.5570  136.7450 C   0  0  0  0  0  3  0  0  0  0  0  0
  183.9020  175.6810  137.1730 C   0  0  0  0  0  1  0  0  0  0  0  0
  186.4070  174.0910  136.9250 O   0  0  0  0  0  0  0  0  0  0  0  0
  187.5750  176.1920  136.8030 C   0  0  0  0  0  0  0  0  0  0  0  0
  185.6660  177.5690  137.1620 C   0  0  2  0  0  3  0  0  0  0  0  0
  187.1490  177.5000  136.9040 C   0  0  0  0  0  0  0  0  0  0  0  0
  188.9040  175.8610  136.5490 C   0  0  0  0  0  3  0  0  0  0  0  0
  189.8220  176.9130  136.3950 C   0  0  0  0  0  3  0  0  0  0  0  0
  1 18  1  6  0  0  0
  1 17  1  0  0  0  0
  1 10  1  0  0  0  0
  3  6  1  0  0  0  0
  4  2  1  0  0  0  0
  4 12  1  0  0  0  0
  5  4  2  0  0  0  0
  6  7  1  0  0  0  0
  6  2  2  0  0  0  0
  8  3  2  0  0  0  0
  8  5  1  0  0  0  0
  9 10  2  0  0  0  0
  9  3  1  0  0  0  0
 10 11  1  0  0  0  0
 11  7  2  0  0  0  0
 12 13  1  0  0  0  0
 14 17  1  0  0  0  0
 16 14  1  0  0  0  0
 16 17  1  0  0  0  0
 17 15  1  0  0  0  0
 19 18  2  0  0  0  0
 20 19  1  0  0  0  0
 22 20  1  0  0  0  0
 22 21  2  0  0  0  0
 23 26  1  0  0  0  0
 24 25  1  0  0  0  0
 26 31  2  0  0  0  0
 27 25  1  0  0  0  0
 28 24  2  0  0  0  0
 29 31  1  0  0  0  0
 29 24  1  0  0  0  0
 30 25  1  0  0  0  0
 30 22  1  1  0  0  0
 31 30  1  0  0  0  0
 32 29  2  0  0  0  0
 33 23  2  0  0  0  0
 33 32  1  0  0  0  0
M  END
>  <MODEL>
4

>  <REMARK>
 VINA RESULT:      -8.6      2.623      5.821
  Name = 
  6 active torsions:
  status: ('A' for Active; 'I' for Inactive)
    1  A    between atoms: C_1  and  C_11
    2  A    between atoms: C_6  and  O_7
    3  A    between atoms: C_11  and  C_25
    4  A    between atoms: C_11  and  C_33
    5  A    between atoms: N_12  and  C_16
    6  A    between atoms: C_23  and  C_28
                            x       y       z     vdW  Elec       q    Type
                         _______ _______ _______ _____ _____    ______ ____

>  <TORSDO>
F 6

$$$$
=
 OpenBabel11032420293D

 33 37  0  0  1  0  0  0  0  0999 V2000
  184.4510  178.9210  143.1260 C   0  0  2  0  0  3  0  0  0  0  0  0
  189.1970  177.0060  145.6360 C   0  0  0  0  0  3  0  0  0  0  0  0
  186.9910  178.0180  145.7870 C   0  0  0  0  0  0  0  0  0  0  0  0
  189.3260  177.0750  147.0280 C   0  0  0  0  0  0  0  0  0  0  0  0
  188.2800  177.6170  147.7940 C   0  0  0  0  0  3  0  0  0  0  0  0
  188.0380  177.4730  145.0100 C   0  0  0  0  0  0  0  0  0  0  0  0
  187.9110  177.4030  143.6210 C   0  0  0  0  0  3  0  0  0  0  0  0
  187.1170  178.0870  147.1760 C   0  0  0  0  0  3  0  0  0  0  0  0
  185.8310  178.4860  145.1620 C   0  0  0  0  0  3  0  0  0  0  0  0
  185.7060  178.4150  143.7700 C   0  0  0  0  0  0  0  0  0  0  0  0
  186.7480  177.8720  143.0020 C   0  0  0  0  0  3  0  0  0  0  0  0
  190.4980  176.5990  147.6210 O   0  0  0  0  0  0  0  0  0  0  0  0
  191.6720  176.3080  146.8750 C   0  0  0  0  0  1  0  0  0  0  0  0
  181.9850  179.6330  143.7220 C   0  0  0  0  0  2  0  0  0  0  0  0
  183.6100  179.2020  145.4810 O   0  0  0  0  0  1  0  0  0  0  0  0
  182.0780  178.1210  143.9210 C   0  0  0  0  0  2  0  0  0  0  0  0
  183.2910  178.9970  144.1390 C   0  0  0  0  0  0  0  0  0  0  0  0
  184.1540  178.1500  141.8730 C   0  0  0  0  0  3  0  0  0  0  0  0
  184.1840  178.7410  140.6850 C   0  0  0  0  0  3  0  0  0  0  0  0
  183.9020  178.0450  139.4630 N   0  0  0  0  0  2  0  0  0  0  0  0
  185.7270  178.7770  138.1790 O   0  0  0  0  0  0  0  0  0  0  0  0
  184.6810  178.0800  138.2570 C   0  0  0  0  0  0  0  0  0  0  0  0
  186.3880  174.0660  137.2610 C   0  0  0  0  0  3  0  0  0  0  0  0
  182.5280  175.6810  137.1340 C   0  0  0  0  0  0  0  0  0  0  0  0
  182.8060  177.0740  137.0750 N   0  0  0  0  0  0  0  0  0  0  0  0
  186.1240  175.4450  137.1880 C   0  0  0  0  0  3  0  0  0  0  0  0
  181.8370  178.0990  136.7270 C   0  0  0  0  0  1  0  0  0  0  0  0
  181.3710  175.1830  137.1070 O   0  0  0  0  0  0  0  0  0  0  0  0
  183.7640  174.9450  137.2000 C   0  0  0  0  0  0  0  0  0  0  0  0
  184.2600  177.2700  137.0720 C   0  0  2  0  0  3  0  0  0  0  0  0
  184.7930  175.8630  137.1650 C   0  0  0  0  0  0  0  0  0  0  0  0
  183.9950  173.5730  137.2690 C   0  0  0  0  0  3  0  0  0  0  0  0
  185.3300  173.1360  137.3030 C   0  0  0  0  0  3  0  0  0  0  0  0
  1 18  1  6  0  0  0
  1 10  1  0  0  0  0
  1 17  1  0  0  0  0
  2  4  1  0  0  0  0
  3  8  2  0  0  0  0
  4 12  1  0  0  0  0
  4  5  2  0  0  0  0
  6  2  2  0  0  0  0
  6  3  1  0  0  0  0
  7  6  1  0  0  0  0
  8  5  1  0  0  0  0
  9  3  1  0  0  0  0
 10  9  2  0  0  0  0
 11  7  2  0  0  0  0
 11 10  1  0  0  0  0
 13 12  1  0  0  0  0
 14 16  1  0  0  0  0
 14 17  1  0  0  0  0
 16 17  1  0  0  0  0
 17 15  1  0  0  0  0
 19 18  2  0  0  0  0
 20 19  1  0  0  0  0
 21 22  2  0  0  0  0
 22 20  1  0  0  0  0
 23 33  1  0  0  0  0
 24 29  1  0  0  0  0
 25 24  1  0  0  0  0
 26 23  2  0  0  0  0
 27 25  1  0  0  0  0
 28 24  2  0  0  0  0
 29 32  1  0  0  0  0
 30 25  1  0  0  0  0
 30 31  1  0  0  0  0
 30 22  1  1  0  0  0
 31 26  1  0  0  0  0
 31 29  2  0  0  0  0
 32 33  2  0  0  0  0
M  END
>  <MODEL>
5

>  <REMARK>
 VINA RESULT:      -8.6      3.807      6.679
  Name = 
  6 active torsions:
  status: ('A' for Active; 'I' for Inactive)
    1  A    between atoms: C_1  and  C_11
    2  A    between atoms: C_6  and  O_7
    3  A    between atoms: C_11  and  C_25
    4  A    between atoms: C_11  and  C_33
    5  A    between atoms: N_12  and  C_16
    6  A    between atoms: C_23  and  C_28
                            x       y       z     vdW  Elec       q    Type
                         _______ _______ _______ _____ _____    ______ ____

>  <TORSDO>
F 6

$$$$
=
 OpenBabel11032420293D

 33 37  0  0  1  0  0  0  0  0999 V2000
  182.3510  178.9510  142.0560 C   0  0  2  0  0  3  0  0  0  0  0  0
  186.2680  178.3050  146.1460 C   0  0  0  0  0  3  0  0  0  0  0  0
  185.5890  178.0880  143.8210 C   0  0  0  0  0  0  0  0  0  0  0  0
  187.5220  177.7690  145.8310 C   0  0  0  0  0  0  0  0  0  0  0  0
  187.8030  177.3940  144.5060 C   0  0  0  0  0  3  0  0  0  0  0  0
  185.3010  178.4680  145.1510 C   0  0  0  0  0  0  0  0  0  0  0  0
  184.0500  179.0030  145.4660 C   0  0  0  0  0  3  0  0  0  0  0  0
  186.8400  177.5530  143.5050 C   0  0  0  0  0  3  0  0  0  0  0  0
  184.6210  178.2490  142.8250 C   0  0  0  0  0  3  0  0  0  0  0  0
  183.3680  178.7860  143.1440 C   0  0  0  0  0  0  0  0  0  0  0  0
  183.0860  179.1620  144.4660 C   0  0  0  0  0  3  0  0  0  0  0  0
  188.4670  177.6210  146.8500 O   0  0  0  0  0  0  0  0  0  0  0  0
  189.8050  177.2080  146.6020 C   0  0  0  0  0  1  0  0  0  0  0  0
  179.8190  178.2470  142.2550 C   0  0  0  0  0  2  0  0  0  0  0  0
  180.5280  180.5020  142.8330 O   0  0  0  0  0  1  0  0  0  0  0  0
  180.4090  178.2130  143.6650 C   0  0  0  0  0  2  0  0  0  0  0  0
  180.9410  179.1850  142.6360 C   0  0  0  0  0  0  0  0  0  0  0  0
  182.4540  177.8300  141.0640 C   0  0  0  0  0  2  0  0  0  0  0  0
  182.6020  178.0770  139.7680 C   0  0  0  0  0  3  0  0  0  0  0  0
  182.6990  177.0390  138.7840 N   0  0  0  0  0  0  0  0  0  0  0  0
  182.3350  178.3160  136.8470 O   0  0  0  0  0  0  0  0  0  0  0  0
  182.5690  177.1910  137.3610 C   0  0  0  0  0  0  0  0  0  0  0  0
  186.2660  174.6760  137.1950 C   0  0  0  0  0  3  0  0  0  0  0  0
  182.1720  173.8090  137.1100 C   0  0  0  0  0  0  0  0  0  0  0  0
  181.6290  175.0520  136.6810 N   0  0  0  0  0  0  0  0  0  0  0  0
  185.2830  175.6060  136.8170 C   0  0  0  0  0  3  0  0  0  0  0  0
  180.2700  175.2410  136.2030 C   0  0  0  0  0  1  0  0  0  0  0  0
  181.4910  172.7740  137.3360 O   0  0  0  0  0  0  0  0  0  0  0  0
  183.6040  173.9200  137.2160 C   0  0  0  0  0  0  0  0  0  0  0  0
  182.7250  176.0020  136.4660 C   0  0  2  0  0  3  0  0  0  0  0  0
  183.9460  175.2030  136.8410 C   0  0  0  0  0  0  0  0  0  0  0  0
  184.5570  172.9770  137.5930 C   0  0  0  0  0  3  0  0  0  0  0  0
  185.9060  173.3700  137.5820 C   0  0  0  0  0  3  0  0  0  0  0  0
  1 18  1  1  0  0  0
  1 17  1  0  0  0  0
  1 10  1  0  0  0  0
  3  6  1  0  0  0  0
  4  2  1  0  0  0  0
  4 12  1  0  0  0  0
  5  4  2  0  0  0  0
  6  7  1  0  0  0  0
  6  2  2  0  0  0  0
  8  3  2  0  0  0  0
  8  5  1  0  0  0  0
  9 10  2  0  0  0  0
  9  3  1  0  0  0  0
 10 11  1  0  0  0  0
 11  7  2  0  0  0  0
 13 12  1  0  0  0  0
 14 17  1  0  0  0  0
 14 16  1  0  0  0  0
 17 15  1  0  0  0  0
 17 16  1  0  0  0  0
 19 18  1  0  0  0  0
 20 19  2  0  0  0  0
 21 22  2  0  0  0  0
 22 20  1  0  0  0  0
 23 33  1  0  0  0  0
 24 29  1  0  0  0  0
 24 28  2  0  0  0  0
 25 24  1  0  0  0  0
 26 31  1  0  0  0  0
 26 23  2  0  0  0  0
 27 25  1  0  0  0  0
 29 32  1  0  0  0  0
 30 25  1  0  0  0  0
 30 31  1  0  0  0  0
 30 22  1  1  0  0  0
 31 29  2  0  0  0  0
 33 32  2  0  0  0  0
M  END
>  <MODEL>
6

>  <REMARK>
 VINA RESULT:      -8.4      4.175      7.178
  Name = 
  6 active torsions:
  status: ('A' for Active; 'I' for Inactive)
    1  A    between atoms: C_1  and  C_11
    2  A    between atoms: C_6  and  O_7
    3  A    between atoms: C_11  and  C_25
    4  A    between atoms: C_11  and  C_33
    5  A    between atoms: N_12  and  C_16
    6  A    between atoms: C_23  and  C_28
                            x       y       z     vdW  Elec       q    Type
                         _______ _______ _______ _____ _____    ______ ____

>  <TORSDO>
F 6

$$$$
=
 OpenBabel11032420293D

 33 37  0  0  1  0  0  0  0  0999 V2000
  189.9070  176.6800  144.2380 C   0  0  2  0  0  3  0  0  0  0  0  0
  184.6680  178.7440  145.1250 C   0  0  0  0  0  3  0  0  0  0  0  0
  186.3700  177.8830  143.6150 C   0  0  0  0  0  0  0  0  0  0  0  0
  183.7880  178.8980  144.0470 C   0  0  0  0  0  0  0  0  0  0  0  0
  184.2070  178.5420  142.7540 C   0  0  0  0  0  3  0  0  0  0  0  0
  185.9550  178.2390  144.9190 C   0  0  0  0  0  0  0  0  0  0  0  0
  186.8320  178.0860  145.9940 C   0  0  0  0  0  3  0  0  0  0  0  0
  185.4940  178.0360  142.5390 C   0  0  0  0  0  3  0  0  0  0  0  0
  187.6570  177.3790  143.4080 C   0  0  0  0  0  3  0  0  0  0  0  0
  188.5340  177.2260  144.4880 C   0  0  0  0  0  0  0  0  0  0  0  0
  188.1180  177.5800  145.7810 C   0  0  0  0  0  3  0  0  0  0  0  0
  182.5090  179.4050  144.2880 O   0  0  0  0  0  0  0  0  0  0  0  0
  181.4270  179.2200  143.3850 C   0  0  0  0  0  1  0  0  0  0  0  0
  191.5850  178.4210  143.1880 C   0  0  0  0  0  2  0  0  0  0  0  0
  191.8830  177.6320  145.4710 O   0  0  0  0  0  1  0  0  0  0  0  0
  190.6300  179.2020  144.0890 C   0  0  0  0  0  2  0  0  0  0  0  0
  190.9860  177.7690  144.4130 C   0  0  0  0  0  0  0  0  0  0  0  0
  189.9510  175.9440  142.9310 C   0  0  0  0  0  2  0  0  0  0  0  0
  190.2840  176.5680  141.8070 C   0  0  0  0  0  3  0  0  0  0  0  0
  190.3330  175.9060  140.5360 N   0  0  0  0  0  0  0  0  0  0  0  0
  190.2200  177.7820  139.1270 O   0  0  0  0  0  0  0  0  0  0  0  0
  190.3060  176.5310  139.2430 C   0  0  0  0  0  0  0  0  0  0  0  0
  187.4900  176.9070  135.7860 C   0  0  0  0  0  3  0  0  0  0  0  0
  191.6220  176.3140  136.1000 C   0  0  0  0  0  0  0  0  0  0  0  0
  191.7330  175.7870  137.4160 N   0  0  0  0  0  0  0  0  0  0  0  0
  188.1150  176.3810  136.9310 C   0  0  0  0  0  3  0  0  0  0  0  0
  192.9160  175.1330  137.9500 C   0  0  0  0  0  1  0  0  0  0  0  0
  192.5920  176.4760  135.3120 O   0  0  0  0  0  0  0  0  0  0  0  0
  190.2410  176.6020  135.8100 C   0  0  0  0  0  0  0  0  0  0  0  0
  190.3940  175.6930  138.0060 C   0  0  2  0  0  3  0  0  0  0  0  0
  189.5050  176.2430  136.9200 C   0  0  0  0  0  0  0  0  0  0  0  0
  189.6480  177.1220  134.6620 C   0  0  0  0  0  3  0  0  0  0  0  0
  188.2520  177.2760  134.6600 C   0  0  0  0  0  3  0  0  0  0  0  0
  1 18  1  6  0  0  0
  1 17  1  0  0  0  0
  1 10  1  0  0  0  0
  3  6  1  0  0  0  0
  4 12  1  0  0  0  0
  4  2  2  0  0  0  0
  5  4  1  0  0  0  0
  6  2  1  0  0  0  0
  6  7  2  0  0  0  0
  8  5  2  0  0  0  0
  8  3  1  0  0  0  0
  9  3  2  0  0  0  0
  9 10  1  0  0  0  0
 10 11  2  0  0  0  0
 11  7  1  0  0  0  0
 13 12  1  0  0  0  0
 14 16  1  0  0  0  0
 14 17  1  0  0  0  0
 16 17  1  0  0  0  0
 17 15  1  0  0  0  0
 19 18  1  0  0  0  0
 20 19  2  0  0  0  0
 21 22  2  0  0  0  0
 22 20  1  0  0  0  0
 23 26  1  0  0  0  0
 24 25  1  0  0  0  0
 25 27  1  0  0  0  0
 25 30  1  0  0  0  0
 28 24  2  0  0  0  0
 29 24  1  0  0  0  0
 29 31  1  0  0  0  0
 30 22  1  1  0  0  0
 31 26  2  0  0  0  0
 31 30  1  0  0  0  0
 32 29  2  0  0  0  0
 33 32  1  0  0  0  0
 33 23  2  0  0  0  0
M  END
>  <MODEL>
7

>  <REMARK>
 VINA RESULT:      -8.3      1.604      2.745
  Name = 
  6 active torsions:
  status: ('A' for Active; 'I' for Inactive)
    1  A    between atoms: C_1  and  C_11
    2  A    between atoms: C_6  and  O_7
    3  A    between atoms: C_11  and  C_25
    4  A    between atoms: C_11  and  C_33
    5  A    between atoms: N_12  and  C_16
    6  A    between atoms: C_23  and  C_28
                            x       y       z     vdW  Elec       q    Type
                         _______ _______ _______ _____ _____    ______ ____

>  <TORSDO>
F 6

$$$$
=
 OpenBabel11032420293D

 33 37  0  0  1  0  0  0  0  0999 V2000
  190.0310  176.5280  143.5400 C   0  0  2  0  0  3  0  0  0  0  0  0
  184.7250  178.5890  143.8330 C   0  0  0  0  0  3  0  0  0  0  0  0
  186.7230  177.7400  144.9290 C   0  0  0  0  0  0  0  0  0  0  0  0
  184.1100  178.7560  145.0790 C   0  0  0  0  0  0  0  0  0  0  0  0
  184.8100  178.4130  146.2490 C   0  0  0  0  0  3  0  0  0  0  0  0
  186.0250  178.0840  143.7500 C   0  0  0  0  0  0  0  0  0  0  0  0
  186.6370  177.9180  142.5060 C   0  0  0  0  0  3  0  0  0  0  0  0
  186.1110  177.9070  146.1740 C   0  0  0  0  0  3  0  0  0  0  0  0
  188.0230  177.2350  144.8470 C   0  0  0  0  0  3  0  0  0  0  0  0
  188.6350  177.0690  143.5990 C   0  0  0  0  0  0  0  0  0  0  0  0
  187.9380  177.4130  142.4300 C   0  0  0  0  0  3  0  0  0  0  0  0
  182.8090  179.2640  145.1270 O   0  0  0  0  0  0  0  0  0  0  0  0
  181.8070  178.8990  144.1860 C   0  0  0  0  0  1  0  0  0  0  0  0
  192.0220  178.2540  143.5000 C   0  0  0  0  0  2  0  0  0  0  0  0
  191.4990  177.0100  145.5260 O   0  0  0  0  0  1  0  0  0  0  0  0
  190.8430  178.9420  144.1880 C   0  0  0  0  0  2  0  0  0  0  0  0
  191.0200  177.4430  144.2900 C   0  0  0  0  0  0  0  0  0  0  0  0
  190.4100  176.2030  142.1240 C   0  0  0  0  0  3  0  0  0  0  0  0
  190.2100  177.0790  141.1460 C   0  0  0  0  0  3  0  0  0  0  0  0
  190.5520  176.8090  139.7800 N   0  0  0  0  0  2  0  0  0  0  0  0
  192.8400  177.3350  139.8500 O   0  0  0  0  0  0  0  0  0  0  0  0
  191.8510  176.9390  139.1790 C   0  0  0  0  0  0  0  0  0  0  0  0
  194.7580  173.8570  137.7410 C   0  0  0  0  0  3  0  0  0  0  0  0
  190.8520  174.8860  136.6410 C   0  0  0  0  0  0  0  0  0  0  0  0
  190.7650  176.2210  137.1230 N   0  0  0  0  0  0  0  0  0  0  0  0
  194.1840  175.1150  137.9980 C   0  0  0  0  0  3  0  0  0  0  0  0
  189.7230  177.1670  136.7600 C   0  0  0  0  0  1  0  0  0  0  0  0
  189.9320  174.2900  136.0220 O   0  0  0  0  0  0  0  0  0  0  0  0
  192.1510  174.3460  136.9490 C   0  0  0  0  0  0  0  0  0  0  0  0
  192.0450  176.5900  137.7380 C   0  0  2  0  0  3  0  0  0  0  0  0
  192.8660  175.3340  137.5940 C   0  0  0  0  0  0  0  0  0  0  0  0
  192.6950  173.0920  136.6790 C   0  0  0  0  0  3  0  0  0  0  0  0
  194.0180  172.8520  137.0870 C   0  0  0  0  0  3  0  0  0  0  0  0
  1 18  1  6  0  0  0
  1 10  1  0  0  0  0
  1 17  1  0  0  0  0
  2  4  1  0  0  0  0
  3  8  2  0  0  0  0
  4 12  1  0  0  0  0
  4  5  2  0  0  0  0
  6  2  2  0  0  0  0
  6  3  1  0  0  0  0
  7  6  1  0  0  0  0
  8  5  1  0  0  0  0
  9  3  1  0  0  0  0
 10  9  2  0  0  0  0
 11  7  2  0  0  0  0
 11 10  1  0  0  0  0
 13 12  1  0  0  0  0
 14 16  1  0  0  0  0
 14 17  1  0  0  0  0
 16 17  1  0  0  0  0
 17 15  1  0  0  0  0
 19 18  2  0  0  0  0
 20 19  1  0  0  0  0
 22 20  1  0  0  0  0
 22 21  2  0  0  0  0
 23 26  1  0  0  0  0
 24 29  1  0  0  0  0
 24 25  1  0  0  0  0
 25 30  1  0  0  0  0
 27 25  1  0  0  0  0
 28 24  2  0  0  0  0
 29 31  1  0  0  0  0
 30 22  1  1  0  0  0
 31 30  1  0  0  0  0
 31 26  2  0  0  0  0
 32 29  2  0  0  0  0
 32 33  1  0  0  0  0
 33 23  2  0  0  0  0
M  END
>  <MODEL>
8

>  <REMARK>
 VINA RESULT:      -8.2      1.411      2.142
  Name = 
  6 active torsions:
  status: ('A' for Active; 'I' for Inactive)
    1  A    between atoms: C_1  and  C_11
    2  A    between atoms: C_6  and  O_7
    3  A    between atoms: C_11  and  C_25
    4  A    between atoms: C_11  and  C_33
    5  A    between atoms: N_12  and  C_16
    6  A    between atoms: C_23  and  C_28
                            x       y       z     vdW  Elec       q    Type
                         _______ _______ _______ _____ _____    ______ ____

>  <TORSDO>
F 6

$$$$
=
 OpenBabel11032420293D

 33 37  0  0  1  0  0  0  0  0999 V2000
  186.8350  178.7520  141.6880 C   0  0  2  0  0  3  0  0  0  0  0  0
  189.3580  176.9200  146.4590 C   0  0  0  0  0  3  0  0  0  0  0  0
  189.5070  177.7600  144.1820 C   0  0  0  0  0  0  0  0  0  0  0  0
  190.7550  176.8590  146.5300 C   0  0  0  0  0  0  0  0  0  0  0  0
  191.5220  177.2520  145.4200 C   0  0  0  0  0  3  0  0  0  0  0  0
  188.7290  177.3670  145.2950 C   0  0  0  0  0  0  0  0  0  0  0  0
  187.3360  177.4270  145.2250 C   0  0  0  0  0  3  0  0  0  0  0  0
  190.9000  177.7010  144.2500 C   0  0  0  0  0  3  0  0  0  0  0  0
  188.8790  178.2070  143.0160 C   0  0  0  0  0  3  0  0  0  0  0  0
  187.4820  178.2660  142.9490 C   0  0  0  0  0  0  0  0  0  0  0  0
  186.7130  177.8760  144.0570 C   0  0  0  0  0  3  0  0  0  0  0  0
  191.3520  176.4070  147.7100 O   0  0  0  0  0  0  0  0  0  0  0  0
  192.5440  175.6330  147.7200 C   0  0  0  0  0  1  0  0  0  0  0  0
  184.4300  179.0850  140.6620 C   0  0  0  0  0  2  0  0  0  0  0  0
  184.8980  179.7330  142.9610 O   0  0  0  0  0  1  0  0  0  0  0  0
  184.3800  177.8270  141.5300 C   0  0  0  0  0  2  0  0  0  0  0  0
  185.3190  178.9610  141.8790 C   0  0  0  0  0  0  0  0  0  0  0  0
  187.2170  177.8790  140.5290 C   0  0  0  0  0  2  0  0  0  0  0  0
  187.9110  178.3670  139.5070 C   0  0  0  0  0  3  0  0  0  0  0  0
  188.2940  177.5720  138.3770 N   0  0  0  0  0  0  0  0  0  0  0  0
  189.2240  179.2540  137.0280 O   0  0  0  0  0  0  0  0  0  0  0  0
  188.9410  178.0370  137.1820 C   0  0  0  0  0  0  0  0  0  0  0  0
  192.5200  175.3570  137.3360 C   0  0  0  0  0  3  0  0  0  0  0  0
  188.5660  174.8320  136.0660 C   0  0  0  0  0  0  0  0  0  0  0  0
  188.1680  176.1750  135.8170 N   0  0  0  0  0  0  0  0  0  0  0  0
  191.6780  176.4170  136.9570 C   0  0  0  0  0  3  0  0  0  0  0  0
  186.9770  176.5640  135.0820 C   0  0  0  0  0  1  0  0  0  0  0  0
  187.8340  173.8250  135.8750 O   0  0  0  0  0  0  0  0  0  0  0  0
  189.9260  174.8120  136.5370 C   0  0  0  0  0  0  0  0  0  0  0  0
  189.2980  177.0670  136.1000 C   0  0  2  0  0  3  0  0  0  0  0  0
  190.3730  176.1170  136.5640 C   0  0  0  0  0  0  0  0  0  0  0  0
  190.7390  173.7420  136.9040 C   0  0  0  0  0  3  0  0  0  0  0  0
  192.0530  174.0270  137.3110 C   0  0  0  0  0  3  0  0  0  0  0  0
  1 18  1  6  0  0  0
  1 17  1  0  0  0  0
  1 10  1  0  0  0  0
  2  4  1  0  0  0  0
  3  8  2  0  0  0  0
  3  6  1  0  0  0  0
  4 12  1  0  0  0  0
  5  4  2  0  0  0  0
  6  2  2  0  0  0  0
  7  6  1  0  0  0  0
  8  5  1  0  0  0  0
  9  3  1  0  0  0  0
 10  9  2  0  0  0  0
 10 11  1  0  0  0  0
 11  7  2  0  0  0  0
 12 13  1  0  0  0  0
 14 16  1  0  0  0  0
 14 17  1  0  0  0  0
 16 17  1  0  0  0  0
 17 15  1  0  0  0  0
 19 18  1  0  0  0  0
 20 19  2  0  0  0  0
 21 22  2  0  0  0  0
 22 20  1  0  0  0  0
 24 29  1  0  0  0  0
 25 24  1  0  0  0  0
 25 30  1  0  0  0  0
 26 23  2  0  0  0  0
 27 25  1  0  0  0  0
 28 24  2  0  0  0  0
 29 31  2  0  0  0  0
 29 32  1  0  0  0  0
 30 31  1  0  0  0  0
 30 22  1  1  0  0  0
 31 26  1  0  0  0  0
 32 33  2  0  0  0  0
 33 23  1  0  0  0  0
M  END
>  <MODEL>
9

>  <REMARK>
 VINA RESULT:      -8.2      1.965      5.033
  Name = 
  6 active torsions:
  status: ('A' for Active; 'I' for Inactive)
    1  A    between atoms: C_1  and  C_11
    2  A    between atoms: C_6  and  O_7
    3  A    between atoms: C_11  and  C_25
    4  A    between atoms: C_11  and  C_33
    5  A    between atoms: N_12  and  C_16
    6  A    between atoms: C_23  and  C_28
                            x       y       z     vdW  Elec       q    Type
                         _______ _______ _______ _____ _____    ______ ____

>  <TORSDO>
F 6

$$$$
