=
 OpenBabel11032420033D

 46 51  0  0  1  0  0  0  0  0999 V2000
  188.1170  173.8760  135.7030 C   0  0  0  0  0  0  0  0  0  0  0  0
  186.5300  176.9640  135.2320 C   0  0  0  0  0  0  0  0  0  0  0  0
  185.4640  177.6630  134.5940 N   0  0  0  0  0  1  0  0  0  0  0  0
  189.4720  176.0750  137.4260 C   0  0  0  0  0  0  0  0  0  0  0  0
  187.4410  173.0920  134.7720 O   0  0  0  0  0  1  0  0  0  0  0  0
  189.0000  173.1430  136.6240 C   0  0  0  0  0  3  0  0  0  0  0  0
  190.4190  175.0090  137.2600 N   0  0  0  0  0  0  0  0  0  0  0  0
  190.0200  173.6370  137.3150 C   0  0  0  0  0  3  0  0  0  0  0  0
  186.8340  175.6780  134.9650 N   0  0  0  0  0  0  0  0  0  0  0  0
  187.8400  175.1940  135.7490 C   0  0  0  0  0  0  0  0  0  0  0  0
  188.3770  176.1570  136.6440 C   0  0  0  0  0  0  0  0  0  0  0  0
  187.4640  177.5750  136.4720 S   0  0  0  0  0  0  0  0  0  0  0  0
  193.6120  176.5440  137.3600 C   0  0  0  0  0  2  0  0  0  0  0  0
  191.7860  175.3240  136.8450 C   0  0  1  0  0  3  0  0  0  0  0  0
  194.0490  176.6030  135.9210 C   0  0  0  0  0  0  0  0  0  0  0  0
  194.9930  177.3020  135.5990 O   0  0  0  0  0  0  0  0  0  0  0  0
  191.9120  175.4310  135.3180 C   0  0  0  0  0  2  0  0  0  0  0  0
  192.2070  176.5250  137.4450 O   0  0  0  0  0  0  0  0  0  0  0  0
  193.3560  175.7310  134.9050 C   0  0  2  0  0  3  0  0  0  0  0  0
  194.1090  174.4240  134.7120 C   0  0  0  0  0  2  0  0  0  0  0  0
  195.4110  174.4660  135.5020 C   0  0  0  0  0  2  0  0  0  0  0  0
  195.4340  172.0380  135.3780 C   0  0  0  0  0  1  0  0  0  0  0  0
  194.7730  172.9800  137.5010 C   0  0  0  0  0  1  0  0  0  0  0  0
  195.7140  173.1930  136.3180 C   0  0  0  0  0  0  0  0  0  0  0  0
  197.0800  173.0830  136.6880 O   0  0  0  0  0  0  0  0  0  0  0  0
  197.8520  175.7660  136.4860 O   0  0  0  0  0  0  0  0  0  0  0  0
  199.0270  174.0860  138.1010 O   0  0  0  0  0  1  0  0  0  0  0  0
  196.6700  174.8780  138.8290 O   0  0  0  0  0  1  0  0  0  0  0  0
  197.6770  174.4480  137.5430 P   0  0  0  0  0  0  0  0  0  0  0  0
  188.6280  178.8450  139.7230 O   0  0  0  0  0  1  0  0  0  0  0  0
  189.7290  177.1980  138.4160 C   0  0  1  0  0  3  0  0  0  0  0  0
  188.5590  177.5070  139.3280 C   0  0  1  0  0  3  0  0  0  0  0  0
  189.7420  176.6860  139.8410 C   0  0  2  0  0  3  0  0  0  0  0  0
  190.7600  177.4850  140.6410 C   0  0  0  0  0  2  0  0  0  0  0  0
  190.5530  177.2900  142.1040 C   0  0  0  0  0  0  0  0  0  0  0  0
  191.4510  177.0060  144.3190 C   0  0  0  0  0  3  0  0  0  0  0  0
  191.6550  177.1990  142.9540 C   0  0  0  0  0  3  0  0  0  0  0  0
  189.0730  176.9670  143.9320 C   0  0  0  0  0  0  0  0  0  0  0  0
  189.3000  177.1660  142.6080 N   0  0  0  0  0  0  0  0  0  0  0  0
  190.1550  176.8970  144.8170 C   0  0  0  0  0  3  0  0  0  0  0  0
  187.6610  176.9140  144.4230 C   0  0  2  0  0  3  0  0  0  0  0  0
  185.6910  178.2350  144.3640 C   0  0  0  0  0  2  0  0  0  0  0  0
  186.7350  177.6260  143.4700 C   0  0  0  0  0  2  0  0  0  0  0  0
  185.5260  178.2030  146.7320 O   0  0  0  0  0  1  0  0  0  0  0  0
  187.5220  177.5150  145.7490 N   0  0  0  0  0  2  0  0  0  0  0  0
  186.4050  178.4440  145.6800 C   0  0  1  0  0  3  0  0  0  0  0  0
  1 10  2  0  0  0  0
  1  6  1  0  0  0  0
  2 12  1  0  0  0  0
  3  2  1  0  0  0  0
  5  1  1  0  0  0  0
  6  8  2  0  0  0  0
  7  8  1  0  0  0  0
  7  4  1  0  0  0  0
  9  2  2  0  0  0  0
  9 10  1  0  0  0  0
 10 11  1  0  0  0  0
 11  4  2  0  0  0  0
 12 11  1  0  0  0  0
 13 18  1  0  0  0  0
 14 17  1  6  0  0  0
 14  7  1  0  0  0  0
 14 18  1  0  0  0  0
 15 13  1  0  0  0  0
 16 15  2  0  0  0  0
 19 20  1  1  0  0  0
 19 17  1  0  0  0  0
 19 15  1  0  0  0  0
 20 21  1  0  0  0  0
 21 24  1  0  0  0  0
 22 24  1  0  0  0  0
 24 25  1  0  0  0  0
 24 23  1  0  0  0  0
 25 29  1  0  0  0  0
 26 29  2  0  0  0  0
 29 27  1  0  0  0  0
 29 28  1  0  0  0  0
 31  4  1  6  0  0  0
 31 32  1  0  0  0  0
 31 33  1  0  0  0  0
 32 30  1  1  0  0  0
 32 33  1  0  0  0  0
 33 34  1  1  0  0  0
 34 35  1  0  0  0  0
 35 39  2  0  0  0  0
 35 37  1  0  0  0  0
 36 40  1  0  0  0  0
 37 36  2  0  0  0  0
 38 40  2  0  0  0  0
 39 38  1  0  0  0  0
 41 38  1  6  0  0  0
 41 45  1  0  0  0  0
 42 46  1  0  0  0  0
 43 42  1  0  0  0  0
 43 41  1  0  0  0  0
 46 45  1  0  0  0  0
 46 44  1  1  0  0  0
M  END
>  <MODEL>
1

>  <REMARK>
 VINA RESULT:      -8.3      0.000      0.000
  Name = 
  10 active torsions:
  status: ('A' for Active; 'I' for Inactive)
    1  A    between atoms: C_6  and  C_15
    2  A    between atoms: C_6  and  C_44
    3  A    between atoms: C_8  and  C_17
    4  A    between atoms: C_10  and  N_31
    5  A    between atoms: C_12  and  C_32
    6  A    between atoms: C_13  and  C_14
    7  A    between atoms: C_15  and  C_46
    8  A    between atoms: C_17  and  C_23
    9  A    between atoms: P_35  and  O_43
   10  A    between atoms: O_43  and  C_44
                            x       y       z     vdW  Elec       q    Type
                         _______ _______ _______ _____ _____    ______ ____

>  <TORSDO>
F 10

$$$$
=
 OpenBabel11032420033D

 46 51  0  0  1  0  0  0  0  0999 V2000
  192.7170  175.5260  135.8590 C   0  0  0  0  0  0  0  0  0  0  0  0
  193.5110  176.5270  139.1210 C   0  0  0  0  0  0  0  0  0  0  0  0
  194.5300  176.6310  140.1140 N   0  0  0  0  0  1  0  0  0  0  0  0
  190.2570  176.8320  137.2320 C   0  0  0  0  0  0  0  0  0  0  0  0
  193.8940  174.8790  135.4920 O   0  0  0  0  0  1  0  0  0  0  0  0
  191.7490  175.7430  134.7720 C   0  0  0  0  0  3  0  0  0  0  0  0
  189.7710  176.0170  136.1550 N   0  0  0  0  0  0  0  0  0  0  0  0
  190.4450  175.9590  134.8950 C   0  0  0  0  0  3  0  0  0  0  0  0
  193.6850  175.8810  137.9510 N   0  0  0  0  0  0  0  0  0  0  0  0
  192.6040  175.9760  137.1250 C   0  0  0  0  0  0  0  0  0  0  0  0
  191.5170  176.6950  137.6900 C   0  0  0  0  0  0  0  0  0  0  0  0
  192.0250  177.2790  139.1980 S   0  0  0  0  0  0  0  0  0  0  0  0
  188.1700  172.9420  136.8950 C   0  0  0  0  0  2  0  0  0  0  0  0
  188.6700  175.0860  136.4020 C   0  0  1  0  0  3  0  0  0  0  0  0
  186.8360  173.0340  136.2030 C   0  0  0  0  0  0  0  0  0  0  0  0
  186.1550  172.0350  136.0580 O   0  0  0  0  0  0  0  0  0  0  0  0
  187.4780  175.3480  135.4700 C   0  0  0  0  0  2  0  0  0  0  0  0
  189.1150  173.7600  136.2470 O   0  0  0  0  0  0  0  0  0  0  0  0
  186.3250  174.3830  135.7660 C   0  0  2  0  0  3  0  0  0  0  0  0
  185.4190  174.9870  136.8270 C   0  0  0  0  0  2  0  0  0  0  0  0
  184.0630  175.3120  136.2130 C   0  0  0  0  0  2  0  0  0  0  0  0
  182.7570  173.4060  136.9670 C   0  0  0  0  0  1  0  0  0  0  0  0
  181.5160  175.4330  136.5430 C   0  0  0  0  0  1  0  0  0  0  0  0
  182.8490  174.9140  137.0750 C   0  0  0  0  0  0  0  0  0  0  0  0
  183.0300  175.2030  138.4540 O   0  0  0  0  0  0  0  0  0  0  0  0
  183.2800  177.9050  137.7650 O   0  0  0  0  0  0  0  0  0  0  0  0
  183.1940  177.0910  140.2440 O   0  0  0  0  0  1  0  0  0  0  0  0
  180.9410  177.0340  138.9660 O   0  0  0  0  0  1  0  0  0  0  0  0
  182.6130  176.8140  138.8830 P   0  0  0  0  0  0  0  0  0  0  0  0
  187.0560  178.4300  138.1580 O   0  0  0  0  0  1  0  0  0  0  0  0
  189.3340  177.7970  137.9550 C   0  0  1  0  0  3  0  0  0  0  0  0
  187.9000  177.3210  138.0730 C   0  0  1  0  0  3  0  0  0  0  0  0
  188.8480  177.2190  139.2670 C   0  0  2  0  0  3  0  0  0  0  0  0
  188.7070  178.3460  140.2790 C   0  0  0  0  0  2  0  0  0  0  0  0
  188.7190  177.8130  141.6710 C   0  0  0  0  0  0  0  0  0  0  0  0
  189.8910  176.7730  143.4980 C   0  0  0  0  0  3  0  0  0  0  0  0
  189.8940  177.2790  142.1990 C   0  0  0  0  0  3  0  0  0  0  0  0
  187.5500  177.3180  143.6770 C   0  0  0  0  0  0  0  0  0  0  0  0
  187.5840  177.8130  142.4140 N   0  0  0  0  0  0  0  0  0  0  0  0
  188.7180  176.7980  144.2480 C   0  0  0  0  0  3  0  0  0  0  0  0
  186.2800  177.4200  144.4610 C   0  0  2  0  0  3  0  0  0  0  0  0
  184.6080  179.0250  144.9630 C   0  0  0  0  0  2  0  0  0  0  0  0
  185.3240  178.3850  143.8070 C   0  0  0  0  0  2  0  0  0  0  0  0
  184.9200  178.7100  147.2950 O   0  0  0  0  0  1  0  0  0  0  0  0
  186.5210  177.8560  145.8350 N   0  0  0  0  0  2  0  0  0  0  0  0
  185.5980  178.9470  146.1030 C   0  0  1  0  0  3  0  0  0  0  0  0
  1 10  2  0  0  0  0
  2 12  1  0  0  0  0
  2  3  1  0  0  0  0
  4 11  2  0  0  0  0
  5  1  1  0  0  0  0
  6  8  2  0  0  0  0
  6  1  1  0  0  0  0
  7 14  1  0  0  0  0
  7  4  1  0  0  0  0
  8  7  1  0  0  0  0
  9  2  2  0  0  0  0
 10 11  1  0  0  0  0
 10  9  1  0  0  0  0
 11 12  1  0  0  0  0
 14 17  1  6  0  0  0
 15 13  1  0  0  0  0
 16 15  2  0  0  0  0
 17 19  1  0  0  0  0
 18 14  1  0  0  0  0
 18 13  1  0  0  0  0
 19 15  1  0  0  0  0
 19 20  1  1  0  0  0
 21 20  1  0  0  0  0
 21 24  1  0  0  0  0
 22 24  1  0  0  0  0
 23 24  1  0  0  0  0
 24 25  1  0  0  0  0
 25 29  1  0  0  0  0
 26 29  2  0  0  0  0
 29 28  1  0  0  0  0
 29 27  1  0  0  0  0
 31  4  1  6  0  0  0
 31 32  1  0  0  0  0
 31 33  1  0  0  0  0
 32 30  1  1  0  0  0
 32 33  1  0  0  0  0
 33 34  1  1  0  0  0
 34 35  1  0  0  0  0
 35 37  2  0  0  0  0
 35 39  1  0  0  0  0
 36 40  2  0  0  0  0
 37 36  1  0  0  0  0
 38 40  1  0  0  0  0
 39 38  2  0  0  0  0
 41 38  1  6  0  0  0
 41 45  1  0  0  0  0
 42 46  1  0  0  0  0
 43 41  1  0  0  0  0
 43 42  1  0  0  0  0
 45 46  1  0  0  0  0
 46 44  1  1  0  0  0
M  END
>  <MODEL>
2

>  <REMARK>
 VINA RESULT:      -8.2      3.705      7.604
  Name = 
  10 active torsions:
  status: ('A' for Active; 'I' for Inactive)
    1  A    between atoms: C_6  and  C_15
    2  A    between atoms: C_6  and  C_44
    3  A    between atoms: C_8  and  C_17
    4  A    between atoms: C_10  and  N_31
    5  A    between atoms: C_12  and  C_32
    6  A    between atoms: C_13  and  C_14
    7  A    between atoms: C_15  and  C_46
    8  A    between atoms: C_17  and  C_23
    9  A    between atoms: P_35  and  O_43
   10  A    between atoms: O_43  and  C_44
                            x       y       z     vdW  Elec       q    Type
                         _______ _______ _______ _____ _____    ______ ____

>  <TORSDO>
F 10

$$$$
=
 OpenBabel11032420033D

 46 51  0  0  1  0  0  0  0  0999 V2000
  190.3010  176.8230  138.5670 C   0  0  0  0  0  0  0  0  0  0  0  0
  190.0100  176.9030  142.0580 C   0  0  0  0  0  0  0  0  0  0  0  0
  190.6410  176.6260  143.3060 N   0  0  0  0  0  1  0  0  0  0  0  0
  187.5980  178.0990  139.4110 C   0  0  0  0  0  0  0  0  0  0  0  0
  191.4950  176.1230  138.4220 O   0  0  0  0  0  1  0  0  0  0  0  0
  189.7660  177.4250  137.3350 C   0  0  0  0  0  3  0  0  0  0  0  0
  187.4580  177.6390  138.0590 N   0  0  0  0  0  0  0  0  0  0  0  0
  188.5110  177.7860  137.1030 C   0  0  0  0  0  3  0  0  0  0  0  0
  190.5310  176.5340  140.8700 N   0  0  0  0  0  0  0  0  0  0  0  0
  189.7950  176.9720  139.8080 C   0  0  0  0  0  0  0  0  0  0  0  0
  188.6230  177.6820  140.1810 C   0  0  0  0  0  0  0  0  0  0  0  0
  188.6280  177.8160  141.8710 S   0  0  0  0  0  0  0  0  0  0  0  0
  185.5990  174.7670  137.1280 C   0  0  0  0  0  2  0  0  0  0  0  0
  186.2880  176.8400  137.6930 C   0  0  1  0  0  3  0  0  0  0  0  0
  184.4450  175.3070  136.3280 C   0  0  0  0  0  0  0  0  0  0  0  0
  183.7640  174.5530  135.6560 O   0  0  0  0  0  0  0  0  0  0  0  0
  185.3290  177.6140  136.7760 C   0  0  0  0  0  2  0  0  0  0  0  0
  186.6940  175.6490  137.0630 O   0  0  0  0  0  0  0  0  0  0  0  0
  184.0980  176.7700  136.4300 C   0  0  2  0  0  3  0  0  0  0  0  0
  183.0190  176.9980  137.4770 C   0  0  0  0  0  2  0  0  0  0  0  0
  182.3500  178.3450  137.2340 C   0  0  0  0  0  2  0  0  0  0  0  0
  180.7660  177.2490  138.7170 C   0  0  0  0  0  1  0  0  0  0  0  0
  179.8120  178.7070  137.0450 C   0  0  0  0  0  1  0  0  0  0  0  0
  181.0120  178.5460  137.9740 C   0  0  0  0  0  0  0  0  0  0  0  0
  181.0720  179.5650  138.9610 O   0  0  0  0  0  0  0  0  0  0  0  0
  181.0290  181.1010  136.6210 O   0  0  0  0  0  0  0  0  0  0  0  0
  182.5380  181.7000  138.6650 O   0  0  0  0  0  1  0  0  0  0  0  0
  180.0090  182.1810  138.9580 O   0  0  0  0  0  1  0  0  0  0  0  0
  181.1810  181.1520  138.3110 P   0  0  0  0  0  0  0  0  0  0  0  0
  184.1980  179.3450  140.1460 O   0  0  0  0  0  1  0  0  0  0  0  0
  186.5410  178.9860  140.0460 C   0  0  1  0  0  3  0  0  0  0  0  0
  185.1730  178.3450  140.1560 C   0  0  1  0  0  3  0  0  0  0  0  0
  186.0850  178.4330  141.3790 C   0  0  2  0  0  3  0  0  0  0  0  0
  185.7730  179.5940  142.3120 C   0  0  0  0  0  2  0  0  0  0  0  0
  185.3860  179.0980  143.6630 C   0  0  0  0  0  0  0  0  0  0  0  0
  183.7260  178.7950  145.3790 C   0  0  0  0  0  3  0  0  0  0  0  0
  184.0750  179.2520  144.1090 C   0  0  0  0  0  3  0  0  0  0  0  0
  186.0030  178.0830  145.7190 C   0  0  0  0  0  0  0  0  0  0  0  0
  186.3120  178.5280  144.4740 N   0  0  0  0  0  0  0  0  0  0  0  0
  184.6890  178.1980  146.1890 C   0  0  0  0  0  3  0  0  0  0  0  0
  187.0600  177.3980  146.5260 C   0  0  2  0  0  3  0  0  0  0  0  0
  188.7990  177.9530  148.0420 C   0  0  0  0  0  2  0  0  0  0  0  0
  187.3270  178.1500  147.8050 C   0  0  0  0  0  2  0  0  0  0  0  0
  190.4030  176.8190  146.7110 O   0  0  0  0  0  1  0  0  0  0  0  0
  188.3140  177.2710  145.7860 N   0  0  0  0  0  2  0  0  0  0  0  0
  189.3740  177.7530  146.6580 C   0  0  1  0  0  3  0  0  0  0  0  0
  1 10  2  0  0  0  0
  2  3  1  0  0  0  0
  4 11  2  0  0  0  0
  5  1  1  0  0  0  0
  6  1  1  0  0  0  0
  7  4  1  0  0  0  0
  8  6  2  0  0  0  0
  8  7  1  0  0  0  0
  9  2  2  0  0  0  0
 10 11  1  0  0  0  0
 10  9  1  0  0  0  0
 11 12  1  0  0  0  0
 12  2  1  0  0  0  0
 14 17  1  6  0  0  0
 14  7  1  0  0  0  0
 15 19  1  0  0  0  0
 15 13  1  0  0  0  0
 16 15  2  0  0  0  0
 18 13  1  0  0  0  0
 18 14  1  0  0  0  0
 19 17  1  0  0  0  0
 19 20  1  1  0  0  0
 21 20  1  0  0  0  0
 21 24  1  0  0  0  0
 23 24  1  0  0  0  0
 24 22  1  0  0  0  0
 24 25  1  0  0  0  0
 26 29  2  0  0  0  0
 29 27  1  0  0  0  0
 29 28  1  0  0  0  0
 29 25  1  0  0  0  0
 31  4  1  6  0  0  0
 31 32  1  0  0  0  0
 31 33  1  0  0  0  0
 32 30  1  1  0  0  0
 32 33  1  0  0  0  0
 33 34  1  1  0  0  0
 34 35  1  0  0  0  0
 35 37  2  0  0  0  0
 35 39  1  0  0  0  0
 36 40  2  0  0  0  0
 37 36  1  0  0  0  0
 38 40  1  0  0  0  0
 39 38  2  0  0  0  0
 41 38  1  6  0  0  0
 41 43  1  0  0  0  0
 43 42  1  0  0  0  0
 45 41  1  0  0  0  0
 45 46  1  0  0  0  0
 46 44  1  1  0  0  0
 46 42  1  0  0  0  0
M  END
>  <MODEL>
3

>  <REMARK>
 VINA RESULT:      -8.0      4.737      9.313
  Name = 
  10 active torsions:
  status: ('A' for Active; 'I' for Inactive)
    1  A    between atoms: C_6  and  C_15
    2  A    between atoms: C_6  and  C_44
    3  A    between atoms: C_8  and  C_17
    4  A    between atoms: C_10  and  N_31
    5  A    between atoms: C_12  and  C_32
    6  A    between atoms: C_13  and  C_14
    7  A    between atoms: C_15  and  C_46
    8  A    between atoms: C_17  and  C_23
    9  A    between atoms: P_35  and  O_43
   10  A    between atoms: O_43  and  C_44
                            x       y       z     vdW  Elec       q    Type
                         _______ _______ _______ _____ _____    ______ ____

>  <TORSDO>
F 10

$$$$
=
 OpenBabel11032420033D

 46 51  0  0  1  0  0  0  0  0999 V2000
  189.8010  175.9040  136.5530 C   0  0  0  0  0  0  0  0  0  0  0  0
  190.2260  177.2350  139.7660 C   0  0  0  0  0  0  0  0  0  0  0  0
  191.1320  177.4680  140.8420 N   0  0  0  0  0  1  0  0  0  0  0  0
  187.1800  177.2490  137.5350 C   0  0  0  0  0  0  0  0  0  0  0  0
  191.0250  175.2670  136.3720 O   0  0  0  0  0  1  0  0  0  0  0  0
  188.9460  175.9840  135.3580 C   0  0  0  0  0  3  0  0  0  0  0  0
  186.8290  176.3200  136.4990 N   0  0  0  0  0  0  0  0  0  0  0  0
  187.6320  176.1670  135.3260 C   0  0  0  0  0  3  0  0  0  0  0  0
  190.5370  176.4880  138.6870 N   0  0  0  0  0  0  0  0  0  0  0  0
  189.5450  176.4670  137.7500 C   0  0  0  0  0  0  0  0  0  0  0  0
  188.3880  177.1990  138.1300 C   0  0  0  0  0  0  0  0  0  0  0  0
  188.7220  177.9400  139.6180 S   0  0  0  0  0  0  0  0  0  0  0  0
  185.1530  173.4660  137.7680 C   0  0  0  0  0  2  0  0  0  0  0  0
  185.7310  175.3790  136.7230 C   0  0  1  0  0  3  0  0  0  0  0  0
  184.1120  173.1460  136.7290 C   0  0  0  0  0  0  0  0  0  0  0  0
  183.5400  172.0710  136.7510 O   0  0  0  0  0  0  0  0  0  0  0  0
  184.8970  175.1590  135.4510 C   0  0  0  0  0  2  0  0  0  0  0  0
  186.2350  174.1490  137.1820 O   0  0  0  0  0  0  0  0  0  0  0  0
  183.7360  174.1960  135.7160 C   0  0  2  0  0  3  0  0  0  0  0  0
  182.5200  174.9830  136.1800 C   0  0  0  0  0  2  0  0  0  0  0  0
  182.1610  174.5720  137.6020 C   0  0  0  0  0  2  0  0  0  0  0  0
  180.3370  172.9860  137.8650 C   0  0  0  0  0  1  0  0  0  0  0  0
  179.7740  175.0730  136.7880 C   0  0  0  0  0  1  0  0  0  0  0  0
  180.6480  174.4690  137.8840 C   0  0  0  0  0  0  0  0  0  0  0  0
  180.2920  174.9340  139.1770 O   0  0  0  0  0  0  0  0  0  0  0  0
  182.3480  176.5650  140.1480 O   0  0  0  0  0  1  0  0  0  0  0  0
  179.8240  177.1340  140.4930 O   0  0  0  0  0  1  0  0  0  0  0  0
  180.7400  177.5050  138.0980 O   0  0  0  0  0  0  0  0  0  0  0  0
  180.7830  176.5500  139.4900 P   0  0  0  0  0  0  0  0  0  0  0  0
  183.8520  178.7830  138.0180 O   0  0  0  0  0  1  0  0  0  0  0  0
  186.1640  178.2470  138.0640 C   0  0  1  0  0  3  0  0  0  0  0  0
  184.7460  177.7160  138.1340 C   0  0  1  0  0  3  0  0  0  0  0  0
  185.6000  177.8060  139.3980 C   0  0  2  0  0  3  0  0  0  0  0  0
  185.3320  179.0380  140.2490 C   0  0  0  0  0  2  0  0  0  0  0  0
  185.3390  178.6910  141.6990 C   0  0  0  0  0  0  0  0  0  0  0  0
  184.2170  178.5890  143.8260 C   0  0  0  0  0  3  0  0  0  0  0  0
  184.1960  178.9060  142.4690 C   0  0  0  0  0  3  0  0  0  0  0  0
  186.5130  177.8920  143.6020 C   0  0  0  0  0  0  0  0  0  0  0  0
  186.4620  178.2000  142.2810 N   0  0  0  0  0  0  0  0  0  0  0  0
  185.3760  178.0710  144.3980 C   0  0  0  0  0  3  0  0  0  0  0  0
  187.7630  177.2850  144.1550 C   0  0  2  0  0  3  0  0  0  0  0  0
  189.3180  177.6670  145.9060 C   0  0  0  0  0  2  0  0  0  0  0  0
  187.8470  177.4990  145.6460 C   0  0  0  0  0  2  0  0  0  0  0  0
  191.1290  177.6950  144.3720 O   0  0  0  0  0  1  0  0  0  0  0  0
  188.9620  177.8440  143.5330 N   0  0  0  0  0  2  0  0  0  0  0  0
  189.8630  178.2220  144.6100 C   0  0  1  0  0  3  0  0  0  0  0  0
  1 10  2  0  0  0  0
  2  3  1  0  0  0  0
  4 11  2  0  0  0  0
  5  1  1  0  0  0  0
  6  1  1  0  0  0  0
  7 14  1  0  0  0  0
  7  4  1  0  0  0  0
  8  6  2  0  0  0  0
  8  7  1  0  0  0  0
  9  2  2  0  0  0  0
 10 11  1  0  0  0  0
 10  9  1  0  0  0  0
 11 12  1  0  0  0  0
 12  2  1  0  0  0  0
 14 17  1  6  0  0  0
 14 18  1  0  0  0  0
 15 16  2  0  0  0  0
 15 13  1  0  0  0  0
 17 19  1  0  0  0  0
 18 13  1  0  0  0  0
 19 20  1  1  0  0  0
 19 15  1  0  0  0  0
 20 21  1  0  0  0  0
 21 24  1  0  0  0  0
 22 24  1  0  0  0  0
 23 24  1  0  0  0  0
 24 25  1  0  0  0  0
 25 29  1  0  0  0  0
 28 29  2  0  0  0  0
 29 26  1  0  0  0  0
 29 27  1  0  0  0  0
 31  4  1  6  0  0  0
 31 32  1  0  0  0  0
 31 33  1  0  0  0  0
 32 30  1  1  0  0  0
 32 33  1  0  0  0  0
 33 34  1  1  0  0  0
 34 35  1  0  0  0  0
 35 39  2  0  0  0  0
 35 37  1  0  0  0  0
 36 40  1  0  0  0  0
 37 36  2  0  0  0  0
 38 40  2  0  0  0  0
 39 38  1  0  0  0  0
 41 38  1  6  0  0  0
 41 43  1  0  0  0  0
 43 42  1  0  0  0  0
 45 41  1  0  0  0  0
 45 46  1  0  0  0  0
 46 44  1  6  0  0  0
 46 42  1  0  0  0  0
M  END
>  <MODEL>
4

>  <REMARK>
 VINA RESULT:      -8.0      4.707      8.938
  Name = 
  10 active torsions:
  status: ('A' for Active; 'I' for Inactive)
    1  A    between atoms: C_6  and  C_15
    2  A    between atoms: C_6  and  C_44
    3  A    between atoms: C_8  and  C_17
    4  A    between atoms: C_10  and  N_31
    5  A    between atoms: C_12  and  C_32
    6  A    between atoms: C_13  and  C_14
    7  A    between atoms: C_15  and  C_46
    8  A    between atoms: C_17  and  C_23
    9  A    between atoms: P_35  and  O_43
   10  A    between atoms: O_43  and  C_44
                            x       y       z     vdW  Elec       q    Type
                         _______ _______ _______ _____ _____    ______ ____

>  <TORSDO>
F 10

$$$$
=
 OpenBabel11032420033D

 46 51  0  0  1  0  0  0  0  0999 V2000
  189.8570  177.2990  137.9310 C   0  0  0  0  0  0  0  0  0  0  0  0
  189.8280  177.2280  141.4330 C   0  0  0  0  0  0  0  0  0  0  0  0
  190.5780  176.9770  142.6200 N   0  0  0  0  0  1  0  0  0  0  0  0
  187.1100  178.2530  139.0210 C   0  0  0  0  0  0  0  0  0  0  0  0
  191.1020  176.7340  137.6700 O   0  0  0  0  0  1  0  0  0  0  0  0
  189.1710  177.8820  136.7670 C   0  0  0  0  0  3  0  0  0  0  0  0
  186.9150  177.8260  137.6640 N   0  0  0  0  0  0  0  0  0  0  0  0
  187.8700  178.1170  136.6410 C   0  0  0  0  0  3  0  0  0  0  0  0
  190.2910  176.9570  140.1960 N   0  0  0  0  0  0  0  0  0  0  0  0
  189.4350  177.3510  139.2100 C   0  0  0  0  0  0  0  0  0  0  0  0
  188.2280  177.9200  139.6960 C   0  0  0  0  0  0  0  0  0  0  0  0
  188.3480  177.9970  141.3860 S   0  0  0  0  0  0  0  0  0  0  0  0
  185.1750  174.7560  137.3260 C   0  0  0  0  0  2  0  0  0  0  0  0
  185.8090  176.9210  137.3510 C   0  0  1  0  0  3  0  0  0  0  0  0
  184.2020  174.9950  136.2030 C   0  0  0  0  0  0  0  0  0  0  0  0
  183.6330  174.0540  135.6790 O   0  0  0  0  0  0  0  0  0  0  0  0
  185.0560  177.3530  136.0840 C   0  0  0  0  0  2  0  0  0  0  0  0
  186.2890  175.6070  137.1970 O   0  0  0  0  0  0  0  0  0  0  0  0
  183.8840  176.4100  135.7920 C   0  0  2  0  0  3  0  0  0  0  0  0
  182.6390  176.9130  136.5050 C   0  0  0  0  0  2  0  0  0  0  0  0
  181.6290  175.7790  136.6270 C   0  0  0  0  0  2  0  0  0  0  0  0
  180.4200  177.0230  138.3300 C   0  0  0  0  0  1  0  0  0  0  0  0
  181.9540  175.3430  139.1400 C   0  0  0  0  0  1  0  0  0  0  0  0
  180.9690  175.6470  138.0140 C   0  0  0  0  0  0  0  0  0  0  0  0
  179.8570  174.7640  138.0170 O   0  0  0  0  0  0  0  0  0  0  0  0
  180.1560  173.7270  135.4340 O   0  0  0  0  0  0  0  0  0  0  0  0
  178.9340  172.4230  137.3370 O   0  0  0  0  0  1  0  0  0  0  0  0
  181.5150  172.5310  137.5310 O   0  0  0  0  0  1  0  0  0  0  0  0
  180.1010  173.3410  137.0870 P   0  0  0  0  0  0  0  0  0  0  0  0
  183.6780  179.0220  140.1550 O   0  0  0  0  0  1  0  0  0  0  0  0
  186.0190  179.0010  139.7670 C   0  0  1  0  0  3  0  0  0  0  0  0
  184.7840  178.1740  140.0610 C   0  0  1  0  0  3  0  0  0  0  0  0
  185.8150  178.4370  141.1570 C   0  0  2  0  0  3  0  0  0  0  0  0
  185.4520  179.5740  142.1000 C   0  0  0  0  0  2  0  0  0  0  0  0
  185.2740  179.0720  143.4920 C   0  0  0  0  0  0  0  0  0  0  0  0
  183.9070  178.7990  145.4540 C   0  0  0  0  0  3  0  0  0  0  0  0
  184.0590  179.2630  144.1490 C   0  0  0  0  0  3  0  0  0  0  0  0
  186.1830  178.0070  145.4100 C   0  0  0  0  0  0  0  0  0  0  0  0
  186.3000  178.4600  144.1350 N   0  0  0  0  0  0  0  0  0  0  0  0
  184.9680  178.1590  146.0890 C   0  0  0  0  0  3  0  0  0  0  0  0
  187.3330  177.2760  146.0260 C   0  0  2  0  0  3  0  0  0  0  0  0
  189.0090  177.6300  147.6670 C   0  0  0  0  0  2  0  0  0  0  0  0
  187.5210  177.6900  147.4640 C   0  0  0  0  0  2  0  0  0  0  0  0
  190.7260  177.1070  146.1140 O   0  0  0  0  0  1  0  0  0  0  0  0
  188.5800  177.5130  145.3030 N   0  0  0  0  0  2  0  0  0  0  0  0
  189.5830  177.8800  146.2910 C   0  0  1  0  0  3  0  0  0  0  0  0
  1 10  2  0  0  0  0
  2  3  1  0  0  0  0
  4 11  2  0  0  0  0
  5  1  1  0  0  0  0
  6  1  1  0  0  0  0
  7  4  1  0  0  0  0
  8  6  2  0  0  0  0
  8  7  1  0  0  0  0
  9  2  2  0  0  0  0
 10 11  1  0  0  0  0
 10  9  1  0  0  0  0
 11 12  1  0  0  0  0
 12  2  1  0  0  0  0
 14 17  1  6  0  0  0
 14  7  1  0  0  0  0
 15 13  1  0  0  0  0
 16 15  2  0  0  0  0
 18 13  1  0  0  0  0
 18 14  1  0  0  0  0
 19 17  1  0  0  0  0
 19 15  1  0  0  0  0
 19 20  1  1  0  0  0
 20 21  1  0  0  0  0
 21 24  1  0  0  0  0
 24 25  1  0  0  0  0
 24 22  1  0  0  0  0
 24 23  1  0  0  0  0
 26 29  2  0  0  0  0
 29 27  1  0  0  0  0
 29 28  1  0  0  0  0
 29 25  1  0  0  0  0
 31  4  1  6  0  0  0
 31 32  1  0  0  0  0
 31 33  1  0  0  0  0
 32 30  1  1  0  0  0
 32 33  1  0  0  0  0
 33 34  1  1  0  0  0
 34 35  1  0  0  0  0
 35 39  2  0  0  0  0
 35 37  1  0  0  0  0
 36 40  1  0  0  0  0
 37 36  2  0  0  0  0
 38 40  2  0  0  0  0
 39 38  1  0  0  0  0
 41 38  1  6  0  0  0
 41 43  1  0  0  0  0
 43 42  1  0  0  0  0
 45 41  1  0  0  0  0
 45 46  1  0  0  0  0
 46 44  1  6  0  0  0
 46 42  1  0  0  0  0
M  END
>  <MODEL>
5

>  <REMARK>
 VINA RESULT:      -7.2      4.850      9.182
  Name = 
  10 active torsions:
  status: ('A' for Active; 'I' for Inactive)
    1  A    between atoms: C_6  and  C_15
    2  A    between atoms: C_6  and  C_44
    3  A    between atoms: C_8  and  C_17
    4  A    between atoms: C_10  and  N_31
    5  A    between atoms: C_12  and  C_32
    6  A    between atoms: C_13  and  C_14
    7  A    between atoms: C_15  and  C_46
    8  A    between atoms: C_17  and  C_23
    9  A    between atoms: P_35  and  O_43
   10  A    between atoms: O_43  and  C_44
                            x       y       z     vdW  Elec       q    Type
                         _______ _______ _______ _____ _____    ______ ____

>  <TORSDO>
F 10

$$$$
=
 OpenBabel11032420033D

 46 51  0  0  1  0  0  0  0  0999 V2000
  180.5380  176.8390  138.5670 C   0  0  0  0  0  0  0  0  0  0  0  0
  179.8840  180.2400  139.0980 C   0  0  0  0  0  0  0  0  0  0  0  0
  178.9340  181.2960  138.9790 N   0  0  0  0  0  1  0  0  0  0  0  0
  182.9490  178.2110  139.9610 C   0  0  0  0  0  0  0  0  0  0  0  0
  179.4070  176.4670  137.8450 O   0  0  0  0  0  1  0  0  0  0  0  0
  181.3990  175.7310  139.0080 C   0  0  0  0  0  3  0  0  0  0  0  0
  183.4340  177.0160  139.3310 N   0  0  0  0  0  0  0  0  0  0  0  0
  182.6810  175.8010  139.3470 C   0  0  0  0  0  3  0  0  0  0  0  0
  179.6910  179.0120  138.5750 N   0  0  0  0  0  0  0  0  0  0  0  0
  180.6960  178.1410  138.8780 C   0  0  0  0  0  0  0  0  0  0  0  0
  181.7450  178.7230  139.6390 C   0  0  0  0  0  0  0  0  0  0  0  0
  181.2910  180.3190  139.9900 S   0  0  0  0  0  0  0  0  0  0  0  0
  186.0830  178.4920  137.4940 C   0  0  0  0  0  2  0  0  0  0  0  0
  184.6370  177.0830  138.5000 C   0  0  1  0  0  3  0  0  0  0  0  0
  186.4050  177.4860  136.4220 C   0  0  0  0  0  0  0  0  0  0  0  0
  187.1010  177.8070  135.4750 O   0  0  0  0  0  0  0  0  0  0  0  0
  184.6430  175.9980  137.4120 C   0  0  0  0  0  2  0  0  0  0  0  0
  184.7440  178.3540  137.9070 O   0  0  0  0  0  0  0  0  0  0  0  0
  185.9230  176.0660  136.5740 C   0  0  2  0  0  3  0  0  0  0  0  0
  186.9950  175.1990  137.2160 C   0  0  0  0  0  2  0  0  0  0  0  0
  187.7260  174.4110  136.1360 C   0  0  0  0  0  2  0  0  0  0  0  0
  189.6080  173.0380  135.4410 C   0  0  0  0  0  1  0  0  0  0  0  0
  188.2350  172.1310  137.2080 C   0  0  0  0  0  1  0  0  0  0  0  0
  188.8010  173.4380  136.6590 C   0  0  0  0  0  0  0  0  0  0  0  0
  189.7130  174.0500  137.5580 O   0  0  0  0  0  0  0  0  0  0  0  0
  190.8730  174.7670  135.1130 O   0  0  0  0  0  0  0  0  0  0  0  0
  192.2280  174.6980  137.3430 O   0  0  0  0  0  1  0  0  0  0  0  0
  190.5930  176.6920  137.0860 O   0  0  0  0  0  1  0  0  0  0  0  0
  190.8750  175.0530  136.7870 P   0  0  0  0  0  0  0  0  0  0  0  0
  184.1310  179.4420  143.2390 O   0  0  0  0  0  1  0  0  0  0  0  0
  183.8220  178.9900  140.9300 C   0  0  1  0  0  3  0  0  0  0  0  0
  183.8660  178.4150  142.3310 C   0  0  1  0  0  3  0  0  0  0  0  0
  185.0250  178.1800  141.3630 C   0  0  2  0  0  3  0  0  0  0  0  0
  186.2060  179.1200  141.5580 C   0  0  0  0  0  2  0  0  0  0  0  0
  187.4830  178.3560  141.6380 C   0  0  0  0  0  0  0  0  0  0  0  0
  189.4470  177.4570  140.5770 C   0  0  0  0  0  3  0  0  0  0  0  0
  188.2610  178.1830  140.4940 C   0  0  0  0  0  3  0  0  0  0  0  0
  189.0210  177.0770  142.9180 C   0  0  0  0  0  0  0  0  0  0  0  0
  187.8750  177.7970  142.8110 N   0  0  0  0  0  0  0  0  0  0  0  0
  189.8390  176.9070  141.7950 C   0  0  0  0  0  3  0  0  0  0  0  0
  189.4240  176.5550  144.2610 C   0  0  2  0  0  3  0  0  0  0  0  0
  189.9230  177.3800  146.4280 C   0  0  0  0  0  2  0  0  0  0  0  0
  188.8650  177.4210  145.3610 C   0  0  0  0  0  2  0  0  0  0  0  0
  192.0390  176.3050  146.4160 O   0  0  0  0  0  1  0  0  0  0  0  0
  190.8770  176.4920  144.4060 N   0  0  0  0  0  2  0  0  0  0  0  0
  191.2070  177.1330  145.6690 C   0  0  1  0  0  3  0  0  0  0  0  0
  1 10  2  0  0  0  0
  1  6  1  0  0  0  0
  2 12  1  0  0  0  0
  3  2  1  0  0  0  0
  5  1  1  0  0  0  0
  6  8  2  0  0  0  0
  7  8  1  0  0  0  0
  7  4  1  0  0  0  0
  9 10  1  0  0  0  0
  9  2  2  0  0  0  0
 10 11  1  0  0  0  0
 11  4  2  0  0  0  0
 11 12  1  0  0  0  0
 13 18  1  0  0  0  0
 14 17  1  6  0  0  0
 14  7  1  0  0  0  0
 15 19  1  0  0  0  0
 15 13  1  0  0  0  0
 16 15  2  0  0  0  0
 18 14  1  0  0  0  0
 19 20  1  1  0  0  0
 19 17  1  0  0  0  0
 21 24  1  0  0  0  0
 21 20  1  0  0  0  0
 22 24  1  0  0  0  0
 24 23  1  0  0  0  0
 24 25  1  0  0  0  0
 26 29  2  0  0  0  0
 29 28  1  0  0  0  0
 29 27  1  0  0  0  0
 29 25  1  0  0  0  0
 31  4  1  6  0  0  0
 31 33  1  0  0  0  0
 31 32  1  0  0  0  0
 32 30  1  1  0  0  0
 33 34  1  1  0  0  0
 33 32  1  0  0  0  0
 34 35  1  0  0  0  0
 35 39  1  0  0  0  0
 36 40  2  0  0  0  0
 37 36  1  0  0  0  0
 37 35  2  0  0  0  0
 39 38  2  0  0  0  0
 40 38  1  0  0  0  0
 41 38  1  6  0  0  0
 41 45  1  0  0  0  0
 41 43  1  0  0  0  0
 43 42  1  0  0  0  0
 45 46  1  0  0  0  0
 46 44  1  1  0  0  0
 46 42  1  0  0  0  0
M  END
>  <MODEL>
6

>  <REMARK>
 VINA RESULT:      -7.2      4.378      6.681
  Name = 
  10 active torsions:
  status: ('A' for Active; 'I' for Inactive)
    1  A    between atoms: C_6  and  C_15
    2  A    between atoms: C_6  and  C_44
    3  A    between atoms: C_8  and  C_17
    4  A    between atoms: C_10  and  N_31
    5  A    between atoms: C_12  and  C_32
    6  A    between atoms: C_13  and  C_14
    7  A    between atoms: C_15  and  C_46
    8  A    between atoms: C_17  and  C_23
    9  A    between atoms: P_35  and  O_43
   10  A    between atoms: O_43  and  C_44
                            x       y       z     vdW  Elec       q    Type
                         _______ _______ _______ _____ _____    ______ ____

>  <TORSDO>
F 10

$$$$
=
 OpenBabel11032420033D

 46 51  0  0  1  0  0  0  0  0999 V2000
  190.9910  176.9300  141.9620 C   0  0  0  0  0  0  0  0  0  0  0  0
  187.7720  177.4840  143.2290 C   0  0  0  0  0  0  0  0  0  0  0  0
  186.9360  177.4760  144.3840 N   0  0  0  0  0  1  0  0  0  0  0  0
  189.0990  177.9630  139.7270 C   0  0  0  0  0  0  0  0  0  0  0  0
  191.6160  176.3730  143.0740 O   0  0  0  0  0  1  0  0  0  0  0  0
  191.8820  177.2710  140.8410 C   0  0  0  0  0  3  0  0  0  0  0  0
  190.1980  177.2950  139.0900 N   0  0  0  0  0  0  0  0  0  0  0  0
  191.5390  177.4320  139.5690 C   0  0  0  0  0  3  0  0  0  0  0  0
  189.0360  177.0140  143.2300 N   0  0  0  0  0  0  0  0  0  0  0  0
  189.6720  177.1940  142.0360 C   0  0  0  0  0  0  0  0  0  0  0  0
  188.8560  177.7970  141.0420 C   0  0  0  0  0  0  0  0  0  0  0  0
  187.3710  178.1780  141.7670 S   0  0  0  0  0  0  0  0  0  0  0  0
  189.9460  174.1040  137.5660 C   0  0  0  0  0  2  0  0  0  0  0  0
  189.9270  176.3090  138.0440 C   0  0  1  0  0  3  0  0  0  0  0  0
  190.1780  174.3660  136.1020 C   0  0  0  0  0  0  0  0  0  0  0  0
  190.4040  173.4380  135.3460 O   0  0  0  0  0  0  0  0  0  0  0  0
  190.3700  176.8060  136.6600 C   0  0  0  0  0  2  0  0  0  0  0  0
  190.5730  175.0960  138.3450 O   0  0  0  0  0  0  0  0  0  0  0  0
  190.0500  175.7720  135.5750 C   0  0  2  0  0  3  0  0  0  0  0  0
  188.6500  176.0210  135.0360 C   0  0  0  0  0  2  0  0  0  0  0  0
  187.8760  174.7090  135.0040 C   0  0  0  0  0  2  0  0  0  0  0  0
  185.9220  176.1430  135.1990 C   0  0  0  0  0  1  0  0  0  0  0  0
  186.4220  174.7710  137.1230 C   0  0  0  0  0  1  0  0  0  0  0  0
  186.4550  174.7810  135.5970 C   0  0  0  0  0  0  0  0  0  0  0  0
  185.5690  173.8270  135.0320 O   0  0  0  0  0  0  0  0  0  0  0  0
  187.2260  171.8920  136.1920 O   0  0  0  0  0  1  0  0  0  0  0  0
  185.0850  171.2730  134.8320 O   0  0  0  0  0  0  0  0  0  0  0  0
  184.6700  172.2510  137.1960 O   0  0  0  0  0  1  0  0  0  0  0  0
  185.6230  172.2920  135.8020 P   0  0  0  0  0  0  0  0  0  0  0  0
  187.5030  179.3400  136.6910 O   0  0  0  0  0  1  0  0  0  0  0  0
  188.1180  178.7920  138.9170 C   0  0  1  0  0  3  0  0  0  0  0  0
  187.8690  178.2730  137.5150 C   0  0  1  0  0  3  0  0  0  0  0  0
  186.8500  178.0180  138.6250 C   0  0  2  0  0  3  0  0  0  0  0  0
  185.6730  178.9810  138.6300 C   0  0  0  0  0  2  0  0  0  0  0  0
  184.4420  178.3110  139.1350 C   0  0  0  0  0  0  0  0  0  0  0  0
  182.8850  176.4760  139.0650 C   0  0  0  0  0  3  0  0  0  0  0  0
  184.0450  177.0890  138.5920 C   0  0  0  0  0  3  0  0  0  0  0  0
  182.5480  178.3290  140.5670 C   0  0  0  0  0  0  0  0  0  0  0  0
  183.6860  178.8990  140.0960 N   0  0  0  0  0  0  0  0  0  0  0  0
  182.1340  177.0910  140.0630 C   0  0  0  0  0  3  0  0  0  0  0  0
  181.8090  179.0030  141.6800 C   0  0  2  0  0  3  0  0  0  0  0  0
  181.2900  178.6390  143.9660 C   0  0  0  0  0  2  0  0  0  0  0  0
  182.4490  178.6960  143.0100 C   0  0  0  0  0  2  0  0  0  0  0  0
  178.9670  178.8720  143.5380 O   0  0  0  0  0  1  0  0  0  0  0  0
  180.4060  178.5940  141.7280 N   0  0  0  0  0  2  0  0  0  0  0  0
  180.1190  178.2220  143.1050 C   0  0  1  0  0  3  0  0  0  0  0  0
  1 10  2  0  0  0  0
  1  5  1  0  0  0  0
  2  9  2  0  0  0  0
  2  3  1  0  0  0  0
  4 11  2  0  0  0  0
  6  1  1  0  0  0  0
  7  8  1  0  0  0  0
  7  4  1  0  0  0  0
  8  6  2  0  0  0  0
 10  9  1  0  0  0  0
 11 12  1  0  0  0  0
 11 10  1  0  0  0  0
 12  2  1  0  0  0  0
 13 18  1  0  0  0  0
 14 17  1  6  0  0  0
 14 18  1  0  0  0  0
 14  7  1  0  0  0  0
 15 13  1  0  0  0  0
 16 15  2  0  0  0  0
 19 20  1  1  0  0  0
 19 15  1  0  0  0  0
 19 17  1  0  0  0  0
 21 20  1  0  0  0  0
 21 24  1  0  0  0  0
 22 24  1  0  0  0  0
 24 23  1  0  0  0  0
 25 24  1  0  0  0  0
 25 29  1  0  0  0  0
 27 29  2  0  0  0  0
 29 26  1  0  0  0  0
 29 28  1  0  0  0  0
 31  4  1  1  0  0  0
 32 30  1  6  0  0  0
 32 33  1  0  0  0  0
 32 31  1  0  0  0  0
 33 34  1  6  0  0  0
 33 31  1  0  0  0  0
 34 35  1  0  0  0  0
 35 39  1  0  0  0  0
 36 40  2  0  0  0  0
 37 36  1  0  0  0  0
 37 35  2  0  0  0  0
 39 38  2  0  0  0  0
 40 38  1  0  0  0  0
 41 38  1  6  0  0  0
 41 45  1  0  0  0  0
 41 43  1  0  0  0  0
 43 42  1  0  0  0  0
 45 46  1  0  0  0  0
 46 44  1  1  0  0  0
 46 42  1  0  0  0  0
M  END
>  <MODEL>
7

>  <REMARK>
 VINA RESULT:      -7.0      4.187      7.439
  Name = 
  10 active torsions:
  status: ('A' for Active; 'I' for Inactive)
    1  A    between atoms: C_6  and  C_15
    2  A    between atoms: C_6  and  C_44
    3  A    between atoms: C_8  and  C_17
    4  A    between atoms: C_10  and  N_31
    5  A    between atoms: C_12  and  C_32
    6  A    between atoms: C_13  and  C_14
    7  A    between atoms: C_15  and  C_46
    8  A    between atoms: C_17  and  C_23
    9  A    between atoms: P_35  and  O_43
   10  A    between atoms: O_43  and  C_44
                            x       y       z     vdW  Elec       q    Type
                         _______ _______ _______ _____ _____    ______ ____

>  <TORSDO>
F 10

$$$$
=
 OpenBabel11032420033D

 46 51  0  0  1  0  0  0  0  0999 V2000
  180.4780  176.7570  138.7050 C   0  0  0  0  0  0  0  0  0  0  0  0
  179.8940  180.1560  139.3250 C   0  0  0  0  0  0  0  0  0  0  0  0
  178.9330  181.2090  139.3420 N   0  0  0  0  0  1  0  0  0  0  0  0
  183.0580  178.1390  139.7440 C   0  0  0  0  0  0  0  0  0  0  0  0
  179.2580  176.3810  138.1500 O   0  0  0  0  0  1  0  0  0  0  0  0
  181.3980  175.6530  139.0190 C   0  0  0  0  0  3  0  0  0  0  0  0
  183.4530  176.9460  139.0510 N   0  0  0  0  0  0  0  0  0  0  0  0
  182.7140  175.7280  139.1730 C   0  0  0  0  0  3  0  0  0  0  0  0
  179.6330  178.9270  138.8340 N   0  0  0  0  0  0  0  0  0  0  0  0
  180.6750  178.0600  138.9910 C   0  0  0  0  0  0  0  0  0  0  0  0
  181.8180  178.6460  139.5960 C   0  0  0  0  0  0  0  0  0  0  0  0
  181.4120  180.2400  140.0090 S   0  0  0  0  0  0  0  0  0  0  0  0
  186.3870  178.1430  137.4620 C   0  0  0  0  0  2  0  0  0  0  0  0
  184.5260  177.0170  138.0590 C   0  0  1  0  0  3  0  0  0  0  0  0
  186.1930  177.8070  136.0080 C   0  0  0  0  0  0  0  0  0  0  0  0
  186.9130  178.3130  135.1650 O   0  0  0  0  0  0  0  0  0  0  0  0
  184.0120  176.7370  136.6380 C   0  0  0  0  0  2  0  0  0  0  0  0
  185.1410  178.2810  138.1030 O   0  0  0  0  0  0  0  0  0  0  0  0
  185.1550  176.7860  135.6200 C   0  0  2  0  0  3  0  0  0  0  0  0
  185.7780  175.4050  135.4910 C   0  0  0  0  0  2  0  0  0  0  0  0
  185.7580  174.7090  136.8460 C   0  0  0  0  0  2  0  0  0  0  0  0
  186.7740  172.6050  137.5180 C   0  0  0  0  0  1  0  0  0  0  0  0
  185.6620  172.6030  135.3740 C   0  0  0  0  0  1  0  0  0  0  0  0
  185.5780  173.1790  136.7850 C   0  0  0  0  0  0  0  0  0  0  0  0
  184.4280  172.7280  137.4850 O   0  0  0  0  0  0  0  0  0  0  0  0
  182.8780  173.3860  135.2490 O   0  0  0  0  0  0  0  0  0  0  0  0
  181.9050  172.0990  137.3010 O   0  0  0  0  0  1  0  0  0  0  0  0
  183.4580  170.7240  135.7480 O   0  0  0  0  0  1  0  0  0  0  0  0
  183.1460  172.2240  136.4580 P   0  0  0  0  0  0  0  0  0  0  0  0
  184.4350  179.7500  142.7710 O   0  0  0  0  0  1  0  0  0  0  0  0
  184.0560  178.9210  140.5800 C   0  0  1  0  0  3  0  0  0  0  0  0
  183.9890  178.6310  142.0660 C   0  0  1  0  0  3  0  0  0  0  0  0
  185.0880  178.0070  141.2070 C   0  0  2  0  0  3  0  0  0  0  0  0
  186.4210  178.7380  141.2650 C   0  0  0  0  0  2  0  0  0  0  0  0
  187.3900  178.0040  142.1270 C   0  0  0  0  0  0  0  0  0  0  0  0
  189.4560  176.7970  142.3850 C   0  0  0  0  0  3  0  0  0  0  0  0
  188.5620  177.4920  141.5730 C   0  0  0  0  0  3  0  0  0  0  0  0
  187.9680  177.1190  144.2530 C   0  0  0  0  0  0  0  0  0  0  0  0
  187.1200  177.8000  143.4410 N   0  0  0  0  0  0  0  0  0  0  0  0
  189.1670  176.6150  143.7350 C   0  0  0  0  0  3  0  0  0  0  0  0
  187.6380  176.9990  145.7070 C   0  0  2  0  0  3  0  0  0  0  0  0
  186.7800  178.3390  147.4670 C   0  0  0  0  0  2  0  0  0  0  0  0
  186.4730  177.8880  146.0660 C   0  0  0  0  0  2  0  0  0  0  0  0
  188.6740  177.8800  148.8210 O   0  0  0  0  0  1  0  0  0  0  0  0
  188.7750  177.3510  146.5550 N   0  0  0  0  0  2  0  0  0  0  0  0
  188.2890  178.2940  147.5500 C   0  0  1  0  0  3  0  0  0  0  0  0
  1 10  2  0  0  0  0
  1  6  1  0  0  0  0
  2  3  1  0  0  0  0
  2 12  1  0  0  0  0
  5  1  1  0  0  0  0
  6  8  2  0  0  0  0
  7  8  1  0  0  0  0
  7  4  1  0  0  0  0
  9 10  1  0  0  0  0
  9  2  2  0  0  0  0
 10 11  1  0  0  0  0
 11  4  2  0  0  0  0
 11 12  1  0  0  0  0
 13 18  1  0  0  0  0
 14 17  1  6  0  0  0
 14 18  1  0  0  0  0
 14  7  1  0  0  0  0
 15 13  1  0  0  0  0
 16 15  2  0  0  0  0
 19 20  1  1  0  0  0
 19 15  1  0  0  0  0
 19 17  1  0  0  0  0
 20 21  1  0  0  0  0
 23 24  1  0  0  0  0
 24 21  1  0  0  0  0
 24 25  1  0  0  0  0
 24 22  1  0  0  0  0
 26 29  2  0  0  0  0
 28 29  1  0  0  0  0
 29 27  1  0  0  0  0
 29 25  1  0  0  0  0
 31  4  1  6  0  0  0
 31 33  1  0  0  0  0
 31 32  1  0  0  0  0
 32 30  1  1  0  0  0
 33 34  1  1  0  0  0
 33 32  1  0  0  0  0
 34 35  1  0  0  0  0
 35 39  1  0  0  0  0
 36 40  2  0  0  0  0
 37 35  2  0  0  0  0
 37 36  1  0  0  0  0
 39 38  2  0  0  0  0
 40 38  1  0  0  0  0
 41 38  1  6  0  0  0
 41 43  1  0  0  0  0
 41 45  1  0  0  0  0
 42 46  1  0  0  0  0
 43 42  1  0  0  0  0
 45 46  1  0  0  0  0
 46 44  1  1  0  0  0
M  END
>  <MODEL>
8

>  <REMARK>
 VINA RESULT:      -6.9      6.257      8.093
  Name = 
  10 active torsions:
  status: ('A' for Active; 'I' for Inactive)
    1  A    between atoms: C_6  and  C_15
    2  A    between atoms: C_6  and  C_44
    3  A    between atoms: C_8  and  C_17
    4  A    between atoms: C_10  and  N_31
    5  A    between atoms: C_12  and  C_32
    6  A    between atoms: C_13  and  C_14
    7  A    between atoms: C_15  and  C_46
    8  A    between atoms: C_17  and  C_23
    9  A    between atoms: P_35  and  O_43
   10  A    between atoms: O_43  and  C_44
                            x       y       z     vdW  Elec       q    Type
                         _______ _______ _______ _____ _____    ______ ____

>  <TORSDO>
F 10

$$$$
=
 OpenBabel11032420033D

 46 51  0  0  1  0  0  0  0  0999 V2000
  190.9470  176.8650  142.0930 C   0  0  0  0  0  0  0  0  0  0  0  0
  187.6620  177.2280  143.2530 C   0  0  0  0  0  0  0  0  0  0  0  0
  186.7850  177.1450  144.3750 N   0  0  0  0  0  1  0  0  0  0  0  0
  189.0910  177.8790  139.8200 C   0  0  0  0  0  0  0  0  0  0  0  0
  191.5570  176.3040  143.2120 O   0  0  0  0  0  1  0  0  0  0  0  0
  191.8610  177.2830  141.0180 C   0  0  0  0  0  3  0  0  0  0  0  0
  190.2430  177.2820  139.2060 N   0  0  0  0  0  0  0  0  0  0  0  0
  191.5570  177.4680  139.7390 C   0  0  0  0  0  3  0  0  0  0  0  0
  188.9450  176.8180  143.2880 N   0  0  0  0  0  0  0  0  0  0  0  0
  189.6150  177.0650  142.1260 C   0  0  0  0  0  0  0  0  0  0  0  0
  188.8080  177.6600  141.1190 C   0  0  0  0  0  0  0  0  0  0  0  0
  187.2810  177.9480  141.7980 S   0  0  0  0  0  0  0  0  0  0  0  0
  190.1750  174.1300  137.5860 C   0  0  0  0  0  2  0  0  0  0  0  0
  190.0580  176.3180  138.1220 C   0  0  1  0  0  3  0  0  0  0  0  0
  190.4710  174.4400  136.1440 C   0  0  0  0  0  0  0  0  0  0  0  0
  190.7660  173.5410  135.3760 O   0  0  0  0  0  0  0  0  0  0  0  0
  190.5530  176.8680  136.7750 C   0  0  0  0  0  2  0  0  0  0  0  0
  190.7280  175.1180  138.4220 O   0  0  0  0  0  0  0  0  0  0  0  0
  190.3220  175.8550  135.6490 C   0  0  2  0  0  3  0  0  0  0  0  0
  188.9430  176.0750  135.0460 C   0  0  0  0  0  2  0  0  0  0  0  0
  188.2120  174.7410  134.9500 C   0  0  0  0  0  2  0  0  0  0  0  0
  186.2150  176.1190  135.1120 C   0  0  0  0  0  1  0  0  0  0  0  0
  186.6680  174.6900  137.0050 C   0  0  0  0  0  1  0  0  0  0  0  0
  186.7660  174.7570  135.4830 C   0  0  0  0  0  0  0  0  0  0  0  0
  185.9300  173.8030  134.8460 O   0  0  0  0  0  0  0  0  0  0  0  0
  187.4840  171.8570  136.1240 O   0  0  0  0  0  1  0  0  0  0  0  0
  185.4410  171.2530  134.6160 O   0  0  0  0  0  0  0  0  0  0  0  0
  184.8660  172.2380  136.9420 O   0  0  0  0  0  1  0  0  0  0  0  0
  185.9160  172.2690  135.6200 P   0  0  0  0  0  0  0  0  0  0  0  0
  187.6200  179.3810  136.7810 O   0  0  0  0  0  1  0  0  0  0  0  0
  188.1010  178.6860  138.9980 C   0  0  1  0  0  3  0  0  0  0  0  0
  188.0220  178.2810  137.5400 C   0  0  1  0  0  3  0  0  0  0  0  0
  186.9460  177.8280  138.5260 C   0  0  2  0  0  3  0  0  0  0  0  0
  185.6820  178.6740  138.5060 C   0  0  0  0  0  2  0  0  0  0  0  0
  184.5080  177.8820  138.9710 C   0  0  0  0  0  0  0  0  0  0  0  0
  182.7470  177.4990  140.5660 C   0  0  0  0  0  3  0  0  0  0  0  0
  183.8370  178.2530  140.1350 C   0  0  0  0  0  3  0  0  0  0  0  0
  183.0590  176.0220  138.6880 C   0  0  0  0  0  0  0  0  0  0  0  0
  184.1100  176.7810  138.2850 N   0  0  0  0  0  0  0  0  0  0  0  0
  182.3460  176.3820  139.8380 C   0  0  0  0  0  3  0  0  0  0  0  0
  182.6340  174.8660  137.8390 C   0  0  2  0  0  3  0  0  0  0  0  0
  181.8330  174.4510  135.6450 C   0  0  0  0  0  2  0  0  0  0  0  0
  182.9550  175.1200  136.3880 C   0  0  0  0  0  2  0  0  0  0  0  0
  179.9230  173.3230  136.4900 O   0  0  0  0  0  1  0  0  0  0  0  0
  181.2030  174.5960  137.9620 N   0  0  0  0  0  2  0  0  0  0  0  0
  180.6720  174.4900  136.6120 C   0  0  1  0  0  3  0  0  0  0  0  0
  1 10  2  0  0  0  0
  1  5  1  0  0  0  0
  2  9  2  0  0  0  0
  2  3  1  0  0  0  0
  4 11  2  0  0  0  0
  6  1  1  0  0  0  0
  7  8  1  0  0  0  0
  7  4  1  0  0  0  0
  8  6  2  0  0  0  0
 10  9  1  0  0  0  0
 11 12  1  0  0  0  0
 11 10  1  0  0  0  0
 12  2  1  0  0  0  0
 13 18  1  0  0  0  0
 14 17  1  6  0  0  0
 14 18  1  0  0  0  0
 14  7  1  0  0  0  0
 15 13  1  0  0  0  0
 16 15  2  0  0  0  0
 19 20  1  1  0  0  0
 19 15  1  0  0  0  0
 19 17  1  0  0  0  0
 21 20  1  0  0  0  0
 21 24  1  0  0  0  0
 22 24  1  0  0  0  0
 24 23  1  0  0  0  0
 25 24  1  0  0  0  0
 25 29  1  0  0  0  0
 27 29  2  0  0  0  0
 29 26  1  0  0  0  0
 29 28  1  0  0  0  0
 31  4  1  1  0  0  0
 32 30  1  6  0  0  0
 32 33  1  0  0  0  0
 32 31  1  0  0  0  0
 33 34  1  6  0  0  0
 33 31  1  0  0  0  0
 34 35  1  0  0  0  0
 35 37  1  0  0  0  0
 37 36  2  0  0  0  0
 38 40  2  0  0  0  0
 39 38  1  0  0  0  0
 39 35  2  0  0  0  0
 40 36  1  0  0  0  0
 41 45  1  0  0  0  0
 41 38  1  1  0  0  0
 42 43  1  0  0  0  0
 42 46  1  0  0  0  0
 43 41  1  0  0  0  0
 46 44  1  1  0  0  0
 46 45  1  0  0  0  0
M  END
>  <MODEL>
9

>  <REMARK>
 VINA RESULT:      -6.9      4.005      7.905
  Name = 
  10 active torsions:
  status: ('A' for Active; 'I' for Inactive)
    1  A    between atoms: C_6  and  C_15
    2  A    between atoms: C_6  and  C_44
    3  A    between atoms: C_8  and  C_17
    4  A    between atoms: C_10  and  N_31
    5  A    between atoms: C_12  and  C_32
    6  A    between atoms: C_13  and  C_14
    7  A    between atoms: C_15  and  C_46
    8  A    between atoms: C_17  and  C_23
    9  A    between atoms: P_35  and  O_43
   10  A    between atoms: O_43  and  C_44
                            x       y       z     vdW  Elec       q    Type
                         _______ _______ _______ _____ _____    ______ ____

>  <TORSDO>
F 10

$$$$
