=
 OpenBabel11032419313D

 31 35  0  0  1  0  0  0  0  0999 V2000
  191.4770  177.7340  140.7400 C   0  0  2  0  0  3  0  0  0  0  0  0
  189.8200  177.3320  140.0270 S   0  0  0  0  0  0  0  0  0  0  0  0
  192.4980  177.0550  139.9480 N   0  0  0  0  0  2  0  0  0  0  0  0
  191.9320  176.2560  138.9280 C   0  0  2  0  0  3  0  0  0  0  0  0
  192.5690  175.9070  137.6270 C   0  0  2  0  0  3  0  0  0  0  0  0
  190.6380  176.3080  138.8250 C   0  0  2  0  0  3  0  0  0  0  0  0
  191.3690  175.7140  136.7850 C   0  0  1  0  0  3  0  0  0  0  0  0
  192.8400  173.9440  136.4030 C   0  0  0  0  0  2  0  0  0  0  0  0
  191.5150  174.5300  135.9250 C   0  0  0  0  0  2  0  0  0  0  0  0
  190.2550  176.0160  137.4570 C   0  0  1  0  0  3  0  0  0  0  0  0
  193.2170  174.6000  137.6650 N   0  0  1  0  0  0  0  0  0  0  0  0
  195.3140  174.0460  138.7070 C   0  0  0  0  0  2  0  0  0  0  0  0
  195.3050  173.5960  137.3760 O   0  0  0  0  0  0  0  0  0  0  0  0
  194.6560  174.8200  137.6290 C   0  0  1  0  0  3  0  0  0  0  0  0
  188.9250  175.6350  137.0830 N   0  0  0  0  0  2  0  0  0  0  0  0
  188.0530  176.3920  136.2350 C   0  0  0  0  0  0  0  0  0  0  0  0
  186.9510  175.8900  135.8890 O   0  0  0  0  0  0  0  0  0  0  0  0
  188.3770  177.8080  135.8580 C   0  0  0  0  0  2  0  0  0  0  0  0
  186.8420  178.7900  137.4060 O   0  0  0  0  0  0  0  0  0  0  0  0
  188.9600  179.6690  137.4150 O   0  0  0  0  0  1  0  0  0  0  0  0
  188.0120  178.7710  136.9400 C   0  0  0  0  0  0  0  0  0  0  0  0
  191.5570  177.2670  142.1560 C   0  0  0  0  0  3  0  0  0  0  0  0
  190.4990  177.2040  142.8760 N   0  0  0  0  0  0  0  0  0  0  0  0
  190.5890  176.7570  144.2400 C   0  0  0  0  0  2  0  0  0  0  0  0
  186.9240  177.4370  144.9110 C   0  0  0  0  0  3  0  0  0  0  0  0
  188.1370  177.5780  147.0040 C   0  0  0  0  0  0  0  0  0  0  0  0
  188.1150  177.1360  144.2420 C   0  0  0  0  0  3  0  0  0  0  0  0
  188.1490  177.8030  148.4090 N   0  0  0  0  0  1  0  0  0  0  0  0
  189.3170  177.0570  144.9530 C   0  0  0  0  0  0  0  0  0  0  0  0
  186.9360  177.6580  146.2910 C   0  0  0  0  0  3  0  0  0  0  0  0
  189.3280  177.2820  146.3350 C   0  0  0  0  0  3  0  0  0  0  0  0
  1 22  1  1  0  0  0
  2  1  1  0  0  0  0
  3  1  1  0  0  0  0
  4  3  1  6  0  0  0
  5 11  1  0  0  0  0
  5  4  1  0  0  0  0
  6  4  1  0  0  0  0
  6  2  1  0  0  0  0
  7 10  1  0  0  0  0
  7  5  1  0  0  0  0
  8 11  1  0  0  0  0
  9  8  1  0  0  0  0
  9  7  1  0  0  0  0
 10  6  1  0  0  0  0
 13 14  1  0  0  0  0
 13 12  1  0  0  0  0
 14 11  1  0  0  0  0
 14 12  1  0  0  0  0
 15 10  1  0  0  0  0
 16 15  1  0  0  0  0
 17 16  2  0  0  0  0
 18 16  1  0  0  0  0
 18 21  1  0  0  0  0
 21 19  2  0  0  0  0
 21 20  1  0  0  0  0
 22 23  2  0  0  0  0
 23 24  1  0  0  0  0
 24 29  1  0  0  0  0
 25 30  1  0  0  0  0
 26 28  1  0  0  0  0
 27 25  2  0  0  0  0
 27 29  1  0  0  0  0
 29 31  2  0  0  0  0
 30 26  2  0  0  0  0
 31 26  1  0  0  0  0
M  END
>  <MODEL>
1

>  <REMARK>
 VINA RESULT:      -7.7      0.000      0.000
  Name = 
  7 active torsions:
  status: ('A' for Active; 'I' for Inactive)
    1  A    between atoms: C_1  and  C_15
    2  A    between atoms: C_6  and  C_16
    3  A    between atoms: C_6  and  N_21
    4  A    between atoms: N_13  and  C_27
    5  A    between atoms: C_14  and  C_28
    6  A    between atoms: C_24  and  N_31
    7  A    between atoms: C_28  and  C_29
                            x       y       z     vdW  Elec       q    Type
                         _______ _______ _______ _____ _____    ______ ____

>  <TORSDO>
F 7

$$$$
=
 OpenBabel11032419313D

 31 35  0  0  1  0  0  0  0  0999 V2000
  189.0490  176.5560  142.3120 C   0  0  2  0  0  3  0  0  0  0  0  0
  187.6350  177.7450  142.3820 S   0  0  0  0  0  0  0  0  0  0  0  0
  189.5520  176.3560  143.6680 N   0  0  0  0  0  2  0  0  0  0  0  0
  188.8690  177.1600  144.6100 C   0  0  2  0  0  3  0  0  0  0  0  0
  188.6690  176.8480  146.0530 C   0  0  2  0  0  3  0  0  0  0  0  0
  187.8910  177.8720  144.1370 C   0  0  2  0  0  3  0  0  0  0  0  0
  187.4110  177.5800  146.3120 C   0  0  1  0  0  3  0  0  0  0  0  0
  188.9100  178.0380  148.0400 C   0  0  0  0  0  2  0  0  0  0  0  0
  187.4710  178.2880  147.6000 C   0  0  0  0  0  2  0  0  0  0  0  0
  186.9220  178.1120  145.1900 C   0  0  1  0  0  3  0  0  0  0  0  0
  189.6650  177.4980  146.8990 N   0  0  1  0  0  0  0  0  0  0  0  0
  191.7990  176.4230  146.6160 C   0  0  0  0  0  2  0  0  0  0  0  0
  191.7430  177.0580  147.8670 O   0  0  0  0  0  0  0  0  0  0  0  0
  190.5510  176.4630  147.4130 C   0  0  1  0  0  3  0  0  0  0  0  0
  185.9300  179.1430  145.1180 N   0  0  0  0  0  2  0  0  0  0  0  0
  184.7660  179.1180  144.2820 C   0  0  0  0  0  0  0  0  0  0  0  0
  183.9110  180.0350  144.3990 O   0  0  0  0  0  0  0  0  0  0  0  0
  184.6150  178.0920  143.1970 C   0  0  0  0  0  2  0  0  0  0  0  0
  182.8090  178.4520  141.6720 O   0  0  0  0  0  1  0  0  0  0  0  0
  184.7990  179.4410  141.1070 O   0  0  0  0  0  0  0  0  0  0  0  0
  184.0150  178.6740  141.9590 C   0  0  0  0  0  0  0  0  0  0  0  0
  190.1400  177.1020  141.4530 C   0  0  0  0  0  3  0  0  0  0  0  0
  190.1000  176.9500  140.1820 N   0  0  0  0  0  0  0  0  0  0  0  0
  191.1600  177.4760  139.3650 C   0  0  0  0  0  2  0  0  0  0  0  0
  191.4890  174.3500  137.2530 C   0  0  0  0  0  3  0  0  0  0  0  0
  193.6890  175.3210  137.5520 C   0  0  0  0  0  0  0  0  0  0  0  0
  190.9300  175.3850  138.0110 C   0  0  0  0  0  3  0  0  0  0  0  0
  195.0920  175.2900  137.3190 N   0  0  0  0  0  1  0  0  0  0  0  0
  191.7500  176.3860  138.5410 C   0  0  0  0  0  0  0  0  0  0  0  0
  192.8680  174.3190  137.0250 C   0  0  0  0  0  3  0  0  0  0  0  0
  193.1310  176.3520  138.3140 C   0  0  0  0  0  3  0  0  0  0  0  0
  1 22  1  6  0  0  0
  1  2  1  0  0  0  0
  1  3  1  0  0  0  0
  2  6  1  0  0  0  0
  4  3  1  6  0  0  0
  4  5  1  0  0  0  0
  5  7  1  0  0  0  0
  5 11  1  0  0  0  0
  6  4  1  0  0  0  0
  6 10  1  0  0  0  0
  7  9  1  0  0  0  0
  9  8  1  0  0  0  0
 10  7  1  0  0  0  0
 11 14  1  0  0  0  0
 11  8  1  0  0  0  0
 12 14  1  0  0  0  0
 12 13  1  0  0  0  0
 14 13  1  0  0  0  0
 15 10  1  0  0  0  0
 16 17  2  0  0  0  0
 16 15  1  0  0  0  0
 18 16  1  0  0  0  0
 19 21  1  0  0  0  0
 20 21  2  0  0  0  0
 21 18  1  0  0  0  0
 23 22  2  0  0  0  0
 24 23  1  0  0  0  0
 25 27  1  0  0  0  0
 26 31  2  0  0  0  0
 27 29  2  0  0  0  0
 28 26  1  0  0  0  0
 29 24  1  0  0  0  0
 30 25  2  0  0  0  0
 30 26  1  0  0  0  0
 31 29  1  0  0  0  0
M  END
>  <MODEL>
2

>  <REMARK>
 VINA RESULT:      -7.6      3.346      8.698
  Name = 
  7 active torsions:
  status: ('A' for Active; 'I' for Inactive)
    1  A    between atoms: C_1  and  C_15
    2  A    between atoms: C_6  and  C_16
    3  A    between atoms: C_6  and  N_21
    4  A    between atoms: N_13  and  C_27
    5  A    between atoms: C_14  and  C_28
    6  A    between atoms: C_24  and  N_31
    7  A    between atoms: C_28  and  C_29
                            x       y       z     vdW  Elec       q    Type
                         _______ _______ _______ _____ _____    ______ ____

>  <TORSDO>
F 7

$$$$
=
 OpenBabel11032419313D

 31 35  0  0  1  0  0  0  0  0999 V2000
  189.1020  178.3660  138.9250 C   0  0  2  0  0  3  0  0  0  0  0  0
  190.3030  177.1550  139.6370 S   0  0  0  0  0  0  0  0  0  0  0  0
  188.0700  178.6330  139.9220 N   0  0  0  0  0  2  0  0  0  0  0  0
  188.2500  177.8580  141.0910 C   0  0  2  0  0  3  0  0  0  0  0  0
  187.8170  178.2280  142.4690 C   0  0  2  0  0  3  0  0  0  0  0  0
  189.3100  177.1080  141.1110 C   0  0  2  0  0  3  0  0  0  0  0  0
  188.8130  177.4850  143.2690 C   0  0  1  0  0  3  0  0  0  0  0  0
  186.6990  177.1300  144.1910 C   0  0  0  0  0  2  0  0  0  0  0  0
  188.1770  176.8340  144.4250 C   0  0  0  0  0  2  0  0  0  0  0  0
  189.7200  176.8950  142.4860 C   0  0  1  0  0  3  0  0  0  0  0  0
  186.5320  177.6350  142.8190 N   0  0  1  0  0  0  0  0  0  0  0  0
  184.3820  178.3630  142.0210 C   0  0  0  0  0  2  0  0  0  0  0  0
  184.3510  178.2140  143.4170 O   0  0  0  0  0  0  0  0  0  0  0  0
  185.5480  178.7070  142.8660 C   0  0  1  0  0  3  0  0  0  0  0  0
  190.6080  175.8430  142.8830 N   0  0  0  0  0  2  0  0  0  0  0  0
  191.4550  175.8630  144.0390 C   0  0  0  0  0  0  0  0  0  0  0  0
  192.1010  174.8250  144.3390 O   0  0  0  0  0  0  0  0  0  0  0  0
  191.6710  177.1280  144.8180 C   0  0  0  0  0  2  0  0  0  0  0  0
  190.2990  177.2660  146.7700 O   0  0  0  0  0  0  0  0  0  0  0  0
  192.4050  176.4190  147.0940 O   0  0  0  0  0  1  0  0  0  0  0  0
  191.4090  176.9370  146.2760 C   0  0  0  0  0  0  0  0  0  0  0  0
  188.4710  177.8040  137.6960 C   0  0  0  0  0  3  0  0  0  0  0  0
  187.3730  177.1460  137.7740 N   0  0  0  0  0  0  0  0  0  0  0  0
  186.7770  176.6060  136.5830 C   0  0  0  0  0  2  0  0  0  0  0  0
  186.1500  172.9650  137.4170 C   0  0  0  0  0  3  0  0  0  0  0  0
  184.0160  174.1010  137.2390 C   0  0  0  0  0  0  0  0  0  0  0  0
  186.8120  174.1660  137.1350 C   0  0  0  0  0  3  0  0  0  0  0  0
  182.5950  174.0690  137.2910 N   0  0  0  0  0  1  0  0  0  0  0  0
  186.0760  175.3330  136.9040 C   0  0  0  0  0  0  0  0  0  0  0  0
  184.7530  172.9340  137.4680 C   0  0  0  0  0  3  0  0  0  0  0  0
  184.6770  175.2990  136.9520 C   0  0  0  0  0  3  0  0  0  0  0  0
  1 22  1  6  0  0  0
  1  2  1  0  0  0  0
  1  3  1  0  0  0  0
  2  6  1  0  0  0  0
  4  3  1  6  0  0  0
  4  6  1  0  0  0  0
  4  5  1  0  0  0  0
  5 11  1  0  0  0  0
  5  7  1  0  0  0  0
  6 10  1  0  0  0  0
  7  9  1  0  0  0  0
  8  9  1  0  0  0  0
 10 15  1  0  0  0  0
 10  7  1  0  0  0  0
 11 14  1  0  0  0  0
 11  8  1  0  0  0  0
 12 14  1  0  0  0  0
 12 13  1  0  0  0  0
 14 13  1  0  0  0  0
 15 16  1  0  0  0  0
 16 17  2  0  0  0  0
 16 18  1  0  0  0  0
 18 21  1  0  0  0  0
 21 19  2  0  0  0  0
 21 20  1  0  0  0  0
 22 23  2  0  0  0  0
 24 29  1  0  0  0  0
 24 23  1  0  0  0  0
 25 30  1  0  0  0  0
 26 28  1  0  0  0  0
 26 30  2  0  0  0  0
 27 25  2  0  0  0  0
 29 31  2  0  0  0  0
 29 27  1  0  0  0  0
 31 26  1  0  0  0  0
M  END
>  <MODEL>
3

>  <REMARK>
 VINA RESULT:      -7.6      4.277      8.810
  Name = 
  7 active torsions:
  status: ('A' for Active; 'I' for Inactive)
    1  A    between atoms: C_1  and  C_15
    2  A    between atoms: C_6  and  C_16
    3  A    between atoms: C_6  and  N_21
    4  A    between atoms: N_13  and  C_27
    5  A    between atoms: C_14  and  C_28
    6  A    between atoms: C_24  and  N_31
    7  A    between atoms: C_28  and  C_29
                            x       y       z     vdW  Elec       q    Type
                         _______ _______ _______ _____ _____    ______ ____

>  <TORSDO>
F 7

$$$$
=
 OpenBabel11032419313D

 31 35  0  0  1  0  0  0  0  0999 V2000
  184.1100  179.2800  139.6440 C   0  0  2  0  0  3  0  0  0  0  0  0
  183.1320  178.2050  138.5030 S   0  0  0  0  0  0  0  0  0  0  0  0
  185.5300  179.0530  139.3890 N   0  0  0  0  0  2  0  0  0  0  0  0
  185.7390  178.0530  138.4120 C   0  0  2  0  0  3  0  0  0  0  0  0
  186.9090  177.9480  137.4950 C   0  0  2  0  0  3  0  0  0  0  0  0
  184.6640  177.5640  137.8690 C   0  0  2  0  0  3  0  0  0  0  0  0
  186.2900  177.2450  136.3510 C   0  0  1  0  0  3  0  0  0  0  0  0
  188.3310  176.2250  136.8360 C   0  0  0  0  0  2  0  0  0  0  0  0
  187.1800  176.1950  135.8350 C   0  0  0  0  0  2  0  0  0  0  0  0
  184.9770  177.0870  136.5350 C   0  0  1  0  0  3  0  0  0  0  0  0
  187.9210  177.0260  138.0000 N   0  0  1  0  0  0  0  0  0  0  0  0
  189.2920  177.6730  139.8690 C   0  0  0  0  0  2  0  0  0  0  0  0
  190.0600  176.9610  138.9330 O   0  0  0  0  0  0  0  0  0  0  0  0
  189.0720  177.8170  138.4120 C   0  0  1  0  0  3  0  0  0  0  0  0
  184.1360  176.1790  135.8130 N   0  0  0  0  0  2  0  0  0  0  0  0
  183.5330  174.9970  136.3550 C   0  0  0  0  0  0  0  0  0  0  0  0
  182.7200  174.3470  135.6470 O   0  0  0  0  0  0  0  0  0  0  0  0
  183.9470  174.4630  137.6950 C   0  0  0  0  0  2  0  0  0  0  0  0
  186.0550  173.3390  137.6170 O   0  0  0  0  0  1  0  0  0  0  0  0
  184.2080  172.0020  137.3740 O   0  0  0  0  0  0  0  0  0  0  0  0
  184.8010  173.2430  137.5700 C   0  0  0  0  0  0  0  0  0  0  0  0
  183.8010  178.9430  141.0640 C   0  0  0  0  0  3  0  0  0  0  0  0
  184.7070  179.0400  141.9650 N   0  0  0  0  0  0  0  0  0  0  0  0
  184.3970  178.7070  143.3280 C   0  0  0  0  0  2  0  0  0  0  0  0
  186.9740  178.0010  146.0130 C   0  0  0  0  0  3  0  0  0  0  0  0
  187.7380  177.0300  143.9280 C   0  0  0  0  0  0  0  0  0  0  0  0
  185.8160  178.4580  145.3750 C   0  0  0  0  0  3  0  0  0  0  0  0
  188.7140  176.3040  143.1910 N   0  0  0  0  0  1  0  0  0  0  0  0
  185.6190  178.2030  144.0140 C   0  0  0  0  0  0  0  0  0  0  0  0
  187.9340  177.2880  145.2880 C   0  0  0  0  0  3  0  0  0  0  0  0
  186.5830  177.4920  143.2890 C   0  0  0  0  0  3  0  0  0  0  0  0
  1 22  1  1  0  0  0
  2  1  1  0  0  0  0
  3  1  1  0  0  0  0
  4  3  1  6  0  0  0
  5 11  1  0  0  0  0
  5  4  1  0  0  0  0
  6  4  1  0  0  0  0
  6  2  1  0  0  0  0
  7 10  1  0  0  0  0
  7  5  1  0  0  0  0
  8 11  1  0  0  0  0
  9  7  1  0  0  0  0
  9  8  1  0  0  0  0
 10  6  1  0  0  0  0
 11 14  1  0  0  0  0
 13 12  1  0  0  0  0
 14 13  1  0  0  0  0
 14 12  1  0  0  0  0
 15 16  1  0  0  0  0
 15 10  1  0  0  0  0
 16 18  1  0  0  0  0
 17 16  2  0  0  0  0
 20 21  2  0  0  0  0
 21 19  1  0  0  0  0
 21 18  1  0  0  0  0
 22 23  2  0  0  0  0
 23 24  1  0  0  0  0
 24 29  1  0  0  0  0
 26 30  1  0  0  0  0
 27 25  1  0  0  0  0
 28 26  1  0  0  0  0
 29 27  2  0  0  0  0
 30 25  2  0  0  0  0
 31 26  2  0  0  0  0
 31 29  1  0  0  0  0
M  END
>  <MODEL>
4

>  <REMARK>
 VINA RESULT:      -7.4      3.760      5.768
  Name = 
  7 active torsions:
  status: ('A' for Active; 'I' for Inactive)
    1  A    between atoms: C_1  and  C_15
    2  A    between atoms: C_6  and  C_16
    3  A    between atoms: C_6  and  N_21
    4  A    between atoms: N_13  and  C_27
    5  A    between atoms: C_14  and  C_28
    6  A    between atoms: C_24  and  N_31
    7  A    between atoms: C_28  and  C_29
                            x       y       z     vdW  Elec       q    Type
                         _______ _______ _______ _____ _____    ______ ____

>  <TORSDO>
F 7

$$$$
=
 OpenBabel11032419313D

 31 35  0  0  1  0  0  0  0  0999 V2000
  188.8390  176.4850  142.5690 C   0  0  2  0  0  3  0  0  0  0  0  0
  187.4080  177.6450  142.7180 S   0  0  0  0  0  0  0  0  0  0  0  0
  189.4380  176.3170  143.8900 N   0  0  0  0  0  2  0  0  0  0  0  0
  188.8030  177.1210  144.8640 C   0  0  2  0  0  3  0  0  0  0  0  0
  188.7080  176.8280  146.3230 C   0  0  2  0  0  3  0  0  0  0  0  0
  187.7800  177.8050  144.4500 C   0  0  2  0  0  3  0  0  0  0  0  0
  187.4550  177.5370  146.6560 C   0  0  1  0  0  3  0  0  0  0  0  0
  189.0570  178.0530  148.2710 C   0  0  0  0  0  2  0  0  0  0  0  0
  187.5870  178.2670  147.9270 C   0  0  0  0  0  2  0  0  0  0  0  0
  186.8790  178.0420  145.5620 C   0  0  1  0  0  3  0  0  0  0  0  0
  189.7440  177.5110  147.0890 N   0  0  1  0  0  0  0  0  0  0  0  0
  191.8520  176.4380  146.6450 C   0  0  0  0  0  2  0  0  0  0  0  0
  191.9100  177.1230  147.8700 O   0  0  0  0  0  0  0  0  0  0  0  0
  190.6860  176.5030  147.5560 C   0  0  1  0  0  3  0  0  0  0  0  0
  185.8620  179.0510  145.5430 N   0  0  0  0  0  2  0  0  0  0  0  0
  184.7010  179.0430  144.7040 C   0  0  0  0  0  0  0  0  0  0  0  0
  183.8230  179.9310  144.8680 O   0  0  0  0  0  0  0  0  0  0  0  0
  184.5760  178.0730  143.5650 C   0  0  0  0  0  2  0  0  0  0  0  0
  182.7200  178.6080  142.1560 O   0  0  0  0  0  1  0  0  0  0  0  0
  184.7600  179.3790  141.4470 O   0  0  0  0  0  0  0  0  0  0  0  0
  183.9590  178.7050  142.3600 C   0  0  0  0  0  0  0  0  0  0  0  0
  189.8580  177.0400  141.6300 C   0  0  0  0  0  3  0  0  0  0  0  0
  189.9550  176.5820  140.4370 N   0  0  0  0  0  0  0  0  0  0  0  0
  190.9430  177.1220  139.5430 C   0  0  0  0  0  2  0  0  0  0  0  0
  188.8160  178.6490  136.8070 C   0  0  0  0  0  3  0  0  0  0  0  0
  190.0770  176.8020  135.8720 C   0  0  0  0  0  0  0  0  0  0  0  0
  189.4060  178.4200  138.0550 C   0  0  0  0  0  3  0  0  0  0  0  0
  190.4190  175.9800  134.7630 N   0  0  0  0  0  1  0  0  0  0  0  0
  190.3300  177.3810  138.2120 C   0  0  0  0  0  0  0  0  0  0  0  0
  189.1520  177.8400  135.7170 C   0  0  0  0  0  3  0  0  0  0  0  0
  190.6630  176.5700  137.1200 C   0  0  0  0  0  3  0  0  0  0  0  0
  1 22  1  6  0  0  0
  1  2  1  0  0  0  0
  1  3  1  0  0  0  0
  2  6  1  0  0  0  0
  4  3  1  6  0  0  0
  4  5  1  0  0  0  0
  5  7  1  0  0  0  0
  5 11  1  0  0  0  0
  6  4  1  0  0  0  0
  6 10  1  0  0  0  0
  7  9  1  0  0  0  0
  9  8  1  0  0  0  0
 10  7  1  0  0  0  0
 11 14  1  0  0  0  0
 11  8  1  0  0  0  0
 12 14  1  0  0  0  0
 12 13  1  0  0  0  0
 14 13  1  0  0  0  0
 15 10  1  0  0  0  0
 16 17  2  0  0  0  0
 16 15  1  0  0  0  0
 18 16  1  0  0  0  0
 19 21  1  0  0  0  0
 20 21  2  0  0  0  0
 21 18  1  0  0  0  0
 23 22  2  0  0  0  0
 24 23  1  0  0  0  0
 25 27  1  0  0  0  0
 26 31  2  0  0  0  0
 27 29  2  0  0  0  0
 28 26  1  0  0  0  0
 29 24  1  0  0  0  0
 30 26  1  0  0  0  0
 30 25  2  0  0  0  0
 31 29  1  0  0  0  0
M  END
>  <MODEL>
5

>  <REMARK>
 VINA RESULT:      -7.3      3.520      8.825
  Name = 
  7 active torsions:
  status: ('A' for Active; 'I' for Inactive)
    1  A    between atoms: C_1  and  C_15
    2  A    between atoms: C_6  and  C_16
    3  A    between atoms: C_6  and  N_21
    4  A    between atoms: N_13  and  C_27
    5  A    between atoms: C_14  and  C_28
    6  A    between atoms: C_24  and  N_31
    7  A    between atoms: C_28  and  C_29
                            x       y       z     vdW  Elec       q    Type
                         _______ _______ _______ _____ _____    ______ ____

>  <TORSDO>
F 7

$$$$
=
 OpenBabel11032419313D

 31 35  0  0  1  0  0  0  0  0999 V2000
  190.0590  177.3860  139.9060 C   0  0  2  0  0  3  0  0  0  0  0  0
  188.7060  178.6450  139.9460 S   0  0  0  0  0  0  0  0  0  0  0  0
  189.6870  176.3370  138.9630 N   0  0  0  0  0  2  0  0  0  0  0  0
  188.4010  176.5500  138.4140 C   0  0  2  0  0  3  0  0  0  0  0  0
  187.9260  176.0930  137.0780 C   0  0  2  0  0  3  0  0  0  0  0  0
  187.8090  177.6480  138.7790 C   0  0  2  0  0  3  0  0  0  0  0  0
  186.9030  177.1210  136.7920 C   0  0  1  0  0  3  0  0  0  0  0  0
  186.0130  175.0240  136.2910 C   0  0  0  0  0  2  0  0  0  0  0  0
  185.6960  176.5140  136.2120 C   0  0  0  0  0  2  0  0  0  0  0  0
  186.8850  178.0610  137.7400 C   0  0  1  0  0  3  0  0  0  0  0  0
  187.1860  174.8380  137.1580 N   0  0  1  0  0  0  0  0  0  0  0  0
  187.7580  172.5010  137.2210 C   0  0  0  0  0  2  0  0  0  0  0  0
  187.1790  172.8210  135.9810 O   0  0  0  0  0  0  0  0  0  0  0  0
  188.0120  173.8000  136.5560 C   0  0  1  0  0  3  0  0  0  0  0  0
  185.8270  179.0010  137.9640 N   0  0  0  0  0  2  0  0  0  0  0  0
  185.1270  179.1830  139.2020 C   0  0  0  0  0  0  0  0  0  0  0  0
  184.2970  180.1240  139.3000 O   0  0  0  0  0  0  0  0  0  0  0  0
  185.2810  178.2040  140.3290 C   0  0  0  0  0  2  0  0  0  0  0  0
  183.6830  178.3320  142.1030 O   0  0  0  0  0  0  0  0  0  0  0  0
  185.4740  179.7540  142.2740 O   0  0  0  0  0  1  0  0  0  0  0  0
  184.7670  178.7540  141.6190 C   0  0  0  0  0  0  0  0  0  0  0  0
  190.2500  176.7910  141.2610 C   0  0  0  0  0  3  0  0  0  0  0  0
  189.7630  177.3680  142.2960 N   0  0  0  0  0  0  0  0  0  0  0  0
  189.9580  176.7870  143.5960 C   0  0  0  0  0  2  0  0  0  0  0  0
  186.4330  177.5080  144.7800 C   0  0  0  0  0  3  0  0  0  0  0  0
  187.9500  177.7610  146.6530 C   0  0  0  0  0  0  0  0  0  0  0  0
  187.5110  177.1690  143.9540 C   0  0  0  0  0  3  0  0  0  0  0  0
  188.1740  178.0620  148.0250 N   0  0  0  0  0  1  0  0  0  0  0  0
  188.8080  177.1270  144.4780 C   0  0  0  0  0  0  0  0  0  0  0  0
  186.6540  177.8050  146.1290 C   0  0  0  0  0  3  0  0  0  0  0  0
  189.0270  177.4270  145.8270 C   0  0  0  0  0  3  0  0  0  0  0  0
  1  2  1  0  0  0  0
  1 22  1  1  0  0  0
  3  1  1  0  0  0  0
  4  6  1  0  0  0  0
  4  3  1  6  0  0  0
  5 11  1  0  0  0  0
  5  4  1  0  0  0  0
  6  2  1  0  0  0  0
  7  5  1  0  0  0  0
  7 10  1  0  0  0  0
  8 11  1  0  0  0  0
  9  8  1  0  0  0  0
  9  7  1  0  0  0  0
 10 15  1  0  0  0  0
 10  6  1  0  0  0  0
 13 14  1  0  0  0  0
 13 12  1  0  0  0  0
 14 11  1  0  0  0  0
 14 12  1  0  0  0  0
 15 16  1  0  0  0  0
 16 17  2  0  0  0  0
 16 18  1  0  0  0  0
 18 21  1  0  0  0  0
 21 19  2  0  0  0  0
 21 20  1  0  0  0  0
 22 23  2  0  0  0  0
 23 24  1  0  0  0  0
 24 29  1  0  0  0  0
 25 30  1  0  0  0  0
 26 28  1  0  0  0  0
 27 29  1  0  0  0  0
 27 25  2  0  0  0  0
 29 31  2  0  0  0  0
 30 26  2  0  0  0  0
 31 26  1  0  0  0  0
M  END
>  <MODEL>
6

>  <REMARK>
 VINA RESULT:      -7.1      3.175      4.459
  Name = 
  7 active torsions:
  status: ('A' for Active; 'I' for Inactive)
    1  A    between atoms: C_1  and  C_15
    2  A    between atoms: C_6  and  C_16
    3  A    between atoms: C_6  and  N_21
    4  A    between atoms: N_13  and  C_27
    5  A    between atoms: C_14  and  C_28
    6  A    between atoms: C_24  and  N_31
    7  A    between atoms: C_28  and  C_29
                            x       y       z     vdW  Elec       q    Type
                         _______ _______ _______ _____ _____    ______ ____

>  <TORSDO>
F 7

$$$$
=
 OpenBabel11032419313D

 31 35  0  0  1  0  0  0  0  0999 V2000
  189.3120  178.0630  139.5200 C   0  0  2  0  0  3  0  0  0  0  0  0
  189.6490  177.2760  141.1580 S   0  0  0  0  0  0  0  0  0  0  0  0
  187.9370  178.5530  139.5170 N   0  0  0  0  0  2  0  0  0  0  0  0
  187.2590  178.2350  140.7160 C   0  0  2  0  0  3  0  0  0  0  0  0
  186.1360  179.0040  141.3230 C   0  0  2  0  0  3  0  0  0  0  0  0
  187.9700  177.6350  141.6220 C   0  0  2  0  0  3  0  0  0  0  0  0
  186.3230  178.6660  142.7510 C   0  0  1  0  0  3  0  0  0  0  0  0
  184.0610  178.4490  142.2230 C   0  0  0  0  0  2  0  0  0  0  0  0
  185.0330  178.3850  143.3980 C   0  0  0  0  0  2  0  0  0  0  0  0
  187.4250  177.9340  142.9330 C   0  0  1  0  0  3  0  0  0  0  0  0
  184.8340  178.4470  140.9720 N   0  0  1  0  0  0  0  0  0  0  0  0
  183.8360  178.6880  138.7950 C   0  0  0  0  0  2  0  0  0  0  0  0
  182.8790  178.9330  139.7940 O   0  0  0  0  0  0  0  0  0  0  0  0
  184.1880  179.3780  140.0580 C   0  0  1  0  0  3  0  0  0  0  0  0
  187.7310  177.1620  144.1000 N   0  0  0  0  0  2  0  0  0  0  0  0
  188.7830  177.4460  145.0310 C   0  0  0  0  0  0  0  0  0  0  0  0
  188.8720  176.7550  146.0810 O   0  0  0  0  0  0  0  0  0  0  0  0
  189.8400  178.4640  144.7170 C   0  0  0  0  0  2  0  0  0  0  0  0
  191.6780  177.4060  145.8210 O   0  0  0  0  0  1  0  0  0  0  0  0
  191.9850  177.8590  143.5940 O   0  0  0  0  0  0  0  0  0  0  0  0
  191.2120  177.8710  144.7480 C   0  0  0  0  0  0  0  0  0  0  0  0
  189.4860  177.0660  138.4230 C   0  0  0  0  0  3  0  0  0  0  0  0
  188.7650  177.1340  137.3660 N   0  0  0  0  0  0  0  0  0  0  0  0
  188.9380  176.1650  136.3190 C   0  0  0  0  0  2  0  0  0  0  0  0
  188.0600  172.5280  136.9010 C   0  0  0  0  0  3  0  0  0  0  0  0
  186.0670  173.8690  137.2190 C   0  0  0  0  0  0  0  0  0  0  0  0
  188.7940  173.6860  136.6200 C   0  0  0  0  0  3  0  0  0  0  0  0
  184.6810  173.9640  137.5240 N   0  0  0  0  0  1  0  0  0  0  0  0
  188.1640  174.9350  136.6380 C   0  0  0  0  0  0  0  0  0  0  0  0
  186.6970  172.6210  137.1990 C   0  0  0  0  0  3  0  0  0  0  0  0
  186.7990  175.0260  136.9340 C   0  0  0  0  0  3  0  0  0  0  0  0
  1 22  1  6  0  0  0
  1  2  1  0  0  0  0
  2  6  1  0  0  0  0
  3  1  1  0  0  0  0
  4  3  1  1  0  0  0
  4  5  1  0  0  0  0
  4  6  1  0  0  0  0
  5  7  1  0  0  0  0
  6 10  1  0  0  0  0
  7 10  1  0  0  0  0
  7  9  1  0  0  0  0
  8  9  1  0  0  0  0
 10 15  1  0  0  0  0
 11  5  1  0  0  0  0
 11  8  1  0  0  0  0
 12 13  1  0  0  0  0
 12 14  1  0  0  0  0
 13 14  1  0  0  0  0
 14 11  1  0  0  0  0
 15 16  1  0  0  0  0
 16 17  2  0  0  0  0
 18 21  1  0  0  0  0
 18 16  1  0  0  0  0
 20 21  2  0  0  0  0
 21 19  1  0  0  0  0
 23 22  2  0  0  0  0
 24 29  1  0  0  0  0
 24 23  1  0  0  0  0
 25 30  1  0  0  0  0
 26 28  1  0  0  0  0
 27 29  1  0  0  0  0
 27 25  2  0  0  0  0
 29 31  2  0  0  0  0
 30 26  2  0  0  0  0
 31 26  1  0  0  0  0
M  END
>  <MODEL>
7

>  <REMARK>
 VINA RESULT:      -7.0      4.062      8.854
  Name = 
  7 active torsions:
  status: ('A' for Active; 'I' for Inactive)
    1  A    between atoms: C_1  and  C_15
    2  A    between atoms: C_6  and  C_16
    3  A    between atoms: C_6  and  N_21
    4  A    between atoms: N_13  and  C_27
    5  A    between atoms: C_14  and  C_28
    6  A    between atoms: C_24  and  N_31
    7  A    between atoms: C_28  and  C_29
                            x       y       z     vdW  Elec       q    Type
                         _______ _______ _______ _____ _____    ______ ____

>  <TORSDO>
F 7

$$$$
=
 OpenBabel11032419313D

 31 35  0  0  1  0  0  0  0  0999 V2000
  189.4320  178.1630  139.5760 C   0  0  2  0  0  3  0  0  0  0  0  0
  189.7550  177.3640  141.2110 S   0  0  0  0  0  0  0  0  0  0  0  0
  188.0440  178.6130  139.5470 N   0  0  0  0  0  2  0  0  0  0  0  0
  187.3480  178.2580  140.7260 C   0  0  2  0  0  3  0  0  0  0  0  0
  186.1900  178.9860  141.3180 C   0  0  2  0  0  3  0  0  0  0  0  0
  188.0560  177.6680  141.6410 C   0  0  2  0  0  3  0  0  0  0  0  0
  186.3550  178.6340  142.7440 C   0  0  1  0  0  3  0  0  0  0  0  0
  184.1120  178.3580  142.1620 C   0  0  0  0  0  2  0  0  0  0  0  0
  185.0590  178.3060  143.3580 C   0  0  0  0  0  2  0  0  0  0  0  0
  187.4730  177.9320  142.9420 C   0  0  1  0  0  3  0  0  0  0  0  0
  184.9130  178.3960  140.9290 N   0  0  1  0  0  0  0  0  0  0  0  0
  183.8700  178.6130  138.7710 C   0  0  0  0  0  2  0  0  0  0  0  0
  182.9390  178.8920  139.7860 O   0  0  0  0  0  0  0  0  0  0  0  0
  184.2600  179.3200  140.0130 C   0  0  1  0  0  3  0  0  0  0  0  0
  187.7750  177.1530  144.1060 N   0  0  0  0  0  2  0  0  0  0  0  0
  188.8270  177.4280  145.0390 C   0  0  0  0  0  0  0  0  0  0  0  0
  188.9130  176.7320  146.0850 O   0  0  0  0  0  0  0  0  0  0  0  0
  189.8890  178.4440  144.7310 C   0  0  0  0  0  2  0  0  0  0  0  0
  192.0330  177.8860  143.8310 O   0  0  0  0  0  0  0  0  0  0  0  0
  191.6780  177.2660  146.0100 O   0  0  0  0  0  1  0  0  0  0  0  0
  191.2620  177.8620  144.8260 C   0  0  0  0  0  0  0  0  0  0  0  0
  189.6600  177.1870  138.4700 C   0  0  0  0  0  3  0  0  0  0  0  0
  190.2130  176.0560  138.7100 N   0  0  0  0  0  0  0  0  0  0  0  0
  190.4320  175.1260  137.6360 C   0  0  0  0  0  2  0  0  0  0  0  0
  193.2520  175.9120  135.2330 C   0  0  0  0  0  3  0  0  0  0  0  0
  194.2050  175.1850  137.3390 C   0  0  0  0  0  0  0  0  0  0  0  0
  191.9660  175.7560  135.7620 C   0  0  0  0  0  3  0  0  0  0  0  0
  195.3430  174.8940  138.1420 N   0  0  0  0  0  1  0  0  0  0  0  0
  191.7990  175.3130  137.0780 C   0  0  0  0  0  0  0  0  0  0  0  0
  194.3700  175.6260  136.0220 C   0  0  0  0  0  3  0  0  0  0  0  0
  192.9200  175.0240  137.8660 C   0  0  0  0  0  3  0  0  0  0  0  0
  1 22  1  6  0  0  0
  1  2  1  0  0  0  0
  2  6  1  0  0  0  0
  3  1  1  0  0  0  0
  4  3  1  1  0  0  0
  4  5  1  0  0  0  0
  4  6  1  0  0  0  0
  5  7  1  0  0  0  0
  6 10  1  0  0  0  0
  7 10  1  0  0  0  0
  7  9  1  0  0  0  0
  8  9  1  0  0  0  0
 10 15  1  0  0  0  0
 11  5  1  0  0  0  0
 11  8  1  0  0  0  0
 12 13  1  0  0  0  0
 12 14  1  0  0  0  0
 13 14  1  0  0  0  0
 14 11  1  0  0  0  0
 15 16  1  0  0  0  0
 16 17  2  0  0  0  0
 18 21  1  0  0  0  0
 18 16  1  0  0  0  0
 19 21  2  0  0  0  0
 21 20  1  0  0  0  0
 22 23  2  0  0  0  0
 24 23  1  0  0  0  0
 25 27  2  0  0  0  0
 25 30  1  0  0  0  0
 26 31  1  0  0  0  0
 26 28  1  0  0  0  0
 27 29  1  0  0  0  0
 29 24  1  0  0  0  0
 29 31  2  0  0  0  0
 30 26  2  0  0  0  0
M  END
>  <MODEL>
8

>  <REMARK>
 VINA RESULT:      -7.0      3.834      9.054
  Name = 
  7 active torsions:
  status: ('A' for Active; 'I' for Inactive)
    1  A    between atoms: C_1  and  C_15
    2  A    between atoms: C_6  and  C_16
    3  A    between atoms: C_6  and  N_21
    4  A    between atoms: N_13  and  C_27
    5  A    between atoms: C_14  and  C_28
    6  A    between atoms: C_24  and  N_31
    7  A    between atoms: C_28  and  C_29
                            x       y       z     vdW  Elec       q    Type
                         _______ _______ _______ _____ _____    ______ ____

>  <TORSDO>
F 7

$$$$
=
 OpenBabel11032419313D

 31 35  0  0  1  0  0  0  0  0999 V2000
  185.0430  178.9570  142.9370 C   0  0  2  0  0  3  0  0  0  0  0  0
  183.2370  178.6020  142.7740 S   0  0  0  0  0  0  0  0  0  0  0  0
  185.6520  178.8700  141.6130 N   0  0  0  0  0  2  0  0  0  0  0  0
  184.7180  178.4850  140.6250 C   0  0  2  0  0  3  0  0  0  0  0  0
  184.7720  178.8360  139.1770 C   0  0  2  0  0  3  0  0  0  0  0  0
  183.4930  178.3430  141.0340 C   0  0  2  0  0  3  0  0  0  0  0  0
  183.3320  178.8020  138.8400 C   0  0  1  0  0  3  0  0  0  0  0  0
  184.5130  177.6520  137.1890 C   0  0  0  0  0  2  0  0  0  0  0  0
  183.1110  178.1360  137.5480 C   0  0  0  0  0  2  0  0  0  0  0  0
  182.5870  178.5880  139.9270 C   0  0  1  0  0  3  0  0  0  0  0  0
  185.3720  177.7740  138.3760 N   0  0  1  0  0  0  0  0  0  0  0  0
  187.7210  177.2590  138.2890 C   0  0  0  0  0  2  0  0  0  0  0  0
  187.1950  177.3320  136.9880 O   0  0  0  0  0  0  0  0  0  0  0  0
  186.6740  178.2430  137.9260 C   0  0  1  0  0  3  0  0  0  0  0  0
  181.2170  178.1680  139.9320 N   0  0  0  0  0  2  0  0  0  0  0  0
  180.0920  179.0070  140.2210 C   0  0  0  0  0  0  0  0  0  0  0  0
  178.9310  178.5420  140.0760 O   0  0  0  0  0  0  0  0  0  0  0  0
  180.2790  180.3770  140.8040 C   0  0  0  0  0  2  0  0  0  0  0  0
  180.7780  181.5360  138.7730 O   0  0  0  0  0  0  0  0  0  0  0  0
  179.0260  182.3750  139.9910 O   0  0  0  0  0  1  0  0  0  0  0  0
  180.0440  181.4510  139.7920 C   0  0  0  0  0  0  0  0  0  0  0  0
  185.6850  177.9630  143.8450 C   0  0  0  0  0  3  0  0  0  0  0  0
  186.6180  178.3250  144.6460 N   0  0  0  0  0  0  0  0  0  0  0  0
  187.2320  177.3560  145.5130 C   0  0  0  0  0  2  0  0  0  0  0  0
  190.6860  177.9120  144.0640 C   0  0  0  0  0  3  0  0  0  0  0  0
  190.9170  177.1250  146.3450 C   0  0  0  0  0  0  0  0  0  0  0  0
  189.2940  177.8570  144.1870 C   0  0  0  0  0  3  0  0  0  0  0  0
  191.7410  176.7520  147.4420 N   0  0  0  0  0  1  0  0  0  0  0  0
  188.7130  177.4350  145.3870 C   0  0  0  0  0  0  0  0  0  0  0  0
  191.4970  177.5450  145.1430 C   0  0  0  0  0  3  0  0  0  0  0  0
  189.5250  177.0650  146.4660 C   0  0  0  0  0  3  0  0  0  0  0  0
  1 22  1  1  0  0  0
  2  1  1  0  0  0  0
  3  1  1  0  0  0  0
  4  6  1  0  0  0  0
  4  3  1  1  0  0  0
  5  4  1  0  0  0  0
  6  2  1  0  0  0  0
  7  5  1  0  0  0  0
  7 10  1  0  0  0  0
  8  9  1  0  0  0  0
  8 11  1  0  0  0  0
  9  7  1  0  0  0  0
 10 15  1  0  0  0  0
 10  6  1  0  0  0  0
 11  5  1  0  0  0  0
 13 14  1  0  0  0  0
 13 12  1  0  0  0  0
 14 12  1  0  0  0  0
 14 11  1  0  0  0  0
 15 16  1  0  0  0  0
 16 18  1  0  0  0  0
 17 16  2  0  0  0  0
 19 21  2  0  0  0  0
 21 20  1  0  0  0  0
 21 18  1  0  0  0  0
 22 23  2  0  0  0  0
 23 24  1  0  0  0  0
 25 27  2  0  0  0  0
 25 30  1  0  0  0  0
 26 31  1  0  0  0  0
 26 28  1  0  0  0  0
 27 29  1  0  0  0  0
 29 24  1  0  0  0  0
 29 31  2  0  0  0  0
 30 26  2  0  0  0  0
M  END
>  <MODEL>
9

>  <REMARK>
 VINA RESULT:      -6.9      5.149      7.356
  Name = 
  7 active torsions:
  status: ('A' for Active; 'I' for Inactive)
    1  A    between atoms: C_1  and  C_15
    2  A    between atoms: C_6  and  C_16
    3  A    between atoms: C_6  and  N_21
    4  A    between atoms: N_13  and  C_27
    5  A    between atoms: C_14  and  C_28
    6  A    between atoms: C_24  and  N_31
    7  A    between atoms: C_28  and  C_29
                            x       y       z     vdW  Elec       q    Type
                         _______ _______ _______ _____ _____    ______ ____

>  <TORSDO>
F 7

$$$$
