=
 OpenBabel11032420303D

 33 35  0  0  1  0  0  0  0  0999 V2000
  186.3060  178.6690  137.9070 N   0  0  0  0  0  0  0  0  0  0  0  0
  186.1100  176.8340  135.8340 C   0  0  0  0  0  3  0  0  0  0  0  0
  187.2430  178.6350  136.9140 C   0  0  0  0  0  3  0  0  0  0  0  0
  187.1420  177.7270  135.8930 N   0  0  0  0  0  0  0  0  0  0  0  0
  185.2820  177.7810  137.8550 C   0  0  0  0  0  0  0  0  0  0  0  0
  183.4260  176.4720  138.0890 C   0  0  0  0  0  0  0  0  0  0  0  0
  182.2190  175.8850  138.5770 N   0  0  0  0  0  2  0  0  0  0  0  0
  185.1630  176.8730  136.8470 C   0  0  0  0  0  0  0  0  0  0  0  0
  184.1520  177.5840  138.7510 C   0  0  0  0  0  0  0  0  0  0  0  0
  183.8580  178.2350  139.8900 C   0  0  0  0  0  0  0  0  0  0  0  0
  184.0050  176.0610  136.9970 N   0  0  0  0  0  0  0  0  0  0  0  0
  181.6220  174.8690  137.9120 O   0  0  0  0  0  1  0  0  0  0  0  0
  182.6290  177.8670  140.6720 C   0  0  0  0  0  2  0  0  0  0  0  0
  182.0520  178.9870  141.2960 O   0  0  0  0  0  0  0  0  0  0  0  0
  179.2070  179.9970  142.2720 C   0  0  0  0  0  2  0  0  0  0  0  0
  180.9000  178.6140  143.8660 Cl  0  0  0  0  0  0  0  0  0  0  0  0
  180.2670  178.0390  140.0960 O   0  0  0  0  0  1  0  0  0  0  0  0
  179.9820  180.2780  140.9970 C   0  0  0  0  0  2  0  0  0  0  0  0
  180.6530  178.9210  141.1130 C   0  0  2  0  0  0  0  0  0  0  0  0
  179.8790  178.6400  142.3970 C   0  0  2  0  0  3  0  0  0  0  0  0
  184.7770  179.3120  140.4000 C   0  0  0  0  0  2  0  0  0  0  0  0
  185.6300  178.8140  141.5220 C   0  0  0  0  0  0  0  0  0  0  0  0
  186.8540  178.3600  141.2410 C   0  0  0  0  0  3  0  0  0  0  0  0
  185.1130  178.8370  142.8710 C   0  0  0  0  0  0  0  0  0  0  0  0
  184.1600  178.8680  145.3620 C   0  0  0  0  0  1  0  0  0  0  0  0
  184.6820  178.8520  143.9960 C   0  0  0  0  0  0  0  0  0  0  0  0
  188.5240  177.4590  143.0870 C   0  0  0  0  0  0  0  0  0  0  0  0
  187.7670  177.8720  142.2450 C   0  0  0  0  0  0  0  0  0  0  0  0
  189.2660  177.8590  146.5360 C   0  0  0  0  0  3  0  0  0  0  0  0
  189.4200  176.9610  144.0910 C   0  0  0  0  0  3  0  0  0  0  0  0
  189.3430  177.4090  145.3130 C   0  0  0  0  0  0  0  0  0  0  0  0
  188.5960  177.0650  147.6080 C   0  0  0  0  0  2  0  0  0  0  0  0
  188.1870  177.9590  148.7660 C   0  0  0  0  0  1  0  0  0  0  0  0
  2  4  2  0  0  0  0
  2  8  1  0  0  0  0
  3  1  2  0  0  0  0
  4  3  1  0  0  0  0
  5  1  1  0  0  0  0
  5  9  1  0  0  0  0
  6  7  1  0  0  0  0
  6  9  1  0  0  0  0
  8 11  1  0  0  0  0
  8  5  2  0  0  0  0
  9 10  2  0  0  0  0
 10 21  1  0  0  0  0
 10 13  1  0  0  0  0
 11  6  2  0  0  0  0
 12  7  1  0  0  0  0
 13 14  1  0  0  0  0
 15 20  1  0  0  0  0
 18 19  1  0  0  0  0
 18 15  1  0  0  0  0
 19 17  1  6  0  0  0
 19 14  1  0  0  0  0
 19 20  1  0  0  0  0
 20 16  1  1  0  0  0
 21 22  1  0  0  0  0
 22 24  1  0  0  0  0
 23 22  2  0  0  0  0
 23 28  1  0  0  0  0
 24 26  3  0  0  0  0
 26 25  1  0  0  0  0
 27 30  1  0  0  0  0
 28 27  3  0  0  0  0
 29 32  1  0  0  0  0
 30 31  2  0  0  0  0
 31 29  2  0  0  0  0
 32 33  1  0  0  0  0
M  END
>  <MODEL>
1

>  <REMARK>
 VINA RESULT:      -7.7      0.000      0.000
  Name = 
  9 active torsions:
  status: ('A' for Active; 'I' for Inactive)
    1  A    between atoms: C_1  and  C_18
    2  A    between atoms: C_2  and  C_7
    3  A    between atoms: C_3  and  C_8
    4  A    between atoms: C_3  and  C_17
    5  A    between atoms: O_6  and  C_15
    6  A    between atoms: O_6  and  C_31
    7  A    between atoms: C_9  and  C_10
    8  A    between atoms: C_15  and  C_27
    9  A    between atoms: C_17  and  C_27
                            x       y       z     vdW  Elec       q    Type
                         _______ _______ _______ _____ _____    ______ ____

>  <TORSDO>
F 9

$$$$
=
 OpenBabel11032420303D

 33 35  0  0  1  0  0  0  0  0999 V2000
  186.4480  178.6370  137.8560 N   0  0  0  0  0  0  0  0  0  0  0  0
  186.7100  176.6670  135.9210 C   0  0  0  0  0  3  0  0  0  0  0  0
  187.5050  178.6450  136.9900 C   0  0  0  0  0  3  0  0  0  0  0  0
  187.6290  177.6690  136.0370 N   0  0  0  0  0  0  0  0  0  0  0  0
  185.5350  177.6410  137.7470 C   0  0  0  0  0  0  0  0  0  0  0  0
  183.8060  176.1520  137.8510 C   0  0  0  0  0  0  0  0  0  0  0  0
  182.6120  175.4680  138.2300 N   0  0  0  0  0  2  0  0  0  0  0  0
  185.6400  176.6640  136.8040 C   0  0  0  0  0  0  0  0  0  0  0  0
  184.3240  177.3770  138.5100 C   0  0  0  0  0  0  0  0  0  0  0  0
  183.8200  178.0620  139.5520 C   0  0  0  0  0  0  0  0  0  0  0  0
  184.5610  175.7400  136.8730 N   0  0  0  0  0  0  0  0  0  0  0  0
  182.2120  174.3520  137.5770 O   0  0  0  0  0  1  0  0  0  0  0  0
  182.5440  177.6100  140.2030 C   0  0  0  0  0  2  0  0  0  0  0  0
  181.7860  178.6960  140.6760 O   0  0  0  0  0  0  0  0  0  0  0  0
  178.9310  179.3160  141.9130 C   0  0  0  0  0  2  0  0  0  0  0  0
  181.1350  178.9270  143.4320 Cl  0  0  0  0  0  0  0  0  0  0  0  0
  180.1850  177.0460  140.1910 O   0  0  0  0  0  1  0  0  0  0  0  0
  179.4210  179.3350  140.4750 C   0  0  0  0  0  2  0  0  0  0  0  0
  180.4470  178.2700  140.8190 C   0  0  2  0  0  0  0  0  0  0  0  0
  179.9590  178.2540  142.2640 C   0  0  2  0  0  3  0  0  0  0  0  0
  184.5510  179.2630  140.0870 C   0  0  0  0  0  2  0  0  0  0  0  0
  185.1650  178.9790  141.4200 C   0  0  0  0  0  0  0  0  0  0  0  0
  184.4050  179.0900  142.5110 C   0  0  0  0  0  3  0  0  0  0  0  0
  186.5560  178.5930  141.4920 C   0  0  0  0  0  0  0  0  0  0  0  0
  189.1200  177.8690  141.6260 C   0  0  0  0  0  1  0  0  0  0  0  0
  187.7150  178.2670  141.5530 C   0  0  0  0  0  0  0  0  0  0  0  0
  185.2840  178.6050  144.9600 C   0  0  0  0  0  0  0  0  0  0  0  0
  184.8870  178.8240  143.8430 C   0  0  0  0  0  0  0  0  0  0  0  0
  188.0000  177.0830  146.6680 C   0  0  0  0  0  3  0  0  0  0  0  0
  185.7490  178.3470  146.2930 C   0  0  0  0  0  3  0  0  0  0  0  0
  186.8730  177.7160  146.4810 C   0  0  0  0  0  0  0  0  0  0  0  0
  189.2460  177.8190  147.0310 C   0  0  0  0  0  2  0  0  0  0  0  0
  189.2110  178.2570  148.4860 C   0  0  0  0  0  1  0  0  0  0  0  0
  2  4  2  0  0  0  0
  2  8  1  0  0  0  0
  3  1  2  0  0  0  0
  4  3  1  0  0  0  0
  5  1  1  0  0  0  0
  5  9  1  0  0  0  0
  6  7  1  0  0  0  0
  6  9  1  0  0  0  0
  8 11  1  0  0  0  0
  8  5  2  0  0  0  0
  9 10  2  0  0  0  0
 10 21  1  0  0  0  0
 10 13  1  0  0  0  0
 11  6  2  0  0  0  0
 12  7  1  0  0  0  0
 13 14  1  0  0  0  0
 14 19  1  0  0  0  0
 15 20  1  0  0  0  0
 18 19  1  0  0  0  0
 18 15  1  0  0  0  0
 19 17  1  6  0  0  0
 19 20  1  0  0  0  0
 20 16  1  1  0  0  0
 21 22  1  0  0  0  0
 22 24  1  0  0  0  0
 22 23  2  0  0  0  0
 23 28  1  0  0  0  0
 24 26  3  0  0  0  0
 26 25  1  0  0  0  0
 27 30  1  0  0  0  0
 28 27  3  0  0  0  0
 29 32  1  0  0  0  0
 30 31  2  0  0  0  0
 31 29  2  0  0  0  0
 32 33  1  0  0  0  0
M  END
>  <MODEL>
2

>  <REMARK>
 VINA RESULT:      -7.4      0.910      2.028
  Name = 
  9 active torsions:
  status: ('A' for Active; 'I' for Inactive)
    1  A    between atoms: C_1  and  C_18
    2  A    between atoms: C_2  and  C_7
    3  A    between atoms: C_3  and  C_8
    4  A    between atoms: C_3  and  C_17
    5  A    between atoms: O_6  and  C_15
    6  A    between atoms: O_6  and  C_31
    7  A    between atoms: C_9  and  C_10
    8  A    between atoms: C_15  and  C_27
    9  A    between atoms: C_17  and  C_27
                            x       y       z     vdW  Elec       q    Type
                         _______ _______ _______ _____ _____    ______ ____

>  <TORSDO>
F 9

$$$$
=
 OpenBabel11032420303D

 33 35  0  0  1  0  0  0  0  0999 V2000
  186.5190  178.6370  137.7210 N   0  0  0  0  0  0  0  0  0  0  0  0
  187.0060  176.6490  135.8480 C   0  0  0  0  0  3  0  0  0  0  0  0
  187.6280  178.6850  136.9240 C   0  0  0  0  0  3  0  0  0  0  0  0
  187.8630  177.7000  136.0020 N   0  0  0  0  0  0  0  0  0  0  0  0
  185.6670  177.5920  137.5750 C   0  0  0  0  0  0  0  0  0  0  0  0
  184.0140  176.0170  137.6000 C   0  0  0  0  0  0  0  0  0  0  0  0
  182.8340  175.2780  137.9170 N   0  0  0  0  0  2  0  0  0  0  0  0
  185.8830  176.6060  136.6610 C   0  0  0  0  0  0  0  0  0  0  0  0
  184.4240  177.2790  138.2640 C   0  0  0  0  0  0  0  0  0  0  0  0
  183.8200  177.9550  139.2580 C   0  0  0  0  0  0  0  0  0  0  0  0
  184.8500  175.6270  136.6810 N   0  0  0  0  0  0  0  0  0  0  0  0
  182.5350  174.1310  137.2630 O   0  0  0  0  0  1  0  0  0  0  0  0
  182.5280  177.4480  139.8350 C   0  0  0  0  0  2  0  0  0  0  0  0
  181.4120  177.9970  139.1790 O   0  0  0  0  0  0  0  0  0  0  0  0
  179.1580  180.1760  139.6700 C   0  0  0  0  0  2  0  0  0  0  0  0
  181.5010  180.7390  138.4400 Cl  0  0  0  0  0  0  0  0  0  0  0  0
  180.9680  178.3790  141.4550 O   0  0  0  0  0  1  0  0  0  0  0  0
  179.1510  178.6700  139.8680 C   0  0  0  0  0  2  0  0  0  0  0  0
  180.6460  178.7040  140.1320 C   0  0  2  0  0  0  0  0  0  0  0  0
  180.6550  180.2160  139.9270 C   0  0  2  0  0  3  0  0  0  0  0  0
  184.4520  179.2020  139.8120 C   0  0  0  0  0  2  0  0  0  0  0  0
  185.0300  178.9630  141.1700 C   0  0  0  0  0  0  0  0  0  0  0  0
  184.2290  179.0670  142.2330 C   0  0  0  0  0  3  0  0  0  0  0  0
  186.4300  178.6280  141.2960 C   0  0  0  0  0  0  0  0  0  0  0  0
  189.0160  178.0120  141.5160 C   0  0  0  0  0  1  0  0  0  0  0  0
  187.5980  178.3490  141.3960 C   0  0  0  0  0  0  0  0  0  0  0  0
  185.0400  178.6510  144.7180 C   0  0  0  0  0  0  0  0  0  0  0  0
  184.6750  178.8420  143.5850 C   0  0  0  0  0  0  0  0  0  0  0  0
  187.7020  177.1580  146.5320 C   0  0  0  0  0  3  0  0  0  0  0  0
  185.4670  178.4210  146.0690 C   0  0  0  0  0  3  0  0  0  0  0  0
  186.5830  177.7900  146.3010 C   0  0  0  0  0  0  0  0  0  0  0  0
  188.9410  177.8970  146.9130 C   0  0  0  0  0  2  0  0  0  0  0  0
  188.9200  178.2630  148.3870 C   0  0  0  0  0  1  0  0  0  0  0  0
  2  4  2  0  0  0  0
  2  8  1  0  0  0  0
  3  1  2  0  0  0  0
  4  3  1  0  0  0  0
  5  1  1  0  0  0  0
  5  9  1  0  0  0  0
  6  7  1  0  0  0  0
  6  9  1  0  0  0  0
  8 11  1  0  0  0  0
  8  5  2  0  0  0  0
  9 10  2  0  0  0  0
 10 21  1  0  0  0  0
 10 13  1  0  0  0  0
 11  6  2  0  0  0  0
 12  7  1  0  0  0  0
 14 13  1  0  0  0  0
 14 19  1  0  0  0  0
 15 18  1  0  0  0  0
 15 20  1  0  0  0  0
 18 19  1  0  0  0  0
 19 17  1  1  0  0  0
 20 16  1  6  0  0  0
 20 19  1  0  0  0  0
 21 22  1  0  0  0  0
 22 24  1  0  0  0  0
 22 23  2  0  0  0  0
 23 28  1  0  0  0  0
 24 26  3  0  0  0  0
 26 25  1  0  0  0  0
 27 30  1  0  0  0  0
 28 27  3  0  0  0  0
 29 32  1  0  0  0  0
 30 31  2  0  0  0  0
 31 29  2  0  0  0  0
 32 33  1  0  0  0  0
M  END
>  <MODEL>
3

>  <REMARK>
 VINA RESULT:      -7.4      1.583      2.495
  Name = 
  9 active torsions:
  status: ('A' for Active; 'I' for Inactive)
    1  A    between atoms: C_1  and  C_18
    2  A    between atoms: C_2  and  C_7
    3  A    between atoms: C_3  and  C_8
    4  A    between atoms: C_3  and  C_17
    5  A    between atoms: O_6  and  C_15
    6  A    between atoms: O_6  and  C_31
    7  A    between atoms: C_9  and  C_10
    8  A    between atoms: C_15  and  C_27
    9  A    between atoms: C_17  and  C_27
                            x       y       z     vdW  Elec       q    Type
                         _______ _______ _______ _____ _____    ______ ____

>  <TORSDO>
F 9

$$$$
=
 OpenBabel11032420303D

 33 35  0  0  1  0  0  0  0  0999 V2000
  182.0700  178.9150  141.2420 N   0  0  0  0  0  0  0  0  0  0  0  0
  179.8670  177.3340  140.6540 C   0  0  0  0  0  3  0  0  0  0  0  0
  180.9170  179.0280  141.9650 C   0  0  0  0  0  3  0  0  0  0  0  0
  179.8320  178.2450  141.6700 N   0  0  0  0  0  0  0  0  0  0  0  0
  182.1080  178.0140  140.2290 C   0  0  0  0  0  0  0  0  0  0  0  0
  182.5480  176.6090  138.4840 C   0  0  0  0  0  0  0  0  0  0  0  0
  183.1900  175.9230  137.4080 N   0  0  0  0  0  2  0  0  0  0  0  0
  181.0410  177.2250  139.9230 C   0  0  0  0  0  0  0  0  0  0  0  0
  183.1790  177.6720  139.3040 C   0  0  0  0  0  0  0  0  0  0  0  0
  184.4120  178.2010  139.2130 C   0  0  0  0  0  0  0  0  0  0  0  0
  181.3200  176.3510  138.8360 N   0  0  0  0  0  0  0  0  0  0  0  0
  182.5390  174.9650  136.7070 O   0  0  0  0  0  1  0  0  0  0  0  0
  185.3710  177.6970  138.1710 C   0  0  0  0  0  2  0  0  0  0  0  0
  186.3890  178.6290  137.9050 O   0  0  0  0  0  0  0  0  0  0  0  0
  188.8720  176.7710  137.2350 C   0  0  0  0  0  2  0  0  0  0  0  0
  189.0710  178.9870  138.7730 Cl  0  0  0  0  0  0  0  0  0  0  0  0
  186.8920  178.5400  135.6110 O   0  0  0  0  0  1  0  0  0  0  0  0
  187.3880  176.5870  136.9690 C   0  0  0  0  0  2  0  0  0  0  0  0
  187.2220  178.0950  136.8960 C   0  0  2  0  0  0  0  0  0  0  0  0
  188.7110  178.2800  137.1700 C   0  0  2  0  0  3  0  0  0  0  0  0
  184.8220  179.3180  140.1330 C   0  0  0  0  0  2  0  0  0  0  0  0
  185.5860  178.8020  141.3090 C   0  0  0  0  0  0  0  0  0  0  0  0
  186.8190  178.3290  141.1140 C   0  0  0  0  0  3  0  0  0  0  0  0
  184.9750  178.8290  142.6180 C   0  0  0  0  0  0  0  0  0  0  0  0
  183.8550  178.8870  145.0390 C   0  0  0  0  0  1  0  0  0  0  0  0
  184.4680  178.8550  143.7120 C   0  0  0  0  0  0  0  0  0  0  0  0
  188.3480  177.3930  143.0610 C   0  0  0  0  0  0  0  0  0  0  0  0
  187.6500  177.8230  142.1770 C   0  0  0  0  0  0  0  0  0  0  0  0
  189.0430  177.8890  146.5080 C   0  0  0  0  0  3  0  0  0  0  0  0
  189.1820  176.8750  144.1080 C   0  0  0  0  0  3  0  0  0  0  0  0
  189.1130  177.3810  145.3070 C   0  0  0  0  0  0  0  0  0  0  0  0
  188.2930  177.1960  147.5960 C   0  0  0  0  0  2  0  0  0  0  0  0
  188.2400  178.0550  148.8470 C   0  0  0  0  0  1  0  0  0  0  0  0
  1  3  1  0  0  0  0
  2  4  1  0  0  0  0
  4  3  2  0  0  0  0
  5  1  2  0  0  0  0
  6 11  2  0  0  0  0
  6  9  1  0  0  0  0
  7  6  1  0  0  0  0
  8  5  1  0  0  0  0
  8  2  2  0  0  0  0
  9  5  1  0  0  0  0
 10  9  2  0  0  0  0
 10 21  1  0  0  0  0
 11  8  1  0  0  0  0
 12  7  1  0  0  0  0
 13 10  1  0  0  0  0
 14 13  1  0  0  0  0
 18 15  1  0  0  0  0
 19 17  1  6  0  0  0
 19 18  1  0  0  0  0
 19 20  1  0  0  0  0
 19 14  1  0  0  0  0
 20 15  1  0  0  0  0
 20 16  1  1  0  0  0
 21 22  1  0  0  0  0
 22 24  1  0  0  0  0
 23 22  2  0  0  0  0
 23 28  1  0  0  0  0
 24 26  3  0  0  0  0
 26 25  1  0  0  0  0
 27 30  1  0  0  0  0
 28 27  3  0  0  0  0
 29 32  1  0  0  0  0
 30 31  2  0  0  0  0
 31 29  2  0  0  0  0
 32 33  1  0  0  0  0
M  END
>  <MODEL>
4

>  <REMARK>
 VINA RESULT:      -7.4      2.668      5.188
  Name = 
  9 active torsions:
  status: ('A' for Active; 'I' for Inactive)
    1  A    between atoms: C_1  and  C_18
    2  A    between atoms: C_2  and  C_7
    3  A    between atoms: C_3  and  C_8
    4  A    between atoms: C_3  and  C_17
    5  A    between atoms: O_6  and  C_15
    6  A    between atoms: O_6  and  C_31
    7  A    between atoms: C_9  and  C_10
    8  A    between atoms: C_15  and  C_27
    9  A    between atoms: C_17  and  C_27
                            x       y       z     vdW  Elec       q    Type
                         _______ _______ _______ _____ _____    ______ ____

>  <TORSDO>
F 9

$$$$
=
 OpenBabel11032420303D

 33 35  0  0  1  0  0  0  0  0999 V2000
  188.3450  178.7570  139.2760 N   0  0  0  0  0  0  0  0  0  0  0  0
  190.5700  177.2800  138.5210 C   0  0  0  0  0  3  0  0  0  0  0  0
  188.9100  178.9260  138.0440 C   0  0  0  0  0  3  0  0  0  0  0  0
  190.0090  178.1950  137.6770 N   0  0  0  0  0  0  0  0  0  0  0  0
  188.9010  177.8520  140.1190 C   0  0  0  0  0  0  0  0  0  0  0  0
  189.5400  176.4230  141.7820 C   0  0  0  0  0  0  0  0  0  0  0  0
  189.6170  175.7040  143.0130 N   0  0  0  0  0  2  0  0  0  0  0  0
  189.9910  177.1140  139.7720 C   0  0  0  0  0  0  0  0  0  0  0  0
  188.5240  177.4570  141.4680 C   0  0  0  0  0  0  0  0  0  0  0  0
  187.5210  177.9260  142.2330 C   0  0  0  0  0  0  0  0  0  0  0  0
  190.3850  176.2250  140.8100 N   0  0  0  0  0  0  0  0  0  0  0  0
  190.5810  174.7770  143.2180 O   0  0  0  0  0  1  0  0  0  0  0  0
  187.3080  177.3750  143.6140 C   0  0  0  0  0  2  0  0  0  0  0  0
  187.7930  178.2460  144.6050 O   0  0  0  0  0  0  0  0  0  0  0  0
  188.3820  178.2390  147.7230 C   0  0  0  0  0  2  0  0  0  0  0  0
  190.2210  177.5050  145.8800 Cl  0  0  0  0  0  0  0  0  0  0  0  0
  186.4300  176.7550  145.8050 O   0  0  0  0  0  1  0  0  0  0  0  0
  187.1970  178.7670  146.9320 C   0  0  0  0  0  2  0  0  0  0  0  0
  187.4480  177.7140  145.8670 C   0  0  2  0  0  0  0  0  0  0  0  0
  188.6420  177.1880  146.6570 C   0  0  2  0  0  3  0  0  0  0  0  0
  186.6320  179.0250  141.7170 C   0  0  0  0  0  2  0  0  0  0  0  0
  185.1890  178.6460  141.8060 C   0  0  0  0  0  0  0  0  0  0  0  0
  184.5500  178.2980  140.6880 C   0  0  0  0  0  3  0  0  0  0  0  0
  184.5290  178.6650  143.0920 C   0  0  0  0  0  0  0  0  0  0  0  0
  183.3190  178.7090  145.4690 C   0  0  0  0  0  1  0  0  0  0  0  0
  183.9820  178.6840  144.1650 C   0  0  0  0  0  0  0  0  0  0  0  0
  182.0050  177.5690  140.6280 C   0  0  0  0  0  0  0  0  0  0  0  0
  183.1650  177.8990  140.6590 C   0  0  0  0  0  0  0  0  0  0  0  0
  179.9140  175.0340  139.2840 C   0  0  0  0  0  3  0  0  0  0  0  0
  180.6240  177.1820  140.5840 C   0  0  0  0  0  3  0  0  0  0  0  0
  180.2690  176.1090  139.9350 C   0  0  0  0  0  0  0  0  0  0  0  0
  179.6160  173.7610  140.0030 C   0  0  0  0  0  2  0  0  0  0  0  0
  179.3060  174.0260  141.4660 C   0  0  0  0  0  1  0  0  0  0  0  0
  1  5  1  0  0  0  0
  2  8  1  0  0  0  0
  3  1  2  0  0  0  0
  4  3  1  0  0  0  0
  4  2  2  0  0  0  0
  5  9  1  0  0  0  0
  6  7  1  0  0  0  0
  7 12  1  0  0  0  0
  8  5  2  0  0  0  0
  8 11  1  0  0  0  0
  9  6  1  0  0  0  0
  9 10  2  0  0  0  0
 10 13  1  0  0  0  0
 11  6  2  0  0  0  0
 13 14  1  0  0  0  0
 14 19  1  0  0  0  0
 18 15  1  0  0  0  0
 19 17  1  6  0  0  0
 19 20  1  0  0  0  0
 19 18  1  0  0  0  0
 20 16  1  6  0  0  0
 20 15  1  0  0  0  0
 21 22  1  0  0  0  0
 21 10  1  0  0  0  0
 22 24  1  0  0  0  0
 23 22  2  0  0  0  0
 24 26  3  0  0  0  0
 26 25  1  0  0  0  0
 27 28  3  0  0  0  0
 28 23  1  0  0  0  0
 29 31  2  0  0  0  0
 29 32  1  0  0  0  0
 30 27  1  0  0  0  0
 31 30  2  0  0  0  0
 32 33  1  0  0  0  0
M  END
>  <MODEL>
5

>  <REMARK>
 VINA RESULT:      -7.3      3.914      7.345
  Name = 
  9 active torsions:
  status: ('A' for Active; 'I' for Inactive)
    1  A    between atoms: C_1  and  C_18
    2  A    between atoms: C_2  and  C_7
    3  A    between atoms: C_3  and  C_8
    4  A    between atoms: C_3  and  C_17
    5  A    between atoms: O_6  and  C_15
    6  A    between atoms: O_6  and  C_31
    7  A    between atoms: C_9  and  C_10
    8  A    between atoms: C_15  and  C_27
    9  A    between atoms: C_17  and  C_27
                            x       y       z     vdW  Elec       q    Type
                         _______ _______ _______ _____ _____    ______ ____

>  <TORSDO>
F 9

$$$$
=
 OpenBabel11032420303D

 33 35  0  0  1  0  0  0  0  0999 V2000
  190.2590  176.3850  138.5410 N   0  0  0  0  0  0  0  0  0  0  0  0
  190.2340  174.1080  136.9560 C   0  0  0  0  0  3  0  0  0  0  0  0
  191.3510  175.5670  138.4770 C   0  0  0  0  0  3  0  0  0  0  0  0
  191.3330  174.4440  137.6930 N   0  0  0  0  0  0  0  0  0  0  0  0
  189.1640  176.0530  137.8140 C   0  0  0  0  0  0  0  0  0  0  0  0
  187.1690  175.8320  136.7250 C   0  0  0  0  0  0  0  0  0  0  0  0
  185.8380  176.0430  136.2520 N   0  0  0  0  0  2  0  0  0  0  0  0
  189.1280  174.9430  137.0260 C   0  0  0  0  0  0  0  0  0  0  0  0
  187.8770  176.7200  137.6790 C   0  0  0  0  0  0  0  0  0  0  0  0
  187.4450  177.8430  138.2810 C   0  0  0  0  0  0  0  0  0  0  0  0
  187.8840  174.8100  136.3500 N   0  0  0  0  0  0  0  0  0  0  0  0
  185.2640  175.1790  135.3820 O   0  0  0  0  0  1  0  0  0  0  0  0
  186.0630  178.3630  137.9990 C   0  0  0  0  0  2  0  0  0  0  0  0
  185.0880  177.6920  138.7580 O   0  0  0  0  0  0  0  0  0  0  0  0
  182.0670  178.1220  139.6290 C   0  0  0  0  0  2  0  0  0  0  0  0
  182.7690  177.0030  137.2680 Cl  0  0  0  0  0  0  0  0  0  0  0  0
  184.5190  179.9530  139.0520 O   0  0  0  0  0  1  0  0  0  0  0  0
  183.3640  178.2950  140.4020 C   0  0  0  0  0  2  0  0  0  0  0  0
  184.0840  178.6230  139.1060 C   0  0  2  0  0  0  0  0  0  0  0  0
  182.7850  178.4430  138.3280 C   0  0  2  0  0  3  0  0  0  0  0  0
  188.3320  178.5610  139.2600 C   0  0  0  0  0  2  0  0  0  0  0  0
  187.9690  178.2280  140.6710 C   0  0  0  0  0  0  0  0  0  0  0  0
  186.8580  178.7580  141.1880 C   0  0  0  0  0  3  0  0  0  0  0  0
  188.8220  177.3450  141.4330 C   0  0  0  0  0  0  0  0  0  0  0  0
  190.4050  175.7260  142.8440 C   0  0  0  0  0  1  0  0  0  0  0  0
  189.5370  176.6130  142.0700 C   0  0  0  0  0  0  0  0  0  0  0  0
  186.0180  178.2670  143.6500 C   0  0  0  0  0  0  0  0  0  0  0  0
  186.4050  178.4920  142.5300 C   0  0  0  0  0  0  0  0  0  0  0  0
  187.2580  177.4470  146.8740 C   0  0  0  0  0  3  0  0  0  0  0  0
  185.5510  177.9940  144.9790 C   0  0  0  0  0  3  0  0  0  0  0  0
  186.4040  177.7210  145.9260 C   0  0  0  0  0  0  0  0  0  0  0  0
  187.6500  178.4770  147.8800 C   0  0  0  0  0  2  0  0  0  0  0  0
  189.0080  178.1580  148.4800 C   0  0  0  0  0  1  0  0  0  0  0  0
  2  8  2  0  0  0  0
  2  4  1  0  0  0  0
  3  1  1  0  0  0  0
  4  3  2  0  0  0  0
  5  1  2  0  0  0  0
  6  9  1  0  0  0  0
  7  6  1  0  0  0  0
  8  5  1  0  0  0  0
  9  5  1  0  0  0  0
  9 10  2  0  0  0  0
 10 21  1  0  0  0  0
 11  6  2  0  0  0  0
 11  8  1  0  0  0  0
 12  7  1  0  0  0  0
 13 10  1  0  0  0  0
 13 14  1  0  0  0  0
 14 19  1  0  0  0  0
 15 18  1  0  0  0  0
 19 17  1  6  0  0  0
 19 18  1  0  0  0  0
 20 16  1  6  0  0  0
 20 19  1  0  0  0  0
 20 15  1  0  0  0  0
 21 22  1  0  0  0  0
 22 23  2  0  0  0  0
 22 24  1  0  0  0  0
 23 28  1  0  0  0  0
 24 26  3  0  0  0  0
 26 25  1  0  0  0  0
 27 30  1  0  0  0  0
 28 27  3  0  0  0  0
 29 32  1  0  0  0  0
 30 31  2  0  0  0  0
 31 29  2  0  0  0  0
 32 33  1  0  0  0  0
M  END
>  <MODEL>
6

>  <REMARK>
 VINA RESULT:      -7.2      2.977      4.273
  Name = 
  9 active torsions:
  status: ('A' for Active; 'I' for Inactive)
    1  A    between atoms: C_1  and  C_18
    2  A    between atoms: C_2  and  C_7
    3  A    between atoms: C_3  and  C_8
    4  A    between atoms: C_3  and  C_17
    5  A    between atoms: O_6  and  C_15
    6  A    between atoms: O_6  and  C_31
    7  A    between atoms: C_9  and  C_10
    8  A    between atoms: C_15  and  C_27
    9  A    between atoms: C_17  and  C_27
                            x       y       z     vdW  Elec       q    Type
                         _______ _______ _______ _____ _____    ______ ____

>  <TORSDO>
F 9

$$$$
=
 OpenBabel11032420303D

 33 35  0  0  1  0  0  0  0  0999 V2000
  185.6060  178.9400  138.9790 N   0  0  0  0  0  0  0  0  0  0  0  0
  183.4930  177.7670  137.6150 C   0  0  0  0  0  3  0  0  0  0  0  0
  184.3460  179.4620  139.0610 C   0  0  0  0  0  3  0  0  0  0  0  0
  183.3070  178.8790  138.3840 N   0  0  0  0  0  0  0  0  0  0  0  0
  185.7960  177.8370  138.2120 C   0  0  0  0  0  0  0  0  0  0  0  0
  186.4890  175.9980  137.0490 C   0  0  0  0  0  0  0  0  0  0  0  0
  187.2870  174.9570  136.4850 N   0  0  0  0  0  2  0  0  0  0  0  0
  184.7750  177.2420  137.5350 C   0  0  0  0  0  0  0  0  0  0  0  0
  187.0010  177.0670  137.9410 C   0  0  0  0  0  0  0  0  0  0  0  0
  188.2540  177.2860  138.3770 C   0  0  0  0  0  0  0  0  0  0  0  0
  185.2110  176.0970  136.8130 N   0  0  0  0  0  0  0  0  0  0  0  0
  186.7390  174.0210  135.6760 O   0  0  0  0  0  1  0  0  0  0  0  0
  189.3650  176.3590  137.9700 C   0  0  0  0  0  2  0  0  0  0  0  0
  190.3660  177.0300  137.2470 O   0  0  0  0  0  0  0  0  0  0  0  0
  192.2360  174.4880  137.5790 C   0  0  0  0  0  2  0  0  0  0  0  0
  192.8230  176.8930  138.6680 Cl  0  0  0  0  0  0  0  0  0  0  0  0
  191.2260  176.2360  135.2090 O   0  0  0  0  0  1  0  0  0  0  0  0
  190.8420  174.6320  136.9930 C   0  0  0  0  0  2  0  0  0  0  0  0
  191.1640  176.0620  136.5970 C   0  0  2  0  0  0  0  0  0  0  0  0
  192.5610  175.9200  137.1910 C   0  0  2  0  0  3  0  0  0  0  0  0
  188.5520  178.4770  139.2480 C   0  0  0  0  0  2  0  0  0  0  0  0
  188.7890  178.0690  140.6660 C   0  0  0  0  0  0  0  0  0  0  0  0
  190.0080  177.6510  141.0150 C   0  0  0  0  0  3  0  0  0  0  0  0
  187.7020  178.1380  141.6150 C   0  0  0  0  0  0  0  0  0  0  0  0
  185.7030  178.2640  143.3770 C   0  0  0  0  0  1  0  0  0  0  0  0
  186.7980  178.1950  142.4110 C   0  0  0  0  0  0  0  0  0  0  0  0
  190.6400  176.9210  143.4800 C   0  0  0  0  0  0  0  0  0  0  0  0
  190.3530  177.2500  142.3560 C   0  0  0  0  0  0  0  0  0  0  0  0
  189.8010  177.6930  146.8430 C   0  0  0  0  0  3  0  0  0  0  0  0
  190.9780  176.5390  144.8210 C   0  0  0  0  0  3  0  0  0  0  0  0
  190.3900  177.1150  145.8310 C   0  0  0  0  0  0  0  0  0  0  0  0
  188.6940  177.0160  147.5800 C   0  0  0  0  0  2  0  0  0  0  0  0
  188.2080  177.8760  148.7340 C   0  0  0  0  0  1  0  0  0  0  0  0
  1  3  1  0  0  0  0
  2  4  1  0  0  0  0
  4  3  2  0  0  0  0
  5  1  2  0  0  0  0
  6  9  1  0  0  0  0
  7  6  1  0  0  0  0
  8  2  2  0  0  0  0
  8  5  1  0  0  0  0
  9  5  1  0  0  0  0
  9 10  2  0  0  0  0
 10 21  1  0  0  0  0
 11  6  2  0  0  0  0
 11  8  1  0  0  0  0
 12  7  1  0  0  0  0
 13 10  1  0  0  0  0
 14 13  1  0  0  0  0
 18 15  1  0  0  0  0
 19 17  1  6  0  0  0
 19 18  1  0  0  0  0
 19 20  1  0  0  0  0
 19 14  1  0  0  0  0
 20 15  1  0  0  0  0
 20 16  1  1  0  0  0
 21 22  1  0  0  0  0
 22 23  2  0  0  0  0
 22 24  1  0  0  0  0
 23 28  1  0  0  0  0
 24 26  3  0  0  0  0
 26 25  1  0  0  0  0
 27 30  1  0  0  0  0
 28 27  3  0  0  0  0
 29 32  1  0  0  0  0
 30 31  2  0  0  0  0
 31 29  2  0  0  0  0
 32 33  1  0  0  0  0
M  END
>  <MODEL>
7

>  <REMARK>
 VINA RESULT:      -7.2      4.240      6.560
  Name = 
  9 active torsions:
  status: ('A' for Active; 'I' for Inactive)
    1  A    between atoms: C_1  and  C_18
    2  A    between atoms: C_2  and  C_7
    3  A    between atoms: C_3  and  C_8
    4  A    between atoms: C_3  and  C_17
    5  A    between atoms: O_6  and  C_15
    6  A    between atoms: O_6  and  C_31
    7  A    between atoms: C_9  and  C_10
    8  A    between atoms: C_15  and  C_27
    9  A    between atoms: C_17  and  C_27
                            x       y       z     vdW  Elec       q    Type
                         _______ _______ _______ _____ _____    ______ ____

>  <TORSDO>
F 9

$$$$
=
 OpenBabel11032420303D

 33 35  0  0  1  0  0  0  0  0999 V2000
  187.6330  178.6560  138.2220 N   0  0  0  0  0  0  0  0  0  0  0  0
  189.1080  176.6960  136.9250 C   0  0  0  0  0  3  0  0  0  0  0  0
  188.9910  178.7630  138.1100 C   0  0  0  0  0  3  0  0  0  0  0  0
  189.7140  177.7920  137.4690 N   0  0  0  0  0  0  0  0  0  0  0  0
  187.0280  177.5670  137.6880 C   0  0  0  0  0  0  0  0  0  0  0  0
  185.6740  175.9040  136.9020 C   0  0  0  0  0  0  0  0  0  0  0  0
  184.5350  175.1020  136.5870 N   0  0  0  0  0  2  0  0  0  0  0  0
  187.7300  176.5930  137.0440 C   0  0  0  0  0  0  0  0  0  0  0  0
  185.6240  177.1870  137.6470 C   0  0  0  0  0  0  0  0  0  0  0  0
  184.5630  177.8290  138.1680 C   0  0  0  0  0  0  0  0  0  0  0  0
  186.8810  175.5600  136.5570 N   0  0  0  0  0  0  0  0  0  0  0  0
  184.6700  173.9410  135.9050 O   0  0  0  0  0  1  0  0  0  0  0  0
  183.1840  177.2540  138.0120 C   0  0  0  0  0  2  0  0  0  0  0  0
  182.3460  178.1020  137.2670 O   0  0  0  0  0  0  0  0  0  0  0  0
  179.3830  179.2370  137.2530 C   0  0  0  0  0  2  0  0  0  0  0  0
  181.5020  180.6790  138.1170 Cl  0  0  0  0  0  0  0  0  0  0  0  0
  180.8840  176.9020  138.6620 O   0  0  0  0  0  1  0  0  0  0  0  0
  179.9640  177.9580  136.6760 C   0  0  0  0  0  2  0  0  0  0  0  0
  181.0280  177.9620  137.7590 C   0  0  2  0  0  0  0  0  0  0  0  0
  180.4490  179.2500  138.3350 C   0  0  2  0  0  3  0  0  0  0  0  0
  184.7600  179.1090  138.9340 C   0  0  0  0  0  2  0  0  0  0  0  0
  184.6050  178.8940  140.4050 C   0  0  0  0  0  0  0  0  0  0  0  0
  185.7030  178.8180  141.1590 C   0  0  0  0  0  3  0  0  0  0  0  0
  183.2800  178.7740  140.9670 C   0  0  0  0  0  0  0  0  0  0  0  0
  180.8370  178.5480  142.0170 C   0  0  0  0  0  1  0  0  0  0  0  0
  182.1760  178.6720  141.4410 C   0  0  0  0  0  0  0  0  0  0  0  0
  185.6510  178.4740  143.7830 C   0  0  0  0  0  0  0  0  0  0  0  0
  185.6710  178.6280  142.5880 C   0  0  0  0  0  0  0  0  0  0  0  0
  187.6640  177.1770  146.4050 C   0  0  0  0  0  3  0  0  0  0  0  0
  185.6340  178.2950  145.2070 C   0  0  0  0  0  3  0  0  0  0  0  0
  186.6480  177.7370  145.8060 C   0  0  0  0  0  0  0  0  0  0  0  0
  188.6770  177.9960  147.1320 C   0  0  0  0  0  2  0  0  0  0  0  0
  188.3580  178.0570  148.6160 C   0  0  0  0  0  1  0  0  0  0  0  0
  2  8  2  0  0  0  0
  2  4  1  0  0  0  0
  3  1  1  0  0  0  0
  4  3  2  0  0  0  0
  5  1  2  0  0  0  0
  6  9  1  0  0  0  0
  7  6  1  0  0  0  0
  8  5  1  0  0  0  0
  9  5  1  0  0  0  0
  9 10  2  0  0  0  0
 10 21  1  0  0  0  0
 11  6  2  0  0  0  0
 11  8  1  0  0  0  0
 12  7  1  0  0  0  0
 13 10  1  0  0  0  0
 14 19  1  0  0  0  0
 14 13  1  0  0  0  0
 15 20  1  0  0  0  0
 18 15  1  0  0  0  0
 18 19  1  0  0  0  0
 19 20  1  0  0  0  0
 19 17  1  1  0  0  0
 20 16  1  6  0  0  0
 21 22  1  0  0  0  0
 22 24  1  0  0  0  0
 22 23  2  0  0  0  0
 23 28  1  0  0  0  0
 24 26  3  0  0  0  0
 26 25  1  0  0  0  0
 27 30  1  0  0  0  0
 28 27  3  0  0  0  0
 29 32  1  0  0  0  0
 30 31  2  0  0  0  0
 31 29  2  0  0  0  0
 32 33  1  0  0  0  0
M  END
>  <MODEL>
8

>  <REMARK>
 VINA RESULT:      -7.0      2.294      3.115
  Name = 
  9 active torsions:
  status: ('A' for Active; 'I' for Inactive)
    1  A    between atoms: C_1  and  C_18
    2  A    between atoms: C_2  and  C_7
    3  A    between atoms: C_3  and  C_8
    4  A    between atoms: C_3  and  C_17
    5  A    between atoms: O_6  and  C_15
    6  A    between atoms: O_6  and  C_31
    7  A    between atoms: C_9  and  C_10
    8  A    between atoms: C_15  and  C_27
    9  A    between atoms: C_17  and  C_27
                            x       y       z     vdW  Elec       q    Type
                         _______ _______ _______ _____ _____    ______ ____

>  <TORSDO>
F 9

$$$$
=
 OpenBabel11032420303D

 33 35  0  0  1  0  0  0  0  0999 V2000
  187.1460  177.8750  138.1510 N   0  0  0  0  0  0  0  0  0  0  0  0
  185.4020  176.2900  136.6870 C   0  0  0  0  0  3  0  0  0  0  0  0
  185.8460  178.2530  137.9670 C   0  0  0  0  0  3  0  0  0  0  0  0
  184.9900  177.4670  137.2430 N   0  0  0  0  0  0  0  0  0  0  0  0
  187.5610  176.7090  137.5970 C   0  0  0  0  0  0  0  0  0  0  0  0
  188.6030  174.8220  136.8420 C   0  0  0  0  0  0  0  0  0  0  0  0
  189.5760  173.8140  136.5660 N   0  0  0  0  0  2  0  0  0  0  0  0
  186.7240  175.9120  136.8770 C   0  0  0  0  0  0  0  0  0  0  0  0
  188.8610  176.0550  137.6260 C   0  0  0  0  0  0  0  0  0  0  0  0
  190.0010  176.4750  138.2030 C   0  0  0  0  0  0  0  0  0  0  0  0
  187.3770  174.7390  136.4090 N   0  0  0  0  0  0  0  0  0  0  0  0
  189.2570  172.7200  135.8370 O   0  0  0  0  0  1  0  0  0  0  0  0
  191.2450  175.6360  138.1090 C   0  0  0  0  0  2  0  0  0  0  0  0
  191.9700  175.9090  136.9360 O   0  0  0  0  0  0  0  0  0  0  0  0
  194.9620  175.2140  136.1410 C   0  0  0  0  0  2  0  0  0  0  0  0
  193.1050  173.3180  136.6670 Cl  0  0  0  0  0  0  0  0  0  0  0  0
  193.5510  176.7020  138.4830 O   0  0  0  0  0  1  0  0  0  0  0  0
  194.2130  176.5360  136.1510 C   0  0  0  0  0  2  0  0  0  0  0  0
  193.3360  176.0210  137.2780 C   0  0  2  0  0  0  0  0  0  0  0  0
  194.0830  174.6920  137.2650 C   0  0  2  0  0  3  0  0  0  0  0  0
  190.0400  177.7990  138.9160 C   0  0  0  0  0  2  0  0  0  0  0  0
  189.9890  177.6200  140.3990 C   0  0  0  0  0  0  0  0  0  0  0  0
  191.1040  177.2600  141.0390 C   0  0  0  0  0  3  0  0  0  0  0  0
  188.7430  177.8420  141.0980 C   0  0  0  0  0  0  0  0  0  0  0  0
  186.4500  178.2530  142.3970 C   0  0  0  0  0  1  0  0  0  0  0  0
  187.7060  178.0270  141.6840 C   0  0  0  0  0  0  0  0  0  0  0  0
  191.2230  176.9240  143.6620 C   0  0  0  0  0  0  0  0  0  0  0  0
  191.1730  177.0750  142.4670 C   0  0  0  0  0  0  0  0  0  0  0  0
  189.4820  177.8800  146.6050 C   0  0  0  0  0  3  0  0  0  0  0  0
  191.2750  176.7490  145.0850 C   0  0  0  0  0  3  0  0  0  0  0  0
  190.3800  177.3130  145.8450 C   0  0  0  0  0  0  0  0  0  0  0  0
  188.3410  177.0970  147.1640 C   0  0  0  0  0  2  0  0  0  0  0  0
  187.9320  177.6340  148.5250 C   0  0  0  0  0  1  0  0  0  0  0  0
  2  8  2  0  0  0  0
  2  4  1  0  0  0  0
  3  1  1  0  0  0  0
  4  3  2  0  0  0  0
  5  9  1  0  0  0  0
  5  1  2  0  0  0  0
  6  9  1  0  0  0  0
  7  6  1  0  0  0  0
  8  5  1  0  0  0  0
  9 10  2  0  0  0  0
 10 21  1  0  0  0  0
 11  6  2  0  0  0  0
 11  8  1  0  0  0  0
 12  7  1  0  0  0  0
 13 10  1  0  0  0  0
 14 19  1  0  0  0  0
 14 13  1  0  0  0  0
 15 18  1  0  0  0  0
 15 20  1  0  0  0  0
 18 19  1  0  0  0  0
 19 17  1  1  0  0  0
 20 16  1  6  0  0  0
 20 19  1  0  0  0  0
 21 22  1  0  0  0  0
 22 23  2  0  0  0  0
 22 24  1  0  0  0  0
 23 28  1  0  0  0  0
 24 26  3  0  0  0  0
 26 25  1  0  0  0  0
 27 30  1  0  0  0  0
 28 27  3  0  0  0  0
 29 32  1  0  0  0  0
 30 31  2  0  0  0  0
 31 29  2  0  0  0  0
 32 33  1  0  0  0  0
M  END
>  <MODEL>
9

>  <REMARK>
 VINA RESULT:      -7.0      5.332      7.807
  Name = 
  9 active torsions:
  status: ('A' for Active; 'I' for Inactive)
    1  A    between atoms: C_1  and  C_18
    2  A    between atoms: C_2  and  C_7
    3  A    between atoms: C_3  and  C_8
    4  A    between atoms: C_3  and  C_17
    5  A    between atoms: O_6  and  C_15
    6  A    between atoms: O_6  and  C_31
    7  A    between atoms: C_9  and  C_10
    8  A    between atoms: C_15  and  C_27
    9  A    between atoms: C_17  and  C_27
                            x       y       z     vdW  Elec       q    Type
                         _______ _______ _______ _____ _____    ______ ____

>  <TORSDO>
F 9

$$$$
