=
 OpenBabel11042410193D

 48 53  0  0  1  0  0  0  0  0999 V2000
  187.0200  178.6280  137.4420 N   0  0  2  0  0  0  0  0  0  0  0  0
  186.2490  178.7900  138.6920 C   0  0  2  0  0  3  0  0  0  0  0  0
  186.3480  178.2530  144.1240 O   0  0  0  0  0  0  0  0  0  0  0  0
  186.5150  177.7270  139.6480 N   0  0  0  0  0  2  0  0  0  0  0  0
  189.2480  177.2190  140.7490 C   0  0  0  0  0  3  0  0  0  0  0  0
  185.5660  178.6050  143.0170 C   0  0  0  0  0  0  0  0  0  0  0  0
  186.8410  177.4360  136.6020 C   0  0  2  0  0  3  0  0  0  0  0  0
  186.9060  176.1250  137.3770 C   0  0  0  0  0  1  0  0  0  0  0  0
  187.6570  177.7000  144.0810 C   0  0  0  0  0  3  0  0  0  0  0  0
  189.1040  178.2340  136.3090 C   0  0  0  0  0  2  0  0  0  0  0  0
  186.0760  178.3930  141.8590 C   0  0  0  0  0  0  0  0  0  0  0  0
  189.1840  178.7780  138.7930 C   0  0  0  0  0  2  0  0  0  0  0  0
  188.4390  177.4010  143.0100 C   0  0  0  0  0  3  0  0  0  0  0  0
  188.4460  178.9850  137.4550 C   0  0  2  0  0  3  0  0  0  0  0  0
  186.9300  178.0340  140.9740 C   0  0  0  0  0  0  0  0  0  0  0  0
  189.2820  177.3180  139.2450 C   0  0  1  0  0  3  0  0  0  0  0  0
  188.2090  177.5350  141.5340 C   0  0  0  0  0  0  0  0  0  0  0  0
  187.9930  177.4640  135.6190 C   0  0  0  0  0  2  0  0  0  0  0  0
  184.2350  179.1910  143.1620 C   0  0  0  0  0  3  0  0  0  0  0  0
  183.7450  179.4300  144.3320 N   0  0  0  0  0  2  0  0  0  0  0  0
  184.7540  178.9340  138.4270 C   0  0  0  0  0  2  0  0  0  0  0  0
  184.0410  177.9060  139.0520 O   0  0  0  0  0  0  0  0  0  0  0  0
  183.3180  177.3260  138.0610 N   0  0  0  0  0  0  0  0  0  0  0  0
  183.2860  175.9020  138.3700 C   0  0  0  0  0  1  0  0  0  0  0  0
  181.7380  178.4620  139.4630 N   0  0  0  0  0  0  0  0  0  0  0  0
  180.8040  177.8470  140.0970 C   0  0  0  0  0  0  0  0  0  0  0  0
  180.2430  176.7510  139.4010 N   0  0  0  0  0  0  0  0  0  0  0  0
  180.9370  176.6770  138.1270 C   0  0  0  0  0  3  0  0  0  0  0  0
  181.9480  177.8350  138.1630 C   0  0  2  0  0  3  0  0  0  0  0  0
  179.6180  177.5240  142.1890 N   0  0  0  0  0  0  0  0  0  0  0  0
  180.7230  179.4500  142.0350 O   0  0  0  0  0  0  0  0  0  0  0  0
  180.3710  178.2500  141.4380 C   0  0  0  0  0  0  0  0  0  0  0  0
  179.4040  178.2110  143.3870 N   0  0  0  0  0  0  0  0  0  0  0  0
  180.1150  179.4830  143.3180 C   0  0  0  0  0  3  0  0  0  0  0  0
  190.5370  176.6420  138.6760 C   0  0  1  0  0  3  0  0  0  0  0  0
  193.0350  176.7380  139.1670 C   0  0  0  0  0  0  0  0  0  0  0  0
  191.6680  176.7730  139.5910 N   0  0  0  0  0  2  0  0  0  0  0  0
  193.9020  177.3240  139.8690 O   0  0  0  0  0  0  0  0  0  0  0  0
  193.9000  173.8650  136.6840 C   0  0  0  0  0  0  0  0  0  0  0  0
  194.2220  174.6460  135.5340 N   0  0  0  0  0  2  0  0  0  0  0  0
  193.6690  174.5220  138.0160 C   0  0  0  0  0  2  0  0  0  0  0  0
  193.9460  172.5770  136.6120 N   0  0  0  0  0  2  0  0  0  0  0  0
  194.4650  176.7600  134.5940 O   0  0  0  0  0  0  0  0  0  0  0  0
  194.1630  176.0680  135.6000 C   0  0  0  0  0  0  0  0  0  0  0  0
  193.7320  176.7230  136.8400 C   0  0  0  0  0  3  0  0  0  0  0  0
  193.4490  176.0180  137.9440 C   0  0  0  0  0  0  0  0  0  0  0  0
  190.2840  175.1700  137.0450 C   0  0  0  0  0  1  0  0  0  0  0  0
  190.2800  175.2900  138.4380 O   0  0  0  0  0  0  0  0  0  0  0  0
  1 14  1  0  0  0  0
  1  2  1  0  0  0  0
  2  4  1  0  0  0  0
  4 15  1  0  0  0  0
  5 17  2  0  0  0  0
  6 19  1  0  0  0  0
  6  3  1  0  0  0  0
  7  8  1  0  0  0  0
  7  1  1  0  0  0  0
  9  3  1  0  0  0  0
 10 14  1  0  0  0  0
 11  6  2  0  0  0  0
 12 16  1  0  0  0  0
 13  9  2  0  0  0  0
 14 12  1  0  0  0  0
 15 17  1  0  0  0  0
 15 11  2  0  0  0  0
 16  5  1  0  0  0  0
 17 13  1  0  0  0  0
 18 10  1  0  0  0  0
 18  7  1  0  0  0  0
 19 20  2  0  0  0  0
 21  2  1  0  0  0  0
 21 22  1  0  0  0  0
 23 29  1  0  0  0  0
 23 24  1  0  0  0  0
 23 22  1  0  0  0  0
 25 26  2  0  0  0  0
 26 32  1  0  0  0  0
 27 26  1  0  0  0  0
 28 29  1  0  0  0  0
 28 27  2  0  0  0  0
 29 25  1  0  0  0  0
 30 33  1  0  0  0  0
 31 34  1  0  0  0  0
 32 31  1  0  0  0  0
 32 30  2  0  0  0  0
 34 33  2  0  0  0  0
 35 16  1  0  0  0  0
 35 37  1  0  0  0  0
 36 37  1  0  0  0  0
 36 38  2  0  0  0  0
 39 41  1  0  0  0  0
 40 44  1  0  0  0  0
 40 39  1  0  0  0  0
 42 39  2  0  0  0  0
 43 44  2  0  0  0  0
 44 45  1  0  0  0  0
 45 46  2  0  0  0  0
 46 41  1  0  0  0  0
 46 36  1  0  0  0  0
 47 48  1  0  0  0  0
 48 35  1  0  0  0  0
M  END
>  <MODEL>
1

>  <REMARK>
 VINA RESULT:      -6.9      0.000      0.000
  Name = 
  10 active torsions:
  status: ('A' for Active; 'I' for Inactive)
    1  A    between atoms: C_2  and  C_6
    2  A    between atoms: C_6  and  O_10
    3  A    between atoms: C_7  and  C_15
    4  A    between atoms: O_10  and  N_19
    5  A    between atoms: C_14  and  C_40
    6  A    between atoms: C_18  and  N_29
    7  A    between atoms: C_18  and  O_33
    8  A    between atoms: C_18  and  C_43
    9  A    between atoms: N_19  and  C_45
   10  A    between atoms: C_21  and  C_30
                            x       y       z     vdW  Elec       q    Type
                         _______ _______ _______ _____ _____    ______ ____

>  <TORSDO>
F 10

$$$$
=
 OpenBabel11042410193D

 48 53  0  0  1  0  0  0  0  0999 V2000
  182.5260  178.9950  139.2260 N   0  0  2  0  0  0  0  0  0  0  0  0
  183.9860  178.9340  139.0110 C   0  0  2  0  0  3  0  0  0  0  0  0
  187.9760  176.9440  135.8600 O   0  0  0  0  0  0  0  0  0  0  0  0
  184.4230  177.6240  138.5540 N   0  0  0  0  0  2  0  0  0  0  0  0
  183.4410  176.4160  136.0020 C   0  0  0  0  0  3  0  0  0  0  0  0
  187.6810  177.7000  137.0020 C   0  0  0  0  0  0  0  0  0  0  0  0
  181.8760  178.1170  140.2080 C   0  0  2  0  0  3  0  0  0  0  0  0
  182.2790  176.6530  140.0820 C   0  0  0  0  0  1  0  0  0  0  0  0
  187.0410  176.2240  135.0680 C   0  0  0  0  0  3  0  0  0  0  0  0
  180.2830  178.6000  138.4560 C   0  0  0  0  0  2  0  0  0  0  0  0
  186.4520  177.7300  137.3720 C   0  0  0  0  0  0  0  0  0  0  0  0
  182.1710  178.4340  136.7580 C   0  0  0  0  0  2  0  0  0  0  0  0
  185.6930  176.1070  135.2090 C   0  0  0  0  0  3  0  0  0  0  0  0
  181.6550  179.1080  138.0460 C   0  0  2  0  0  3  0  0  0  0  0  0
  185.1930  177.4930  137.3650 C   0  0  0  0  0  0  0  0  0  0  0  0
  182.2910  176.9100  136.8430 C   0  0  1  0  0  3  0  0  0  0  0  0
  184.7390  176.6680  136.2200 C   0  0  0  0  0  0  0  0  0  0  0  0
  180.3930  178.2280  139.9240 C   0  0  0  0  0  2  0  0  0  0  0  0
  188.7110  178.4270  137.7410 C   0  0  0  0  0  3  0  0  0  0  0  0
  188.9160  179.6820  137.5210 N   0  0  0  0  0  2  0  0  0  0  0  0
  184.7640  179.3770  140.2450 C   0  0  0  0  0  2  0  0  0  0  0  0
  186.0010  178.7260  140.3090 O   0  0  0  0  0  0  0  0  0  0  0  0
  186.4000  178.8530  141.6000 N   0  0  0  0  0  0  0  0  0  0  0  0
  185.2270  178.5530  142.4120 C   0  0  0  0  0  1  0  0  0  0  0  0
  187.3820  177.4340  143.2650 N   0  0  0  0  0  0  0  0  0  0  0  0
  188.5310  177.6740  143.7920 C   0  0  0  0  0  0  0  0  0  0  0  0
  189.4800  178.2320  142.9050 N   0  0  0  0  0  0  0  0  0  0  0  0
  188.8160  178.3520  141.6180 C   0  0  0  0  0  3  0  0  0  0  0  0
  187.3970  177.8110  141.8560 C   0  0  2  0  0  3  0  0  0  0  0  0
  189.9730  177.0290  145.6330 N   0  0  0  0  0  0  0  0  0  0  0  0
  187.8790  177.5050  146.2170 O   0  0  0  0  0  0  0  0  0  0  0  0
  188.8170  177.3990  145.2020 C   0  0  0  0  0  0  0  0  0  0  0  0
  189.8880  176.8550  147.0170 N   0  0  0  0  0  0  0  0  0  0  0  0
  188.5240  177.1580  147.4340 C   0  0  0  0  0  3  0  0  0  0  0  0
  180.9790  176.2240  136.4410 C   0  0  1  0  0  3  0  0  0  0  0  0
  180.3450  174.3750  138.0760 C   0  0  0  0  0  0  0  0  0  0  0  0
  180.2620  175.7270  137.6130 N   0  0  0  0  0  2  0  0  0  0  0  0
  180.1310  174.1380  139.2950 O   0  0  0  0  0  0  0  0  0  0  0  0
  182.2790  171.5670  136.1920 C   0  0  0  0  0  0  0  0  0  0  0  0
  181.2170  171.0620  135.3840 N   0  0  0  0  0  2  0  0  0  0  0  0
  182.0960  172.8230  136.9980 C   0  0  0  0  0  2  0  0  0  0  0  0
  183.4460  171.0210  136.1230 N   0  0  0  0  0  2  0  0  0  0  0  0
  178.9880  171.2190  134.7350 O   0  0  0  0  0  0  0  0  0  0  0  0
  179.9210  171.6500  135.4610 C   0  0  0  0  0  0  0  0  0  0  0  0
  179.6740  172.7460  136.4030 C   0  0  0  0  0  3  0  0  0  0  0  0
  180.6550  173.2590  137.1570 C   0  0  0  0  0  0  0  0  0  0  0  0
  179.0340  176.3790  135.3990 C   0  0  0  0  0  1  0  0  0  0  0  0
  180.1690  177.1200  135.7410 O   0  0  0  0  0  0  0  0  0  0  0  0
  1  7  1  0  0  0  0
  2  1  1  0  0  0  0
  2 21  1  0  0  0  0
  3  6  1  0  0  0  0
  4  2  1  0  0  0  0
  5 17  2  0  0  0  0
  5 16  1  0  0  0  0
  6 11  2  0  0  0  0
  6 19  1  0  0  0  0
  8  7  1  0  0  0  0
  9 13  2  0  0  0  0
  9  3  1  0  0  0  0
 10 18  1  0  0  0  0
 12 16  1  0  0  0  0
 12 14  1  0  0  0  0
 13 17  1  0  0  0  0
 14 10  1  0  0  0  0
 14  1  1  0  0  0  0
 15 11  2  0  0  0  0
 15  4  1  0  0  0  0
 17 15  1  0  0  0  0
 18  7  1  0  0  0  0
 20 19  2  0  0  0  0
 21 22  1  0  0  0  0
 22 23  1  0  0  0  0
 23 29  1  0  0  0  0
 23 24  1  0  0  0  0
 25 26  2  0  0  0  0
 26 32  1  0  0  0  0
 27 26  1  0  0  0  0
 28 29  1  0  0  0  0
 28 27  2  0  0  0  0
 29 25  1  0  0  0  0
 30 33  1  0  0  0  0
 31 34  1  0  0  0  0
 32 30  2  0  0  0  0
 32 31  1  0  0  0  0
 33 34  2  0  0  0  0
 35 16  1  0  0  0  0
 35 37  1  0  0  0  0
 36 38  2  0  0  0  0
 37 36  1  0  0  0  0
 39 41  1  0  0  0  0
 40 44  1  0  0  0  0
 40 39  1  0  0  0  0
 41 46  1  0  0  0  0
 42 39  2  0  0  0  0
 43 44  2  0  0  0  0
 44 45  1  0  0  0  0
 45 46  2  0  0  0  0
 46 36  1  0  0  0  0
 47 48  1  0  0  0  0
 48 35  1  0  0  0  0
M  END
>  <MODEL>
2

>  <REMARK>
 VINA RESULT:      -6.8      3.726      9.281
  Name = 
  10 active torsions:
  status: ('A' for Active; 'I' for Inactive)
    1  A    between atoms: C_2  and  C_6
    2  A    between atoms: C_6  and  O_10
    3  A    between atoms: C_7  and  C_15
    4  A    between atoms: O_10  and  N_19
    5  A    between atoms: C_14  and  C_40
    6  A    between atoms: C_18  and  N_29
    7  A    between atoms: C_18  and  O_33
    8  A    between atoms: C_18  and  C_43
    9  A    between atoms: N_19  and  C_45
   10  A    between atoms: C_21  and  C_30
                            x       y       z     vdW  Elec       q    Type
                         _______ _______ _______ _____ _____    ______ ____

>  <TORSDO>
F 10

$$$$
=
 OpenBabel11042410193D

 48 53  0  0  1  0  0  0  0  0999 V2000
  189.0840  176.6480  138.6560 N   0  0  2  0  0  0  0  0  0  0  0  0
  188.2960  177.2640  139.7440 C   0  0  2  0  0  3  0  0  0  0  0  0
  183.4130  179.2420  141.1760 O   0  0  0  0  0  0  0  0  0  0  0  0
  187.3780  178.2800  139.2530 N   0  0  0  0  0  2  0  0  0  0  0  0
  185.2120  177.6570  137.2880 C   0  0  0  0  0  3  0  0  0  0  0  0
  184.7310  179.0200  141.5930 C   0  0  0  0  0  0  0  0  0  0  0  0
  189.9770  177.4650  137.8250 C   0  0  2  0  0  3  0  0  0  0  0  0
  189.3240  178.7300  137.2820 C   0  0  0  0  0  1  0  0  0  0  0  0
  182.9030  179.0310  139.8660 C   0  0  0  0  0  3  0  0  0  0  0  0
  189.2010  175.6010  136.4950 C   0  0  0  0  0  2  0  0  0  0  0  0
  185.5550  178.6010  140.7030 C   0  0  0  0  0  0  0  0  0  0  0  0
  186.9110  175.8440  137.5780 C   0  0  0  0  0  2  0  0  0  0  0  0
  183.5340  178.5730  138.7530 C   0  0  0  0  0  3  0  0  0  0  0  0
  188.4250  175.6500  137.8010 C   0  0  2  0  0  3  0  0  0  0  0  0
  185.9900  178.2110  139.5630 C   0  0  0  0  0  0  0  0  0  0  0  0
  186.5400  177.1200  136.8160 C   0  0  1  0  0  3  0  0  0  0  0  0
  184.9510  178.1460  138.5080 C   0  0  0  0  0  0  0  0  0  0  0  0
  190.3490  176.5820  136.6520 C   0  0  0  0  0  2  0  0  0  0  0  0
  185.1580  179.2460  142.9730 C   0  0  0  0  0  3  0  0  0  0  0  0
  184.3100  179.6260  143.8690 N   0  0  0  0  0  2  0  0  0  0  0  0
  189.1850  177.8120  140.8540 C   0  0  0  0  0  2  0  0  0  0  0  0
  189.9590  176.7910  141.4170 O   0  0  0  0  0  0  0  0  0  0  0  0
  190.5640  177.3590  142.4900 N   0  0  0  0  0  0  0  0  0  0  0  0
  189.7740  178.5390  142.8160 C   0  0  0  0  0  1  0  0  0  0  0  0
  189.3340  176.8020  144.4720 N   0  0  0  0  0  0  0  0  0  0  0  0
  189.7680  177.0580  145.6540 C   0  0  0  0  0  0  0  0  0  0  0  0
  191.1680  176.9180  145.8100 N   0  0  0  0  0  0  0  0  0  0  0  0
  191.6830  176.5030  144.5170 C   0  0  0  0  0  3  0  0  0  0  0  0
  190.4460  176.4200  143.6080 C   0  0  2  0  0  3  0  0  0  0  0  0
  187.6660  177.8600  146.5590 N   0  0  0  0  0  0  0  0  0  0  0  0
  189.2500  177.4910  148.0780 O   0  0  0  0  0  0  0  0  0  0  0  0
  188.8800  177.4720  146.7430 C   0  0  0  0  0  0  0  0  0  0  0  0
  187.1160  178.1790  147.8040 N   0  0  0  0  0  0  0  0  0  0  0  0
  188.1320  177.9500  148.8250 C   0  0  0  0  0  3  0  0  0  0  0  0
  186.5320  176.8820  135.3000 C   0  0  1  0  0  3  0  0  0  0  0  0
  184.2300  175.8280  135.0170 C   0  0  0  0  0  0  0  0  0  0  0  0
  185.1690  176.8800  134.7740 N   0  0  0  0  0  2  0  0  0  0  0  0
  182.9980  176.0930  134.9730 O   0  0  0  0  0  0  0  0  0  0  0  0
  186.3700  172.5740  135.0890 C   0  0  0  0  0  0  0  0  0  0  0  0
  185.5180  171.7590  135.8920 N   0  0  0  0  0  2  0  0  0  0  0  0
  185.9020  173.9140  134.5940 C   0  0  0  0  0  2  0  0  0  0  0  0
  187.4940  172.1000  134.6680 N   0  0  0  0  0  2  0  0  0  0  0  0
  183.5190  171.5540  137.0650 O   0  0  0  0  0  0  0  0  0  0  0  0
  184.2810  172.2770  136.3710 C   0  0  0  0  0  0  0  0  0  0  0  0
  183.9050  173.6620  136.0700 C   0  0  0  0  0  3  0  0  0  0  0  0
  184.6710  174.4450  135.2970 C   0  0  0  0  0  0  0  0  0  0  0  0
  186.4250  178.9750  134.5940 C   0  0  0  0  0  1  0  0  0  0  0  0
  187.2800  177.8720  134.6610 O   0  0  0  0  0  0  0  0  0  0  0  0
  1  2  1  0  0  0  0
  2 21  1  0  0  0  0
  3  6  1  0  0  0  0
  4 15  1  0  0  0  0
  4  2  1  0  0  0  0
  5 17  2  0  0  0  0
  6 19  1  0  0  0  0
  7  1  1  0  0  0  0
  8  7  1  0  0  0  0
  9  3  1  0  0  0  0
 10 18  1  0  0  0  0
 10 14  1  0  0  0  0
 11  6  2  0  0  0  0
 12 14  1  0  0  0  0
 13  9  2  0  0  0  0
 14  1  1  0  0  0  0
 15 11  2  0  0  0  0
 16  5  1  0  0  0  0
 16 12  1  0  0  0  0
 17 13  1  0  0  0  0
 17 15  1  0  0  0  0
 18  7  1  0  0  0  0
 19 20  2  0  0  0  0
 21 22  1  0  0  0  0
 22 23  1  0  0  0  0
 23 24  1  0  0  0  0
 23 29  1  0  0  0  0
 25 26  2  0  0  0  0
 26 27  1  0  0  0  0
 26 32  1  0  0  0  0
 28 27  2  0  0  0  0
 29 25  1  0  0  0  0
 29 28  1  0  0  0  0
 30 32  2  0  0  0  0
 30 33  1  0  0  0  0
 31 34  1  0  0  0  0
 32 31  1  0  0  0  0
 33 34  2  0  0  0  0
 35 16  1  0  0  0  0
 36 46  1  0  0  0  0
 37 36  1  0  0  0  0
 37 35  1  0  0  0  0
 38 36  2  0  0  0  0
 39 40  1  0  0  0  0
 40 44  1  0  0  0  0
 41 39  1  0  0  0  0
 41 46  1  0  0  0  0
 42 39  2  0  0  0  0
 44 43  2  0  0  0  0
 45 44  1  0  0  0  0
 46 45  2  0  0  0  0
 47 48  1  0  0  0  0
 48 35  1  0  0  0  0
M  END
>  <MODEL>
3

>  <REMARK>
 VINA RESULT:      -6.7      3.397      7.472
  Name = 
  10 active torsions:
  status: ('A' for Active; 'I' for Inactive)
    1  A    between atoms: C_2  and  C_6
    2  A    between atoms: C_6  and  O_10
    3  A    between atoms: C_7  and  C_15
    4  A    between atoms: O_10  and  N_19
    5  A    between atoms: C_14  and  C_40
    6  A    between atoms: C_18  and  N_29
    7  A    between atoms: C_18  and  O_33
    8  A    between atoms: C_18  and  C_43
    9  A    between atoms: N_19  and  C_45
   10  A    between atoms: C_21  and  C_30
                            x       y       z     vdW  Elec       q    Type
                         _______ _______ _______ _____ _____    ______ ____

>  <TORSDO>
F 10

$$$$
=
 OpenBabel11042410193D

 48 53  0  0  1  0  0  0  0  0999 V2000
  187.0770  178.6020  137.4790 N   0  0  2  0  0  0  0  0  0  0  0  0
  186.3050  178.7590  138.7280 C   0  0  2  0  0  3  0  0  0  0  0  0
  186.4010  178.2020  144.1590 O   0  0  0  0  0  0  0  0  0  0  0  0
  186.5720  177.6920  139.6810 N   0  0  0  0  0  2  0  0  0  0  0  0
  189.3050  177.1850  140.7820 C   0  0  0  0  0  3  0  0  0  0  0  0
  185.6190  178.5560  143.0530 C   0  0  0  0  0  0  0  0  0  0  0  0
  186.9010  177.4130  136.6350 C   0  0  2  0  0  3  0  0  0  0  0  0
  186.9670  176.0990  137.4040 C   0  0  0  0  0  1  0  0  0  0  0  0
  187.7110  177.6510  144.1150 C   0  0  0  0  0  3  0  0  0  0  0  0
  189.1620  178.2160  136.3460 C   0  0  0  0  0  2  0  0  0  0  0  0
  186.1300  178.3500  141.8940 C   0  0  0  0  0  0  0  0  0  0  0  0
  189.2400  178.7510  138.8320 C   0  0  0  0  0  2  0  0  0  0  0  0
  188.4940  177.3570  143.0430 C   0  0  0  0  0  3  0  0  0  0  0  0
  188.5020  178.9620  137.4940 C   0  0  2  0  0  3  0  0  0  0  0  0
  186.9860  177.9950  141.0080 C   0  0  0  0  0  0  0  0  0  0  0  0
  189.3400  177.2900  139.2780 C   0  0  1  0  0  3  0  0  0  0  0  0
  188.2650  177.4960  141.5670 C   0  0  0  0  0  0  0  0  0  0  0  0
  188.0530  177.4460  135.6520 C   0  0  0  0  0  2  0  0  0  0  0  0
  184.2870  179.1400  143.1990 C   0  0  0  0  0  3  0  0  0  0  0  0
  183.9400  179.7200  144.2990 N   0  0  0  0  0  2  0  0  0  0  0  0
  184.8100  178.9010  138.4630 C   0  0  0  0  0  2  0  0  0  0  0  0
  184.0930  177.8970  139.1240 O   0  0  0  0  0  0  0  0  0  0  0  0
  183.3170  177.3310  138.1670 N   0  0  0  0  0  0  0  0  0  0  0  0
  183.3150  175.9010  138.4480 C   0  0  0  0  0  1  0  0  0  0  0  0
  181.7000  178.9670  137.4870 N   0  0  0  0  0  0  0  0  0  0  0  0
  181.4200  180.0030  138.1940 C   0  0  0  0  0  0  0  0  0  0  0  0
  181.4370  179.7840  139.5920 N   0  0  0  0  0  0  0  0  0  0  0  0
  181.7750  178.3840  139.7820 C   0  0  0  0  0  3  0  0  0  0  0  0
  181.9520  177.8250  138.3600 C   0  0  2  0  0  3  0  0  0  0  0  0
  181.1820  182.4170  138.2390 N   0  0  0  0  0  0  0  0  0  0  0  0
  180.7450  181.4770  136.2700 O   0  0  0  0  0  0  0  0  0  0  0  0
  181.1230  181.3050  137.5920 C   0  0  0  0  0  0  0  0  0  0  0  0
  180.8360  183.4500  137.3640 N   0  0  0  0  0  0  0  0  0  0  0  0
  180.5410  182.8660  136.0600 C   0  0  0  0  0  3  0  0  0  0  0  0
  190.5960  176.6170  138.7080 C   0  0  1  0  0  3  0  0  0  0  0  0
  193.0960  176.7560  139.1770 C   0  0  0  0  0  0  0  0  0  0  0  0
  191.7330  176.7690  139.6130 N   0  0  0  0  0  2  0  0  0  0  0  0
  193.9590  177.3580  139.8710 O   0  0  0  0  0  0  0  0  0  0  0  0
  193.9520  173.8940  136.6780 C   0  0  0  0  0  0  0  0  0  0  0  0
  194.2880  174.6810  135.5360 N   0  0  0  0  0  2  0  0  0  0  0  0
  193.7180  174.5440  138.0130 C   0  0  0  0  0  2  0  0  0  0  0  0
  193.9870  172.6060  136.5960 N   0  0  0  0  0  2  0  0  0  0  0  0
  194.5550  176.8000  134.6130 O   0  0  0  0  0  0  0  0  0  0  0  0
  194.2410  176.1030  135.6130 C   0  0  0  0  0  0  0  0  0  0  0  0
  193.8080  176.7520  136.8540 C   0  0  0  0  0  3  0  0  0  0  0  0
  193.5120  176.0420  137.9510 C   0  0  0  0  0  0  0  0  0  0  0  0
  190.3710  175.1200  137.0970 C   0  0  0  0  0  1  0  0  0  0  0  0
  190.3500  175.2610  138.4870 O   0  0  0  0  0  0  0  0  0  0  0  0
  1 14  1  0  0  0  0
  1  2  1  0  0  0  0
  2  4  1  0  0  0  0
  4 15  1  0  0  0  0
  5 17  2  0  0  0  0
  6 19  1  0  0  0  0
  6  3  1  0  0  0  0
  7  8  1  0  0  0  0
  7  1  1  0  0  0  0
  9  3  1  0  0  0  0
 10 14  1  0  0  0  0
 11  6  2  0  0  0  0
 12 16  1  0  0  0  0
 13  9  2  0  0  0  0
 14 12  1  0  0  0  0
 15 17  1  0  0  0  0
 15 11  2  0  0  0  0
 16  5  1  0  0  0  0
 17 13  1  0  0  0  0
 18 10  1  0  0  0  0
 18  7  1  0  0  0  0
 19 20  2  0  0  0  0
 21  2  1  0  0  0  0
 21 22  1  0  0  0  0
 23 29  1  0  0  0  0
 23 24  1  0  0  0  0
 23 22  1  0  0  0  0
 25 26  2  0  0  0  0
 25 29  1  0  0  0  0
 26 27  1  0  0  0  0
 27 28  2  0  0  0  0
 29 28  1  0  0  0  0
 31 32  1  0  0  0  0
 32 26  1  0  0  0  0
 32 30  2  0  0  0  0
 33 30  1  0  0  0  0
 34 31  1  0  0  0  0
 34 33  2  0  0  0  0
 35 16  1  0  0  0  0
 35 37  1  0  0  0  0
 36 37  1  0  0  0  0
 36 38  2  0  0  0  0
 39 41  1  0  0  0  0
 40 44  1  0  0  0  0
 40 39  1  0  0  0  0
 42 39  2  0  0  0  0
 43 44  2  0  0  0  0
 44 45  1  0  0  0  0
 45 46  2  0  0  0  0
 46 41  1  0  0  0  0
 46 36  1  0  0  0  0
 47 48  1  0  0  0  0
 48 35  1  0  0  0  0
M  END
>  <MODEL>
4

>  <REMARK>
 VINA RESULT:      -6.6      1.686      2.347
  Name = 
  10 active torsions:
  status: ('A' for Active; 'I' for Inactive)
    1  A    between atoms: C_2  and  C_6
    2  A    between atoms: C_6  and  O_10
    3  A    between atoms: C_7  and  C_15
    4  A    between atoms: O_10  and  N_19
    5  A    between atoms: C_14  and  C_40
    6  A    between atoms: C_18  and  N_29
    7  A    between atoms: C_18  and  O_33
    8  A    between atoms: C_18  and  C_43
    9  A    between atoms: N_19  and  C_45
   10  A    between atoms: C_21  and  C_30
                            x       y       z     vdW  Elec       q    Type
                         _______ _______ _______ _____ _____    ______ ____

>  <TORSDO>
F 10

$$$$
=
 OpenBabel11042410193D

 48 53  0  0  1  0  0  0  0  0999 V2000
  185.9480  177.4490  137.4270 N   0  0  2  0  0  0  0  0  0  0  0  0
  184.8350  176.4800  137.3460 C   0  0  2  0  0  3  0  0  0  0  0  0
  183.4520  171.3290  136.1830 O   0  0  0  0  0  0  0  0  0  0  0  0
  184.9730  175.5740  136.2160 N   0  0  0  0  0  2  0  0  0  0  0  0
  187.3190  173.7450  135.9160 C   0  0  0  0  0  3  0  0  0  0  0  0
  182.9760  172.5890  136.5670 C   0  0  0  0  0  0  0  0  0  0  0  0
  186.1990  178.3930  136.3310 C   0  0  2  0  0  3  0  0  0  0  0  0
  186.2360  177.7400  134.9550 C   0  0  0  0  0  1  0  0  0  0  0  0
  184.7850  171.0190  135.8010 C   0  0  0  0  0  3  0  0  0  0  0  0
  188.3040  177.9300  137.4270 C   0  0  0  0  0  2  0  0  0  0  0  0
  183.8220  173.5530  136.5570 C   0  0  0  0  0  0  0  0  0  0  0  0
  187.5840  175.5020  137.6770 C   0  0  0  0  0  2  0  0  0  0  0  0
  185.8770  171.8260  135.7290 C   0  0  0  0  0  3  0  0  0  0  0  0
  187.2390  176.9800  137.9510 C   0  0  2  0  0  3  0  0  0  0  0  0
  184.9390  174.1650  136.4120 C   0  0  0  0  0  0  0  0  0  0  0  0
  187.7680  175.1570  136.1960 C   0  0  1  0  0  3  0  0  0  0  0  0
  186.0630  173.2870  136.0080 C   0  0  0  0  0  0  0  0  0  0  0  0
  187.5660  178.9800  136.6140 C   0  0  0  0  0  2  0  0  0  0  0  0
  181.5870  172.8060  136.9660 C   0  0  0  0  0  3  0  0  0  0  0  0
  181.2360  173.8980  137.5590 N   0  0  0  0  0  2  0  0  0  0  0  0
  183.4760  177.1710  137.3380 C   0  0  0  0  0  2  0  0  0  0  0  0
  183.1400  177.6140  138.6230 O   0  0  0  0  0  0  0  0  0  0  0  0
  183.2520  178.9650  138.5690 N   0  0  0  0  0  0  0  0  0  0  0  0
  181.9340  179.4610  138.1930 C   0  0  0  0  0  1  0  0  0  0  0  0
  184.9750  179.4540  140.1650 N   0  0  0  0  0  0  0  0  0  0  0  0
  185.2650  178.6650  141.1380 C   0  0  0  0  0  0  0  0  0  0  0  0
  184.1550  177.9950  141.7040 N   0  0  0  0  0  0  0  0  0  0  0  0
  182.9870  178.4460  140.9680 C   0  0  0  0  0  3  0  0  0  0  0  0
  183.5350  179.4360  139.9270 C   0  0  2  0  0  3  0  0  0  0  0  0
  187.6770  178.8100  140.9200 N   0  0  0  0  0  0  0  0  0  0  0  0
  186.9680  177.9080  142.8280 O   0  0  0  0  0  0  0  0  0  0  0  0
  186.6400  178.4730  141.6060 C   0  0  0  0  0  0  0  0  0  0  0  0
  188.8150  178.4830  141.6620 N   0  0  0  0  0  0  0  0  0  0  0  0
  188.3850  177.8860  142.9220 C   0  0  0  0  0  3  0  0  0  0  0  0
  189.2200  175.3730  135.7490 C   0  0  1  0  0  3  0  0  0  0  0  0
  191.1120  173.7100  136.1290 C   0  0  0  0  0  0  0  0  0  0  0  0
  189.8890  174.1000  135.4950 N   0  0  0  0  0  2  0  0  0  0  0  0
  191.3630  172.4810  136.2570 O   0  0  0  0  0  0  0  0  0  0  0  0
  194.2200  176.0480  136.3300 C   0  0  0  0  0  0  0  0  0  0  0  0
  193.9420  176.6900  137.5740 N   0  0  0  0  0  2  0  0  0  0  0  0
  193.3910  174.8830  135.8690 C   0  0  0  0  0  2  0  0  0  0  0  0
  195.2740  176.3800  135.6640 N   0  0  0  0  0  2  0  0  0  0  0  0
  192.5370  176.8900  139.4180 O   0  0  0  0  0  0  0  0  0  0  0  0
  192.7750  176.3400  138.3110 C   0  0  0  0  0  0  0  0  0  0  0  0
  191.8400  175.3490  137.7680 C   0  0  0  0  0  3  0  0  0  0  0  0
  192.0850  174.7100  136.6160 C   0  0  0  0  0  0  0  0  0  0  0  0
  190.3370  177.0150  134.7750 C   0  0  0  0  0  1  0  0  0  0  0  0
  189.2490  176.1570  134.5940 O   0  0  0  0  0  0  0  0  0  0  0  0
  1 14  1  0  0  0  0
  2  1  1  0  0  0  0
  3  6  1  0  0  0  0
  4 15  1  0  0  0  0
  4  2  1  0  0  0  0
  5 17  2  0  0  0  0
  5 16  1  0  0  0  0
  6 19  1  0  0  0  0
  7 18  1  0  0  0  0
  7  1  1  0  0  0  0
  8  7  1  0  0  0  0
  9  3  1  0  0  0  0
 10 14  1  0  0  0  0
 11  6  2  0  0  0  0
 12 14  1  0  0  0  0
 13  9  2  0  0  0  0
 13 17  1  0  0  0  0
 15 11  2  0  0  0  0
 16 12  1  0  0  0  0
 17 15  1  0  0  0  0
 18 10  1  0  0  0  0
 19 20  2  0  0  0  0
 21  2  1  0  0  0  0
 21 22  1  0  0  0  0
 23 22  1  0  0  0  0
 23 29  1  0  0  0  0
 24 23  1  0  0  0  0
 25 26  2  0  0  0  0
 26 32  1  0  0  0  0
 26 27  1  0  0  0  0
 28 27  2  0  0  0  0
 29 25  1  0  0  0  0
 29 28  1  0  0  0  0
 30 32  2  0  0  0  0
 30 33  1  0  0  0  0
 31 34  1  0  0  0  0
 32 31  1  0  0  0  0
 33 34  2  0  0  0  0
 35 16  1  0  0  0  0
 36 38  2  0  0  0  0
 36 46  1  0  0  0  0
 37 35  1  0  0  0  0
 37 36  1  0  0  0  0
 39 40  1  0  0  0  0
 40 44  1  0  0  0  0
 41 39  1  0  0  0  0
 41 46  1  0  0  0  0
 42 39  2  0  0  0  0
 44 43  2  0  0  0  0
 45 44  1  0  0  0  0
 46 45  2  0  0  0  0
 48 47  1  0  0  0  0
 48 35  1  0  0  0  0
M  END
>  <MODEL>
5

>  <REMARK>
 VINA RESULT:      -6.6      2.702      5.562
  Name = 
  10 active torsions:
  status: ('A' for Active; 'I' for Inactive)
    1  A    between atoms: C_2  and  C_6
    2  A    between atoms: C_6  and  O_10
    3  A    between atoms: C_7  and  C_15
    4  A    between atoms: O_10  and  N_19
    5  A    between atoms: C_14  and  C_40
    6  A    between atoms: C_18  and  N_29
    7  A    between atoms: C_18  and  O_33
    8  A    between atoms: C_18  and  C_43
    9  A    between atoms: N_19  and  C_45
   10  A    between atoms: C_21  and  C_30
                            x       y       z     vdW  Elec       q    Type
                         _______ _______ _______ _____ _____    ______ ____

>  <TORSDO>
F 10

$$$$
=
 OpenBabel11042410193D

 48 53  0  0  1  0  0  0  0  0999 V2000
  184.6170  177.9290  139.1280 N   0  0  2  0  0  0  0  0  0  0  0  0
  185.4500  178.0110  140.3450 C   0  0  2  0  0  3  0  0  0  0  0  0
  185.4070  178.4950  145.7830 O   0  0  0  0  0  0  0  0  0  0  0  0
  184.9100  178.9420  141.3230 N   0  0  0  0  0  2  0  0  0  0  0  0
  182.1990  178.5900  142.5330 C   0  0  0  0  0  3  0  0  0  0  0  0
  186.2150  178.3990  144.6440 C   0  0  0  0  0  0  0  0  0  0  0  0
  184.3900  179.1170  138.2960 C   0  0  2  0  0  3  0  0  0  0  0  0
  183.9580  180.3460  139.0870 C   0  0  0  0  0  1  0  0  0  0  0  0
  183.9910  178.6220  145.7970 C   0  0  0  0  0  3  0  0  0  0  0  0
  182.4700  177.6650  138.0800 C   0  0  0  0  0  2  0  0  0  0  0  0
  185.6190  178.4440  143.5080 C   0  0  0  0  0  0  0  0  0  0  0  0
  182.6590  177.1240  140.5590 C   0  0  0  0  0  2  0  0  0  0  0  0
  183.1140  178.6660  144.7590 C   0  0  0  0  0  3  0  0  0  0  0  0
  183.3710  177.1520  139.1910 C   0  0  2  0  0  3  0  0  0  0  0  0
  184.6620  178.5240  142.6600 C   0  0  0  0  0  0  0  0  0  0  0  0
  182.1370  178.4840  141.0300 C   0  0  1  0  0  3  0  0  0  0  0  0
  183.3150  178.6080  143.2740 C   0  0  0  0  0  0  0  0  0  0  0  0
  183.2640  178.7380  137.3570 C   0  0  0  0  0  2  0  0  0  0  0  0
  187.6660  178.2480  144.7310 C   0  0  0  0  0  3  0  0  0  0  0  0
  188.2160  177.7870  145.8040 N   0  0  0  0  0  2  0  0  0  0  0  0
  186.9050  178.3310  140.0220 C   0  0  0  0  0  2  0  0  0  0  0  0
  187.2770  177.7590  138.8000 O   0  0  0  0  0  0  0  0  0  0  0  0
  188.6270  177.6430  138.8620 N   0  0  0  0  0  0  0  0  0  0  0  0
  188.9680  177.6950  140.2780 C   0  0  0  0  0  1  0  0  0  0  0  0
  190.3470  175.9750  138.7410 N   0  0  0  0  0  0  0  0  0  0  0  0
  191.0500  175.7780  137.6830 C   0  0  0  0  0  0  0  0  0  0  0  0
  190.3430  175.9390  136.4680 N   0  0  0  0  0  0  0  0  0  0  0  0
  188.9800  176.2860  136.8310 C   0  0  0  0  0  3  0  0  0  0  0  0
  188.9760  176.3090  138.3680 C   0  0  2  0  0  3  0  0  0  0  0  0
  193.4000  176.2770  138.0190 N   0  0  0  0  0  0  0  0  0  0  0  0
  192.9650  174.1560  137.5030 O   0  0  0  0  0  0  0  0  0  0  0  0
  192.4720  175.4290  137.7420 C   0  0  0  0  0  0  0  0  0  0  0  0
  194.6270  175.6070  137.9860 N   0  0  0  0  0  0  0  0  0  0  0  0
  194.3770  174.2110  137.6470 C   0  0  0  0  0  3  0  0  0  0  0  0
  180.7140  178.7450  140.5170 C   0  0  1  0  0  3  0  0  0  0  0  0
  179.3820  176.5960  140.8370 C   0  0  0  0  0  0  0  0  0  0  0  0
  179.7370  177.9260  141.2310 N   0  0  0  0  0  2  0  0  0  0  0  0
  178.9480  175.8010  141.7130 O   0  0  0  0  0  0  0  0  0  0  0  0
  179.2870  176.5860  136.9430 C   0  0  0  0  0  0  0  0  0  0  0  0
  179.7580  175.2590  136.7080 N   0  0  0  0  0  2  0  0  0  0  0  0
  178.9550  177.0430  138.3360 C   0  0  0  0  0  2  0  0  0  0  0  0
  179.0110  177.3510  135.9410 N   0  0  0  0  0  2  0  0  0  0  0  0
  180.4730  173.2340  137.6020 O   0  0  0  0  0  0  0  0  0  0  0  0
  180.0760  174.4100  137.8070 C   0  0  0  0  0  0  0  0  0  0  0  0
  179.9570  174.9180  139.1780 C   0  0  0  0  0  3  0  0  0  0  0  0
  179.4930  176.1490  139.4330 C   0  0  0  0  0  0  0  0  0  0  0  0
  180.2540  180.5740  139.3630 C   0  0  0  0  0  1  0  0  0  0  0  0
  180.3940  180.0950  140.6690 O   0  0  0  0  0  0  0  0  0  0  0  0
  1 14  1  0  0  0  0
  1  2  1  0  0  0  0
  2  4  1  0  0  0  0
  3  9  1  0  0  0  0
  4 15  1  0  0  0  0
  5 17  2  0  0  0  0
  6 19  1  0  0  0  0
  6  3  1  0  0  0  0
  7  8  1  0  0  0  0
  7  1  1  0  0  0  0
 10 14  1  0  0  0  0
 11  6  2  0  0  0  0
 12 16  1  0  0  0  0
 13  9  2  0  0  0  0
 14 12  1  0  0  0  0
 15 17  1  0  0  0  0
 15 11  2  0  0  0  0
 16  5  1  0  0  0  0
 17 13  1  0  0  0  0
 18 10  1  0  0  0  0
 18  7  1  0  0  0  0
 19 20  2  0  0  0  0
 21  2  1  0  0  0  0
 22 23  1  0  0  0  0
 22 21  1  0  0  0  0
 23 24  1  0  0  0  0
 26 32  1  0  0  0  0
 26 25  2  0  0  0  0
 27 28  2  0  0  0  0
 27 26  1  0  0  0  0
 28 29  1  0  0  0  0
 29 25  1  0  0  0  0
 29 23  1  0  0  0  0
 31 34  1  0  0  0  0
 31 32  1  0  0  0  0
 32 30  2  0  0  0  0
 33 30  1  0  0  0  0
 34 33  2  0  0  0  0
 35 48  1  0  0  0  0
 35 16  1  0  0  0  0
 35 37  1  0  0  0  0
 36 37  1  0  0  0  0
 36 38  2  0  0  0  0
 39 41  1  0  0  0  0
 40 39  1  0  0  0  0
 40 44  1  0  0  0  0
 41 46  1  0  0  0  0
 42 39  2  0  0  0  0
 43 44  2  0  0  0  0
 44 45  1  0  0  0  0
 45 46  2  0  0  0  0
 46 36  1  0  0  0  0
 47 48  1  0  0  0  0
M  END
>  <MODEL>
6

>  <REMARK>
 VINA RESULT:      -6.2      2.325      9.928
  Name = 
  10 active torsions:
  status: ('A' for Active; 'I' for Inactive)
    1  A    between atoms: C_2  and  C_6
    2  A    between atoms: C_6  and  O_10
    3  A    between atoms: C_7  and  C_15
    4  A    between atoms: O_10  and  N_19
    5  A    between atoms: C_14  and  C_40
    6  A    between atoms: C_18  and  N_29
    7  A    between atoms: C_18  and  O_33
    8  A    between atoms: C_18  and  C_43
    9  A    between atoms: N_19  and  C_45
   10  A    between atoms: C_21  and  C_30
                            x       y       z     vdW  Elec       q    Type
                         _______ _______ _______ _____ _____    ______ ____

>  <TORSDO>
F 10

$$$$
=
 OpenBabel11042410193D

 48 53  0  0  1  0  0  0  0  0999 V2000
  187.4420  177.9570  136.4340 N   0  0  2  0  0  0  0  0  0  0  0  0
  186.8380  178.2910  137.7410 C   0  0  2  0  0  3  0  0  0  0  0  0
  187.6060  178.3730  143.1450 O   0  0  0  0  0  0  0  0  0  0  0  0
  187.1960  177.3340  138.7760 N   0  0  0  0  0  2  0  0  0  0  0  0
  190.0320  176.8480  139.5880 C   0  0  0  0  0  3  0  0  0  0  0  0
  186.7000  178.6270  142.1090 C   0  0  0  0  0  0  0  0  0  0  0  0
  187.1290  176.6860  135.7690 C   0  0  2  0  0  3  0  0  0  0  0  0
  187.2580  175.4700  136.6790 C   0  0  0  0  0  1  0  0  0  0  0  0
  188.8850  177.7680  143.0090 C   0  0  0  0  0  3  0  0  0  0  0  0
  189.3560  177.3560  135.1100 C   0  0  0  0  0  2  0  0  0  0  0  0
  187.0540  178.2650  140.9300 C   0  0  0  0  0  0  0  0  0  0  0  0
  189.7610  178.1760  137.4840 C   0  0  0  0  0  2  0  0  0  0  0  0
  189.5180  177.3180  141.8930 C   0  0  0  0  0  3  0  0  0  0  0  0
  188.8670  178.2580  136.2310 C   0  0  2  0  0  3  0  0  0  0  0  0
  187.7820  177.7740  139.9960 C   0  0  0  0  0  0  0  0  0  0  0  0
  189.8790  176.7740  138.0890 C   0  0  1  0  0  3  0  0  0  0  0  0
  189.1080  177.2920  140.4500 C   0  0  0  0  0  0  0  0  0  0  0  0
  188.1480  176.5560  134.6570 C   0  0  0  0  0  2  0  0  0  0  0  0
  185.4120  179.2780  142.3440 C   0  0  0  0  0  3  0  0  0  0  0  0
  184.9450  179.3970  143.5420 N   0  0  0  0  0  2  0  0  0  0  0  0
  185.3260  178.4630  137.6450 C   0  0  0  0  0  2  0  0  0  0  0  0
  184.6920  177.2180  137.5660 O   0  0  0  0  0  0  0  0  0  0  0  0
  183.5910  177.4320  136.8030 N   0  0  0  0  0  0  0  0  0  0  0  0
  183.8380  176.7450  135.5420 C   0  0  0  0  0  1  0  0  0  0  0  0
  181.8220  177.6730  138.4060 N   0  0  0  0  0  0  0  0  0  0  0  0
  181.8900  177.1850  139.5940 C   0  0  0  0  0  0  0  0  0  0  0  0
  182.5560  175.9400  139.6810 N   0  0  0  0  0  0  0  0  0  0  0  0
  182.9610  175.5970  138.3290 C   0  0  0  0  0  3  0  0  0  0  0  0
  182.4650  176.7650  137.4610 C   0  0  2  0  0  3  0  0  0  0  0  0
  180.1120  177.7350  141.1490 N   0  0  0  0  0  0  0  0  0  0  0  0
  182.0480  178.7560  141.5530 O   0  0  0  0  0  0  0  0  0  0  0  0
  181.3300  177.8770  140.7570 C   0  0  0  0  0  0  0  0  0  0  0  0
  179.9210  178.5380  142.2780 N   0  0  0  0  0  0  0  0  0  0  0  0
  181.1740  179.2250  142.5690 C   0  0  0  0  0  3  0  0  0  0  0  0
  191.0350  175.9880  137.4560 C   0  0  1  0  0  3  0  0  0  0  0  0
  193.5180  176.2760  136.9620 C   0  0  0  0  0  0  0  0  0  0  0  0
  192.2780  176.7530  137.4960 N   0  0  0  0  0  2  0  0  0  0  0  0
  194.3800  177.1170  136.5890 O   0  0  0  0  0  0  0  0  0  0  0  0
  194.8100  172.6980  137.7960 C   0  0  0  0  0  0  0  0  0  0  0  0
  194.3330  172.0090  136.6410 N   0  0  0  0  0  2  0  0  0  0  0  0
  194.7300  174.1960  137.8790 C   0  0  0  0  0  2  0  0  0  0  0  0
  195.4400  172.0440  138.7130 N   0  0  0  0  0  2  0  0  0  0  0  0
  193.2220  172.1180  134.5990 O   0  0  0  0  0  0  0  0  0  0  0  0
  193.6260  172.7190  135.6280 C   0  0  0  0  0  0  0  0  0  0  0  0
  193.3550  174.1510  135.7970 C   0  0  0  0  0  3  0  0  0  0  0  0
  193.8110  174.8310  136.8570 C   0  0  0  0  0  0  0  0  0  0  0  0
  190.4470  173.8570  137.3970 C   0  0  0  0  0  1  0  0  0  0  0  0
  191.2080  174.7760  138.1260 O   0  0  0  0  0  0  0  0  0  0  0  0
  1  2  1  0  0  0  0
  2  4  1  0  0  0  0
  4 15  1  0  0  0  0
  5 17  2  0  0  0  0
  6 19  1  0  0  0  0
  6  3  1  0  0  0  0
  7  1  1  0  0  0  0
  7  8  1  0  0  0  0
  9  3  1  0  0  0  0
 10 14  1  0  0  0  0
 11  6  2  0  0  0  0
 12 16  1  0  0  0  0
 13  9  2  0  0  0  0
 14  1  1  0  0  0  0
 14 12  1  0  0  0  0
 15 17  1  0  0  0  0
 15 11  2  0  0  0  0
 16  5  1  0  0  0  0
 17 13  1  0  0  0  0
 18 10  1  0  0  0  0
 18  7  1  0  0  0  0
 19 20  2  0  0  0  0
 21  2  1  0  0  0  0
 22 21  1  0  0  0  0
 23 29  1  0  0  0  0
 23 22  1  0  0  0  0
 24 23  1  0  0  0  0
 25 26  2  0  0  0  0
 26 27  1  0  0  0  0
 26 32  1  0  0  0  0
 28 27  2  0  0  0  0
 29 28  1  0  0  0  0
 29 25  1  0  0  0  0
 30 33  1  0  0  0  0
 31 34  1  0  0  0  0
 32 30  2  0  0  0  0
 32 31  1  0  0  0  0
 33 34  2  0  0  0  0
 35 37  1  0  0  0  0
 35 16  1  0  0  0  0
 35 48  1  0  0  0  0
 36 37  1  0  0  0  0
 38 36  2  0  0  0  0
 39 41  1  0  0  0  0
 39 42  2  0  0  0  0
 40 39  1  0  0  0  0
 43 44  2  0  0  0  0
 44 45  1  0  0  0  0
 44 40  1  0  0  0  0
 45 46  2  0  0  0  0
 46 36  1  0  0  0  0
 46 41  1  0  0  0  0
 47 48  1  0  0  0  0
M  END
>  <MODEL>
7

>  <REMARK>
 VINA RESULT:      -6.2      1.519      1.888
  Name = 
  10 active torsions:
  status: ('A' for Active; 'I' for Inactive)
    1  A    between atoms: C_2  and  C_6
    2  A    between atoms: C_6  and  O_10
    3  A    between atoms: C_7  and  C_15
    4  A    between atoms: O_10  and  N_19
    5  A    between atoms: C_14  and  C_40
    6  A    between atoms: C_18  and  N_29
    7  A    between atoms: C_18  and  O_33
    8  A    between atoms: C_18  and  C_43
    9  A    between atoms: N_19  and  C_45
   10  A    between atoms: C_21  and  C_30
                            x       y       z     vdW  Elec       q    Type
                         _______ _______ _______ _____ _____    ______ ____

>  <TORSDO>
F 10

$$$$
=
 OpenBabel11042410193D

 48 53  0  0  1  0  0  0  0  0999 V2000
  187.7560  178.1540  137.4240 N   0  0  2  0  0  0  0  0  0  0  0  0
  187.5670  178.1880  138.8890 C   0  0  2  0  0  3  0  0  0  0  0  0
  189.8770  177.1760  143.7320 O   0  0  0  0  0  0  0  0  0  0  0  0
  188.1860  177.0500  139.5520 N   0  0  0  0  0  2  0  0  0  0  0  0
  191.1220  176.5120  139.3870 C   0  0  0  0  0  3  0  0  0  0  0  0
  188.7150  177.6060  143.0790 C   0  0  0  0  0  0  0  0  0  0  0  0
  187.2300  177.0370  136.6280 C   0  0  2  0  0  3  0  0  0  0  0  0
  187.5870  175.6650  137.1860 C   0  0  0  0  0  1  0  0  0  0  0  0
  191.0450  176.6590  143.1070 C   0  0  0  0  0  3  0  0  0  0  0  0
  189.1860  177.9110  135.5070 C   0  0  0  0  0  2  0  0  0  0  0  0
  188.7020  177.5090  141.8000 C   0  0  0  0  0  0  0  0  0  0  0  0
  190.2850  178.2350  137.7780 C   0  0  0  0  0  2  0  0  0  0  0  0
  191.3140  176.4740  141.7870 C   0  0  0  0  0  3  0  0  0  0  0  0
  189.0670  178.5420  136.8840 C   0  0  2  0  0  3  0  0  0  0  0  0
  189.1130  177.2490  140.6140 C   0  0  0  0  0  0  0  0  0  0  0  0
  190.5380  176.7440  138.0160 C   0  0  1  0  0  3  0  0  0  0  0  0
  190.5010  176.7330  140.5530 C   0  0  0  0  0  0  0  0  0  0  0  0
  187.8780  177.1780  135.2660 C   0  0  0  0  0  2  0  0  0  0  0  0
  187.5690  178.1460  143.8080 C   0  0  0  0  0  3  0  0  0  0  0  0
  187.1110  177.5410  144.8530 N   0  0  0  0  0  2  0  0  0  0  0  0
  186.0980  178.3190  139.2740 C   0  0  0  0  0  2  0  0  0  0  0  0
  185.9690  178.9000  140.5410 O   0  0  0  0  0  0  0  0  0  0  0  0
  184.6620  179.2490  140.6360 N   0  0  0  0  0  0  0  0  0  0  0  0
  184.1220  179.1510  139.2860 C   0  0  0  0  0  1  0  0  0  0  0  0
  182.5710  178.5290  141.5660 N   0  0  0  0  0  0  0  0  0  0  0  0
  182.2580  178.7150  142.7990 C   0  0  0  0  0  0  0  0  0  0  0  0
  183.3400  178.6000  143.7040 N   0  0  0  0  0  0  0  0  0  0  0  0
  184.5110  178.2860  142.9040 C   0  0  0  0  0  3  0  0  0  0  0  0
  183.9960  178.2340  141.4570 C   0  0  2  0  0  3  0  0  0  0  0  0
  180.1810  178.2580  143.9640 N   0  0  0  0  0  0  0  0  0  0  0  0
  180.2230  180.1920  142.8640 O   0  0  0  0  0  0  0  0  0  0  0  0
  180.8920  179.0320  143.2210 C   0  0  0  0  0  0  0  0  0  0  0  0
  178.9390  178.8670  144.1660 N   0  0  0  0  0  0  0  0  0  0  0  0
  178.9320  180.1400  143.4540 C   0  0  0  0  0  3  0  0  0  0  0  0
  191.4390  176.1490  136.9250 C   0  0  1  0  0  3  0  0  0  0  0  0
  193.9270  176.2730  136.3940 C   0  0  0  0  0  0  0  0  0  0  0  0
  192.7040  176.8730  136.8330 N   0  0  0  0  0  2  0  0  0  0  0  0
  194.8130  177.0090  135.8810 O   0  0  0  0  0  0  0  0  0  0  0  0
  194.3140  172.4850  135.5760 C   0  0  0  0  0  0  0  0  0  0  0  0
  194.7100  172.0130  136.8640 N   0  0  0  0  0  2  0  0  0  0  0  0
  193.8480  173.9020  135.3910 C   0  0  0  0  0  2  0  0  0  0  0  0
  194.2230  171.6530  134.5940 N   0  0  0  0  0  2  0  0  0  0  0  0
  195.1550  172.5090  139.0930 O   0  0  0  0  0  0  0  0  0  0  0  0
  194.8250  172.9260  137.9520 C   0  0  0  0  0  0  0  0  0  0  0  0
  194.5760  174.3540  137.7350 C   0  0  0  0  0  3  0  0  0  0  0  0
  194.1780  174.8240  136.5450 C   0  0  0  0  0  0  0  0  0  0  0  0
  190.5450  174.1350  136.7430 C   0  0  0  0  0  1  0  0  0  0  0  0
  191.6870  174.8030  137.1960 O   0  0  0  0  0  0  0  0  0  0  0  0
  1  2  1  0  0  0  0
  2 21  1  0  0  0  0
  2  4  1  0  0  0  0
  4 15  1  0  0  0  0
  5 17  2  0  0  0  0
  6  3  1  0  0  0  0
  6 19  1  0  0  0  0
  7  8  1  0  0  0  0
  7  1  1  0  0  0  0
  9  3  1  0  0  0  0
 10 14  1  0  0  0  0
 11  6  2  0  0  0  0
 12 16  1  0  0  0  0
 13  9  2  0  0  0  0
 14  1  1  0  0  0  0
 14 12  1  0  0  0  0
 15 11  2  0  0  0  0
 16  5  1  0  0  0  0
 17 15  1  0  0  0  0
 17 13  1  0  0  0  0
 18 10  1  0  0  0  0
 18  7  1  0  0  0  0
 19 20  2  0  0  0  0
 21 22  1  0  0  0  0
 22 23  1  0  0  0  0
 23 29  1  0  0  0  0
 24 23  1  0  0  0  0
 25 26  2  0  0  0  0
 26 32  1  0  0  0  0
 26 27  1  0  0  0  0
 28 27  2  0  0  0  0
 29 25  1  0  0  0  0
 29 28  1  0  0  0  0
 30 33  1  0  0  0  0
 31 32  1  0  0  0  0
 31 34  1  0  0  0  0
 32 30  2  0  0  0  0
 34 33  2  0  0  0  0
 35 48  1  0  0  0  0
 35 16  1  0  0  0  0
 36 46  1  0  0  0  0
 36 37  1  0  0  0  0
 37 35  1  0  0  0  0
 38 36  2  0  0  0  0
 39 40  1  0  0  0  0
 40 44  1  0  0  0  0
 41 39  1  0  0  0  0
 41 46  1  0  0  0  0
 42 39  2  0  0  0  0
 44 43  2  0  0  0  0
 45 44  1  0  0  0  0
 46 45  2  0  0  0  0
 47 48  1  0  0  0  0
M  END
>  <MODEL>
8

>  <REMARK>
 VINA RESULT:      -6.2      1.970      2.880
  Name = 
  10 active torsions:
  status: ('A' for Active; 'I' for Inactive)
    1  A    between atoms: C_2  and  C_6
    2  A    between atoms: C_6  and  O_10
    3  A    between atoms: C_7  and  C_15
    4  A    between atoms: O_10  and  N_19
    5  A    between atoms: C_14  and  C_40
    6  A    between atoms: C_18  and  N_29
    7  A    between atoms: C_18  and  O_33
    8  A    between atoms: C_18  and  C_43
    9  A    between atoms: N_19  and  C_45
   10  A    between atoms: C_21  and  C_30
                            x       y       z     vdW  Elec       q    Type
                         _______ _______ _______ _____ _____    ______ ____

>  <TORSDO>
F 10

$$$$
=
 OpenBabel11042410193D

 48 53  0  0  1  0  0  0  0  0999 V2000
  187.5320  178.3920  137.8250 N   0  0  2  0  0  0  0  0  0  0  0  0
  186.7880  178.5840  139.0870 C   0  0  2  0  0  3  0  0  0  0  0  0
  186.9270  177.9800  144.5110 O   0  0  0  0  0  0  0  0  0  0  0  0
  187.0050  177.4960  140.0280 N   0  0  0  0  0  2  0  0  0  0  0  0
  189.7190  176.8210  141.0860 C   0  0  0  0  0  3  0  0  0  0  0  0
  186.1520  178.3880  143.4190 C   0  0  0  0  0  0  0  0  0  0  0  0
  187.2740  177.2220  136.9750 C   0  0  2  0  0  3  0  0  0  0  0  0
  187.2740  175.9010  137.7340 C   0  0  0  0  0  1  0  0  0  0  0  0
  188.2020  177.3530  144.4450 C   0  0  0  0  0  3  0  0  0  0  0  0
  189.5750  177.8940  136.6590 C   0  0  0  0  0  2  0  0  0  0  0  0
  186.6330  178.1610  142.2520 C   0  0  0  0  0  0  0  0  0  0  0  0
  189.7180  178.4040  139.1480 C   0  0  0  0  0  2  0  0  0  0  0  0
  188.9510  177.0230  143.3590 C   0  0  0  0  0  3  0  0  0  0  0  0
  188.9760  178.6680  137.8220 C   0  0  2  0  0  3  0  0  0  0  0  0
  187.4540  177.7640  141.3510 C   0  0  0  0  0  0  0  0  0  0  0  0
  189.7390  176.9350  139.5820 C   0  0  1  0  0  3  0  0  0  0  0  0
  188.7090  177.1870  141.8880 C   0  0  0  0  0  0  0  0  0  0  0  0
  188.4120  177.1950  135.9770 C   0  0  0  0  0  2  0  0  0  0  0  0
  184.8580  179.0480  143.5880 C   0  0  0  0  0  3  0  0  0  0  0  0
  184.1390  178.8250  144.6370 N   0  0  0  0  0  2  0  0  0  0  0  0
  185.3000  178.8160  138.8440 C   0  0  0  0  0  2  0  0  0  0  0  0
  184.7460  179.5860  139.8730 O   0  0  0  0  0  0  0  0  0  0  0  0
  183.4050  179.4340  139.7420 N   0  0  0  0  0  0  0  0  0  0  0  0
  183.1870  178.9580  138.3820 C   0  0  0  0  0  1  0  0  0  0  0  0
  182.5530  177.1970  139.9060 N   0  0  0  0  0  0  0  0  0  0  0  0
  181.3230  176.9410  140.1800 C   0  0  0  0  0  0  0  0  0  0  0  0
  180.7280  177.8320  141.1030 N   0  0  0  0  0  0  0  0  0  0  0  0
  181.7550  178.7940  141.4640 C   0  0  0  0  0  3  0  0  0  0  0  0
  182.9930  178.3670  140.6590 C   0  0  2  0  0  3  0  0  0  0  0  0
  179.9800  174.9220  140.2520 N   0  0  0  0  0  0  0  0  0  0  0  0
  180.5180  175.6070  138.2040 O   0  0  0  0  0  0  0  0  0  0  0  0
  180.6030  175.8200  139.5710 C   0  0  0  0  0  0  0  0  0  0  0  0
  179.4130  174.0110  139.3570 N   0  0  0  0  0  0  0  0  0  0  0  0
  179.7490  174.4300  138.0010 C   0  0  0  0  0  3  0  0  0  0  0  0
  190.9450  176.1950  138.9890 C   0  0  1  0  0  3  0  0  0  0  0  0
  191.4380  174.4160  137.2330 C   0  0  0  0  0  0  0  0  0  0  0  0
  190.5330  175.2810  137.9260 N   0  0  0  0  0  2  0  0  0  0  0  0
  190.9880  173.3570  136.7180 O   0  0  0  0  0  0  0  0  0  0  0  0
  194.7380  176.1650  136.1290 C   0  0  0  0  0  0  0  0  0  0  0  0
  195.6700  175.3860  136.8770 N   0  0  0  0  0  2  0  0  0  0  0  0
  193.2900  175.7660  136.0580 C   0  0  0  0  0  2  0  0  0  0  0  0
  195.1640  177.1370  135.3950 N   0  0  0  0  0  2  0  0  0  0  0  0
  196.0300  173.6160  138.3440 O   0  0  0  0  0  0  0  0  0  0  0  0
  195.2080  174.3170  137.6980 C   0  0  0  0  0  0  0  0  0  0  0  0
  193.7700  174.0490  137.8040 C   0  0  0  0  0  3  0  0  0  0  0  0
  192.8720  174.7450  137.0950 C   0  0  0  0  0  0  0  0  0  0  0  0
  192.8640  177.1870  139.4620 C   0  0  0  0  0  1  0  0  0  0  0  0
  191.8660  177.1150  138.4860 O   0  0  0  0  0  0  0  0  0  0  0  0
  1  2  1  0  0  0  0
  2  4  1  0  0  0  0
  4 15  1  0  0  0  0
  5 17  2  0  0  0  0
  6 19  1  0  0  0  0
  6  3  1  0  0  0  0
  7  8  1  0  0  0  0
  7  1  1  0  0  0  0
  9  3  1  0  0  0  0
 10 14  1  0  0  0  0
 11  6  2  0  0  0  0
 12 16  1  0  0  0  0
 13  9  2  0  0  0  0
 14  1  1  0  0  0  0
 14 12  1  0  0  0  0
 15 17  1  0  0  0  0
 15 11  2  0  0  0  0
 16  5  1  0  0  0  0
 17 13  1  0  0  0  0
 18 10  1  0  0  0  0
 18  7  1  0  0  0  0
 19 20  2  0  0  0  0
 21  2  1  0  0  0  0
 21 22  1  0  0  0  0
 23 22  1  0  0  0  0
 23 29  1  0  0  0  0
 24 23  1  0  0  0  0
 25 26  2  0  0  0  0
 25 29  1  0  0  0  0
 26 27  1  0  0  0  0
 27 28  2  0  0  0  0
 29 28  1  0  0  0  0
 31 32  1  0  0  0  0
 32 26  1  0  0  0  0
 32 30  2  0  0  0  0
 33 30  1  0  0  0  0
 34 31  1  0  0  0  0
 34 33  2  0  0  0  0
 35 16  1  0  0  0  0
 36 37  1  0  0  0  0
 37 35  1  0  0  0  0
 38 36  2  0  0  0  0
 39 40  1  0  0  0  0
 40 44  1  0  0  0  0
 41 39  1  0  0  0  0
 41 46  1  0  0  0  0
 42 39  2  0  0  0  0
 44 45  1  0  0  0  0
 44 43  2  0  0  0  0
 46 36  1  0  0  0  0
 46 45  2  0  0  0  0
 48 35  1  0  0  0  0
 48 47  1  0  0  0  0
M  END
>  <MODEL>
9

>  <REMARK>
 VINA RESULT:      -6.2      1.734      2.742
  Name = 
  10 active torsions:
  status: ('A' for Active; 'I' for Inactive)
    1  A    between atoms: C_2  and  C_6
    2  A    between atoms: C_6  and  O_10
    3  A    between atoms: C_7  and  C_15
    4  A    between atoms: O_10  and  N_19
    5  A    between atoms: C_14  and  C_40
    6  A    between atoms: C_18  and  N_29
    7  A    between atoms: C_18  and  O_33
    8  A    between atoms: C_18  and  C_43
    9  A    between atoms: N_19  and  C_45
   10  A    between atoms: C_21  and  C_30
                            x       y       z     vdW  Elec       q    Type
                         _______ _______ _______ _____ _____    ______ ____

>  <TORSDO>
F 10

$$$$
