=
 OpenBabel11042410273D

 35 38  0  0  1  0  0  0  0  0999 V2000
  189.2650  176.6950  141.7070 N   0  0  0  0  0  0  0  0  0  0  0  0
  187.8100  178.2820  142.8590 C   0  0  0  0  0  3  0  0  0  0  0  0
  186.9150  178.5120  141.7570 N   0  0  0  0  0  0  0  0  0  0  0  0
  188.6370  178.3630  140.0410 C   0  0  1  0  0  3  0  0  0  0  0  0
  186.1790  178.7260  139.5230 N   0  0  0  0  0  2  0  0  0  0  0  0
  188.9100  177.5060  142.8430 C   0  0  0  0  0  0  0  0  0  0  0  0
  187.2140  178.5170  140.4910 C   0  0  0  0  0  0  0  0  0  0  0  0
  189.1440  177.0260  140.4590 C   0  0  0  0  0  3  0  0  0  0  0  0
  191.0970  177.1520  144.1280 C   0  0  0  0  0  0  0  0  0  0  0  0
  191.7150  176.7370  147.7190 N   0  0  0  0  0  1  0  0  0  0  0  0
  189.0060  177.2450  145.2680 N   0  0  0  0  0  0  0  0  0  0  0  0
  188.8180  177.0120  147.7100 C   0  0  0  0  0  1  0  0  0  0  0  0
  189.6290  177.0630  146.4600 C   0  0  0  0  0  0  0  0  0  0  0  0
  191.7150  176.9710  145.3250 N   0  0  0  0  0  0  0  0  0  0  0  0
  189.6900  177.3060  144.0920 C   0  0  0  0  0  0  0  0  0  0  0  0
  191.0200  176.9290  146.4900 C   0  0  0  0  0  0  0  0  0  0  0  0
  191.8840  177.1390  142.9400 N   0  0  0  0  0  1  0  0  0  0  0  0
  188.8000  178.5430  138.5330 C   0  0  0  0  0  2  0  0  0  0  0  0
  189.3820  176.7530  136.9380 C   0  0  0  0  0  3  0  0  0  0  0  0
  189.7410  177.5300  137.9650 C   0  0  0  0  0  3  0  0  0  0  0  0
  191.7240  176.2180  136.3030 C   0  0  0  0  0  2  0  0  0  0  0  0
  190.3240  174.4560  137.1870 C   0  0  0  0  0  2  0  0  0  0  0  0
  190.2990  175.7210  136.3470 C   0  0  1  0  0  3  0  0  0  0  0  0
  192.5340  175.1390  136.9860 C   0  0  2  0  0  3  0  0  0  0  0  0
  191.6300  174.3650  137.8250 N   0  0  0  0  0  2  0  0  0  0  0  0
  193.3690  176.7530  138.5250 O   0  0  0  0  0  1  0  0  0  0  0  0
  194.8930  175.1950  137.8140 O   0  0  0  0  0  0  0  0  0  0  0  0
  193.6160  175.7440  137.8130 C   0  0  0  0  0  0  0  0  0  0  0  0
  184.7850  178.9120  139.8950 C   0  0  0  0  0  2  0  0  0  0  0  0
  182.9760  176.0330  137.9050 C   0  0  0  0  0  3  0  0  0  0  0  0
  184.2210  177.1600  137.7750 S   0  0  0  0  0  0  0  0  0  0  0  0
  183.9600  177.8330  139.2880 C   0  0  0  0  0  0  0  0  0  0  0  0
  182.4040  176.2330  139.1610 C   0  0  0  0  0  0  0  0  0  0  0  0
  181.3140  175.4470  139.6270 N   0  0  0  0  0  1  0  0  0  0  0  0
  182.9470  177.2160  139.9280 N   0  0  0  0  0  0  0  0  0  0  0  0
  1  6  1  0  0  0  0
  3  2  1  0  0  0  0
  4 18  1  6  0  0  0
  4  8  1  0  0  0  0
  4  7  1  0  0  0  0
  5 29  1  0  0  0  0
  5  7  1  0  0  0  0
  6  2  2  0  0  0  0
  6 15  1  0  0  0  0
  7  3  2  0  0  0  0
  8  1  2  0  0  0  0
  9 14  1  0  0  0  0
 11 13  2  0  0  0  0
 13 16  1  0  0  0  0
 13 12  1  0  0  0  0
 14 16  2  0  0  0  0
 15  9  2  0  0  0  0
 15 11  1  0  0  0  0
 16 10  1  0  0  0  0
 17  9  1  0  0  0  0
 19 20  2  0  0  0  0
 20 18  1  0  0  0  0
 21 23  1  0  0  0  0
 21 24  1  0  0  0  0
 22 25  1  0  0  0  0
 23 19  1  1  0  0  0
 23 22  1  0  0  0  0
 24 28  1  1  0  0  0
 24 25  1  0  0  0  0
 28 27  2  0  0  0  0
 28 26  1  0  0  0  0
 30 33  2  0  0  0  0
 31 30  1  0  0  0  0
 31 32  1  0  0  0  0
 32 29  1  0  0  0  0
 32 35  2  0  0  0  0
 33 34  1  0  0  0  0
 33 35  1  0  0  0  0
M  END
>  <MODEL>
1

>  <REMARK>
 VINA RESULT:      -8.4      0.000      0.000
  Name = 
  7 active torsions:
  status: ('A' for Active; 'I' for Inactive)
    1  A    between atoms: C_10  and  CA_25
    2  A    between atoms: C_11  and  C_13
    3  A    between atoms: C_11  and  C_20
    4  A    between atoms: C_15  and  C_19
    5  A    between atoms: C_16  and  C_24
    6  A    between atoms: N_17  and  C_19
    7  A    between atoms: C_22  and  C_31
                            x       y       z     vdW  Elec       q    Type
                         _______ _______ _______ _____ _____    ______ ____

>  <TORSDO>
F 7

$$$$
=
 OpenBabel11042410273D

 35 38  0  0  1  0  0  0  0  0999 V2000
  185.9790  179.1480  141.8790 N   0  0  0  0  0  0  0  0  0  0  0  0
  185.8520  178.1610  144.1080 C   0  0  0  0  0  3  0  0  0  0  0  0
  187.2700  178.1020  144.3410 N   0  0  0  0  0  0  0  0  0  0  0  0
  187.8510  177.5910  142.0320 C   0  0  1  0  0  3  0  0  0  0  0  0
  189.5760  177.9110  143.8670 N   0  0  0  0  0  2  0  0  0  0  0  0
  185.2470  178.5810  142.9810 C   0  0  0  0  0  0  0  0  0  0  0  0
  188.2030  177.8970  143.4580 C   0  0  0  0  0  0  0  0  0  0  0  0
  187.1350  178.7560  141.4410 C   0  0  0  0  0  3  0  0  0  0  0  0
  182.9420  178.9090  144.0490 C   0  0  0  0  0  0  0  0  0  0  0  0
  179.5900  178.8210  142.5630 N   0  0  0  0  0  1  0  0  0  0  0  0
  183.1610  178.4500  141.7200 N   0  0  0  0  0  0  0  0  0  0  0  0
  181.2220  178.2670  140.2180 C   0  0  0  0  0  1  0  0  0  0  0  0
  181.8140  178.4980  141.5670 C   0  0  0  0  0  0  0  0  0  0  0  0
  181.5930  178.9540  143.8890 N   0  0  0  0  0  0  0  0  0  0  0  0
  183.7640  178.6570  142.9240 C   0  0  0  0  0  0  0  0  0  0  0  0
  181.0090  178.7630  142.6790 C   0  0  0  0  0  0  0  0  0  0  0  0
  183.4840  179.0720  145.3560 N   0  0  0  0  0  1  0  0  0  0  0  0
  189.0730  177.2360  141.1880 C   0  0  0  0  0  2  0  0  0  0  0  0
  189.6750  177.2580  138.7950 C   0  0  0  0  0  3  0  0  0  0  0  0
  188.9390  177.7580  139.7940 C   0  0  0  0  0  3  0  0  0  0  0  0
  188.5850  176.9460  136.5840 C   0  0  0  0  0  2  0  0  0  0  0  0
  189.0580  179.1920  137.3450 C   0  0  0  0  0  2  0  0  0  0  0  0
  189.5700  177.7630  137.3850 C   0  0  1  0  0  3  0  0  0  0  0  0
  187.6340  177.9590  135.9870 C   0  0  2  0  0  3  0  0  0  0  0  0
  187.7120  179.1720  136.7890 N   0  0  0  0  0  2  0  0  0  0  0  0
  185.7430  176.9770  137.0510 O   0  0  0  0  0  1  0  0  0  0  0  0
  185.4830  177.4410  134.8210 O   0  0  0  0  0  0  0  0  0  0  0  0
  186.2400  177.4290  135.9870 C   0  0  0  0  0  0  0  0  0  0  0  0
  189.9820  178.1710  145.2400 C   0  0  0  0  0  2  0  0  0  0  0  0
  192.4190  175.1620  145.9640 C   0  0  0  0  0  3  0  0  0  0  0  0
  191.5190  175.8780  144.7320 S   0  0  0  0  0  0  0  0  0  0  0  0
  190.8760  177.0790  145.7080 C   0  0  0  0  0  0  0  0  0  0  0  0
  192.1770  175.9200  147.1090 C   0  0  0  0  0  0  0  0  0  0  0  0
  192.7830  175.6110  148.3590 N   0  0  0  0  0  1  0  0  0  0  0  0
  191.3360  176.9790  146.9710 N   0  0  0  0  0  0  0  0  0  0  0  0
  1  6  1  0  0  0  0
  2  3  1  0  0  0  0
  4 18  1  6  0  0  0
  4  7  1  0  0  0  0
  5 29  1  0  0  0  0
  6  2  2  0  0  0  0
  7  5  1  0  0  0  0
  7  3  2  0  0  0  0
  8  1  2  0  0  0  0
  8  4  1  0  0  0  0
  9 17  1  0  0  0  0
 10 16  1  0  0  0  0
 11 15  1  0  0  0  0
 12 13  1  0  0  0  0
 13 11  2  0  0  0  0
 13 16  1  0  0  0  0
 14  9  1  0  0  0  0
 15  6  1  0  0  0  0
 15  9  2  0  0  0  0
 16 14  2  0  0  0  0
 19 20  2  0  0  0  0
 20 18  1  0  0  0  0
 21 23  1  0  0  0  0
 22 23  1  0  0  0  0
 23 19  1  1  0  0  0
 24 28  1  1  0  0  0
 24 21  1  0  0  0  0
 24 25  1  0  0  0  0
 25 22  1  0  0  0  0
 27 28  2  0  0  0  0
 28 26  1  0  0  0  0
 29 32  1  0  0  0  0
 30 33  2  0  0  0  0
 31 32  1  0  0  0  0
 31 30  1  0  0  0  0
 32 35  2  0  0  0  0
 33 34  1  0  0  0  0
 35 33  1  0  0  0  0
M  END
>  <MODEL>
2

>  <REMARK>
 VINA RESULT:      -8.0      3.605      7.901
  Name = 
  7 active torsions:
  status: ('A' for Active; 'I' for Inactive)
    1  A    between atoms: C_10  and  CA_25
    2  A    between atoms: C_11  and  C_13
    3  A    between atoms: C_11  and  C_20
    4  A    between atoms: C_15  and  C_19
    5  A    between atoms: C_16  and  C_24
    6  A    between atoms: N_17  and  C_19
    7  A    between atoms: C_22  and  C_31
                            x       y       z     vdW  Elec       q    Type
                         _______ _______ _______ _____ _____    ______ ____

>  <TORSDO>
F 7

$$$$
=
 OpenBabel11042410273D

 35 38  0  0  1  0  0  0  0  0999 V2000
  188.6010  178.5510  141.0850 N   0  0  0  0  0  0  0  0  0  0  0  0
  189.9160  176.6090  141.7620 C   0  0  0  0  0  3  0  0  0  0  0  0
  190.6110  176.4400  140.5150 N   0  0  0  0  0  0  0  0  0  0  0  0
  188.7300  177.1090  139.1210 C   0  0  1  0  0  3  0  0  0  0  0  0
  191.0100  176.4960  138.1880 N   0  0  0  0  0  2  0  0  0  0  0  0
  188.9640  177.5230  142.0250 C   0  0  0  0  0  0  0  0  0  0  0  0
  190.1560  176.6860  139.3220 C   0  0  0  0  0  0  0  0  0  0  0  0
  188.5050  178.4170  139.7980 C   0  0  0  0  0  3  0  0  0  0  0  0
  187.0170  177.8180  143.6640 C   0  0  0  0  0  0  0  0  0  0  0  0
  186.9750  177.8900  147.3310 N   0  0  0  0  0  1  0  0  0  0  0  0
  189.2510  177.5420  144.4490 N   0  0  0  0  0  0  0  0  0  0  0  0
  189.8200  177.5200  146.8420 C   0  0  0  0  0  1  0  0  0  0  0  0
  188.8260  177.6230  145.7360 C   0  0  0  0  0  0  0  0  0  0  0  0
  186.5990  177.8990  144.9550 N   0  0  0  0  0  0  0  0  0  0  0  0
  188.3930  177.6220  143.3940 C   0  0  0  0  0  0  0  0  0  0  0  0
  187.4640  177.7990  145.9950 C   0  0  0  0  0  0  0  0  0  0  0  0
  186.0600  177.9780  142.6210 N   0  0  0  0  0  1  0  0  0  0  0  0
  188.3470  177.2040  137.6460 C   0  0  0  0  0  2  0  0  0  0  0  0
  186.1160  177.0860  136.5980 C   0  0  0  0  0  3  0  0  0  0  0  0
  187.0440  176.5220  137.3790 C   0  0  0  0  0  3  0  0  0  0  0  0
  184.9700  174.9710  135.9730 C   0  0  0  0  0  2  0  0  0  0  0  0
  183.8860  176.4700  137.5300 C   0  0  0  0  0  2  0  0  0  0  0  0
  184.7950  176.4310  136.3150 C   0  0  1  0  0  3  0  0  0  0  0  0
  184.0330  174.2390  136.9070 C   0  0  2  0  0  3  0  0  0  0  0  0
  183.7560  175.1110  138.0390 N   0  0  0  0  0  2  0  0  0  0  0  0
  185.6840  173.0030  138.0980 O   0  0  0  0  0  1  0  0  0  0  0  0
  184.0940  171.7410  137.0310 O   0  0  0  0  0  0  0  0  0  0  0  0
  184.6540  172.9660  137.3760 C   0  0  0  0  0  0  0  0  0  0  0  0
  192.3920  176.0580  138.3120 C   0  0  0  0  0  2  0  0  0  0  0  0
  193.7120  176.1770  134.6030 C   0  0  0  0  0  3  0  0  0  0  0  0
  192.4190  175.6360  135.5370 S   0  0  0  0  0  0  0  0  0  0  0  0
  193.0660  176.1620  136.9910 C   0  0  0  0  0  0  0  0  0  0  0  0
  194.6100  176.7670  135.4910 C   0  0  0  0  0  0  0  0  0  0  0  0
  195.8320  177.3480  135.0530 N   0  0  0  0  0  1  0  0  0  0  0  0
  194.2550  176.7680  136.8040 N   0  0  0  0  0  0  0  0  0  0  0  0
  1  6  1  0  0  0  0
  2  6  2  0  0  0  0
  3  2  1  0  0  0  0
  4 18  1  6  0  0  0
  4  7  1  0  0  0  0
  4  8  1  0  0  0  0
  5 29  1  0  0  0  0
  5  7  1  0  0  0  0
  6 15  1  0  0  0  0
  7  3  2  0  0  0  0
  8  1  2  0  0  0  0
  9 14  1  0  0  0  0
 11 13  2  0  0  0  0
 13 16  1  0  0  0  0
 13 12  1  0  0  0  0
 14 16  2  0  0  0  0
 15  9  2  0  0  0  0
 15 11  1  0  0  0  0
 16 10  1  0  0  0  0
 17  9  1  0  0  0  0
 19 20  2  0  0  0  0
 20 18  1  0  0  0  0
 21 23  1  0  0  0  0
 21 24  1  0  0  0  0
 22 25  1  0  0  0  0
 23 19  1  1  0  0  0
 23 22  1  0  0  0  0
 24 28  1  1  0  0  0
 24 25  1  0  0  0  0
 27 28  2  0  0  0  0
 28 26  1  0  0  0  0
 30 33  2  0  0  0  0
 30 31  1  0  0  0  0
 31 32  1  0  0  0  0
 32 29  1  0  0  0  0
 33 35  1  0  0  0  0
 34 33  1  0  0  0  0
 35 32  2  0  0  0  0
M  END
>  <MODEL>
3

>  <REMARK>
 VINA RESULT:      -7.9      3.519      6.915
  Name = 
  7 active torsions:
  status: ('A' for Active; 'I' for Inactive)
    1  A    between atoms: C_10  and  CA_25
    2  A    between atoms: C_11  and  C_13
    3  A    between atoms: C_11  and  C_20
    4  A    between atoms: C_15  and  C_19
    5  A    between atoms: C_16  and  C_24
    6  A    between atoms: N_17  and  C_19
    7  A    between atoms: C_22  and  C_31
                            x       y       z     vdW  Elec       q    Type
                         _______ _______ _______ _____ _____    ______ ____

>  <TORSDO>
F 7

$$$$
=
 OpenBabel11042410273D

 35 38  0  0  1  0  0  0  0  0999 V2000
  185.6130  179.7550  141.7290 N   0  0  0  0  0  0  0  0  0  0  0  0
  184.4420  177.8740  140.7030 C   0  0  0  0  0  3  0  0  0  0  0  0
  183.2190  178.0190  141.4450 N   0  0  0  0  0  0  0  0  0  0  0  0
  184.2970  178.7310  143.5090 C   0  0  1  0  0  3  0  0  0  0  0  0
  181.7790  178.5540  143.2390 N   0  0  0  0  0  2  0  0  0  0  0  0
  185.5570  178.6150  140.8520 C   0  0  0  0  0  0  0  0  0  0  0  0
  183.0890  178.4340  142.6710 C   0  0  0  0  0  0  0  0  0  0  0  0
  185.0570  179.8560  142.8970 C   0  0  0  0  0  3  0  0  0  0  0  0
  188.0370  178.1540  140.4050 C   0  0  0  0  0  0  0  0  0  0  0  0
  189.8670  177.8020  137.2470 N   0  0  0  0  0  1  0  0  0  0  0  0
  186.4990  178.4450  138.6070 N   0  0  0  0  0  0  0  0  0  0  0  0
  187.1840  178.3210  136.2470 C   0  0  0  0  0  1  0  0  0  0  0  0
  187.4950  178.2570  137.7040 C   0  0  0  0  0  0  0  0  0  0  0  0
  189.0290  177.9670  139.4960 N   0  0  0  0  0  0  0  0  0  0  0  0
  186.7170  178.3930  139.9510 C   0  0  0  0  0  0  0  0  0  0  0  0
  188.7920  178.0050  138.1600 C   0  0  0  0  0  0  0  0  0  0  0  0
  188.3650  178.1470  141.7910 N   0  0  0  0  0  1  0  0  0  0  0  0
  183.9410  179.0590  144.9580 C   0  0  0  0  0  2  0  0  0  0  0  0
  185.9880  178.5650  146.2440 C   0  0  0  0  0  3  0  0  0  0  0  0
  184.7370  178.2280  145.9130 C   0  0  0  0  0  3  0  0  0  0  0  0
  187.8780  176.9660  146.4610 C   0  0  0  0  0  2  0  0  0  0  0  0
  187.5590  178.6350  148.1810 C   0  0  0  0  0  2  0  0  0  0  0  0
  186.8170  177.7500  147.1950 C   0  0  1  0  0  3  0  0  0  0  0  0
  189.1730  177.3150  147.1590 C   0  0  2  0  0  3  0  0  0  0  0  0
  188.9780  178.5780  147.8570 N   0  0  0  0  0  2  0  0  0  0  0  0
  190.0400  177.8580  145.0090 O   0  0  0  0  0  0  0  0  0  0  0  0
  191.5830  177.1010  146.5260 O   0  0  0  0  0  1  0  0  0  0  0  0
  190.2820  177.4370  146.1700 C   0  0  0  0  0  0  0  0  0  0  0  0
  180.5690  178.2520  142.4890 C   0  0  0  0  0  2  0  0  0  0  0  0
  179.1180  181.6300  141.0750 C   0  0  0  0  0  3  0  0  0  0  0  0
  179.0280  180.5960  142.4020 S   0  0  0  0  0  0  0  0  0  0  0  0
  180.1070  179.4740  141.7800 C   0  0  0  0  0  0  0  0  0  0  0  0
  180.0180  181.0410  140.1880 C   0  0  0  0  0  0  0  0  0  0  0  0
  180.3520  181.6430  138.9430 N   0  0  0  0  0  1  0  0  0  0  0  0
  180.5690  179.8600  140.5740 N   0  0  0  0  0  0  0  0  0  0  0  0
  1  8  2  0  0  0  0
  2  6  2  0  0  0  0
  2  3  1  0  0  0  0
  3  7  2  0  0  0  0
  4 18  1  1  0  0  0
  6  1  1  0  0  0  0
  7  5  1  0  0  0  0
  7  4  1  0  0  0  0
  8  4  1  0  0  0  0
  9 17  1  0  0  0  0
 10 16  1  0  0  0  0
 11 15  2  0  0  0  0
 12 13  1  0  0  0  0
 13 16  2  0  0  0  0
 13 11  1  0  0  0  0
 14  9  2  0  0  0  0
 15  9  1  0  0  0  0
 15  6  1  0  0  0  0
 16 14  1  0  0  0  0
 18 20  1  0  0  0  0
 20 19  2  0  0  0  0
 21 24  1  0  0  0  0
 21 23  1  0  0  0  0
 23 19  1  6  0  0  0
 23 22  1  0  0  0  0
 24 28  1  6  0  0  0
 24 25  1  0  0  0  0
 25 22  1  0  0  0  0
 26 28  2  0  0  0  0
 28 27  1  0  0  0  0
 29  5  1  0  0  0  0
 30 31  1  0  0  0  0
 32 31  1  0  0  0  0
 32 29  1  0  0  0  0
 33 35  1  0  0  0  0
 33 30  2  0  0  0  0
 34 33  1  0  0  0  0
 35 32  2  0  0  0  0
M  END
>  <MODEL>
4

>  <REMARK>
 VINA RESULT:      -7.8      3.772      7.800
  Name = 
  7 active torsions:
  status: ('A' for Active; 'I' for Inactive)
    1  A    between atoms: C_10  and  CA_25
    2  A    between atoms: C_11  and  C_13
    3  A    between atoms: C_11  and  C_20
    4  A    between atoms: C_15  and  C_19
    5  A    between atoms: C_16  and  C_24
    6  A    between atoms: N_17  and  C_19
    7  A    between atoms: C_22  and  C_31
                            x       y       z     vdW  Elec       q    Type
                         _______ _______ _______ _____ _____    ______ ____

>  <TORSDO>
F 7

$$$$
=
 OpenBabel11042410273D

 35 38  0  0  1  0  0  0  0  0999 V2000
  187.8590  178.9390  140.4970 N   0  0  0  0  0  0  0  0  0  0  0  0
  186.6740  177.9360  138.6130 C   0  0  0  0  0  3  0  0  0  0  0  0
  185.4340  178.6350  138.8080 N   0  0  0  0  0  0  0  0  0  0  0  0
  185.5570  178.6250  141.2410 C   0  0  1  0  0  3  0  0  0  0  0  0
  183.6780  179.7340  139.9430 N   0  0  0  0  0  2  0  0  0  0  0  0
  187.7670  178.0170  139.3950 C   0  0  0  0  0  0  0  0  0  0  0  0
  184.9100  179.0050  139.9410 C   0  0  0  0  0  0  0  0  0  0  0  0
  186.9060  179.2500  141.3210 C   0  0  0  0  0  3  0  0  0  0  0  0
  189.9250  176.7520  139.9460 C   0  0  0  0  0  0  0  0  0  0  0  0
  192.4540  175.2750  137.7390 N   0  0  0  0  0  1  0  0  0  0  0  0
  189.2790  177.1500  137.6860 N   0  0  0  0  0  0  0  0  0  0  0  0
  190.6190  176.3840  135.7710 C   0  0  0  0  0  1  0  0  0  0  0  0
  190.3850  176.5030  137.2380 C   0  0  0  0  0  0  0  0  0  0  0  0
  191.0310  176.1060  139.4910 N   0  0  0  0  0  0  0  0  0  0  0  0
  189.0050  177.2890  139.0130 C   0  0  0  0  0  0  0  0  0  0  0  0
  191.2810  175.9610  138.1650 C   0  0  0  0  0  0  0  0  0  0  0  0
  189.7500  176.9080  141.3510 N   0  0  0  0  0  1  0  0  0  0  0  0
  184.7160  179.0210  142.4530 C   0  0  0  0  0  2  0  0  0  0  0  0
  185.1970  178.8020  144.8630 C   0  0  0  0  0  3  0  0  0  0  0  0
  185.0980  178.2270  143.6600 C   0  0  0  0  0  3  0  0  0  0  0  0
  186.7790  177.1500  145.8350 C   0  0  0  0  0  2  0  0  0  0  0  0
  185.9920  178.9670  147.2220 C   0  0  0  0  0  2  0  0  0  0  0  0
  185.5840  178.0360  146.0940 C   0  0  1  0  0  3  0  0  0  0  0  0
  187.7680  177.5030  146.9220 C   0  0  2  0  0  3  0  0  0  0  0  0
  187.4270  178.8260  147.4260 N   0  0  0  0  0  2  0  0  0  0  0  0
  190.1040  177.0750  147.1010 O   0  0  0  0  0  1  0  0  0  0  0  0
  189.4170  177.9450  145.0940 O   0  0  0  0  0  0  0  0  0  0  0  0
  189.1590  177.4980  146.3850 C   0  0  0  0  0  0  0  0  0  0  0  0
  182.9850  180.1070  138.7190 C   0  0  0  0  0  2  0  0  0  0  0  0
  179.3890  181.0830  139.9970 C   0  0  0  0  0  3  0  0  0  0  0  0
  180.5910  179.9150  140.1720 S   0  0  0  0  0  0  0  0  0  0  0  0
  181.6260  180.6100  139.0510 C   0  0  0  0  0  0  0  0  0  0  0  0
  179.8680  181.9910  139.0540 C   0  0  0  0  0  0  0  0  0  0  0  0
  179.1140  183.1290  138.6540 N   0  0  0  0  0  1  0  0  0  0  0  0
  181.1000  181.7390  138.5370 N   0  0  0  0  0  0  0  0  0  0  0  0
  1  8  2  0  0  0  0
  2  3  1  0  0  0  0
  2  6  2  0  0  0  0
  3  7  2  0  0  0  0
  4  8  1  0  0  0  0
  4 18  1  1  0  0  0
  6  1  1  0  0  0  0
  7  5  1  0  0  0  0
  7  4  1  0  0  0  0
  9 17  1  0  0  0  0
 10 16  1  0  0  0  0
 11 15  1  0  0  0  0
 12 13  1  0  0  0  0
 13 11  2  0  0  0  0
 13 16  1  0  0  0  0
 14  9  1  0  0  0  0
 15  6  1  0  0  0  0
 15  9  2  0  0  0  0
 16 14  2  0  0  0  0
 18 20  1  0  0  0  0
 20 19  2  0  0  0  0
 21 23  1  0  0  0  0
 21 24  1  0  0  0  0
 22 25  1  0  0  0  0
 23 19  1  6  0  0  0
 23 22  1  0  0  0  0
 24 28  1  6  0  0  0
 24 25  1  0  0  0  0
 27 28  2  0  0  0  0
 28 26  1  0  0  0  0
 29 32  1  0  0  0  0
 29  5  1  0  0  0  0
 30 31  1  0  0  0  0
 32 31  1  0  0  0  0
 33 30  2  0  0  0  0
 34 33  1  0  0  0  0
 35 32  2  0  0  0  0
 35 33  1  0  0  0  0
M  END
>  <MODEL>
5

>  <REMARK>
 VINA RESULT:      -7.8      3.604      7.433
  Name = 
  7 active torsions:
  status: ('A' for Active; 'I' for Inactive)
    1  A    between atoms: C_10  and  CA_25
    2  A    between atoms: C_11  and  C_13
    3  A    between atoms: C_11  and  C_20
    4  A    between atoms: C_15  and  C_19
    5  A    between atoms: C_16  and  C_24
    6  A    between atoms: N_17  and  C_19
    7  A    between atoms: C_22  and  C_31
                            x       y       z     vdW  Elec       q    Type
                         _______ _______ _______ _____ _____    ______ ____

>  <TORSDO>
F 7

$$$$
=
 OpenBabel11042410273D

 35 38  0  0  1  0  0  0  0  0999 V2000
  189.3010  176.7170  141.6840 N   0  0  0  0  0  0  0  0  0  0  0  0
  187.8140  178.2740  142.8330 C   0  0  0  0  0  3  0  0  0  0  0  0
  186.9250  178.4980  141.7260 N   0  0  0  0  0  0  0  0  0  0  0  0
  188.6620  178.3850  140.0230 C   0  0  1  0  0  3  0  0  0  0  0  0
  186.2030  178.7150  139.4870 N   0  0  0  0  0  2  0  0  0  0  0  0
  188.9250  177.5140  142.8220 C   0  0  0  0  0  0  0  0  0  0  0  0
  187.2330  178.5150  140.4620 C   0  0  0  0  0  0  0  0  0  0  0  0
  189.1850  177.0530  140.4370 C   0  0  0  0  0  3  0  0  0  0  0  0
  191.1090  177.2110  144.1250 C   0  0  0  0  0  0  0  0  0  0  0  0
  191.7010  176.7500  147.7150 N   0  0  0  0  0  1  0  0  0  0  0  0
  189.0040  177.2120  145.2430 N   0  0  0  0  0  0  0  0  0  0  0  0
  188.7970  176.9290  147.6780 C   0  0  0  0  0  1  0  0  0  0  0  0
  189.6200  177.0300  146.4390 C   0  0  0  0  0  0  0  0  0  0  0  0
  191.7200  177.0280  145.3250 N   0  0  0  0  0  0  0  0  0  0  0  0
  189.6980  177.3180  144.0760 C   0  0  0  0  0  0  0  0  0  0  0  0
  191.0140  176.9420  146.4820 C   0  0  0  0  0  0  0  0  0  0  0  0
  191.9080  177.2450  142.9460 N   0  0  0  0  0  1  0  0  0  0  0  0
  188.8350  178.5780  138.5180 C   0  0  0  0  0  2  0  0  0  0  0  0
  190.2170  177.0790  137.1280 C   0  0  0  0  0  3  0  0  0  0  0  0
  189.0970  177.2760  137.8320 C   0  0  0  0  0  3  0  0  0  0  0  0
  189.9470  174.6090  137.1810 C   0  0  0  0  0  2  0  0  0  0  0  0
  189.8580  175.7470  135.0500 C   0  0  0  0  0  2  0  0  0  0  0  0
  190.5080  175.7870  136.4220 C   0  0  1  0  0  3  0  0  0  0  0  0
  189.1180  173.8520  136.1680 C   0  0  2  0  0  3  0  0  0  0  0  0
  188.7770  174.7710  135.0920 N   0  0  0  0  0  2  0  0  0  0  0  0
  186.8980  174.0830  136.9980 O   0  0  0  0  0  0  0  0  0  0  0  0
  187.7940  171.9800  137.1680 O   0  0  0  0  0  1  0  0  0  0  0  0
  187.8780  173.3190  136.8030 C   0  0  0  0  0  0  0  0  0  0  0  0
  184.8030  178.8780  139.8490 C   0  0  0  0  0  2  0  0  0  0  0  0
  183.0620  175.9740  137.8360 C   0  0  0  0  0  3  0  0  0  0  0  0
  184.3080  177.1030  137.7320 S   0  0  0  0  0  0  0  0  0  0  0  0
  184.0000  177.7910  139.2290 C   0  0  0  0  0  0  0  0  0  0  0  0
  182.4520  176.1850  139.0720 C   0  0  0  0  0  0  0  0  0  0  0  0
  181.3500  175.4020  139.5120 N   0  0  0  0  0  1  0  0  0  0  0  0
  182.9700  177.1780  139.8440 N   0  0  0  0  0  0  0  0  0  0  0  0
  1  6  1  0  0  0  0
  3  2  1  0  0  0  0
  4 18  1  6  0  0  0
  4  8  1  0  0  0  0
  4  7  1  0  0  0  0
  5 29  1  0  0  0  0
  5  7  1  0  0  0  0
  6  2  2  0  0  0  0
  6 15  1  0  0  0  0
  7  3  2  0  0  0  0
  8  1  2  0  0  0  0
  9 14  1  0  0  0  0
 11 13  2  0  0  0  0
 13 16  1  0  0  0  0
 13 12  1  0  0  0  0
 14 16  2  0  0  0  0
 15  9  2  0  0  0  0
 15 11  1  0  0  0  0
 16 10  1  0  0  0  0
 17  9  1  0  0  0  0
 19 20  2  0  0  0  0
 20 18  1  0  0  0  0
 22 25  1  0  0  0  0
 22 23  1  0  0  0  0
 23 19  1  1  0  0  0
 23 21  1  0  0  0  0
 24 28  1  1  0  0  0
 24 21  1  0  0  0  0
 25 24  1  0  0  0  0
 28 26  2  0  0  0  0
 28 27  1  0  0  0  0
 30 33  2  0  0  0  0
 31 30  1  0  0  0  0
 31 32  1  0  0  0  0
 32 35  2  0  0  0  0
 32 29  1  0  0  0  0
 33 34  1  0  0  0  0
 33 35  1  0  0  0  0
M  END
>  <MODEL>
6

>  <REMARK>
 VINA RESULT:      -7.7      2.057      2.370
  Name = 
  7 active torsions:
  status: ('A' for Active; 'I' for Inactive)
    1  A    between atoms: C_10  and  CA_25
    2  A    between atoms: C_11  and  C_13
    3  A    between atoms: C_11  and  C_20
    4  A    between atoms: C_15  and  C_19
    5  A    between atoms: C_16  and  C_24
    6  A    between atoms: N_17  and  C_19
    7  A    between atoms: C_22  and  C_31
                            x       y       z     vdW  Elec       q    Type
                         _______ _______ _______ _____ _____    ______ ____

>  <TORSDO>
F 7

$$$$
=
 OpenBabel11042410273D

 35 38  0  0  1  0  0  0  0  0999 V2000
  189.0490  176.9800  141.5580 N   0  0  0  0  0  0  0  0  0  0  0  0
  187.0450  178.2580  142.1180 C   0  0  0  0  0  3  0  0  0  0  0  0
  186.5080  178.3110  140.7850 N   0  0  0  0  0  0  0  0  0  0  0  0
  188.6730  178.4950  139.6840 C   0  0  1  0  0  3  0  0  0  0  0  0
  186.4710  178.3790  138.4250 N   0  0  0  0  0  2  0  0  0  0  0  0
  188.2180  177.7070  142.4830 C   0  0  0  0  0  0  0  0  0  0  0  0
  187.1770  178.3730  139.6710 C   0  0  0  0  0  0  0  0  0  0  0  0
  189.2610  177.2800  140.3150 C   0  0  0  0  0  3  0  0  0  0  0  0
  189.9050  177.3740  144.3820 C   0  0  0  0  0  0  0  0  0  0  0  0
  189.4720  177.5640  148.0190 N   0  0  0  0  0  1  0  0  0  0  0  0
  187.6230  177.8870  144.8430 N   0  0  0  0  0  0  0  0  0  0  0  0
  186.7570  178.1280  147.1330 C   0  0  0  0  0  1  0  0  0  0  0  0
  187.8710  177.8650  146.1780 C   0  0  0  0  0  0  0  0  0  0  0  0
  190.1460  177.3530  145.7190 N   0  0  0  0  0  0  0  0  0  0  0  0
  188.5980  177.6610  143.9190 C   0  0  0  0  0  0  0  0  0  0  0  0
  189.1680  177.5970  146.6270 C   0  0  0  0  0  0  0  0  0  0  0  0
  190.9690  177.0620  143.4870 N   0  0  0  0  0  1  0  0  0  0  0  0
  189.2570  178.7030  138.2880 C   0  0  0  0  0  2  0  0  0  0  0  0
  189.8000  176.8670  136.7330 C   0  0  0  0  0  3  0  0  0  0  0  0
  190.0750  177.5270  137.8630 C   0  0  0  0  0  3  0  0  0  0  0  0
  192.0620  176.0180  136.1490 C   0  0  0  0  0  2  0  0  0  0  0  0
  190.5200  174.5430  137.2850 C   0  0  0  0  0  2  0  0  0  0  0  0
  190.5970  175.6780  136.2790 C   0  0  1  0  0  3  0  0  0  0  0  0
  192.7790  174.9660  136.9640 C   0  0  2  0  0  3  0  0  0  0  0  0
  191.8270  174.4080  137.9130 N   0  0  0  0  0  2  0  0  0  0  0  0
  193.7330  176.3470  138.6540 O   0  0  0  0  0  1  0  0  0  0  0  0
  195.2390  175.2610  137.3090 O   0  0  0  0  0  0  0  0  0  0  0  0
  193.9370  175.5670  137.6880 C   0  0  0  0  0  0  0  0  0  0  0  0
  185.0210  178.2940  138.3450 C   0  0  0  0  0  2  0  0  0  0  0  0
  183.5280  175.3570  136.1850 C   0  0  0  0  0  3  0  0  0  0  0  0
  183.0880  176.7610  137.0070 S   0  0  0  0  0  0  0  0  0  0  0  0
  184.6360  177.0950  137.5540 C   0  0  0  0  0  0  0  0  0  0  0  0
  184.9020  175.2150  136.3730 C   0  0  0  0  0  0  0  0  0  0  0  0
  185.6310  174.1310  135.8100 N   0  0  0  0  0  1  0  0  0  0  0  0
  185.5170  176.1720  137.1190 N   0  0  0  0  0  0  0  0  0  0  0  0
  1  6  1  0  0  0  0
  2  6  2  0  0  0  0
  3  2  1  0  0  0  0
  4 18  1  6  0  0  0
  4  8  1  0  0  0  0
  5  7  1  0  0  0  0
  6 15  1  0  0  0  0
  7  4  1  0  0  0  0
  7  3  2  0  0  0  0
  8  1  2  0  0  0  0
  9 14  1  0  0  0  0
 11 13  2  0  0  0  0
 13 16  1  0  0  0  0
 13 12  1  0  0  0  0
 14 16  2  0  0  0  0
 15  9  2  0  0  0  0
 15 11  1  0  0  0  0
 16 10  1  0  0  0  0
 17  9  1  0  0  0  0
 19 20  2  0  0  0  0
 20 18  1  0  0  0  0
 21 23  1  0  0  0  0
 21 24  1  0  0  0  0
 22 25  1  0  0  0  0
 23 19  1  1  0  0  0
 23 22  1  0  0  0  0
 24 28  1  1  0  0  0
 24 25  1  0  0  0  0
 27 28  2  0  0  0  0
 28 26  1  0  0  0  0
 29  5  1  0  0  0  0
 30 33  2  0  0  0  0
 30 31  1  0  0  0  0
 31 32  1  0  0  0  0
 32 29  1  0  0  0  0
 33 35  1  0  0  0  0
 34 33  1  0  0  0  0
 35 32  2  0  0  0  0
M  END
>  <MODEL>
7

>  <REMARK>
 VINA RESULT:      -7.6      1.648      1.806
  Name = 
  7 active torsions:
  status: ('A' for Active; 'I' for Inactive)
    1  A    between atoms: C_10  and  CA_25
    2  A    between atoms: C_11  and  C_13
    3  A    between atoms: C_11  and  C_20
    4  A    between atoms: C_15  and  C_19
    5  A    between atoms: C_16  and  C_24
    6  A    between atoms: N_17  and  C_19
    7  A    between atoms: C_22  and  C_31
                            x       y       z     vdW  Elec       q    Type
                         _______ _______ _______ _____ _____    ______ ____

>  <TORSDO>
F 7

$$$$
=
 OpenBabel11042410273D

 35 38  0  0  1  0  0  0  0  0999 V2000
  185.3320  179.5180  141.5990 N   0  0  0  0  0  0  0  0  0  0  0  0
  184.8960  177.8780  143.3530 C   0  0  0  0  0  3  0  0  0  0  0  0
  186.2270  177.8630  143.8970 N   0  0  0  0  0  0  0  0  0  0  0  0
  187.3440  178.1470  141.7520 C   0  0  1  0  0  3  0  0  0  0  0  0
  188.5820  178.0160  143.9640 N   0  0  0  0  0  2  0  0  0  0  0  0
  184.4810  178.5790  142.2810 C   0  0  0  0  0  0  0  0  0  0  0  0
  187.3420  178.0200  143.2470 C   0  0  0  0  0  0  0  0  0  0  0  0
  186.5990  179.3770  141.3620 C   0  0  0  0  0  3  0  0  0  0  0  0
  182.5820  178.1020  140.6290 C   0  0  0  0  0  0  0  0  0  0  0  0
  178.9580  178.5570  140.9640 N   0  0  0  0  0  1  0  0  0  0  0  0
  182.1310  179.0020  142.7910 N   0  0  0  0  0  0  0  0  0  0  0  0
  179.8530  179.5210  143.5600 C   0  0  0  0  0  1  0  0  0  0  0  0
  180.8010  179.0170  142.5250 C   0  0  0  0  0  0  0  0  0  0  0  0
  181.2480  178.1200  140.3700 N   0  0  0  0  0  0  0  0  0  0  0  0
  183.0480  178.5500  141.8900 C   0  0  0  0  0  0  0  0  0  0  0  0
  180.3470  178.5580  141.2850 C   0  0  0  0  0  0  0  0  0  0  0  0
  183.4750  177.6740  139.6060 N   0  0  0  0  0  1  0  0  0  0  0  0
  188.7530  178.1740  141.1650 C   0  0  0  0  0  2  0  0  0  0  0  0
  188.6040  178.2950  138.7050 C   0  0  0  0  0  3  0  0  0  0  0  0
  188.7860  177.5550  139.8050 C   0  0  0  0  0  3  0  0  0  0  0  0
  189.8070  176.7860  137.1390 C   0  0  0  0  0  2  0  0  0  0  0  0
  187.3920  176.8560  137.0670 C   0  0  0  0  0  2  0  0  0  0  0  0
  188.6240  177.7050  137.3250 C   0  0  1  0  0  3  0  0  0  0  0  0
  189.2170  175.4890  136.6330 C   0  0  2  0  0  3  0  0  0  0  0  0
  187.8100  175.4620  137.0050 N   0  0  0  0  0  2  0  0  0  0  0  0
  189.4090  173.1790  137.1770 O   0  0  0  0  0  0  0  0  0  0  0  0
  191.1750  174.4900  137.8280 O   0  0  0  0  0  1  0  0  0  0  0  0
  189.9310  174.3230  137.2280 C   0  0  0  0  0  0  0  0  0  0  0  0
  188.6520  177.8660  145.4090 C   0  0  0  0  0  2  0  0  0  0  0  0
  192.0650  175.9490  145.8530 C   0  0  0  0  0  3  0  0  0  0  0  0
  190.9190  176.3750  144.6930 S   0  0  0  0  0  0  0  0  0  0  0  0
  189.9060  177.1560  145.7750 C   0  0  0  0  0  0  0  0  0  0  0  0
  191.5960  176.4590  147.0630 C   0  0  0  0  0  0  0  0  0  0  0  0
  192.3160  176.2960  148.2790 N   0  0  0  0  0  1  0  0  0  0  0  0
  190.4130  177.1300  147.0240 N   0  0  0  0  0  0  0  0  0  0  0  0
  1  6  1  0  0  0  0
  2  3  1  0  0  0  0
  4 18  1  1  0  0  0
  4  7  1  0  0  0  0
  5 29  1  0  0  0  0
  6  2  2  0  0  0  0
  7  3  2  0  0  0  0
  7  5  1  0  0  0  0
  8  1  2  0  0  0  0
  8  4  1  0  0  0  0
  9 15  1  0  0  0  0
 10 16  1  0  0  0  0
 13 11  1  0  0  0  0
 13 12  1  0  0  0  0
 14  9  2  0  0  0  0
 14 16  1  0  0  0  0
 15  6  1  0  0  0  0
 15 11  2  0  0  0  0
 16 13  2  0  0  0  0
 17  9  1  0  0  0  0
 19 20  2  0  0  0  0
 20 18  1  0  0  0  0
 21 23  1  0  0  0  0
 22 23  1  0  0  0  0
 23 19  1  1  0  0  0
 24 25  1  0  0  0  0
 24 21  1  0  0  0  0
 24 28  1  1  0  0  0
 25 22  1  0  0  0  0
 26 28  2  0  0  0  0
 28 27  1  0  0  0  0
 29 32  1  0  0  0  0
 30 33  2  0  0  0  0
 31 32  1  0  0  0  0
 31 30  1  0  0  0  0
 32 35  2  0  0  0  0
 33 34  1  0  0  0  0
 35 33  1  0  0  0  0
M  END
>  <MODEL>
8

>  <REMARK>
 VINA RESULT:      -7.5      3.008      7.602
  Name = 
  7 active torsions:
  status: ('A' for Active; 'I' for Inactive)
    1  A    between atoms: C_10  and  CA_25
    2  A    between atoms: C_11  and  C_13
    3  A    between atoms: C_11  and  C_20
    4  A    between atoms: C_15  and  C_19
    5  A    between atoms: C_16  and  C_24
    6  A    between atoms: N_17  and  C_19
    7  A    between atoms: C_22  and  C_31
                            x       y       z     vdW  Elec       q    Type
                         _______ _______ _______ _____ _____    ______ ____

>  <TORSDO>
F 7

$$$$
=
 OpenBabel11042410273D

 35 38  0  0  1  0  0  0  0  0999 V2000
  188.3000  177.0600  142.3390 N   0  0  0  0  0  0  0  0  0  0  0  0
  186.3210  178.4550  142.6460 C   0  0  0  0  0  3  0  0  0  0  0  0
  185.9700  178.5490  141.2550 N   0  0  0  0  0  0  0  0  0  0  0  0
  188.2690  178.6060  140.4520 C   0  0  1  0  0  3  0  0  0  0  0  0
  186.2520  178.6320  138.9110 N   0  0  0  0  0  2  0  0  0  0  0  0
  187.3990  177.8310  143.1550 C   0  0  0  0  0  0  0  0  0  0  0  0
  186.7840  178.5760  140.2400 C   0  0  0  0  0  0  0  0  0  0  0  0
  188.6940  177.3540  141.1390 C   0  0  0  0  0  3  0  0  0  0  0  0
  186.5810  178.1050  145.5670 C   0  0  0  0  0  0  0  0  0  0  0  0
  188.2890  177.4830  148.7520 N   0  0  0  0  0  1  0  0  0  0  0  0
  188.7910  177.3430  145.1010 N   0  0  0  0  0  0  0  0  0  0  0  0
  190.3980  176.7780  146.8750 C   0  0  0  0  0  1  0  0  0  0  0  0
  189.0540  177.2420  146.4280 C   0  0  0  0  0  0  0  0  0  0  0  0
  186.8510  178.0020  146.8950 N   0  0  0  0  0  0  0  0  0  0  0  0
  187.5810  177.7550  144.6280 C   0  0  0  0  0  0  0  0  0  0  0  0
  188.0560  177.5740  147.3490 C   0  0  0  0  0  0  0  0  0  0  0  0
  185.3100  178.6070  145.1620 N   0  0  0  0  0  1  0  0  0  0  0  0
  189.0460  178.7860  139.1500 C   0  0  0  0  0  2  0  0  0  0  0  0
  189.8670  177.3720  137.3020 C   0  0  0  0  0  3  0  0  0  0  0  0
  189.4320  177.4660  138.5630 C   0  0  0  0  0  3  0  0  0  0  0  0
  191.6810  176.0960  136.1820 C   0  0  0  0  0  2  0  0  0  0  0  0
  190.1910  174.9290  137.6860 C   0  0  0  0  0  2  0  0  0  0  0  0
  190.2560  176.0630  136.6790 C   0  0  1  0  0  3  0  0  0  0  0  0
  192.3380  174.8850  136.8050 C   0  0  2  0  0  3  0  0  0  0  0  0
  191.5540  174.5000  137.9690 N   0  0  0  0  0  2  0  0  0  0  0  0
  194.1730  176.3770  137.0880 O   0  0  0  0  0  0  0  0  0  0  0  0
  194.5640  174.2090  137.7260 O   0  0  0  0  0  1  0  0  0  0  0  0
  193.7390  175.2010  137.2080 C   0  0  0  0  0  0  0  0  0  0  0  0
  184.8230  178.6370  138.6390 C   0  0  0  0  0  2  0  0  0  0  0  0
  184.3120  175.6270  136.1480 C   0  0  0  0  0  3  0  0  0  0  0  0
  185.1670  177.0670  136.3380 S   0  0  0  0  0  0  0  0  0  0  0  0
  184.4710  177.4510  137.8130 C   0  0  0  0  0  0  0  0  0  0  0  0
  183.5080  175.5050  137.2810 C   0  0  0  0  0  0  0  0  0  0  0  0
  182.6410  174.3940  137.4730 N   0  0  0  0  0  1  0  0  0  0  0  0
  183.5980  176.5020  138.2020 N   0  0  0  0  0  0  0  0  0  0  0  0
  1  6  1  0  0  0  0
  2  6  2  0  0  0  0
  3  2  1  0  0  0  0
  4 18  1  6  0  0  0
  4  8  1  0  0  0  0
  5  7  1  0  0  0  0
  6 15  1  0  0  0  0
  7  4  1  0  0  0  0
  7  3  2  0  0  0  0
  8  1  2  0  0  0  0
  9 14  1  0  0  0  0
 11 13  2  0  0  0  0
 13 12  1  0  0  0  0
 13 16  1  0  0  0  0
 14 16  2  0  0  0  0
 15 11  1  0  0  0  0
 15  9  2  0  0  0  0
 16 10  1  0  0  0  0
 17  9  1  0  0  0  0
 19 20  2  0  0  0  0
 20 18  1  0  0  0  0
 21 23  1  0  0  0  0
 21 24  1  0  0  0  0
 22 25  1  0  0  0  0
 23 19  1  1  0  0  0
 23 22  1  0  0  0  0
 24 28  1  1  0  0  0
 24 25  1  0  0  0  0
 26 28  2  0  0  0  0
 28 27  1  0  0  0  0
 29  5  1  0  0  0  0
 30 31  1  0  0  0  0
 30 33  2  0  0  0  0
 31 32  1  0  0  0  0
 32 35  2  0  0  0  0
 32 29  1  0  0  0  0
 33 34  1  0  0  0  0
 33 35  1  0  0  0  0
M  END
>  <MODEL>
9

>  <REMARK>
 VINA RESULT:      -7.4      1.596      2.256
  Name = 
  7 active torsions:
  status: ('A' for Active; 'I' for Inactive)
    1  A    between atoms: C_10  and  CA_25
    2  A    between atoms: C_11  and  C_13
    3  A    between atoms: C_11  and  C_20
    4  A    between atoms: C_15  and  C_19
    5  A    between atoms: C_16  and  C_24
    6  A    between atoms: N_17  and  C_19
    7  A    between atoms: C_22  and  C_31
                            x       y       z     vdW  Elec       q    Type
                         _______ _______ _______ _____ _____    ______ ____

>  <TORSDO>
F 7

$$$$
