=
 OpenBabel11042410593D

 29 33  0  0  1  0  0  0  0  0999 V2000
  190.8960  177.1580  143.1930 C   0  0  1  0  0  0  0  0  0  0  0  0
  191.3720  176.3550  144.2380 C   0  0  0  0  0  0  0  0  0  0  0  0
  190.5700  176.6150  140.9690 C   0  0  0  0  0  0  0  0  0  0  0  0
  190.7300  177.1750  146.7610 C   0  0  0  0  0  0  0  0  0  0  0  0
  190.5790  177.5570  144.5000 C   0  0  0  0  0  0  0  0  0  0  0  0
  192.0170  177.8210  142.4080 C   0  0  0  0  0  2  0  0  0  0  0  0
  191.8820  175.5050  145.1700 C   0  0  0  0  0  3  0  0  0  0  0  0
  190.1430  176.1170  139.8910 O   0  0  0  0  0  0  0  0  0  0  0  0
  191.7620  177.3900  141.0440 N   0  0  0  0  0  0  0  0  0  0  0  0
  190.2140  178.0360  145.7190 C   0  0  0  0  0  3  0  0  0  0  0  0
  191.5240  175.9750  146.4820 C   0  0  0  0  0  3  0  0  0  0  0  0
  189.8950  176.4430  142.2850 C   0  0  2  0  0  3  0  0  0  0  0  0
  188.5440  177.1060  142.2960 C   0  0  0  0  0  0  0  0  0  0  0  0
  186.9540  178.7200  141.4220 C   0  0  0  0  0  3  0  0  0  0  0  0
  186.3710  177.3660  143.3410 C   0  0  0  0  0  3  0  0  0  0  0  0
  187.6260  176.7500  143.2880 C   0  0  0  0  0  3  0  0  0  0  0  0
  186.0220  178.3420  142.3970 C   0  0  0  0  0  0  0  0  0  0  0  0
  188.2050  178.1040  141.3690 C   0  0  0  0  0  3  0  0  0  0  0  0
  184.6400  179.8590  143.7080 N   0  0  0  0  0  2  0  0  0  0  0  0
  183.9440  178.5670  143.6440 C   0  0  0  0  0  2  0  0  0  0  0  0
  184.7010  179.0390  142.4830 C   0  0  2  0  0  3  0  0  0  0  0  0
  192.5550  177.8020  139.9000 C   0  0  0  0  0  2  0  0  0  0  0  0
  193.4840  176.8090  139.5900 O   0  0  0  0  0  0  0  0  0  0  0  0
  193.1600  176.4190  138.2880 C   0  0  0  0  0  2  0  0  0  0  0  0
  193.0860  174.1580  137.2350 C   0  0  0  0  0  1  0  0  0  0  0  0
  193.9730  175.1970  137.8970 C   0  0  0  0  0  2  0  0  0  0  0  0
  190.4770  177.4750  148.1030 O   0  0  0  0  0  0  0  0  0  0  0  0
  188.1090  177.4040  148.4470 C   0  0  0  0  0  1  0  0  0  0  0  0
  189.3630  178.2520  148.5260 C   0  0  0  0  0  2  0  0  0  0  0  0
  1  6  1  6  0  0  0
  1  2  1  0  0  0  0
  1  5  1  0  0  0  0
  2  5  2  0  0  0  0
  2  7  1  0  0  0  0
  3  9  1  0  0  0  0
  3 12  1  0  0  0  0
  4 27  1  0  0  0  0
  5 10  1  0  0  0  0
  7 11  2  0  0  0  0
  8  3  2  0  0  0  0
  9  6  1  0  0  0  0
 10  4  2  0  0  0  0
 11  4  1  0  0  0  0
 12 13  1  6  0  0  0
 12  1  1  0  0  0  0
 13 16  1  0  0  0  0
 14 17  2  0  0  0  0
 16 15  2  0  0  0  0
 17 15  1  0  0  0  0
 18 14  1  0  0  0  0
 18 13  2  0  0  0  0
 20 19  1  0  0  0  0
 21 17  1  1  0  0  0
 21 20  1  0  0  0  0
 21 19  1  0  0  0  0
 22  9  1  0  0  0  0
 23 22  1  0  0  0  0
 24 23  1  0  0  0  0
 25 26  1  0  0  0  0
 26 24  1  0  0  0  0
 27 29  1  0  0  0  0
 28 29  1  0  0  0  0
M  END
>  <MODEL>
1

>  <REMARK>
 VINA RESULT:      -7.6      0.000      0.000
  Name = 
  8 active torsions:
  status: ('A' for Active; 'I' for Inactive)
    1  A    between atoms: C_3  and  C_28
    2  A    between atoms: O_7  and  C_15
    3  A    between atoms: O_7  and  C_26
    4  A    between atoms: C_9  and  O_24
    5  A    between atoms: C_15  and  N_19
    6  A    between atoms: C_18  and  O_24
    7  A    between atoms: C_21  and  C_23
    8  A    between atoms: C_26  and  C_29
                            x       y       z     vdW  Elec       q    Type
                         _______ _______ _______ _____ _____    ______ ____

>  <TORSDO>
F 8

$$$$
=
 OpenBabel11042410593D

 29 33  0  0  1  0  0  0  0  0999 V2000
  185.1400  178.3080  142.4620 C   0  0  1  0  0  0  0  0  0  0  0  0
  185.1570  178.8630  143.7500 C   0  0  0  0  0  0  0  0  0  0  0  0
  184.5230  179.2890  140.4610 C   0  0  0  0  0  0  0  0  0  0  0  0
  186.7730  177.6170  145.5640 C   0  0  0  0  0  0  0  0  0  0  0  0
  185.9630  177.6880  143.4140 C   0  0  0  0  0  0  0  0  0  0  0  0
  183.7820  177.7350  142.0900 C   0  0  0  0  0  2  0  0  0  0  0  0
  185.0970  179.4810  144.9590 C   0  0  0  0  0  3  0  0  0  0  0  0
  184.4740  180.0120  139.4280 O   0  0  0  0  0  0  0  0  0  0  0  0
  183.4560  178.4370  140.8600 N   0  0  0  0  0  0  0  0  0  0  0  0
  186.7920  177.0090  144.2510 C   0  0  0  0  0  3  0  0  0  0  0  0
  185.9580  178.7930  145.8840 C   0  0  0  0  0  3  0  0  0  0  0  0
  185.6870  179.2490  141.3890 C   0  0  2  0  0  3  0  0  0  0  0  0
  186.9070  178.6870  140.7100 C   0  0  0  0  0  0  0  0  0  0  0  0
  189.2780  178.1620  140.6800 C   0  0  0  0  0  3  0  0  0  0  0  0
  187.9150  177.7160  138.7300 C   0  0  0  0  0  3  0  0  0  0  0  0
  186.7950  178.2220  139.3970 C   0  0  0  0  0  3  0  0  0  0  0  0
  189.1590  177.6680  139.3750 C   0  0  0  0  0  0  0  0  0  0  0  0
  188.1590  178.6650  141.3450 C   0  0  0  0  0  3  0  0  0  0  0  0
  190.6730  175.7880  139.0450 N   0  0  0  0  0  2  0  0  0  0  0  0
  191.4620  176.9050  139.5820 C   0  0  0  0  0  2  0  0  0  0  0  0
  190.3700  177.1760  138.6450 C   0  0  2  0  0  3  0  0  0  0  0  0
  182.2510  178.2000  140.0840 C   0  0  0  0  0  2  0  0  0  0  0  0
  181.3330  179.2240  140.3200 O   0  0  0  0  0  0  0  0  0  0  0  0
  180.4170  178.6740  141.2200 C   0  0  0  0  0  2  0  0  0  0  0  0
  180.5030  178.5570  143.7110 C   0  0  0  0  0  1  0  0  0  0  0  0
  180.4110  179.4790  142.5080 C   0  0  0  0  0  2  0  0  0  0  0  0
  187.5540  177.0830  146.5930 O   0  0  0  0  0  0  0  0  0  0  0  0
  188.6480  178.1770  148.4180 C   0  0  0  0  0  1  0  0  0  0  0  0
  188.7900  177.6550  147.0030 C   0  0  0  0  0  2  0  0  0  0  0  0
  1  6  1  6  0  0  0
  1  5  1  0  0  0  0
  1  2  1  0  0  0  0
  2  7  1  0  0  0  0
  3  9  1  0  0  0  0
  3 12  1  0  0  0  0
  4 11  1  0  0  0  0
  4 27  1  0  0  0  0
  5  2  2  0  0  0  0
  5 10  1  0  0  0  0
  7 11  2  0  0  0  0
  8  3  2  0  0  0  0
  9  6  1  0  0  0  0
 10  4  2  0  0  0  0
 12 13  1  6  0  0  0
 12  1  1  0  0  0  0
 13 18  1  0  0  0  0
 14 18  2  0  0  0  0
 15 17  2  0  0  0  0
 15 16  1  0  0  0  0
 16 13  2  0  0  0  0
 17 14  1  0  0  0  0
 19 20  1  0  0  0  0
 21 19  1  0  0  0  0
 21 17  1  1  0  0  0
 21 20  1  0  0  0  0
 22 23  1  0  0  0  0
 22  9  1  0  0  0  0
 23 24  1  0  0  0  0
 24 26  1  0  0  0  0
 26 25  1  0  0  0  0
 27 29  1  0  0  0  0
 29 28  1  0  0  0  0
M  END
>  <MODEL>
2

>  <REMARK>
 VINA RESULT:      -7.5      3.199      7.572
  Name = 
  8 active torsions:
  status: ('A' for Active; 'I' for Inactive)
    1  A    between atoms: C_3  and  C_28
    2  A    between atoms: O_7  and  C_15
    3  A    between atoms: O_7  and  C_26
    4  A    between atoms: C_9  and  O_24
    5  A    between atoms: C_15  and  N_19
    6  A    between atoms: C_18  and  O_24
    7  A    between atoms: C_21  and  C_23
    8  A    between atoms: C_26  and  C_29
                            x       y       z     vdW  Elec       q    Type
                         _______ _______ _______ _____ _____    ______ ____

>  <TORSDO>
F 8

$$$$
=
 OpenBabel11042410593D

 29 33  0  0  1  0  0  0  0  0999 V2000
  185.1350  178.3010  142.4500 C   0  0  1  0  0  0  0  0  0  0  0  0
  185.1470  178.8560  143.7370 C   0  0  0  0  0  0  0  0  0  0  0  0
  184.5270  179.2810  140.4460 C   0  0  0  0  0  0  0  0  0  0  0  0
  186.7550  177.6110  145.5580 C   0  0  0  0  0  0  0  0  0  0  0  0
  185.9540  177.6810  143.4050 C   0  0  0  0  0  0  0  0  0  0  0  0
  183.7790  177.7280  142.0720 C   0  0  0  0  0  2  0  0  0  0  0  0
  185.0820  179.4750  144.9460 C   0  0  0  0  0  3  0  0  0  0  0  0
  184.4820  180.0030  139.4120 O   0  0  0  0  0  0  0  0  0  0  0  0
  183.4580  178.4290  140.8400 N   0  0  0  0  0  0  0  0  0  0  0  0
  186.7800  177.0020  144.2450 C   0  0  0  0  0  3  0  0  0  0  0  0
  185.9390  178.7870  145.8740 C   0  0  0  0  0  3  0  0  0  0  0  0
  185.6870  179.2420  141.3780 C   0  0  2  0  0  3  0  0  0  0  0  0
  186.9100  178.6790  140.7050 C   0  0  0  0  0  0  0  0  0  0  0  0
  189.2820  178.1590  140.6820 C   0  0  0  0  0  3  0  0  0  0  0  0
  187.9250  177.7020  138.7310 C   0  0  0  0  0  3  0  0  0  0  0  0
  186.8020  178.2080  139.3930 C   0  0  0  0  0  3  0  0  0  0  0  0
  189.1670  177.6590  139.3790 C   0  0  0  0  0  0  0  0  0  0  0  0
  188.1600  178.6620  141.3420 C   0  0  0  0  0  3  0  0  0  0  0  0
  190.6920  175.7850  139.0690 N   0  0  0  0  0  2  0  0  0  0  0  0
  191.4750  176.9130  139.5940 C   0  0  0  0  0  2  0  0  0  0  0  0
  190.3810  177.1660  138.6540 C   0  0  2  0  0  3  0  0  0  0  0  0
  182.2560  178.1920  140.0600 C   0  0  0  0  0  2  0  0  0  0  0  0
  182.2060  176.8540  139.6710 O   0  0  0  0  0  0  0  0  0  0  0  0
  182.6580  176.8540  138.3500 C   0  0  0  0  0  2  0  0  0  0  0  0
  184.6950  176.0490  137.1530 C   0  0  0  0  0  1  0  0  0  0  0  0
  183.5860  175.6730  138.1190 C   0  0  0  0  0  2  0  0  0  0  0  0
  187.5320  177.0760  146.5900 O   0  0  0  0  0  0  0  0  0  0  0  0
  188.5110  178.1150  148.5110 C   0  0  0  0  0  1  0  0  0  0  0  0
  188.7180  177.7000  147.0690 C   0  0  0  0  0  2  0  0  0  0  0  0
  1  6  1  6  0  0  0
  1  5  1  0  0  0  0
  1  2  1  0  0  0  0
  2  7  1  0  0  0  0
  3  9  1  0  0  0  0
  3 12  1  0  0  0  0
  4 11  1  0  0  0  0
  4 27  1  0  0  0  0
  5  2  2  0  0  0  0
  5 10  1  0  0  0  0
  7 11  2  0  0  0  0
  8  3  2  0  0  0  0
  9  6  1  0  0  0  0
 10  4  2  0  0  0  0
 12 13  1  6  0  0  0
 12  1  1  0  0  0  0
 13 18  1  0  0  0  0
 14 18  2  0  0  0  0
 15 17  2  0  0  0  0
 15 16  1  0  0  0  0
 16 13  2  0  0  0  0
 17 14  1  0  0  0  0
 19 20  1  0  0  0  0
 21 19  1  0  0  0  0
 21 17  1  1  0  0  0
 21 20  1  0  0  0  0
 22  9  1  0  0  0  0
 23 22  1  0  0  0  0
 24 23  1  0  0  0  0
 25 26  1  0  0  0  0
 26 24  1  0  0  0  0
 27 29  1  0  0  0  0
 29 28  1  0  0  0  0
M  END
>  <MODEL>
3

>  <REMARK>
 VINA RESULT:      -7.2      3.226      6.721
  Name = 
  8 active torsions:
  status: ('A' for Active; 'I' for Inactive)
    1  A    between atoms: C_3  and  C_28
    2  A    between atoms: O_7  and  C_15
    3  A    between atoms: O_7  and  C_26
    4  A    between atoms: C_9  and  O_24
    5  A    between atoms: C_15  and  N_19
    6  A    between atoms: C_18  and  O_24
    7  A    between atoms: C_21  and  C_23
    8  A    between atoms: C_26  and  C_29
                            x       y       z     vdW  Elec       q    Type
                         _______ _______ _______ _____ _____    ______ ____

>  <TORSDO>
F 8

$$$$
=
 OpenBabel11042410593D

 29 33  0  0  1  0  0  0  0  0999 V2000
  189.0180  177.3240  141.4800 C   0  0  1  0  0  0  0  0  0  0  0  0
  188.0030  178.2900  141.4470 C   0  0  0  0  0  0  0  0  0  0  0  0
  191.1780  177.4500  140.6660 C   0  0  0  0  0  0  0  0  0  0  0  0
  186.0070  177.9880  143.2840 C   0  0  0  0  0  0  0  0  0  0  0  0
  187.9800  177.1920  142.4140 C   0  0  0  0  0  0  0  0  0  0  0  0
  189.0630  176.4800  140.2170 C   0  0  0  0  0  2  0  0  0  0  0  0
  187.0770  179.2790  141.3250 C   0  0  0  0  0  3  0  0  0  0  0  0
  192.3890  177.7520  140.4780 O   0  0  0  0  0  0  0  0  0  0  0  0
  190.4290  176.6560  139.7530 N   0  0  0  0  0  0  0  0  0  0  0  0
  187.0300  176.9670  143.3600 C   0  0  0  0  0  3  0  0  0  0  0  0
  186.0440  179.0800  142.3070 C   0  0  0  0  0  3  0  0  0  0  0  0
  190.3880  177.8950  141.8460 C   0  0  2  0  0  3  0  0  0  0  0  0
  190.9280  177.3010  143.1200 C   0  0  0  0  0  0  0  0  0  0  0  0
  191.8030  175.4290  144.3960 C   0  0  0  0  0  3  0  0  0  0  0  0
  191.4540  177.5690  145.4720 C   0  0  0  0  0  3  0  0  0  0  0  0
  190.9810  178.0970  144.2670 C   0  0  0  0  0  3  0  0  0  0  0  0
  191.8840  176.2360  145.5380 C   0  0  0  0  0  0  0  0  0  0  0  0
  191.3320  175.9580  143.1940 C   0  0  0  0  0  3  0  0  0  0  0  0
  191.1770  175.2970  147.6720 N   0  0  0  0  0  2  0  0  0  0  0  0
  191.9500  176.5140  147.9550 C   0  0  0  0  0  2  0  0  0  0  0  0
  192.3420  175.6530  146.8380 C   0  0  2  0  0  3  0  0  0  0  0  0
  190.9790  176.0030  138.5780 C   0  0  0  0  0  2  0  0  0  0  0  0
  190.9690  176.8890  137.5020 O   0  0  0  0  0  0  0  0  0  0  0  0
  189.7880  176.5960  136.8160 C   0  0  0  0  0  2  0  0  0  0  0  0
  188.9870  178.8980  137.3510 C   0  0  0  0  0  1  0  0  0  0  0  0
  189.1870  177.8710  136.2510 C   0  0  0  0  0  2  0  0  0  0  0  0
  184.9220  177.9570  144.1660 O   0  0  0  0  0  0  0  0  0  0  0  0
  185.6440  179.0230  146.1830 C   0  0  0  0  0  1  0  0  0  0  0  0
  184.6240  179.0200  145.0630 C   0  0  0  0  0  2  0  0  0  0  0  0
  1  6  1  6  0  0  0
  1 12  1  0  0  0  0
  1  5  1  0  0  0  0
  2  1  1  0  0  0  0
  2  5  1  0  0  0  0
  3 12  1  0  0  0  0
  4 10  1  0  0  0  0
  4 27  1  0  0  0  0
  5 10  2  0  0  0  0
  7  2  2  0  0  0  0
  7 11  1  0  0  0  0
  8  3  2  0  0  0  0
  9  6  1  0  0  0  0
  9  3  1  0  0  0  0
 11  4  2  0  0  0  0
 12 13  1  1  0  0  0
 13 18  2  0  0  0  0
 13 16  1  0  0  0  0
 14 17  2  0  0  0  0
 15 17  1  0  0  0  0
 16 15  2  0  0  0  0
 18 14  1  0  0  0  0
 19 20  1  0  0  0  0
 21 17  1  6  0  0  0
 21 19  1  0  0  0  0
 21 20  1  0  0  0  0
 22  9  1  0  0  0  0
 23 22  1  0  0  0  0
 24 23  1  0  0  0  0
 26 24  1  0  0  0  0
 26 25  1  0  0  0  0
 27 29  1  0  0  0  0
 29 28  1  0  0  0  0
M  END
>  <MODEL>
4

>  <REMARK>
 VINA RESULT:      -7.2      2.608      5.406
  Name = 
  8 active torsions:
  status: ('A' for Active; 'I' for Inactive)
    1  A    between atoms: C_3  and  C_28
    2  A    between atoms: O_7  and  C_15
    3  A    between atoms: O_7  and  C_26
    4  A    between atoms: C_9  and  O_24
    5  A    between atoms: C_15  and  N_19
    6  A    between atoms: C_18  and  O_24
    7  A    between atoms: C_21  and  C_23
    8  A    between atoms: C_26  and  C_29
                            x       y       z     vdW  Elec       q    Type
                         _______ _______ _______ _____ _____    ______ ____

>  <TORSDO>
F 8

$$$$
=
 OpenBabel11042410593D

 29 33  0  0  1  0  0  0  0  0999 V2000
  189.2250  177.5020  141.1060 C   0  0  1  0  0  0  0  0  0  0  0  0
  189.4320  176.8560  139.8800 C   0  0  0  0  0  0  0  0  0  0  0  0
  187.4840  177.2550  142.6080 C   0  0  0  0  0  0  0  0  0  0  0  0
  192.0030  176.8340  138.9630 C   0  0  0  0  0  0  0  0  0  0  0  0
  190.5370  177.4760  140.6130 C   0  0  0  0  0  0  0  0  0  0  0  0
  188.3500  178.7380  140.9750 C   0  0  0  0  0  2  0  0  0  0  0  0
  189.5180  176.2050  138.6890 C   0  0  0  0  0  3  0  0  0  0  0  0
  186.6770  176.8050  143.4670 O   0  0  0  0  0  0  0  0  0  0  0  0
  187.2680  178.4750  141.9090 N   0  0  0  0  0  0  0  0  0  0  0  0
  191.8420  177.5100  140.2320 C   0  0  0  0  0  3  0  0  0  0  0  0
  190.8850  176.2190  138.2410 C   0  0  0  0  0  3  0  0  0  0  0  0
  188.7420  176.5640  142.2130 C   0  0  2  0  0  3  0  0  0  0  0  0
  189.7120  176.4960  143.3620 C   0  0  0  0  0  0  0  0  0  0  0  0
  191.7050  175.5990  144.4190 C   0  0  0  0  0  3  0  0  0  0  0  0
  190.3210  177.1920  145.6040 C   0  0  0  0  0  3  0  0  0  0  0  0
  189.4530  177.2510  144.5100 C   0  0  0  0  0  3  0  0  0  0  0  0
  191.4610  176.3780  145.5580 C   0  0  0  0  0  0  0  0  0  0  0  0
  190.8390  175.6600  143.3270 C   0  0  0  0  0  3  0  0  0  0  0  0
  191.8370  175.2730  147.6960 N   0  0  0  0  0  2  0  0  0  0  0  0
  191.6700  176.7090  147.9600 C   0  0  0  0  0  2  0  0  0  0  0  0
  192.3640  176.2730  146.7470 C   0  0  2  0  0  3  0  0  0  0  0  0
  186.1810  179.4010  142.1750 C   0  0  0  0  0  2  0  0  0  0  0  0
  185.2300  179.3110  141.1600 O   0  0  0  0  0  0  0  0  0  0  0  0
  184.1690  178.6060  141.7340 C   0  0  0  0  0  2  0  0  0  0  0  0
  182.5600  179.0210  143.5970 C   0  0  0  0  0  1  0  0  0  0  0  0
  184.0240  178.9900  143.1970 C   0  0  0  0  0  2  0  0  0  0  0  0
  193.2680  176.7460  138.3740 O   0  0  0  0  0  0  0  0  0  0  0  0
  194.5080  174.7930  137.7620 C   0  0  0  0  0  1  0  0  0  0  0  0
  193.5580  175.8740  137.2880 C   0  0  0  0  0  2  0  0  0  0  0  0
  1  6  1  6  0  0  0
  1 12  1  0  0  0  0
  2  5  1  0  0  0  0
  2  1  1  0  0  0  0
  3  8  2  0  0  0  0
  4 10  1  0  0  0  0
  5  1  1  0  0  0  0
  6  9  1  0  0  0  0
  7  2  2  0  0  0  0
  9 22  1  0  0  0  0
  9  3  1  0  0  0  0
 10  5  2  0  0  0  0
 11  7  1  0  0  0  0
 11  4  2  0  0  0  0
 12  3  1  0  0  0  0
 12 13  1  1  0  0  0
 13 16  1  0  0  0  0
 14 17  2  0  0  0  0
 16 15  2  0  0  0  0
 17 15  1  0  0  0  0
 18 13  2  0  0  0  0
 18 14  1  0  0  0  0
 19 20  1  0  0  0  0
 21 17  1  6  0  0  0
 21 19  1  0  0  0  0
 21 20  1  0  0  0  0
 23 24  1  0  0  0  0
 23 22  1  0  0  0  0
 24 26  1  0  0  0  0
 26 25  1  0  0  0  0
 27  4  1  0  0  0  0
 29 28  1  0  0  0  0
 29 27  1  0  0  0  0
M  END
>  <MODEL>
5

>  <REMARK>
 VINA RESULT:      -6.9      2.353      7.598
  Name = 
  8 active torsions:
  status: ('A' for Active; 'I' for Inactive)
    1  A    between atoms: C_3  and  C_28
    2  A    between atoms: O_7  and  C_15
    3  A    between atoms: O_7  and  C_26
    4  A    between atoms: C_9  and  O_24
    5  A    between atoms: C_15  and  N_19
    6  A    between atoms: C_18  and  O_24
    7  A    between atoms: C_21  and  C_23
    8  A    between atoms: C_26  and  C_29
                            x       y       z     vdW  Elec       q    Type
                         _______ _______ _______ _____ _____    ______ ____

>  <TORSDO>
F 8

$$$$
=
 OpenBabel11042410593D

 29 33  0  0  1  0  0  0  0  0999 V2000
  189.3880  177.5650  141.4420 C   0  0  1  0  0  0  0  0  0  0  0  0
  189.9230  178.1430  142.6020 C   0  0  0  0  0  0  0  0  0  0  0  0
  188.7680  178.5810  139.4600 C   0  0  0  0  0  0  0  0  0  0  0  0
  191.2810  176.4530  144.2600 C   0  0  0  0  0  0  0  0  0  0  0  0
  190.0920  176.7180  142.3110 C   0  0  0  0  0  0  0  0  0  0  0  0
  187.8690  177.5980  141.4200 C   0  0  0  0  0  2  0  0  0  0  0  0
  190.3980  178.8070  143.6900 C   0  0  0  0  0  3  0  0  0  0  0  0
  188.7720  179.1870  138.3530 O   0  0  0  0  0  0  0  0  0  0  0  0
  187.5740  178.2890  140.1770 N   0  0  0  0  0  0  0  0  0  0  0  0
  190.7510  175.8090  143.0780 C   0  0  0  0  0  3  0  0  0  0  0  0
  191.1020  177.8810  144.5360 C   0  0  0  0  0  3  0  0  0  0  0  0
  190.0000  178.1130  140.1530 C   0  0  2  0  0  3  0  0  0  0  0  0
  190.7010  177.0440  139.3580 C   0  0  0  0  0  0  0  0  0  0  0  0
  192.7190  176.0140  138.4880 C   0  0  0  0  0  3  0  0  0  0  0  0
  190.5520  175.1110  137.9020 C   0  0  0  0  0  3  0  0  0  0  0  0
  189.9320  176.1020  138.6690 C   0  0  0  0  0  3  0  0  0  0  0  0
  191.9500  175.0510  137.8210 C   0  0  0  0  0  0  0  0  0  0  0  0
  192.1000  177.0010  139.2540 C   0  0  0  0  0  3  0  0  0  0  0  0
  192.4220  174.3560  135.5350 N   0  0  0  0  0  2  0  0  0  0  0  0
  191.6220  173.2970  136.1660 C   0  0  0  0  0  2  0  0  0  0  0  0
  192.6150  174.0230  136.9590 C   0  0  2  0  0  3  0  0  0  0  0  0
  186.2300  178.5340  139.6820 C   0  0  0  0  0  2  0  0  0  0  0  0
  185.5850  179.4500  140.5130 O   0  0  0  0  0  0  0  0  0  0  0  0
  184.3190  178.8980  140.7260 C   0  0  0  0  0  2  0  0  0  0  0  0
  184.6710  179.0350  143.1930 C   0  0  0  0  0  1  0  0  0  0  0  0
  184.3040  178.1260  142.0340 C   0  0  0  0  0  2  0  0  0  0  0  0
  192.0000  175.7060  145.1990 O   0  0  0  0  0  0  0  0  0  0  0  0
  190.6980  176.1960  147.1470 C   0  0  0  0  0  1  0  0  0  0  0  0
  192.0940  176.0720  146.5710 C   0  0  0  0  0  2  0  0  0  0  0  0
  1  6  1  6  0  0  0
  1  5  1  0  0  0  0
  1  2  1  0  0  0  0
  2  7  1  0  0  0  0
  3 12  1  0  0  0  0
  3  9  1  0  0  0  0
  4 11  1  0  0  0  0
  4 27  1  0  0  0  0
  5  2  2  0  0  0  0
  5 10  1  0  0  0  0
  7 11  2  0  0  0  0
  8  3  2  0  0  0  0
  9  6  1  0  0  0  0
 10  4  2  0  0  0  0
 12 13  1  6  0  0  0
 12  1  1  0  0  0  0
 14 18  2  0  0  0  0
 15 16  1  0  0  0  0
 16 13  2  0  0  0  0
 17 15  2  0  0  0  0
 17 14  1  0  0  0  0
 18 13  1  0  0  0  0
 19 20  1  0  0  0  0
 19 21  1  0  0  0  0
 20 21  1  0  0  0  0
 21 17  1  1  0  0  0
 22  9  1  0  0  0  0
 22 23  1  0  0  0  0
 23 24  1  0  0  0  0
 24 26  1  0  0  0  0
 26 25  1  0  0  0  0
 27 29  1  0  0  0  0
 29 28  1  0  0  0  0
M  END
>  <MODEL>
6

>  <REMARK>
 VINA RESULT:      -6.9      2.422      6.611
  Name = 
  8 active torsions:
  status: ('A' for Active; 'I' for Inactive)
    1  A    between atoms: C_3  and  C_28
    2  A    between atoms: O_7  and  C_15
    3  A    between atoms: O_7  and  C_26
    4  A    between atoms: C_9  and  O_24
    5  A    between atoms: C_15  and  N_19
    6  A    between atoms: C_18  and  O_24
    7  A    between atoms: C_21  and  C_23
    8  A    between atoms: C_26  and  C_29
                            x       y       z     vdW  Elec       q    Type
                         _______ _______ _______ _____ _____    ______ ____

>  <TORSDO>
F 8

$$$$
=
 OpenBabel11042410593D

 29 33  0  0  1  0  0  0  0  0999 V2000
  190.8310  176.7920  143.4030 C   0  0  1  0  0  0  0  0  0  0  0  0
  191.5510  175.8630  144.1670 C   0  0  0  0  0  0  0  0  0  0  0  0
  189.7790  176.4970  141.3650 C   0  0  0  0  0  0  0  0  0  0  0  0
  191.8030  176.4460  146.8220 C   0  0  0  0  0  0  0  0  0  0  0  0
  190.9750  177.0660  144.7700 C   0  0  0  0  0  0  0  0  0  0  0  0
  191.6920  177.4810  142.3570 C   0  0  0  0  0  2  0  0  0  0  0  0
  192.2640  174.9000  144.8110 C   0  0  0  0  0  3  0  0  0  0  0  0
  188.9960  176.1330  140.4440 O   0  0  0  0  0  0  0  0  0  0  0  0
  190.9870  177.2050  141.1170 N   0  0  0  0  0  0  0  0  0  0  0  0
  191.0510  177.4320  146.0780 C   0  0  0  0  0  3  0  0  0  0  0  0
  192.3750  175.2470  146.2020 C   0  0  0  0  0  3  0  0  0  0  0  0
  189.5430  176.2190  142.8080 C   0  0  2  0  0  3  0  0  0  0  0  0
  188.3190  176.9380  143.3100 C   0  0  0  0  0  0  0  0  0  0  0  0
  186.4840  178.4970  142.9960 C   0  0  0  0  0  3  0  0  0  0  0  0
  186.8050  177.4220  145.1410 C   0  0  0  0  0  3  0  0  0  0  0  0
  187.9230  176.7510  144.6370 C   0  0  0  0  0  3  0  0  0  0  0  0
  186.0690  178.2860  144.3180 C   0  0  0  0  0  0  0  0  0  0  0  0
  187.5990  177.8250  142.4940 C   0  0  0  0  0  3  0  0  0  0  0  0
  183.6430  178.4980  144.3330 N   0  0  0  0  0  2  0  0  0  0  0  0
  184.1960  179.7510  143.7990 C   0  0  0  0  0  2  0  0  0  0  0  0
  184.9030  179.0460  144.8690 C   0  0  2  0  0  3  0  0  0  0  0  0
  191.4060  177.6980  139.8170 C   0  0  0  0  0  2  0  0  0  0  0  0
  192.6050  177.0870  139.4480 O   0  0  0  0  0  0  0  0  0  0  0  0
  192.2530  176.2250  138.4060 C   0  0  0  0  0  2  0  0  0  0  0  0
  190.2140  175.6110  137.1050 C   0  0  0  0  0  1  0  0  0  0  0  0
  191.0230  176.7550  137.6890 C   0  0  0  0  0  2  0  0  0  0  0  0
  192.0120  176.6160  148.1950 O   0  0  0  0  0  0  0  0  0  0  0  0
  193.5570  177.0470  149.9700 C   0  0  0  0  0  1  0  0  0  0  0  0
  193.1400  176.0840  148.8780 C   0  0  0  0  0  2  0  0  0  0  0  0
  1  6  1  6  0  0  0
  1  2  1  0  0  0  0
  1  5  1  0  0  0  0
  2  5  2  0  0  0  0
  2  7  1  0  0  0  0
  3 12  1  0  0  0  0
  4 27  1  0  0  0  0
  5 10  1  0  0  0  0
  7 11  2  0  0  0  0
  8  3  2  0  0  0  0
  9  3  1  0  0  0  0
  9  6  1  0  0  0  0
 10  4  2  0  0  0  0
 11  4  1  0  0  0  0
 12 13  1  1  0  0  0
 12  1  1  0  0  0  0
 13 16  1  0  0  0  0
 14 17  2  0  0  0  0
 16 15  2  0  0  0  0
 17 15  1  0  0  0  0
 18 14  1  0  0  0  0
 18 13  2  0  0  0  0
 19 21  1  0  0  0  0
 20 19  1  0  0  0  0
 20 21  1  0  0  0  0
 21 17  1  6  0  0  0
 22  9  1  0  0  0  0
 23 22  1  0  0  0  0
 24 23  1  0  0  0  0
 25 26  1  0  0  0  0
 26 24  1  0  0  0  0
 27 29  1  0  0  0  0
 29 28  1  0  0  0  0
M  END
>  <MODEL>
7

>  <REMARK>
 VINA RESULT:      -6.5      1.579      1.979
  Name = 
  8 active torsions:
  status: ('A' for Active; 'I' for Inactive)
    1  A    between atoms: C_3  and  C_28
    2  A    between atoms: O_7  and  C_15
    3  A    between atoms: O_7  and  C_26
    4  A    between atoms: C_9  and  O_24
    5  A    between atoms: C_15  and  N_19
    6  A    between atoms: C_18  and  O_24
    7  A    between atoms: C_21  and  C_23
    8  A    between atoms: C_26  and  C_29
                            x       y       z     vdW  Elec       q    Type
                         _______ _______ _______ _____ _____    ______ ____

>  <TORSDO>
F 8

$$$$
=
 OpenBabel11042410593D

 29 33  0  0  1  0  0  0  0  0999 V2000
  190.1690  177.0630  140.1790 C   0  0  1  0  0  0  0  0  0  0  0  0
  191.5260  177.4080  140.2440 C   0  0  0  0  0  0  0  0  0  0  0  0
  188.3300  178.2340  140.9490 C   0  0  0  0  0  0  0  0  0  0  0  0
  193.1600  176.1630  138.4460 C   0  0  0  0  0  0  0  0  0  0  0  0
  191.0310  176.4380  139.2650 C   0  0  0  0  0  0  0  0  0  0  0  0
  189.6860  176.3510  141.4320 C   0  0  0  0  0  2  0  0  0  0  0  0
  192.8150  177.8150  140.3950 C   0  0  0  0  0  3  0  0  0  0  0  0
  187.4190  179.0910  141.1140 O   0  0  0  0  0  0  0  0  0  0  0  0
  188.5720  177.1760  141.8680 N   0  0  0  0  0  0  0  0  0  0  0  0
  191.7710  175.7750  138.3370 C   0  0  0  0  0  3  0  0  0  0  0  0
  193.6400  177.1340  139.4330 C   0  0  0  0  0  3  0  0  0  0  0  0
  189.2640  178.2320  139.7900 C   0  0  2  0  0  3  0  0  0  0  0  0
  188.5320  177.9780  138.4990 C   0  0  0  0  0  0  0  0  0  0  0  0
  187.0270  176.6560  137.1270 C   0  0  0  0  0  3  0  0  0  0  0  0
  188.1130  178.6080  136.1950 C   0  0  0  0  0  3  0  0  0  0  0  0
  188.7580  178.8310  137.4150 C   0  0  0  0  0  3  0  0  0  0  0  0
  187.2300  177.5290  136.0500 C   0  0  0  0  0  0  0  0  0  0  0  0
  187.6700  176.8810  138.3440 C   0  0  0  0  0  3  0  0  0  0  0  0
  185.1140  177.3850  134.8520 N   0  0  0  0  0  2  0  0  0  0  0  0
  185.7430  176.0580  134.8050 C   0  0  0  0  0  2  0  0  0  0  0  0
  186.5790  177.2570  134.7300 C   0  0  2  0  0  3  0  0  0  0  0  0
  187.7440  176.8780  143.0240 C   0  0  0  0  0  2  0  0  0  0  0  0
  188.5570  176.5810  144.1180 O   0  0  0  0  0  0  0  0  0  0  0  0
  188.8520  177.8230  144.6840 C   0  0  0  0  0  2  0  0  0  0  0  0
  190.9220  178.9770  143.8990 C   0  0  0  0  0  1  0  0  0  0  0  0
  190.3530  177.9620  144.8740 C   0  0  0  0  0  2  0  0  0  0  0  0
  194.1110  175.6030  137.5870 O   0  0  0  0  0  0  0  0  0  0  0  0
  194.3630  173.2460  137.2550 C   0  0  0  0  0  1  0  0  0  0  0  0
  194.9100  174.4810  137.9420 C   0  0  0  0  0  2  0  0  0  0  0  0
  1  2  1  0  0  0  0
  1  6  1  1  0  0  0
  2  7  1  0  0  0  0
  3  8  2  0  0  0  0
  3  9  1  0  0  0  0
  4 11  1  0  0  0  0
  5  1  1  0  0  0  0
  5  2  2  0  0  0  0
  6  9  1  0  0  0  0
  9 22  1  0  0  0  0
 10  4  2  0  0  0  0
 10  5  1  0  0  0  0
 11  7  2  0  0  0  0
 12 13  1  6  0  0  0
 12  1  1  0  0  0  0
 12  3  1  0  0  0  0
 14 18  2  0  0  0  0
 15 16  1  0  0  0  0
 16 13  2  0  0  0  0
 17 15  2  0  0  0  0
 17 14  1  0  0  0  0
 18 13  1  0  0  0  0
 20 19  1  0  0  0  0
 21 20  1  0  0  0  0
 21 19  1  0  0  0  0
 21 17  1  1  0  0  0
 22 23  1  0  0  0  0
 23 24  1  0  0  0  0
 24 26  1  0  0  0  0
 25 26  1  0  0  0  0
 27 29  1  0  0  0  0
 27  4  1  0  0  0  0
 28 29  1  0  0  0  0
M  END
>  <MODEL>
8

>  <REMARK>
 VINA RESULT:      -6.4      3.597      7.208
  Name = 
  8 active torsions:
  status: ('A' for Active; 'I' for Inactive)
    1  A    between atoms: C_3  and  C_28
    2  A    between atoms: O_7  and  C_15
    3  A    between atoms: O_7  and  C_26
    4  A    between atoms: C_9  and  O_24
    5  A    between atoms: C_15  and  N_19
    6  A    between atoms: C_18  and  O_24
    7  A    between atoms: C_21  and  C_23
    8  A    between atoms: C_26  and  C_29
                            x       y       z     vdW  Elec       q    Type
                         _______ _______ _______ _____ _____    ______ ____

>  <TORSDO>
F 8

$$$$
=
 OpenBabel11042410593D

 29 33  0  0  1  0  0  0  0  0999 V2000
  188.6130  177.6120  142.0680 C   0  0  1  0  0  0  0  0  0  0  0  0
  187.6170  178.5800  141.8840 C   0  0  0  0  0  0  0  0  0  0  0  0
  190.8670  177.7240  141.5620 C   0  0  0  0  0  0  0  0  0  0  0  0
  185.3830  178.3020  143.4270 C   0  0  0  0  0  0  0  0  0  0  0  0
  187.4550  177.4920  142.8490 C   0  0  0  0  0  0  0  0  0  0  0  0
  188.8310  176.7550  140.8310 C   0  0  0  0  0  2  0  0  0  0  0  0
  186.7210  179.5700  141.6250 C   0  0  0  0  0  3  0  0  0  0  0  0
  192.0930  178.0210  141.5420 O   0  0  0  0  0  0  0  0  0  0  0  0
  190.2490  176.9230  140.5610 N   0  0  0  0  0  0  0  0  0  0  0  0
  186.3810  177.2790  143.6560 C   0  0  0  0  0  3  0  0  0  0  0  0
  185.5610  179.3840  142.4550 C   0  0  0  0  0  3  0  0  0  0  0  0
  189.9220  178.1830  142.6160 C   0  0  2  0  0  3  0  0  0  0  0  0
  190.2760  177.6000  143.9580 C   0  0  0  0  0  0  0  0  0  0  0  0
  190.0570  177.5260  146.3750 C   0  0  0  0  0  3  0  0  0  0  0  0
  191.6220  176.0570  145.2580 C   0  0  0  0  0  3  0  0  0  0  0  0
  191.2520  176.6010  144.0240 C   0  0  0  0  0  3  0  0  0  0  0  0
  191.0130  176.5050  146.4380 C   0  0  0  0  0  0  0  0  0  0  0  0
  189.6880  178.0680  145.1430 C   0  0  0  0  0  3  0  0  0  0  0  0
  192.4230  176.8690  148.3910 N   0  0  0  0  0  2  0  0  0  0  0  0
  192.8700  175.6270  147.7460 C   0  0  0  0  0  2  0  0  0  0  0  0
  191.4440  175.9600  147.7650 C   0  0  2  0  0  3  0  0  0  0  0  0
  190.9550  176.2570  139.4810 C   0  0  0  0  0  2  0  0  0  0  0  0
  190.8690  177.0250  138.3200 O   0  0  0  0  0  0  0  0  0  0  0  0
  191.1170  176.1230  137.2830 C   0  0  0  0  0  2  0  0  0  0  0  0
  192.8820  175.2910  135.7270 C   0  0  0  0  0  1  0  0  0  0  0  0
  192.6110  176.0230  137.0300 C   0  0  0  0  0  2  0  0  0  0  0  0
  184.1860  178.2830  144.1490 O   0  0  0  0  0  0  0  0  0  0  0  0
  181.9260  178.9850  143.7910 C   0  0  0  0  0  1  0  0  0  0  0  0
  183.3140  179.4030  144.2320 C   0  0  0  0  0  2  0  0  0  0  0  0
  1  6  1  6  0  0  0
  1 12  1  0  0  0  0
  1  5  1  0  0  0  0
  2  1  1  0  0  0  0
  2  5  1  0  0  0  0
  3 12  1  0  0  0  0
  4 10  1  0  0  0  0
  4 27  1  0  0  0  0
  5 10  2  0  0  0  0
  7  2  2  0  0  0  0
  7 11  1  0  0  0  0
  8  3  2  0  0  0  0
  9  6  1  0  0  0  0
  9  3  1  0  0  0  0
 11  4  2  0  0  0  0
 12 13  1  1  0  0  0
 13 16  2  0  0  0  0
 13 18  1  0  0  0  0
 14 17  1  0  0  0  0
 15 17  2  0  0  0  0
 16 15  1  0  0  0  0
 18 14  2  0  0  0  0
 20 21  1  0  0  0  0
 20 19  1  0  0  0  0
 21 17  1  6  0  0  0
 21 19  1  0  0  0  0
 22  9  1  0  0  0  0
 23 22  1  0  0  0  0
 24 23  1  0  0  0  0
 25 26  1  0  0  0  0
 26 24  1  0  0  0  0
 27 29  1  0  0  0  0
 28 29  1  0  0  0  0
M  END
>  <MODEL>
9

>  <REMARK>
 VINA RESULT:      -6.3      2.369      5.521
  Name = 
  8 active torsions:
  status: ('A' for Active; 'I' for Inactive)
    1  A    between atoms: C_3  and  C_28
    2  A    between atoms: O_7  and  C_15
    3  A    between atoms: O_7  and  C_26
    4  A    between atoms: C_9  and  O_24
    5  A    between atoms: C_15  and  N_19
    6  A    between atoms: C_18  and  O_24
    7  A    between atoms: C_21  and  C_23
    8  A    between atoms: C_26  and  C_29
                            x       y       z     vdW  Elec       q    Type
                         _______ _______ _______ _____ _____    ______ ____

>  <TORSDO>
F 8

$$$$
