=
 OpenBabel11042409493D

 33 37  0  0  1  0  0  0  0  0999 V2000
  191.4870  177.4730  141.3960 C   0  0  0  0  0  3  0  0  0  0  0  0
  189.4760  177.1900  140.0520 C   0  0  0  0  0  3  0  0  0  0  0  0
  191.1530  176.3490  136.9790 C   0  0  0  0  0  3  0  0  0  0  0  0
  190.0780  177.4910  141.2840 C   0  0  0  0  0  0  0  0  0  0  0  0
  189.9690  176.5540  137.6820 C   0  0  0  0  0  0  0  0  0  0  0  0
  190.3090  176.8790  138.9770 C   0  0  0  0  0  0  0  0  0  0  0  0
  191.6420  176.8710  139.1140 N   0  0  0  0  0  0  0  0  0  0  0  0
  192.1650  176.5520  137.9170 C   0  0  0  0  0  0  0  0  0  0  0  0
  192.2730  177.1570  140.2810 C   0  0  0  0  0  3  0  0  0  0  0  0
  193.5750  176.4550  137.6770 N   0  0  0  0  0  2  0  0  0  0  0  0
  194.9660  172.9900  137.3590 C   0  0  0  0  0  3  0  0  0  0  0  0
  196.1430  173.9420  137.1830 C   0  0  0  0  0  3  0  0  0  0  0  0
  195.5930  175.2770  137.3080 N   0  0  0  0  0  0  0  0  0  0  0  0
  194.3270  175.2460  137.5220 C   0  0  0  0  0  0  0  0  0  0  0  0
  193.7530  173.8800  137.5860 C   0  0  0  0  0  2  0  0  0  0  0  0
  188.5700  175.6480  143.0080 O   0  0  0  0  0  0  0  0  0  0  0  0
  188.5080  176.8890  143.2250 C   0  0  0  0  0  0  0  0  0  0  0  0
  189.2350  177.8120  142.3980 N   0  0  0  0  0  2  0  0  0  0  0  0
  187.6850  177.3970  144.3360 C   0  0  0  0  0  0  0  0  0  0  0  0
  187.4260  177.9170  146.6600 N   0  0  0  0  0  0  0  0  0  0  0  0
  188.1950  177.4470  145.6400 C   0  0  0  0  0  3  0  0  0  0  0  0
  185.6040  178.3170  145.1710 C   0  0  0  0  0  3  0  0  0  0  0  0
  185.4180  178.8100  147.4920 F   0  0  0  0  0  0  0  0  0  0  0  0
  186.1540  178.3480  146.4530 C   0  0  0  0  0  0  0  0  0  0  0  0
  186.3760  177.8380  144.1110 C   0  0  0  0  0  3  0  0  0  0  0  0
  188.5950  176.4980  137.1060 C   0  0  0  0  0  2  0  0  0  0  0  0
  188.3710  177.6840  136.1890 C   0  0  0  0  0  2  0  0  0  0  0  0
  187.2570  178.5490  136.7450 C   0  0  0  0  0  2  0  0  0  0  0  0
  185.1000  177.6110  137.4780 C   0  0  0  0  0  3  0  0  0  0  0  0
  186.5310  177.8150  137.8590 C   0  0  2  0  0  3  0  0  0  0  0  0
  185.2050  178.9180  139.2960 N   0  0  0  0  0  0  0  0  0  0  0  0
  184.3630  178.2760  138.3530 C   0  0  0  0  0  3  0  0  0  0  0  0
  186.4190  178.6700  139.0320 N   0  0  0  0  0  0  0  0  0  0  0  0
  2  4  2  0  0  0  0
  3  5  1  0  0  0  0
  3  8  2  0  0  0  0
  4  1  1  0  0  0  0
  4 18  1  0  0  0  0
  5  6  2  0  0  0  0
  6  7  1  0  0  0  0
  6  2  1  0  0  0  0
  7  9  1  0  0  0  0
  8  7  1  0  0  0  0
  9  1  2  0  0  0  0
 10  8  1  0  0  0  0
 11 15  1  0  0  0  0
 12 13  1  0  0  0  0
 12 11  2  0  0  0  0
 13 14  2  0  0  0  0
 14 15  1  0  0  0  0
 14 10  1  0  0  0  0
 16 17  2  0  0  0  0
 17 19  1  0  0  0  0
 18 17  1  0  0  0  0
 19 21  1  0  0  0  0
 21 20  2  0  0  0  0
 22 24  2  0  0  0  0
 24 20  1  0  0  0  0
 24 23  1  0  0  0  0
 25 19  2  0  0  0  0
 25 22  1  0  0  0  0
 26  5  1  0  0  0  0
 27 28  1  0  0  0  0
 27 26  1  0  0  0  0
 29 30  1  0  0  0  0
 29 32  2  0  0  0  0
 30 28  1  6  0  0  0
 30 33  1  0  0  0  0
 32 31  1  0  0  0  0
 33 31  2  0  0  0  0
M  END
>  <MODEL>
1

>  <REMARK>
 VINA RESULT:      -8.7      0.000      0.000
  Name = 
  7 active torsions:
  status: ('A' for Active; 'I' for Inactive)
    1  A    between atoms: C_3  and  C_12
    2  A    between atoms: N_4  and  C_32
    3  A    between atoms: C_5  and  C_25
    4  A    between atoms: C_19  and  N_27
    5  A    between atoms: C_21  and  C_31
    6  A    between atoms: C_25  and  C_30
    7  A    between atoms: C_30  and  C_31
                            x       y       z     vdW  Elec       q    Type
                         _______ _______ _______ _____ _____    ______ ____

>  <TORSDO>
F 7

$$$$
=
 OpenBabel11042409493D

 33 37  0  0  1  0  0  0  0  0999 V2000
  189.4360  177.5140  138.9230 C   0  0  0  0  0  3  0  0  0  0  0  0
  190.6680  177.1600  140.9940 C   0  0  0  0  0  3  0  0  0  0  0  0
  187.9610  177.9730  143.2250 C   0  0  0  0  0  3  0  0  0  0  0  0
  190.6330  177.1670  139.5900 C   0  0  0  0  0  0  0  0  0  0  0  0
  189.2800  177.5690  143.0370 C   0  0  0  0  0  0  0  0  0  0  0  0
  189.5010  177.5000  141.6780 C   0  0  0  0  0  0  0  0  0  0  0  0
  188.3810  177.8260  141.0170 N   0  0  0  0  0  0  0  0  0  0  0  0
  187.4430  178.1120  141.9380 C   0  0  0  0  0  0  0  0  0  0  0  0
  188.2950  177.8490  139.6630 C   0  0  0  0  0  3  0  0  0  0  0  0
  186.1090  178.5130  141.5990 N   0  0  0  0  0  2  0  0  0  0  0  0
  183.6560  178.6570  144.4290 C   0  0  0  0  0  3  0  0  0  0  0  0
  182.8910  179.0700  143.1760 C   0  0  0  0  0  3  0  0  0  0  0  0
  183.8490  179.0100  142.0910 N   0  0  0  0  0  0  0  0  0  0  0  0
  185.0070  178.6400  142.5050 C   0  0  0  0  0  0  0  0  0  0  0  0
  185.0750  178.3710  143.9620 C   0  0  0  0  0  2  0  0  0  0  0  0
  191.2040  174.6900  138.1120 O   0  0  0  0  0  0  0  0  0  0  0  0
  192.0780  175.6000  138.1590 C   0  0  0  0  0  0  0  0  0  0  0  0
  191.8240  176.8190  138.8740 N   0  0  0  0  0  2  0  0  0  0  0  0
  193.3670  175.4100  137.4730 C   0  0  0  0  0  0  0  0  0  0  0  0
  195.0090  176.1510  135.8940 N   0  0  0  0  0  0  0  0  0  0  0  0
  193.8160  176.3360  136.5230 C   0  0  0  0  0  3  0  0  0  0  0  0
  195.3900  174.1270  137.1010 C   0  0  0  0  0  3  0  0  0  0  0  0
  196.9780  174.9240  135.5170 F   0  0  0  0  0  0  0  0  0  0  0  0
  195.7960  175.0760  136.1610 C   0  0  0  0  0  0  0  0  0  0  0  0
  194.1690  174.2980  137.7570 C   0  0  0  0  0  3  0  0  0  0  0  0
  190.2790  177.3300  144.1170 C   0  0  0  0  0  2  0  0  0  0  0  0
  189.8140  177.9820  145.4040 C   0  0  0  0  0  2  0  0  0  0  0  0
  190.1660  177.0890  146.5770 C   0  0  0  0  0  2  0  0  0  0  0  0
  187.7080  177.2180  146.6880 C   0  0  0  0  0  3  0  0  0  0  0  0
  188.9440  176.8680  147.4520 C   0  0  2  0  0  3  0  0  0  0  0  0
  187.9080  178.5930  148.4480 N   0  0  0  0  0  0  0  0  0  0  0  0
  187.1360  178.2340  147.3140 C   0  0  0  0  0  3  0  0  0  0  0  0
  188.9220  177.8380  148.5360 N   0  0  0  0  0  0  0  0  0  0  0  0
  1  4  1  0  0  0  0
  1  9  2  0  0  0  0
  2  6  1  0  0  0  0
  4  2  2  0  0  0  0
  5  3  1  0  0  0  0
  5 26  1  0  0  0  0
  6  5  2  0  0  0  0
  7  6  1  0  0  0  0
  7  8  1  0  0  0  0
  8  3  2  0  0  0  0
  9  7  1  0  0  0  0
 10  8  1  0  0  0  0
 10 14  1  0  0  0  0
 12 11  2  0  0  0  0
 13 14  2  0  0  0  0
 13 12  1  0  0  0  0
 14 15  1  0  0  0  0
 15 11  1  0  0  0  0
 16 17  2  0  0  0  0
 17 18  1  0  0  0  0
 18  4  1  0  0  0  0
 19 25  1  0  0  0  0
 19 17  1  0  0  0  0
 20 24  2  0  0  0  0
 20 21  1  0  0  0  0
 21 19  2  0  0  0  0
 22 25  2  0  0  0  0
 23 24  1  0  0  0  0
 24 22  1  0  0  0  0
 26 27  1  0  0  0  0
 27 28  1  0  0  0  0
 29 32  2  0  0  0  0
 29 30  1  0  0  0  0
 30 28  1  6  0  0  0
 30 33  1  0  0  0  0
 31 33  2  0  0  0  0
 32 31  1  0  0  0  0
M  END
>  <MODEL>
2

>  <REMARK>
 VINA RESULT:      -8.4      3.651      9.711
  Name = 
  7 active torsions:
  status: ('A' for Active; 'I' for Inactive)
    1  A    between atoms: C_3  and  C_12
    2  A    between atoms: N_4  and  C_32
    3  A    between atoms: C_5  and  C_25
    4  A    between atoms: C_19  and  N_27
    5  A    between atoms: C_21  and  C_31
    6  A    between atoms: C_25  and  C_30
    7  A    between atoms: C_30  and  C_31
                            x       y       z     vdW  Elec       q    Type
                         _______ _______ _______ _____ _____    ______ ____

>  <TORSDO>
F 7

$$$$
=
 OpenBabel11042409493D

 33 37  0  0  1  0  0  0  0  0999 V2000
  189.1850  177.5190  137.9430 C   0  0  0  0  0  3  0  0  0  0  0  0
  189.9680  177.2410  140.2330 C   0  0  0  0  0  3  0  0  0  0  0  0
  187.0090  178.5220  141.8360 C   0  0  0  0  0  3  0  0  0  0  0  0
  190.1910  177.1200  138.8520 C   0  0  0  0  0  0  0  0  0  0  0  0
  188.2850  177.9750  141.9350 C   0  0  0  0  0  0  0  0  0  0  0  0
  188.7420  177.7570  140.6530 C   0  0  0  0  0  0  0  0  0  0  0  0
  187.8070  178.1280  139.7670 N   0  0  0  0  0  0  0  0  0  0  0  0
  186.7550  178.5900  140.4660 C   0  0  0  0  0  0  0  0  0  0  0  0
  187.9730  178.0330  138.4240 C   0  0  0  0  0  3  0  0  0  0  0  0
  185.5600  179.0870  139.8490 N   0  0  0  0  0  2  0  0  0  0  0  0
  182.3530  178.4040  141.6640 C   0  0  0  0  0  3  0  0  0  0  0  0
  181.9770  179.1800  140.4060 C   0  0  0  0  0  3  0  0  0  0  0  0
  183.2240  179.4370  139.7140 N   0  0  0  0  0  0  0  0  0  0  0  0
  184.2260  178.9490  140.3520 C   0  0  0  0  0  0  0  0  0  0  0  0
  183.8660  178.2570  141.6130 C   0  0  0  0  0  2  0  0  0  0  0  0
  190.7710  174.4110  137.8660 O   0  0  0  0  0  0  0  0  0  0  0  0
  191.7020  175.2610  137.9280 C   0  0  0  0  0  0  0  0  0  0  0  0
  191.4460  176.5910  138.4050 N   0  0  0  0  0  2  0  0  0  0  0  0
  193.0630  174.8860  137.5050 C   0  0  0  0  0  0  0  0  0  0  0  0
  195.2560  175.5110  136.7710 N   0  0  0  0  0  0  0  0  0  0  0  0
  194.0010  175.8680  137.1610 C   0  0  0  0  0  3  0  0  0  0  0  0
  194.7350  173.1970  137.0340 C   0  0  0  0  0  3  0  0  0  0  0  0
  196.8940  173.8900  136.3090 F   0  0  0  0  0  0  0  0  0  0  0  0
  195.6370  174.2080  136.7010 C   0  0  0  0  0  0  0  0  0  0  0  0
  193.4430  173.5410  137.4360 C   0  0  0  0  0  3  0  0  0  0  0  0
  189.0360  177.7400  143.2010 C   0  0  0  0  0  2  0  0  0  0  0  0
  188.1790  176.9500  144.1700 C   0  0  0  0  0  2  0  0  0  0  0  0
  188.0890  177.6930  145.4880 C   0  0  0  0  0  2  0  0  0  0  0  0
  185.6780  178.0120  145.0940 C   0  0  0  0  0  3  0  0  0  0  0  0
  186.6980  177.5440  146.0800 C   0  0  2  0  0  3  0  0  0  0  0  0
  185.6020  179.3150  146.9160 N   0  0  0  0  0  0  0  0  0  0  0  0
  185.0610  179.0510  145.6330 C   0  0  0  0  0  3  0  0  0  0  0  0
  186.5190  178.4810  147.1790 N   0  0  0  0  0  0  0  0  0  0  0  0
  1  9  2  0  0  0  0
  1  4  1  0  0  0  0
  2  6  1  0  0  0  0
  3  5  1  0  0  0  0
  4  2  2  0  0  0  0
  5 26  1  0  0  0  0
  6  5  2  0  0  0  0
  7  8  1  0  0  0  0
  7  6  1  0  0  0  0
  8  3  2  0  0  0  0
  9  7  1  0  0  0  0
 10 14  1  0  0  0  0
 10  8  1  0  0  0  0
 12 11  2  0  0  0  0
 13 14  2  0  0  0  0
 13 12  1  0  0  0  0
 14 15  1  0  0  0  0
 15 11  1  0  0  0  0
 16 17  2  0  0  0  0
 17 18  1  0  0  0  0
 18  4  1  0  0  0  0
 19 17  1  0  0  0  0
 20 21  1  0  0  0  0
 21 19  2  0  0  0  0
 22 25  2  0  0  0  0
 23 24  1  0  0  0  0
 24 20  2  0  0  0  0
 24 22  1  0  0  0  0
 25 19  1  0  0  0  0
 26 27  1  0  0  0  0
 27 28  1  0  0  0  0
 29 32  2  0  0  0  0
 29 30  1  0  0  0  0
 30 28  1  6  0  0  0
 30 33  1  0  0  0  0
 31 33  2  0  0  0  0
 32 31  1  0  0  0  0
M  END
>  <MODEL>
3

>  <REMARK>
 VINA RESULT:      -8.3      3.486      9.278
  Name = 
  7 active torsions:
  status: ('A' for Active; 'I' for Inactive)
    1  A    between atoms: C_3  and  C_12
    2  A    between atoms: N_4  and  C_32
    3  A    between atoms: C_5  and  C_25
    4  A    between atoms: C_19  and  N_27
    5  A    between atoms: C_21  and  C_31
    6  A    between atoms: C_25  and  C_30
    7  A    between atoms: C_30  and  C_31
                            x       y       z     vdW  Elec       q    Type
                         _______ _______ _______ _____ _____    ______ ____

>  <TORSDO>
F 7

$$$$
=
 OpenBabel11042409493D

 33 37  0  0  1  0  0  0  0  0999 V2000
  188.3490  178.3940  139.8050 C   0  0  0  0  0  3  0  0  0  0  0  0
  188.5710  177.5950  142.0950 C   0  0  0  0  0  3  0  0  0  0  0  0
  192.0810  176.8110  141.9170 C   0  0  0  0  0  3  0  0  0  0  0  0
  187.7720  178.1190  141.0660 C   0  0  0  0  0  0  0  0  0  0  0  0
  190.9000  176.8670  142.6530 C   0  0  0  0  0  0  0  0  0  0  0  0
  189.9200  177.3690  141.8240 C   0  0  0  0  0  0  0  0  0  0  0  0
  190.4390  177.6400  140.6180 N   0  0  0  0  0  0  0  0  0  0  0  0
  191.7410  177.3090  140.6590 C   0  0  0  0  0  0  0  0  0  0  0  0
  189.7110  178.1440  139.5900 C   0  0  0  0  0  3  0  0  0  0  0  0
  192.6240  177.4540  139.5380 N   0  0  0  0  0  2  0  0  0  0  0  0
  192.3460  174.8410  136.8660 C   0  0  0  0  0  3  0  0  0  0  0  0
  193.4340  175.8080  136.4100 C   0  0  0  0  0  3  0  0  0  0  0  0
  193.5320  176.8110  137.4500 N   0  0  0  0  0  0  0  0  0  0  0  0
  192.7000  176.5840  138.4030 C   0  0  0  0  0  0  0  0  0  0  0  0
  191.8640  175.3760  138.2050 C   0  0  0  0  0  2  0  0  0  0  0  0
  186.3290  177.7990  143.6080 O   0  0  0  0  0  0  0  0  0  0  0  0
  185.7030  178.1920  142.5840 C   0  0  0  0  0  0  0  0  0  0  0  0
  186.3840  178.3570  141.3310 N   0  0  0  0  0  2  0  0  0  0  0  0
  184.2630  178.4860  142.6770 C   0  0  0  0  0  0  0  0  0  0  0  0
  182.1340  178.7940  141.6230 N   0  0  0  0  0  0  0  0  0  0  0  0
  183.4630  178.5210  141.5270 C   0  0  0  0  0  3  0  0  0  0  0  0
  182.2990  179.0160  143.9940 C   0  0  0  0  0  3  0  0  0  0  0  0
  180.2150  179.3080  142.8790 F   0  0  0  0  0  0  0  0  0  0  0  0
  181.5420  179.0400  142.8220 C   0  0  0  0  0  0  0  0  0  0  0  0
  183.6640  178.7390  143.9170 C   0  0  0  0  0  3  0  0  0  0  0  0
  190.7280  176.3990  144.0580 C   0  0  0  0  0  2  0  0  0  0  0  0
  190.9550  177.5500  145.0170 C   0  0  0  0  0  2  0  0  0  0  0  0
  189.6170  178.1040  145.4670 C   0  0  0  0  0  2  0  0  0  0  0  0
  187.6180  177.6090  146.8190 C   0  0  0  0  0  3  0  0  0  0  0  0
  189.0530  177.2580  146.5950 C   0  0  2  0  0  3  0  0  0  0  0  0
  188.7980  178.1060  148.6580 N   0  0  0  0  0  0  0  0  0  0  0  0
  187.5210  178.1000  148.0430 C   0  0  0  0  0  3  0  0  0  0  0  0
  189.6650  177.6390  147.8600 N   0  0  0  0  0  0  0  0  0  0  0  0
  1  4  1  0  0  0  0
  3  5  1  0  0  0  0
  4 18  1  0  0  0  0
  4  2  2  0  0  0  0
  5 26  1  0  0  0  0
  6  2  1  0  0  0  0
  6  5  2  0  0  0  0
  7  8  1  0  0  0  0
  7  6  1  0  0  0  0
  8  3  2  0  0  0  0
  9  1  2  0  0  0  0
  9  7  1  0  0  0  0
 10  8  1  0  0  0  0
 11 15  1  0  0  0  0
 12 11  2  0  0  0  0
 12 13  1  0  0  0  0
 13 14  2  0  0  0  0
 14 10  1  0  0  0  0
 15 14  1  0  0  0  0
 17 19  1  0  0  0  0
 17 16  2  0  0  0  0
 18 17  1  0  0  0  0
 19 25  1  0  0  0  0
 20 24  2  0  0  0  0
 21 20  1  0  0  0  0
 21 19  2  0  0  0  0
 24 23  1  0  0  0  0
 24 22  1  0  0  0  0
 25 22  2  0  0  0  0
 26 27  1  0  0  0  0
 27 28  1  0  0  0  0
 29 32  2  0  0  0  0
 30 28  1  6  0  0  0
 30 29  1  0  0  0  0
 30 33  1  0  0  0  0
 32 31  1  0  0  0  0
 33 31  2  0  0  0  0
M  END
>  <MODEL>
4

>  <REMARK>
 VINA RESULT:      -8.2      2.579      5.733
  Name = 
  7 active torsions:
  status: ('A' for Active; 'I' for Inactive)
    1  A    between atoms: C_3  and  C_12
    2  A    between atoms: N_4  and  C_32
    3  A    between atoms: C_5  and  C_25
    4  A    between atoms: C_19  and  N_27
    5  A    between atoms: C_21  and  C_31
    6  A    between atoms: C_25  and  C_30
    7  A    between atoms: C_30  and  C_31
                            x       y       z     vdW  Elec       q    Type
                         _______ _______ _______ _____ _____    ______ ____

>  <TORSDO>
F 7

$$$$
=
 OpenBabel11042409493D

 33 37  0  0  1  0  0  0  0  0999 V2000
  186.3880  178.6960  140.8570 C   0  0  0  0  0  3  0  0  0  0  0  0
  187.1790  177.7520  142.9570 C   0  0  0  0  0  3  0  0  0  0  0  0
  184.3240  178.7040  144.9350 C   0  0  0  0  0  3  0  0  0  0  0  0
  187.3780  178.0050  141.5910 C   0  0  0  0  0  0  0  0  0  0  0  0
  185.5660  178.0790  144.8430 C   0  0  0  0  0  0  0  0  0  0  0  0
  185.9930  178.1990  143.5380 C   0  0  0  0  0  0  0  0  0  0  0  0
  185.0720  178.8530  142.8160 N   0  0  0  0  0  0  0  0  0  0  0  0
  184.0600  179.1630  143.6460 C   0  0  0  0  0  0  0  0  0  0  0  0
  185.2160  179.1250  141.4940 C   0  0  0  0  0  3  0  0  0  0  0  0
  182.8900  179.8780  143.2230 N   0  0  0  0  0  2  0  0  0  0  0  0
  179.5940  178.3350  144.1160 C   0  0  0  0  0  3  0  0  0  0  0  0
  179.2750  179.6220  143.3630 C   0  0  0  0  0  3  0  0  0  0  0  0
  180.5560  180.2080  143.0240 N   0  0  0  0  0  0  0  0  0  0  0  0
  181.5310  179.4870  143.4480 C   0  0  0  0  0  0  0  0  0  0  0  0
  181.1120  178.2580  144.1640 C   0  0  0  0  0  2  0  0  0  0  0  0
  188.6640  179.0070  139.1440 O   0  0  0  0  0  0  0  0  0  0  0  0
  189.2000  178.0590  139.7820 C   0  0  0  0  0  0  0  0  0  0  0  0
  188.5920  177.5500  140.9800 N   0  0  0  0  0  2  0  0  0  0  0  0
  190.4580  177.4690  139.2950 C   0  0  0  0  0  0  0  0  0  0  0  0
  191.7070  176.3720  137.5690 N   0  0  0  0  0  0  0  0  0  0  0  0
  190.5390  176.9150  138.0100 C   0  0  0  0  0  3  0  0  0  0  0  0
  192.7870  176.8890  139.6350 C   0  0  0  0  0  3  0  0  0  0  0  0
  193.9660  175.8010  137.8760 F   0  0  0  0  0  0  0  0  0  0  0  0
  192.8210  176.3480  138.3490 C   0  0  0  0  0  0  0  0  0  0  0  0
  191.5990  177.4500  140.1060 C   0  0  0  0  0  3  0  0  0  0  0  0
  186.3150  177.4610  145.9740 C   0  0  0  0  0  2  0  0  0  0  0  0
  187.6670  178.1290  146.1230 C   0  0  0  0  0  2  0  0  0  0  0  0
  188.7290  177.0720  146.3510 C   0  0  0  0  0  2  0  0  0  0  0  0
  190.3960  177.3180  144.5530 C   0  0  0  0  0  3  0  0  0  0  0  0
  190.0990  177.6190  145.9860 C   0  0  2  0  0  3  0  0  0  0  0  0
  191.8850  176.2650  145.8550 N   0  0  0  0  0  0  0  0  0  0  0  0
  191.4530  176.5240  144.5300 C   0  0  0  0  0  3  0  0  0  0  0  0
  191.1370  176.8710  146.6800 N   0  0  0  0  0  0  0  0  0  0  0  0
  1  9  2  0  0  0  0
  1  4  1  0  0  0  0
  2  6  1  0  0  0  0
  4  2  2  0  0  0  0
  5  3  1  0  0  0  0
  5 26  1  0  0  0  0
  6  5  2  0  0  0  0
  7  6  1  0  0  0  0
  7  8  1  0  0  0  0
  8  3  2  0  0  0  0
  9  7  1  0  0  0  0
 10 14  1  0  0  0  0
 10  8  1  0  0  0  0
 11 15  1  0  0  0  0
 12 11  2  0  0  0  0
 13 12  1  0  0  0  0
 13 14  2  0  0  0  0
 14 15  1  0  0  0  0
 16 17  2  0  0  0  0
 17 18  1  0  0  0  0
 18  4  1  0  0  0  0
 19 17  1  0  0  0  0
 19 25  1  0  0  0  0
 20 21  1  0  0  0  0
 20 24  2  0  0  0  0
 21 19  2  0  0  0  0
 22 25  2  0  0  0  0
 23 24  1  0  0  0  0
 24 22  1  0  0  0  0
 26 27  1  0  0  0  0
 27 28  1  0  0  0  0
 29 30  1  0  0  0  0
 30 28  1  1  0  0  0
 30 33  1  0  0  0  0
 31 33  2  0  0  0  0
 32 29  2  0  0  0  0
 32 31  1  0  0  0  0
M  END
>  <MODEL>
5

>  <REMARK>
 VINA RESULT:      -8.2      3.890     10.168
  Name = 
  7 active torsions:
  status: ('A' for Active; 'I' for Inactive)
    1  A    between atoms: C_3  and  C_12
    2  A    between atoms: N_4  and  C_32
    3  A    between atoms: C_5  and  C_25
    4  A    between atoms: C_19  and  N_27
    5  A    between atoms: C_21  and  C_31
    6  A    between atoms: C_25  and  C_30
    7  A    between atoms: C_30  and  C_31
                            x       y       z     vdW  Elec       q    Type
                         _______ _______ _______ _____ _____    ______ ____

>  <TORSDO>
F 7

$$$$
=
 OpenBabel11042409493D

 33 37  0  0  1  0  0  0  0  0999 V2000
  190.8450  177.1790  141.0270 C   0  0  0  0  0  3  0  0  0  0  0  0
  188.5190  177.7390  140.5720 C   0  0  0  0  0  3  0  0  0  0  0  0
  188.7020  177.3710  136.9940 C   0  0  0  0  0  3  0  0  0  0  0  0
  189.5640  177.5540  141.4910 C   0  0  0  0  0  0  0  0  0  0  0  0
  187.9540  177.6540  138.1340 C   0  0  0  0  0  0  0  0  0  0  0  0
  188.7960  177.5370  139.2190 C   0  0  0  0  0  0  0  0  0  0  0  0
  190.0210  177.1820  138.8090 N   0  0  0  0  0  0  0  0  0  0  0  0
  189.9790  177.0770  137.4690 C   0  0  0  0  0  0  0  0  0  0  0  0
  191.0650  176.9930  139.6550 C   0  0  0  0  0  3  0  0  0  0  0  0
  191.1180  176.7200  136.6740 N   0  0  0  0  0  2  0  0  0  0  0  0
  191.6720  173.0540  136.1290 C   0  0  0  0  0  3  0  0  0  0  0  0
  192.7970  173.7720  135.3910 C   0  0  0  0  0  3  0  0  0  0  0  0
  192.5710  175.1870  135.6090 N   0  0  0  0  0  0  0  0  0  0  0  0
  191.5300  175.3910  136.3320 C   0  0  0  0  0  0  0  0  0  0  0  0
  190.8300  174.1550  136.7560 C   0  0  0  0  0  2  0  0  0  0  0  0
  188.0060  175.8440  143.3050 O   0  0  0  0  0  0  0  0  0  0  0  0
  188.5280  176.9040  143.7480 C   0  0  0  0  0  0  0  0  0  0  0  0
  189.2940  177.7570  142.8840 N   0  0  0  0  0  2  0  0  0  0  0  0
  188.3520  177.2680  145.1640 C   0  0  0  0  0  0  0  0  0  0  0  0
  186.9510  178.0180  146.9570 N   0  0  0  0  0  0  0  0  0  0  0  0
  187.1040  177.6830  145.6470 C   0  0  0  0  0  3  0  0  0  0  0  0
  189.2520  177.5570  147.3960 C   0  0  0  0  0  3  0  0  0  0  0  0
  187.8010  178.3050  149.1300 F   0  0  0  0  0  0  0  0  0  0  0  0
  187.9900  177.9640  147.8320 C   0  0  0  0  0  0  0  0  0  0  0  0
  189.4290  177.2090  146.0560 C   0  0  0  0  0  3  0  0  0  0  0  0
  186.5250  178.0760  138.1540 C   0  0  0  0  0  2  0  0  0  0  0  0
  185.7880  177.4580  136.9820 C   0  0  0  0  0  2  0  0  0  0  0  0
  184.7840  176.4450  137.4940 C   0  0  0  0  0  2  0  0  0  0  0  0
  184.1740  174.0590  137.4370 C   0  0  0  0  0  2  0  0  0  0  0  0
  184.9150  175.1430  136.7240 C   0  0  2  0  0  3  0  0  0  0  0  0
  186.3570  173.5520  137.3800 N   0  0  0  0  0  0  0  0  0  0  0  0
  185.0640  173.1490  137.7990 C   0  0  0  0  0  3  0  0  0  0  0  0
  186.2880  174.6660  136.7770 N   0  0  0  0  0  2  0  0  0  0  0  0
  1  4  1  0  0  0  0
  2  4  2  0  0  0  0
  3  8  2  0  0  0  0
  3  5  1  0  0  0  0
  4 18  1  0  0  0  0
  5 26  1  0  0  0  0
  5  6  2  0  0  0  0
  6  2  1  0  0  0  0
  7  6  1  0  0  0  0
  7  9  1  0  0  0  0
  8  7  1  0  0  0  0
  9  1  2  0  0  0  0
 10  8  1  0  0  0  0
 11 15  1  0  0  0  0
 12 13  1  0  0  0  0
 12 11  2  0  0  0  0
 13 14  2  0  0  0  0
 14 10  1  0  0  0  0
 14 15  1  0  0  0  0
 16 17  2  0  0  0  0
 17 19  1  0  0  0  0
 18 17  1  0  0  0  0
 19 21  2  0  0  0  0
 19 25  1  0  0  0  0
 20 24  2  0  0  0  0
 21 20  1  0  0  0  0
 22 24  1  0  0  0  0
 24 23  1  0  0  0  0
 25 22  2  0  0  0  0
 27 28  1  0  0  0  0
 27 26  1  0  0  0  0
 29 32  1  0  0  0  0
 30 33  1  0  0  0  0
 30 29  1  0  0  0  0
 30 28  1  1  0  0  0
 31 32  2  0  0  0  0
 33 31  1  0  0  0  0
M  END
>  <MODEL>
6

>  <REMARK>
 VINA RESULT:      -7.9      2.191      2.887
  Name = 
  7 active torsions:
  status: ('A' for Active; 'I' for Inactive)
    1  A    between atoms: C_3  and  C_12
    2  A    between atoms: N_4  and  C_32
    3  A    between atoms: C_5  and  C_25
    4  A    between atoms: C_19  and  N_27
    5  A    between atoms: C_21  and  C_31
    6  A    between atoms: C_25  and  C_30
    7  A    between atoms: C_30  and  C_31
                            x       y       z     vdW  Elec       q    Type
                         _______ _______ _______ _____ _____    ______ ____

>  <TORSDO>
F 7

$$$$
=
 OpenBabel11042409493D

 33 37  0  0  1  0  0  0  0  0999 V2000
  187.5870  178.2980  140.5560 C   0  0  0  0  0  3  0  0  0  0  0  0
  189.8830  177.4970  140.6880 C   0  0  0  0  0  3  0  0  0  0  0  0
  190.3750  177.0790  137.1450 C   0  0  0  0  0  3  0  0  0  0  0  0
  188.7180  177.9490  141.3280 C   0  0  0  0  0  0  0  0  0  0  0  0
  190.8750  177.0040  138.4420 C   0  0  0  0  0  0  0  0  0  0  0  0
  189.8730  177.4140  139.2950 C   0  0  0  0  0  0  0  0  0  0  0  0
  188.7840  177.7510  138.5900 N   0  0  0  0  0  0  0  0  0  0  0  0
  189.0730  177.5550  137.2910 C   0  0  0  0  0  0  0  0  0  0  0  0
  187.6340  178.1920  139.1590 C   0  0  0  0  0  3  0  0  0  0  0  0
  188.1370  177.8050  136.2330 N   0  0  0  0  0  2  0  0  0  0  0  0
  185.5890  175.1280  135.6140 C   0  0  0  0  0  3  0  0  0  0  0  0
  185.3060  176.2320  134.6010 C   0  0  0  0  0  3  0  0  0  0  0  0
  186.2960  177.2600  134.8510 N   0  0  0  0  0  0  0  0  0  0  0  0
  187.0800  176.9330  135.8150 C   0  0  0  0  0  0  0  0  0  0  0  0
  186.7830  175.6130  136.4210 C   0  0  0  0  0  2  0  0  0  0  0  0
  188.2590  175.8000  143.2820 O   0  0  0  0  0  0  0  0  0  0  0  0
  188.4870  176.9720  143.6910 C   0  0  0  0  0  0  0  0  0  0  0  0
  188.7150  178.0400  142.7580 N   0  0  0  0  0  2  0  0  0  0  0  0
  188.5210  177.2460  145.1380 C   0  0  0  0  0  0  0  0  0  0  0  0
  189.7420  177.4090  147.1930 N   0  0  0  0  0  0  0  0  0  0  0  0
  189.7210  177.1540  145.8560 C   0  0  0  0  0  3  0  0  0  0  0  0
  187.3980  177.8600  147.1950 C   0  0  0  0  0  3  0  0  0  0  0  0
  188.6740  178.0030  149.2000 F   0  0  0  0  0  0  0  0  0  0  0  0
  188.6150  177.7560  147.8700 C   0  0  0  0  0  0  0  0  0  0  0  0
  187.3540  177.6020  145.8240 C   0  0  0  0  0  3  0  0  0  0  0  0
  192.2250  176.5030  138.8270 C   0  0  0  0  0  2  0  0  0  0  0  0
  192.9920  176.0840  137.5890 C   0  0  0  0  0  2  0  0  0  0  0  0
  193.0930  174.5730  137.5440 C   0  0  0  0  0  2  0  0  0  0  0  0
  195.0840  173.3090  138.2580 C   0  0  0  0  0  2  0  0  0  0  0  0
  194.5040  174.1530  137.1700 C   0  0  2  0  0  3  0  0  0  0  0  0
  196.2900  175.1870  138.0530 N   0  0  0  0  0  0  0  0  0  0  0  0
  196.1300  173.9590  138.7420 C   0  0  0  0  0  3  0  0  0  0  0  0
  195.3870  175.3090  137.1720 N   0  0  0  0  0  2  0  0  0  0  0  0
  1  4  1  0  0  0  0
  2  4  2  0  0  0  0
  3  8  2  0  0  0  0
  3  5  1  0  0  0  0
  4 18  1  0  0  0  0
  5 26  1  0  0  0  0
  5  6  2  0  0  0  0
  6  2  1  0  0  0  0
  7  9  1  0  0  0  0
  7  6  1  0  0  0  0
  8  7  1  0  0  0  0
  9  1  2  0  0  0  0
 10  8  1  0  0  0  0
 11 15  1  0  0  0  0
 12 13  1  0  0  0  0
 12 11  2  0  0  0  0
 13 14  2  0  0  0  0
 14 10  1  0  0  0  0
 14 15  1  0  0  0  0
 16 17  2  0  0  0  0
 17 19  1  0  0  0  0
 18 17  1  0  0  0  0
 19 25  2  0  0  0  0
 19 21  1  0  0  0  0
 20 24  1  0  0  0  0
 21 20  2  0  0  0  0
 22 24  2  0  0  0  0
 24 23  1  0  0  0  0
 25 22  1  0  0  0  0
 27 26  1  0  0  0  0
 28 27  1  0  0  0  0
 29 32  1  0  0  0  0
 30 33  1  0  0  0  0
 30 28  1  1  0  0  0
 30 29  1  0  0  0  0
 31 32  2  0  0  0  0
 33 31  1  0  0  0  0
M  END
>  <MODEL>
7

>  <REMARK>
 VINA RESULT:      -7.9      1.897      6.172
  Name = 
  7 active torsions:
  status: ('A' for Active; 'I' for Inactive)
    1  A    between atoms: C_3  and  C_12
    2  A    between atoms: N_4  and  C_32
    3  A    between atoms: C_5  and  C_25
    4  A    between atoms: C_19  and  N_27
    5  A    between atoms: C_21  and  C_31
    6  A    between atoms: C_25  and  C_30
    7  A    between atoms: C_30  and  C_31
                            x       y       z     vdW  Elec       q    Type
                         _______ _______ _______ _____ _____    ______ ____

>  <TORSDO>
F 7

$$$$
=
 OpenBabel11042409493D

 33 37  0  0  1  0  0  0  0  0999 V2000
  189.2310  177.9280  138.4990 C   0  0  0  0  0  3  0  0  0  0  0  0
  189.8340  176.9530  140.6480 C   0  0  0  0  0  3  0  0  0  0  0  0
  186.9800  178.1790  142.4700 C   0  0  0  0  0  3  0  0  0  0  0  0
  190.1200  177.1650  139.2900 C   0  0  0  0  0  0  0  0  0  0  0  0
  188.1650  177.4490  142.4470 C   0  0  0  0  0  0  0  0  0  0  0  0
  188.6640  177.5100  141.1630 C   0  0  0  0  0  0  0  0  0  0  0  0
  187.8400  178.2300  140.3890 N   0  0  0  0  0  0  0  0  0  0  0  0
  186.8190  178.6390  141.1630 C   0  0  0  0  0  0  0  0  0  0  0  0
  188.0710  178.4670  139.0730 C   0  0  0  0  0  3  0  0  0  0  0  0
  185.7390  179.4460  140.6750 N   0  0  0  0  0  2  0  0  0  0  0  0
  183.1910  177.6950  138.5570 C   0  0  0  0  0  3  0  0  0  0  0  0
  182.7440  179.1500  138.6520 C   0  0  0  0  0  3  0  0  0  0  0  0
  183.7350  179.8150  139.4720 N   0  0  0  0  0  0  0  0  0  0  0  0
  184.6540  179.0020  139.8520 C   0  0  0  0  0  0  0  0  0  0  0  0
  184.4760  177.6120  139.3670 C   0  0  0  0  0  2  0  0  0  0  0  0
  190.4560  174.5600  137.9690 O   0  0  0  0  0  0  0  0  0  0  0  0
  191.4550  175.3200  138.1050 C   0  0  0  0  0  0  0  0  0  0  0  0
  191.3180  176.5980  138.7460 N   0  0  0  0  0  2  0  0  0  0  0  0
  192.7710  174.8930  137.6000 C   0  0  0  0  0  0  0  0  0  0  0  0
  195.1360  175.2330  137.4180 N   0  0  0  0  0  0  0  0  0  0  0  0
  193.9240  175.6340  137.8900 C   0  0  0  0  0  3  0  0  0  0  0  0
  194.1470  173.3440  136.3440 C   0  0  0  0  0  3  0  0  0  0  0  0
  196.4910  173.7430  136.2060 F   0  0  0  0  0  0  0  0  0  0  0  0
  195.2690  174.1130  136.6580 C   0  0  0  0  0  0  0  0  0  0  0  0
  192.8950  173.7390  136.8170 C   0  0  0  0  0  3  0  0  0  0  0  0
  188.8010  176.7860  143.6210 C   0  0  0  0  0  2  0  0  0  0  0  0
  188.9090  177.7680  144.7710 C   0  0  0  0  0  2  0  0  0  0  0  0
  189.4070  177.0450  146.0070 C   0  0  0  0  0  2  0  0  0  0  0  0
  191.6850  176.2080  145.5810 C   0  0  0  0  0  3  0  0  0  0  0  0
  190.8890  177.3080  146.2060 C   0  0  2  0  0  3  0  0  0  0  0  0
  192.0520  176.2250  147.7920 N   0  0  0  0  0  0  0  0  0  0  0  0
  192.3510  175.6060  146.5530 C   0  0  0  0  0  3  0  0  0  0  0  0
  191.2360  177.1780  147.6140 N   0  0  0  0  0  0  0  0  0  0  0  0
  1  9  2  0  0  0  0
  1  4  1  0  0  0  0
  2  6  1  0  0  0  0
  4  2  2  0  0  0  0
  5  3  1  0  0  0  0
  5 26  1  0  0  0  0
  6  5  2  0  0  0  0
  7  8  1  0  0  0  0
  7  6  1  0  0  0  0
  8  3  2  0  0  0  0
  9  7  1  0  0  0  0
 10  8  1  0  0  0  0
 11 12  2  0  0  0  0
 11 15  1  0  0  0  0
 12 13  1  0  0  0  0
 13 14  2  0  0  0  0
 14 10  1  0  0  0  0
 15 14  1  0  0  0  0
 16 17  2  0  0  0  0
 17 18  1  0  0  0  0
 18  4  1  0  0  0  0
 19 21  1  0  0  0  0
 19 17  1  0  0  0  0
 20 21  2  0  0  0  0
 22 24  2  0  0  0  0
 22 25  1  0  0  0  0
 23 24  1  0  0  0  0
 24 20  1  0  0  0  0
 25 19  2  0  0  0  0
 26 27  1  0  0  0  0
 27 28  1  0  0  0  0
 29 30  1  0  0  0  0
 29 32  2  0  0  0  0
 30 28  1  1  0  0  0
 30 33  1  0  0  0  0
 32 31  1  0  0  0  0
 33 31  2  0  0  0  0
M  END
>  <MODEL>
8

>  <REMARK>
 VINA RESULT:      -7.9      3.673      9.478
  Name = 
  7 active torsions:
  status: ('A' for Active; 'I' for Inactive)
    1  A    between atoms: C_3  and  C_12
    2  A    between atoms: N_4  and  C_32
    3  A    between atoms: C_5  and  C_25
    4  A    between atoms: C_19  and  N_27
    5  A    between atoms: C_21  and  C_31
    6  A    between atoms: C_25  and  C_30
    7  A    between atoms: C_30  and  C_31
                            x       y       z     vdW  Elec       q    Type
                         _______ _______ _______ _____ _____    ______ ____

>  <TORSDO>
F 7

$$$$
=
 OpenBabel11042409493D

 33 37  0  0  1  0  0  0  0  0999 V2000
  183.2200  178.8610  143.0660 C   0  0  0  0  0  3  0  0  0  0  0  0
  185.0280  178.3910  141.5040 C   0  0  0  0  0  3  0  0  0  0  0  0
  187.5410  177.6900  143.9860 C   0  0  0  0  0  3  0  0  0  0  0  0
  183.6910  178.7510  141.7380 C   0  0  0  0  0  0  0  0  0  0  0  0
  187.1730  177.7900  142.6470 C   0  0  0  0  0  0  0  0  0  0  0  0
  185.8430  178.1510  142.6100 C   0  0  0  0  0  0  0  0  0  0  0  0
  185.3680  178.2650  143.8580 N   0  0  0  0  0  0  0  0  0  0  0  0
  186.3800  177.9880  144.6980 C   0  0  0  0  0  0  0  0  0  0  0  0
  184.0860  178.6110  144.1390 C   0  0  0  0  0  3  0  0  0  0  0  0
  186.2460  178.0180  146.1260 N   0  0  0  0  0  2  0  0  0  0  0  0
  189.4330  177.8660  148.0920 C   0  0  0  0  0  3  0  0  0  0  0  0
  188.3020  177.9470  149.1120 C   0  0  0  0  0  3  0  0  0  0  0  0
  187.0770  178.0050  148.3400 N   0  0  0  0  0  0  0  0  0  0  0  0
  187.3140  177.9710  147.0780 C   0  0  0  0  0  0  0  0  0  0  0  0
  188.7530  177.8820  146.7310 C   0  0  0  0  0  2  0  0  0  0  0  0
  184.3630  180.1280  139.2280 O   0  0  0  0  0  0  0  0  0  0  0  0
  183.1960  179.6770  139.3950 C   0  0  0  0  0  0  0  0  0  0  0  0
  182.8420  179.0000  140.6110 N   0  0  0  0  0  2  0  0  0  0  0  0
  182.1900  179.8440  138.3320 C   0  0  0  0  0  0  0  0  0  0  0  0
  180.9040  178.9330  136.5280 N   0  0  0  0  0  0  0  0  0  0  0  0
  181.8340  178.7690  137.5080 C   0  0  0  0  0  3  0  0  0  0  0  0
  180.6180  181.2290  137.1150 C   0  0  0  0  0  3  0  0  0  0  0  0
  179.3730  180.2570  135.3330 F   0  0  0  0  0  0  0  0  0  0  0  0
  180.2950  180.1300  136.3170 C   0  0  0  0  0  0  0  0  0  0  0  0
  181.5700  181.0820  138.1250 C   0  0  0  0  0  3  0  0  0  0  0  0
  188.0810  177.6080  141.4780 C   0  0  0  0  0  2  0  0  0  0  0  0
  189.5150  177.8640  141.8950 C   0  0  0  0  0  2  0  0  0  0  0  0
  190.2360  176.5410  142.0620 C   0  0  0  0  0  2  0  0  0  0  0  0
  191.6270  175.8270  143.9660 C   0  0  0  0  0  3  0  0  0  0  0  0
  191.5510  176.7490  142.7930 C   0  0  2  0  0  3  0  0  0  0  0  0
  191.6420  177.9480  144.6890 N   0  0  0  0  0  0  0  0  0  0  0  0
  191.6810  176.5790  145.0530 C   0  0  0  0  0  3  0  0  0  0  0  0
  191.5680  178.0580  143.4280 N   0  0  0  0  0  0  0  0  0  0  0  0
  1  9  2  0  0  0  0
  2  4  2  0  0  0  0
  2  6  1  0  0  0  0
  3  8  2  0  0  0  0
  4  1  1  0  0  0  0
  5  3  1  0  0  0  0
  6  5  2  0  0  0  0
  6  7  1  0  0  0  0
  7  9  1  0  0  0  0
  7  8  1  0  0  0  0
  8 10  1  0  0  0  0
 10 14  1  0  0  0  0
 11 12  2  0  0  0  0
 13 12  1  0  0  0  0
 14 13  2  0  0  0  0
 15 14  1  0  0  0  0
 15 11  1  0  0  0  0
 16 17  2  0  0  0  0
 17 18  1  0  0  0  0
 18  4  1  0  0  0  0
 19 17  1  0  0  0  0
 20 21  1  0  0  0  0
 21 19  2  0  0  0  0
 22 25  2  0  0  0  0
 23 24  1  0  0  0  0
 24 20  2  0  0  0  0
 24 22  1  0  0  0  0
 25 19  1  0  0  0  0
 26 27  1  0  0  0  0
 26  5  1  0  0  0  0
 27 28  1  0  0  0  0
 29 32  2  0  0  0  0
 30 28  1  1  0  0  0
 30 33  1  0  0  0  0
 30 29  1  0  0  0  0
 31 32  1  0  0  0  0
 33 31  2  0  0  0  0
M  END
>  <MODEL>
9

>  <REMARK>
 VINA RESULT:      -7.8      4.879      9.398
  Name = 
  7 active torsions:
  status: ('A' for Active; 'I' for Inactive)
    1  A    between atoms: C_3  and  C_12
    2  A    between atoms: N_4  and  C_32
    3  A    between atoms: C_5  and  C_25
    4  A    between atoms: C_19  and  N_27
    5  A    between atoms: C_21  and  C_31
    6  A    between atoms: C_25  and  C_30
    7  A    between atoms: C_30  and  C_31
                            x       y       z     vdW  Elec       q    Type
                         _______ _______ _______ _____ _____    ______ ____

>  <TORSDO>
F 7

$$$$
