=
 OpenBabel11042410213D

 37 40  0  0  1  0  0  0  0  0999 V2000
  181.9650  178.8490  142.4650 C   0  0  0  0  0  0  0  0  0  0  0  0
  182.9740  178.7080  141.4770 C   0  0  0  0  0  0  0  0  0  0  0  0
  183.6400  178.5910  144.2030 C   0  0  0  0  0  3  0  0  0  0  0  0
  182.3140  178.7910  143.8170 C   0  0  0  0  0  3  0  0  0  0  0  0
  184.2990  178.5060  141.8810 C   0  0  0  0  0  3  0  0  0  0  0  0
  184.6390  178.4330  143.2380 C   0  0  0  0  0  0  0  0  0  0  0  0
  185.1670  178.0180  146.2280 Cl  0  0  0  0  0  0  0  0  0  0  0  0
  186.3770  178.0660  144.9500 C   0  0  0  0  0  0  0  0  0  0  0  0
  188.2330  177.7380  142.5030 C   0  0  0  0  0  3  0  0  0  0  0  0
  188.5590  176.9160  144.8120 C   0  0  0  0  0  3  0  0  0  0  0  0
  187.7990  178.0550  145.4060 C   0  0  0  0  0  2  0  0  0  0  0  0
  188.7680  176.7940  143.5020 C   0  0  0  0  0  0  0  0  0  0  0  0
  187.0590  178.3790  142.5740 C   0  0  0  0  0  3  0  0  0  0  0  0
  186.0450  178.2640  143.6530 C   0  0  0  0  0  0  0  0  0  0  0  0
  189.8000  175.4960  142.9440 Cl  0  0  0  0  0  0  0  0  0  0  0  0
  179.8110  180.7670  141.7550 O   0  0  0  0  0  0  0  0  0  0  0  0
  179.3720  180.4090  142.9790 C   0  0  0  0  0  1  0  0  0  0  0  0
  180.2310  179.1090  142.0780 P   0  0  1  0  0  0  0  0  0  0  0  0
  178.9320  175.9030  140.0280 C   0  0  0  0  0  1  0  0  0  0  0  0
  179.2180  177.9230  141.2030 C   0  0  0  0  0  3  0  0  0  0  0  0
  179.7470  176.8580  140.7260 N   0  0  0  0  0  0  0  0  0  0  0  0
  182.7280  178.7880  139.9980 C   0  0  2  0  0  3  0  0  0  0  0  0
  184.3860  177.4560  138.2270 C   0  0  0  0  0  0  0  0  0  0  0  0
  184.1600  176.3240  137.0730 S   0  0  0  0  0  0  0  0  0  0  0  0
  185.2400  178.3320  138.9370 N   0  0  0  0  0  2  0  0  0  0  0  0
  183.8670  178.2850  139.2480 N   0  0  0  0  0  0  0  0  0  0  0  0
  182.3430  180.1950  139.5470 C   0  0  2  0  0  3  0  0  0  0  0  0
  181.2620  180.2300  138.5270 C   0  0  1  0  0  0  0  0  0  0  0  0
  182.6160  180.3510  138.1700 O   0  0  0  0  0  0  0  0  0  0  0  0
  181.0100  178.5250  136.9100 O   0  0  0  0  0  0  0  0  0  0  0  0
  180.6590  178.9640  137.9920 C   0  0  0  0  0  3  0  0  0  0  0  0
  180.5130  181.5510  138.3890 C   0  0  0  0  0  2  0  0  0  0  0  0
  180.9300  182.3160  137.1390 C   0  0  0  0  0  2  0  0  0  0  0  0
  180.0650  183.5520  136.9290 C   0  0  1  0  0  3  0  0  0  0  0  0
  179.3140  183.8540  138.1370 N   0  0  0  0  0  1  0  0  0  0  0  0
  182.1330  184.7440  137.2240 O   0  0  0  0  0  1  0  0  0  0  0  0
  180.9200  184.7460  136.5310 C   0  0  0  0  0  2  0  0  0  0  0  0
  1  4  1  0  0  0  0
  2  5  1  0  0  0  0
  2  1  2  0  0  0  0
  4  3  2  0  0  0  0
  5  6  2  0  0  0  0
  6 14  1  0  0  0  0
  6  3  1  0  0  0  0
  8 11  1  0  0  0  0
  8  7  1  0  0  0  0
  9 13  2  0  0  0  0
  9 12  1  0  0  0  0
 10 11  1  0  0  0  0
 12 10  2  0  0  0  0
 13 14  1  0  0  0  0
 14  8  2  0  0  0  0
 15 12  1  0  0  0  0
 16 18  1  0  0  0  0
 16 17  1  0  0  0  0
 18 20  1  6  0  0  0
 18  1  1  0  0  0  0
 19 21  1  0  0  0  0
 21 20  2  0  0  0  0
 22  2  1  1  0  0  0
 23 25  1  0  0  0  0
 23 26  1  0  0  0  0
 24 23  2  0  0  0  0
 25 26  1  0  0  0  0
 26 22  1  0  0  0  0
 27 22  1  6  0  0  0
 28 31  1  6  0  0  0
 28 27  1  0  0  0  0
 29 28  1  0  0  0  0
 29 27  1  0  0  0  0
 30 31  2  0  0  0  0
 32 28  1  0  0  0  0
 33 32  1  0  0  0  0
 34 33  1  0  0  0  0
 34 35  1  1  0  0  0
 37 34  1  0  0  0  0
 37 36  1  0  0  0  0
M  END
>  <MODEL>
1

>  <REMARK>
 VINA RESULT:      -7.3      0.000      0.000
  Name = 
  11 active torsions:
  status: ('A' for Active; 'I' for Inactive)
    1  A    between atoms: C_2  and  P_36
    2  A    between atoms: C_3  and  C_20
    3  A    between atoms: C_6  and  C_20
    4  A    between atoms: C_14  and  P_36
    5  A    between atoms: C_16  and  CA_24
    6  A    between atoms: C_16  and  C_25
    7  A    between atoms: C_20  and  N_28
    8  A    between atoms: CA_24  and  C_31
    9  A    between atoms: C_25  and  C_34
   10  A    between atoms: C_26  and  C_33
   11  A    between atoms: C_30  and  C_34
                            x       y       z     vdW  Elec       q    Type
                         _______ _______ _______ _____ _____    ______ ____

>  <TORSDO>
F 11

$$$$
=
 OpenBabel11042410213D

 37 40  0  0  1  0  0  0  0  0999 V2000
  182.0160  179.1190  142.4730 C   0  0  0  0  0  0  0  0  0  0  0  0
  182.8310  178.3060  141.6450 C   0  0  0  0  0  0  0  0  0  0  0  0
  183.7140  179.0460  144.2060 C   0  0  0  0  0  3  0  0  0  0  0  0
  182.4700  179.4800  143.7440 C   0  0  0  0  0  3  0  0  0  0  0  0
  184.0740  177.8770  142.1240 C   0  0  0  0  0  3  0  0  0  0  0  0
  184.5170  178.2290  143.4050 C   0  0  0  0  0  0  0  0  0  0  0  0
  186.8990  178.7840  141.5580 Cl  0  0  0  0  0  0  0  0  0  0  0  0
  186.9620  178.0200  143.1440 C   0  0  0  0  0  0  0  0  0  0  0  0
  186.8570  177.1340  146.1000 C   0  0  0  0  0  3  0  0  0  0  0  0
  188.7710  178.0430  144.8250 C   0  0  0  0  0  3  0  0  0  0  0  0
  188.2890  177.4600  143.5390 C   0  0  0  0  0  2  0  0  0  0  0  0
  188.1290  177.8710  145.9800 C   0  0  0  0  0  0  0  0  0  0  0  0
  185.8760  177.1030  145.1890 C   0  0  0  0  0  3  0  0  0  0  0  0
  185.8490  177.8090  143.8840 C   0  0  0  0  0  0  0  0  0  0  0  0
  188.8750  178.4780  147.4420 Cl  0  0  0  0  0  0  0  0  0  0  0  0
  179.4420  180.3590  143.2860 O   0  0  0  0  0  0  0  0  0  0  0  0
  178.9770  179.1490  142.9110 C   0  0  0  0  0  1  0  0  0  0  0  0
  180.4010  179.7310  141.9770 P   0  0  1  0  0  0  0  0  0  0  0  0
  179.2490  180.4760  138.1970 C   0  0  0  0  0  1  0  0  0  0  0  0
  180.0760  180.5120  140.4010 C   0  0  0  0  0  3  0  0  0  0  0  0
  179.5160  179.8470  139.4610 N   0  0  0  0  0  0  0  0  0  0  0  0
  182.4680  177.8830  140.2500 C   0  0  2  0  0  3  0  0  0  0  0  0
  180.6390  175.8830  139.6880 C   0  0  0  0  0  0  0  0  0  0  0  0
  180.5040  174.7450  138.5250 S   0  0  0  0  0  0  0  0  0  0  0  0
  180.1600  176.4940  140.8700 N   0  0  0  0  0  2  0  0  0  0  0  0
  181.3290  176.9800  140.2540 N   0  0  0  0  0  0  0  0  0  0  0  0
  183.6530  177.2820  139.4970 C   0  0  2  0  0  3  0  0  0  0  0  0
  184.3130  178.2230  138.5540 C   0  0  1  0  0  0  0  0  0  0  0  0
  183.3830  177.2670  138.1110 O   0  0  0  0  0  0  0  0  0  0  0  0
  184.2900  180.5440  138.9990 O   0  0  0  0  0  0  0  0  0  0  0  0
  183.8000  179.6220  138.3690 C   0  0  0  0  0  3  0  0  0  0  0  0
  185.7380  177.8720  138.1440 C   0  0  0  0  0  2  0  0  0  0  0  0
  185.8710  177.6950  136.6360 C   0  0  0  0  0  2  0  0  0  0  0  0
  187.1590  178.3190  136.1150 C   0  0  1  0  0  3  0  0  0  0  0  0
  187.5900  179.3970  136.9920 N   0  0  0  0  0  1  0  0  0  0  0  0
  189.2120  177.4340  137.0000 O   0  0  0  0  0  1  0  0  0  0  0  0
  188.2550  177.2710  135.9960 C   0  0  0  0  0  2  0  0  0  0  0  0
  1  4  1  0  0  0  0
  2  5  1  0  0  0  0
  2  1  2  0  0  0  0
  4  3  2  0  0  0  0
  5  6  2  0  0  0  0
  6 14  1  0  0  0  0
  6  3  1  0  0  0  0
  7  8  1  0  0  0  0
  8 11  1  0  0  0  0
  8 14  2  0  0  0  0
 10 12  2  0  0  0  0
 11 10  1  0  0  0  0
 12  9  1  0  0  0  0
 12 15  1  0  0  0  0
 13  9  2  0  0  0  0
 14 13  1  0  0  0  0
 17 16  1  0  0  0  0
 18 20  1  6  0  0  0
 18  1  1  0  0  0  0
 18 16  1  0  0  0  0
 19 21  1  0  0  0  0
 21 20  2  0  0  0  0
 22 26  1  0  0  0  0
 22  2  1  1  0  0  0
 23 26  1  0  0  0  0
 23 25  1  0  0  0  0
 24 23  2  0  0  0  0
 26 25  1  0  0  0  0
 27 22  1  1  0  0  0
 28 32  1  6  0  0  0
 28 27  1  0  0  0  0
 29 28  1  0  0  0  0
 29 27  1  0  0  0  0
 31 28  1  0  0  0  0
 31 30  2  0  0  0  0
 33 32  1  0  0  0  0
 34 33  1  0  0  0  0
 34 35  1  1  0  0  0
 37 34  1  0  0  0  0
 37 36  1  0  0  0  0
M  END
>  <MODEL>
2

>  <REMARK>
 VINA RESULT:      -7.0      2.413      4.527
  Name = 
  11 active torsions:
  status: ('A' for Active; 'I' for Inactive)
    1  A    between atoms: C_2  and  P_36
    2  A    between atoms: C_3  and  C_20
    3  A    between atoms: C_6  and  C_20
    4  A    between atoms: C_14  and  P_36
    5  A    between atoms: C_16  and  CA_24
    6  A    between atoms: C_16  and  C_25
    7  A    between atoms: C_20  and  N_28
    8  A    between atoms: CA_24  and  C_31
    9  A    between atoms: C_25  and  C_34
   10  A    between atoms: C_26  and  C_33
   11  A    between atoms: C_30  and  C_34
                            x       y       z     vdW  Elec       q    Type
                         _______ _______ _______ _____ _____    ______ ____

>  <TORSDO>
F 11

$$$$
=
 OpenBabel11042410213D

 37 40  0  0  1  0  0  0  0  0999 V2000
  182.1640  178.9260  142.3670 C   0  0  0  0  0  0  0  0  0  0  0  0
  183.0660  178.2480  141.5060 C   0  0  0  0  0  0  0  0  0  0  0  0
  183.9180  179.1300  144.0330 C   0  0  0  0  0  3  0  0  0  0  0  0
  182.6050  179.3600  143.6190 C   0  0  0  0  0  3  0  0  0  0  0  0
  184.3780  178.0230  141.9360 C   0  0  0  0  0  3  0  0  0  0  0  0
  184.8090  178.4470  143.2000 C   0  0  0  0  0  0  0  0  0  0  0  0
  185.2880  177.8630  146.1700 Cl  0  0  0  0  0  0  0  0  0  0  0  0
  186.5180  177.9710  144.9140 C   0  0  0  0  0  0  0  0  0  0  0  0
  188.4080  177.7650  142.4810 C   0  0  0  0  0  3  0  0  0  0  0  0
  188.6940  176.8130  144.7450 C   0  0  0  0  0  3  0  0  0  0  0  0
  187.9330  177.9230  145.3900 C   0  0  0  0  0  2  0  0  0  0  0  0
  188.9210  176.7630  143.4330 C   0  0  0  0  0  0  0  0  0  0  0  0
  187.2380  178.4100  142.5700 C   0  0  0  0  0  3  0  0  0  0  0  0
  186.2080  178.2440  143.6260 C   0  0  0  0  0  0  0  0  0  0  0  0
  189.9520  175.4890  142.8190 Cl  0  0  0  0  0  0  0  0  0  0  0  0
  179.4160  179.5570  143.3000 O   0  0  0  0  0  0  0  0  0  0  0  0
  179.1820  178.3310  142.7880 C   0  0  0  0  0  1  0  0  0  0  0  0
  180.4560  179.2730  141.9340 P   0  0  1  0  0  0  0  0  0  0  0  0
  179.1340  182.0560  139.3500 C   0  0  0  0  0  1  0  0  0  0  0  0
  179.9630  180.1510  140.4550 C   0  0  0  0  0  3  0  0  0  0  0  0
  179.5230  181.3510  140.5390 N   0  0  0  0  0  0  0  0  0  0  0  0
  182.7200  177.7670  140.1260 C   0  0  2  0  0  3  0  0  0  0  0  0
  180.3360  176.4060  139.7730 C   0  0  0  0  0  0  0  0  0  0  0  0
  178.9310  176.7320  139.0090 S   0  0  0  0  0  0  0  0  0  0  0  0
  181.1490  175.5270  140.5250 N   0  0  0  0  0  2  0  0  0  0  0  0
  181.6380  176.7970  140.1620 N   0  0  0  0  0  0  0  0  0  0  0  0
  183.9350  177.2180  139.3810 C   0  0  2  0  0  3  0  0  0  0  0  0
  184.5920  178.2030  138.4820 C   0  0  1  0  0  0  0  0  0  0  0  0
  183.6950  177.2400  137.9890 O   0  0  0  0  0  0  0  0  0  0  0  0
  184.5020  180.5070  139.0010 O   0  0  0  0  0  0  0  0  0  0  0  0
  184.0500  179.5950  138.3300 C   0  0  0  0  0  3  0  0  0  0  0  0
  186.0340  177.8980  138.0920 C   0  0  0  0  0  2  0  0  0  0  0  0
  186.2290  177.9010  136.5810 C   0  0  0  0  0  2  0  0  0  0  0  0
  187.5970  178.4520  136.1990 C   0  0  1  0  0  3  0  0  0  0  0  0
  188.1090  179.3110  137.2540 N   0  0  0  0  0  1  0  0  0  0  0  0
  189.4670  177.1630  136.9870 O   0  0  0  0  0  1  0  0  0  0  0  0
  188.5750  177.3200  135.9230 C   0  0  0  0  0  2  0  0  0  0  0  0
  1  4  1  0  0  0  0
  2  5  1  0  0  0  0
  2  1  2  0  0  0  0
  4  3  2  0  0  0  0
  5  6  2  0  0  0  0
  6 14  1  0  0  0  0
  6  3  1  0  0  0  0
  8 11  1  0  0  0  0
  8  7  1  0  0  0  0
  9 13  2  0  0  0  0
  9 12  1  0  0  0  0
 10 11  1  0  0  0  0
 12 10  2  0  0  0  0
 13 14  1  0  0  0  0
 14  8  2  0  0  0  0
 15 12  1  0  0  0  0
 17 16  1  0  0  0  0
 18 20  1  6  0  0  0
 18  1  1  0  0  0  0
 18 16  1  0  0  0  0
 19 21  1  0  0  0  0
 20 21  2  0  0  0  0
 22 26  1  0  0  0  0
 22  2  1  1  0  0  0
 23 26  1  0  0  0  0
 23 25  1  0  0  0  0
 24 23  2  0  0  0  0
 26 25  1  0  0  0  0
 27 22  1  1  0  0  0
 28 32  1  6  0  0  0
 28 27  1  0  0  0  0
 29 28  1  0  0  0  0
 29 27  1  0  0  0  0
 31 28  1  0  0  0  0
 31 30  2  0  0  0  0
 33 32  1  0  0  0  0
 34 33  1  0  0  0  0
 34 35  1  1  0  0  0
 37 34  1  0  0  0  0
 37 36  1  0  0  0  0
M  END
>  <MODEL>
3

>  <REMARK>
 VINA RESULT:      -6.9      2.386      4.446
  Name = 
  11 active torsions:
  status: ('A' for Active; 'I' for Inactive)
    1  A    between atoms: C_2  and  P_36
    2  A    between atoms: C_3  and  C_20
    3  A    between atoms: C_6  and  C_20
    4  A    between atoms: C_14  and  P_36
    5  A    between atoms: C_16  and  CA_24
    6  A    between atoms: C_16  and  C_25
    7  A    between atoms: C_20  and  N_28
    8  A    between atoms: CA_24  and  C_31
    9  A    between atoms: C_25  and  C_34
   10  A    between atoms: C_26  and  C_33
   11  A    between atoms: C_30  and  C_34
                            x       y       z     vdW  Elec       q    Type
                         _______ _______ _______ _____ _____    ______ ____

>  <TORSDO>
F 11

$$$$
=
 OpenBabel11042410213D

 37 40  0  0  1  0  0  0  0  0999 V2000
  189.3070  176.6330  138.7780 C   0  0  0  0  0  0  0  0  0  0  0  0
  188.2660  177.3710  139.3960 C   0  0  0  0  0  0  0  0  0  0  0  0
  190.5300  176.6120  140.8750 C   0  0  0  0  0  3  0  0  0  0  0  0
  190.4260  176.2600  139.5280 C   0  0  0  0  0  3  0  0  0  0  0  0
  188.3860  177.7180  140.7470 C   0  0  0  0  0  3  0  0  0  0  0  0
  189.5170  177.3560  141.4890 C   0  0  0  0  0  0  0  0  0  0  0  0
  187.0060  176.9210  143.1910 Cl  0  0  0  0  0  0  0  0  0  0  0  0
  188.5630  177.5200  143.7580 C   0  0  0  0  0  0  0  0  0  0  0  0
  191.4830  178.1060  144.5730 C   0  0  0  0  0  3  0  0  0  0  0  0
  189.6230  177.2770  145.9750 C   0  0  0  0  0  3  0  0  0  0  0  0
  188.5940  177.9990  145.1720 C   0  0  0  0  0  2  0  0  0  0  0  0
  190.9270  177.3490  145.7100 C   0  0  0  0  0  0  0  0  0  0  0  0
  190.9100  178.2580  143.3720 C   0  0  0  0  0  3  0  0  0  0  0  0
  189.6150  177.6870  142.9240 C   0  0  0  0  0  0  0  0  0  0  0  0
  192.0430  176.5770  146.8150 Cl  0  0  0  0  0  0  0  0  0  0  0  0
  190.8450  176.0000  136.3170 O   0  0  0  0  0  0  0  0  0  0  0  0
  190.2250  177.1180  135.8890 C   0  0  0  0  0  1  0  0  0  0  0  0
  189.2740  176.1290  137.0530 P   0  0  1  0  0  0  0  0  0  0  0  0
  185.8670  174.1630  136.2200 C   0  0  0  0  0  1  0  0  0  0  0  0
  188.0580  175.0120  136.3670 C   0  0  0  0  0  3  0  0  0  0  0  0
  186.8450  175.0570  136.7760 N   0  0  0  0  0  0  0  0  0  0  0  0
  187.0020  177.7970  138.7050 C   0  0  2  0  0  3  0  0  0  0  0  0
  187.1540  178.6710  136.0830 C   0  0  0  0  0  0  0  0  0  0  0  0
  186.6100  178.1070  134.6510 S   0  0  0  0  0  0  0  0  0  0  0  0
  187.8270  179.6600  136.8370 N   0  0  0  0  0  2  0  0  0  0  0  0
  187.2910  178.5300  137.4830 N   0  0  0  0  0  0  0  0  0  0  0  0
  186.0750  178.5900  139.6230 C   0  0  2  0  0  3  0  0  0  0  0  0
  184.6310  178.2960  139.4280 C   0  0  1  0  0  0  0  0  0  0  0  0
  185.2370  179.4270  138.8540 O   0  0  0  0  0  0  0  0  0  0  0  0
  183.3860  177.6720  137.5190 O   0  0  0  0  0  0  0  0  0  0  0  0
  184.1730  177.3210  138.3820 C   0  0  0  0  0  3  0  0  0  0  0  0
  183.7090  178.6640  140.5850 C   0  0  0  0  0  2  0  0  0  0  0  0
  184.2690  178.2060  141.9270 C   0  0  0  0  0  2  0  0  0  0  0  0
  183.7460  179.0680  143.0690 C   0  0  1  0  0  3  0  0  0  0  0  0
  182.2970  178.9800  143.1480 N   0  0  0  0  0  1  0  0  0  0  0  0
  183.6170  179.1160  145.4700 O   0  0  0  0  0  1  0  0  0  0  0  0
  184.3700  178.6460  144.3910 C   0  0  0  0  0  2  0  0  0  0  0  0
  1  2  2  0  0  0  0
  1  4  1  0  0  0  0
  2  5  1  0  0  0  0
  3  6  1  0  0  0  0
  4  3  2  0  0  0  0
  5  6  2  0  0  0  0
  6 14  1  0  0  0  0
  7  8  1  0  0  0  0
  8 11  1  0  0  0  0
  9 12  1  0  0  0  0
 11 10  1  0  0  0  0
 12 10  2  0  0  0  0
 12 15  1  0  0  0  0
 13  9  2  0  0  0  0
 14 13  1  0  0  0  0
 14  8  2  0  0  0  0
 16 18  1  0  0  0  0
 17 16  1  0  0  0  0
 18 20  1  1  0  0  0
 18  1  1  0  0  0  0
 19 21  1  0  0  0  0
 20 21  2  0  0  0  0
 22  2  1  1  0  0  0
 23 25  1  0  0  0  0
 23 26  1  0  0  0  0
 24 23  2  0  0  0  0
 25 26  1  0  0  0  0
 26 22  1  0  0  0  0
 27 22  1  6  0  0  0
 28 31  1  6  0  0  0
 28 27  1  0  0  0  0
 28 32  1  0  0  0  0
 29 28  1  0  0  0  0
 29 27  1  0  0  0  0
 30 31  2  0  0  0  0
 32 33  1  0  0  0  0
 33 34  1  0  0  0  0
 34 35  1  1  0  0  0
 34 37  1  0  0  0  0
 37 36  1  0  0  0  0
M  END
>  <MODEL>
4

>  <REMARK>
 VINA RESULT:      -6.9      4.155      6.728
  Name = 
  11 active torsions:
  status: ('A' for Active; 'I' for Inactive)
    1  A    between atoms: C_2  and  P_36
    2  A    between atoms: C_3  and  C_20
    3  A    between atoms: C_6  and  C_20
    4  A    between atoms: C_14  and  P_36
    5  A    between atoms: C_16  and  CA_24
    6  A    between atoms: C_16  and  C_25
    7  A    between atoms: C_20  and  N_28
    8  A    between atoms: CA_24  and  C_31
    9  A    between atoms: C_25  and  C_34
   10  A    between atoms: C_26  and  C_33
   11  A    between atoms: C_30  and  C_34
                            x       y       z     vdW  Elec       q    Type
                         _______ _______ _______ _____ _____    ______ ____

>  <TORSDO>
F 11

$$$$
=
 OpenBabel11042410213D

 37 40  0  0  1  0  0  0  0  0999 V2000
  189.3450  176.6050  138.6810 C   0  0  0  0  0  0  0  0  0  0  0  0
  188.3170  177.3500  139.3130 C   0  0  0  0  0  0  0  0  0  0  0  0
  190.6050  176.5950  140.7550 C   0  0  0  0  0  3  0  0  0  0  0  0
  190.4760  176.2350  139.4130 C   0  0  0  0  0  3  0  0  0  0  0  0
  188.4620  177.7050  140.6590 C   0  0  0  0  0  3  0  0  0  0  0  0
  189.6060  177.3450  141.3830 C   0  0  0  0  0  0  0  0  0  0  0  0
  187.0540  177.1960  143.0740 Cl  0  0  0  0  0  0  0  0  0  0  0  0
  188.6610  177.6390  143.6430 C   0  0  0  0  0  0  0  0  0  0  0  0
  191.6220  177.9330  144.4690 C   0  0  0  0  0  3  0  0  0  0  0  0
  189.6800  177.3190  145.8710 C   0  0  0  0  0  3  0  0  0  0  0  0
  188.7350  178.1320  145.0510 C   0  0  0  0  0  2  0  0  0  0  0  0
  190.9850  177.2530  145.6120 C   0  0  0  0  0  0  0  0  0  0  0  0
  191.0740  178.1250  143.2620 C   0  0  0  0  0  3  0  0  0  0  0  0
  189.7290  177.6850  142.8140 C   0  0  0  0  0  0  0  0  0  0  0  0
  192.0100  176.3860  146.7350 Cl  0  0  0  0  0  0  0  0  0  0  0  0
  190.8390  175.9190  136.2070 O   0  0  0  0  0  0  0  0  0  0  0  0
  190.2410  177.0490  135.7780 C   0  0  0  0  0  1  0  0  0  0  0  0
  189.2800  176.0910  136.9600 P   0  0  1  0  0  0  0  0  0  0  0  0
  185.8340  174.1530  136.2290 C   0  0  0  0  0  1  0  0  0  0  0  0
  188.0290  174.9990  136.2960 C   0  0  0  0  0  3  0  0  0  0  0  0
  186.8390  175.0270  136.7680 N   0  0  0  0  0  0  0  0  0  0  0  0
  187.0410  177.7740  138.6420 C   0  0  2  0  0  3  0  0  0  0  0  0
  187.1650  178.6790  136.0290 C   0  0  0  0  0  0  0  0  0  0  0  0
  186.6270  178.1190  134.5940 S   0  0  0  0  0  0  0  0  0  0  0  0
  187.8210  179.6740  136.7910 N   0  0  0  0  0  2  0  0  0  0  0  0
  187.3100  178.5250  137.4270 N   0  0  0  0  0  0  0  0  0  0  0  0
  186.1190  178.5460  139.5810 C   0  0  2  0  0  3  0  0  0  0  0  0
  184.6750  178.2400  139.4000 C   0  0  1  0  0  0  0  0  0  0  0  0
  185.2630  179.3840  138.8330 O   0  0  0  0  0  0  0  0  0  0  0  0
  183.7670  177.6850  137.2900 O   0  0  0  0  0  0  0  0  0  0  0  0
  184.2130  177.2740  138.3480 C   0  0  0  0  0  3  0  0  0  0  0  0
  183.7640  178.5850  140.5730 C   0  0  0  0  0  2  0  0  0  0  0  0
  182.5830  177.6280  140.6780 C   0  0  0  0  0  2  0  0  0  0  0  0
  181.2690  178.3820  140.8310 C   0  0  1  0  0  3  0  0  0  0  0  0
  181.1610  179.4210  139.8180 N   0  0  0  0  0  1  0  0  0  0  0  0
  179.5000  177.2340  141.9860 O   0  0  0  0  0  1  0  0  0  0  0  0
  180.0860  177.4300  140.7330 C   0  0  0  0  0  2  0  0  0  0  0  0
  1  2  2  0  0  0  0
  1  4  1  0  0  0  0
  2  5  1  0  0  0  0
  3  6  1  0  0  0  0
  4  3  2  0  0  0  0
  5  6  2  0  0  0  0
  6 14  1  0  0  0  0
  7  8  1  0  0  0  0
  8 11  1  0  0  0  0
  9 12  1  0  0  0  0
 11 10  1  0  0  0  0
 12 10  2  0  0  0  0
 12 15  1  0  0  0  0
 13  9  2  0  0  0  0
 14 13  1  0  0  0  0
 14  8  2  0  0  0  0
 16 18  1  0  0  0  0
 17 16  1  0  0  0  0
 18 20  1  1  0  0  0
 18  1  1  0  0  0  0
 19 21  1  0  0  0  0
 20 21  2  0  0  0  0
 22  2  1  1  0  0  0
 23 25  1  0  0  0  0
 23 26  1  0  0  0  0
 24 23  2  0  0  0  0
 25 26  1  0  0  0  0
 26 22  1  0  0  0  0
 27 22  1  6  0  0  0
 28 31  1  6  0  0  0
 28 27  1  0  0  0  0
 28 32  1  0  0  0  0
 29 28  1  0  0  0  0
 29 27  1  0  0  0  0
 30 31  2  0  0  0  0
 32 33  1  0  0  0  0
 33 34  1  0  0  0  0
 34 35  1  6  0  0  0
 37 34  1  0  0  0  0
 37 36  1  0  0  0  0
M  END
>  <MODEL>
5

>  <REMARK>
 VINA RESULT:      -6.8      3.819      6.511
  Name = 
  11 active torsions:
  status: ('A' for Active; 'I' for Inactive)
    1  A    between atoms: C_2  and  P_36
    2  A    between atoms: C_3  and  C_20
    3  A    between atoms: C_6  and  C_20
    4  A    between atoms: C_14  and  P_36
    5  A    between atoms: C_16  and  CA_24
    6  A    between atoms: C_16  and  C_25
    7  A    between atoms: C_20  and  N_28
    8  A    between atoms: CA_24  and  C_31
    9  A    between atoms: C_25  and  C_34
   10  A    between atoms: C_26  and  C_33
   11  A    between atoms: C_30  and  C_34
                            x       y       z     vdW  Elec       q    Type
                         _______ _______ _______ _____ _____    ______ ____

>  <TORSDO>
F 11

$$$$
=
 OpenBabel11042410213D

 37 40  0  0  1  0  0  0  0  0999 V2000
  181.9430  178.2490  137.5810 C   0  0  0  0  0  0  0  0  0  0  0  0
  182.4990  177.1280  138.2480 C   0  0  0  0  0  0  0  0  0  0  0  0
  182.7830  179.7020  139.3350 C   0  0  0  0  0  3  0  0  0  0  0  0
  182.0950  179.5240  138.1340 C   0  0  0  0  0  3  0  0  0  0  0  0
  183.1840  177.3230  139.4530 C   0  0  0  0  0  3  0  0  0  0  0  0
  183.3190  178.6010  140.0100 C   0  0  0  0  0  0  0  0  0  0  0  0
  181.7180  178.6880  142.6220 Cl  0  0  0  0  0  0  0  0  0  0  0  0
  183.4650  178.8450  142.4610 C   0  0  0  0  0  0  0  0  0  0  0  0
  186.5040  178.6360  141.9570 C   0  0  0  0  0  3  0  0  0  0  0  0
  185.2490  178.2000  144.0420 C   0  0  0  0  0  3  0  0  0  0  0  0
  184.1990  179.2060  143.7110 C   0  0  0  0  0  2  0  0  0  0  0  0
  186.2980  177.9660  143.2540 C   0  0  0  0  0  0  0  0  0  0  0  0
  185.5440  179.0030  141.0990 C   0  0  0  0  0  3  0  0  0  0  0  0
  184.0820  178.8020  141.2580 C   0  0  0  0  0  0  0  0  0  0  0  0
  187.5370  176.8700  143.8260 Cl  0  0  0  0  0  0  0  0  0  0  0  0
  181.9890  178.5020  134.6220 O   0  0  0  0  0  0  0  0  0  0  0  0
  181.1590  179.5270  134.9020 C   0  0  0  0  0  1  0  0  0  0  0  0
  181.0400  178.1320  136.0330 P   0  0  1  0  0  0  0  0  0  0  0  0
  178.9320  174.8950  134.9170 C   0  0  0  0  0  1  0  0  0  0  0  0
  179.7280  176.9540  135.7340 C   0  0  0  0  0  3  0  0  0  0  0  0
  179.9850  175.8430  135.1510 N   0  0  0  0  0  0  0  0  0  0  0  0
  182.4320  175.7170  137.7360 C   0  0  2  0  0  3  0  0  0  0  0  0
  180.1370  175.0040  139.1090 C   0  0  0  0  0  0  0  0  0  0  0  0
  179.1430  175.7650  140.1560 S   0  0  0  0  0  0  0  0  0  0  0  0
  180.4760  173.8620  138.3470 N   0  0  0  0  0  2  0  0  0  0  0  0
  181.2920  175.0080  138.2930 N   0  0  0  0  0  0  0  0  0  0  0  0
  183.7320  174.9520  137.9690 C   0  0  2  0  0  3  0  0  0  0  0  0
  184.6540  174.9520  136.8030 C   0  0  1  0  0  0  0  0  0  0  0  0
  183.8140  173.8590  137.0770 O   0  0  0  0  0  0  0  0  0  0  0  0
  183.8170  174.9850  134.5940 O   0  0  0  0  0  0  0  0  0  0  0  0
  184.2790  175.6320  135.5180 C   0  0  0  0  0  3  0  0  0  0  0  0
  186.1160  174.6410  137.1040 C   0  0  0  0  0  2  0  0  0  0  0  0
  187.0580  175.6570  136.4680 C   0  0  0  0  0  2  0  0  0  0  0  0
  187.8920  176.3750  137.5210 C   0  0  1  0  0  3  0  0  0  0  0  0
  189.2260  175.8000  137.5890 N   0  0  0  0  0  1  0  0  0  0  0  0
  187.6730  178.6210  138.3500 O   0  0  0  0  0  1  0  0  0  0  0  0
  187.9780  177.8640  137.2170 C   0  0  0  0  0  2  0  0  0  0  0  0
  1  4  2  0  0  0  0
  1  2  1  0  0  0  0
  2  5  2  0  0  0  0
  3  6  2  0  0  0  0
  4  3  1  0  0  0  0
  5  6  1  0  0  0  0
  6 14  1  0  0  0  0
  8  7  1  0  0  0  0
  8 11  1  0  0  0  0
  9 12  1  0  0  0  0
 11 10  1  0  0  0  0
 12 15  1  0  0  0  0
 12 10  2  0  0  0  0
 13 14  1  0  0  0  0
 13  9  2  0  0  0  0
 14  8  2  0  0  0  0
 16 17  1  0  0  0  0
 16 18  1  0  0  0  0
 18 20  1  6  0  0  0
 18  1  1  0  0  0  0
 19 21  1  0  0  0  0
 21 20  2  0  0  0  0
 22  2  1  1  0  0  0
 22 26  1  0  0  0  0
 23 24  2  0  0  0  0
 25 23  1  0  0  0  0
 26 25  1  0  0  0  0
 26 23  1  0  0  0  0
 27 22  1  6  0  0  0
 28 31  1  6  0  0  0
 28 29  1  0  0  0  0
 28 32  1  0  0  0  0
 28 27  1  0  0  0  0
 29 27  1  0  0  0  0
 30 31  2  0  0  0  0
 33 32  1  0  0  0  0
 33 34  1  0  0  0  0
 34 35  1  6  0  0  0
 37 34  1  0  0  0  0
 37 36  1  0  0  0  0
M  END
>  <MODEL>
6

>  <REMARK>
 VINA RESULT:      -6.5      3.683      6.147
  Name = 
  11 active torsions:
  status: ('A' for Active; 'I' for Inactive)
    1  A    between atoms: C_2  and  P_36
    2  A    between atoms: C_3  and  C_20
    3  A    between atoms: C_6  and  C_20
    4  A    between atoms: C_14  and  P_36
    5  A    between atoms: C_16  and  CA_24
    6  A    between atoms: C_16  and  C_25
    7  A    between atoms: C_20  and  N_28
    8  A    between atoms: CA_24  and  C_31
    9  A    between atoms: C_25  and  C_34
   10  A    between atoms: C_26  and  C_33
   11  A    between atoms: C_30  and  C_34
                            x       y       z     vdW  Elec       q    Type
                         _______ _______ _______ _____ _____    ______ ____

>  <TORSDO>
F 11

$$$$
=
 OpenBabel11042410213D

 37 40  0  0  1  0  0  0  0  0999 V2000
  188.7720  177.1700  137.6540 C   0  0  0  0  0  0  0  0  0  0  0  0
  189.7300  176.1920  138.0260 C   0  0  0  0  0  0  0  0  0  0  0  0
  188.5980  177.8710  139.9710 C   0  0  0  0  0  3  0  0  0  0  0  0
  188.2200  177.9990  138.6340 C   0  0  0  0  0  3  0  0  0  0  0  0
  190.0970  176.0740  139.3720 C   0  0  0  0  0  3  0  0  0  0  0  0
  189.5270  176.8980  140.3510 C   0  0  0  0  0  0  0  0  0  0  0  0
  192.3520  177.8770  141.0260 Cl  0  0  0  0  0  0  0  0  0  0  0  0
  191.1780  177.2120  142.1580 C   0  0  0  0  0  0  0  0  0  0  0  0
  188.8100  176.4500  143.9870 C   0  0  0  0  0  3  0  0  0  0  0  0
  190.8670  177.6960  144.5600 C   0  0  0  0  0  3  0  0  0  0  0  0
  191.6820  176.9700  143.5430 C   0  0  0  0  0  2  0  0  0  0  0  0
  189.5760  177.4390  144.7680 C   0  0  0  0  0  0  0  0  0  0  0  0
  188.9790  176.1680  142.6890 C   0  0  0  0  0  3  0  0  0  0  0  0
  189.9530  176.7960  141.7610 C   0  0  0  0  0  0  0  0  0  0  0  0
  188.7700  178.2530  146.0900 Cl  0  0  0  0  0  0  0  0  0  0  0  0
  189.2110  176.6430  134.7640 O   0  0  0  0  0  0  0  0  0  0  0  0
  189.4430  177.9720  134.7680 C   0  0  0  0  0  1  0  0  0  0  0  0
  188.2170  177.4180  135.9640 P   0  0  1  0  0  0  0  0  0  0  0  0
  184.2100  177.1180  135.8170 C   0  0  0  0  0  1  0  0  0  0  0  0
  186.4980  177.5670  135.4940 C   0  0  0  0  0  3  0  0  0  0  0  0
  185.5910  176.9930  136.1920 N   0  0  0  0  0  0  0  0  0  0  0  0
  190.4190  175.2690  137.0610 C   0  0  2  0  0  3  0  0  0  0  0  0
  188.3220  173.4870  136.7570 C   0  0  0  0  0  0  0  0  0  0  0  0
  186.7410  173.4950  137.1620 S   0  0  0  0  0  0  0  0  0  0  0  0
  189.4320  172.8520  136.1510 N   0  0  0  0  0  2  0  0  0  0  0  0
  189.5890  174.1160  136.7530 N   0  0  0  0  0  0  0  0  0  0  0  0
  191.8020  174.8450  137.5480 C   0  0  2  0  0  3  0  0  0  0  0  0
  192.9070  175.2030  136.6200 C   0  0  1  0  0  0  0  0  0  0  0  0
  192.3610  173.9080  136.6500 O   0  0  0  0  0  0  0  0  0  0  0  0
  193.5540  176.2330  134.5940 O   0  0  0  0  0  0  0  0  0  0  0  0
  192.6320  175.8900  135.3140 C   0  0  0  0  0  3  0  0  0  0  0  0
  194.3050  175.2510  137.2280 C   0  0  0  0  0  2  0  0  0  0  0  0
  195.1530  174.0580  136.8040 C   0  0  0  0  0  2  0  0  0  0  0  0
  196.5490  174.4920  136.3780 C   0  0  1  0  0  3  0  0  0  0  0  0
  196.5710  175.9190  136.0960 N   0  0  0  0  0  1  0  0  0  0  0  0
  198.1220  175.3170  137.9980 O   0  0  0  0  0  1  0  0  0  0  0  0
  197.5700  174.1550  137.4550 C   0  0  0  0  0  2  0  0  0  0  0  0
  1  2  2  0  0  0  0
  1  4  1  0  0  0  0
  2  5  1  0  0  0  0
  3  6  1  0  0  0  0
  4  3  2  0  0  0  0
  5  6  2  0  0  0  0
  6 14  1  0  0  0  0
  7  8  1  0  0  0  0
  8 11  1  0  0  0  0
  9 12  1  0  0  0  0
 10 12  2  0  0  0  0
 11 10  1  0  0  0  0
 12 15  1  0  0  0  0
 13  9  2  0  0  0  0
 14  8  2  0  0  0  0
 14 13  1  0  0  0  0
 16 17  1  0  0  0  0
 16 18  1  0  0  0  0
 18 20  1  1  0  0  0
 18  1  1  0  0  0  0
 19 21  1  0  0  0  0
 20 21  2  0  0  0  0
 22  2  1  1  0  0  0
 23 24  2  0  0  0  0
 25 26  1  0  0  0  0
 25 23  1  0  0  0  0
 26 23  1  0  0  0  0
 26 22  1  0  0  0  0
 27 22  1  6  0  0  0
 28 31  1  6  0  0  0
 28 29  1  0  0  0  0
 28 32  1  0  0  0  0
 28 27  1  0  0  0  0
 29 27  1  0  0  0  0
 30 31  2  0  0  0  0
 33 32  1  0  0  0  0
 34 35  1  1  0  0  0
 34 33  1  0  0  0  0
 34 37  1  0  0  0  0
 37 36  1  0  0  0  0
M  END
>  <MODEL>
7

>  <REMARK>
 VINA RESULT:      -6.5      7.074     10.505
  Name = 
  11 active torsions:
  status: ('A' for Active; 'I' for Inactive)
    1  A    between atoms: C_2  and  P_36
    2  A    between atoms: C_3  and  C_20
    3  A    between atoms: C_6  and  C_20
    4  A    between atoms: C_14  and  P_36
    5  A    between atoms: C_16  and  CA_24
    6  A    between atoms: C_16  and  C_25
    7  A    between atoms: C_20  and  N_28
    8  A    between atoms: CA_24  and  C_31
    9  A    between atoms: C_25  and  C_34
   10  A    between atoms: C_26  and  C_33
   11  A    between atoms: C_30  and  C_34
                            x       y       z     vdW  Elec       q    Type
                         _______ _______ _______ _____ _____    ______ ____

>  <TORSDO>
F 11

$$$$
=
 OpenBabel11042410213D

 37 40  0  0  1  0  0  0  0  0999 V2000
  188.2890  177.7360  139.8980 C   0  0  0  0  0  0  0  0  0  0  0  0
  187.4240  178.2920  140.8750 C   0  0  0  0  0  0  0  0  0  0  0  0
  189.9210  177.2510  141.6280 C   0  0  0  0  0  3  0  0  0  0  0  0
  189.5270  177.2190  140.2900 C   0  0  0  0  0  3  0  0  0  0  0  0
  187.8350  178.3190  142.2130 C   0  0  0  0  0  3  0  0  0  0  0  0
  189.0840  177.8140  142.5970 C   0  0  0  0  0  0  0  0  0  0  0  0
  186.8960  177.2440  144.6650 Cl  0  0  0  0  0  0  0  0  0  0  0  0
  188.5980  177.5540  145.0010 C   0  0  0  0  0  0  0  0  0  0  0  0
  191.6700  177.6690  145.2850 C   0  0  0  0  0  3  0  0  0  0  0  0
  190.0070  176.7230  146.8510 C   0  0  0  0  0  3  0  0  0  0  0  0
  188.9550  177.6990  146.4440 C   0  0  0  0  0  2  0  0  0  0  0  0
  191.2360  176.7310  146.3380 C   0  0  0  0  0  0  0  0  0  0  0  0
  190.9110  178.1380  144.2860 C   0  0  0  0  0  3  0  0  0  0  0  0
  189.4900  177.8050  144.0160 C   0  0  0  0  0  0  0  0  0  0  0  0
  192.4220  175.6310  147.0060 Cl  0  0  0  0  0  0  0  0  0  0  0  0
  188.9080  178.6050  137.1260 O   0  0  0  0  0  0  0  0  0  0  0  0
  187.7070  179.2020  137.2650 C   0  0  0  0  0  1  0  0  0  0  0  0
  187.8810  177.6450  138.1510 P   0  0  1  0  0  0  0  0  0  0  0  0
  186.0090  175.1120  135.6510 C   0  0  0  0  0  1  0  0  0  0  0  0
  187.2300  176.1810  137.3570 C   0  0  0  0  0  3  0  0  0  0  0  0
  186.5260  176.2900  136.2920 N   0  0  0  0  0  0  0  0  0  0  0  0
  186.0580  178.8440  140.5830 C   0  0  2  0  0  3  0  0  0  0  0  0
  184.3460  179.2620  142.7180 C   0  0  0  0  0  0  0  0  0  0  0  0
  182.9100  178.6380  143.1750 S   0  0  0  0  0  0  0  0  0  0  0  0
  185.4400  180.1270  142.9520 N   0  0  0  0  0  2  0  0  0  0  0  0
  185.4150  179.3270  141.7940 N   0  0  0  0  0  0  0  0  0  0  0  0
  185.1730  177.8440  139.8430 C   0  0  2  0  0  3  0  0  0  0  0  0
  184.2250  178.4670  138.8830 C   0  0  1  0  0  0  0  0  0  0  0  0
  183.8170  178.0700  140.1680 O   0  0  0  0  0  0  0  0  0  0  0  0
  183.0870  180.5360  138.7820 O   0  0  0  0  0  0  0  0  0  0  0  0
  184.1590  179.9570  138.7160 C   0  0  0  0  0  3  0  0  0  0  0  0
  183.6720  177.5510  137.7970 C   0  0  0  0  0  2  0  0  0  0  0  0
  182.1820  177.2830  137.9810 C   0  0  0  0  0  2  0  0  0  0  0  0
  181.9050  175.7970  138.1660 C   0  0  1  0  0  3  0  0  0  0  0  0
  183.1530  175.0600  138.2870 N   0  0  0  0  0  1  0  0  0  0  0  0
  180.8300  176.7500  140.0940 O   0  0  0  0  0  1  0  0  0  0  0  0
  181.0350  175.5600  139.3920 C   0  0  0  0  0  2  0  0  0  0  0  0
  1  4  2  0  0  0  0
  1  2  1  0  0  0  0
  2  5  2  0  0  0  0
  3  6  2  0  0  0  0
  4  3  1  0  0  0  0
  5  6  1  0  0  0  0
  6 14  1  0  0  0  0
  7  8  1  0  0  0  0
  8 11  1  0  0  0  0
  9 12  1  0  0  0  0
 11 10  1  0  0  0  0
 12 10  2  0  0  0  0
 12 15  1  0  0  0  0
 13  9  2  0  0  0  0
 14 13  1  0  0  0  0
 14  8  2  0  0  0  0
 16 17  1  0  0  0  0
 16 18  1  0  0  0  0
 18 20  1  6  0  0  0
 18  1  1  0  0  0  0
 19 21  1  0  0  0  0
 21 20  2  0  0  0  0
 22  2  1  1  0  0  0
 22 26  1  0  0  0  0
 23 25  1  0  0  0  0
 23 24  2  0  0  0  0
 26 23  1  0  0  0  0
 26 25  1  0  0  0  0
 27 29  1  0  0  0  0
 27 22  1  1  0  0  0
 28 32  1  6  0  0  0
 28 27  1  0  0  0  0
 28 29  1  0  0  0  0
 31 30  2  0  0  0  0
 31 28  1  0  0  0  0
 32 33  1  0  0  0  0
 33 34  1  0  0  0  0
 34 35  1  1  0  0  0
 34 37  1  0  0  0  0
 37 36  1  0  0  0  0
M  END
>  <MODEL>
8

>  <REMARK>
 VINA RESULT:      -6.0      3.716      6.102
  Name = 
  11 active torsions:
  status: ('A' for Active; 'I' for Inactive)
    1  A    between atoms: C_2  and  P_36
    2  A    between atoms: C_3  and  C_20
    3  A    between atoms: C_6  and  C_20
    4  A    between atoms: C_14  and  P_36
    5  A    between atoms: C_16  and  CA_24
    6  A    between atoms: C_16  and  C_25
    7  A    between atoms: C_20  and  N_28
    8  A    between atoms: CA_24  and  C_31
    9  A    between atoms: C_25  and  C_34
   10  A    between atoms: C_26  and  C_33
   11  A    between atoms: C_30  and  C_34
                            x       y       z     vdW  Elec       q    Type
                         _______ _______ _______ _____ _____    ______ ____

>  <TORSDO>
F 11

$$$$
=
 OpenBabel11042410213D

 37 40  0  0  1  0  0  0  0  0999 V2000
  189.4900  176.3880  138.7920 C   0  0  0  0  0  0  0  0  0  0  0  0
  188.4650  177.1980  139.3450 C   0  0  0  0  0  0  0  0  0  0  0  0
  190.6760  176.4540  140.9090 C   0  0  0  0  0  3  0  0  0  0  0  0
  190.5820  176.0240  139.5840 C   0  0  0  0  0  3  0  0  0  0  0  0
  188.5750  177.6230  140.6740 C   0  0  0  0  0  3  0  0  0  0  0  0
  189.6810  177.2680  141.4580 C   0  0  0  0  0  0  0  0  0  0  0  0
  187.0590  177.3600  143.0420 Cl  0  0  0  0  0  0  0  0  0  0  0  0
  188.6650  177.7450  143.6550 C   0  0  0  0  0  0  0  0  0  0  0  0
  191.6020  177.9220  144.5910 C   0  0  0  0  0  3  0  0  0  0  0  0
  189.5730  177.5000  145.9390 C   0  0  0  0  0  3  0  0  0  0  0  0
  188.7100  178.3150  145.0350 C   0  0  0  0  0  2  0  0  0  0  0  0
  190.8810  177.3460  145.7420 C   0  0  0  0  0  0  0  0  0  0  0  0
  191.1150  178.0740  143.3530 C   0  0  0  0  0  3  0  0  0  0  0  0
  189.7660  177.6840  142.8720 C   0  0  0  0  0  0  0  0  0  0  0  0
  191.8080  176.4910  146.9550 Cl  0  0  0  0  0  0  0  0  0  0  0  0
  187.8910  175.3160  136.5300 O   0  0  0  0  0  0  0  0  0  0  0  0
  188.6270  174.2190  136.7990 C   0  0  0  0  0  1  0  0  0  0  0  0
  189.4670  175.7810  137.1010 P   0  0  1  0  0  0  0  0  0  0  0  0
  192.5660  176.3050  134.5940 C   0  0  0  0  0  1  0  0  0  0  0  0
  190.5550  176.3810  135.8150 C   0  0  0  0  0  3  0  0  0  0  0  0
  191.6950  175.8270  135.6310 N   0  0  0  0  0  0  0  0  0  0  0  0
  187.2280  177.6220  138.6060 C   0  0  2  0  0  3  0  0  0  0  0  0
  187.4180  178.6710  136.0510 C   0  0  0  0  0  0  0  0  0  0  0  0
  186.8110  178.2580  134.5940 S   0  0  0  0  0  0  0  0  0  0  0  0
  188.1810  179.5440  136.8620 N   0  0  0  0  0  2  0  0  0  0  0  0
  187.5610  178.4170  137.4350 N   0  0  0  0  0  0  0  0  0  0  0  0
  186.2330  178.3500  139.5070 C   0  0  2  0  0  3  0  0  0  0  0  0
  184.8090  178.0700  139.1880 C   0  0  1  0  0  0  0  0  0  0  0  0
  185.4480  179.2380  138.7380 O   0  0  0  0  0  0  0  0  0  0  0  0
  183.8910  177.6280  137.0550 O   0  0  0  0  0  0  0  0  0  0  0  0
  184.4320  177.1700  138.0470 C   0  0  0  0  0  3  0  0  0  0  0  0
  183.8040  178.3570  140.2980 C   0  0  0  0  0  2  0  0  0  0  0  0
  182.6220  179.1810  139.7980 C   0  0  0  0  0  2  0  0  0  0  0  0
  181.3100  178.6850  140.3910 C   0  0  1  0  0  3  0  0  0  0  0  0
  180.2040  179.5150  139.9390 N   0  0  0  0  0  1  0  0  0  0  0  0
  180.8870  177.1000  138.6330 O   0  0  0  0  0  1  0  0  0  0  0  0
  181.0630  177.2320  140.0120 C   0  0  0  0  0  2  0  0  0  0  0  0
  1  2  2  0  0  0  0
  1  4  1  0  0  0  0
  2  5  1  0  0  0  0
  3  6  1  0  0  0  0
  4  3  2  0  0  0  0
  5  6  2  0  0  0  0
  6 14  1  0  0  0  0
  7  8  1  0  0  0  0
  8 11  1  0  0  0  0
  9 12  1  0  0  0  0
 11 10  1  0  0  0  0
 12 10  2  0  0  0  0
 12 15  1  0  0  0  0
 13  9  2  0  0  0  0
 14 13  1  0  0  0  0
 14  8  2  0  0  0  0
 16 17  1  0  0  0  0
 16 18  1  0  0  0  0
 18 20  1  6  0  0  0
 18  1  1  0  0  0  0
 19 21  1  0  0  0  0
 21 20  2  0  0  0  0
 22  2  1  1  0  0  0
 23 25  1  0  0  0  0
 23 26  1  0  0  0  0
 24 23  2  0  0  0  0
 25 26  1  0  0  0  0
 26 22  1  0  0  0  0
 27 22  1  6  0  0  0
 28 31  1  6  0  0  0
 28 27  1  0  0  0  0
 28 32  1  0  0  0  0
 29 28  1  0  0  0  0
 29 27  1  0  0  0  0
 30 31  2  0  0  0  0
 33 32  1  0  0  0  0
 33 34  1  0  0  0  0
 34 35  1  6  0  0  0
 36 37  1  0  0  0  0
 37 34  1  0  0  0  0
M  END
>  <MODEL>
9

>  <REMARK>
 VINA RESULT:      -6.0      4.120      6.920
  Name = 
  11 active torsions:
  status: ('A' for Active; 'I' for Inactive)
    1  A    between atoms: C_2  and  P_36
    2  A    between atoms: C_3  and  C_20
    3  A    between atoms: C_6  and  C_20
    4  A    between atoms: C_14  and  P_36
    5  A    between atoms: C_16  and  CA_24
    6  A    between atoms: C_16  and  C_25
    7  A    between atoms: C_20  and  N_28
    8  A    between atoms: CA_24  and  C_31
    9  A    between atoms: C_25  and  C_34
   10  A    between atoms: C_26  and  C_33
   11  A    between atoms: C_30  and  C_34
                            x       y       z     vdW  Elec       q    Type
                         _______ _______ _______ _____ _____    ______ ____

>  <TORSDO>
F 11

$$$$
