=
 OpenBabel11042410573D

 56 60  0  0  1  0  0  0  0  0999 V2000
  189.3040  177.8760  139.4290 C   0  0  2  0  0  3  0  0  0  0  0  0
  190.6940  177.4200  138.9930 C   0  0  0  0  0  2  0  0  0  0  0  0
  189.6290  177.3600  141.7430 C   0  0  2  0  0  3  0  0  0  0  0  0
  188.8560  177.0370  140.5400 N   0  0  0  0  0  2  0  0  0  0  0  0
  191.9190  177.1580  142.4410 O   0  0  0  0  0  0  0  0  0  0  0  0
  191.1150  177.2800  141.4770 C   0  0  0  0  0  0  0  0  0  0  0  0
  191.6130  177.4220  140.1330 N   0  0  0  0  0  0  0  0  0  0  0  0
  187.9020  176.5670  143.3280 C   0  0  0  0  0  0  0  0  0  0  0  0
  187.6330  177.6730  145.8090 C   0  0  0  0  0  0  0  0  0  0  0  0
  189.2160  176.4120  142.8660 C   0  0  1  0  0  0  0  0  0  0  0  0
  189.0050  177.5450  145.3730 C   0  0  0  0  0  3  0  0  0  0  0  0
  186.5900  176.6670  143.6700 C   0  0  0  0  0  3  0  0  0  0  0  0
  189.6640  175.1030  142.8580 F   0  0  0  0  0  0  0  0  0  0  0  0
  189.0490  176.9830  144.1340 C   0  0  0  0  0  0  0  0  0  0  0  0
  186.4910  177.2510  144.9820 C   0  0  0  0  0  3  0  0  0  0  0  0
  186.5090  179.1690  147.2720 O   0  0  0  0  0  0  0  0  0  0  0  0
  187.3520  178.2390  147.1460 C   0  0  0  0  0  0  0  0  0  0  0  0
  188.0260  177.7070  148.3750 C   0  0  0  0  0  2  0  0  0  0  0  0
  190.4610  177.6030  148.3170 N   0  0  0  0  0  1  0  0  0  0  0  0
  189.3250  178.4510  148.6440 C   0  0  0  0  0  2  0  0  0  0  0  0
  186.5170  177.6580  136.1510 C   0  0  0  0  0  3  0  0  0  0  0  0
  187.3480  178.7730  136.2760 C   0  0  0  0  0  3  0  0  0  0  0  0
  188.2540  178.8530  137.3360 C   0  0  0  0  0  3  0  0  0  0  0  0
  188.3450  177.8120  138.2740 C   0  0  0  0  0  0  0  0  0  0  0  0
  186.5910  176.6210  137.0830 C   0  0  0  0  0  0  0  0  0  0  0  0
  187.5060  176.6950  138.1420 C   0  0  0  0  0  3  0  0  0  0  0  0
  185.6500  175.4760  136.9770 C   0  0  0  0  0  2  0  0  0  0  0  0
  184.5090  175.7810  136.0140 C   0  0  0  0  0  2  0  0  0  0  0  0
  183.1830  175.4120  136.6570 C   0  0  0  0  0  2  0  0  0  0  0  0
  183.3500  175.1790  138.1500 C   0  0  0  0  0  2  0  0  0  0  0  0
  182.6120  176.1980  138.8890 N   0  0  0  0  0  0  0  0  0  0  0  0
  180.6720  174.9820  139.3290 O   0  0  0  0  0  0  0  0  0  0  0  0
  181.1840  176.0770  138.9690 C   0  0  0  0  0  0  0  0  0  0  0  0
  184.6680  179.3790  139.3730 C   0  0  0  0  0  2  0  0  0  0  0  0
  183.9350  178.2220  138.7550 C   0  0  0  0  0  3  0  0  0  0  0  0
  183.4300  177.3640  140.9380 N   0  0  0  0  0  2  0  0  0  0  0  0
  183.3080  177.3020  139.5060 C   0  0  0  0  0  0  0  0  0  0  0  0
  185.2280  179.0010  140.7410 C   0  0  0  0  0  2  0  0  0  0  0  0
  184.0900  178.4780  141.6120 C   0  0  0  0  0  2  0  0  0  0  0  0
  179.8120  177.2680  137.4520 O   0  0  0  0  0  0  0  0  0  0  0  0
  180.3010  177.2010  138.6140 C   0  0  0  0  0  0  0  0  0  0  0  0
  180.0130  178.1770  139.5830 O   0  0  0  0  0  0  0  0  0  0  0  0
  180.4350  179.5170  139.5470 C   0  0  0  0  0  3  0  0  0  0  0  0
  179.9900  180.4520  140.3680 C   0  0  0  0  0  2  0  0  0  0  0  0
  193.0360  177.3000  139.8550 C   0  0  0  0  0  2  0  0  0  0  0  0
  193.2940  176.2080  138.8220 C   0  0  0  0  0  2  0  0  0  0  0  0
  193.8300  176.7650  137.5870 N   0  0  0  0  0  2  0  0  0  0  0  0
  193.1560  176.1260  136.4650 C   0  0  0  0  0  2  0  0  0  0  0  0
  194.1680  175.6840  135.4200 C   0  0  0  0  0  2  0  0  0  0  0  0
  195.5020  175.3860  136.0800 C   0  0  0  0  0  2  0  0  0  0  0  0
  195.6170  173.9650  136.3540 N   0  0  0  0  0  0  0  0  0  0  0  0
  195.8970  173.3590  135.1740 O   0  0  0  0  0  1  0  0  0  0  0  0
  196.7900  173.8050  137.1990 C   0  0  0  0  0  2  0  0  0  0  0  0
  196.4410  174.0900  138.6200 C   0  0  0  0  0  0  0  0  0  0  0  0
  195.5260  173.4370  139.1900 O   0  0  0  0  0  0  0  0  0  0  0  0
  197.0880  175.1130  139.3000 O   0  0  0  0  0  1  0  0  0  0  0  0
  1 24  1  6  0  0  0
  1  4  1  0  0  0  0
  2  1  1  0  0  0  0
  2  7  1  0  0  0  0
  3  4  1  6  0  0  0
  3 10  1  0  0  0  0
  6  3  1  0  0  0  0
  6  5  2  0  0  0  0
  7  6  1  0  0  0  0
  8 12  2  0  0  0  0
  8 14  1  0  0  0  0
  9 17  1  0  0  0  0
 10 13  1  6  0  0  0
 10  8  1  0  0  0  0
 10 14  1  0  0  0  0
 11  9  1  0  0  0  0
 12 15  1  0  0  0  0
 14 11  2  0  0  0  0
 15  9  2  0  0  0  0
 17 16  2  0  0  0  0
 17 18  1  0  0  0  0
 18 20  1  0  0  0  0
 19 20  1  0  0  0  0
 21 22  2  0  0  0  0
 21 25  1  0  0  0  0
 22 23  1  0  0  0  0
 23 24  2  0  0  0  0
 25 26  2  0  0  0  0
 26 24  1  0  0  0  0
 27 25  1  0  0  0  0
 28 29  1  0  0  0  0
 28 27  1  0  0  0  0
 29 30  1  0  0  0  0
 30 31  1  0  0  0  0
 31 33  1  0  0  0  0
 31 37  1  0  0  0  0
 33 32  2  0  0  0  0
 34 38  1  0  0  0  0
 35 34  1  0  0  0  0
 35 37  2  0  0  0  0
 36 39  1  0  0  0  0
 37 36  1  0  0  0  0
 38 39  1  0  0  0  0
 40 41  2  0  0  0  0
 41 33  1  0  0  0  0
 41 42  1  0  0  0  0
 43 42  1  0  0  0  0
 43 44  2  0  0  0  0
 45  7  1  0  0  0  0
 46 45  1  0  0  0  0
 47 46  1  0  0  0  0
 48 47  1  0  0  0  0
 49 50  1  0  0  0  0
 49 48  1  0  0  0  0
 50 51  1  0  0  0  0
 51 53  1  0  0  0  0
 52 51  1  0  0  0  0
 53 54  1  0  0  0  0
 54 55  2  0  0  0  0
 54 56  1  0  0  0  0
M  END
>  <MODEL>
1

>  <REMARK>
 VINA RESULT:      -7.0      0.000      0.000
  Name = 
  23 active torsions:
  status: ('A' for Active; 'I' for Inactive)
    1  A    between atoms: C_6  and  C_15
    2  A    between atoms: C_6  and  N_56
    3  A    between atoms: C_8  and  C_44
    4  A    between atoms: N_9  and  C_15
    5  A    between atoms: N_9  and  C_31
    6  A    between atoms: C_10  and  C_22
    7  A    between atoms: C_13  and  N_23
    8  A    between atoms: C_13  and  C_30
    9  A    between atoms: C_14  and  O_33
   10  A    between atoms: C_16  and  C_48
   11  A    between atoms: C_17  and  N_23
   12  A    between atoms: C_24  and  C_35
   13  A    between atoms: C_25  and  C_41
   14  A    between atoms: C_28  and  C_31
   15  A    between atoms: C_28  and  C_34
   16  A    between atoms: C_30  and  C_47
   17  A    between atoms: O_33  and  C_36
   18  A    between atoms: C_34  and  N_43
   19  A    between atoms: C_36  and  C_55
   20  A    between atoms: C_37  and  C_39
   21  A    between atoms: C_39  and  C_47
   22  A    between atoms: C_41  and  C_48
   23  A    between atoms: N_43  and  C_44
                            x       y       z     vdW  Elec       q    Type
                         _______ _______ _______ _____ _____    ______ ____

>  <TORSDO>
F 23

$$$$
=
 OpenBabel11042410573D

 56 60  0  0  1  0  0  0  0  0999 V2000
  189.4420  178.0120  139.5080 C   0  0  2  0  0  3  0  0  0  0  0  0
  190.7350  177.5040  138.8750 C   0  0  0  0  0  2  0  0  0  0  0  0
  190.0230  177.3480  141.7330 C   0  0  2  0  0  3  0  0  0  0  0  0
  189.0860  177.1370  140.6250 N   0  0  0  0  0  2  0  0  0  0  0  0
  192.3650  176.9800  142.1190 O   0  0  0  0  0  0  0  0  0  0  0  0
  191.4560  177.2000  141.2740 C   0  0  0  0  0  0  0  0  0  0  0  0
  191.7880  177.3910  139.8850 N   0  0  0  0  0  0  0  0  0  0  0  0
  188.4440  176.5370  143.4570 C   0  0  0  0  0  0  0  0  0  0  0  0
  188.4750  177.5350  145.9970 C   0  0  0  0  0  0  0  0  0  0  0  0
  189.6960  176.3630  142.8520 C   0  0  1  0  0  0  0  0  0  0  0  0
  189.7890  177.3840  145.4130 C   0  0  0  0  0  3  0  0  0  0  0  0
  187.1790  176.6620  143.9400 C   0  0  0  0  0  3  0  0  0  0  0  0
  190.0930  175.0420  142.7410 F   0  0  0  0  0  0  0  0  0  0  0  0
  189.6830  176.8790  144.1540 C   0  0  0  0  0  0  0  0  0  0  0  0
  187.2390  177.1870  145.2790 C   0  0  0  0  0  3  0  0  0  0  0  0
  189.3890  178.4110  148.0070 O   0  0  0  0  0  0  0  0  0  0  0  0
  188.3570  178.0470  147.3790 C   0  0  0  0  0  0  0  0  0  0  0  0
  187.0230  178.1810  148.0500 C   0  0  0  0  0  2  0  0  0  0  0  0
  184.8370  178.7810  147.1500 N   0  0  0  0  0  1  0  0  0  0  0  0
  186.1900  179.2640  147.3830 C   0  0  0  0  0  2  0  0  0  0  0  0
  186.2520  178.1820  136.6180 C   0  0  0  0  0  3  0  0  0  0  0  0
  187.5480  178.5370  136.2360 C   0  0  0  0  0  3  0  0  0  0  0  0
  188.5880  178.4860  137.1670 C   0  0  0  0  0  3  0  0  0  0  0  0
  188.3440  178.0670  138.4840 C   0  0  0  0  0  0  0  0  0  0  0  0
  185.9950  177.7750  137.9280 C   0  0  0  0  0  0  0  0  0  0  0  0
  187.0390  177.7130  138.8610 C   0  0  0  0  0  3  0  0  0  0  0  0
  184.5990  177.4700  138.3360 C   0  0  0  0  0  2  0  0  0  0  0  0
  183.5910  178.1890  137.4490 C   0  0  0  0  0  2  0  0  0  0  0  0
  182.2190  178.1570  138.1010 C   0  0  0  0  0  2  0  0  0  0  0  0
  182.2710  177.4370  139.4390 C   0  0  0  0  0  2  0  0  0  0  0  0
  181.7790  178.3220  140.4900 N   0  0  0  0  0  0  0  0  0  0  0  0
  179.4900  178.0090  140.1750 O   0  0  0  0  0  0  0  0  0  0  0  0
  180.4360  178.8160  140.3870 C   0  0  0  0  0  0  0  0  0  0  0  0
  184.8710  179.2150  142.5440 C   0  0  0  0  0  2  0  0  0  0  0  0
  183.9580  178.8290  141.4150 C   0  0  0  0  0  3  0  0  0  0  0  0
  182.0880  178.8180  142.9170 N   0  0  0  0  0  2  0  0  0  0  0  0
  182.6340  178.6950  141.5920 C   0  0  0  0  0  0  0  0  0  0  0  0
  184.3270  178.7140  143.8790 C   0  0  0  0  0  2  0  0  0  0  0  0
  182.9030  179.2300  144.0560 C   0  0  0  0  0  2  0  0  0  0  0  0
  179.9190  180.7600  141.6330 O   0  0  0  0  0  0  0  0  0  0  0  0
  180.1410  180.2550  140.4980 C   0  0  0  0  0  0  0  0  0  0  0  0
  180.1180  181.0410  139.3340 O   0  0  0  0  0  0  0  0  0  0  0  0
  181.2440  181.4360  138.5910 C   0  0  0  0  0  3  0  0  0  0  0  0
  181.1780  181.9890  137.3920 C   0  0  0  0  0  2  0  0  0  0  0  0
  193.1550  177.2050  139.4200 C   0  0  0  0  0  2  0  0  0  0  0  0
  193.1780  176.8300  137.9420 C   0  0  0  0  0  2  0  0  0  0  0  0
  193.8800  175.5710  137.7290 N   0  0  0  0  0  2  0  0  0  0  0  0
  194.0380  175.3720  136.2930 C   0  0  0  0  0  2  0  0  0  0  0  0
  194.1810  173.8930  135.9750 C   0  0  0  0  0  2  0  0  0  0  0  0
  195.6320  173.4670  136.1200 C   0  0  0  0  0  2  0  0  0  0  0  0
  195.8490  172.8700  137.4250 N   0  0  0  0  0  0  0  0  0  0  0  0
  195.7080  171.5300  137.2720 O   0  0  0  0  0  1  0  0  0  0  0  0
  197.2450  173.1110  137.7570 C   0  0  0  0  0  2  0  0  0  0  0  0
  197.4180  174.5030  138.2610 C   0  0  0  0  0  0  0  0  0  0  0  0
  196.8250  174.8740  139.3090 O   0  0  0  0  0  1  0  0  0  0  0  0
  198.1920  175.4070  137.5460 O   0  0  0  0  0  0  0  0  0  0  0  0
  1 24  1  6  0  0  0
  1  4  1  0  0  0  0
  2  1  1  0  0  0  0
  2  7  1  0  0  0  0
  3  4  1  6  0  0  0
  3 10  1  0  0  0  0
  6  3  1  0  0  0  0
  6  5  2  0  0  0  0
  7  6  1  0  0  0  0
  8 12  2  0  0  0  0
  8 14  1  0  0  0  0
  9 17  1  0  0  0  0
 10 13  1  6  0  0  0
 10  8  1  0  0  0  0
 10 14  1  0  0  0  0
 11  9  1  0  0  0  0
 12 15  1  0  0  0  0
 14 11  2  0  0  0  0
 15  9  2  0  0  0  0
 17 16  2  0  0  0  0
 17 18  1  0  0  0  0
 19 20  1  0  0  0  0
 20 18  1  0  0  0  0
 21 25  1  0  0  0  0
 22 21  2  0  0  0  0
 22 23  1  0  0  0  0
 23 24  2  0  0  0  0
 24 26  1  0  0  0  0
 25 27  1  0  0  0  0
 25 26  2  0  0  0  0
 28 29  1  0  0  0  0
 28 27  1  0  0  0  0
 29 30  1  0  0  0  0
 30 31  1  0  0  0  0
 31 37  1  0  0  0  0
 32 33  2  0  0  0  0
 33 31  1  0  0  0  0
 33 41  1  0  0  0  0
 34 38  1  0  0  0  0
 35 37  2  0  0  0  0
 35 34  1  0  0  0  0
 36 39  1  0  0  0  0
 37 36  1  0  0  0  0
 38 39  1  0  0  0  0
 41 40  2  0  0  0  0
 42 41  1  0  0  0  0
 43 42  1  0  0  0  0
 44 43  2  0  0  0  0
 45  7  1  0  0  0  0
 46 45  1  0  0  0  0
 47 46  1  0  0  0  0
 48 47  1  0  0  0  0
 49 50  1  0  0  0  0
 49 48  1  0  0  0  0
 50 51  1  0  0  0  0
 51 53  1  0  0  0  0
 52 51  1  0  0  0  0
 53 54  1  0  0  0  0
 54 55  1  0  0  0  0
 56 54  2  0  0  0  0
M  END
>  <MODEL>
2

>  <REMARK>
 VINA RESULT:      -6.9      1.700      2.247
  Name = 
  23 active torsions:
  status: ('A' for Active; 'I' for Inactive)
    1  A    between atoms: C_6  and  C_15
    2  A    between atoms: C_6  and  N_56
    3  A    between atoms: C_8  and  C_44
    4  A    between atoms: N_9  and  C_15
    5  A    between atoms: N_9  and  C_31
    6  A    between atoms: C_10  and  C_22
    7  A    between atoms: C_13  and  N_23
    8  A    between atoms: C_13  and  C_30
    9  A    between atoms: C_14  and  O_33
   10  A    between atoms: C_16  and  C_48
   11  A    between atoms: C_17  and  N_23
   12  A    between atoms: C_24  and  C_35
   13  A    between atoms: C_25  and  C_41
   14  A    between atoms: C_28  and  C_31
   15  A    between atoms: C_28  and  C_34
   16  A    between atoms: C_30  and  C_47
   17  A    between atoms: O_33  and  C_36
   18  A    between atoms: C_34  and  N_43
   19  A    between atoms: C_36  and  C_55
   20  A    between atoms: C_37  and  C_39
   21  A    between atoms: C_39  and  C_47
   22  A    between atoms: C_41  and  C_48
   23  A    between atoms: N_43  and  C_44
                            x       y       z     vdW  Elec       q    Type
                         _______ _______ _______ _____ _____    ______ ____

>  <TORSDO>
F 23

$$$$
=
 OpenBabel11042410573D

 56 60  0  0  1  0  0  0  0  0999 V2000
  190.0380  176.5870  138.0600 C   0  0  2  0  0  3  0  0  0  0  0  0
  191.1770  175.6720  137.6170 C   0  0  0  0  0  2  0  0  0  0  0  0
  191.2040  177.4680  139.9560 C   0  0  2  0  0  3  0  0  0  0  0  0
  190.0470  176.6810  139.5200 N   0  0  0  0  0  2  0  0  0  0  0  0
  193.5930  177.2170  139.9030 O   0  0  0  0  0  0  0  0  0  0  0  0
  192.4880  176.9240  139.3720 C   0  0  0  0  0  0  0  0  0  0  0  0
  192.4510  176.1390  138.1640 N   0  0  0  0  0  0  0  0  0  0  0  0
  190.4570  176.5070  142.1100 C   0  0  0  0  0  0  0  0  0  0  0  0
  188.2290  177.4330  143.3860 C   0  0  0  0  0  0  0  0  0  0  0  0
  191.2510  177.4760  141.4820 C   0  0  1  0  0  0  0  0  0  0  0  0
  189.0070  178.4690  142.7440 C   0  0  0  0  0  3  0  0  0  0  0  0
  189.7700  175.4820  142.6810 C   0  0  0  0  0  3  0  0  0  0  0  0
  192.4440  177.7400  142.1300 F   0  0  0  0  0  0  0  0  0  0  0  0
  190.0970  177.9240  142.1390 C   0  0  0  0  0  0  0  0  0  0  0  0
  188.6070  176.0110  143.3440 C   0  0  0  0  0  3  0  0  0  0  0  0
  187.0800  178.1010  145.3540 O   0  0  0  0  0  0  0  0  0  0  0  0
  187.0070  177.8070  144.1290 C   0  0  0  0  0  0  0  0  0  0  0  0
  185.6730  177.8820  143.4490 C   0  0  0  0  0  2  0  0  0  0  0  0
  184.4090  179.9250  143.8620 N   0  0  0  0  0  1  0  0  0  0  0  0
  184.6520  178.5730  144.3390 C   0  0  0  0  0  2  0  0  0  0  0  0
  186.2500  175.1650  136.5840 C   0  0  0  0  0  3  0  0  0  0  0  0
  187.3560  174.3130  136.5770 C   0  0  0  0  0  3  0  0  0  0  0  0
  188.5880  174.7660  137.0530 C   0  0  0  0  0  3  0  0  0  0  0  0
  188.7230  176.0710  137.5520 C   0  0  0  0  0  0  0  0  0  0  0  0
  186.3730  176.4680  137.0680 C   0  0  0  0  0  0  0  0  0  0  0  0
  187.6070  176.9220  137.5540 C   0  0  0  0  0  3  0  0  0  0  0  0
  185.2040  177.3850  137.0020 C   0  0  0  0  0  2  0  0  0  0  0  0
  184.2620  177.0030  135.8670 C   0  0  0  0  0  2  0  0  0  0  0  0
  182.8570  177.4860  136.1830 C   0  0  0  0  0  2  0  0  0  0  0  0
  181.8270  176.4270  135.8260 C   0  0  0  0  0  2  0  0  0  0  0  0
  181.4340  175.7010  137.0300 N   0  0  0  0  0  0  0  0  0  0  0  0
  179.8670  177.2140  137.8610 O   0  0  0  0  0  0  0  0  0  0  0  0
  180.8340  176.4420  138.1030 C   0  0  0  0  0  0  0  0  0  0  0  0
  183.1320  172.2820  136.9620 C   0  0  0  0  0  2  0  0  0  0  0  0
  182.8690  173.7580  136.8630 C   0  0  0  0  0  3  0  0  0  0  0  0
  180.5640  173.3950  137.4210 N   0  0  0  0  0  2  0  0  0  0  0  0
  181.6620  174.2790  137.1340 C   0  0  0  0  0  0  0  0  0  0  0  0
  181.8690  171.4820  136.6530 C   0  0  0  0  0  2  0  0  0  0  0  0
  180.7490  171.9540  137.5740 C   0  0  0  0  0  2  0  0  0  0  0  0
  182.4830  175.8390  139.6890 O   0  0  0  0  0  0  0  0  0  0  0  0
  181.3430  176.3380  139.4810 C   0  0  0  0  0  0  0  0  0  0  0  0
  180.5470  176.8040  140.5410 O   0  0  0  0  0  0  0  0  0  0  0  0
  180.6720  178.0550  141.1700 C   0  0  0  0  0  3  0  0  0  0  0  0
  181.8300  178.6220  141.4580 C   0  0  0  0  0  2  0  0  0  0  0  0
  193.6730  175.5690  137.6160 C   0  0  0  0  0  2  0  0  0  0  0  0
  193.8620  175.9880  136.1620 C   0  0  0  0  0  2  0  0  0  0  0  0
  193.9980  174.8270  135.2920 N   0  0  0  0  0  2  0  0  0  0  0  0
  193.8490  173.6260  136.1030 C   0  0  0  0  0  2  0  0  0  0  0  0
  194.5200  172.4420  135.4250 C   0  0  0  0  0  2  0  0  0  0  0  0
  195.6800  171.9460  136.2700 C   0  0  0  0  0  2  0  0  0  0  0  0
  195.7700  172.7180  137.4970 N   0  0  0  0  0  0  0  0  0  0  0  0
  195.5400  171.8560  138.5190 O   0  0  0  0  0  1  0  0  0  0  0  0
  197.1550  173.1470  137.6100 C   0  0  0  0  0  2  0  0  0  0  0  0
  197.2160  174.5710  138.0450 C   0  0  0  0  0  0  0  0  0  0  0  0
  197.7250  175.4420  137.2890 O   0  0  0  0  0  0  0  0  0  0  0  0
  196.7620  174.9300  139.3070 O   0  0  0  0  0  1  0  0  0  0  0  0
  1 24  1  1  0  0  0
  1  4  1  0  0  0  0
  2  1  1  0  0  0  0
  2  7  1  0  0  0  0
  3  6  1  6  0  0  0
  3 10  1  0  0  0  0
  4  3  1  0  0  0  0
  6  5  2  0  0  0  0
  7  6  1  0  0  0  0
  8 14  2  0  0  0  0
  8 12  1  0  0  0  0
  9 17  1  0  0  0  0
 10  8  1  0  0  0  0
 10 13  1  1  0  0  0
 10 14  1  0  0  0  0
 11  9  2  0  0  0  0
 12 15  2  0  0  0  0
 14 11  1  0  0  0  0
 15  9  1  0  0  0  0
 17 16  2  0  0  0  0
 18 17  1  0  0  0  0
 18 20  1  0  0  0  0
 19 20  1  0  0  0  0
 21 25  1  0  0  0  0
 22 21  2  0  0  0  0
 22 23  1  0  0  0  0
 23 24  2  0  0  0  0
 24 26  1  0  0  0  0
 25 26  2  0  0  0  0
 27 25  1  0  0  0  0
 28 29  1  0  0  0  0
 28 27  1  0  0  0  0
 30 29  1  0  0  0  0
 30 31  1  0  0  0  0
 31 37  1  0  0  0  0
 31 33  1  0  0  0  0
 32 33  2  0  0  0  0
 33 41  1  0  0  0  0
 35 34  1  0  0  0  0
 35 37  2  0  0  0  0
 36 39  1  0  0  0  0
 37 36  1  0  0  0  0
 38 34  1  0  0  0  0
 38 39  1  0  0  0  0
 41 40  2  0  0  0  0
 41 42  1  0  0  0  0
 42 43  1  0  0  0  0
 43 44  2  0  0  0  0
 45  7  1  0  0  0  0
 46 45  1  0  0  0  0
 47 48  1  0  0  0  0
 47 46  1  0  0  0  0
 49 48  1  0  0  0  0
 49 50  1  0  0  0  0
 50 51  1  0  0  0  0
 51 53  1  0  0  0  0
 51 52  1  0  0  0  0
 53 54  1  0  0  0  0
 54 56  1  0  0  0  0
 55 54  2  0  0  0  0
M  END
>  <MODEL>
3

>  <REMARK>
 VINA RESULT:      -5.7      2.313      3.655
  Name = 
  23 active torsions:
  status: ('A' for Active; 'I' for Inactive)
    1  A    between atoms: C_6  and  C_15
    2  A    between atoms: C_6  and  N_56
    3  A    between atoms: C_8  and  C_44
    4  A    between atoms: N_9  and  C_15
    5  A    between atoms: N_9  and  C_31
    6  A    between atoms: C_10  and  C_22
    7  A    between atoms: C_13  and  N_23
    8  A    between atoms: C_13  and  C_30
    9  A    between atoms: C_14  and  O_33
   10  A    between atoms: C_16  and  C_48
   11  A    between atoms: C_17  and  N_23
   12  A    between atoms: C_24  and  C_35
   13  A    between atoms: C_25  and  C_41
   14  A    between atoms: C_28  and  C_31
   15  A    between atoms: C_28  and  C_34
   16  A    between atoms: C_30  and  C_47
   17  A    between atoms: O_33  and  C_36
   18  A    between atoms: C_34  and  N_43
   19  A    between atoms: C_36  and  C_55
   20  A    between atoms: C_37  and  C_39
   21  A    between atoms: C_39  and  C_47
   22  A    between atoms: C_41  and  C_48
   23  A    between atoms: N_43  and  C_44
                            x       y       z     vdW  Elec       q    Type
                         _______ _______ _______ _____ _____    ______ ____

>  <TORSDO>
F 23

$$$$
=
 OpenBabel11042410573D

 56 60  0  0  1  0  0  0  0  0999 V2000
  188.0630  178.0750  139.4470 C   0  0  2  0  0  3  0  0  0  0  0  0
  188.1580  176.8250  138.5760 C   0  0  0  0  0  2  0  0  0  0  0  0
  190.3020  177.9200  140.2790 C   0  0  2  0  0  3  0  0  0  0  0  0
  188.8830  177.8810  140.6430 N   0  0  0  0  0  2  0  0  0  0  0  0
  191.7960  176.5680  138.9690 O   0  0  0  0  0  0  0  0  0  0  0  0
  190.6090  176.9450  139.1640 C   0  0  0  0  0  0  0  0  0  0  0  0
  189.5570  176.5130  138.2800 N   0  0  0  0  0  0  0  0  0  0  0  0
  190.6760  176.5690  142.3180 C   0  0  0  0  0  0  0  0  0  0  0  0
  189.5850  177.2800  144.7160 C   0  0  0  0  0  0  0  0  0  0  0  0
  191.1410  177.6230  141.5190 C   0  0  1  0  0  0  0  0  0  0  0  0
  190.0390  178.4030  143.9250 C   0  0  0  0  0  3  0  0  0  0  0  0
  190.2630  175.4700  143.0030 C   0  0  0  0  0  3  0  0  0  0  0  0
  192.5200  177.7200  141.4550 F   0  0  0  0  0  0  0  0  0  0  0  0
  190.5710  177.9610  142.7530 C   0  0  0  0  0  0  0  0  0  0  0  0
  189.6980  175.8860  144.2600 C   0  0  0  0  0  3  0  0  0  0  0  0
  189.7410  177.6900  147.0500 O   0  0  0  0  0  0  0  0  0  0  0  0
  188.9930  177.5310  146.0480 C   0  0  0  0  0  0  0  0  0  0  0  0
  187.5090  177.6390  146.2330 C   0  0  0  0  0  2  0  0  0  0  0  0
  185.9040  179.1330  147.2990 N   0  0  0  0  0  1  0  0  0  0  0  0
  187.1780  178.4530  147.4740 C   0  0  0  0  0  2  0  0  0  0  0  0
  183.9780  178.9150  140.5230 C   0  0  0  0  0  3  0  0  0  0  0  0
  184.3250  178.7940  139.1760 C   0  0  0  0  0  3  0  0  0  0  0  0
  185.6470  178.5230  138.8180 C   0  0  0  0  0  3  0  0  0  0  0  0
  186.6320  178.3570  139.8040 C   0  0  0  0  0  0  0  0  0  0  0  0
  184.9500  178.7630  141.5130 C   0  0  0  0  0  0  0  0  0  0  0  0
  186.2760  178.4810  141.1560 C   0  0  0  0  0  3  0  0  0  0  0  0
  184.5780  178.9660  142.9380 C   0  0  0  0  0  2  0  0  0  0  0  0
  183.1950  179.5890  143.0680 C   0  0  0  0  0  2  0  0  0  0  0  0
  182.1380  178.5850  142.6400 C   0  0  0  0  0  2  0  0  0  0  0  0
  180.7970  179.2680  142.4230 C   0  0  0  0  0  2  0  0  0  0  0  0
  180.2530  178.8770  141.1260 N   0  0  0  0  0  0  0  0  0  0  0  0
  179.1310  176.9410  141.7830 O   0  0  0  0  0  0  0  0  0  0  0  0
  179.8760  177.5050  140.9360 C   0  0  0  0  0  0  0  0  0  0  0  0
  180.8480  180.8500  137.9130 C   0  0  0  0  0  2  0  0  0  0  0  0
  180.9670  179.8500  139.0270 C   0  0  0  0  0  3  0  0  0  0  0  0
  179.1350  180.8940  140.1730 N   0  0  0  0  0  2  0  0  0  0  0  0
  180.1170  179.8480  140.0670 C   0  0  0  0  0  0  0  0  0  0  0  0
  180.2610  182.1650  138.4200 C   0  0  0  0  0  2  0  0  0  0  0  0
  178.9320  181.8760  139.1120 C   0  0  0  0  0  2  0  0  0  0  0  0
  181.5900  176.4470  139.6940 O   0  0  0  0  0  0  0  0  0  0  0  0
  180.3640  176.7320  139.7800 C   0  0  0  0  0  0  0  0  0  0  0  0
  179.4480  176.3210  138.7970 O   0  0  0  0  0  0  0  0  0  0  0  0
  179.0750  174.9930  138.5300 C   0  0  0  0  0  3  0  0  0  0  0  0
  179.1470  174.0150  139.4160 C   0  0  0  0  0  2  0  0  0  0  0  0
  189.8260  175.5390  137.2320 C   0  0  0  0  0  2  0  0  0  0  0  0
  190.0300  176.2310  135.8890 C   0  0  0  0  0  2  0  0  0  0  0  0
  190.6470  175.3320  134.9210 N   0  0  0  0  0  2  0  0  0  0  0  0
  191.5800  174.4650  135.6300 C   0  0  0  0  0  2  0  0  0  0  0  0
  193.0100  174.7770  135.2200 C   0  0  0  0  0  2  0  0  0  0  0  0
  193.6860  175.6180  136.2870 C   0  0  0  0  0  2  0  0  0  0  0  0
  194.9520  175.0170  136.6690 N   0  0  0  0  0  0  0  0  0  0  0  0
  195.9210  175.9130  136.3570 O   0  0  0  0  0  1  0  0  0  0  0  0
  194.9310  174.9060  138.1190 C   0  0  0  0  0  2  0  0  0  0  0  0
  195.7790  173.7610  138.5570 C   0  0  0  0  0  0  0  0  0  0  0  0
  197.0280  173.8980  138.6470 O   0  0  0  0  0  0  0  0  0  0  0  0
  195.1970  172.5280  138.8150 O   0  0  0  0  0  1  0  0  0  0  0  0
  1 24  1  1  0  0  0
  1  4  1  0  0  0  0
  2  1  1  0  0  0  0
  3  6  1  6  0  0  0
  3  4  1  0  0  0  0
  3 10  1  0  0  0  0
  5  6  2  0  0  0  0
  7  2  1  0  0  0  0
  7  6  1  0  0  0  0
  8 14  2  0  0  0  0
  8 12  1  0  0  0  0
  9 17  1  0  0  0  0
 10 13  1  6  0  0  0
 10  8  1  0  0  0  0
 10 14  1  0  0  0  0
 11  9  2  0  0  0  0
 12 15  2  0  0  0  0
 14 11  1  0  0  0  0
 15  9  1  0  0  0  0
 17 18  1  0  0  0  0
 17 16  2  0  0  0  0
 18 20  1  0  0  0  0
 19 20  1  0  0  0  0
 21 25  1  0  0  0  0
 22 21  2  0  0  0  0
 23 22  1  0  0  0  0
 23 24  2  0  0  0  0
 24 26  1  0  0  0  0
 25 27  1  0  0  0  0
 26 25  2  0  0  0  0
 27 28  1  0  0  0  0
 29 28  1  0  0  0  0
 30 29  1  0  0  0  0
 31 30  1  0  0  0  0
 33 31  1  0  0  0  0
 33 32  2  0  0  0  0
 34 38  1  0  0  0  0
 34 35  1  0  0  0  0
 35 37  2  0  0  0  0
 37 36  1  0  0  0  0
 37 31  1  0  0  0  0
 38 39  1  0  0  0  0
 39 36  1  0  0  0  0
 40 41  2  0  0  0  0
 41 33  1  0  0  0  0
 42 41  1  0  0  0  0
 43 42  1  0  0  0  0
 43 44  2  0  0  0  0
 45  7  1  0  0  0  0
 46 45  1  0  0  0  0
 47 48  1  0  0  0  0
 47 46  1  0  0  0  0
 49 48  1  0  0  0  0
 49 50  1  0  0  0  0
 50 51  1  0  0  0  0
 51 53  1  0  0  0  0
 52 51  1  0  0  0  0
 53 54  1  0  0  0  0
 54 55  2  0  0  0  0
 54 56  1  0  0  0  0
M  END
>  <MODEL>
4

>  <REMARK>
 VINA RESULT:      -5.7      2.254      3.897
  Name = 
  23 active torsions:
  status: ('A' for Active; 'I' for Inactive)
    1  A    between atoms: C_6  and  C_15
    2  A    between atoms: C_6  and  N_56
    3  A    between atoms: C_8  and  C_44
    4  A    between atoms: N_9  and  C_15
    5  A    between atoms: N_9  and  C_31
    6  A    between atoms: C_10  and  C_22
    7  A    between atoms: C_13  and  N_23
    8  A    between atoms: C_13  and  C_30
    9  A    between atoms: C_14  and  O_33
   10  A    between atoms: C_16  and  C_48
   11  A    between atoms: C_17  and  N_23
   12  A    between atoms: C_24  and  C_35
   13  A    between atoms: C_25  and  C_41
   14  A    between atoms: C_28  and  C_31
   15  A    between atoms: C_28  and  C_34
   16  A    between atoms: C_30  and  C_47
   17  A    between atoms: O_33  and  C_36
   18  A    between atoms: C_34  and  N_43
   19  A    between atoms: C_36  and  C_55
   20  A    between atoms: C_37  and  C_39
   21  A    between atoms: C_39  and  C_47
   22  A    between atoms: C_41  and  C_48
   23  A    between atoms: N_43  and  C_44
                            x       y       z     vdW  Elec       q    Type
                         _______ _______ _______ _____ _____    ______ ____

>  <TORSDO>
F 23

$$$$
=
 OpenBabel11042410573D

 56 60  0  0  1  0  0  0  0  0999 V2000
  183.7010  177.4740  140.1400 C   0  0  2  0  0  3  0  0  0  0  0  0
  184.6450  178.3790  139.3520 C   0  0  0  0  0  2  0  0  0  0  0  0
  183.0300  176.1730  138.2460 C   0  0  2  0  0  3  0  0  0  0  0  0
  182.5750  177.1030  139.2830 N   0  0  0  0  0  2  0  0  0  0  0  0
  184.5090  176.2690  136.3550 O   0  0  0  0  0  0  0  0  0  0  0  0
  184.2150  176.7310  137.4900 C   0  0  0  0  0  0  0  0  0  0  0  0
  185.0500  177.7320  138.1030 N   0  0  0  0  0  0  0  0  0  0  0  0
  180.9950  174.8610  137.7350 C   0  0  0  0  0  0  0  0  0  0  0  0
  181.1280  172.5070  136.3600 C   0  0  0  0  0  0  0  0  0  0  0  0
  181.8670  175.8710  137.3060 C   0  0  1  0  0  0  0  0  0  0  0  0
  182.0530  173.5120  135.8870 C   0  0  0  0  0  3  0  0  0  0  0  0
  180.1090  173.9610  138.2370 C   0  0  0  0  0  3  0  0  0  0  0  0
  181.2450  176.9060  136.6290 F   0  0  0  0  0  0  0  0  0  0  0  0
  181.9180  174.6500  136.6210 C   0  0  0  0  0  0  0  0  0  0  0  0
  180.2070  172.7370  137.4850 C   0  0  0  0  0  3  0  0  0  0  0  0
  179.9880  170.5850  135.5560 O   0  0  0  0  0  0  0  0  0  0  0  0
  181.0860  171.1920  135.6850 C   0  0  0  0  0  0  0  0  0  0  0  0
  182.3240  170.5720  135.1090 C   0  0  0  0  0  2  0  0  0  0  0  0
  184.6870  170.1530  135.5390 N   0  0  0  0  0  1  0  0  0  0  0  0
  183.4090  170.4520  136.1670 C   0  0  0  0  0  2  0  0  0  0  0  0
  182.4160  179.4870  143.7250 C   0  0  0  0  0  3  0  0  0  0  0  0
  181.4630  179.0200  142.8170 C   0  0  0  0  0  3  0  0  0  0  0  0
  181.8710  178.3670  141.6520 C   0  0  0  0  0  3  0  0  0  0  0  0
  183.2350  178.1640  141.3900 C   0  0  0  0  0  0  0  0  0  0  0  0
  183.7760  179.3010  143.4700 C   0  0  0  0  0  0  0  0  0  0  0  0
  184.1870  178.6370  142.3060 C   0  0  0  0  0  3  0  0  0  0  0  0
  184.7780  179.8670  144.4100 C   0  0  0  0  0  2  0  0  0  0  0  0
  184.9060  179.0140  145.6660 C   0  0  0  0  0  2  0  0  0  0  0  0
  186.3300  178.5030  145.7970 C   0  0  0  0  0  2  0  0  0  0  0  0
  186.5540  177.2870  144.9130 C   0  0  0  0  0  2  0  0  0  0  0  0
  187.9250  177.2940  144.4100 N   0  0  0  0  0  0  0  0  0  0  0  0
  187.5190  178.1700  142.2870 O   0  0  0  0  0  0  0  0  0  0  0  0
  188.1250  177.3150  142.9890 C   0  0  0  0  0  0  0  0  0  0  0  0
  191.4640  177.4990  145.8280 C   0  0  0  0  0  2  0  0  0  0  0  0
  190.2860  177.5230  144.8960 C   0  0  0  0  0  3  0  0  0  0  0  0
  188.8400  176.8520  146.6900 N   0  0  0  0  0  2  0  0  0  0  0  0
  189.0400  177.2660  145.3260 C   0  0  0  0  0  0  0  0  0  0  0  0
  191.2400  176.5040  146.9640 C   0  0  0  0  0  2  0  0  0  0  0  0
  189.9270  176.8430  147.6640 C   0  0  0  0  0  2  0  0  0  0  0  0
  188.9980  175.1330  142.7030 O   0  0  0  0  0  0  0  0  0  0  0  0
  189.0090  176.3390  142.3280 C   0  0  0  0  0  0  0  0  0  0  0  0
  189.8450  176.7700  141.2850 O   0  0  0  0  0  0  0  0  0  0  0  0
  191.2120  177.0740  141.4030 C   0  0  0  0  0  3  0  0  0  0  0  0
  191.9060  177.7170  140.4810 C   0  0  0  0  0  2  0  0  0  0  0  0
  186.1650  178.3140  137.3710 C   0  0  0  0  0  2  0  0  0  0  0  0
  187.4950  177.9140  138.0020 C   0  0  0  0  0  2  0  0  0  0  0  0
  187.7350  176.4830  137.8640 N   0  0  0  0  0  2  0  0  0  0  0  0
  189.1580  176.2770  137.6280 C   0  0  0  0  0  2  0  0  0  0  0  0
  189.5860  176.9610  136.3390 C   0  0  0  0  0  2  0  0  0  0  0  0
  190.5380  176.0660  135.5660 C   0  0  0  0  0  2  0  0  0  0  0  0
  191.5980  175.5930  136.4380 N   0  0  0  0  0  0  0  0  0  0  0  0
  191.4190  174.2570  136.5820 O   0  0  0  0  0  1  0  0  0  0  0  0
  192.8420  175.7740  135.7050 C   0  0  0  0  0  2  0  0  0  0  0  0
  193.9070  176.2750  136.6200 C   0  0  0  0  0  0  0  0  0  0  0  0
  193.5990  176.9530  137.6370 O   0  0  0  0  0  1  0  0  0  0  0  0
  195.2420  176.0410  136.3220 O   0  0  0  0  0  0  0  0  0  0  0  0
  1 24  1  1  0  0  0
  2  1  1  0  0  0  0
  3  6  1  6  0  0  0
  3  4  1  0  0  0  0
  4  1  1  0  0  0  0
  5  6  2  0  0  0  0
  6  7  1  0  0  0  0
  7  2  1  0  0  0  0
  8 12  1  0  0  0  0
  9 15  1  0  0  0  0
 10 13  1  6  0  0  0
 10  8  1  0  0  0  0
 10  3  1  0  0  0  0
 11  9  2  0  0  0  0
 11 14  1  0  0  0  0
 14 10  1  0  0  0  0
 14  8  2  0  0  0  0
 15 12  2  0  0  0  0
 16 17  2  0  0  0  0
 17  9  1  0  0  0  0
 18 17  1  0  0  0  0
 18 20  1  0  0  0  0
 19 20  1  0  0  0  0
 22 21  2  0  0  0  0
 23 22  1  0  0  0  0
 24 23  2  0  0  0  0
 24 26  1  0  0  0  0
 25 21  1  0  0  0  0
 25 27  1  0  0  0  0
 26 25  2  0  0  0  0
 27 28  1  0  0  0  0
 28 29  1  0  0  0  0
 30 29  1  0  0  0  0
 31 30  1  0  0  0  0
 31 37  1  0  0  0  0
 32 33  2  0  0  0  0
 33 31  1  0  0  0  0
 34 38  1  0  0  0  0
 35 37  2  0  0  0  0
 35 34  1  0  0  0  0
 36 39  1  0  0  0  0
 37 36  1  0  0  0  0
 38 39  1  0  0  0  0
 41 40  2  0  0  0  0
 41 33  1  0  0  0  0
 42 43  1  0  0  0  0
 42 41  1  0  0  0  0
 44 43  2  0  0  0  0
 45 46  1  0  0  0  0
 45  7  1  0  0  0  0
 47 46  1  0  0  0  0
 48 47  1  0  0  0  0
 49 48  1  0  0  0  0
 50 49  1  0  0  0  0
 50 51  1  0  0  0  0
 51 52  1  0  0  0  0
 53 51  1  0  0  0  0
 53 54  1  0  0  0  0
 54 55  1  0  0  0  0
 56 54  2  0  0  0  0
M  END
>  <MODEL>
5

>  <REMARK>
 VINA RESULT:      -5.7      3.212      9.188
  Name = 
  23 active torsions:
  status: ('A' for Active; 'I' for Inactive)
    1  A    between atoms: C_6  and  C_15
    2  A    between atoms: C_6  and  N_56
    3  A    between atoms: C_8  and  C_44
    4  A    between atoms: N_9  and  C_15
    5  A    between atoms: N_9  and  C_31
    6  A    between atoms: C_10  and  C_22
    7  A    between atoms: C_13  and  N_23
    8  A    between atoms: C_13  and  C_30
    9  A    between atoms: C_14  and  O_33
   10  A    between atoms: C_16  and  C_48
   11  A    between atoms: C_17  and  N_23
   12  A    between atoms: C_24  and  C_35
   13  A    between atoms: C_25  and  C_41
   14  A    between atoms: C_28  and  C_31
   15  A    between atoms: C_28  and  C_34
   16  A    between atoms: C_30  and  C_47
   17  A    between atoms: O_33  and  C_36
   18  A    between atoms: C_34  and  N_43
   19  A    between atoms: C_36  and  C_55
   20  A    between atoms: C_37  and  C_39
   21  A    between atoms: C_39  and  C_47
   22  A    between atoms: C_41  and  C_48
   23  A    between atoms: N_43  and  C_44
                            x       y       z     vdW  Elec       q    Type
                         _______ _______ _______ _____ _____    ______ ____

>  <TORSDO>
F 23

$$$$
=
 OpenBabel11042410573D

 56 60  0  0  1  0  0  0  0  0999 V2000
  182.7790  177.8440  140.1380 C   0  0  2  0  0  3  0  0  0  0  0  0
  184.0330  178.4820  139.5460 C   0  0  0  0  0  2  0  0  0  0  0  0
  181.7490  177.4050  138.0220 C   0  0  2  0  0  3  0  0  0  0  0  0
  181.6380  178.1550  139.2770 N   0  0  0  0  0  2  0  0  0  0  0  0
  183.2380  177.3890  136.1360 O   0  0  0  0  0  0  0  0  0  0  0  0
  183.0910  177.6350  137.3640 C   0  0  0  0  0  0  0  0  0  0  0  0
  184.2170  178.0570  138.1580 N   0  0  0  0  0  0  0  0  0  0  0  0
  180.9580  178.6670  136.0460 C   0  0  0  0  0  0  0  0  0  0  0  0
  180.0880  181.2450  136.2590 C   0  0  0  0  0  0  0  0  0  0  0  0
  180.6040  177.8120  137.0990 C   0  0  1  0  0  0  0  0  0  0  0  0
  179.7070  180.4070  137.3740 C   0  0  0  0  0  3  0  0  0  0  0  0
  181.3580  179.3990  134.9730 C   0  0  0  0  0  3  0  0  0  0  0  0
  179.6220  176.8920  136.7760 F   0  0  0  0  0  0  0  0  0  0  0  0
  180.1750  179.1430  137.1860 C   0  0  0  0  0  0  0  0  0  0  0  0
  180.8780  180.7490  135.1220 C   0  0  0  0  0  3  0  0  0  0  0  0
  179.1300  183.1480  135.2080 O   0  0  0  0  0  0  0  0  0  0  0  0
  179.6590  182.6610  136.2440 C   0  0  0  0  0  0  0  0  0  0  0  0
  179.8060  183.5330  137.4550 C   0  0  0  0  0  2  0  0  0  0  0  0
  181.9170  184.7340  137.2410 N   0  0  0  0  0  1  0  0  0  0  0  0
  180.4740  184.8500  137.0940 C   0  0  0  0  0  2  0  0  0  0  0  0
  182.1970  179.2580  144.1650 C   0  0  0  0  0  3  0  0  0  0  0  0
  181.1410  179.3170  143.2540 C   0  0  0  0  0  3  0  0  0  0  0  0
  181.3200  178.8620  141.9470 C   0  0  0  0  0  3  0  0  0  0  0  0
  182.5550  178.3310  141.5410 C   0  0  0  0  0  0  0  0  0  0  0  0
  183.4330  178.7420  143.7710 C   0  0  0  0  0  0  0  0  0  0  0  0
  183.6130  178.2760  142.4620 C   0  0  0  0  0  3  0  0  0  0  0  0
  184.5670  178.7520  144.7310 C   0  0  0  0  0  2  0  0  0  0  0  0
  185.9070  178.7960  144.0080 C   0  0  0  0  0  2  0  0  0  0  0  0
  186.6790  177.5160  144.2800 C   0  0  0  0  0  2  0  0  0  0  0  0
  187.1170  176.8600  142.9810 C   0  0  0  0  0  2  0  0  0  0  0  0
  188.2610  177.5800  142.4310 N   0  0  0  0  0  0  0  0  0  0  0  0
  187.1120  179.0830  141.0680 O   0  0  0  0  0  0  0  0  0  0  0  0
  188.0850  178.2910  141.1960 C   0  0  0  0  0  0  0  0  0  0  0  0
  191.3660  176.3550  144.2850 C   0  0  0  0  0  2  0  0  0  0  0  0
  190.0440  176.4050  143.5720 C   0  0  0  0  0  2  0  0  0  0  0  0
  190.2170  178.7910  143.3970 N   0  0  0  0  0  0  0  0  0  0  0  0
  189.5340  177.5580  143.1100 C   0  0  0  0  0  0  0  0  0  0  0  0
  191.6320  177.6590  145.0310 C   0  0  0  0  0  2  0  0  0  0  0  0
  191.5240  178.8210  144.0470 C   0  0  0  0  0  2  0  0  0  0  0  0
  188.9910  178.9090  139.0990 O   0  0  0  0  0  0  0  0  0  0  0  0
  189.0060  178.0940  140.0640 C   0  0  0  0  0  0  0  0  0  0  0  0
  189.8910  177.0040  140.0830 O   0  0  0  0  0  0  0  0  0  0  0  0
  191.2310  177.0290  139.6600 C   0  0  0  0  0  3  0  0  0  0  0  0
  192.2340  177.4480  140.4120 C   0  0  0  0  0  2  0  0  0  0  0  0
  185.5020  178.3270  137.5320 C   0  0  0  0  0  2  0  0  0  0  0  0
  186.4460  177.1400  137.6970 C   0  0  0  0  0  2  0  0  0  0  0  0
  186.5500  176.3740  136.4620 N   0  0  0  0  0  2  0  0  0  0  0  0
  186.4670  174.9570  136.7930 C   0  0  0  0  0  2  0  0  0  0  0  0
  185.1360  174.3830  136.3350 C   0  0  0  0  0  2  0  0  0  0  0  0
  185.1540  172.8690  136.4510 C   0  0  0  0  0  2  0  0  0  0  0  0
  184.1690  172.2880  135.5570 N   0  0  0  0  0  0  0  0  0  0  0  0
  184.8470  171.5040  134.6830 O   0  0  0  0  0  1  0  0  0  0  0  0
  183.3500  171.4020  136.3700 C   0  0  0  0  0  2  0  0  0  0  0  0
  182.1380  170.9850  135.6110 C   0  0  0  0  0  0  0  0  0  0  0  0
  181.2870  171.8440  135.2550 O   0  0  0  0  0  0  0  0  0  0  0  0
  181.9170  169.6410  135.3430 O   0  0  0  0  0  1  0  0  0  0  0  0
  1 24  1  1  0  0  0
  2  1  1  0  0  0  0
  3  6  1  6  0  0  0
  3  4  1  0  0  0  0
  4  1  1  0  0  0  0
  5  6  2  0  0  0  0
  6  7  1  0  0  0  0
  7  2  1  0  0  0  0
  8 10  1  0  0  0  0
  8 14  1  0  0  0  0
  9 11  1  0  0  0  0
 10 13  1  6  0  0  0
 10 14  1  0  0  0  0
 10  3  1  0  0  0  0
 12 15  1  0  0  0  0
 12  8  2  0  0  0  0
 14 11  2  0  0  0  0
 15  9  2  0  0  0  0
 16 17  2  0  0  0  0
 17  9  1  0  0  0  0
 17 18  1  0  0  0  0
 20 19  1  0  0  0  0
 20 18  1  0  0  0  0
 22 21  2  0  0  0  0
 23 22  1  0  0  0  0
 24 23  2  0  0  0  0
 24 26  1  0  0  0  0
 25 21  1  0  0  0  0
 25 27  1  0  0  0  0
 26 25  2  0  0  0  0
 28 29  1  0  0  0  0
 28 27  1  0  0  0  0
 30 29  1  0  0  0  0
 31 30  1  0  0  0  0
 31 37  1  0  0  0  0
 32 33  2  0  0  0  0
 33 31  1  0  0  0  0
 34 38  1  0  0  0  0
 35 34  1  0  0  0  0
 36 39  1  0  0  0  0
 37 36  2  0  0  0  0
 37 35  1  0  0  0  0
 39 38  1  0  0  0  0
 40 41  2  0  0  0  0
 41 42  1  0  0  0  0
 41 33  1  0  0  0  0
 43 42  1  0  0  0  0
 43 44  2  0  0  0  0
 45 46  1  0  0  0  0
 45  7  1  0  0  0  0
 47 48  1  0  0  0  0
 47 46  1  0  0  0  0
 49 50  1  0  0  0  0
 49 48  1  0  0  0  0
 51 53  1  0  0  0  0
 51 50  1  0  0  0  0
 52 51  1  0  0  0  0
 54 53  1  0  0  0  0
 55 54  2  0  0  0  0
 56 54  1  0  0  0  0
M  END
>  <MODEL>
6

>  <REMARK>
 VINA RESULT:      -5.6      4.018     10.329
  Name = 
  23 active torsions:
  status: ('A' for Active; 'I' for Inactive)
    1  A    between atoms: C_6  and  C_15
    2  A    between atoms: C_6  and  N_56
    3  A    between atoms: C_8  and  C_44
    4  A    between atoms: N_9  and  C_15
    5  A    between atoms: N_9  and  C_31
    6  A    between atoms: C_10  and  C_22
    7  A    between atoms: C_13  and  N_23
    8  A    between atoms: C_13  and  C_30
    9  A    between atoms: C_14  and  O_33
   10  A    between atoms: C_16  and  C_48
   11  A    between atoms: C_17  and  N_23
   12  A    between atoms: C_24  and  C_35
   13  A    between atoms: C_25  and  C_41
   14  A    between atoms: C_28  and  C_31
   15  A    between atoms: C_28  and  C_34
   16  A    between atoms: C_30  and  C_47
   17  A    between atoms: O_33  and  C_36
   18  A    between atoms: C_34  and  N_43
   19  A    between atoms: C_36  and  C_55
   20  A    between atoms: C_37  and  C_39
   21  A    between atoms: C_39  and  C_47
   22  A    between atoms: C_41  and  C_48
   23  A    between atoms: N_43  and  C_44
                            x       y       z     vdW  Elec       q    Type
                         _______ _______ _______ _____ _____    ______ ____

>  <TORSDO>
F 23

$$$$
=
 OpenBabel11042410573D

 56 60  0  0  1  0  0  0  0  0999 V2000
  184.2610  178.7310  140.6960 C   0  0  2  0  0  3  0  0  0  0  0  0
  183.4330  177.6740  139.9700 C   0  0  0  0  0  2  0  0  0  0  0  0
  186.1050  178.6350  139.1730 C   0  0  2  0  0  3  0  0  0  0  0  0
  185.6790  178.4000  140.5560 N   0  0  0  0  0  2  0  0  0  0  0  0
  185.6140  177.6860  137.0210 O   0  0  0  0  0  0  0  0  0  0  0  0
  185.2090  177.9100  138.1940 C   0  0  0  0  0  0  0  0  0  0  0  0
  183.8680  177.5510  138.5780 N   0  0  0  0  0  0  0  0  0  0  0  0
  188.0840  178.2990  137.7260 C   0  0  0  0  0  0  0  0  0  0  0  0
  188.5070  175.9400  136.4200 C   0  0  0  0  0  0  0  0  0  0  0  0
  187.5590  178.1960  139.0210 C   0  0  1  0  0  0  0  0  0  0  0  0
  187.9550  175.7810  137.7470 C   0  0  0  0  0  3  0  0  0  0  0  0
  188.5930  178.5210  136.4850 C   0  0  0  0  0  3  0  0  0  0  0  0
  188.4690  178.4770  140.0250 F   0  0  0  0  0  0  0  0  0  0  0  0
  187.7810  177.0000  138.3260 C   0  0  0  0  0  0  0  0  0  0  0  0
  188.8040  177.2560  135.8320 C   0  0  0  0  0  3  0  0  0  0  0  0
  187.8750  173.9350  135.3150 O   0  0  0  0  0  0  0  0  0  0  0  0
  188.8030  174.7350  135.6150 C   0  0  0  0  0  0  0  0  0  0  0  0
  190.1860  174.4540  135.1100 C   0  0  0  0  0  2  0  0  0  0  0  0
  192.1160  173.9330  136.5060 N   0  0  0  0  0  1  0  0  0  0  0  0
  190.8720  173.4040  135.9690 C   0  0  0  0  0  2  0  0  0  0  0  0
  183.1570  178.9940  144.8510 C   0  0  0  0  0  3  0  0  0  0  0  0
  182.1600  178.9370  143.8760 C   0  0  0  0  0  3  0  0  0  0  0  0
  182.5090  178.8530  142.5260 C   0  0  0  0  0  3  0  0  0  0  0  0
  183.8580  178.8120  142.1410 C   0  0  0  0  0  0  0  0  0  0  0  0
  184.5020  178.9650  144.4800 C   0  0  0  0  0  0  0  0  0  0  0  0
  184.8550  178.8700  143.1270 C   0  0  0  0  0  3  0  0  0  0  0  0
  185.5500  179.0980  145.5260 C   0  0  0  0  0  2  0  0  0  0  0  0
  185.9240  177.7440  146.1140 C   0  0  0  0  0  2  0  0  0  0  0  0
  186.8630  177.9380  147.2920 C   0  0  0  0  0  2  0  0  0  0  0  0
  188.1240  178.6710  146.8660 C   0  0  0  0  0  2  0  0  0  0  0  0
  189.0890  177.7140  146.3310 N   0  0  0  0  0  0  0  0  0  0  0  0
  189.2010  176.2670  148.1560 O   0  0  0  0  0  0  0  0  0  0  0  0
  189.8220  176.9000  147.2580 C   0  0  0  0  0  0  0  0  0  0  0  0
  189.0060  176.4400  142.7330 C   0  0  0  0  0  2  0  0  0  0  0  0
  188.7980  176.5740  144.2150 C   0  0  0  0  0  3  0  0  0  0  0  0
  190.1500  178.5560  144.2350 N   0  0  0  0  0  2  0  0  0  0  0  0
  189.3010  177.6090  144.9070 C   0  0  0  0  0  0  0  0  0  0  0  0
  190.3310  177.0690  142.3100 C   0  0  0  0  0  2  0  0  0  0  0  0
  190.3660  178.5160  142.7920 C   0  0  0  0  0  2  0  0  0  0  0  0
  191.9750  177.0950  148.2190 O   0  0  0  0  0  0  0  0  0  0  0  0
  191.2900  176.8080  147.1990 C   0  0  0  0  0  0  0  0  0  0  0  0
  191.9010  176.3950  146.0030 O   0  0  0  0  0  0  0  0  0  0  0  0
  192.0410  175.0640  145.5720 C   0  0  0  0  0  3  0  0  0  0  0  0
  192.0650  174.7010  144.3020 C   0  0  0  0  0  2  0  0  0  0  0  0
  183.0100  176.8120  137.6640 C   0  0  0  0  0  2  0  0  0  0  0  0
  181.6930  177.5480  137.4420 C   0  0  0  0  0  2  0  0  0  0  0  0
  180.6040  176.9100  138.1700 N   0  0  0  0  0  2  0  0  0  0  0  0
  179.6340  177.9350  138.5350 C   0  0  0  0  0  2  0  0  0  0  0  0
  180.3340  179.1190  139.1850 C   0  0  0  0  0  2  0  0  0  0  0  0
  179.3090  180.0680  139.7780 C   0  0  0  0  0  2  0  0  0  0  0  0
  179.3220  181.3300  139.0610 N   0  0  0  0  0  0  0  0  0  0  0  0
  178.9360  182.2860  139.9410 O   0  0  0  0  0  1  0  0  0  0  0  0
  180.7140  181.5980  138.7310 C   0  0  0  0  0  2  0  0  0  0  0  0
  180.8000  182.3750  137.4620 C   0  0  0  0  0  0  0  0  0  0  0  0
  180.8500  183.6340  137.4930 O   0  0  0  0  0  1  0  0  0  0  0  0
  180.7690  181.7130  136.2420 O   0  0  0  0  0  0  0  0  0  0  0  0
  1 24  1  1  0  0  0
  2  1  1  0  0  0  0
  3  6  1  6  0  0  0
  3  4  1  0  0  0  0
  4  1  1  0  0  0  0
  5  6  2  0  0  0  0
  6  7  1  0  0  0  0
  7  2  1  0  0  0  0
  8 14  1  0  0  0  0
  8 10  1  0  0  0  0
  9 11  1  0  0  0  0
 10  3  1  0  0  0  0
 10 13  1  1  0  0  0
 11 14  2  0  0  0  0
 12  8  2  0  0  0  0
 14 10  1  0  0  0  0
 15  9  2  0  0  0  0
 15 12  1  0  0  0  0
 16 17  2  0  0  0  0
 17  9  1  0  0  0  0
 18 17  1  0  0  0  0
 18 20  1  0  0  0  0
 20 19  1  0  0  0  0
 22 21  2  0  0  0  0
 23 22  1  0  0  0  0
 24 23  2  0  0  0  0
 24 26  1  0  0  0  0
 25 21  1  0  0  0  0
 25 27  1  0  0  0  0
 26 25  2  0  0  0  0
 27 28  1  0  0  0  0
 28 29  1  0  0  0  0
 30 29  1  0  0  0  0
 31 30  1  0  0  0  0
 31 33  1  0  0  0  0
 33 32  2  0  0  0  0
 34 35  1  0  0  0  0
 35 37  2  0  0  0  0
 36 37  1  0  0  0  0
 37 31  1  0  0  0  0
 38 34  1  0  0  0  0
 38 39  1  0  0  0  0
 39 36  1  0  0  0  0
 41 33  1  0  0  0  0
 41 40  2  0  0  0  0
 42 41  1  0  0  0  0
 43 42  1  0  0  0  0
 44 43  2  0  0  0  0
 45  7  1  0  0  0  0
 46 45  1  0  0  0  0
 46 47  1  0  0  0  0
 47 48  1  0  0  0  0
 48 49  1  0  0  0  0
 49 50  1  0  0  0  0
 51 50  1  0  0  0  0
 51 52  1  0  0  0  0
 53 51  1  0  0  0  0
 54 55  1  0  0  0  0
 54 53  1  0  0  0  0
 56 54  2  0  0  0  0
M  END
>  <MODEL>
7

>  <REMARK>
 VINA RESULT:      -5.3      3.400     11.343
  Name = 
  23 active torsions:
  status: ('A' for Active; 'I' for Inactive)
    1  A    between atoms: C_6  and  C_15
    2  A    between atoms: C_6  and  N_56
    3  A    between atoms: C_8  and  C_44
    4  A    between atoms: N_9  and  C_15
    5  A    between atoms: N_9  and  C_31
    6  A    between atoms: C_10  and  C_22
    7  A    between atoms: C_13  and  N_23
    8  A    between atoms: C_13  and  C_30
    9  A    between atoms: C_14  and  O_33
   10  A    between atoms: C_16  and  C_48
   11  A    between atoms: C_17  and  N_23
   12  A    between atoms: C_24  and  C_35
   13  A    between atoms: C_25  and  C_41
   14  A    between atoms: C_28  and  C_31
   15  A    between atoms: C_28  and  C_34
   16  A    between atoms: C_30  and  C_47
   17  A    between atoms: O_33  and  C_36
   18  A    between atoms: C_34  and  N_43
   19  A    between atoms: C_36  and  C_55
   20  A    between atoms: C_37  and  C_39
   21  A    between atoms: C_39  and  C_47
   22  A    between atoms: C_41  and  C_48
   23  A    between atoms: N_43  and  C_44
                            x       y       z     vdW  Elec       q    Type
                         _______ _______ _______ _____ _____    ______ ____

>  <TORSDO>
F 23

$$$$
=
 OpenBabel11042410573D

 56 60  0  0  1  0  0  0  0  0999 V2000
  189.5380  177.2120  138.3310 C   0  0  2  0  0  3  0  0  0  0  0  0
  190.4070  176.0530  137.8480 C   0  0  0  0  0  2  0  0  0  0  0  0
  190.8960  177.7110  140.2370 C   0  0  2  0  0  3  0  0  0  0  0  0
  189.5770  177.2550  139.7930 N   0  0  0  0  0  2  0  0  0  0  0  0
  193.1450  176.8700  140.1480 O   0  0  0  0  0  0  0  0  0  0  0  0
  191.9990  176.8800  139.6210 C   0  0  0  0  0  0  0  0  0  0  0  0
  191.7610  176.1680  138.3920 N   0  0  0  0  0  0  0  0  0  0  0  0
  190.1770  176.6540  142.3550 C   0  0  0  0  0  0  0  0  0  0  0  0
  187.9410  177.4920  143.6760 C   0  0  0  0  0  0  0  0  0  0  0  0
  190.9510  177.6600  141.7620 C   0  0  1  0  0  0  0  0  0  0  0  0
  188.6980  178.5650  143.0730 C   0  0  0  0  0  3  0  0  0  0  0  0
  189.5100  175.5970  142.8890 C   0  0  0  0  0  3  0  0  0  0  0  0
  192.1430  177.9180  142.4150 F   0  0  0  0  0  0  0  0  0  0  0  0
  189.7940  178.0630  142.4410 C   0  0  0  0  0  0  0  0  0  0  0  0
  188.3410  176.0790  143.5770 C   0  0  0  0  0  3  0  0  0  0  0  0
  185.7390  178.3620  143.8600 O   0  0  0  0  0  0  0  0  0  0  0  0
  186.7170  177.8170  144.4400 C   0  0  0  0  0  0  0  0  0  0  0  0
  186.5920  177.4770  145.8950 C   0  0  0  0  0  2  0  0  0  0  0  0
  184.8030  178.3590  147.2970 N   0  0  0  0  0  1  0  0  0  0  0  0
  186.0860  178.6730  146.6870 C   0  0  0  0  0  2  0  0  0  0  0  0
  185.4970  176.8350  136.8870 C   0  0  0  0  0  3  0  0  0  0  0  0
  186.4820  175.9660  136.4130 C   0  0  0  0  0  3  0  0  0  0  0  0
  187.7950  176.0820  136.8750 C   0  0  0  0  0  3  0  0  0  0  0  0
  188.1320  177.0590  137.8250 C   0  0  0  0  0  0  0  0  0  0  0  0
  185.8220  177.8170  137.8230 C   0  0  0  0  0  0  0  0  0  0  0  0
  187.1370  177.9290  138.2960 C   0  0  0  0  0  3  0  0  0  0  0  0
  184.7770  178.7790  138.2640 C   0  0  0  0  0  2  0  0  0  0  0  0
  183.8060  178.1340  139.2430 C   0  0  0  0  0  2  0  0  0  0  0  0
  182.7370  179.1370  139.6410 C   0  0  0  0  0  2  0  0  0  0  0  0
  181.5440  179.0600  138.7020 C   0  0  0  0  0  2  0  0  0  0  0  0
  180.4790  178.2820  139.3280 N   0  0  0  0  0  0  0  0  0  0  0  0
  179.2250  180.0410  140.2070 O   0  0  0  0  0  0  0  0  0  0  0  0
  179.7220  178.8950  140.3820 C   0  0  0  0  0  0  0  0  0  0  0  0
  178.9310  175.2720  137.5610 C   0  0  0  0  0  2  0  0  0  0  0  0
  179.2290  176.6710  138.0220 C   0  0  0  0  0  3  0  0  0  0  0  0
  180.9290  175.8330  139.4940 N   0  0  0  0  0  2  0  0  0  0  0  0
  180.2130  176.9300  138.8990 C   0  0  0  0  0  0  0  0  0  0  0  0
  179.2710  174.2560  138.6480 C   0  0  0  0  0  2  0  0  0  0  0  0
  180.7240  174.4510  139.0680 C   0  0  0  0  0  2  0  0  0  0  0  0
  178.9640  177.0940  141.7180 O   0  0  0  0  0  0  0  0  0  0  0  0
  179.5330  178.2200  141.6780 C   0  0  0  0  0  0  0  0  0  0  0  0
  179.9990  178.8440  142.8470 O   0  0  0  0  0  0  0  0  0  0  0  0
  181.2810  179.3890  143.0300 C   0  0  0  0  0  3  0  0  0  0  0  0
  182.3110  178.7080  143.5020 C   0  0  0  0  0  2  0  0  0  0  0  0
  192.7960  175.3260  137.8130 C   0  0  0  0  0  2  0  0  0  0  0  0
  193.1730  175.8130  136.4180 C   0  0  0  0  0  2  0  0  0  0  0  0
  194.4230  176.5630  136.4400 N   0  0  0  0  0  2  0  0  0  0  0  0
  195.0800  176.3970  135.1500 C   0  0  0  0  0  2  0  0  0  0  0  0
  195.8730  175.1000  135.1220 C   0  0  0  0  0  2  0  0  0  0  0  0
  196.9920  175.1500  136.1460 C   0  0  0  0  0  2  0  0  0  0  0  0
  198.1290  174.3740  135.6830 N   0  0  0  0  0  0  0  0  0  0  0  0
  199.1330  175.2530  135.4460 O   0  0  0  0  0  1  0  0  0  0  0  0
  198.5450  173.5490  136.8060 C   0  0  0  0  0  2  0  0  0  0  0  0
  198.1430  174.1900  138.0900 C   0  0  0  0  0  0  0  0  0  0  0  0
  198.9410  174.9600  138.6900 O   0  0  0  0  0  1  0  0  0  0  0  0
  196.9090  173.8960  138.6530 O   0  0  0  0  0  0  0  0  0  0  0  0
  1 24  1  1  0  0  0
  1  4  1  0  0  0  0
  2  1  1  0  0  0  0
  2  7  1  0  0  0  0
  3  6  1  6  0  0  0
  3 10  1  0  0  0  0
  4  3  1  0  0  0  0
  6  5  2  0  0  0  0
  7  6  1  0  0  0  0
  8 14  2  0  0  0  0
  8 12  1  0  0  0  0
  9 17  1  0  0  0  0
 10  8  1  0  0  0  0
 10 13  1  1  0  0  0
 10 14  1  0  0  0  0
 11  9  2  0  0  0  0
 12 15  2  0  0  0  0
 14 11  1  0  0  0  0
 15  9  1  0  0  0  0
 16 17  2  0  0  0  0
 17 18  1  0  0  0  0
 18 20  1  0  0  0  0
 20 19  1  0  0  0  0
 21 25  1  0  0  0  0
 22 23  1  0  0  0  0
 22 21  2  0  0  0  0
 23 24  2  0  0  0  0
 24 26  1  0  0  0  0
 25 27  1  0  0  0  0
 25 26  2  0  0  0  0
 27 28  1  0  0  0  0
 28 29  1  0  0  0  0
 30 31  1  0  0  0  0
 30 29  1  0  0  0  0
 31 33  1  0  0  0  0
 32 33  2  0  0  0  0
 33 41  1  0  0  0  0
 34 35  1  0  0  0  0
 34 38  1  0  0  0  0
 35 37  2  0  0  0  0
 37 31  1  0  0  0  0
 37 36  1  0  0  0  0
 38 39  1  0  0  0  0
 39 36  1  0  0  0  0
 41 40  2  0  0  0  0
 41 42  1  0  0  0  0
 42 43  1  0  0  0  0
 43 44  2  0  0  0  0
 45  7  1  0  0  0  0
 46 47  1  0  0  0  0
 46 45  1  0  0  0  0
 48 47  1  0  0  0  0
 49 48  1  0  0  0  0
 49 50  1  0  0  0  0
 51 50  1  0  0  0  0
 51 53  1  0  0  0  0
 52 51  1  0  0  0  0
 53 54  1  0  0  0  0
 54 56  2  0  0  0  0
 54 55  1  0  0  0  0
M  END
>  <MODEL>
8

>  <REMARK>
 VINA RESULT:      -5.3      2.111      3.394
  Name = 
  23 active torsions:
  status: ('A' for Active; 'I' for Inactive)
    1  A    between atoms: C_6  and  C_15
    2  A    between atoms: C_6  and  N_56
    3  A    between atoms: C_8  and  C_44
    4  A    between atoms: N_9  and  C_15
    5  A    between atoms: N_9  and  C_31
    6  A    between atoms: C_10  and  C_22
    7  A    between atoms: C_13  and  N_23
    8  A    between atoms: C_13  and  C_30
    9  A    between atoms: C_14  and  O_33
   10  A    between atoms: C_16  and  C_48
   11  A    between atoms: C_17  and  N_23
   12  A    between atoms: C_24  and  C_35
   13  A    between atoms: C_25  and  C_41
   14  A    between atoms: C_28  and  C_31
   15  A    between atoms: C_28  and  C_34
   16  A    between atoms: C_30  and  C_47
   17  A    between atoms: O_33  and  C_36
   18  A    between atoms: C_34  and  N_43
   19  A    between atoms: C_36  and  C_55
   20  A    between atoms: C_37  and  C_39
   21  A    between atoms: C_39  and  C_47
   22  A    between atoms: C_41  and  C_48
   23  A    between atoms: N_43  and  C_44
                            x       y       z     vdW  Elec       q    Type
                         _______ _______ _______ _____ _____    ______ ____

>  <TORSDO>
F 23

$$$$
=
 OpenBabel11042410573D

 56 60  0  0  1  0  0  0  0  0999 V2000
  183.5410  177.8010  140.5600 C   0  0  2  0  0  3  0  0  0  0  0  0
  184.6470  178.5700  139.8420 C   0  0  0  0  0  2  0  0  0  0  0  0
  182.3180  177.2860  138.5680 C   0  0  2  0  0  3  0  0  0  0  0  0
  182.2810  178.0050  139.8450 N   0  0  0  0  0  2  0  0  0  0  0  0
  183.5680  177.4430  136.5220 O   0  0  0  0  0  0  0  0  0  0  0  0
  183.5430  177.6580  137.7640 C   0  0  0  0  0  0  0  0  0  0  0  0
  184.7070  178.1830  138.4320 N   0  0  0  0  0  0  0  0  0  0  0  0
  181.2200  178.1980  136.5470 C   0  0  0  0  0  0  0  0  0  0  0  0
  180.4870  180.8220  136.3870 C   0  0  0  0  0  0  0  0  0  0  0  0
  181.0370  177.5860  137.7940 C   0  0  1  0  0  0  0  0  0  0  0  0
  180.2900  180.2400  137.6950 C   0  0  0  0  0  3  0  0  0  0  0  0
  181.4410  178.6830  135.2960 C   0  0  0  0  0  3  0  0  0  0  0  0
  179.9840  176.6890  137.8360 F   0  0  0  0  0  0  0  0  0  0  0  0
  180.6740  178.9340  137.6860 C   0  0  0  0  0  0  0  0  0  0  0  0
  181.0400  180.0650  135.2520 C   0  0  0  0  0  3  0  0  0  0  0  0
  180.0450  182.6910  134.9900 O   0  0  0  0  0  0  0  0  0  0  0  0
  180.1090  182.2340  136.1640 C   0  0  0  0  0  0  0  0  0  0  0  0
  179.7610  183.1390  137.3080 C   0  0  0  0  0  2  0  0  0  0  0  0
  181.5150  184.8150  137.0620 N   0  0  0  0  0  1  0  0  0  0  0  0
  180.0810  184.5860  136.9680 C   0  0  0  0  0  2  0  0  0  0  0  0
  183.3010  179.0980  144.6600 C   0  0  0  0  0  3  0  0  0  0  0  0
  182.1500  179.0920  143.8710 C   0  0  0  0  0  3  0  0  0  0  0  0
  182.2180  178.6740  142.5400 C   0  0  0  0  0  3  0  0  0  0  0  0
  183.4370  178.2460  141.9910 C   0  0  0  0  0  0  0  0  0  0  0  0
  184.5210  178.6850  144.1220 C   0  0  0  0  0  0  0  0  0  0  0  0
  184.5910  178.2560  142.7900 C   0  0  0  0  0  3  0  0  0  0  0  0
  185.7500  178.7640  144.9550 C   0  0  0  0  0  2  0  0  0  0  0  0
  186.4680  177.4220  145.0160 C   0  0  0  0  0  2  0  0  0  0  0  0
  187.8880  177.5760  144.4980 C   0  0  0  0  0  2  0  0  0  0  0  0
  188.8420  177.9270  145.6290 C   0  0  0  0  0  2  0  0  0  0  0  0
  190.2190  177.7200  145.1890 N   0  0  0  0  0  0  0  0  0  0  0  0
  190.4440  179.6020  143.8310 O   0  0  0  0  0  0  0  0  0  0  0  0
  190.6490  178.3660  143.9820 C   0  0  0  0  0  0  0  0  0  0  0  0
  192.4490  174.7970  146.2170 C   0  0  0  0  0  2  0  0  0  0  0  0
  191.5240  175.6980  145.4480 C   0  0  0  0  0  3  0  0  0  0  0  0
  191.4700  177.2320  147.2920 N   0  0  0  0  0  2  0  0  0  0  0  0
  191.1090  176.8730  145.9470 C   0  0  0  0  0  0  0  0  0  0  0  0
  192.2400  174.9560  147.7210 C   0  0  0  0  0  2  0  0  0  0  0  0
  192.3960  176.4290  148.0860 C   0  0  0  0  0  2  0  0  0  0  0  0
  192.4870  177.9010  142.5660 O   0  0  0  0  0  0  0  0  0  0  0  0
  191.3060  177.6100  142.9020 C   0  0  0  0  0  0  0  0  0  0  0  0
  190.6030  176.5700  142.2710 O   0  0  0  0  0  0  0  0  0  0  0  0
  190.0260  176.6310  140.9910 C   0  0  0  0  0  3  0  0  0  0  0  0
  190.0460  177.7070  140.2240 C   0  0  0  0  0  2  0  0  0  0  0  0
  185.8770  178.5900  137.6680 C   0  0  0  0  0  2  0  0  0  0  0  0
  187.0700  177.6950  137.9840 C   0  0  0  0  0  2  0  0  0  0  0  0
  187.4470  176.8910  136.8290 N   0  0  0  0  0  2  0  0  0  0  0  0
  188.8550  176.5360  136.9570 C   0  0  0  0  0  2  0  0  0  0  0  0
  189.3670  175.9210  135.6650 C   0  0  0  0  0  2  0  0  0  0  0  0
  190.4650  174.9160  135.9650 C   0  0  0  0  0  2  0  0  0  0  0  0
  191.2840  175.3850  137.0680 N   0  0  0  0  0  0  0  0  0  0  0  0
  191.3750  174.3610  137.9520 O   0  0  0  0  0  1  0  0  0  0  0  0
  192.6170  175.5950  136.5260 C   0  0  0  0  0  2  0  0  0  0  0  0
  193.5580  175.9820  137.6160 C   0  0  0  0  0  0  0  0  0  0  0  0
  193.1960  176.8030  138.5020 O   0  0  0  0  0  1  0  0  0  0  0  0
  194.8520  175.4800  137.6250 O   0  0  0  0  0  0  0  0  0  0  0  0
  1 24  1  1  0  0  0
  2  1  1  0  0  0  0
  3  6  1  6  0  0  0
  3  4  1  0  0  0  0
  4  1  1  0  0  0  0
  5  6  2  0  0  0  0
  6  7  1  0  0  0  0
  7  2  1  0  0  0  0
  8 14  1  0  0  0  0
  8 10  1  0  0  0  0
  9 11  1  0  0  0  0
 10 13  1  1  0  0  0
 10  3  1  0  0  0  0
 12  8  2  0  0  0  0
 14 11  2  0  0  0  0
 14 10  1  0  0  0  0
 15 12  1  0  0  0  0
 15  9  2  0  0  0  0
 16 17  2  0  0  0  0
 17  9  1  0  0  0  0
 17 18  1  0  0  0  0
 20 19  1  0  0  0  0
 20 18  1  0  0  0  0
 22 21  2  0  0  0  0
 23 22  1  0  0  0  0
 24 23  2  0  0  0  0
 24 26  1  0  0  0  0
 25 21  1  0  0  0  0
 25 27  1  0  0  0  0
 26 25  2  0  0  0  0
 27 28  1  0  0  0  0
 29 28  1  0  0  0  0
 29 30  1  0  0  0  0
 31 30  1  0  0  0  0
 31 37  1  0  0  0  0
 32 33  2  0  0  0  0
 33 31  1  0  0  0  0
 34 38  1  0  0  0  0
 35 37  2  0  0  0  0
 35 34  1  0  0  0  0
 36 39  1  0  0  0  0
 37 36  1  0  0  0  0
 38 39  1  0  0  0  0
 40 41  2  0  0  0  0
 41 33  1  0  0  0  0
 42 41  1  0  0  0  0
 43 42  1  0  0  0  0
 44 43  2  0  0  0  0
 45 46  1  0  0  0  0
 45  7  1  0  0  0  0
 47 48  1  0  0  0  0
 47 46  1  0  0  0  0
 49 50  1  0  0  0  0
 49 48  1  0  0  0  0
 50 51  1  0  0  0  0
 51 52  1  0  0  0  0
 53 51  1  0  0  0  0
 53 54  1  0  0  0  0
 54 56  2  0  0  0  0
 54 55  1  0  0  0  0
M  END
>  <MODEL>
9

>  <REMARK>
 VINA RESULT:      -5.3      3.349      9.641
  Name = 
  23 active torsions:
  status: ('A' for Active; 'I' for Inactive)
    1  A    between atoms: C_6  and  C_15
    2  A    between atoms: C_6  and  N_56
    3  A    between atoms: C_8  and  C_44
    4  A    between atoms: N_9  and  C_15
    5  A    between atoms: N_9  and  C_31
    6  A    between atoms: C_10  and  C_22
    7  A    between atoms: C_13  and  N_23
    8  A    between atoms: C_13  and  C_30
    9  A    between atoms: C_14  and  O_33
   10  A    between atoms: C_16  and  C_48
   11  A    between atoms: C_17  and  N_23
   12  A    between atoms: C_24  and  C_35
   13  A    between atoms: C_25  and  C_41
   14  A    between atoms: C_28  and  C_31
   15  A    between atoms: C_28  and  C_34
   16  A    between atoms: C_30  and  C_47
   17  A    between atoms: O_33  and  C_36
   18  A    between atoms: C_34  and  N_43
   19  A    between atoms: C_36  and  C_55
   20  A    between atoms: C_37  and  C_39
   21  A    between atoms: C_39  and  C_47
   22  A    between atoms: C_41  and  C_48
   23  A    between atoms: N_43  and  C_44
                            x       y       z     vdW  Elec       q    Type
                         _______ _______ _______ _____ _____    ______ ____

>  <TORSDO>
F 23

$$$$
