=
 OpenBabel11042410253D

 29 30  0  0  1  0  0  0  0  0999 V2000
  189.3130  177.6270  141.0200 C   0  0  0  0  0  3  0  0  0  0  0  0
  188.3130  178.4330  140.5790 N   0  0  0  0  0  0  0  0  0  0  0  0
  187.2150  178.6430  141.3080 N   0  0  0  0  0  0  0  0  0  0  0  0
  189.1990  176.9980  142.2630 C   0  0  0  0  0  0  0  0  0  0  0  0
  187.0420  178.0630  142.5280 C   0  0  0  0  0  0  0  0  0  0  0  0
  188.0460  177.2220  143.0170 C   0  0  0  0  0  3  0  0  0  0  0  0
  185.8650  178.4340  144.7170 C   0  0  0  0  0  0  0  0  0  0  0  0
  183.4740  178.7970  144.8180 C   0  0  0  0  0  3  0  0  0  0  0  0
  184.7050  178.6720  145.4580 C   0  0  0  0  0  3  0  0  0  0  0  0
  184.5480  178.4420  142.6660 C   0  0  0  0  0  0  0  0  0  0  0  0
  187.0750  178.3360  145.3950 O   0  0  0  0  0  1  0  0  0  0  0  0
  185.8050  178.3190  143.3100 C   0  0  0  0  0  0  0  0  0  0  0  0
  183.3970  178.6840  143.4320 C   0  0  0  0  0  3  0  0  0  0  0  0
  184.4560  178.3060  141.2760 O   0  0  0  0  0  0  0  0  0  0  0  0
  183.3440  178.7670  140.5210 C   0  0  0  0  0  2  0  0  0  0  0  0
  183.7890  179.1100  139.1130 C   0  0  1  0  0  3  0  0  0  0  0  0
  184.4340  180.3480  139.1130 O   0  0  0  0  0  1  0  0  0  0  0  0
  184.7390  178.0380  138.6140 C   0  0  0  0  0  2  0  0  0  0  0  0
  185.9460  178.6520  138.0890 N   0  0  0  0  0  1  0  0  0  0  0  0
  190.0820  174.8780  142.8620 O   0  0  0  0  0  0  0  0  0  0  0  0
  190.2700  176.1220  142.7750 C   0  0  0  0  0  0  0  0  0  0  0  0
  191.5780  176.6850  143.2320 C   0  0  0  0  0  2  0  0  0  0  0  0
  191.2330  176.4210  145.7170 N   0  0  0  0  0  2  0  0  0  0  0  0
  191.4380  177.2760  144.5930 C   0  0  0  0  0  0  0  0  0  0  0  0
  191.5300  178.5240  144.7430 O   0  0  0  0  0  0  0  0  0  0  0  0
  191.1060  176.9430  147.0690 C   0  0  0  0  0  2  0  0  0  0  0  0
  189.6460  176.9460  147.4900 C   0  0  0  0  0  2  0  0  0  0  0  0
  187.9760  178.1650  148.6890 O   0  0  0  0  0  1  0  0  0  0  0  0
  189.3290  178.1620  148.3470 C   0  0  0  0  0  2  0  0  0  0  0  0
  1  4  1  0  0  0  0
  2  1  2  0  0  0  0
  2  3  1  0  0  0  0
  3  5  2  0  0  0  0
  4 21  1  0  0  0  0
  4  6  2  0  0  0  0
  5  6  1  0  0  0  0
  5 12  1  0  0  0  0
  7 11  1  0  0  0  0
  7  9  1  0  0  0  0
  8  9  2  0  0  0  0
 10 12  1  0  0  0  0
 10 13  2  0  0  0  0
 12  7  2  0  0  0  0
 13  8  1  0  0  0  0
 14 10  1  0  0  0  0
 15 14  1  0  0  0  0
 16 17  1  1  0  0  0
 16 15  1  0  0  0  0
 18 16  1  0  0  0  0
 19 18  1  0  0  0  0
 21 20  2  0  0  0  0
 21 22  1  0  0  0  0
 22 24  1  0  0  0  0
 23 26  1  0  0  0  0
 24 25  2  0  0  0  0
 24 23  1  0  0  0  0
 26 27  1  0  0  0  0
 27 29  1  0  0  0  0
 29 28  1  0  0  0  0
M  END
>  <MODEL>
1

>  <REMARK>
 VINA RESULT:      -7.9      0.000      0.000
  Name = 
  11 active torsions:
  status: ('A' for Active; 'I' for Inactive)
    1  A    between atoms: C_3  and  C_19
    2  A    between atoms: C_5  and  O_6
    3  A    between atoms: C_5  and  C_9
    4  A    between atoms: O_6  and  C_14
    5  A    between atoms: C_9  and  C_25
    6  A    between atoms: C_11  and  C_18
    7  A    between atoms: C_11  and  C_24
    8  A    between atoms: C_13  and  N_17
    9  A    between atoms: C_13  and  C_19
   10  A    between atoms: C_15  and  C_24
   11  A    between atoms: C_20  and  C_22
                            x       y       z     vdW  Elec       q    Type
                         _______ _______ _______ _____ _____    ______ ____

>  <TORSDO>
F 11

$$$$
=
 OpenBabel11042410253D

 29 30  0  0  1  0  0  0  0  0999 V2000
  190.1310  176.3900  141.6640 C   0  0  0  0  0  3  0  0  0  0  0  0
  190.5170  175.6640  142.7440 N   0  0  0  0  0  0  0  0  0  0  0  0
  190.1210  175.9850  143.9770 N   0  0  0  0  0  0  0  0  0  0  0  0
  189.3000  177.5000  141.8360 C   0  0  0  0  0  0  0  0  0  0  0  0
  189.3090  177.0530  144.2140 C   0  0  0  0  0  0  0  0  0  0  0  0
  188.8920  177.8310  143.1290 C   0  0  0  0  0  3  0  0  0  0  0  0
  189.8390  177.3900  146.6480 C   0  0  0  0  0  0  0  0  0  0  0  0
  188.1190  177.9940  148.2410 C   0  0  0  0  0  3  0  0  0  0  0  0
  189.4480  177.6960  147.9540 C   0  0  0  0  0  3  0  0  0  0  0  0
  187.5370  177.6810  145.9010 C   0  0  0  0  0  0  0  0  0  0  0  0
  191.1800  177.1170  146.4030 O   0  0  0  0  0  1  0  0  0  0  0  0
  188.8890  177.3810  145.6010 C   0  0  0  0  0  0  0  0  0  0  0  0
  187.1700  177.9880  147.2210 C   0  0  0  0  0  3  0  0  0  0  0  0
  186.5710  177.6530  144.8880 O   0  0  0  0  0  0  0  0  0  0  0  0
  185.4260  178.4960  144.8820 C   0  0  0  0  0  2  0  0  0  0  0  0
  185.0550  178.8420  143.4530 C   0  0  1  0  0  3  0  0  0  0  0  0
  185.4610  177.8140  142.6000 O   0  0  0  0  0  1  0  0  0  0  0  0
  183.5520  179.0240  143.3560 C   0  0  0  0  0  2  0  0  0  0  0  0
  182.9430  178.8040  144.6560 N   0  0  0  0  0  1  0  0  0  0  0  0
  187.9740  179.1960  140.8340 O   0  0  0  0  0  0  0  0  0  0  0  0
  188.8560  178.3070  140.6820 C   0  0  0  0  0  0  0  0  0  0  0  0
  189.4090  178.0690  139.3130 C   0  0  0  0  0  2  0  0  0  0  0  0
  187.2050  177.6390  138.1630 N   0  0  0  0  0  2  0  0  0  0  0  0
  188.3940  178.4180  138.2790 C   0  0  0  0  0  0  0  0  0  0  0  0
  188.5840  179.4160  137.5320 O   0  0  0  0  0  0  0  0  0  0  0  0
  186.1750  177.9440  137.1830 C   0  0  0  0  0  2  0  0  0  0  0  0
  184.8000  177.8380  137.8220 C   0  0  0  0  0  2  0  0  0  0  0  0
  184.7860  179.8980  139.0310 O   0  0  0  0  0  1  0  0  0  0  0  0
  184.7790  178.5120  139.1850 C   0  0  0  0  0  2  0  0  0  0  0  0
  1  4  2  0  0  0  0
  1  2  1  0  0  0  0
  2  3  2  0  0  0  0
  3  5  1  0  0  0  0
  4  6  1  0  0  0  0
  5 12  1  0  0  0  0
  6  5  2  0  0  0  0
  7  9  1  0  0  0  0
  9  8  2  0  0  0  0
 10 13  2  0  0  0  0
 11  7  1  0  0  0  0
 12 10  1  0  0  0  0
 12  7  2  0  0  0  0
 13  8  1  0  0  0  0
 14 10  1  0  0  0  0
 15 14  1  0  0  0  0
 16 17  1  6  0  0  0
 16 15  1  0  0  0  0
 18 16  1  0  0  0  0
 18 19  1  0  0  0  0
 21 20  2  0  0  0  0
 21  4  1  0  0  0  0
 22 21  1  0  0  0  0
 23 24  1  0  0  0  0
 24 22  1  0  0  0  0
 25 24  2  0  0  0  0
 26 27  1  0  0  0  0
 26 23  1  0  0  0  0
 27 29  1  0  0  0  0
 28 29  1  0  0  0  0
M  END
>  <MODEL>
2

>  <REMARK>
 VINA RESULT:      -7.6      2.141      6.099
  Name = 
  11 active torsions:
  status: ('A' for Active; 'I' for Inactive)
    1  A    between atoms: C_3  and  C_19
    2  A    between atoms: C_5  and  O_6
    3  A    between atoms: C_5  and  C_9
    4  A    between atoms: O_6  and  C_14
    5  A    between atoms: C_9  and  C_25
    6  A    between atoms: C_11  and  C_18
    7  A    between atoms: C_11  and  C_24
    8  A    between atoms: C_13  and  N_17
    9  A    between atoms: C_13  and  C_19
   10  A    between atoms: C_15  and  C_24
   11  A    between atoms: C_20  and  C_22
                            x       y       z     vdW  Elec       q    Type
                         _______ _______ _______ _____ _____    ______ ____

>  <TORSDO>
F 11

$$$$
=
 OpenBabel11042410253D

 29 30  0  0  1  0  0  0  0  0999 V2000
  184.1480  178.9480  139.5140 C   0  0  0  0  0  3  0  0  0  0  0  0
  185.1690  179.6470  140.0740 N   0  0  0  0  0  0  0  0  0  0  0  0
  185.5240  179.4610  141.3470 N   0  0  0  0  0  0  0  0  0  0  0  0
  183.4470  178.0120  140.2790 C   0  0  0  0  0  0  0  0  0  0  0  0
  184.8840  178.5640  142.1460 C   0  0  0  0  0  0  0  0  0  0  0  0
  183.8230  177.8270  141.6110 C   0  0  0  0  0  3  0  0  0  0  0  0
  184.5350  178.9420  144.6070 C   0  0  0  0  0  0  0  0  0  0  0  0
  186.0850  178.0690  146.2490 C   0  0  0  0  0  3  0  0  0  0  0  0
  184.9290  178.7800  145.9370 C   0  0  0  0  0  3  0  0  0  0  0  0
  186.4840  177.6680  143.8840 C   0  0  0  0  0  0  0  0  0  0  0  0
  183.3630  179.6420  144.3430 O   0  0  0  0  0  1  0  0  0  0  0  0
  185.3050  178.3860  143.5610 C   0  0  0  0  0  0  0  0  0  0  0  0
  186.8570  177.5170  145.2290 C   0  0  0  0  0  3  0  0  0  0  0  0
  187.2800  177.1300  142.8650 O   0  0  0  0  0  0  0  0  0  0  0  0
  188.6990  177.0920  142.9260 C   0  0  0  0  0  2  0  0  0  0  0  0
  189.2800  177.8890  141.7750 C   0  0  1  0  0  3  0  0  0  0  0  0
  190.6090  177.5150  141.5680 O   0  0  0  0  0  1  0  0  0  0  0  0
  188.4710  177.6200  140.5210 C   0  0  0  0  0  2  0  0  0  0  0  0
  188.6480  178.7080  139.5750 N   0  0  0  0  0  1  0  0  0  0  0  0
  182.3390  175.9730  139.7820 O   0  0  0  0  0  0  0  0  0  0  0  0
  182.3370  177.2310  139.6990 C   0  0  0  0  0  0  0  0  0  0  0  0
  181.2120  177.9030  138.9780 C   0  0  0  0  0  2  0  0  0  0  0  0
  179.7380  178.4690  140.9450 N   0  0  0  0  0  2  0  0  0  0  0  0
  180.5580  178.9080  139.8630 C   0  0  0  0  0  0  0  0  0  0  0  0
  180.7580  180.1370  139.6650 O   0  0  0  0  0  0  0  0  0  0  0  0
  179.0880  179.4050  141.8490 C   0  0  0  0  0  2  0  0  0  0  0  0
  179.9540  179.6260  143.0790 C   0  0  0  0  0  2  0  0  0  0  0  0
  179.7310  177.5720  144.2780 O   0  0  0  0  0  1  0  0  0  0  0  0
  179.3700  178.9190  144.2910 C   0  0  0  0  0  2  0  0  0  0  0  0
  1  2  2  0  0  0  0
  1  4  1  0  0  0  0
  2  3  1  0  0  0  0
  3  5  2  0  0  0  0
  4  6  2  0  0  0  0
  5 12  1  0  0  0  0
  6  5  1  0  0  0  0
  7  9  1  0  0  0  0
  9  8  2  0  0  0  0
 10 13  2  0  0  0  0
 11  7  1  0  0  0  0
 12 10  1  0  0  0  0
 12  7  2  0  0  0  0
 13  8  1  0  0  0  0
 14 15  1  0  0  0  0
 14 10  1  0  0  0  0
 16 17  1  6  0  0  0
 16 15  1  0  0  0  0
 18 16  1  0  0  0  0
 19 18  1  0  0  0  0
 21 20  2  0  0  0  0
 21  4  1  0  0  0  0
 22 21  1  0  0  0  0
 22 24  1  0  0  0  0
 23 26  1  0  0  0  0
 24 23  1  0  0  0  0
 25 24  2  0  0  0  0
 26 27  1  0  0  0  0
 27 29  1  0  0  0  0
 28 29  1  0  0  0  0
M  END
>  <MODEL>
3

>  <REMARK>
 VINA RESULT:      -7.5      2.851      7.306
  Name = 
  11 active torsions:
  status: ('A' for Active; 'I' for Inactive)
    1  A    between atoms: C_3  and  C_19
    2  A    between atoms: C_5  and  O_6
    3  A    between atoms: C_5  and  C_9
    4  A    between atoms: O_6  and  C_14
    5  A    between atoms: C_9  and  C_25
    6  A    between atoms: C_11  and  C_18
    7  A    between atoms: C_11  and  C_24
    8  A    between atoms: C_13  and  N_17
    9  A    between atoms: C_13  and  C_19
   10  A    between atoms: C_15  and  C_24
   11  A    between atoms: C_20  and  C_22
                            x       y       z     vdW  Elec       q    Type
                         _______ _______ _______ _____ _____    ______ ____

>  <TORSDO>
F 11

$$$$
=
 OpenBabel11042410253D

 29 30  0  0  1  0  0  0  0  0999 V2000
  184.1300  179.0690  139.8970 C   0  0  0  0  0  3  0  0  0  0  0  0
  185.2810  179.6110  140.3700 N   0  0  0  0  0  0  0  0  0  0  0  0
  185.6910  179.3930  141.6210 N   0  0  0  0  0  0  0  0  0  0  0  0
  183.3480  178.2660  140.7310 C   0  0  0  0  0  0  0  0  0  0  0  0
  184.9770  178.6180  142.4840 C   0  0  0  0  0  0  0  0  0  0  0  0
  183.7820  178.0460  142.0390 C   0  0  0  0  0  3  0  0  0  0  0  0
  184.7530  178.9400  144.9670 C   0  0  0  0  0  0  0  0  0  0  0  0
  186.3670  178.0060  146.5120 C   0  0  0  0  0  3  0  0  0  0  0  0
  185.2070  178.7400  146.2730 C   0  0  0  0  0  3  0  0  0  0  0  0
  186.6460  177.6590  144.1210 C   0  0  0  0  0  0  0  0  0  0  0  0
  183.5790  179.6610  144.7770 O   0  0  0  0  0  1  0  0  0  0  0  0
  185.4630  178.4000  143.8720 C   0  0  0  0  0  0  0  0  0  0  0  0
  187.0810  177.4700  145.4420 C   0  0  0  0  0  3  0  0  0  0  0  0
  187.3850  177.1360  143.0530 O   0  0  0  0  0  0  0  0  0  0  0  0
  188.4530  176.2160  143.2240 C   0  0  0  0  0  2  0  0  0  0  0  0
  189.7490  176.8430  142.7470 C   0  0  1  0  0  3  0  0  0  0  0  0
  189.4670  177.9030  141.8830 O   0  0  0  0  0  1  0  0  0  0  0  0
  190.5280  177.3520  143.9450 C   0  0  0  0  0  2  0  0  0  0  0  0
  190.8560  178.7550  143.7610 N   0  0  0  0  0  1  0  0  0  0  0  0
  182.1260  176.7760  139.3440 O   0  0  0  0  0  0  0  0  0  0  0  0
  182.0940  177.6560  140.2460 C   0  0  0  0  0  0  0  0  0  0  0  0
  180.7660  178.0880  140.7830 C   0  0  0  0  0  2  0  0  0  0  0  0
  180.5750  180.1320  139.3180 N   0  0  0  0  0  2  0  0  0  0  0  0
  180.5990  179.5600  140.6250 C   0  0  0  0  0  0  0  0  0  0  0  0
  180.4540  180.2850  141.6470 O   0  0  0  0  0  0  0  0  0  0  0  0
  180.3980  181.5600  139.1040 C   0  0  0  0  0  2  0  0  0  0  0  0
  181.4820  182.0850  138.1770 C   0  0  0  0  0  2  0  0  0  0  0  0
  182.0900  184.2730  137.4320 O   0  0  0  0  0  1  0  0  0  0  0  0
  181.0340  183.3620  137.4830 C   0  0  0  0  0  2  0  0  0  0  0  0
  1  2  2  0  0  0  0
  1  4  1  0  0  0  0
  2  3  1  0  0  0  0
  3  5  2  0  0  0  0
  4  6  2  0  0  0  0
  5 12  1  0  0  0  0
  6  5  1  0  0  0  0
  7  9  1  0  0  0  0
  9  8  2  0  0  0  0
 10 13  2  0  0  0  0
 11  7  1  0  0  0  0
 12 10  1  0  0  0  0
 12  7  2  0  0  0  0
 13  8  1  0  0  0  0
 14 15  1  0  0  0  0
 14 10  1  0  0  0  0
 16 17  1  6  0  0  0
 16 15  1  0  0  0  0
 16 18  1  0  0  0  0
 19 18  1  0  0  0  0
 20 21  2  0  0  0  0
 21  4  1  0  0  0  0
 21 22  1  0  0  0  0
 23 24  1  0  0  0  0
 24 22  1  0  0  0  0
 24 25  2  0  0  0  0
 26 23  1  0  0  0  0
 27 26  1  0  0  0  0
 28 29  1  0  0  0  0
 29 27  1  0  0  0  0
M  END
>  <MODEL>
4

>  <REMARK>
 VINA RESULT:      -7.4      2.829      8.179
  Name = 
  11 active torsions:
  status: ('A' for Active; 'I' for Inactive)
    1  A    between atoms: C_3  and  C_19
    2  A    between atoms: C_5  and  O_6
    3  A    between atoms: C_5  and  C_9
    4  A    between atoms: O_6  and  C_14
    5  A    between atoms: C_9  and  C_25
    6  A    between atoms: C_11  and  C_18
    7  A    between atoms: C_11  and  C_24
    8  A    between atoms: C_13  and  N_17
    9  A    between atoms: C_13  and  C_19
   10  A    between atoms: C_15  and  C_24
   11  A    between atoms: C_20  and  C_22
                            x       y       z     vdW  Elec       q    Type
                         _______ _______ _______ _____ _____    ______ ____

>  <TORSDO>
F 11

$$$$
=
 OpenBabel11042410253D

 29 30  0  0  1  0  0  0  0  0999 V2000
  184.0390  178.9870  139.7150 C   0  0  0  0  0  3  0  0  0  0  0  0
  185.0780  179.6910  140.2330 N   0  0  0  0  0  0  0  0  0  0  0  0
  185.5130  179.4800  141.4770 N   0  0  0  0  0  0  0  0  0  0  0  0
  183.4030  178.0170  140.4950 C   0  0  0  0  0  0  0  0  0  0  0  0
  184.9390  178.5490  142.2880 C   0  0  0  0  0  0  0  0  0  0  0  0
  183.8620  177.8050  141.7960 C   0  0  0  0  0  3  0  0  0  0  0  0
  184.7250  178.8430  144.7750 C   0  0  0  0  0  0  0  0  0  0  0  0
  186.3940  177.9710  146.2970 C   0  0  0  0  0  3  0  0  0  0  0  0
  185.2000  178.6540  146.0750 C   0  0  0  0  0  3  0  0  0  0  0  0
  186.6650  177.6540  143.9010 C   0  0  0  0  0  0  0  0  0  0  0  0
  183.5190  179.5130  144.6020 O   0  0  0  0  0  1  0  0  0  0  0  0
  185.4480  178.3430  143.6690 C   0  0  0  0  0  0  0  0  0  0  0  0
  187.1200  177.4750  145.2170 C   0  0  0  0  0  3  0  0  0  0  0  0
  187.4150  177.1720  142.8220 O   0  0  0  0  0  0  0  0  0  0  0  0
  188.7720  176.7660  142.9380 C   0  0  0  0  0  2  0  0  0  0  0  0
  189.5480  177.2250  141.7190 C   0  0  1  0  0  3  0  0  0  0  0  0
  190.4030  176.2050  141.2960 O   0  0  0  0  0  1  0  0  0  0  0  0
  188.5750  177.5710  140.6080 C   0  0  0  0  0  2  0  0  0  0  0  0
  189.2650  178.2930  139.5530 N   0  0  0  0  0  1  0  0  0  0  0  0
  181.0980  177.6730  140.0460 O   0  0  0  0  0  0  0  0  0  0  0  0
  182.2750  177.2290  139.9610 C   0  0  0  0  0  0  0  0  0  0  0  0
  182.4950  175.8840  139.3460 C   0  0  0  0  0  2  0  0  0  0  0  0
  184.3610  175.8240  137.6500 N   0  0  0  0  0  2  0  0  0  0  0  0
  182.9810  176.0300  137.9450 C   0  0  0  0  0  0  0  0  0  0  0  0
  182.1620  176.3080  137.0270 O   0  0  0  0  0  0  0  0  0  0  0  0
  184.8870  175.9390  136.2990 C   0  0  0  0  0  2  0  0  0  0  0  0
  185.5470  177.2950  136.1100 C   0  0  0  0  0  2  0  0  0  0  0  0
  186.9490  178.9220  137.1590 O   0  0  0  0  0  1  0  0  0  0  0  0
  186.4840  177.6100  137.2650 C   0  0  0  0  0  2  0  0  0  0  0  0
  1  2  2  0  0  0  0
  1  4  1  0  0  0  0
  2  3  1  0  0  0  0
  3  5  2  0  0  0  0
  4  6  2  0  0  0  0
  5 12  1  0  0  0  0
  6  5  1  0  0  0  0
  7  9  1  0  0  0  0
  9  8  2  0  0  0  0
 10 13  2  0  0  0  0
 11  7  1  0  0  0  0
 12 10  1  0  0  0  0
 12  7  2  0  0  0  0
 13  8  1  0  0  0  0
 14 15  1  0  0  0  0
 14 10  1  0  0  0  0
 16 17  1  6  0  0  0
 16 15  1  0  0  0  0
 18 16  1  0  0  0  0
 19 18  1  0  0  0  0
 21 20  2  0  0  0  0
 21  4  1  0  0  0  0
 22 21  1  0  0  0  0
 23 24  1  0  0  0  0
 24 22  1  0  0  0  0
 25 24  2  0  0  0  0
 26 23  1  0  0  0  0
 27 26  1  0  0  0  0
 27 29  1  0  0  0  0
 28 29  1  0  0  0  0
M  END
>  <MODEL>
5

>  <REMARK>
 VINA RESULT:      -7.4      2.802      7.347
  Name = 
  11 active torsions:
  status: ('A' for Active; 'I' for Inactive)
    1  A    between atoms: C_3  and  C_19
    2  A    between atoms: C_5  and  O_6
    3  A    between atoms: C_5  and  C_9
    4  A    between atoms: O_6  and  C_14
    5  A    between atoms: C_9  and  C_25
    6  A    between atoms: C_11  and  C_18
    7  A    between atoms: C_11  and  C_24
    8  A    between atoms: C_13  and  N_17
    9  A    between atoms: C_13  and  C_19
   10  A    between atoms: C_15  and  C_24
   11  A    between atoms: C_20  and  C_22
                            x       y       z     vdW  Elec       q    Type
                         _______ _______ _______ _____ _____    ______ ____

>  <TORSDO>
F 11

$$$$
=
 OpenBabel11042410253D

 29 30  0  0  1  0  0  0  0  0999 V2000
  188.9150  177.9070  140.5610 C   0  0  0  0  0  3  0  0  0  0  0  0
  187.8740  178.6380  140.0850 N   0  0  0  0  0  0  0  0  0  0  0  0
  186.7660  178.8230  140.8060 N   0  0  0  0  0  0  0  0  0  0  0  0
  188.8340  177.3320  141.8320 C   0  0  0  0  0  0  0  0  0  0  0  0
  186.6240  178.2920  142.0520 C   0  0  0  0  0  0  0  0  0  0  0  0
  187.6700  177.5280  142.5770 C   0  0  0  0  0  3  0  0  0  0  0  0
  184.1600  178.7780  142.1510 C   0  0  0  0  0  0  0  0  0  0  0  0
  182.9930  178.9560  144.2650 C   0  0  0  0  0  3  0  0  0  0  0  0
  182.9840  178.9940  142.8730 C   0  0  0  0  0  3  0  0  0  0  0  0
  185.3790  178.4850  144.2420 C   0  0  0  0  0  0  0  0  0  0  0  0
  184.1000  178.8070  140.7620 O   0  0  0  0  0  1  0  0  0  0  0  0
  185.3750  178.5180  142.8250 C   0  0  0  0  0  0  0  0  0  0  0  0
  184.1830  178.7020  144.9440 C   0  0  0  0  0  3  0  0  0  0  0  0
  186.5740  178.2560  144.9350 O   0  0  0  0  0  0  0  0  0  0  0  0
  186.6280  177.6050  146.1970 C   0  0  0  0  0  2  0  0  0  0  0  0
  187.1050  178.5810  147.2540 C   0  0  1  0  0  3  0  0  0  0  0  0
  186.0240  179.3280  147.7260 O   0  0  0  0  0  1  0  0  0  0  0  0
  187.7340  177.8100  148.3990 C   0  0  0  0  0  2  0  0  0  0  0  0
  189.1070  178.2420  148.5910 N   0  0  0  0  0  1  0  0  0  0  0  0
  189.7710  175.3300  142.6990 O   0  0  0  0  0  0  0  0  0  0  0  0
  189.9500  176.5370  142.3820 C   0  0  0  0  0  0  0  0  0  0  0  0
  191.2970  177.1480  142.6060 C   0  0  0  0  0  2  0  0  0  0  0  0
  191.4340  176.4710  145.0320 N   0  0  0  0  0  2  0  0  0  0  0  0
  191.4720  177.4990  144.0440 C   0  0  0  0  0  0  0  0  0  0  0  0
  191.6790  178.6990  144.3720 O   0  0  0  0  0  0  0  0  0  0  0  0
  191.6150  176.7540  146.4470 C   0  0  0  0  0  2  0  0  0  0  0  0
  192.3640  175.6130  147.1150 C   0  0  0  0  0  2  0  0  0  0  0  0
  192.4250  177.3110  148.7950 O   0  0  0  0  0  1  0  0  0  0  0  0
  192.8150  176.0020  148.5140 C   0  0  0  0  0  2  0  0  0  0  0  0
  1  4  1  0  0  0  0
  2  1  2  0  0  0  0
  2  3  1  0  0  0  0
  3  5  2  0  0  0  0
  4 21  1  0  0  0  0
  4  6  2  0  0  0  0
  5  6  1  0  0  0  0
  5 12  1  0  0  0  0
  7 12  2  0  0  0  0
  7  9  1  0  0  0  0
  8 13  1  0  0  0  0
  9  8  2  0  0  0  0
 10 14  1  0  0  0  0
 10 13  2  0  0  0  0
 11  7  1  0  0  0  0
 12 10  1  0  0  0  0
 14 15  1  0  0  0  0
 15 16  1  0  0  0  0
 16 17  1  1  0  0  0
 16 18  1  0  0  0  0
 18 19  1  0  0  0  0
 21 22  1  0  0  0  0
 21 20  2  0  0  0  0
 22 24  1  0  0  0  0
 23 26  1  0  0  0  0
 24 25  2  0  0  0  0
 24 23  1  0  0  0  0
 26 27  1  0  0  0  0
 27 29  1  0  0  0  0
 29 28  1  0  0  0  0
M  END
>  <MODEL>
6

>  <REMARK>
 VINA RESULT:      -7.4      1.583      4.364
  Name = 
  11 active torsions:
  status: ('A' for Active; 'I' for Inactive)
    1  A    between atoms: C_3  and  C_19
    2  A    between atoms: C_5  and  O_6
    3  A    between atoms: C_5  and  C_9
    4  A    between atoms: O_6  and  C_14
    5  A    between atoms: C_9  and  C_25
    6  A    between atoms: C_11  and  C_18
    7  A    between atoms: C_11  and  C_24
    8  A    between atoms: C_13  and  N_17
    9  A    between atoms: C_13  and  C_19
   10  A    between atoms: C_15  and  C_24
   11  A    between atoms: C_20  and  C_22
                            x       y       z     vdW  Elec       q    Type
                         _______ _______ _______ _____ _____    ______ ____

>  <TORSDO>
F 11

$$$$
=
 OpenBabel11042410253D

 29 30  0  0  1  0  0  0  0  0999 V2000
  184.3320  178.7790  145.7130 C   0  0  0  0  0  3  0  0  0  0  0  0
  184.9890  178.7120  146.9000 N   0  0  0  0  0  0  0  0  0  0  0  0
  186.2640  178.3260  146.9690 N   0  0  0  0  0  0  0  0  0  0  0  0
  184.9970  178.4370  144.5330 C   0  0  0  0  0  0  0  0  0  0  0  0
  186.9700  177.9810  145.8570 C   0  0  0  0  0  0  0  0  0  0  0  0
  186.3300  178.0310  144.6150 C   0  0  0  0  0  3  0  0  0  0  0  0
  188.9130  177.1640  147.2260 C   0  0  0  0  0  0  0  0  0  0  0  0
  191.0770  176.7450  146.2220 C   0  0  0  0  0  3  0  0  0  0  0  0
  190.2470  176.7630  147.3410 C   0  0  0  0  0  3  0  0  0  0  0  0
  189.2400  177.5380  144.8400 C   0  0  0  0  0  0  0  0  0  0  0  0
  188.1160  177.1480  148.3650 O   0  0  0  0  0  1  0  0  0  0  0  0
  188.3890  177.5540  145.9730 C   0  0  0  0  0  0  0  0  0  0  0  0
  190.5760  177.1290  144.9810 C   0  0  0  0  0  3  0  0  0  0  0  0
  188.7540  177.9450  143.5920 O   0  0  0  0  0  0  0  0  0  0  0  0
  189.5980  178.2300  142.4840 C   0  0  0  0  0  2  0  0  0  0  0  0
  189.0960  177.4930  141.2580 C   0  0  1  0  0  3  0  0  0  0  0  0
  188.3860  178.3740  140.4390 O   0  0  0  0  0  1  0  0  0  0  0  0
  190.2790  176.9270  140.4950 C   0  0  0  0  0  2  0  0  0  0  0  0
  191.5130  177.5030  141.0000 N   0  0  0  0  0  1  0  0  0  0  0  0
  183.1590  179.0010  143.1410 O   0  0  0  0  0  0  0  0  0  0  0  0
  184.3150  178.5050  143.2250 C   0  0  0  0  0  0  0  0  0  0  0  0
  184.9580  177.9630  141.9890 C   0  0  0  0  0  2  0  0  0  0  0  0
  183.3260  178.0950  140.0700 N   0  0  0  0  0  2  0  0  0  0  0  0
  184.4260  178.6580  140.7830 C   0  0  0  0  0  0  0  0  0  0  0  0
  184.9350  179.7530  140.4190 O   0  0  0  0  0  0  0  0  0  0  0  0
  182.7570  178.7380  138.8960 C   0  0  0  0  0  2  0  0  0  0  0  0
  181.5640  179.5900  139.2970 C   0  0  0  0  0  2  0  0  0  0  0  0
  182.9640  181.4370  138.7190 O   0  0  0  0  0  1  0  0  0  0  0  0
  181.6490  180.9740  138.6750 C   0  0  0  0  0  2  0  0  0  0  0  0
  1  2  1  0  0  0  0
  2  3  2  0  0  0  0
  4  6  1  0  0  0  0
  4  1  2  0  0  0  0
  5 12  1  0  0  0  0
  5  3  1  0  0  0  0
  6  5  2  0  0  0  0
  7  9  1  0  0  0  0
  7 11  1  0  0  0  0
  8  9  2  0  0  0  0
 10 13  2  0  0  0  0
 10 12  1  0  0  0  0
 12  7  2  0  0  0  0
 13  8  1  0  0  0  0
 14 10  1  0  0  0  0
 15 14  1  0  0  0  0
 16 17  1  6  0  0  0
 16 15  1  0  0  0  0
 18 19  1  0  0  0  0
 18 16  1  0  0  0  0
 20 21  2  0  0  0  0
 21  4  1  0  0  0  0
 22 21  1  0  0  0  0
 23 24  1  0  0  0  0
 24 22  1  0  0  0  0
 25 24  2  0  0  0  0
 26 27  1  0  0  0  0
 26 23  1  0  0  0  0
 29 28  1  0  0  0  0
 29 27  1  0  0  0  0
M  END
>  <MODEL>
7

>  <REMARK>
 VINA RESULT:      -7.2      2.350      7.329
  Name = 
  11 active torsions:
  status: ('A' for Active; 'I' for Inactive)
    1  A    between atoms: C_3  and  C_19
    2  A    between atoms: C_5  and  O_6
    3  A    between atoms: C_5  and  C_9
    4  A    between atoms: O_6  and  C_14
    5  A    between atoms: C_9  and  C_25
    6  A    between atoms: C_11  and  C_18
    7  A    between atoms: C_11  and  C_24
    8  A    between atoms: C_13  and  N_17
    9  A    between atoms: C_13  and  C_19
   10  A    between atoms: C_15  and  C_24
   11  A    between atoms: C_20  and  C_22
                            x       y       z     vdW  Elec       q    Type
                         _______ _______ _______ _____ _____    ______ ____

>  <TORSDO>
F 11

$$$$
=
 OpenBabel11042410253D

 29 30  0  0  1  0  0  0  0  0999 V2000
  183.3760  178.9470  144.0700 C   0  0  0  0  0  3  0  0  0  0  0  0
  183.4120  179.0090  145.4260 N   0  0  0  0  0  0  0  0  0  0  0  0
  184.5290  178.7410  146.1060 N   0  0  0  0  0  0  0  0  0  0  0  0
  184.5270  178.5950  143.3610 C   0  0  0  0  0  0  0  0  0  0  0  0
  185.6850  178.3940  145.4760 C   0  0  0  0  0  0  0  0  0  0  0  0
  185.6900  178.3130  144.0800 C   0  0  0  0  0  3  0  0  0  0  0  0
  187.0710  178.6520  147.5580 C   0  0  0  0  0  0  0  0  0  0  0  0
  189.2220  177.5650  147.7830 C   0  0  0  0  0  3  0  0  0  0  0  0
  188.2200  178.3810  148.3030 C   0  0  0  0  0  3  0  0  0  0  0  0
  187.9350  177.2750  145.7410 C   0  0  0  0  0  0  0  0  0  0  0  0
  186.0880  179.4560  148.1240 O   0  0  0  0  0  1  0  0  0  0  0  0
  186.9090  178.1000  146.2670 C   0  0  0  0  0  0  0  0  0  0  0  0
  189.0790  177.0160  146.5110 C   0  0  0  0  0  3  0  0  0  0  0  0
  187.8130  176.7380  144.4540 O   0  0  0  0  0  0  0  0  0  0  0  0
  188.9250  176.5050  143.6000 C   0  0  0  0  0  2  0  0  0  0  0  0
  189.0970  177.6780  142.6560 C   0  0  1  0  0  3  0  0  0  0  0  0
  190.2470  178.3920  142.9980 O   0  0  0  0  0  1  0  0  0  0  0  0
  189.2190  177.1630  141.2340 C   0  0  0  0  0  2  0  0  0  0  0  0
  190.6200  177.0080  140.8830 N   0  0  0  0  0  1  0  0  0  0  0  0
  183.5400  178.0200  141.2800 O   0  0  0  0  0  0  0  0  0  0  0  0
  184.5240  178.5240  141.8870 C   0  0  0  0  0  0  0  0  0  0  0  0
  185.6900  179.0120  141.0870 C   0  0  0  0  0  2  0  0  0  0  0  0
  185.9540  177.9750  138.8030 N   0  0  0  0  0  2  0  0  0  0  0  0
  185.3690  178.9770  139.6320 C   0  0  0  0  0  0  0  0  0  0  0  0
  184.5610  179.8170  139.1520 O   0  0  0  0  0  0  0  0  0  0  0  0
  185.6640  177.8840  137.3800 C   0  0  0  0  0  2  0  0  0  0  0  0
  186.8660  178.3450  136.5730 C   0  0  0  0  0  2  0  0  0  0  0  0
  189.0210  179.2220  137.1190 O   0  0  0  0  0  1  0  0  0  0  0  0
  188.1550  178.1550  137.3580 C   0  0  0  0  0  2  0  0  0  0  0  0
  1  2  1  0  0  0  0
  2  3  2  0  0  0  0
  4  1  2  0  0  0  0
  4  6  1  0  0  0  0
  5  3  1  0  0  0  0
  5 12  1  0  0  0  0
  6  5  2  0  0  0  0
  7 11  1  0  0  0  0
  7  9  1  0  0  0  0
  8  9  2  0  0  0  0
 10 12  1  0  0  0  0
 10 13  2  0  0  0  0
 12  7  2  0  0  0  0
 13  8  1  0  0  0  0
 14 10  1  0  0  0  0
 15 14  1  0  0  0  0
 16 17  1  1  0  0  0
 16 15  1  0  0  0  0
 18 16  1  0  0  0  0
 19 18  1  0  0  0  0
 20 21  2  0  0  0  0
 21  4  1  0  0  0  0
 22 21  1  0  0  0  0
 23 24  1  0  0  0  0
 24 22  1  0  0  0  0
 25 24  2  0  0  0  0
 26 23  1  0  0  0  0
 27 29  1  0  0  0  0
 27 26  1  0  0  0  0
 28 29  1  0  0  0  0
M  END
>  <MODEL>
8

>  <REMARK>
 VINA RESULT:      -7.2      2.399      7.018
  Name = 
  11 active torsions:
  status: ('A' for Active; 'I' for Inactive)
    1  A    between atoms: C_3  and  C_19
    2  A    between atoms: C_5  and  O_6
    3  A    between atoms: C_5  and  C_9
    4  A    between atoms: O_6  and  C_14
    5  A    between atoms: C_9  and  C_25
    6  A    between atoms: C_11  and  C_18
    7  A    between atoms: C_11  and  C_24
    8  A    between atoms: C_13  and  N_17
    9  A    between atoms: C_13  and  C_19
   10  A    between atoms: C_15  and  C_24
   11  A    between atoms: C_20  and  C_22
                            x       y       z     vdW  Elec       q    Type
                         _______ _______ _______ _____ _____    ______ ____

>  <TORSDO>
F 11

$$$$
=
 OpenBabel11042410253D

 29 30  0  0  1  0  0  0  0  0999 V2000
  183.1360  179.0070  143.5470 C   0  0  0  0  0  3  0  0  0  0  0  0
  183.1570  179.0410  144.9050 N   0  0  0  0  0  0  0  0  0  0  0  0
  184.2650  178.7590  145.5920 N   0  0  0  0  0  0  0  0  0  0  0  0
  184.2960  178.6700  142.8450 C   0  0  0  0  0  0  0  0  0  0  0  0
  185.4290  178.4250  144.9690 C   0  0  0  0  0  0  0  0  0  0  0  0
  185.4500  178.3730  143.5720 C   0  0  0  0  0  3  0  0  0  0  0  0
  186.7360  178.5360  147.1130 C   0  0  0  0  0  0  0  0  0  0  0  0
  188.9380  177.5460  147.3010 C   0  0  0  0  0  3  0  0  0  0  0  0
  187.8770  178.2490  147.8670 C   0  0  0  0  0  3  0  0  0  0  0  0
  187.7290  177.4050  145.1960 C   0  0  0  0  0  0  0  0  0  0  0  0
  185.6930  179.2230  147.7240 O   0  0  0  0  0  1  0  0  0  0  0  0
  186.6440  178.1150  145.7670 C   0  0  0  0  0  0  0  0  0  0  0  0
  188.8630  177.1270  145.9750 C   0  0  0  0  0  3  0  0  0  0  0  0
  187.6750  177.0000  143.8560 O   0  0  0  0  0  0  0  0  0  0  0  0
  188.7350  176.3080  143.2100 C   0  0  0  0  0  2  0  0  0  0  0  0
  189.4750  177.2560  142.2870 C   0  0  1  0  0  3  0  0  0  0  0  0
  190.2860  176.5260  141.4170 O   0  0  0  0  0  1  0  0  0  0  0  0
  188.4690  178.0650  141.4900 C   0  0  0  0  0  2  0  0  0  0  0  0
  188.6830  177.8590  140.0690 N   0  0  0  0  0  1  0  0  0  0  0  0
  185.0300  179.4380  140.7220 O   0  0  0  0  0  0  0  0  0  0  0  0
  184.3100  178.6300  141.3690 C   0  0  0  0  0  0  0  0  0  0  0  0
  183.4540  177.6640  140.6140 C   0  0  0  0  0  2  0  0  0  0  0  0
  181.1780  178.7500  140.5350 N   0  0  0  0  0  2  0  0  0  0  0  0
  182.3880  178.3930  139.8690 C   0  0  0  0  0  0  0  0  0  0  0  0
  182.5760  178.7110  138.6630 O   0  0  0  0  0  0  0  0  0  0  0  0
  180.1120  179.4750  139.8620 C   0  0  0  0  0  2  0  0  0  0  0  0
  179.9750  180.8680  140.4540 C   0  0  0  0  0  2  0  0  0  0  0  0
  180.0540  180.8780  142.8420 O   0  0  0  0  0  1  0  0  0  0  0  0
  179.1840  180.8320  141.7520 C   0  0  0  0  0  2  0  0  0  0  0  0
  1  2  1  0  0  0  0
  2  3  2  0  0  0  0
  4  1  2  0  0  0  0
  4  6  1  0  0  0  0
  5  3  1  0  0  0  0
  5 12  1  0  0  0  0
  6  5  2  0  0  0  0
  7 11  1  0  0  0  0
  7  9  1  0  0  0  0
  8  9  2  0  0  0  0
 10 12  1  0  0  0  0
 10 13  2  0  0  0  0
 12  7  2  0  0  0  0
 13  8  1  0  0  0  0
 14 10  1  0  0  0  0
 15 14  1  0  0  0  0
 16 17  1  6  0  0  0
 16 15  1  0  0  0  0
 18 16  1  0  0  0  0
 19 18  1  0  0  0  0
 20 21  2  0  0  0  0
 21  4  1  0  0  0  0
 22 21  1  0  0  0  0
 24 23  1  0  0  0  0
 24 22  1  0  0  0  0
 25 24  2  0  0  0  0
 26 27  1  0  0  0  0
 26 23  1  0  0  0  0
 27 29  1  0  0  0  0
 29 28  1  0  0  0  0
M  END
>  <MODEL>
9

>  <REMARK>
 VINA RESULT:      -7.1      2.734      7.451
  Name = 
  11 active torsions:
  status: ('A' for Active; 'I' for Inactive)
    1  A    between atoms: C_3  and  C_19
    2  A    between atoms: C_5  and  O_6
    3  A    between atoms: C_5  and  C_9
    4  A    between atoms: O_6  and  C_14
    5  A    between atoms: C_9  and  C_25
    6  A    between atoms: C_11  and  C_18
    7  A    between atoms: C_11  and  C_24
    8  A    between atoms: C_13  and  N_17
    9  A    between atoms: C_13  and  C_19
   10  A    between atoms: C_15  and  C_24
   11  A    between atoms: C_20  and  C_22
                            x       y       z     vdW  Elec       q    Type
                         _______ _______ _______ _____ _____    ______ ____

>  <TORSDO>
F 11

$$$$
