=
 OpenBabel11042411403D

 65 72  0  0  1  0  0  0  0  0999 V2000
  190.0520  177.1980  139.1720 C   0  0  2  0  0  3  0  0  0  0  0  0
  190.3880  176.8070  140.6060 C   0  0  0  0  0  2  0  0  0  0  0  0
  191.7430  177.3630  141.0120 C   0  0  0  0  0  2  0  0  0  0  0  0
  191.7650  177.6070  142.5080 C   0  0  0  0  0  2  0  0  0  0  0  0
  190.4410  178.0140  142.9580 N   0  0  0  0  0  2  0  0  0  0  0  0
  190.3290  177.7620  144.3890 C   0  0  1  0  0  0  0  0  0  0  0  0
  190.6810  176.3720  144.6960 N   0  0  0  0  0  2  0  0  0  0  0  0
  191.5240  177.4850  145.1750 C   0  0  0  0  0  2  0  0  0  0  0  0
  189.0850  178.1390  145.0570 N   0  0  0  0  0  0  0  0  0  0  0  0
  187.9090  177.6620  144.7770 C   0  0  0  0  0  0  0  0  0  0  0  0
  186.6070  178.2210  146.9430 N   0  0  0  0  0  0  0  0  0  0  0  0
  185.6140  178.5870  144.9890 C   0  0  0  0  0  3  0  0  0  0  0  0
  187.6690  178.0300  147.9160 C   0  0  0  0  0  1  0  0  0  0  0  0
  184.7870  178.9640  146.0410 O   0  0  0  0  0  0  0  0  0  0  0  0
  186.7300  178.1420  145.5290 C   0  0  0  0  0  0  0  0  0  0  0  0
  185.3670  178.7780  147.2830 N   0  0  0  0  0  2  0  0  0  0  0  0
  187.2860  177.3500  142.4610 N   0  0  0  0  0  1  0  0  0  0  0  0
  187.7190  176.6670  143.6680 C   0  0  0  0  0  2  0  0  0  0  0  0
  188.8540  178.1370  139.1750 C   0  0  0  0  0  2  0  0  0  0  0  0
  188.4530  178.4880  137.7500 C   0  0  0  0  0  2  0  0  0  0  0  0
  186.1390  178.1370  138.4670 C   0  0  0  0  0  0  0  0  0  0  0  0
  184.7690  176.1880  136.4740 C   0  0  0  0  0  0  0  0  0  0  0  0
  186.5400  178.6000  139.6830 F   0  0  0  0  0  0  0  0  0  0  0  0
  184.2960  176.6390  137.6310 C   0  0  0  0  0  3  0  0  0  0  0  0
  185.7550  176.8990  135.6530 C   0  0  0  0  0  3  0  0  0  0  0  0
  184.7500  177.8230  138.2900 N   0  0  0  0  0  0  0  0  0  0  0  0
  187.0390  178.0800  137.4720 C   0  0  0  0  0  0  0  0  0  0  0  0
  186.7220  177.7070  136.0810 C   0  0  0  0  0  3  0  0  0  0  0  0
  184.1750  175.0040  135.9190 C   0  0  0  0  0  0  0  0  0  0  0  0
  183.6730  174.0120  135.4510 C   0  0  0  0  0  0  0  0  0  0  0  0
  183.0980  172.8890  134.9220 O   0  0  0  0  0  0  0  0  0  0  0  0
  182.7060  171.8070  135.7550 C   0  0  0  0  0  2  0  0  0  0  0  0
  183.4660  171.8440  137.0700 C   0  0  0  0  0  1  0  0  0  0  0  0
  183.7840  178.4870  139.1490 C   0  0  0  0  0  2  0  0  0  0  0  0
  182.8320  179.3200  138.2960 C   0  0  0  0  0  2  0  0  0  0  0  0
  180.3250  179.9580  137.8700 C   0  0  0  0  0  2  0  0  0  0  0  0
  180.6910  180.3990  139.2850 C   0  0  0  0  0  2  0  0  0  0  0  0
  181.3510  179.1840  138.6720 C   0  0  0  0  0  0  0  0  0  0  0  0
  180.1170  176.4200  140.6160 N   0  0  0  0  0  0  0  0  0  0  0  0
  180.6230  176.7820  138.4840 N   0  0  0  0  0  0  0  0  0  0  0  0
  180.8020  176.5190  137.0610 C   0  0  0  0  0  2  0  0  0  0  0  0
  179.7120  174.5360  138.9680 C   0  0  0  0  0  2  0  0  0  0  0  0
  179.6110  172.9920  137.2070 C   0  0  0  0  0  1  0  0  0  0  0  0
  180.1870  175.8920  139.3810 C   0  0  0  0  0  0  0  0  0  0  0  0
  180.5550  177.6720  140.5140 N   0  0  0  0  0  0  0  0  0  0  0  0
  180.0420  175.2370  136.6870 C   0  0  0  0  0  2  0  0  0  0  0  0
  180.3060  174.1780  137.6720 N   0  0  0  0  0  0  0  0  0  0  0  0
  180.8770  177.8770  139.2200 C   0  0  0  0  0  0  0  0  0  0  0  0
  189.7010  175.9640  138.3560 C   0  0  0  0  0  2  0  0  0  0  0  0
  190.9100  175.2750  137.9350 N   0  0  0  0  0  2  0  0  0  0  0  0
  193.9830  176.8100  137.4390 O   0  0  0  0  0  1  0  0  0  0  0  0
  193.4720  175.2840  135.6770 C   0  0  2  0  0  3  0  0  0  0  0  0
  193.1410  175.7560  137.0900 C   0  0  2  0  0  3  0  0  0  0  0  0
  191.1400  176.2990  135.7520 C   0  0  0  0  0  2  0  0  0  0  0  0
  191.9120  174.9750  134.7930 S   0  0  0  0  0  0  0  0  0  0  0  0
  191.6930  176.2220  137.1590 C   0  0  1  0  0  3  0  0  0  0  0  0
  196.6810  172.2580  137.6640 C   0  0  0  0  0  1  0  0  0  0  0  0
  195.6250  174.0720  136.3200 N   0  0  0  0  0  0  0  0  0  0  0  0
  196.7140  174.7050  137.1260 C   0  0  0  0  0  0  0  0  0  0  0  0
  196.9150  173.4060  136.6970 C   0  0  0  0  0  0  0  0  0  0  0  0
  194.3560  174.0660  135.6690 C   0  0  0  0  0  0  0  0  0  0  0  0
  197.7840  173.1500  135.4770 C   0  0  0  0  0  1  0  0  0  0  0  0
  194.0130  173.0500  135.0100 O   0  0  0  0  0  0  0  0  0  0  0  0
  196.3190  174.9460  138.4430 O   0  0  0  0  0  1  0  0  0  0  0  0
  197.3220  175.7620  136.4450 O   0  0  0  0  0  1  0  0  0  0  0  0
  1 49  1  6  0  0  0
  1 19  1  0  0  0  0
  1  2  1  0  0  0  0
  2  3  1  0  0  0  0
  3  4  1  0  0  0  0
  4  5  1  0  0  0  0
  6  5  1  6  0  0  0
  6  7  1  0  0  0  0
  6  9  1  0  0  0  0
  6  8  1  0  0  0  0
  7  8  1  0  0  0  0
 10  9  2  0  0  0  0
 10 15  1  0  0  0  0
 11 16  1  0  0  0  0
 11 13  1  0  0  0  0
 12 15  2  0  0  0  0
 12 14  1  0  0  0  0
 14 16  1  0  0  0  0
 15 11  1  0  0  0  0
 17 18  1  0  0  0  0
 18 10  1  0  0  0  0
 20 19  1  0  0  0  0
 21 23  1  0  0  0  0
 22 24  2  0  0  0  0
 24 26  1  0  0  0  0
 25 28  2  0  0  0  0
 25 22  1  0  0  0  0
 26 21  1  0  0  0  0
 26 34  1  0  0  0  0
 27 20  1  0  0  0  0
 27 21  2  0  0  0  0
 28 27  1  0  0  0  0
 29 22  1  0  0  0  0
 30 29  3  0  0  0  0
 31 30  1  0  0  0  0
 31 32  1  0  0  0  0
 32 33  1  0  0  0  0
 35 38  1  0  0  0  0
 35 34  1  0  0  0  0
 36 38  1  0  0  0  0
 36 37  1  0  0  0  0
 38 48  1  0  0  0  0
 38 37  1  0  0  0  0
 40 48  1  0  0  0  0
 40 44  1  0  0  0  0
 41 40  1  0  0  0  0
 42 44  1  0  0  0  0
 43 47  1  0  0  0  0
 44 39  2  0  0  0  0
 45 39  1  0  0  0  0
 46 41  1  0  0  0  0
 46 47  1  0  0  0  0
 47 42  1  0  0  0  0
 48 45  2  0  0  0  0
 50 49  1  0  0  0  0
 52 61  1  1  0  0  0
 52 53  1  0  0  0  0
 53 56  1  0  0  0  0
 53 51  1  6  0  0  0
 54 56  1  0  0  0  0
 55 52  1  0  0  0  0
 55 54  1  0  0  0  0
 56 50  1  1  0  0  0
 58 60  1  0  0  0  0
 58 59  1  0  0  0  0
 59 64  1  0  0  0  0
 60 59  1  0  0  0  0
 60 57  1  0  0  0  0
 61 58  1  0  0  0  0
 62 60  1  0  0  0  0
 63 61  2  0  0  0  0
 65 59  1  0  0  0  0
M  END
>  <MODEL>
1

>  <REMARK>
 VINA RESULT:      -7.6      0.000      0.000
  Name = 
  22 active torsions:
  status: ('A' for Active; 'I' for Inactive)
    1  A    between atoms: C_2  and  C_36
    2  A    between atoms: C_8  and  C_9
    3  A    between atoms: C_10  and  O_32
    4  A    between atoms: C_11  and  C_27
    5  A    between atoms: C_11  and  C_48
    6  A    between atoms: C_12  and  C_33
    7  A    between atoms: C_12  and  C_50
    8  A    between atoms: C_14  and  C_43
    9  A    between atoms: C_14  and  C_52
   10  A    between atoms: C_18  and  C_21
   11  A    between atoms: C_18  and  N_54
   12  A    between atoms: N_20  and  C_29
   13  A    between atoms: C_21  and  C_50
   14  A    between atoms: C_21  and  C_52
   15  A    between atoms: C_27  and  C_62
   16  A    between atoms: C_29  and  N_58
   17  A    between atoms: O_32  and  C_40
   18  A    between atoms: C_33  and  N_58
   19  A    between atoms: N_39  and  C_48
   20  A    between atoms: C_42  and  N_54
   21  A    between atoms: C_46  and  C_57
   22  A    between atoms: C_57  and  C_60
                            x       y       z     vdW  Elec       q    Type
                         _______ _______ _______ _____ _____    ______ ____

>  <TORSDO>
F 22

$$$$
=
 OpenBabel11042411403D

 65 72  0  0  1  0  0  0  0  0999 V2000
  188.2920  177.5310  137.2480 C   0  0  2  0  0  3  0  0  0  0  0  0
  189.6460  176.8340  137.2980 C   0  0  0  0  0  2  0  0  0  0  0  0
  190.0210  176.2870  135.9310 C   0  0  0  0  0  2  0  0  0  0  0  0
  191.5210  176.0780  135.8610 C   0  0  0  0  0  2  0  0  0  0  0  0
  191.9180  175.0530  136.8160 N   0  0  0  0  0  2  0  0  0  0  0  0
  192.8400  174.1320  136.1640 C   0  0  1  0  0  0  0  0  0  0  0  0
  192.2900  172.7720  136.1570 N   0  0  0  0  0  2  0  0  0  0  0  0
  192.4770  173.5140  134.8960 C   0  0  0  0  0  2  0  0  0  0  0  0
  194.2320  174.1230  136.6090 N   0  0  0  0  0  0  0  0  0  0  0  0
  195.1420  174.9760  136.2440 C   0  0  0  0  0  0  0  0  0  0  0  0
  196.8890  174.6600  138.1270 N   0  0  0  0  0  0  0  0  0  0  0  0
  197.6140  174.8560  136.0360 C   0  0  0  0  0  3  0  0  0  0  0  0
  195.9950  174.3800  139.2380 C   0  0  0  0  0  1  0  0  0  0  0  0
  198.6780  174.6690  136.9110 O   0  0  0  0  0  0  0  0  0  0  0  0
  196.5190  174.8420  136.7680 C   0  0  0  0  0  0  0  0  0  0  0  0
  198.2790  174.5170  138.2280 N   0  0  0  0  0  2  0  0  0  0  0  0
  195.3510  177.3340  135.7460 N   0  0  0  0  0  1  0  0  0  0  0  0
  194.8330  176.0670  135.2600 C   0  0  0  0  0  2  0  0  0  0  0  0
  187.6500  177.4830  138.6270 C   0  0  0  0  0  2  0  0  0  0  0  0
  188.4130  178.3720  139.5980 C   0  0  0  0  0  2  0  0  0  0  0  0
  187.3800  178.2700  141.8150 C   0  0  0  0  0  0  0  0  0  0  0  0
  189.4490  177.1080  143.8190 C   0  0  0  0  0  0  0  0  0  0  0  0
  186.4760  179.1680  141.3360 F   0  0  0  0  0  0  0  0  0  0  0  0
  188.2640  177.6460  144.0880 C   0  0  0  0  0  3  0  0  0  0  0  0
  189.7950  176.4710  142.5440 C   0  0  0  0  0  3  0  0  0  0  0  0
  187.1950  177.7730  143.1480 N   0  0  0  0  0  0  0  0  0  0  0  0
  188.3450  177.8300  140.9930 C   0  0  0  0  0  0  0  0  0  0  0  0
  189.3210  176.7800  141.3390 C   0  0  0  0  0  3  0  0  0  0  0  0
  190.4040  177.0130  144.8870 C   0  0  0  0  0  0  0  0  0  0  0  0
  191.2030  176.9340  145.7880 C   0  0  0  0  0  0  0  0  0  0  0  0
  192.1080  176.8500  146.8100 O   0  0  0  0  0  0  0  0  0  0  0  0
  192.3410  175.6210  147.4820 C   0  0  0  0  0  2  0  0  0  0  0  0
  193.1140  175.8540  148.7690 C   0  0  0  0  0  1  0  0  0  0  0  0
  185.8530  177.7920  143.7050 C   0  0  0  0  0  2  0  0  0  0  0  0
  184.8410  178.0250  142.5880 C   0  0  0  0  0  2  0  0  0  0  0  0
  183.6980  180.0140  143.8560 C   0  0  0  0  0  2  0  0  0  0  0  0
  183.2250  178.7110  144.4960 C   0  0  0  0  0  2  0  0  0  0  0  0
  183.5650  178.7560  143.0230 C   0  0  0  0  0  0  0  0  0  0  0  0
  180.3370  178.5400  141.4490 N   0  0  0  0  0  0  0  0  0  0  0  0
  182.3970  179.0790  140.8180 N   0  0  0  0  0  0  0  0  0  0  0  0
  183.4920  179.4950  139.9500 C   0  0  0  0  0  2  0  0  0  0  0  0
  180.6790  179.2980  139.0540 C   0  0  0  0  0  2  0  0  0  0  0  0
  181.3890  179.8940  136.9010 C   0  0  0  0  0  1  0  0  0  0  0  0
  181.1270  178.9260  140.4310 C   0  0  0  0  0  0  0  0  0  0  0  0
  181.1300  178.4060  142.5090 N   0  0  0  0  0  0  0  0  0  0  0  0
  182.9120  180.1150  138.6690 C   0  0  0  0  0  2  0  0  0  0  0  0
  181.8280  179.2750  138.1380 N   0  0  0  0  0  0  0  0  0  0  0  0
  182.3820  178.7180  142.1110 C   0  0  0  0  0  0  0  0  0  0  0  0
  187.3730  176.8320  136.2590 C   0  0  0  0  0  2  0  0  0  0  0  0
  186.3450  176.0840  136.9650 N   0  0  0  0  0  2  0  0  0  0  0  0
  185.9430  172.7990  138.0110 O   0  0  0  0  0  1  0  0  0  0  0  0
  184.5830  173.2860  136.1110 C   0  0  2  0  0  3  0  0  0  0  0  0
  185.4280  173.8480  137.2500 C   0  0  2  0  0  3  0  0  0  0  0  0
  186.6440  174.4600  135.1930 C   0  0  0  0  0  2  0  0  0  0  0  0
  184.9510  174.2300  134.6010 S   0  0  0  0  0  0  0  0  0  0  0  0
  186.5760  174.6760  136.6890 C   0  0  1  0  0  3  0  0  0  0  0  0
  180.2100  175.3560  136.2060 C   0  0  0  0  0  1  0  0  0  0  0  0
  182.4630  174.5050  136.8490 N   0  0  0  0  0  0  0  0  0  0  0  0
  182.4320  175.9590  137.1960 C   0  0  0  0  0  0  0  0  0  0  0  0
  181.2480  175.2530  137.3100 C   0  0  0  0  0  0  0  0  0  0  0  0
  183.1110  173.3070  136.4230 C   0  0  0  0  0  0  0  0  0  0  0  0
  180.7930  174.7790  138.6800 C   0  0  0  0  0  1  0  0  0  0  0  0
  182.4500  172.2350  136.3930 O   0  0  0  0  0  0  0  0  0  0  0  0
  182.6490  176.7700  136.0810 O   0  0  0  0  0  1  0  0  0  0  0  0
  183.1850  176.2390  138.3390 O   0  0  0  0  0  1  0  0  0  0  0  0
  1 49  1  6  0  0  0
  1  2  1  0  0  0  0
  1 19  1  0  0  0  0
  3  2  1  0  0  0  0
  4  3  1  0  0  0  0
  4  5  1  0  0  0  0
  6  9  1  1  0  0  0
  6  5  1  0  0  0  0
  7  6  1  0  0  0  0
  8  7  1  0  0  0  0
  8  6  1  0  0  0  0
 10  9  2  0  0  0  0
 10 15  1  0  0  0  0
 11 16  1  0  0  0  0
 11 13  1  0  0  0  0
 12 15  2  0  0  0  0
 12 14  1  0  0  0  0
 14 16  1  0  0  0  0
 15 11  1  0  0  0  0
 18 17  1  0  0  0  0
 18 10  1  0  0  0  0
 19 20  1  0  0  0  0
 20 27  1  0  0  0  0
 21 26  1  0  0  0  0
 22 24  2  0  0  0  0
 22 29  1  0  0  0  0
 23 21  1  0  0  0  0
 25 22  1  0  0  0  0
 26 34  1  0  0  0  0
 26 24  1  0  0  0  0
 27 28  1  0  0  0  0
 27 21  2  0  0  0  0
 28 25  2  0  0  0  0
 29 30  3  0  0  0  0
 30 31  1  0  0  0  0
 31 32  1  0  0  0  0
 32 33  1  0  0  0  0
 35 38  1  0  0  0  0
 35 34  1  0  0  0  0
 36 37  1  0  0  0  0
 38 36  1  0  0  0  0
 38 37  1  0  0  0  0
 39 45  1  0  0  0  0
 40 48  1  0  0  0  0
 41 40  1  0  0  0  0
 42 44  1  0  0  0  0
 43 47  1  0  0  0  0
 44 40  1  0  0  0  0
 44 39  2  0  0  0  0
 46 41  1  0  0  0  0
 47 46  1  0  0  0  0
 47 42  1  0  0  0  0
 48 45  2  0  0  0  0
 48 38  1  0  0  0  0
 49 50  1  0  0  0  0
 52 61  1  1  0  0  0
 52 53  1  0  0  0  0
 53 51  1  6  0  0  0
 54 56  1  0  0  0  0
 55 54  1  0  0  0  0
 55 52  1  0  0  0  0
 56 50  1  6  0  0  0
 56 53  1  0  0  0  0
 57 60  1  0  0  0  0
 58 59  1  0  0  0  0
 58 60  1  0  0  0  0
 59 60  1  0  0  0  0
 59 65  1  0  0  0  0
 60 62  1  0  0  0  0
 61 58  1  0  0  0  0
 63 61  2  0  0  0  0
 64 59  1  0  0  0  0
M  END
>  <MODEL>
2

>  <REMARK>
 VINA RESULT:      -7.5      2.485      9.756
  Name = 
  22 active torsions:
  status: ('A' for Active; 'I' for Inactive)
    1  A    between atoms: C_2  and  C_36
    2  A    between atoms: C_8  and  C_9
    3  A    between atoms: C_10  and  O_32
    4  A    between atoms: C_11  and  C_27
    5  A    between atoms: C_11  and  C_48
    6  A    between atoms: C_12  and  C_33
    7  A    between atoms: C_12  and  C_50
    8  A    between atoms: C_14  and  C_43
    9  A    between atoms: C_14  and  C_52
   10  A    between atoms: C_18  and  C_21
   11  A    between atoms: C_18  and  N_54
   12  A    between atoms: N_20  and  C_29
   13  A    between atoms: C_21  and  C_50
   14  A    between atoms: C_21  and  C_52
   15  A    between atoms: C_27  and  C_62
   16  A    between atoms: C_29  and  N_58
   17  A    between atoms: O_32  and  C_40
   18  A    between atoms: C_33  and  N_58
   19  A    between atoms: N_39  and  C_48
   20  A    between atoms: C_42  and  N_54
   21  A    between atoms: C_46  and  C_57
   22  A    between atoms: C_57  and  C_60
                            x       y       z     vdW  Elec       q    Type
                         _______ _______ _______ _____ _____    ______ ____

>  <TORSDO>
F 22

$$$$
=
 OpenBabel11042411403D

 65 72  0  0  1  0  0  0  0  0999 V2000
  187.0620  177.9340  137.8630 C   0  0  2  0  0  3  0  0  0  0  0  0
  188.3420  177.2350  138.3070 C   0  0  0  0  0  2  0  0  0  0  0  0
  188.9040  176.3780  137.1850 C   0  0  0  0  0  2  0  0  0  0  0  0
  190.4170  176.3560  137.2720 C   0  0  0  0  0  2  0  0  0  0  0  0
  190.8540  175.1190  137.9020 N   0  0  0  0  0  2  0  0  0  0  0  0
  191.6340  174.3490  136.9410 C   0  0  1  0  0  0  0  0  0  0  0  0
  190.8700  173.1890  136.4710 N   0  0  0  0  0  2  0  0  0  0  0  0
  191.2160  174.2870  135.5480 C   0  0  0  0  0  2  0  0  0  0  0  0
  192.9910  173.9550  137.3160 N   0  0  0  0  0  0  0  0  0  0  0  0
  194.0440  174.7110  137.2210 C   0  0  0  0  0  0  0  0  0  0  0  0
  196.1900  173.3050  136.8710 N   0  0  0  0  0  0  0  0  0  0  0  0
  195.9740  174.4530  138.7630 C   0  0  0  0  0  3  0  0  0  0  0  0
  195.9990  172.9190  135.4840 C   0  0  0  0  0  1  0  0  0  0  0  0
  197.1890  173.7780  138.7300 O   0  0  0  0  0  0  0  0  0  0  0  0
  195.3620  174.1780  137.6290 C   0  0  0  0  0  0  0  0  0  0  0  0
  197.3850  173.0650  137.5610 N   0  0  0  0  0  2  0  0  0  0  0  0
  195.1700  176.4160  135.9270 N   0  0  0  0  0  1  0  0  0  0  0  0
  193.9550  176.1000  136.6570 C   0  0  0  0  0  2  0  0  0  0  0  0
  186.1300  178.0830  139.0570 C   0  0  0  0  0  2  0  0  0  0  0  0
  186.8410  178.7960  140.1970 C   0  0  0  0  0  2  0  0  0  0  0  0
  185.0890  178.9680  141.8980 C   0  0  0  0  0  0  0  0  0  0  0  0
  186.2410  177.9860  144.6110 C   0  0  0  0  0  0  0  0  0  0  0  0
  184.4700  179.8290  141.0450 F   0  0  0  0  0  0  0  0  0  0  0  0
  185.0740  178.5800  144.3860 C   0  0  0  0  0  3  0  0  0  0  0  0
  186.9730  177.2020  143.6100 C   0  0  0  0  0  3  0  0  0  0  0  0
  184.4150  178.6280  143.1190 N   0  0  0  0  0  0  0  0  0  0  0  0
  186.2520  178.4140  141.5210 C   0  0  0  0  0  0  0  0  0  0  0  0
  186.9750  177.3860  142.2920 C   0  0  0  0  0  3  0  0  0  0  0  0
  186.7500  177.9870  145.9530 C   0  0  0  0  0  0  0  0  0  0  0  0
  187.1770  177.9830  147.0820 C   0  0  0  0  0  0  0  0  0  0  0  0
  187.6560  177.9760  148.3630 O   0  0  0  0  0  0  0  0  0  0  0  0
  189.0080  178.3100  148.6400 C   0  0  0  0  0  2  0  0  0  0  0  0
  189.9500  177.4550  147.8100 C   0  0  0  0  0  1  0  0  0  0  0  0
  182.9670  178.7420  143.1550 C   0  0  0  0  0  2  0  0  0  0  0  0
  182.4040  178.5350  141.7520 C   0  0  0  0  0  2  0  0  0  0  0  0
  180.2910  179.8910  142.5060 C   0  0  0  0  0  2  0  0  0  0  0  0
  180.0200  178.4110  142.7650 C   0  0  0  0  0  2  0  0  0  0  0  0
  180.9060  178.8320  141.6140 C   0  0  0  0  0  0  0  0  0  0  0  0
  178.9370  178.0340  138.7110 N   0  0  0  0  0  0  0  0  0  0  0  0
  180.5610  179.4660  139.2030 N   0  0  0  0  0  0  0  0  0  0  0  0
  181.5450  180.5270  139.0220 C   0  0  0  0  0  2  0  0  0  0  0  0
  179.6700  179.6570  136.9060 C   0  0  0  0  0  2  0  0  0  0  0  0
  180.6960  181.1870  135.4560 C   0  0  0  0  0  1  0  0  0  0  0  0
  179.7390  179.0120  138.2530 C   0  0  0  0  0  0  0  0  0  0  0  0
  179.2790  177.8320  139.9800 N   0  0  0  0  0  0  0  0  0  0  0  0
  181.2180  181.3040  137.7390 C   0  0  0  0  0  2  0  0  0  0  0  0
  180.9240  180.3750  136.6370 N   0  0  0  0  0  0  0  0  0  0  0  0
  180.2790  178.6940  140.2650 C   0  0  0  0  0  0  0  0  0  0  0  0
  186.3560  177.1160  136.7930 C   0  0  0  0  0  2  0  0  0  0  0  0
  185.3730  176.2330  137.3990 N   0  0  0  0  0  2  0  0  0  0  0  0
  185.3690  172.8570  138.2070 O   0  0  0  0  0  1  0  0  0  0  0  0
  183.8120  173.3420  136.4640 C   0  0  2  0  0  3  0  0  0  0  0  0
  184.6960  173.9020  137.5760 C   0  0  2  0  0  3  0  0  0  0  0  0
  185.6690  174.7780  135.4850 C   0  0  0  0  0  2  0  0  0  0  0  0
  183.9610  174.4240  135.0100 S   0  0  0  0  0  0  0  0  0  0  0  0
  185.7090  174.8780  136.9950 C   0  0  1  0  0  3  0  0  0  0  0  0
  179.2590  174.9090  136.9470 C   0  0  0  0  0  1  0  0  0  0  0  0
  181.6370  174.3070  137.3920 N   0  0  0  0  0  0  0  0  0  0  0  0
  181.4730  175.7430  137.7730 C   0  0  0  0  0  0  0  0  0  0  0  0
  180.3880  174.9080  137.9640 C   0  0  0  0  0  0  0  0  0  0  0  0
  182.3760  173.1940  136.8910 C   0  0  0  0  0  0  0  0  0  0  0  0
  180.0980  174.3680  139.3550 C   0  0  0  0  0  1  0  0  0  0  0  0
  181.8370  172.0560  136.8890 O   0  0  0  0  0  0  0  0  0  0  0  0
  181.5090  176.5880  136.6620 O   0  0  0  0  0  1  0  0  0  0  0  0
  182.2800  176.0910  138.8590 O   0  0  0  0  0  1  0  0  0  0  0  0
  1 49  1  6  0  0  0
  1  2  1  0  0  0  0
  1 19  1  0  0  0  0
  3  4  1  0  0  0  0
  3  2  1  0  0  0  0
  4  5  1  0  0  0  0
  6  9  1  1  0  0  0
  6  5  1  0  0  0  0
  7  6  1  0  0  0  0
  8  7  1  0  0  0  0
  8  6  1  0  0  0  0
 10  9  2  0  0  0  0
 10 15  1  0  0  0  0
 11 16  1  0  0  0  0
 11 15  1  0  0  0  0
 13 11  1  0  0  0  0
 14 12  1  0  0  0  0
 15 12  2  0  0  0  0
 16 14  1  0  0  0  0
 17 18  1  0  0  0  0
 18 10  1  0  0  0  0
 19 20  1  0  0  0  0
 20 27  1  0  0  0  0
 21 26  1  0  0  0  0
 22 29  1  0  0  0  0
 23 21  1  0  0  0  0
 24 22  2  0  0  0  0
 25 22  1  0  0  0  0
 26 34  1  0  0  0  0
 26 24  1  0  0  0  0
 27 21  2  0  0  0  0
 27 28  1  0  0  0  0
 28 25  2  0  0  0  0
 29 30  3  0  0  0  0
 30 31  1  0  0  0  0
 31 32  1  0  0  0  0
 33 32  1  0  0  0  0
 35 34  1  0  0  0  0
 36 37  1  0  0  0  0
 38 35  1  0  0  0  0
 38 36  1  0  0  0  0
 38 37  1  0  0  0  0
 39 45  1  0  0  0  0
 40 48  1  0  0  0  0
 41 40  1  0  0  0  0
 42 44  1  0  0  0  0
 43 47  1  0  0  0  0
 44 39  2  0  0  0  0
 44 40  1  0  0  0  0
 45 48  2  0  0  0  0
 46 41  1  0  0  0  0
 47 42  1  0  0  0  0
 47 46  1  0  0  0  0
 48 38  1  0  0  0  0
 49 50  1  0  0  0  0
 52 61  1  1  0  0  0
 52 53  1  0  0  0  0
 53 51  1  6  0  0  0
 54 56  1  0  0  0  0
 55 54  1  0  0  0  0
 55 52  1  0  0  0  0
 56 50  1  6  0  0  0
 56 53  1  0  0  0  0
 57 60  1  0  0  0  0
 58 59  1  0  0  0  0
 58 60  1  0  0  0  0
 59 60  1  0  0  0  0
 59 65  1  0  0  0  0
 60 62  1  0  0  0  0
 61 58  1  0  0  0  0
 63 61  2  0  0  0  0
 64 59  1  0  0  0  0
M  END
>  <MODEL>
3

>  <REMARK>
 VINA RESULT:      -7.3      2.703      9.721
  Name = 
  22 active torsions:
  status: ('A' for Active; 'I' for Inactive)
    1  A    between atoms: C_2  and  C_36
    2  A    between atoms: C_8  and  C_9
    3  A    between atoms: C_10  and  O_32
    4  A    between atoms: C_11  and  C_27
    5  A    between atoms: C_11  and  C_48
    6  A    between atoms: C_12  and  C_33
    7  A    between atoms: C_12  and  C_50
    8  A    between atoms: C_14  and  C_43
    9  A    between atoms: C_14  and  C_52
   10  A    between atoms: C_18  and  C_21
   11  A    between atoms: C_18  and  N_54
   12  A    between atoms: N_20  and  C_29
   13  A    between atoms: C_21  and  C_50
   14  A    between atoms: C_21  and  C_52
   15  A    between atoms: C_27  and  C_62
   16  A    between atoms: C_29  and  N_58
   17  A    between atoms: O_32  and  C_40
   18  A    between atoms: C_33  and  N_58
   19  A    between atoms: N_39  and  C_48
   20  A    between atoms: C_42  and  N_54
   21  A    between atoms: C_46  and  C_57
   22  A    between atoms: C_57  and  C_60
                            x       y       z     vdW  Elec       q    Type
                         _______ _______ _______ _____ _____    ______ ____

>  <TORSDO>
F 22

$$$$
=
 OpenBabel11042411403D

 65 72  0  0  1  0  0  0  0  0999 V2000
  187.8580  177.8400  138.4490 C   0  0  2  0  0  3  0  0  0  0  0  0
  186.6540  178.2660  137.6170 C   0  0  0  0  0  2  0  0  0  0  0  0
  186.5200  177.3940  136.3800 C   0  0  0  0  0  2  0  0  0  0  0  0
  186.2720  175.9580  136.7950 C   0  0  0  0  0  2  0  0  0  0  0  0
  185.4190  175.3030  135.8130 N   0  0  0  0  0  2  0  0  0  0  0  0
  184.7580  174.1670  136.4430 C   0  0  1  0  0  0  0  0  0  0  0  0
  185.5440  172.9440  136.2540 N   0  0  0  0  0  2  0  0  0  0  0  0
  185.3640  173.5220  137.5990 C   0  0  0  0  0  2  0  0  0  0  0  0
  183.3510  173.9300  136.1270 N   0  0  0  0  0  0  0  0  0  0  0  0
  182.3420  174.4570  136.7540 C   0  0  0  0  0  0  0  0  0  0  0  0
  180.2130  172.9860  136.7400 N   0  0  0  0  0  0  0  0  0  0  0  0
  180.2220  174.8430  135.5190 C   0  0  0  0  0  3  0  0  0  0  0  0
  180.5670  172.0430  137.7870 C   0  0  0  0  0  1  0  0  0  0  0  0
  178.9990  174.1900  135.4150 O   0  0  0  0  0  0  0  0  0  0  0  0
  180.9650  174.1200  136.3320 C   0  0  0  0  0  0  0  0  0  0  0  0
  178.9310  173.0370  136.1770 N   0  0  0  0  0  2  0  0  0  0  0  0
  182.5120  176.7510  137.5020 N   0  0  0  0  0  1  0  0  0  0  0  0
  182.5490  175.3650  137.9330 C   0  0  0  0  0  2  0  0  0  0  0  0
  187.6450  178.2640  139.8950 C   0  0  0  0  0  2  0  0  0  0  0  0
  186.2370  178.8080  140.0850 C   0  0  0  0  0  2  0  0  0  0  0  0
  184.5490  179.0230  141.8450 C   0  0  0  0  0  0  0  0  0  0  0  0
  185.8470  178.2630  144.5620 C   0  0  0  0  0  0  0  0  0  0  0  0
  183.8620  179.8040  140.9650 F   0  0  0  0  0  0  0  0  0  0  0  0
  184.6490  178.7960  144.3500 C   0  0  0  0  0  3  0  0  0  0  0  0
  186.5700  177.4450  143.5830 C   0  0  0  0  0  3  0  0  0  0  0  0
  183.9390  178.7380  143.1120 N   0  0  0  0  0  0  0  0  0  0  0  0
  185.7170  178.4910  141.4540 C   0  0  0  0  0  0  0  0  0  0  0  0
  186.5120  177.5430  142.2560 C   0  0  0  0  0  3  0  0  0  0  0  0
  186.4090  178.3700  145.8790 C   0  0  0  0  0  0  0  0  0  0  0  0
  186.8840  178.4630  146.9850 C   0  0  0  0  0  0  0  0  0  0  0  0
  187.4270  178.5680  148.2350 O   0  0  0  0  0  0  0  0  0  0  0  0
  188.8280  178.4500  148.4360 C   0  0  0  0  0  2  0  0  0  0  0  0
  189.3560  177.1830  147.7860 C   0  0  0  0  0  1  0  0  0  0  0  0
  182.4890  178.7980  143.2020 C   0  0  0  0  0  2  0  0  0  0  0  0
  181.8750  178.2160  141.9330 C   0  0  0  0  0  2  0  0  0  0  0  0
  180.0760  180.1020  142.2180 C   0  0  0  0  0  2  0  0  0  0  0  0
  179.4270  178.7700  142.5860 C   0  0  0  0  0  2  0  0  0  0  0  0
  180.5210  178.8210  141.5430 C   0  0  0  0  0  0  0  0  0  0  0  0
  178.9500  177.8710  138.4480 N   0  0  0  0  0  0  0  0  0  0  0  0
  180.3280  179.4780  139.1210 N   0  0  0  0  0  0  0  0  0  0  0  0
  181.1830  180.6570  139.0550 C   0  0  0  0  0  2  0  0  0  0  0  0
  179.6400  179.6240  136.7510 C   0  0  0  0  0  2  0  0  0  0  0  0
  180.5980  181.3100  135.4340 C   0  0  0  0  0  1  0  0  0  0  0  0
  179.6620  178.9530  138.0870 C   0  0  0  0  0  0  0  0  0  0  0  0
  179.1940  177.6760  139.7420 N   0  0  0  0  0  0  0  0  0  0  0  0
  180.8830  181.4250  137.7590 C   0  0  0  0  0  2  0  0  0  0  0  0
  180.8140  180.4990  136.6180 N   0  0  0  0  0  0  0  0  0  0  0  0
  180.0460  178.6460  140.1370 C   0  0  0  0  0  0  0  0  0  0  0  0
  189.1230  178.5050  137.9290 C   0  0  0  0  0  2  0  0  0  0  0  0
  189.9620  177.5330  137.2460 N   0  0  0  0  0  2  0  0  0  0  0  0
  190.2060  174.0930  137.6360 O   0  0  0  0  0  1  0  0  0  0  0  0
  192.3050  175.1670  138.0030 C   0  0  2  0  0  3  0  0  0  0  0  0
  190.8900  175.2920  137.4460 C   0  0  2  0  0  3  0  0  0  0  0  0
  190.9690  176.8650  139.3450 C   0  0  0  0  0  2  0  0  0  0  0  0
  192.7120  176.7000  138.8930 S   0  0  0  0  0  0  0  0  0  0  0  0
  190.1470  176.4150  138.1560 C   0  0  1  0  0  3  0  0  0  0  0  0
  195.9400  172.6220  136.0740 C   0  0  0  0  0  1  0  0  0  0  0  0
  194.6140  174.3680  137.2600 N   0  0  0  0  0  0  0  0  0  0  0  0
  195.6650  173.8970  138.2130 C   0  0  0  0  0  0  0  0  0  0  0  0
  195.9890  173.9150  136.8690 C   0  0  0  0  0  0  0  0  0  0  0  0
  193.3200  174.8710  136.9320 C   0  0  0  0  0  0  0  0  0  0  0  0
  196.8150  175.0650  136.3170 C   0  0  0  0  0  1  0  0  0  0  0  0
  193.0610  175.1480  135.7310 O   0  0  0  0  0  0  0  0  0  0  0  0
  195.3170  172.6910  138.8250 O   0  0  0  0  0  1  0  0  0  0  0  0
  196.1120  174.9240  139.0480 O   0  0  0  0  0  1  0  0  0  0  0  0
  1  2  1  6  0  0  0
  1 19  1  0  0  0  0
  3  4  1  0  0  0  0
  3  2  1  0  0  0  0
  5  4  1  0  0  0  0
  6  5  1  6  0  0  0
  6  8  1  0  0  0  0
  7  6  1  0  0  0  0
  7  8  1  0  0  0  0
  9  6  1  0  0  0  0
  9 10  2  0  0  0  0
 10 18  1  0  0  0  0
 11 13  1  0  0  0  0
 12 15  2  0  0  0  0
 14 12  1  0  0  0  0
 14 16  1  0  0  0  0
 15 11  1  0  0  0  0
 15 10  1  0  0  0  0
 16 11  1  0  0  0  0
 17 18  1  0  0  0  0
 19 20  1  0  0  0  0
 20 27  1  0  0  0  0
 21 26  1  0  0  0  0
 22 29  1  0  0  0  0
 23 21  1  0  0  0  0
 24 22  2  0  0  0  0
 25 22  1  0  0  0  0
 26 34  1  0  0  0  0
 26 24  1  0  0  0  0
 27 21  2  0  0  0  0
 27 28  1  0  0  0  0
 28 25  2  0  0  0  0
 29 30  3  0  0  0  0
 30 31  1  0  0  0  0
 31 32  1  0  0  0  0
 33 32  1  0  0  0  0
 35 34  1  0  0  0  0
 36 37  1  0  0  0  0
 38 35  1  0  0  0  0
 38 36  1  0  0  0  0
 38 37  1  0  0  0  0
 39 45  1  0  0  0  0
 40 48  1  0  0  0  0
 41 40  1  0  0  0  0
 42 44  1  0  0  0  0
 43 47  1  0  0  0  0
 44 39  2  0  0  0  0
 44 40  1  0  0  0  0
 45 48  2  0  0  0  0
 46 41  1  0  0  0  0
 47 42  1  0  0  0  0
 47 46  1  0  0  0  0
 48 38  1  0  0  0  0
 49  1  1  0  0  0  0
 50 49  1  0  0  0  0
 52 61  1  6  0  0  0
 52 55  1  0  0  0  0
 53 51  1  1  0  0  0
 53 52  1  0  0  0  0
 53 56  1  0  0  0  0
 55 54  1  0  0  0  0
 56 50  1  6  0  0  0
 56 54  1  0  0  0  0
 57 60  1  0  0  0  0
 58 59  1  0  0  0  0
 59 64  1  0  0  0  0
 59 65  1  0  0  0  0
 60 58  1  0  0  0  0
 60 59  1  0  0  0  0
 61 58  1  0  0  0  0
 62 60  1  0  0  0  0
 63 61  2  0  0  0  0
M  END
>  <MODEL>
4

>  <REMARK>
 VINA RESULT:      -7.2      2.564      7.406
  Name = 
  22 active torsions:
  status: ('A' for Active; 'I' for Inactive)
    1  A    between atoms: C_2  and  C_36
    2  A    between atoms: C_8  and  C_9
    3  A    between atoms: C_10  and  O_32
    4  A    between atoms: C_11  and  C_27
    5  A    between atoms: C_11  and  C_48
    6  A    between atoms: C_12  and  C_33
    7  A    between atoms: C_12  and  C_50
    8  A    between atoms: C_14  and  C_43
    9  A    between atoms: C_14  and  C_52
   10  A    between atoms: C_18  and  C_21
   11  A    between atoms: C_18  and  N_54
   12  A    between atoms: N_20  and  C_29
   13  A    between atoms: C_21  and  C_50
   14  A    between atoms: C_21  and  C_52
   15  A    between atoms: C_27  and  C_62
   16  A    between atoms: C_29  and  N_58
   17  A    between atoms: O_32  and  C_40
   18  A    between atoms: C_33  and  N_58
   19  A    between atoms: N_39  and  C_48
   20  A    between atoms: C_42  and  N_54
   21  A    between atoms: C_46  and  C_57
   22  A    between atoms: C_57  and  C_60
                            x       y       z     vdW  Elec       q    Type
                         _______ _______ _______ _____ _____    ______ ____

>  <TORSDO>
F 22

$$$$
=
 OpenBabel11042411403D

 65 72  0  0  1  0  0  0  0  0999 V2000
  189.1130  178.1300  139.0310 C   0  0  2  0  0  3  0  0  0  0  0  0
  190.5360  177.5920  139.1120 C   0  0  0  0  0  2  0  0  0  0  0  0
  190.5400  176.0730  139.0790 C   0  0  0  0  0  2  0  0  0  0  0  0
  191.3970  175.5910  137.9250 C   0  0  0  0  0  2  0  0  0  0  0  0
  192.6950  176.2490  137.9710 N   0  0  0  0  0  2  0  0  0  0  0  0
  193.5170  175.7510  136.8750 C   0  0  1  0  0  0  0  0  0  0  0  0
  193.0260  176.2600  135.5910 N   0  0  0  0  0  2  0  0  0  0  0  0
  194.3450  176.6720  136.1100 C   0  0  0  0  0  2  0  0  0  0  0  0
  193.7610  174.3110  136.8000 N   0  0  0  0  0  0  0  0  0  0  0  0
  194.5980  173.6520  137.5440 C   0  0  0  0  0  0  0  0  0  0  0  0
  193.9200  171.3560  136.5610 N   0  0  0  0  0  0  0  0  0  0  0  0
  195.7060  171.4550  137.8810 C   0  0  0  0  0  3  0  0  0  0  0  0
  192.8810  171.7870  135.6420 C   0  0  0  0  0  1  0  0  0  0  0  0
  195.5020  170.1580  137.4240 O   0  0  0  0  0  0  0  0  0  0  0  0
  194.7520  172.1940  137.3520 C   0  0  0  0  0  0  0  0  0  0  0  0
  194.4130  170.0440  136.5770 N   0  0  0  0  0  2  0  0  0  0  0  0
  196.7200  174.7320  137.9710 N   0  0  0  0  0  1  0  0  0  0  0  0
  195.4490  174.3540  138.5640 C   0  0  0  0  0  2  0  0  0  0  0  0
  188.5710  178.3340  140.4380 C   0  0  0  0  0  2  0  0  0  0  0  0
  187.0770  178.6140  140.3950 C   0  0  0  0  0  2  0  0  0  0  0  0
  185.2840  178.9530  142.0270 C   0  0  0  0  0  0  0  0  0  0  0  0
  186.3270  178.1230  144.8320 C   0  0  0  0  0  0  0  0  0  0  0  0
  184.7170  179.7730  141.0990 F   0  0  0  0  0  0  0  0  0  0  0  0
  185.1860  178.7350  144.5330 C   0  0  0  0  0  3  0  0  0  0  0  0
  187.0620  177.2510  143.9090 C   0  0  0  0  0  3  0  0  0  0  0  0
  184.5650  178.7170  143.2460 N   0  0  0  0  0  0  0  0  0  0  0  0
  186.4390  178.3410  141.7230 C   0  0  0  0  0  0  0  0  0  0  0  0
  187.1060  177.3460  142.5810 C   0  0  0  0  0  3  0  0  0  0  0  0
  186.7980  178.1990  146.1860 C   0  0  0  0  0  0  0  0  0  0  0  0
  187.1910  178.2670  147.3250 C   0  0  0  0  0  0  0  0  0  0  0  0
  187.6390  178.3500  148.6150 O   0  0  0  0  0  0  0  0  0  0  0  0
  189.0000  178.0990  148.9340 C   0  0  0  0  0  2  0  0  0  0  0  0
  189.7190  177.4720  147.7520 C   0  0  0  0  0  1  0  0  0  0  0  0
  183.1210  178.8760  143.2310 C   0  0  0  0  0  2  0  0  0  0  0  0
  182.5780  178.4720  141.8640 C   0  0  0  0  0  2  0  0  0  0  0  0
  180.4060  179.7910  142.5090 C   0  0  0  0  0  2  0  0  0  0  0  0
  180.1700  178.3140  142.8140 C   0  0  0  0  0  2  0  0  0  0  0  0
  181.0770  178.7200  141.6730 C   0  0  0  0  0  0  0  0  0  0  0  0
  179.2700  177.7070  138.7320 N   0  0  0  0  0  0  0  0  0  0  0  0
  180.6910  179.3280  139.2620 N   0  0  0  0  0  0  0  0  0  0  0  0
  181.5350  180.5070  139.1050 C   0  0  0  0  0  2  0  0  0  0  0  0
  179.8180  179.4260  136.9510 C   0  0  0  0  0  2  0  0  0  0  0  0
  180.6640  181.0880  135.5300 C   0  0  0  0  0  1  0  0  0  0  0  0
  179.9480  178.7820  138.2950 C   0  0  0  0  0  0  0  0  0  0  0  0
  179.6160  177.5370  140.0060 N   0  0  0  0  0  0  0  0  0  0  0  0
  181.1310  181.2490  137.8220 C   0  0  0  0  0  2  0  0  0  0  0  0
  180.9750  180.3000  136.7090 N   0  0  0  0  0  0  0  0  0  0  0  0
  180.4930  178.5160  140.3130 C   0  0  0  0  0  0  0  0  0  0  0  0
  188.2140  177.1430  138.3020 C   0  0  0  0  0  2  0  0  0  0  0  0
  187.8110  177.6820  137.0130 N   0  0  0  0  0  2  0  0  0  0  0  0
  187.9510  174.2580  136.4550 O   0  0  0  0  0  1  0  0  0  0  0  0
  185.9010  175.1920  135.6630 C   0  0  2  0  0  3  0  0  0  0  0  0
  187.1430  175.3920  136.5290 C   0  0  2  0  0  3  0  0  0  0  0  0
  187.3530  177.0550  134.7180 C   0  0  0  0  0  2  0  0  0  0  0  0
  185.5740  176.7370  134.7610 S   0  0  0  0  0  0  0  0  0  0  0  0
  187.9270  176.6040  136.0450 C   0  0  1  0  0  3  0  0  0  0  0  0
  181.2820  175.5380  137.0600 C   0  0  0  0  0  1  0  0  0  0  0  0
  183.7660  175.7190  136.9610 N   0  0  0  0  0  0  0  0  0  0  0  0
  183.2360  177.1060  137.1400 C   0  0  0  0  0  0  0  0  0  0  0  0
  182.5320  176.0750  137.7360 C   0  0  0  0  0  0  0  0  0  0  0  0
  184.7030  174.7640  136.4670 C   0  0  0  0  0  0  0  0  0  0  0  0
  182.7150  175.8100  139.2210 C   0  0  0  0  0  1  0  0  0  0  0  0
  184.5640  173.5530  136.7850 O   0  0  0  0  0  0  0  0  0  0  0  0
  182.7780  177.6520  135.9380 O   0  0  0  0  0  1  0  0  0  0  0  0
  184.0910  177.8970  137.9090 O   0  0  0  0  0  1  0  0  0  0  0  0
  1 49  1  6  0  0  0
  1  2  1  0  0  0  0
  1 19  1  0  0  0  0
  3  2  1  0  0  0  0
  4  5  1  0  0  0  0
  4  3  1  0  0  0  0
  6  9  1  1  0  0  0
  6  5  1  0  0  0  0
  7  8  1  0  0  0  0
  7  6  1  0  0  0  0
  8  6  1  0  0  0  0
  9 10  2  0  0  0  0
 10 18  1  0  0  0  0
 11 16  1  0  0  0  0
 11 15  1  0  0  0  0
 13 11  1  0  0  0  0
 14 12  1  0  0  0  0
 15 10  1  0  0  0  0
 15 12  2  0  0  0  0
 16 14  1  0  0  0  0
 17 18  1  0  0  0  0
 20 19  1  0  0  0  0
 20 27  1  0  0  0  0
 21 26  1  0  0  0  0
 22 29  1  0  0  0  0
 23 21  1  0  0  0  0
 24 22  2  0  0  0  0
 25 22  1  0  0  0  0
 26 24  1  0  0  0  0
 27 21  2  0  0  0  0
 27 28  1  0  0  0  0
 28 25  2  0  0  0  0
 29 30  3  0  0  0  0
 30 31  1  0  0  0  0
 31 32  1  0  0  0  0
 33 32  1  0  0  0  0
 34 26  1  0  0  0  0
 35 34  1  0  0  0  0
 36 37  1  0  0  0  0
 38 35  1  0  0  0  0
 38 36  1  0  0  0  0
 38 37  1  0  0  0  0
 39 45  1  0  0  0  0
 40 48  1  0  0  0  0
 41 40  1  0  0  0  0
 42 44  1  0  0  0  0
 43 47  1  0  0  0  0
 44 39  2  0  0  0  0
 44 40  1  0  0  0  0
 45 48  2  0  0  0  0
 46 41  1  0  0  0  0
 47 42  1  0  0  0  0
 47 46  1  0  0  0  0
 48 38  1  0  0  0  0
 50 49  1  0  0  0  0
 52 61  1  1  0  0  0
 52 53  1  0  0  0  0
 53 51  1  6  0  0  0
 54 55  1  0  0  0  0
 54 56  1  0  0  0  0
 55 52  1  0  0  0  0
 56 53  1  0  0  0  0
 56 50  1  1  0  0  0
 57 60  1  0  0  0  0
 58 59  1  0  0  0  0
 58 60  1  0  0  0  0
 59 60  1  0  0  0  0
 59 65  1  0  0  0  0
 60 62  1  0  0  0  0
 61 63  2  0  0  0  0
 61 58  1  0  0  0  0
 64 59  1  0  0  0  0
M  END
>  <MODEL>
5

>  <REMARK>
 VINA RESULT:      -7.2      2.899      9.203
  Name = 
  22 active torsions:
  status: ('A' for Active; 'I' for Inactive)
    1  A    between atoms: C_2  and  C_36
    2  A    between atoms: C_8  and  C_9
    3  A    between atoms: C_10  and  O_32
    4  A    between atoms: C_11  and  C_27
    5  A    between atoms: C_11  and  C_48
    6  A    between atoms: C_12  and  C_33
    7  A    between atoms: C_12  and  C_50
    8  A    between atoms: C_14  and  C_43
    9  A    between atoms: C_14  and  C_52
   10  A    between atoms: C_18  and  C_21
   11  A    between atoms: C_18  and  N_54
   12  A    between atoms: N_20  and  C_29
   13  A    between atoms: C_21  and  C_50
   14  A    between atoms: C_21  and  C_52
   15  A    between atoms: C_27  and  C_62
   16  A    between atoms: C_29  and  N_58
   17  A    between atoms: O_32  and  C_40
   18  A    between atoms: C_33  and  N_58
   19  A    between atoms: N_39  and  C_48
   20  A    between atoms: C_42  and  N_54
   21  A    between atoms: C_46  and  C_57
   22  A    between atoms: C_57  and  C_60
                            x       y       z     vdW  Elec       q    Type
                         _______ _______ _______ _____ _____    ______ ____

>  <TORSDO>
F 22

$$$$
=
 OpenBabel11042411403D

 65 72  0  0  1  0  0  0  0  0999 V2000
  189.5760  177.7190  138.2080 C   0  0  2  0  0  3  0  0  0  0  0  0
  190.9720  177.2290  137.8410 C   0  0  0  0  0  2  0  0  0  0  0  0
  191.2620  175.8890  138.4970 C   0  0  0  0  0  2  0  0  0  0  0  0
  191.7540  174.9080  137.4520 C   0  0  0  0  0  2  0  0  0  0  0  0
  192.2420  175.6350  136.2880 N   0  0  0  0  0  2  0  0  0  0  0  0
  193.5870  175.1720  135.9710 C   0  0  1  0  0  0  0  0  0  0  0  0
  193.5590  173.7740  135.5270 N   0  0  0  0  0  2  0  0  0  0  0  0
  193.9410  174.8520  134.5950 C   0  0  0  0  0  2  0  0  0  0  0  0
  194.6360  175.3750  136.9680 N   0  0  0  0  0  0  0  0  0  0  0  0
  195.1720  174.4400  137.6950 C   0  0  0  0  0  0  0  0  0  0  0  0
  197.6250  174.7090  138.4740 N   0  0  0  0  0  0  0  0  0  0  0  0
  196.0010  175.2540  139.8900 C   0  0  0  0  0  3  0  0  0  0  0  0
  198.3050  174.4490  137.2160 C   0  0  0  0  0  1  0  0  0  0  0  0
  197.2490  175.4820  140.4590 O   0  0  0  0  0  0  0  0  0  0  0  0
  196.2210  174.7920  138.6760 C   0  0  0  0  0  0  0  0  0  0  0  0
  198.2980  175.1810  139.6090 N   0  0  0  0  0  2  0  0  0  0  0  0
  195.7540  172.1210  138.0570 N   0  0  0  0  0  1  0  0  0  0  0  0
  194.7090  173.0150  137.5910 C   0  0  0  0  0  2  0  0  0  0  0  0
  189.5530  178.1140  139.6780 C   0  0  0  0  0  2  0  0  0  0  0  0
  188.1190  178.1960  140.1810 C   0  0  0  0  0  2  0  0  0  0  0  0
  187.1260  178.3790  142.4110 C   0  0  0  0  0  0  0  0  0  0  0  0
  189.1150  177.1910  144.4810 C   0  0  0  0  0  0  0  0  0  0  0  0
  186.3030  179.3180  141.8690 F   0  0  0  0  0  0  0  0  0  0  0  0
  187.9930  177.8620  144.7180 C   0  0  0  0  0  3  0  0  0  0  0  0
  189.3720  176.4200  143.2600 C   0  0  0  0  0  3  0  0  0  0  0  0
  186.9220  178.0140  143.7840 N   0  0  0  0  0  0  0  0  0  0  0  0
  188.0280  177.7800  141.6170 C   0  0  0  0  0  0  0  0  0  0  0  0
  188.9050  176.6730  142.0390 C   0  0  0  0  0  3  0  0  0  0  0  0
  190.0770  177.0920  145.5410 C   0  0  0  0  0  0  0  0  0  0  0  0
  190.8900  177.0100  146.4300 C   0  0  0  0  0  0  0  0  0  0  0  0
  191.8130  176.9120  147.4340 O   0  0  0  0  0  0  0  0  0  0  0  0
  192.5680  175.7240  147.6210 C   0  0  0  0  0  2  0  0  0  0  0  0
  192.5210  174.8610  146.3710 C   0  0  0  0  0  1  0  0  0  0  0  0
  185.5990  178.2090  144.3530 C   0  0  0  0  0  2  0  0  0  0  0  0
  184.5460  178.0510  143.2610 C   0  0  0  0  0  2  0  0  0  0  0  0
  183.3670  180.2160  144.1510 C   0  0  0  0  0  2  0  0  0  0  0  0
  182.8090  179.0230  144.9230 C   0  0  0  0  0  2  0  0  0  0  0  0
  183.2620  178.8580  143.4890 C   0  0  0  0  0  0  0  0  0  0  0  0
  180.1610  178.4700  141.7070 N   0  0  0  0  0  0  0  0  0  0  0  0
  182.2710  178.9160  141.1770 N   0  0  0  0  0  0  0  0  0  0  0  0
  183.4350  179.2170  140.3530 C   0  0  0  0  0  2  0  0  0  0  0  0
  180.6970  178.9290  139.2710 C   0  0  0  0  0  2  0  0  0  0  0  0
  181.5780  179.2540  137.1240 C   0  0  0  0  0  1  0  0  0  0  0  0
  181.0320  178.7250  140.7140 C   0  0  0  0  0  0  0  0  0  0  0  0
  180.8690  178.4620  142.8340 N   0  0  0  0  0  0  0  0  0  0  0  0
  182.9650  179.6800  138.9660 C   0  0  0  0  0  2  0  0  0  0  0  0
  181.9120  178.7880  138.4570 N   0  0  0  0  0  0  0  0  0  0  0  0
  182.1510  178.7160  142.5000 C   0  0  0  0  0  0  0  0  0  0  0  0
  188.5530  176.6160  137.9850 C   0  0  0  0  0  2  0  0  0  0  0  0
  187.4530  177.1050  137.1680 N   0  0  0  0  0  2  0  0  0  0  0  0
  188.1260  174.5090  134.9640 O   0  0  0  0  0  1  0  0  0  0  0  0
  185.9470  175.4160  134.6100 C   0  0  2  0  0  3  0  0  0  0  0  0
  187.1500  175.3180  135.5440 C   0  0  2  0  0  3  0  0  0  0  0  0
  187.0760  177.6830  134.8460 C   0  0  0  0  0  2  0  0  0  0  0  0
  185.3700  177.1410  134.5940 S   0  0  0  0  0  0  0  0  0  0  0  0
  187.7280  176.7030  135.7980 C   0  0  1  0  0  3  0  0  0  0  0  0
  183.9570  171.9910  137.3880 C   0  0  0  0  0  1  0  0  0  0  0  0
  185.1240  173.1830  135.5360 N   0  0  0  0  0  0  0  0  0  0  0  0
  186.0430  172.1000  136.0030 C   0  0  0  0  0  0  0  0  0  0  0  0
  184.6850  171.8490  136.0620 C   0  0  0  0  0  0  0  0  0  0  0  0
  184.8400  174.4730  134.9970 C   0  0  0  0  0  0  0  0  0  0  0  0
  184.0340  171.0120  134.9740 C   0  0  0  0  0  1  0  0  0  0  0  0
  183.6420  174.7870  134.7670 O   0  0  0  0  0  0  0  0  0  0  0  0
  186.7310  172.4600  137.1640 O   0  0  0  0  0  1  0  0  0  0  0  0
  186.8020  171.5710  134.9570 O   0  0  0  0  0  1  0  0  0  0  0  0
  1  2  1  1  0  0  0
  1 19  1  0  0  0  0
  2  3  1  0  0  0  0
  4  3  1  0  0  0  0
  5  4  1  0  0  0  0
  6  5  1  1  0  0  0
  6  9  1  0  0  0  0
  7  6  1  0  0  0  0
  8  7  1  0  0  0  0
  8  6  1  0  0  0  0
  9 10  2  0  0  0  0
 10 15  1  0  0  0  0
 11 15  1  0  0  0  0
 11 16  1  0  0  0  0
 12 14  1  0  0  0  0
 13 11  1  0  0  0  0
 15 12  2  0  0  0  0
 16 14  1  0  0  0  0
 18 10  1  0  0  0  0
 18 17  1  0  0  0  0
 19 20  1  0  0  0  0
 20 27  1  0  0  0  0
 21 26  1  0  0  0  0
 22 24  2  0  0  0  0
 22 29  1  0  0  0  0
 23 21  1  0  0  0  0
 25 22  1  0  0  0  0
 26 34  1  0  0  0  0
 26 24  1  0  0  0  0
 27 28  1  0  0  0  0
 27 21  2  0  0  0  0
 28 25  2  0  0  0  0
 29 30  3  0  0  0  0
 30 31  1  0  0  0  0
 31 32  1  0  0  0  0
 33 32  1  0  0  0  0
 35 38  1  0  0  0  0
 35 34  1  0  0  0  0
 36 37  1  0  0  0  0
 38 36  1  0  0  0  0
 38 37  1  0  0  0  0
 39 45  1  0  0  0  0
 40 48  1  0  0  0  0
 41 40  1  0  0  0  0
 42 44  1  0  0  0  0
 43 47  1  0  0  0  0
 44 40  1  0  0  0  0
 44 39  2  0  0  0  0
 46 41  1  0  0  0  0
 47 46  1  0  0  0  0
 47 42  1  0  0  0  0
 48 45  2  0  0  0  0
 48 38  1  0  0  0  0
 49  1  1  0  0  0  0
 50 49  1  0  0  0  0
 52 61  1  1  0  0  0
 52 53  1  0  0  0  0
 53 51  1  6  0  0  0
 53 56  1  0  0  0  0
 54 56  1  0  0  0  0
 55 52  1  0  0  0  0
 55 54  1  0  0  0  0
 56 50  1  1  0  0  0
 58 59  1  0  0  0  0
 58 60  1  0  0  0  0
 59 60  1  0  0  0  0
 59 64  1  0  0  0  0
 60 57  1  0  0  0  0
 61 58  1  0  0  0  0
 62 60  1  0  0  0  0
 63 61  2  0  0  0  0
 65 59  1  0  0  0  0
M  END
>  <MODEL>
6

>  <REMARK>
 VINA RESULT:      -6.6      2.794      8.904
  Name = 
  22 active torsions:
  status: ('A' for Active; 'I' for Inactive)
    1  A    between atoms: C_2  and  C_36
    2  A    between atoms: C_8  and  C_9
    3  A    between atoms: C_10  and  O_32
    4  A    between atoms: C_11  and  C_27
    5  A    between atoms: C_11  and  C_48
    6  A    between atoms: C_12  and  C_33
    7  A    between atoms: C_12  and  C_50
    8  A    between atoms: C_14  and  C_43
    9  A    between atoms: C_14  and  C_52
   10  A    between atoms: C_18  and  C_21
   11  A    between atoms: C_18  and  N_54
   12  A    between atoms: N_20  and  C_29
   13  A    between atoms: C_21  and  C_50
   14  A    between atoms: C_21  and  C_52
   15  A    between atoms: C_27  and  C_62
   16  A    between atoms: C_29  and  N_58
   17  A    between atoms: O_32  and  C_40
   18  A    between atoms: C_33  and  N_58
   19  A    between atoms: N_39  and  C_48
   20  A    between atoms: C_42  and  N_54
   21  A    between atoms: C_46  and  C_57
   22  A    between atoms: C_57  and  C_60
                            x       y       z     vdW  Elec       q    Type
                         _______ _______ _______ _____ _____    ______ ____

>  <TORSDO>
F 22

$$$$
=
 OpenBabel11042411403D

 65 72  0  0  1  0  0  0  0  0999 V2000
  189.9050  176.8970  138.7510 C   0  0  2  0  0  3  0  0  0  0  0  0
  190.6270  176.5000  140.0330 C   0  0  0  0  0  2  0  0  0  0  0  0
  191.6160  177.5760  140.4490 C   0  0  0  0  0  2  0  0  0  0  0  0
  191.8410  177.5080  141.9470 C   0  0  0  0  0  2  0  0  0  0  0  0
  190.5600  177.4110  142.6310 N   0  0  0  0  0  2  0  0  0  0  0  0
  190.6440  178.1310  143.8960 C   0  0  1  0  0  0  0  0  0  0  0  0
  191.5730  177.4590  144.8100 N   0  0  0  0  0  2  0  0  0  0  0  0
  191.8820  178.7980  144.2730 C   0  0  0  0  0  2  0  0  0  0  0  0
  189.3960  178.4640  144.5800 N   0  0  0  0  0  0  0  0  0  0  0  0
  188.4180  177.6360  144.8020 C   0  0  0  0  0  0  0  0  0  0  0  0
  186.9780  178.0940  146.9030 N   0  0  0  0  0  0  0  0  0  0  0  0
  186.1520  178.6450  144.9150 C   0  0  0  0  0  3  0  0  0  0  0  0
  187.9540  177.7850  147.9340 C   0  0  0  0  0  1  0  0  0  0  0  0
  185.2620  178.9800  145.9290 O   0  0  0  0  0  0  0  0  0  0  0  0
  187.2050  178.1120  145.5010 C   0  0  0  0  0  0  0  0  0  0  0  0
  185.7390  178.6790  147.1930 N   0  0  0  0  0  2  0  0  0  0  0  0
  187.4580  175.9940  143.3080 N   0  0  0  0  0  1  0  0  0  0  0  0
  188.4790  176.2160  144.3180 C   0  0  0  0  0  2  0  0  0  0  0  0
  188.6170  177.6260  139.1050 C   0  0  0  0  0  2  0  0  0  0  0  0
  187.8890  178.0580  137.8410 C   0  0  0  0  0  2  0  0  0  0  0  0
  185.7350  177.2810  136.9750 C   0  0  0  0  0  0  0  0  0  0  0  0
  183.4640  178.7430  138.5100 C   0  0  0  0  0  0  0  0  0  0  0  0
  186.4300  176.8540  135.8850 F   0  0  0  0  0  0  0  0  0  0  0  0
  183.3570  177.9640  137.4390 C   0  0  0  0  0  3  0  0  0  0  0  0
  184.5520  178.6510  139.4900 C   0  0  0  0  0  3  0  0  0  0  0  0
  184.3290  176.9990  137.0320 N   0  0  0  0  0  0  0  0  0  0  0  0
  186.4100  177.8640  137.9780 C   0  0  0  0  0  0  0  0  0  0  0  0
  185.8080  178.2740  139.2610 C   0  0  0  0  0  3  0  0  0  0  0  0
  182.3770  179.6320  138.8090 C   0  0  0  0  0  0  0  0  0  0  0  0
  181.4660  180.3820  139.0590 C   0  0  0  0  0  0  0  0  0  0  0  0
  180.4370  181.2360  139.3460 O   0  0  0  0  0  0  0  0  0  0  0  0
  179.6020  181.7470  138.3170 C   0  0  0  0  0  2  0  0  0  0  0  0
  180.4320  182.1680  137.1170 C   0  0  0  0  0  1  0  0  0  0  0  0
  183.8270  175.8660  136.2720 C   0  0  0  0  0  2  0  0  0  0  0  0
  183.9960  174.5900  137.0910 C   0  0  0  0  0  2  0  0  0  0  0  0
  182.2700  173.3820  135.5300 C   0  0  0  0  0  2  0  0  0  0  0  0
  182.2270  172.7040  136.8970 C   0  0  0  0  0  2  0  0  0  0  0  0
  183.5150  173.3130  136.3900 C   0  0  0  0  0  0  0  0  0  0  0  0
  185.3950  170.5010  135.1650 N   0  0  0  0  0  0  0  0  0  0  0  0
  185.8510  172.5770  135.8100 N   0  0  0  0  0  0  0  0  0  0  0  0
  186.6310  173.7720  136.1090 C   0  0  0  0  0  2  0  0  0  0  0  0
  187.7970  171.2940  134.9880 C   0  0  0  0  0  2  0  0  0  0  0  0
  189.9070  172.3100  135.1030 C   0  0  0  0  0  1  0  0  0  0  0  0
  186.3540  171.4250  135.3560 C   0  0  0  0  0  0  0  0  0  0  0  0
  184.2500  171.0660  135.5400 N   0  0  0  0  0  0  0  0  0  0  0  0
  188.0130  173.6490  135.4500 C   0  0  0  0  0  2  0  0  0  0  0  0
  188.5820  172.3150  135.6970 N   0  0  0  0  0  0  0  0  0  0  0  0
  184.5400  172.3190  135.9480 C   0  0  0  0  0  0  0  0  0  0  0  0
  189.5560  175.6610  137.9370 C   0  0  0  0  0  2  0  0  0  0  0  0
  190.7660  174.9850  137.4990 N   0  0  0  0  0  2  0  0  0  0  0  0
  193.8880  176.4630  137.8420 O   0  0  0  0  0  1  0  0  0  0  0  0
  193.7120  175.2550  135.7910 C   0  0  2  0  0  3  0  0  0  0  0  0
  193.1210  175.5100  137.1750 C   0  0  2  0  0  3  0  0  0  0  0  0
  191.4150  176.3310  135.5930 C   0  0  0  0  0  2  0  0  0  0  0  0
  192.3470  175.1480  134.5940 S   0  0  0  0  0  0  0  0  0  0  0  0
  191.6900  176.0130  137.0470 C   0  0  1  0  0  3  0  0  0  0  0  0
  197.1540  172.3250  137.5180 C   0  0  0  0  0  1  0  0  0  0  0  0
  195.9250  174.0500  136.2030 N   0  0  0  0  0  0  0  0  0  0  0  0
  197.1290  174.7210  136.7830 C   0  0  0  0  0  0  0  0  0  0  0  0
  197.2510  173.3880  136.4370 C   0  0  0  0  0  0  0  0  0  0  0  0
  194.5720  174.0210  135.7520 C   0  0  0  0  0  0  0  0  0  0  0  0
  197.9240  173.0170  135.1260 C   0  0  0  0  0  1  0  0  0  0  0  0
  194.1250  172.9630  135.2360 O   0  0  0  0  0  0  0  0  0  0  0  0
  196.9400  175.0740  138.1210 O   0  0  0  0  0  1  0  0  0  0  0  0
  197.6380  175.7070  135.9350 O   0  0  0  0  0  1  0  0  0  0  0  0
  1 49  1  1  0  0  0
  1 19  1  0  0  0  0
  1  2  1  0  0  0  0
  2  3  1  0  0  0  0
  3  4  1  0  0  0  0
  4  5  1  0  0  0  0
  6  5  1  6  0  0  0
  6  8  1  0  0  0  0
  6  9  1  0  0  0  0
  6  7  1  0  0  0  0
  8  7  1  0  0  0  0
  9 10  2  0  0  0  0
 10 15  1  0  0  0  0
 11 16  1  0  0  0  0
 11 13  1  0  0  0  0
 12 15  2  0  0  0  0
 12 14  1  0  0  0  0
 14 16  1  0  0  0  0
 15 11  1  0  0  0  0
 17 18  1  0  0  0  0
 18 10  1  0  0  0  0
 20 27  1  0  0  0  0
 20 19  1  0  0  0  0
 21 26  1  0  0  0  0
 21 27  2  0  0  0  0
 22 29  1  0  0  0  0
 22 25  1  0  0  0  0
 23 21  1  0  0  0  0
 24 22  2  0  0  0  0
 26 24  1  0  0  0  0
 27 28  1  0  0  0  0
 28 25  2  0  0  0  0
 29 30  3  0  0  0  0
 30 31  1  0  0  0  0
 32 31  1  0  0  0  0
 33 32  1  0  0  0  0
 34 26  1  0  0  0  0
 34 35  1  0  0  0  0
 36 38  1  0  0  0  0
 36 37  1  0  0  0  0
 38 37  1  0  0  0  0
 38 35  1  0  0  0  0
 39 44  2  0  0  0  0
 39 45  1  0  0  0  0
 40 48  1  0  0  0  0
 40 41  1  0  0  0  0
 42 44  1  0  0  0  0
 42 47  1  0  0  0  0
 43 47  1  0  0  0  0
 44 40  1  0  0  0  0
 45 48  2  0  0  0  0
 46 47  1  0  0  0  0
 46 41  1  0  0  0  0
 48 38  1  0  0  0  0
 50 49  1  0  0  0  0
 52 61  1  1  0  0  0
 52 53  1  0  0  0  0
 53 51  1  6  0  0  0
 54 56  1  0  0  0  0
 55 54  1  0  0  0  0
 55 52  1  0  0  0  0
 56 53  1  0  0  0  0
 56 50  1  6  0  0  0
 58 60  1  0  0  0  0
 58 59  1  0  0  0  0
 59 64  1  0  0  0  0
 60 59  1  0  0  0  0
 60 57  1  0  0  0  0
 61 58  1  0  0  0  0
 62 60  1  0  0  0  0
 63 61  2  0  0  0  0
 65 59  1  0  0  0  0
M  END
>  <MODEL>
7

>  <REMARK>
 VINA RESULT:      -6.5      2.288      4.729
  Name = 
  22 active torsions:
  status: ('A' for Active; 'I' for Inactive)
    1  A    between atoms: C_2  and  C_36
    2  A    between atoms: C_8  and  C_9
    3  A    between atoms: C_10  and  O_32
    4  A    between atoms: C_11  and  C_27
    5  A    between atoms: C_11  and  C_48
    6  A    between atoms: C_12  and  C_33
    7  A    between atoms: C_12  and  C_50
    8  A    between atoms: C_14  and  C_43
    9  A    between atoms: C_14  and  C_52
   10  A    between atoms: C_18  and  C_21
   11  A    between atoms: C_18  and  N_54
   12  A    between atoms: N_20  and  C_29
   13  A    between atoms: C_21  and  C_50
   14  A    between atoms: C_21  and  C_52
   15  A    between atoms: C_27  and  C_62
   16  A    between atoms: C_29  and  N_58
   17  A    between atoms: O_32  and  C_40
   18  A    between atoms: C_33  and  N_58
   19  A    between atoms: N_39  and  C_48
   20  A    between atoms: C_42  and  N_54
   21  A    between atoms: C_46  and  C_57
   22  A    between atoms: C_57  and  C_60
                            x       y       z     vdW  Elec       q    Type
                         _______ _______ _______ _____ _____    ______ ____

>  <TORSDO>
F 22

$$$$
=
 OpenBabel11042411403D

 65 72  0  0  1  0  0  0  0  0999 V2000
  189.8620  176.8840  138.7690 C   0  0  2  0  0  3  0  0  0  0  0  0
  190.4500  176.5070  140.1230 C   0  0  0  0  0  2  0  0  0  0  0  0
  191.5370  177.4890  140.5290 C   0  0  0  0  0  2  0  0  0  0  0  0
  191.8070  177.3610  142.0150 C   0  0  0  0  0  2  0  0  0  0  0  0
  190.5560  177.1340  142.7240 N   0  0  0  0  0  2  0  0  0  0  0  0
  190.5460  177.9430  143.9360 C   0  0  1  0  0  0  0  0  0  0  0  0
  191.6600  177.5700  144.8130 N   0  0  0  0  0  2  0  0  0  0  0  0
  191.6130  178.9020  144.1800 C   0  0  0  0  0  2  0  0  0  0  0  0
  189.2990  178.0270  144.6950 N   0  0  0  0  0  0  0  0  0  0  0  0
  188.1070  177.8700  144.1990 C   0  0  0  0  0  0  0  0  0  0  0  0
  186.9390  177.9970  146.5050 N   0  0  0  0  0  0  0  0  0  0  0  0
  185.6840  178.1340  144.6760 C   0  0  0  0  0  3  0  0  0  0  0  0
  188.1090  178.0740  147.3630 C   0  0  0  0  0  1  0  0  0  0  0  0
  184.9020  178.2440  145.8200 O   0  0  0  0  0  0  0  0  0  0  0  0
  186.9290  177.9920  145.0840 C   0  0  0  0  0  0  0  0  0  0  0  0
  185.6380  178.1880  146.9900 N   0  0  0  0  0  2  0  0  0  0  0  0
  187.4050  178.8170  142.0880 N   0  0  0  0  0  1  0  0  0  0  0  0
  187.9030  177.6160  142.7340 C   0  0  0  0  0  2  0  0  0  0  0  0
  188.5600  177.6440  138.9800 C   0  0  0  0  0  2  0  0  0  0  0  0
  187.9100  177.9630  137.6420 C   0  0  0  0  0  2  0  0  0  0  0  0
  185.7640  177.2740  136.6870 C   0  0  0  0  0  0  0  0  0  0  0  0
  183.4920  178.8120  138.1430 C   0  0  0  0  0  0  0  0  0  0  0  0
  186.4840  176.8280  135.6210 F   0  0  0  0  0  0  0  0  0  0  0  0
  183.3970  178.0450  137.0630 C   0  0  0  0  0  3  0  0  0  0  0  0
  184.5360  178.6720  139.1640 C   0  0  0  0  0  3  0  0  0  0  0  0
  184.3470  177.0460  136.6860 N   0  0  0  0  0  0  0  0  0  0  0  0
  186.4210  177.8250  137.7200 C   0  0  0  0  0  0  0  0  0  0  0  0
  185.7850  178.2490  138.9810 C   0  0  0  0  0  3  0  0  0  0  0  0
  182.4290  179.7400  138.4060 C   0  0  0  0  0  0  0  0  0  0  0  0
  181.5350  180.5180  138.6320 C   0  0  0  0  0  0  0  0  0  0  0  0
  180.5180  181.3960  138.8900 O   0  0  0  0  0  0  0  0  0  0  0  0
  179.9680  182.2020  137.8580 C   0  0  0  0  0  2  0  0  0  0  0  0
  179.6140  181.3530  136.6490 C   0  0  0  0  0  1  0  0  0  0  0  0
  183.8330  175.9380  135.8990 C   0  0  0  0  0  2  0  0  0  0  0  0
  183.9120  174.6530  136.7170 C   0  0  0  0  0  2  0  0  0  0  0  0
  183.5930  172.2630  135.6860 C   0  0  0  0  0  2  0  0  0  0  0  0
  182.9350  173.2740  134.7490 C   0  0  0  0  0  2  0  0  0  0  0  0
  182.9790  173.5330  136.2390 C   0  0  0  0  0  0  0  0  0  0  0  0
  179.8060  172.4640  137.5560 N   0  0  0  0  0  0  0  0  0  0  0  0
  181.2220  174.1310  137.9390 N   0  0  0  0  0  0  0  0  0  0  0  0
  181.7760  175.3390  138.5390 C   0  0  0  0  0  2  0  0  0  0  0  0
  179.2430  174.0890  139.4190 C   0  0  0  0  0  2  0  0  0  0  0  0
  178.9790  175.8490  140.9450 C   0  0  0  0  0  1  0  0  0  0  0  0
  180.0550  173.5730  138.2740 C   0  0  0  0  0  0  0  0  0  0  0  0
  180.8260  172.3270  136.7120 N   0  0  0  0  0  0  0  0  0  0  0  0
  181.0440  175.6280  139.8580 C   0  0  0  0  0  2  0  0  0  0  0  0
  179.5910  175.4940  139.6780 N   0  0  0  0  0  0  0  0  0  0  0  0
  181.6710  173.3540  136.9390 C   0  0  0  0  0  0  0  0  0  0  0  0
  189.5680  175.6340  137.9530 C   0  0  0  0  0  2  0  0  0  0  0  0
  190.8080  174.9870  137.5550 N   0  0  0  0  0  2  0  0  0  0  0  0
  193.9040  176.5440  137.7630 O   0  0  0  0  0  1  0  0  0  0  0  0
  193.6860  175.2950  135.7410 C   0  0  2  0  0  3  0  0  0  0  0  0
  193.1370  175.5610  137.1400 C   0  0  2  0  0  3  0  0  0  0  0  0
  191.3590  176.3130  135.6040 C   0  0  0  0  0  2  0  0  0  0  0  0
  192.2840  175.1340  134.5940 S   0  0  0  0  0  0  0  0  0  0  0  0
  191.6900  176.0280  137.0530 C   0  0  1  0  0  3  0  0  0  0  0  0
  196.9240  172.2280  137.6180 C   0  0  0  0  0  1  0  0  0  0  0  0
  195.8490  174.0740  136.3320 N   0  0  0  0  0  0  0  0  0  0  0  0
  196.9430  174.6890  137.1460 C   0  0  0  0  0  0  0  0  0  0  0  0
  197.1450  173.4030  136.6810 C   0  0  0  0  0  0  0  0  0  0  0  0
  194.5740  174.0810  135.6940 C   0  0  0  0  0  0  0  0  0  0  0  0
  198.0040  173.1830  135.4470 C   0  0  0  0  0  1  0  0  0  0  0  0
  194.2300  173.0810  135.0100 O   0  0  0  0  0  0  0  0  0  0  0  0
  196.5590  174.8930  138.4730 O   0  0  0  0  0  1  0  0  0  0  0  0
  197.5410  175.7670  136.4880 O   0  0  0  0  0  1  0  0  0  0  0  0
  1 49  1  6  0  0  0
  1 19  1  0  0  0  0
  1  2  1  0  0  0  0
  2  3  1  0  0  0  0
  3  4  1  0  0  0  0
  4  5  1  0  0  0  0
  6  5  1  6  0  0  0
  6  8  1  0  0  0  0
  6  9  1  0  0  0  0
  6  7  1  0  0  0  0
  8  7  1  0  0  0  0
 10  9  2  0  0  0  0
 10 15  1  0  0  0  0
 11 16  1  0  0  0  0
 11 13  1  0  0  0  0
 12 15  2  0  0  0  0
 12 14  1  0  0  0  0
 14 16  1  0  0  0  0
 15 11  1  0  0  0  0
 17 18  1  0  0  0  0
 18 10  1  0  0  0  0
 20 27  1  0  0  0  0
 20 19  1  0  0  0  0
 21 27  2  0  0  0  0
 22 29  1  0  0  0  0
 22 25  1  0  0  0  0
 23 21  1  0  0  0  0
 24 22  2  0  0  0  0
 26 21  1  0  0  0  0
 26 24  1  0  0  0  0
 27 28  1  0  0  0  0
 28 25  2  0  0  0  0
 29 30  3  0  0  0  0
 30 31  1  0  0  0  0
 32 31  1  0  0  0  0
 33 32  1  0  0  0  0
 34 26  1  0  0  0  0
 34 35  1  0  0  0  0
 36 38  1  0  0  0  0
 37 36  1  0  0  0  0
 37 38  1  0  0  0  0
 38 35  1  0  0  0  0
 38 48  1  0  0  0  0
 39 44  2  0  0  0  0
 40 44  1  0  0  0  0
 40 41  1  0  0  0  0
 41 46  1  0  0  0  0
 42 47  1  0  0  0  0
 44 42  1  0  0  0  0
 45 48  2  0  0  0  0
 45 39  1  0  0  0  0
 47 46  1  0  0  0  0
 47 43  1  0  0  0  0
 48 40  1  0  0  0  0
 50 49  1  0  0  0  0
 52 61  1  1  0  0  0
 52 53  1  0  0  0  0
 53 51  1  6  0  0  0
 54 56  1  0  0  0  0
 55 54  1  0  0  0  0
 55 52  1  0  0  0  0
 56 53  1  0  0  0  0
 56 50  1  6  0  0  0
 58 60  1  0  0  0  0
 58 59  1  0  0  0  0
 59 64  1  0  0  0  0
 60 59  1  0  0  0  0
 60 57  1  0  0  0  0
 61 58  1  0  0  0  0
 62 60  1  0  0  0  0
 63 61  2  0  0  0  0
 65 59  1  0  0  0  0
M  END
>  <MODEL>
8

>  <REMARK>
 VINA RESULT:      -6.5      1.693      3.685
  Name = 
  22 active torsions:
  status: ('A' for Active; 'I' for Inactive)
    1  A    between atoms: C_2  and  C_36
    2  A    between atoms: C_8  and  C_9
    3  A    between atoms: C_10  and  O_32
    4  A    between atoms: C_11  and  C_27
    5  A    between atoms: C_11  and  C_48
    6  A    between atoms: C_12  and  C_33
    7  A    between atoms: C_12  and  C_50
    8  A    between atoms: C_14  and  C_43
    9  A    between atoms: C_14  and  C_52
   10  A    between atoms: C_18  and  C_21
   11  A    between atoms: C_18  and  N_54
   12  A    between atoms: N_20  and  C_29
   13  A    between atoms: C_21  and  C_50
   14  A    between atoms: C_21  and  C_52
   15  A    between atoms: C_27  and  C_62
   16  A    between atoms: C_29  and  N_58
   17  A    between atoms: O_32  and  C_40
   18  A    between atoms: C_33  and  N_58
   19  A    between atoms: N_39  and  C_48
   20  A    between atoms: C_42  and  N_54
   21  A    between atoms: C_46  and  C_57
   22  A    between atoms: C_57  and  C_60
                            x       y       z     vdW  Elec       q    Type
                         _______ _______ _______ _____ _____    ______ ____

>  <TORSDO>
F 22

$$$$
=
 OpenBabel11042411403D

 65 72  0  0  1  0  0  0  0  0999 V2000
  189.9350  177.9360  138.8910 C   0  0  2  0  0  3  0  0  0  0  0  0
  191.3560  177.6740  139.3760 C   0  0  0  0  0  2  0  0  0  0  0  0
  191.5380  176.2110  139.7440 C   0  0  0  0  0  2  0  0  0  0  0  0
  192.2060  175.4780  138.5970 C   0  0  0  0  0  2  0  0  0  0  0  0
  193.5060  176.0740  138.3250 N   0  0  0  0  0  2  0  0  0  0  0  0
  194.0510  175.4860  137.1080 C   0  0  1  0  0  0  0  0  0  0  0  0
  193.1430  175.7090  135.9780 N   0  0  0  0  0  2  0  0  0  0  0  0
  194.4750  176.3450  136.0110 C   0  0  0  0  0  2  0  0  0  0  0  0
  194.4830  174.0900  137.1540 N   0  0  0  0  0  0  0  0  0  0  0  0
  195.6450  173.6780  137.5660 C   0  0  0  0  0  0  0  0  0  0  0  0
  197.1500  171.6310  137.0720 N   0  0  0  0  0  0  0  0  0  0  0  0
  195.1580  171.2810  137.9930 C   0  0  0  0  0  3  0  0  0  0  0  0
  198.3710  172.3190  136.6890 C   0  0  0  0  0  1  0  0  0  0  0  0
  195.8390  170.0810  137.8210 O   0  0  0  0  0  0  0  0  0  0  0  0
  195.9540  172.2320  137.5480 C   0  0  0  0  0  0  0  0  0  0  0  0
  197.0990  170.2450  137.2710 N   0  0  0  0  0  2  0  0  0  0  0  0
  196.6250  174.8330  139.4510 N   0  0  0  0  0  1  0  0  0  0  0  0
  196.7000  174.6500  138.0130 C   0  0  0  0  0  2  0  0  0  0  0  0
  188.9470  177.4310  139.9330 C   0  0  0  0  0  2  0  0  0  0  0  0
  188.0020  178.5480  140.3510 C   0  0  0  0  0  2  0  0  0  0  0  0
  186.0960  178.8150  141.8640 C   0  0  0  0  0  0  0  0  0  0  0  0
  186.8700  177.6660  144.6440 C   0  0  0  0  0  0  0  0  0  0  0  0
  185.6420  179.7480  140.9820 F   0  0  0  0  0  0  0  0  0  0  0  0
  185.7840  178.3590  144.3200 C   0  0  0  0  0  3  0  0  0  0  0  0
  187.6420  176.8530  143.6980 C   0  0  0  0  0  3  0  0  0  0  0  0
  185.2710  178.4970  142.9940 N   0  0  0  0  0  0  0  0  0  0  0  0
  187.2460  178.1790  141.5900 C   0  0  0  0  0  0  0  0  0  0  0  0
  187.7990  177.0740  142.3940 C   0  0  0  0  0  3  0  0  0  0  0  0
  187.2310  177.5870  146.0320 C   0  0  0  0  0  0  0  0  0  0  0  0
  187.5380  177.5220  147.1970 C   0  0  0  0  0  0  0  0  0  0  0  0
  187.8900  177.4450  148.5160 O   0  0  0  0  0  0  0  0  0  0  0  0
  189.1670  177.8820  148.9590 C   0  0  0  0  0  2  0  0  0  0  0  0
  190.1730  177.8300  147.8220 C   0  0  0  0  0  1  0  0  0  0  0  0
  183.8400  178.7280  142.8830 C   0  0  0  0  0  2  0  0  0  0  0  0
  183.2840  177.9230  141.7120 C   0  0  0  0  0  2  0  0  0  0  0  0
  181.1240  179.3760  142.0220 C   0  0  0  0  0  2  0  0  0  0  0  0
  180.6950  177.9210  141.8570 C   0  0  0  0  0  2  0  0  0  0  0  0
  181.9420  178.4290  141.1690 C   0  0  0  0  0  0  0  0  0  0  0  0
  181.7800  179.5900  137.7670 N   0  0  0  0  0  0  0  0  0  0  0  0
  181.6750  177.6260  138.7980 N   0  0  0  0  0  0  0  0  0  0  0  0
  181.5490  176.1850  138.9760 C   0  0  0  0  0  2  0  0  0  0  0  0
  181.5680  177.5110  136.3320 C   0  0  0  0  0  2  0  0  0  0  0  0
  181.2250  175.4120  135.3460 C   0  0  0  0  0  1  0  0  0  0  0  0
  181.6310  178.2620  137.6230 C   0  0  0  0  0  0  0  0  0  0  0  0
  181.8870  179.8160  139.0740 N   0  0  0  0  0  0  0  0  0  0  0  0
  181.7720  175.4890  137.6250 C   0  0  0  0  0  2  0  0  0  0  0  0
  181.0130  176.1710  136.5650 N   0  0  0  0  0  0  0  0  0  0  0  0
  181.8030  178.6200  139.6930 C   0  0  0  0  0  0  0  0  0  0  0  0
  189.6780  177.2030  137.5830 C   0  0  0  0  0  2  0  0  0  0  0  0
  188.5640  177.8090  136.8740 N   0  0  0  0  0  2  0  0  0  0  0  0
  188.9720  175.1580  134.6710 O   0  0  0  0  0  1  0  0  0  0  0  0
  186.7450  176.0150  134.6070 C   0  0  2  0  0  3  0  0  0  0  0  0
  188.0710  175.9670  135.3610 C   0  0  2  0  0  3  0  0  0  0  0  0
  187.8470  178.3080  134.6140 C   0  0  0  0  0  2  0  0  0  0  0  0
  186.1350  177.7280  134.6240 S   0  0  0  0  0  0  0  0  0  0  0  0
  188.6490  177.3700  135.4900 C   0  0  1  0  0  3  0  0  0  0  0  0
  185.3080  172.4990  137.6050 C   0  0  0  0  0  1  0  0  0  0  0  0
  186.0950  173.7540  135.5990 N   0  0  0  0  0  0  0  0  0  0  0  0
  187.0730  172.6480  135.8320 C   0  0  0  0  0  0  0  0  0  0  0  0
  185.7510  172.4040  136.1550 C   0  0  0  0  0  0  0  0  0  0  0  0
  185.7260  175.0650  135.1760 C   0  0  0  0  0  0  0  0  0  0  0  0
  184.8830  171.6120  135.1910 C   0  0  0  0  0  1  0  0  0  0  0  0
  184.5110  175.3950  135.2030 O   0  0  0  0  0  0  0  0  0  0  0  0
  187.9860  172.9580  136.8420 O   0  0  0  0  0  1  0  0  0  0  0  0
  187.5980  172.1530  134.6350 O   0  0  0  0  0  1  0  0  0  0  0  0
  1 49  1  6  0  0  0
  1  2  1  0  0  0  0
  1 19  1  0  0  0  0
  2  3  1  0  0  0  0
  4  3  1  0  0  0  0
  5  4  1  0  0  0  0
  6  9  1  1  0  0  0
  6  5  1  0  0  0  0
  7  8  1  0  0  0  0
  7  6  1  0  0  0  0
  8  6  1  0  0  0  0
  9 10  2  0  0  0  0
 10 18  1  0  0  0  0
 11 16  1  0  0  0  0
 11 15  1  0  0  0  0
 13 11  1  0  0  0  0
 14 12  1  0  0  0  0
 15 10  1  0  0  0  0
 15 12  2  0  0  0  0
 16 14  1  0  0  0  0
 18 17  1  0  0  0  0
 19 20  1  0  0  0  0
 20 27  1  0  0  0  0
 21 26  1  0  0  0  0
 22 29  1  0  0  0  0
 23 21  1  0  0  0  0
 24 22  2  0  0  0  0
 25 22  1  0  0  0  0
 26 24  1  0  0  0  0
 27 21  2  0  0  0  0
 27 28  1  0  0  0  0
 28 25  2  0  0  0  0
 29 30  3  0  0  0  0
 30 31  1  0  0  0  0
 31 32  1  0  0  0  0
 33 32  1  0  0  0  0
 34 26  1  0  0  0  0
 35 34  1  0  0  0  0
 37 36  1  0  0  0  0
 38 35  1  0  0  0  0
 38 37  1  0  0  0  0
 38 36  1  0  0  0  0
 39 45  1  0  0  0  0
 40 41  1  0  0  0  0
 40 48  1  0  0  0  0
 42 47  1  0  0  0  0
 42 44  1  0  0  0  0
 43 47  1  0  0  0  0
 44 39  2  0  0  0  0
 44 40  1  0  0  0  0
 45 48  2  0  0  0  0
 46 41  1  0  0  0  0
 47 46  1  0  0  0  0
 48 38  1  0  0  0  0
 50 49  1  0  0  0  0
 52 55  1  0  0  0  0
 52 61  1  1  0  0  0
 52 53  1  0  0  0  0
 53 51  1  6  0  0  0
 53 56  1  0  0  0  0
 54 55  1  0  0  0  0
 54 56  1  0  0  0  0
 56 50  1  1  0  0  0
 58 59  1  0  0  0  0
 58 60  1  0  0  0  0
 59 60  1  0  0  0  0
 59 64  1  0  0  0  0
 60 57  1  0  0  0  0
 61 63  2  0  0  0  0
 61 58  1  0  0  0  0
 62 60  1  0  0  0  0
 65 59  1  0  0  0  0
M  END
>  <MODEL>
9

>  <REMARK>
 VINA RESULT:      -6.0      2.800      8.620
  Name = 
  22 active torsions:
  status: ('A' for Active; 'I' for Inactive)
    1  A    between atoms: C_2  and  C_36
    2  A    between atoms: C_8  and  C_9
    3  A    between atoms: C_10  and  O_32
    4  A    between atoms: C_11  and  C_27
    5  A    between atoms: C_11  and  C_48
    6  A    between atoms: C_12  and  C_33
    7  A    between atoms: C_12  and  C_50
    8  A    between atoms: C_14  and  C_43
    9  A    between atoms: C_14  and  C_52
   10  A    between atoms: C_18  and  C_21
   11  A    between atoms: C_18  and  N_54
   12  A    between atoms: N_20  and  C_29
   13  A    between atoms: C_21  and  C_50
   14  A    between atoms: C_21  and  C_52
   15  A    between atoms: C_27  and  C_62
   16  A    between atoms: C_29  and  N_58
   17  A    between atoms: O_32  and  C_40
   18  A    between atoms: C_33  and  N_58
   19  A    between atoms: N_39  and  C_48
   20  A    between atoms: C_42  and  N_54
   21  A    between atoms: C_46  and  C_57
   22  A    between atoms: C_57  and  C_60
                            x       y       z     vdW  Elec       q    Type
                         _______ _______ _______ _____ _____    ______ ____

>  <TORSDO>
F 22

$$$$
