=
 OpenBabel11042410423D

 38 40  0  0  1  0  0  0  0  0999 V2000
  187.5620  177.2080  142.8810 C   0  0  2  0  0  3  0  0  0  0  0  0
  187.1830  178.2180  144.0410 C   0  0  2  0  0  3  0  0  0  0  0  0
  188.2160  177.0160  144.2520 C   0  0  2  0  0  3  0  0  0  0  0  0
  185.7670  177.9040  144.6540 C   0  0  0  0  0  2  0  0  0  0  0  0
  183.9880  178.8460  146.2860 O   0  0  0  0  0  1  0  0  0  0  0  0
  184.5790  178.8920  144.9760 C   0  0  2  0  0  3  0  0  0  0  0  0
  183.6620  179.2140  143.7760 C   0  0  0  0  0  2  0  0  0  0  0  0
  182.3630  178.7350  143.9530 O   0  0  0  0  0  0  0  0  0  0  0  0
  181.2650  179.2520  143.1410 C   0  0  0  0  0  2  0  0  0  0  0  0
  180.8660  178.4500  141.8590 C   0  0  0  0  0  2  0  0  0  0  0  0
  180.5610  179.6760  141.1130 C   0  0  0  0  0  2  0  0  0  0  0  0
  181.0850  179.6550  139.7650 C   0  0  0  0  0  2  0  0  0  0  0  0
  181.4790  178.2850  139.7070 N   0  0  0  0  0  2  0  0  0  0  0  0
  181.7630  179.3560  137.7600 C   0  0  0  0  0  1  0  0  0  0  0  0
  182.1840  178.1320  138.5050 C   0  0  1  0  0  3  0  0  0  0  0  0
  185.9220  178.6070  138.3490 O   0  0  0  0  0  0  0  0  0  0  0  0
  183.7310  177.8710  138.6800 C   0  0  1  0  0  3  0  0  0  0  0  0
  184.2630  177.2200  137.5100 N   0  0  0  0  0  2  0  0  0  0  0  0
  184.7600  178.8840  139.0780 C   0  0  0  0  0  0  0  0  0  0  0  0
  184.6460  179.8370  139.8270 O   0  0  0  0  0  0  0  0  0  0  0  0
  185.7000  177.5610  137.4390 C   0  0  0  0  0  2  0  0  0  0  0  0
  188.7620  177.5900  142.1760 C   0  0  0  0  0  2  0  0  0  0  0  0
  188.8060  177.1970  140.8550 N   0  0  0  0  0  2  0  0  0  0  0  0
  190.1310  177.1700  140.4780 C   0  0  0  0  0  0  0  0  0  0  0  0
  191.0990  177.0910  141.3520 O   0  0  0  0  0  0  0  0  0  0  0  0
  190.2980  177.6140  139.2020 C   0  0  0  0  0  2  0  0  0  0  0  0
  190.7710  175.3170  138.6570 O   0  0  0  0  0  0  0  0  0  0  0  0
  190.2340  176.4170  138.3830 C   0  0  0  0  0  0  0  0  0  0  0  0
  189.2820  177.1310  136.2910 C   0  0  0  0  0  2  0  0  0  0  0  0
  189.1900  176.5340  137.3880 N   0  0  0  0  0  0  0  0  0  0  0  0
  188.9850  177.8210  145.2280 O   0  0  0  0  0  0  0  0  0  0  0  0
  190.3830  177.1880  147.0300 C   0  0  0  0  0  0  0  0  0  0  0  0
  189.4360  177.8540  148.3900 Cl  0  0  0  0  0  0  0  0  0  0  0  0
  191.2340  176.6290  145.0100 C   0  0  0  0  0  3  0  0  0  0  0  0
  191.5890  176.3460  147.1550 C   0  0  0  0  0  0  0  0  0  0  0  0
  192.2280  176.0060  148.1320 O   0  0  0  0  0  0  0  0  0  0  0  0
  190.1680  177.2820  145.7560 C   0  0  0  0  0  0  0  0  0  0  0  0
  192.0250  176.0750  145.7900 N   0  0  0  0  0  0  0  0  0  0  0  0
  1 22  1  6  0  0  0
  1  2  1  0  0  0  0
  1  3  1  0  0  0  0
  2  3  1  0  0  0  0
  2  4  1  1  0  0  0
  3 31  1  6  0  0  0
  4  6  1  0  0  0  0
  6  5  1  1  0  0  0
  7  8  1  0  0  0  0
  7  6  1  0  0  0  0
  9  8  1  0  0  0  0
 10  9  1  0  0  0  0
 11 10  1  0  0  0  0
 12 11  1  0  0  0  0
 13 12  1  0  0  0  0
 15 14  1  6  0  0  0
 15 13  1  0  0  0  0
 16 19  1  0  0  0  0
 17 15  1  6  0  0  0
 17 19  1  0  0  0  0
 18 17  1  0  0  0  0
 19 20  2  0  0  0  0
 21 18  1  0  0  0  0
 21 16  1  0  0  0  0
 23 22  1  0  0  0  0
 24 23  1  0  0  0  0
 24 25  2  0  0  0  0
 26 24  1  0  0  0  0
 28 27  2  0  0  0  0
 28 26  1  0  0  0  0
 29 30  2  0  0  0  0
 30 28  1  0  0  0  0
 31 37  1  0  0  0  0
 32 35  1  0  0  0  0
 32 33  1  0  0  0  0
 34 37  1  0  0  0  0
 34 38  2  0  0  0  0
 35 36  2  0  0  0  0
 37 32  2  0  0  0  0
 38 35  1  0  0  0  0
M  END
>  <MODEL>
1

>  <REMARK>
 VINA RESULT:      -7.0      0.000      0.000
  Name = 
  18 active torsions:
  status: ('A' for Active; 'I' for Inactive)
    1  A    between atoms: N_2  and  C_26
    2  A    between atoms: C_5  and  C_15
    3  A    between atoms: C_7  and  C_13
    4  A    between atoms: C_7  and  C_37
    5  A    between atoms: C_8  and  O_21
    6  A    between atoms: C_8  and  C_37
    7  A    between atoms: C_10  and  C_26
    8  A    between atoms: C_13  and  N_38
    9  A    between atoms: C_15  and  N_38
   10  A    between atoms: C_17  and  O_21
   11  A    between atoms: C_17  and  C_29
   12  A    between atoms: C_19  and  C_33
   13  A    between atoms: C_22  and  C_25
   14  A    between atoms: N_24  and  C_31
   15  A    between atoms: C_25  and  C_29
   16  A    between atoms: O_27  and  C_30
   17  A    between atoms: O_27  and  C_34
   18  A    between atoms: C_31  and  C_33
                            x       y       z     vdW  Elec       q    Type
                         _______ _______ _______ _____ _____    ______ ____

>  <TORSDO>
F 18

$$$$
=
 OpenBabel11042410423D

 38 40  0  0  1  0  0  0  0  0999 V2000
  186.5570  178.9410  141.5660 C   0  0  2  0  0  3  0  0  0  0  0  0
  185.3510  178.2510  142.3270 C   0  0  2  0  0  3  0  0  0  0  0  0
  185.1570  179.0500  140.9560 C   0  0  2  0  0  3  0  0  0  0  0  0
  184.8890  179.0890  143.5780 C   0  0  0  0  0  2  0  0  0  0  0  0
  183.6500  179.1530  145.8520 O   0  0  0  0  0  1  0  0  0  0  0  0
  184.7490  178.6370  145.0840 C   0  0  2  0  0  3  0  0  0  0  0  0
  186.0880  178.3840  145.8100 C   0  0  0  0  0  2  0  0  0  0  0  0
  186.1370  178.9890  147.0670 O   0  0  0  0  0  0  0  0  0  0  0  0
  187.0560  178.5000  148.0900 C   0  0  0  0  0  2  0  0  0  0  0  0
  187.9170  177.2370  147.7550 C   0  0  0  0  0  2  0  0  0  0  0  0
  189.1730  177.9490  148.0170 C   0  0  0  0  0  2  0  0  0  0  0  0
  190.3360  177.2110  147.5730 C   0  0  0  0  0  2  0  0  0  0  0  0
  189.9190  176.9320  146.2380 N   0  0  0  0  0  2  0  0  0  0  0  0
  191.9070  176.0200  145.7560 C   0  0  0  0  0  1  0  0  0  0  0  0
  191.0300  177.1820  145.4220 C   0  0  1  0  0  3  0  0  0  0  0  0
  190.4960  176.5730  141.7380 O   0  0  0  0  0  0  0  0  0  0  0  0
  190.6850  177.4320  143.9020 C   0  0  1  0  0  3  0  0  0  0  0  0
  191.8790  177.7680  143.1680 N   0  0  0  0  0  2  0  0  0  0  0  0
  189.9110  176.5120  143.0070 C   0  0  0  0  0  0  0  0  0  0  0  0
  188.9870  175.7700  143.2880 O   0  0  0  0  0  0  0  0  0  0  0  0
  191.6470  177.3770  141.7600 C   0  0  0  0  0  2  0  0  0  0  0  0
  187.1220  178.1020  140.5370 C   0  0  0  0  0  2  0  0  0  0  0  0
  188.4360  178.3780  140.2240 N   0  0  0  0  0  2  0  0  0  0  0  0
  188.5320  178.4250  138.8500 C   0  0  0  0  0  0  0  0  0  0  0  0
  187.4870  178.6190  138.0890 O   0  0  0  0  0  0  0  0  0  0  0  0
  189.6970  177.8760  138.4100 C   0  0  0  0  0  2  0  0  0  0  0  0
  188.4090  176.0220  137.5750 O   0  0  0  0  0  0  0  0  0  0  0  0
  189.3920  176.4710  138.2120 C   0  0  0  0  0  0  0  0  0  0  0  0
  191.6500  175.6780  137.9580 C   0  0  0  0  0  2  0  0  0  0  0  0
  190.5380  175.6490  138.5330 N   0  0  0  0  0  0  0  0  0  0  0  0
  184.0540  178.1440  140.5610 O   0  0  0  0  0  0  0  0  0  0  0  0
  181.8730  179.0640  140.5470 C   0  0  0  0  0  0  0  0  0  0  0  0
  181.4340  178.8140  142.2600 Cl  0  0  0  0  0  0  0  0  0  0  0  0
  182.8470  179.0620  138.5060 C   0  0  0  0  0  3  0  0  0  0  0  0
  181.0730  179.8090  139.5550 C   0  0  0  0  0  0  0  0  0  0  0  0
  179.9700  180.3140  139.6360 O   0  0  0  0  0  0  0  0  0  0  0  0
  182.9390  178.6920  139.9100 C   0  0  0  0  0  0  0  0  0  0  0  0
  181.8120  179.7160  138.3020 N   0  0  0  0  0  0  0  0  0  0  0  0
  1 22  1  6  0  0  0
  1  2  1  0  0  0  0
  2  4  1  1  0  0  0
  3 31  1  6  0  0  0
  3  1  1  0  0  0  0
  3  2  1  0  0  0  0
  4  6  1  0  0  0  0
  6  7  1  0  0  0  0
  6  5  1  1  0  0  0
  7  8  1  0  0  0  0
  8  9  1  0  0  0  0
 10 11  1  0  0  0  0
 10  9  1  0  0  0  0
 12 11  1  0  0  0  0
 13 12  1  0  0  0  0
 15 14  1  6  0  0  0
 15 13  1  0  0  0  0
 16 21  1  0  0  0  0
 16 19  1  0  0  0  0
 17 15  1  1  0  0  0
 18 17  1  0  0  0  0
 19 20  2  0  0  0  0
 19 17  1  0  0  0  0
 21 18  1  0  0  0  0
 23 22  1  0  0  0  0
 24 23  1  0  0  0  0
 25 24  2  0  0  0  0
 26 24  1  0  0  0  0
 27 28  2  0  0  0  0
 28 26  1  0  0  0  0
 28 30  1  0  0  0  0
 29 30  2  0  0  0  0
 32 33  1  0  0  0  0
 34 37  1  0  0  0  0
 35 36  2  0  0  0  0
 35 32  1  0  0  0  0
 37 32  2  0  0  0  0
 37 31  1  0  0  0  0
 38 34  2  0  0  0  0
 38 35  1  0  0  0  0
M  END
>  <MODEL>
2

>  <REMARK>
 VINA RESULT:      -6.8      2.618      7.950
  Name = 
  18 active torsions:
  status: ('A' for Active; 'I' for Inactive)
    1  A    between atoms: N_2  and  C_26
    2  A    between atoms: C_5  and  C_15
    3  A    between atoms: C_7  and  C_13
    4  A    between atoms: C_7  and  C_37
    5  A    between atoms: C_8  and  O_21
    6  A    between atoms: C_8  and  C_37
    7  A    between atoms: C_10  and  C_26
    8  A    between atoms: C_13  and  N_38
    9  A    between atoms: C_15  and  N_38
   10  A    between atoms: C_17  and  O_21
   11  A    between atoms: C_17  and  C_29
   12  A    between atoms: C_19  and  C_33
   13  A    between atoms: C_22  and  C_25
   14  A    between atoms: N_24  and  C_31
   15  A    between atoms: C_25  and  C_29
   16  A    between atoms: O_27  and  C_30
   17  A    between atoms: O_27  and  C_34
   18  A    between atoms: C_31  and  C_33
                            x       y       z     vdW  Elec       q    Type
                         _______ _______ _______ _____ _____    ______ ____

>  <TORSDO>
F 18

$$$$
=
 OpenBabel11042410423D

 38 40  0  0  1  0  0  0  0  0999 V2000
  189.8420  176.7700  141.2720 C   0  0  2  0  0  3  0  0  0  0  0  0
  189.2100  177.8610  140.3140 C   0  0  2  0  0  3  0  0  0  0  0  0
  188.4090  177.2340  141.5490 C   0  0  2  0  0  3  0  0  0  0  0  0
  188.7620  177.2440  138.9360 C   0  0  0  0  0  2  0  0  0  0  0  0
  186.6000  178.5800  138.4330 O   0  0  0  0  0  1  0  0  0  0  0  0
  187.6630  177.7550  137.9260 C   0  0  2  0  0  3  0  0  0  0  0  0
  187.3380  176.7790  136.7740 C   0  0  0  0  0  2  0  0  0  0  0  0
  188.2880  175.7640  136.6510 O   0  0  0  0  0  0  0  0  0  0  0  0
  187.8720  174.3730  136.4950 C   0  0  0  0  0  2  0  0  0  0  0  0
  188.9740  173.2670  136.5890 C   0  0  0  0  0  2  0  0  0  0  0  0
  189.9630  174.2110  137.1190 C   0  0  0  0  0  2  0  0  0  0  0  0
  191.3250  173.8030  136.8510 C   0  0  0  0  0  2  0  0  0  0  0  0
  191.9660  174.4550  137.9460 N   0  0  0  0  0  2  0  0  0  0  0  0
  192.6850  176.5760  137.9160 C   0  0  0  0  0  1  0  0  0  0  0  0
  193.0070  175.2140  137.3940 C   0  0  1  0  0  3  0  0  0  0  0  0
  195.8040  173.1090  138.7980 O   0  0  0  0  0  0  0  0  0  0  0  0
  194.4520  174.6410  137.6670 C   0  0  1  0  0  3  0  0  0  0  0  0
  195.0440  175.3020  138.8030 N   0  0  0  0  0  2  0  0  0  0  0  0
  194.8200  173.1960  137.8070 C   0  0  0  0  0  0  0  0  0  0  0  0
  194.3390  172.2260  137.2490 O   0  0  0  0  0  0  0  0  0  0  0  0
  196.0320  174.3660  139.3820 C   0  0  0  0  0  2  0  0  0  0  0  0
  190.4340  177.3420  142.4580 C   0  0  0  0  0  2  0  0  0  0  0  0
  190.2550  176.6010  143.6080 N   0  0  0  0  0  2  0  0  0  0  0  0
  190.8230  177.3070  144.6460 C   0  0  0  0  0  0  0  0  0  0  0  0
  191.0470  178.5930  144.5680 O   0  0  0  0  0  0  0  0  0  0  0  0
  191.4450  176.4830  145.5310 C   0  0  0  0  0  2  0  0  0  0  0  0
  189.6510  176.9380  147.0710 O   0  0  0  0  0  0  0  0  0  0  0  0
  190.8760  176.8280  146.8210 C   0  0  0  0  0  0  0  0  0  0  0  0
  192.6710  175.7420  148.0000 C   0  0  0  0  0  2  0  0  0  0  0  0
  191.8630  176.6890  147.8700 N   0  0  0  0  0  0  0  0  0  0  0  0
  187.6850  178.5090  141.7520 O   0  0  0  0  0  0  0  0  0  0  0  0
  186.0570  178.2460  143.4490 C   0  0  0  0  0  0  0  0  0  0  0  0
  187.1160  177.7670  144.8070 Cl  0  0  0  0  0  0  0  0  0  0  0  0
  185.1640  178.7770  141.4410 C   0  0  0  0  0  3  0  0  0  0  0  0
  184.6120  178.5320  143.5480 C   0  0  0  0  0  0  0  0  0  0  0  0
  183.8400  178.4320  144.4820 O   0  0  0  0  0  0  0  0  0  0  0  0
  186.3600  178.4600  142.2080 C   0  0  0  0  0  0  0  0  0  0  0  0
  184.1780  178.8470  142.1920 N   0  0  0  0  0  0  0  0  0  0  0  0
  1  3  1  0  0  0  0
  1 22  1  1  0  0  0
  2  4  1  6  0  0  0
  2  1  1  0  0  0  0
  2  3  1  0  0  0  0
  3 31  1  1  0  0  0
  6  5  1  1  0  0  0
  6  4  1  0  0  0  0
  7  6  1  0  0  0  0
  8  7  1  0  0  0  0
  9 10  1  0  0  0  0
  9  8  1  0  0  0  0
 10 11  1  0  0  0  0
 12 11  1  0  0  0  0
 12 13  1  0  0  0  0
 15 14  1  1  0  0  0
 15 13  1  0  0  0  0
 16 21  1  0  0  0  0
 17 15  1  1  0  0  0
 17 19  1  0  0  0  0
 17 18  1  0  0  0  0
 18 21  1  0  0  0  0
 19 16  1  0  0  0  0
 20 19  2  0  0  0  0
 22 23  1  0  0  0  0
 23 24  1  0  0  0  0
 24 26  1  0  0  0  0
 25 24  2  0  0  0  0
 26 28  1  0  0  0  0
 28 27  2  0  0  0  0
 28 30  1  0  0  0  0
 30 29  2  0  0  0  0
 31 37  1  0  0  0  0
 32 35  1  0  0  0  0
 32 33  1  0  0  0  0
 34 38  2  0  0  0  0
 34 37  1  0  0  0  0
 35 36  2  0  0  0  0
 37 32  2  0  0  0  0
 38 35  1  0  0  0  0
M  END
>  <MODEL>
3

>  <REMARK>
 VINA RESULT:      -6.8      3.115      8.800
  Name = 
  18 active torsions:
  status: ('A' for Active; 'I' for Inactive)
    1  A    between atoms: N_2  and  C_26
    2  A    between atoms: C_5  and  C_15
    3  A    between atoms: C_7  and  C_13
    4  A    between atoms: C_7  and  C_37
    5  A    between atoms: C_8  and  O_21
    6  A    between atoms: C_8  and  C_37
    7  A    between atoms: C_10  and  C_26
    8  A    between atoms: C_13  and  N_38
    9  A    between atoms: C_15  and  N_38
   10  A    between atoms: C_17  and  O_21
   11  A    between atoms: C_17  and  C_29
   12  A    between atoms: C_19  and  C_33
   13  A    between atoms: C_22  and  C_25
   14  A    between atoms: N_24  and  C_31
   15  A    between atoms: C_25  and  C_29
   16  A    between atoms: O_27  and  C_30
   17  A    between atoms: O_27  and  C_34
   18  A    between atoms: C_31  and  C_33
                            x       y       z     vdW  Elec       q    Type
                         _______ _______ _______ _____ _____    ______ ____

>  <TORSDO>
F 18

$$$$
=
 OpenBabel11042410423D

 38 40  0  0  1  0  0  0  0  0999 V2000
  186.2280  179.0290  141.3680 C   0  0  2  0  0  3  0  0  0  0  0  0
  185.4910  178.0550  142.3750 C   0  0  2  0  0  3  0  0  0  0  0  0
  184.6980  179.0600  141.4180 C   0  0  2  0  0  3  0  0  0  0  0  0
  185.5670  178.5760  143.8590 C   0  0  0  0  0  2  0  0  0  0  0  0
  187.4970  177.0980  144.7570 O   0  0  0  0  0  1  0  0  0  0  0  0
  186.4940  178.0890  145.0400 C   0  0  2  0  0  3  0  0  0  0  0  0
  185.8140  178.0590  146.4260 C   0  0  0  0  0  2  0  0  0  0  0  0
  186.4920  178.8290  147.3710 O   0  0  0  0  0  0  0  0  0  0  0  0
  187.3740  178.1980  148.3480 C   0  0  0  0  0  2  0  0  0  0  0  0
  188.9140  178.2420  148.0750 C   0  0  0  0  0  2  0  0  0  0  0  0
  188.9780  176.7920  147.8570 C   0  0  0  0  0  2  0  0  0  0  0  0
  190.2550  176.3630  147.3300 C   0  0  0  0  0  2  0  0  0  0  0  0
  190.4590  177.4050  146.3780 N   0  0  0  0  0  2  0  0  0  0  0  0
  191.9640  175.7490  146.2830 C   0  0  0  0  0  1  0  0  0  0  0  0
  191.6310  177.0770  145.6840 C   0  0  1  0  0  3  0  0  0  0  0  0
  190.2370  177.7490  142.2450 O   0  0  0  0  0  0  0  0  0  0  0  0
  191.5130  177.1690  144.1130 C   0  0  1  0  0  3  0  0  0  0  0  0
  190.8980  175.9760  143.5880 N   0  0  0  0  0  2  0  0  0  0  0  0
  190.9170  178.3020  143.3350 C   0  0  0  0  0  0  0  0  0  0  0  0
  190.9230  179.4930  143.5910 O   0  0  0  0  0  0  0  0  0  0  0  0
  190.2570  176.3460  142.3080 C   0  0  0  0  0  2  0  0  0  0  0  0
  186.3390  178.4800  140.0370 C   0  0  0  0  0  2  0  0  0  0  0  0
  187.6310  178.3400  139.5770 N   0  0  0  0  0  2  0  0  0  0  0  0
  187.5730  178.2650  138.2020 C   0  0  0  0  0  0  0  0  0  0  0  0
  186.5430  178.7050  137.5280 O   0  0  0  0  0  0  0  0  0  0  0  0
  188.4750  177.3740  137.7100 C   0  0  0  0  0  2  0  0  0  0  0  0
  187.8130  176.7000  135.4950 O   0  0  0  0  0  0  0  0  0  0  0  0
  187.7290  176.5900  136.7420 C   0  0  0  0  0  0  0  0  0  0  0  0
  186.2540  174.6930  136.8770 C   0  0  0  0  0  2  0  0  0  0  0  0
  187.1390  175.4280  137.3710 N   0  0  0  0  0  0  0  0  0  0  0  0
  183.5730  178.1030  141.3110 O   0  0  0  0  0  0  0  0  0  0  0  0
  181.6230  178.9540  142.3470 C   0  0  0  0  0  0  0  0  0  0  0  0
  182.0650  178.7100  144.0600 Cl  0  0  0  0  0  0  0  0  0  0  0  0
  181.5010  178.9600  140.0890 C   0  0  0  0  0  3  0  0  0  0  0  0
  180.4220  179.6630  141.8630 C   0  0  0  0  0  0  0  0  0  0  0  0
  179.4760  180.1340  142.4640 O   0  0  0  0  0  0  0  0  0  0  0  0
  182.2650  178.6080  141.2760 C   0  0  0  0  0  0  0  0  0  0  0  0
  180.4730  179.5790  140.4080 N   0  0  0  0  0  0  0  0  0  0  0  0
  1 22  1  6  0  0  0
  1  3  1  0  0  0  0
  1  2  1  0  0  0  0
  2  4  1  1  0  0  0
  3 31  1  6  0  0  0
  3  2  1  0  0  0  0
  4  6  1  0  0  0  0
  6  5  1  6  0  0  0
  6  7  1  0  0  0  0
  7  8  1  0  0  0  0
  8  9  1  0  0  0  0
 10  9  1  0  0  0  0
 11 10  1  0  0  0  0
 12 11  1  0  0  0  0
 13 12  1  0  0  0  0
 15 14  1  6  0  0  0
 15 13  1  0  0  0  0
 16 21  1  0  0  0  0
 16 19  1  0  0  0  0
 17 15  1  1  0  0  0
 18 17  1  0  0  0  0
 19 20  2  0  0  0  0
 19 17  1  0  0  0  0
 21 18  1  0  0  0  0
 23 22  1  0  0  0  0
 24 23  1  0  0  0  0
 25 24  2  0  0  0  0
 26 24  1  0  0  0  0
 27 28  2  0  0  0  0
 28 30  1  0  0  0  0
 28 26  1  0  0  0  0
 29 30  2  0  0  0  0
 32 33  1  0  0  0  0
 34 38  2  0  0  0  0
 34 37  1  0  0  0  0
 35 32  1  0  0  0  0
 35 36  2  0  0  0  0
 37 31  1  0  0  0  0
 37 32  2  0  0  0  0
 38 35  1  0  0  0  0
M  END
>  <MODEL>
4

>  <REMARK>
 VINA RESULT:      -6.7      2.606      8.064
  Name = 
  18 active torsions:
  status: ('A' for Active; 'I' for Inactive)
    1  A    between atoms: N_2  and  C_26
    2  A    between atoms: C_5  and  C_15
    3  A    between atoms: C_7  and  C_13
    4  A    between atoms: C_7  and  C_37
    5  A    between atoms: C_8  and  O_21
    6  A    between atoms: C_8  and  C_37
    7  A    between atoms: C_10  and  C_26
    8  A    between atoms: C_13  and  N_38
    9  A    between atoms: C_15  and  N_38
   10  A    between atoms: C_17  and  O_21
   11  A    between atoms: C_17  and  C_29
   12  A    between atoms: C_19  and  C_33
   13  A    between atoms: C_22  and  C_25
   14  A    between atoms: N_24  and  C_31
   15  A    between atoms: C_25  and  C_29
   16  A    between atoms: O_27  and  C_30
   17  A    between atoms: O_27  and  C_34
   18  A    between atoms: C_31  and  C_33
                            x       y       z     vdW  Elec       q    Type
                         _______ _______ _______ _____ _____    ______ ____

>  <TORSDO>
F 18

$$$$
=
 OpenBabel11042410423D

 38 40  0  0  1  0  0  0  0  0999 V2000
  187.4650  177.2420  142.8980 C   0  0  2  0  0  3  0  0  0  0  0  0
  187.0440  178.2560  144.0390 C   0  0  2  0  0  3  0  0  0  0  0  0
  188.0610  177.0480  144.2960 C   0  0  2  0  0  3  0  0  0  0  0  0
  185.6010  177.9510  144.5930 C   0  0  0  0  0  2  0  0  0  0  0  0
  183.9410  178.6270  146.4630 O   0  0  0  0  0  1  0  0  0  0  0  0
  184.5340  178.9470  145.1940 C   0  0  2  0  0  3  0  0  0  0  0  0
  183.6610  179.6690  144.1450 C   0  0  0  0  0  2  0  0  0  0  0  0
  182.6660  178.8440  143.6180 O   0  0  0  0  0  0  0  0  0  0  0  0
  182.6010  178.5830  142.1830 C   0  0  0  0  0  2  0  0  0  0  0  0
  183.9360  178.2380  141.4430 C   0  0  0  0  0  2  0  0  0  0  0  0
  183.2230  177.6570  140.3010 C   0  0  0  0  0  2  0  0  0  0  0  0
  183.3430  178.4570  139.1010 C   0  0  0  0  0  2  0  0  0  0  0  0
  182.2940  177.8630  138.3390 N   0  0  0  0  0  2  0  0  0  0  0  0
  181.3640  178.0580  136.3100 C   0  0  0  0  0  1  0  0  0  0  0  0
  181.8170  178.8650  137.4840 C   0  0  1  0  0  3  0  0  0  0  0  0
  180.2610  181.3300  139.8770 O   0  0  0  0  0  0  0  0  0  0  0  0
  180.7760  179.8510  138.1440 C   0  0  1  0  0  3  0  0  0  0  0  0
  179.9780  179.1550  139.1210 N   0  0  0  0  0  2  0  0  0  0  0  0
  181.0850  181.1830  138.7570 C   0  0  0  0  0  0  0  0  0  0  0  0
  181.9330  181.9960  138.4340 O   0  0  0  0  0  0  0  0  0  0  0  0
  179.5150  180.1610  140.1010 C   0  0  0  0  0  2  0  0  0  0  0  0
  188.6970  177.6160  142.2440 C   0  0  0  0  0  2  0  0  0  0  0  0
  188.6830  177.4870  140.8710 N   0  0  0  0  0  2  0  0  0  0  0  0
  189.8380  176.8290  140.5070 C   0  0  0  0  0  0  0  0  0  0  0  0
  190.5190  176.1050  141.3560 O   0  0  0  0  0  0  0  0  0  0  0  0
  190.3550  177.3250  139.3510 C   0  0  0  0  0  2  0  0  0  0  0  0
  190.3540  175.2190  138.1850 O   0  0  0  0  0  0  0  0  0  0  0  0
  190.9700  176.1830  138.7010 C   0  0  0  0  0  0  0  0  0  0  0  0
  193.1840  177.0000  139.1710 C   0  0  0  0  0  2  0  0  0  0  0  0
  192.3610  176.4500  138.4050 N   0  0  0  0  0  0  0  0  0  0  0  0
  188.7920  177.8510  145.3020 O   0  0  0  0  0  0  0  0  0  0  0  0
  190.3120  177.3150  147.0360 C   0  0  0  0  0  0  0  0  0  0  0  0
  189.4150  177.9770  148.4320 Cl  0  0  0  0  0  0  0  0  0  0  0  0
  191.0710  176.7420  144.9850 C   0  0  0  0  0  3  0  0  0  0  0  0
  191.5550  176.5240  147.1110 C   0  0  0  0  0  0  0  0  0  0  0  0
  192.2600  176.2320  148.0580 O   0  0  0  0  0  0  0  0  0  0  0  0
  190.0220  177.3710  145.7740 C   0  0  0  0  0  0  0  0  0  0  0  0
  191.9250  176.2370  145.7300 N   0  0  0  0  0  0  0  0  0  0  0  0
  1 22  1  6  0  0  0
  1  2  1  0  0  0  0
  1  3  1  0  0  0  0
  2  3  1  0  0  0  0
  2  4  1  1  0  0  0
  3 31  1  6  0  0  0
  4  6  1  0  0  0  0
  6  5  1  1  0  0  0
  7  6  1  0  0  0  0
  8  7  1  0  0  0  0
  9  8  1  0  0  0  0
 10  9  1  0  0  0  0
 11 10  1  0  0  0  0
 12 11  1  0  0  0  0
 13 12  1  0  0  0  0
 15 14  1  6  0  0  0
 15 13  1  0  0  0  0
 16 21  1  0  0  0  0
 17 15  1  1  0  0  0
 17 19  1  0  0  0  0
 17 18  1  0  0  0  0
 18 21  1  0  0  0  0
 19 16  1  0  0  0  0
 20 19  2  0  0  0  0
 23 22  1  0  0  0  0
 24 23  1  0  0  0  0
 24 25  2  0  0  0  0
 26 24  1  0  0  0  0
 27 28  2  0  0  0  0
 28 26  1  0  0  0  0
 30 28  1  0  0  0  0
 30 29  2  0  0  0  0
 31 37  1  0  0  0  0
 32 35  1  0  0  0  0
 32 33  1  0  0  0  0
 34 38  2  0  0  0  0
 34 37  1  0  0  0  0
 35 36  2  0  0  0  0
 37 32  2  0  0  0  0
 38 35  1  0  0  0  0
M  END
>  <MODEL>
5

>  <REMARK>
 VINA RESULT:      -6.4      1.614      2.528
  Name = 
  18 active torsions:
  status: ('A' for Active; 'I' for Inactive)
    1  A    between atoms: N_2  and  C_26
    2  A    between atoms: C_5  and  C_15
    3  A    between atoms: C_7  and  C_13
    4  A    between atoms: C_7  and  C_37
    5  A    between atoms: C_8  and  O_21
    6  A    between atoms: C_8  and  C_37
    7  A    between atoms: C_10  and  C_26
    8  A    between atoms: C_13  and  N_38
    9  A    between atoms: C_15  and  N_38
   10  A    between atoms: C_17  and  O_21
   11  A    between atoms: C_17  and  C_29
   12  A    between atoms: C_19  and  C_33
   13  A    between atoms: C_22  and  C_25
   14  A    between atoms: N_24  and  C_31
   15  A    between atoms: C_25  and  C_29
   16  A    between atoms: O_27  and  C_30
   17  A    between atoms: O_27  and  C_34
   18  A    between atoms: C_31  and  C_33
                            x       y       z     vdW  Elec       q    Type
                         _______ _______ _______ _____ _____    ______ ____

>  <TORSDO>
F 18

$$$$
=
 OpenBabel11042410423D

 38 40  0  0  1  0  0  0  0  0999 V2000
  188.0170  178.5040  140.9820 C   0  0  2  0  0  3  0  0  0  0  0  0
  188.9290  177.2110  140.9160 C   0  0  2  0  0  3  0  0  0  0  0  0
  188.7420  178.0620  142.2570 C   0  0  2  0  0  3  0  0  0  0  0  0
  190.3080  177.5000  140.2120 C   0  0  0  0  0  2  0  0  0  0  0  0
  192.3440  176.6570  138.8500 O   0  0  0  0  0  1  0  0  0  0  0  0
  190.9210  176.8430  138.9140 C   0  0  2  0  0  3  0  0  0  0  0  0
  190.1720  177.1770  137.6050 C   0  0  0  0  0  2  0  0  0  0  0  0
  189.5190  178.4090  137.6630 O   0  0  0  0  0  0  0  0  0  0  0  0
  188.1380  178.5380  137.2040 C   0  0  0  0  0  2  0  0  0  0  0  0
  187.5000  177.3200  136.4570 C   0  0  0  0  0  2  0  0  0  0  0  0
  186.4860  177.1340  137.5000 C   0  0  0  0  0  2  0  0  0  0  0  0
  185.3960  176.2830  137.0740 C   0  0  0  0  0  2  0  0  0  0  0  0
  184.3890  176.7580  137.9670 N   0  0  0  0  0  2  0  0  0  0  0  0
  182.6480  176.3870  136.6080 C   0  0  0  0  0  1  0  0  0  0  0  0
  183.4830  177.4840  137.1830 C   0  0  1  0  0  3  0  0  0  0  0  0
  182.3210  179.7580  139.9590 O   0  0  0  0  0  0  0  0  0  0  0  0
  182.7440  178.6510  137.9460 C   0  0  1  0  0  3  0  0  0  0  0  0
  181.4850  178.1860  138.4720 N   0  0  0  0  0  2  0  0  0  0  0  0
  183.3290  179.5180  139.0190 C   0  0  0  0  0  0  0  0  0  0  0  0
  184.4750  179.9110  139.1450 O   0  0  0  0  0  0  0  0  0  0  0  0
  181.1610  179.0350  139.6380 C   0  0  0  0  0  2  0  0  0  0  0  0
  186.6790  178.2220  141.4460 C   0  0  0  0  0  2  0  0  0  0  0  0
  186.3950  178.6930  142.7100 N   0  0  0  0  0  2  0  0  0  0  0  0
  185.0240  178.7110  142.8450 C   0  0  0  0  0  0  0  0  0  0  0  0
  184.2440  177.9910  142.0820 O   0  0  0  0  0  0  0  0  0  0  0  0
  184.6030  179.7990  143.5440 C   0  0  0  0  0  2  0  0  0  0  0  0
  183.1210  178.6000  145.0160 O   0  0  0  0  0  0  0  0  0  0  0  0
  184.1650  179.2690  144.8230 C   0  0  0  0  0  0  0  0  0  0  0  0
  185.3350  178.5910  146.8140 C   0  0  0  0  0  2  0  0  0  0  0  0
  185.2450  179.3000  145.7860 N   0  0  0  0  0  0  0  0  0  0  0  0
  188.8790  176.8370  143.0770 O   0  0  0  0  0  0  0  0  0  0  0  0
  190.5180  176.5830  144.7650 C   0  0  0  0  0  0  0  0  0  0  0  0
  191.7440  175.6570  143.8530 Cl  0  0  0  0  0  0  0  0  0  0  0  0
  188.6590  177.6490  145.4890 C   0  0  0  0  0  3  0  0  0  0  0  0
  190.6890  177.1240  146.1280 C   0  0  0  0  0  0  0  0  0  0  0  0
  191.5980  177.0020  146.9270 O   0  0  0  0  0  0  0  0  0  0  0  0
  189.3360  176.9640  144.3970 C   0  0  0  0  0  0  0  0  0  0  0  0
  189.4240  177.7680  146.4590 N   0  0  0  0  0  0  0  0  0  0  0  0
  1 22  1  1  0  0  0
  1  3  1  0  0  0  0
  2  4  1  6  0  0  0
  2  1  1  0  0  0  0
  2  3  1  0  0  0  0
  3 31  1  1  0  0  0
  6  5  1  6  0  0  0
  6  4  1  0  0  0  0
  7  8  1  0  0  0  0
  7  6  1  0  0  0  0
  9  8  1  0  0  0  0
 10  9  1  0  0  0  0
 10 11  1  0  0  0  0
 12 11  1  0  0  0  0
 12 13  1  0  0  0  0
 15 14  1  1  0  0  0
 15 13  1  0  0  0  0
 17 15  1  1  0  0  0
 17 18  1  0  0  0  0
 17 19  1  0  0  0  0
 18 21  1  0  0  0  0
 19 20  2  0  0  0  0
 19 16  1  0  0  0  0
 21 16  1  0  0  0  0
 22 23  1  0  0  0  0
 23 24  1  0  0  0  0
 24 26  1  0  0  0  0
 25 24  2  0  0  0  0
 26 28  1  0  0  0  0
 28 27  2  0  0  0  0
 28 30  1  0  0  0  0
 30 29  2  0  0  0  0
 31 37  1  0  0  0  0
 32 35  1  0  0  0  0
 33 32  1  0  0  0  0
 34 38  2  0  0  0  0
 35 38  1  0  0  0  0
 35 36  2  0  0  0  0
 37 32  2  0  0  0  0
 37 34  1  0  0  0  0
M  END
>  <MODEL>
6

>  <REMARK>
 VINA RESULT:      -6.4      2.193      6.135
  Name = 
  18 active torsions:
  status: ('A' for Active; 'I' for Inactive)
    1  A    between atoms: N_2  and  C_26
    2  A    between atoms: C_5  and  C_15
    3  A    between atoms: C_7  and  C_13
    4  A    between atoms: C_7  and  C_37
    5  A    between atoms: C_8  and  O_21
    6  A    between atoms: C_8  and  C_37
    7  A    between atoms: C_10  and  C_26
    8  A    between atoms: C_13  and  N_38
    9  A    between atoms: C_15  and  N_38
   10  A    between atoms: C_17  and  O_21
   11  A    between atoms: C_17  and  C_29
   12  A    between atoms: C_19  and  C_33
   13  A    between atoms: C_22  and  C_25
   14  A    between atoms: N_24  and  C_31
   15  A    between atoms: C_25  and  C_29
   16  A    between atoms: O_27  and  C_30
   17  A    between atoms: O_27  and  C_34
   18  A    between atoms: C_31  and  C_33
                            x       y       z     vdW  Elec       q    Type
                         _______ _______ _______ _____ _____    ______ ____

>  <TORSDO>
F 18

$$$$
=
 OpenBabel11042410423D

 38 40  0  0  1  0  0  0  0  0999 V2000
  183.3650  178.3620  139.9360 C   0  0  2  0  0  3  0  0  0  0  0  0
  184.5890  179.3210  140.2360 C   0  0  2  0  0  3  0  0  0  0  0  0
  184.6700  178.1350  139.1670 C   0  0  2  0  0  3  0  0  0  0  0  0
  185.3030  178.9550  141.5910 C   0  0  0  0  0  2  0  0  0  0  0  0
  183.5240  179.3650  143.4300 O   0  0  0  0  0  1  0  0  0  0  0  0
  184.6650  178.6070  142.9920 C   0  0  2  0  0  3  0  0  0  0  0  0
  185.6710  178.1270  144.0600 C   0  0  0  0  0  2  0  0  0  0  0  0
  185.3360  178.5610  145.3440 O   0  0  0  0  0  0  0  0  0  0  0  0
  186.1690  178.2040  146.4890 C   0  0  0  0  0  2  0  0  0  0  0  0
  187.4930  177.4190  146.2110 C   0  0  0  0  0  2  0  0  0  0  0  0
  188.0900  177.8570  147.4770 C   0  0  0  0  0  2  0  0  0  0  0  0
  189.4140  177.3120  147.6880 C   0  0  0  0  0  2  0  0  0  0  0  0
  189.7090  176.9330  146.3450 N   0  0  0  0  0  2  0  0  0  0  0  0
  191.7140  176.1450  146.9600 C   0  0  0  0  0  1  0  0  0  0  0  0
  191.0670  177.2200  146.1490 C   0  0  1  0  0  3  0  0  0  0  0  0
  190.9390  178.0090  142.4620 O   0  0  0  0  0  0  0  0  0  0  0  0
  191.4960  177.3600  144.6360 C   0  0  1  0  0  3  0  0  0  0  0  0
  191.1010  176.1900  143.8940 N   0  0  0  0  0  2  0  0  0  0  0  0
  191.2020  178.5220  143.7370 C   0  0  0  0  0  0  0  0  0  0  0  0
  191.1180  179.7050  144.0170 O   0  0  0  0  0  0  0  0  0  0  0  0
  190.9380  176.6050  142.4840 C   0  0  0  0  0  2  0  0  0  0  0  0
  182.5800  178.7950  138.8050 C   0  0  0  0  0  2  0  0  0  0  0  0
  182.3470  180.1530  138.7480 N   0  0  0  0  0  2  0  0  0  0  0  0
  181.1070  180.3350  138.1750 C   0  0  0  0  0  0  0  0  0  0  0  0
  180.2110  179.3840  138.1460 O   0  0  0  0  0  0  0  0  0  0  0  0
  181.0920  181.4150  137.3480 C   0  0  0  0  0  2  0  0  0  0  0  0
  179.7340  182.2420  139.1560 O   0  0  0  0  0  0  0  0  0  0  0  0
  180.3350  182.4220  138.0700 C   0  0  0  0  0  0  0  0  0  0  0  0
  179.8970  184.7490  137.6410 C   0  0  0  0  0  2  0  0  0  0  0  0
  180.6420  183.7460  137.5740 N   0  0  0  0  0  0  0  0  0  0  0  0
  185.6100  178.9220  138.3360 O   0  0  0  0  0  0  0  0  0  0  0  0
  187.7250  177.8640  138.2520 C   0  0  0  0  0  0  0  0  0  0  0  0
  188.3140  178.2460  139.8950 Cl  0  0  0  0  0  0  0  0  0  0  0  0
  186.5930  177.7360  136.2980 C   0  0  0  0  0  3  0  0  0  0  0  0
  188.3990  176.9780  137.2830 C   0  0  0  0  0  0  0  0  0  0  0  0
  189.4740  176.4120  137.3320 O   0  0  0  0  0  0  0  0  0  0  0  0
  186.6350  178.2430  137.6620 C   0  0  0  0  0  0  0  0  0  0  0  0
  187.5690  177.0000  136.0840 N   0  0  0  0  0  0  0  0  0  0  0  0
  1 22  1  6  0  0  0
  1  2  1  0  0  0  0
  2  4  1  1  0  0  0
  3 31  1  6  0  0  0
  3  1  1  0  0  0  0
  3  2  1  0  0  0  0
  4  6  1  0  0  0  0
  6  5  1  1  0  0  0
  6  7  1  0  0  0  0
  7  8  1  0  0  0  0
  8  9  1  0  0  0  0
 10  9  1  0  0  0  0
 10 11  1  0  0  0  0
 11 12  1  0  0  0  0
 13 12  1  0  0  0  0
 15 13  1  0  0  0  0
 15 14  1  6  0  0  0
 16 21  1  0  0  0  0
 16 19  1  0  0  0  0
 17 15  1  1  0  0  0
 18 17  1  0  0  0  0
 19 20  2  0  0  0  0
 19 17  1  0  0  0  0
 21 18  1  0  0  0  0
 23 22  1  0  0  0  0
 24 23  1  0  0  0  0
 25 24  2  0  0  0  0
 26 28  1  0  0  0  0
 26 24  1  0  0  0  0
 28 27  2  0  0  0  0
 30 29  2  0  0  0  0
 30 28  1  0  0  0  0
 32 33  1  0  0  0  0
 34 37  1  0  0  0  0
 35 36  2  0  0  0  0
 35 32  1  0  0  0  0
 37 32  2  0  0  0  0
 37 31  1  0  0  0  0
 38 34  2  0  0  0  0
 38 35  1  0  0  0  0
M  END
>  <MODEL>
7

>  <REMARK>
 VINA RESULT:      -6.3      2.830      8.998
  Name = 
  18 active torsions:
  status: ('A' for Active; 'I' for Inactive)
    1  A    between atoms: N_2  and  C_26
    2  A    between atoms: C_5  and  C_15
    3  A    between atoms: C_7  and  C_13
    4  A    between atoms: C_7  and  C_37
    5  A    between atoms: C_8  and  O_21
    6  A    between atoms: C_8  and  C_37
    7  A    between atoms: C_10  and  C_26
    8  A    between atoms: C_13  and  N_38
    9  A    between atoms: C_15  and  N_38
   10  A    between atoms: C_17  and  O_21
   11  A    between atoms: C_17  and  C_29
   12  A    between atoms: C_19  and  C_33
   13  A    between atoms: C_22  and  C_25
   14  A    between atoms: N_24  and  C_31
   15  A    between atoms: C_25  and  C_29
   16  A    between atoms: O_27  and  C_30
   17  A    between atoms: O_27  and  C_34
   18  A    between atoms: C_31  and  C_33
                            x       y       z     vdW  Elec       q    Type
                         _______ _______ _______ _____ _____    ______ ____

>  <TORSDO>
F 18

$$$$
=
 OpenBabel11042410423D

 38 40  0  0  1  0  0  0  0  0999 V2000
  187.7550  177.0630  143.4670 C   0  0  2  0  0  3  0  0  0  0  0  0
  187.8770  178.0610  144.6890 C   0  0  2  0  0  3  0  0  0  0  0  0
  188.8440  176.8010  144.5100 C   0  0  2  0  0  3  0  0  0  0  0  0
  186.7580  177.8080  145.7690 C   0  0  0  0  0  2  0  0  0  0  0  0
  184.5940  178.2130  147.1350 O   0  0  0  0  0  1  0  0  0  0  0  0
  185.4510  178.6430  146.0640 C   0  0  2  0  0  3  0  0  0  0  0  0
  184.7960  179.2790  144.8190 C   0  0  0  0  0  2  0  0  0  0  0  0
  183.4090  179.3760  144.9360 O   0  0  0  0  0  0  0  0  0  0  0  0
  182.5430  179.0280  143.8120 C   0  0  0  0  0  2  0  0  0  0  0  0
  183.2200  178.7500  142.4290 C   0  0  0  0  0  2  0  0  0  0  0  0
  181.9240  178.6080  141.7560 C   0  0  0  0  0  2  0  0  0  0  0  0
  181.8840  179.2810  140.4750 C   0  0  0  0  0  2  0  0  0  0  0  0
  180.7840  178.5810  139.8970 N   0  0  0  0  0  2  0  0  0  0  0  0
  181.7370  179.8460  138.3130 C   0  0  0  0  0  1  0  0  0  0  0  0
  181.0240  178.5480  138.5170 C   0  0  1  0  0  3  0  0  0  0  0  0
  183.3270  175.5670  138.3490 O   0  0  0  0  0  0  0  0  0  0  0  0
  181.7270  177.2320  138.0030 C   0  0  1  0  0  3  0  0  0  0  0  0
  182.9040  177.5600  137.2390 N   0  0  0  0  0  2  0  0  0  0  0  0
  182.1090  176.0480  138.8380 C   0  0  0  0  0  0  0  0  0  0  0  0
  181.5480  175.5890  139.8170 O   0  0  0  0  0  0  0  0  0  0  0  0
  183.8170  176.4010  137.3310 C   0  0  0  0  0  2  0  0  0  0  0  0
  188.6430  177.3980  142.3790 C   0  0  0  0  0  2  0  0  0  0  0  0
  188.0170  177.6380  141.1750 N   0  0  0  0  0  2  0  0  0  0  0  0
  188.9790  177.5710  140.1900 C   0  0  0  0  0  0  0  0  0  0  0  0
  190.1160  176.9540  140.3730 O   0  0  0  0  0  0  0  0  0  0  0  0
  188.7730  178.5070  139.2240 C   0  0  0  0  0  2  0  0  0  0  0  0
  186.5740  178.4810  138.2430 O   0  0  0  0  0  0  0  0  0  0  0  0
  187.7060  177.9630  138.4040 C   0  0  0  0  0  0  0  0  0  0  0  0
  187.6100  175.9000  137.1690 C   0  0  0  0  0  2  0  0  0  0  0  0
  188.2140  176.9400  137.5160 N   0  0  0  0  0  0  0  0  0  0  0  0
  189.9580  177.5400  145.1490 O   0  0  0  0  0  0  0  0  0  0  0  0
  191.0550  176.8540  147.1310 C   0  0  0  0  0  0  0  0  0  0  0  0
  190.2440  177.9280  148.3060 Cl  0  0  0  0  0  0  0  0  0  0  0  0
  191.8320  175.8100  145.2820 C   0  0  0  0  0  3  0  0  0  0  0  0
  191.9960  175.7680  147.4670 C   0  0  0  0  0  0  0  0  0  0  0  0
  192.4770  175.4290  148.5320 O   0  0  0  0  0  0  0  0  0  0  0  0
  190.9340  176.8090  145.8410 C   0  0  0  0  0  0  0  0  0  0  0  0
  192.4150  175.1990  146.1920 N   0  0  0  0  0  0  0  0  0  0  0  0
  1 22  1  6  0  0  0
  1  3  1  0  0  0  0
  1  2  1  0  0  0  0
  2  4  1  1  0  0  0
  3  2  1  0  0  0  0
  3 31  1  6  0  0  0
  4  6  1  0  0  0  0
  6  5  1  6  0  0  0
  7  8  1  0  0  0  0
  7  6  1  0  0  0  0
  9  8  1  0  0  0  0
 10  9  1  0  0  0  0
 11 10  1  0  0  0  0
 12 11  1  0  0  0  0
 13 12  1  0  0  0  0
 15 14  1  1  0  0  0
 15 13  1  0  0  0  0
 16 19  1  0  0  0  0
 17 15  1  1  0  0  0
 17 19  1  0  0  0  0
 18 21  1  0  0  0  0
 18 17  1  0  0  0  0
 19 20  2  0  0  0  0
 21 16  1  0  0  0  0
 23 22  1  0  0  0  0
 24 25  2  0  0  0  0
 24 23  1  0  0  0  0
 26 24  1  0  0  0  0
 27 28  2  0  0  0  0
 28 26  1  0  0  0  0
 29 30  2  0  0  0  0
 30 28  1  0  0  0  0
 31 37  1  0  0  0  0
 32 35  1  0  0  0  0
 32 33  1  0  0  0  0
 34 37  1  0  0  0  0
 34 38  2  0  0  0  0
 35 36  2  0  0  0  0
 37 32  2  0  0  0  0
 38 35  1  0  0  0  0
M  END
>  <MODEL>
8

>  <REMARK>
 VINA RESULT:      -6.3      1.623      2.022
  Name = 
  18 active torsions:
  status: ('A' for Active; 'I' for Inactive)
    1  A    between atoms: N_2  and  C_26
    2  A    between atoms: C_5  and  C_15
    3  A    between atoms: C_7  and  C_13
    4  A    between atoms: C_7  and  C_37
    5  A    between atoms: C_8  and  O_21
    6  A    between atoms: C_8  and  C_37
    7  A    between atoms: C_10  and  C_26
    8  A    between atoms: C_13  and  N_38
    9  A    between atoms: C_15  and  N_38
   10  A    between atoms: C_17  and  O_21
   11  A    between atoms: C_17  and  C_29
   12  A    between atoms: C_19  and  C_33
   13  A    between atoms: C_22  and  C_25
   14  A    between atoms: N_24  and  C_31
   15  A    between atoms: C_25  and  C_29
   16  A    between atoms: O_27  and  C_30
   17  A    between atoms: O_27  and  C_34
   18  A    between atoms: C_31  and  C_33
                            x       y       z     vdW  Elec       q    Type
                         _______ _______ _______ _____ _____    ______ ____

>  <TORSDO>
F 18

$$$$
=
 OpenBabel11042410423D

 38 40  0  0  1  0  0  0  0  0999 V2000
  188.8050  176.5550  142.0940 C   0  0  2  0  0  3  0  0  0  0  0  0
  188.5360  178.0790  141.7610 C   0  0  2  0  0  3  0  0  0  0  0  0
  187.4720  177.1680  142.5320 C   0  0  2  0  0  3  0  0  0  0  0  0
  188.1560  178.2920  140.2470 C   0  0  0  0  0  2  0  0  0  0  0  0
  189.0310  179.3860  138.0680 O   0  0  0  0  0  1  0  0  0  0  0  0
  189.0890  178.2720  138.9740 C   0  0  2  0  0  3  0  0  0  0  0  0
  189.3480  176.8680  138.3850 C   0  0  0  0  0  2  0  0  0  0  0  0
  190.3800  176.8660  137.4450 O   0  0  0  0  0  0  0  0  0  0  0  0
  191.0330  175.6160  137.0630 C   0  0  0  0  0  2  0  0  0  0  0  0
  192.3270  175.7070  136.1890 C   0  0  0  0  0  2  0  0  0  0  0  0
  193.1000  176.2970  137.2870 C   0  0  0  0  0  2  0  0  0  0  0  0
  193.9350  175.3300  137.9650 C   0  0  0  0  0  2  0  0  0  0  0  0
  194.6440  174.8250  136.8340 N   0  0  0  0  0  2  0  0  0  0  0  0
  194.6940  172.5870  136.8950 C   0  0  0  0  0  1  0  0  0  0  0  0
  195.4650  173.7960  137.3150 C   0  0  1  0  0  3  0  0  0  0  0  0
  198.7990  175.2490  136.3170 O   0  0  0  0  0  0  0  0  0  0  0  0
  196.9760  173.8990  136.8700 C   0  0  1  0  0  3  0  0  0  0  0  0
  197.0690  173.9800  135.4340 N   0  0  0  0  0  2  0  0  0  0  0  0
  197.9880  174.8720  137.3930 C   0  0  0  0  0  0  0  0  0  0  0  0
  198.0920  175.3420  138.5110 O   0  0  0  0  0  0  0  0  0  0  0  0
  198.3330  174.6800  135.1210 C   0  0  0  0  0  2  0  0  0  0  0  0
  189.3400  176.3570  143.4200 C   0  0  0  0  0  2  0  0  0  0  0  0
  190.1140  177.3970  143.8910 N   0  0  0  0  0  2  0  0  0  0  0  0
  191.2750  176.8500  144.3950 C   0  0  0  0  0  0  0  0  0  0  0  0
  191.6870  175.6600  144.0490 O   0  0  0  0  0  0  0  0  0  0  0  0
  191.6840  177.4950  145.5210 C   0  0  0  0  0  2  0  0  0  0  0  0
  192.0490  175.6470  147.0210 O   0  0  0  0  0  0  0  0  0  0  0  0
  191.3400  176.5960  146.6070 C   0  0  0  0  0  0  0  0  0  0  0  0
  189.0530  176.7590  147.3410 C   0  0  0  0  0  2  0  0  0  0  0  0
  190.2470  177.1340  147.3890 N   0  0  0  0  0  0  0  0  0  0  0  0
  187.0000  178.3390  143.3060 O   0  0  0  0  0  0  0  0  0  0  0  0
  185.1810  178.6220  144.7930 C   0  0  0  0  0  0  0  0  0  0  0  0
  186.0570  178.5700  146.3490 Cl  0  0  0  0  0  0  0  0  0  0  0  0
  184.5440  178.5210  142.6260 C   0  0  0  0  0  3  0  0  0  0  0  0
  183.7490  178.9370  144.6250 C   0  0  0  0  0  0  0  0  0  0  0  0
  182.8720  179.1340  145.4450 O   0  0  0  0  0  0  0  0  0  0  0  0
  185.6310  178.4430  143.5910 C   0  0  0  0  0  0  0  0  0  0  0  0
  183.4850  178.8270  143.1950 N   0  0  0  0  0  0  0  0  0  0  0  0
  1  3  1  0  0  0  0
  1 22  1  1  0  0  0
  2  4  1  6  0  0  0
  2  1  1  0  0  0  0
  2  3  1  0  0  0  0
  3 31  1  1  0  0  0
  6  5  1  6  0  0  0
  6  4  1  0  0  0  0
  7  6  1  0  0  0  0
  8  7  1  0  0  0  0
  9  8  1  0  0  0  0
 10  9  1  0  0  0  0
 10 11  1  0  0  0  0
 11 12  1  0  0  0  0
 13 15  1  0  0  0  0
 13 12  1  0  0  0  0
 15 14  1  6  0  0  0
 16 19  1  0  0  0  0
 17 15  1  6  0  0  0
 17 19  1  0  0  0  0
 18 17  1  0  0  0  0
 19 20  2  0  0  0  0
 21 18  1  0  0  0  0
 21 16  1  0  0  0  0
 22 23  1  0  0  0  0
 23 24  1  0  0  0  0
 24 26  1  0  0  0  0
 25 24  2  0  0  0  0
 26 28  1  0  0  0  0
 28 27  2  0  0  0  0
 28 30  1  0  0  0  0
 29 30  2  0  0  0  0
 31 37  1  0  0  0  0
 32 33  1  0  0  0  0
 34 38  2  0  0  0  0
 34 37  1  0  0  0  0
 35 32  1  0  0  0  0
 35 36  2  0  0  0  0
 37 32  2  0  0  0  0
 38 35  1  0  0  0  0
M  END
>  <MODEL>
9

>  <REMARK>
 VINA RESULT:      -6.2      4.104      9.778
  Name = 
  18 active torsions:
  status: ('A' for Active; 'I' for Inactive)
    1  A    between atoms: N_2  and  C_26
    2  A    between atoms: C_5  and  C_15
    3  A    between atoms: C_7  and  C_13
    4  A    between atoms: C_7  and  C_37
    5  A    between atoms: C_8  and  O_21
    6  A    between atoms: C_8  and  C_37
    7  A    between atoms: C_10  and  C_26
    8  A    between atoms: C_13  and  N_38
    9  A    between atoms: C_15  and  N_38
   10  A    between atoms: C_17  and  O_21
   11  A    between atoms: C_17  and  C_29
   12  A    between atoms: C_19  and  C_33
   13  A    between atoms: C_22  and  C_25
   14  A    between atoms: N_24  and  C_31
   15  A    between atoms: C_25  and  C_29
   16  A    between atoms: O_27  and  C_30
   17  A    between atoms: O_27  and  C_34
   18  A    between atoms: C_31  and  C_33
                            x       y       z     vdW  Elec       q    Type
                         _______ _______ _______ _____ _____    ______ ____

>  <TORSDO>
F 18

$$$$
