=
 OpenBabel11042412343D

 41 44  0  0  1  0  0  0  0  0999 V2000
  190.1990  177.2000  139.2440 F   0  0  0  0  0  0  0  0  0  0  0  0
  188.2930  178.1410  140.9960 C   0  0  0  0  0  3  0  0  0  0  0  0
  186.4090  178.1900  137.7470 C   0  0  0  0  0  3  0  0  0  0  0  0
  189.1330  177.8720  138.6570 C   0  0  0  0  0  0  0  0  0  0  0  0
  184.9100  178.4880  142.2830 C   0  0  0  0  0  0  0  0  0  0  0  0
  189.5890  179.0470  138.0750 F   0  0  0  0  0  0  0  0  0  0  0  0
  188.0610  178.1890  139.6760 C   0  0  0  0  0  0  0  0  0  0  0  0
  186.8420  177.6980  142.9690 C   0  0  2  0  0  3  0  0  0  0  0  0
  187.2810  177.5680  137.0120 N   0  0  0  0  0  0  0  0  0  0  0  0
  185.4330  177.7470  143.2040 N   0  0  0  0  0  0  0  0  0  0  0  0
  185.6960  178.7360  139.9640 N   0  0  0  0  0  0  0  0  0  0  0  0
  188.4980  176.9720  137.5740 C   0  0  1  0  0  3  0  0  0  0  0  0
  185.9280  179.0820  141.3730 C   0  0  2  0  0  3  0  0  0  0  0  0
  187.1550  178.4040  141.8910 C   0  0  2  0  0  3  0  0  0  0  0  0
  186.6760  178.4150  139.1700 C   0  0  0  0  0  0  0  0  0  0  0  0
  187.7510  176.7250  143.6530 C   0  0  0  0  0  2  0  0  0  0  0  0
  188.1450  177.2480  145.0310 C   0  0  0  0  0  2  0  0  0  0  0  0
  189.4910  177.9720  144.9800 C   0  0  0  0  0  2  0  0  0  0  0  0
  190.6260  177.0930  145.4110 C   0  0  0  0  0  0  0  0  0  0  0  0
  191.4760  176.6620  144.5270 N   0  0  0  0  0  2  0  0  0  0  0  0
  191.9110  175.8710  147.2860 C   0  0  0  0  0  1  0  0  0  0  0  0
  190.8360  176.8040  146.8400 C   0  0  0  0  0  0  0  0  0  0  0  0
  190.0940  177.3330  147.7070 O   0  0  0  0  0  0  0  0  0  0  0  0
  189.4510  176.5590  136.4470 C   0  0  0  0  0  2  0  0  0  0  0  0
  189.6100  175.1650  136.4230 O   0  0  0  0  0  0  0  0  0  0  0  0
  191.1390  174.4900  138.0040 O   0  0  0  0  0  1  0  0  0  0  0  0
  190.9710  174.9450  136.6880 C   0  0  0  0  0  2  0  0  0  0  0  0
  183.4480  178.7820  142.2210 C   0  0  0  0  0  2  0  0  0  0  0  0
  182.0150  179.4490  140.1110 C   0  0  1  0  0  3  0  0  0  0  0  0
  180.6750  178.8020  139.6820 C   0  0  0  0  0  2  0  0  0  0  0  0
  180.8160  177.3610  139.1320 C   0  0  0  0  0  2  0  0  0  0  0  0
  182.8600  178.4510  140.8780 C   0  0  0  0  0  0  0  0  0  0  0  0
  182.9560  177.1980  140.4210 C   0  0  0  0  0  3  0  0  0  0  0  0
  182.2660  176.8260  139.1250 C   0  0  1  0  0  3  0  0  0  0  0  0
  181.0620  174.7460  138.8060 O   0  0  0  0  0  1  0  0  0  0  0  0
  182.3490  175.3100  138.8710 C   0  0  1  0  0  3  0  0  0  0  0  0
  183.5120  176.2170  136.7970 C   0  0  0  0  0  1  0  0  0  0  0  0
  183.0970  174.9790  137.5720 C   0  0  1  0  0  3  0  0  0  0  0  0
  184.2370  174.2260  137.8730 O   0  0  0  0  0  1  0  0  0  0  0  0
  182.7180  179.8720  138.9790 O   0  0  0  0  0  0  0  0  0  0  0  0
  181.9350  180.8830  138.4200 C   0  0  0  0  0  1  0  0  0  0  0  0
  3 15  1  0  0  0  0
  4  1  1  0  0  0  0
  4  7  1  0  0  0  0
  5 10  2  0  0  0  0
  6  4  1  0  0  0  0
  7  2  2  0  0  0  0
  8 10  1  0  0  0  0
  8 16  1  6  0  0  0
  9 12  1  0  0  0  0
  9  3  2  0  0  0  0
 12 24  1  6  0  0  0
 12  4  1  0  0  0  0
 13 11  1  6  0  0  0
 13 14  1  0  0  0  0
 13  5  1  0  0  0  0
 14  2  1  6  0  0  0
 14  8  1  0  0  0  0
 15  7  1  0  0  0  0
 15 11  2  0  0  0  0
 16 17  1  0  0  0  0
 18 17  1  0  0  0  0
 18 19  1  0  0  0  0
 19 22  1  0  0  0  0
 20 19  2  0  0  0  0
 22 21  1  0  0  0  0
 22 23  2  0  0  0  0
 25 24  1  0  0  0  0
 25 27  1  0  0  0  0
 27 26  1  0  0  0  0
 28  5  1  0  0  0  0
 29 40  1  6  0  0  0
 29 32  1  0  0  0  0
 30 29  1  0  0  0  0
 31 30  1  0  0  0  0
 32 28  1  0  0  0  0
 33 32  2  0  0  0  0
 34 36  1  1  0  0  0
 34 31  1  0  0  0  0
 34 33  1  0  0  0  0
 36 35  1  6  0  0  0
 38 37  1  1  0  0  0
 38 39  1  0  0  0  0
 38 36  1  0  0  0  0
 41 40  1  0  0  0  0
M  END
>  <MODEL>
1

>  <REMARK>
 VINA RESULT:      -7.7      0.000      0.000
  Name = 
  13 active torsions:
  status: ('A' for Active; 'I' for Inactive)
    1  A    between atoms: C_1  and  C_5
    2  A    between atoms: C_1  and  C_25
    3  A    between atoms: C_4  and  O_10
    4  A    between atoms: C_5  and  C_40
    5  A    between atoms: C_8  and  O_28
    6  A    between atoms: C_8  and  C_31
    7  A    between atoms: C_13  and  O_28
    8  A    between atoms: C_14  and  C_19
    9  A    between atoms: C_14  and  C_33
   10  A    between atoms: C_18  and  C_23
   11  A    between atoms: C_21  and  C_36
   12  A    between atoms: C_23  and  C_40
   13  A    between atoms: C_36  and  C_39
                            x       y       z     vdW  Elec       q    Type
                         _______ _______ _______ _____ _____    ______ ____

>  <TORSDO>
F 13

$$$$
=
 OpenBabel11042412343D

 41 44  0  0  1  0  0  0  0  0999 V2000
  183.7780  178.1780  144.1640 F   0  0  0  0  0  0  0  0  0  0  0  0
  183.5740  178.4340  141.4290 C   0  0  0  0  0  3  0  0  0  0  0  0
  187.2940  178.5900  141.9170 C   0  0  0  0  0  3  0  0  0  0  0  0
  184.9010  178.7000  143.5300 C   0  0  0  0  0  0  0  0  0  0  0  0
  184.6410  177.8850  137.9960 C   0  0  0  0  0  0  0  0  0  0  0  0
  185.0860  180.0170  143.9260 F   0  0  0  0  0  0  0  0  0  0  0  0
  184.7580  178.6330  142.0260 C   0  0  0  0  0  0  0  0  0  0  0  0
  182.9070  177.4100  139.2600 C   0  0  2  0  0  3  0  0  0  0  0  0
  187.3340  178.2770  143.1770 N   0  0  0  0  0  0  0  0  0  0  0  0
  183.5880  177.1350  138.0340 N   0  0  0  0  0  0  0  0  0  0  0  0
  185.9880  178.6360  139.9130 N   0  0  0  0  0  0  0  0  0  0  0  0
  186.1400  177.8640  143.9210 C   0  0  1  0  0  3  0  0  0  0  0  0
  184.7360  178.8050  139.1630 C   0  0  2  0  0  3  0  0  0  0  0  0
  183.5690  178.3200  139.9610 C   0  0  2  0  0  3  0  0  0  0  0  0
  186.0100  178.6460  141.2150 C   0  0  0  0  0  0  0  0  0  0  0  0
  181.8030  176.5500  139.7920 C   0  0  0  0  0  2  0  0  0  0  0  0
  180.4540  177.2290  139.5770 C   0  0  0  0  0  2  0  0  0  0  0  0
  179.8370  177.6620  140.9070 C   0  0  0  0  0  2  0  0  0  0  0  0
  180.0830  179.1110  141.2020 C   0  0  0  0  0  0  0  0  0  0  0  0
  180.0940  179.9720  140.2290 N   0  0  0  0  0  2  0  0  0  0  0  0
  180.4690  178.6030  143.7030 C   0  0  0  0  0  1  0  0  0  0  0  0
  180.2090  179.5700  142.5960 C   0  0  0  0  0  0  0  0  0  0  0  0
  180.0850  180.7900  142.8730 O   0  0  0  0  0  0  0  0  0  0  0  0
  186.4400  177.8300  145.4230 C   0  0  0  0  0  2  0  0  0  0  0  0
  187.6340  177.1350  145.6700 O   0  0  0  0  0  0  0  0  0  0  0  0
  187.2850  178.0110  147.7690 O   0  0  0  0  0  1  0  0  0  0  0  0
  188.2290  177.8010  146.7550 C   0  0  0  0  0  2  0  0  0  0  0  0
  185.5900  177.8800  136.8440 C   0  0  0  0  0  2  0  0  0  0  0  0
  188.1470  177.3380  137.1870 C   0  0  1  0  0  3  0  0  0  0  0  0
  189.0550  176.5750  136.1910 C   0  0  0  0  0  2  0  0  0  0  0  0
  188.7470  175.0610  136.0870 C   0  0  0  0  0  2  0  0  0  0  0  0
  186.7070  176.8920  137.0350 C   0  0  0  0  0  0  0  0  0  0  0  0
  186.4430  175.5860  136.9120 C   0  0  0  0  0  3  0  0  0  0  0  0
  187.5810  174.5900  136.9860 C   0  0  1  0  0  3  0  0  0  0  0  0
  187.8010  172.2090  137.3930 O   0  0  0  0  0  1  0  0  0  0  0  0
  187.0930  173.1690  136.6460 C   0  0  1  0  0  3  0  0  0  0  0  0
  184.9880  171.8340  136.1380 C   0  0  0  0  0  1  0  0  0  0  0  0
  185.5920  172.9910  136.9130 C   0  0  1  0  0  3  0  0  0  0  0  0
  185.3870  172.7790  138.2800 O   0  0  0  0  0  1  0  0  0  0  0  0
  188.5690  177.0890  138.4970 O   0  0  0  0  0  0  0  0  0  0  0  0
  189.4170  178.1510  138.8140 C   0  0  0  0  0  1  0  0  0  0  0  0
  2  7  2  0  0  0  0
  3  9  2  0  0  0  0
  4 12  1  0  0  0  0
  4  6  1  0  0  0  0
  4  1  1  0  0  0  0
  5 10  2  0  0  0  0
  7  4  1  0  0  0  0
  8 16  1  1  0  0  0
  8 14  1  0  0  0  0
  9 12  1  0  0  0  0
 10  8  1  0  0  0  0
 11 15  2  0  0  0  0
 12 24  1  1  0  0  0
 13  5  1  6  0  0  0
 13 11  1  0  0  0  0
 13 14  1  0  0  0  0
 14  2  1  1  0  0  0
 15  3  1  0  0  0  0
 15  7  1  0  0  0  0
 17 16  1  0  0  0  0
 17 18  1  0  0  0  0
 18 19  1  0  0  0  0
 19 22  1  0  0  0  0
 20 19  2  0  0  0  0
 22 23  2  0  0  0  0
 22 21  1  0  0  0  0
 24 25  1  0  0  0  0
 25 27  1  0  0  0  0
 27 26  1  0  0  0  0
 28 32  1  0  0  0  0
 28  5  1  0  0  0  0
 29 40  1  1  0  0  0
 30 29  1  0  0  0  0
 31 30  1  0  0  0  0
 31 34  1  0  0  0  0
 32 29  1  0  0  0  0
 33 34  1  0  0  0  0
 33 32  2  0  0  0  0
 34 36  1  6  0  0  0
 36 38  1  0  0  0  0
 36 35  1  1  0  0  0
 38 37  1  6  0  0  0
 38 39  1  0  0  0  0
 40 41  1  0  0  0  0
M  END
>  <MODEL>
2

>  <REMARK>
 VINA RESULT:      -7.4      2.917      7.616
  Name = 
  13 active torsions:
  status: ('A' for Active; 'I' for Inactive)
    1  A    between atoms: C_1  and  C_5
    2  A    between atoms: C_1  and  C_25
    3  A    between atoms: C_4  and  O_10
    4  A    between atoms: C_5  and  C_40
    5  A    between atoms: C_8  and  O_28
    6  A    between atoms: C_8  and  C_31
    7  A    between atoms: C_13  and  O_28
    8  A    between atoms: C_14  and  C_19
    9  A    between atoms: C_14  and  C_33
   10  A    between atoms: C_18  and  C_23
   11  A    between atoms: C_21  and  C_36
   12  A    between atoms: C_23  and  C_40
   13  A    between atoms: C_36  and  C_39
                            x       y       z     vdW  Elec       q    Type
                         _______ _______ _______ _____ _____    ______ ____

>  <TORSDO>
F 13

$$$$
=
 OpenBabel11042412343D

 41 44  0  0  1  0  0  0  0  0999 V2000
  188.2920  177.5490  145.7720 F   0  0  0  0  0  0  0  0  0  0  0  0
  187.1250  177.5440  143.2780 C   0  0  0  0  0  3  0  0  0  0  0  0
  184.3410  178.9040  145.4010 C   0  0  0  0  0  3  0  0  0  0  0  0
  186.9040  177.6200  145.7660 C   0  0  0  0  0  0  0  0  0  0  0  0
  184.9830  178.8750  140.6570 C   0  0  0  0  0  0  0  0  0  0  0  0
  186.3770  176.4660  146.3290 F   0  0  0  0  0  0  0  0  0  0  0  0
  186.3730  177.7920  144.3600 C   0  0  0  0  0  0  0  0  0  0  0  0
  187.1160  178.4330  140.9530 C   0  0  2  0  0  3  0  0  0  0  0  0
  185.0050  179.0600  146.5070 N   0  0  0  0  0  0  0  0  0  0  0  0
  186.1470  179.1060  140.1450 N   0  0  0  0  0  0  0  0  0  0  0  0
  184.4590  178.5440  143.0380 N   0  0  0  0  0  0  0  0  0  0  0  0
  186.4530  178.8480  146.5890 C   0  0  1  0  0  3  0  0  0  0  0  0
  185.0400  177.9530  141.8260 C   0  0  2  0  0  3  0  0  0  0  0  0
  186.5210  177.8110  141.9610 C   0  0  2  0  0  3  0  0  0  0  0  0
  185.0180  178.3970  144.2050 C   0  0  0  0  0  0  0  0  0  0  0  0
  188.5870  178.6860  140.8450 C   0  0  0  0  0  2  0  0  0  0  0  0
  189.3250  177.3870  140.5320 C   0  0  0  0  0  2  0  0  0  0  0  0
  190.6870  177.3470  141.2260 C   0  0  0  0  0  2  0  0  0  0  0  0
  190.6110  176.7410  142.5940 C   0  0  0  0  0  0  0  0  0  0  0  0
  190.2240  175.5070  142.7280 N   0  0  0  0  0  2  0  0  0  0  0  0
  190.8670  178.9810  143.8500 C   0  0  0  0  0  1  0  0  0  0  0  0
  191.0680  177.5050  143.7680 C   0  0  0  0  0  0  0  0  0  0  0  0
  191.6520  176.9180  144.7150 O   0  0  0  0  0  0  0  0  0  0  0  0
  186.9020  178.8330  148.0550 C   0  0  0  0  0  2  0  0  0  0  0  0
  187.7620  177.7520  148.2950 O   0  0  0  0  0  0  0  0  0  0  0  0
  190.0510  177.6330  148.0860 O   0  0  0  0  0  1  0  0  0  0  0  0
  188.9860  178.3310  148.6710 C   0  0  0  0  0  2  0  0  0  0  0  0
  183.7220  179.4070  140.0610 C   0  0  0  0  0  2  0  0  0  0  0  0
  181.7610  177.6860  139.6840 C   0  0  1  0  0  3  0  0  0  0  0  0
  181.9140  176.1500  139.5500 C   0  0  0  0  0  2  0  0  0  0  0  0
  182.5710  175.6950  138.2230 C   0  0  0  0  0  2  0  0  0  0  0  0
  183.0210  178.3840  139.2120 C   0  0  0  0  0  0  0  0  0  0  0  0
  183.6070  177.9690  138.0840 C   0  0  0  0  0  3  0  0  0  0  0  0
  182.9670  176.8550  137.2820 C   0  0  1  0  0  3  0  0  0  0  0  0
  183.6160  177.1570  134.9650 O   0  0  0  0  0  1  0  0  0  0  0  0
  183.8830  176.4100  136.1270 C   0  0  1  0  0  3  0  0  0  0  0  0
  186.0710  175.2220  136.6520 C   0  0  0  0  0  1  0  0  0  0  0  0
  185.3700  176.5570  136.4750 C   0  0  1  0  0  3  0  0  0  0  0  0
  186.0140  177.2780  135.4640 O   0  0  0  0  0  1  0  0  0  0  0  0
  180.6780  178.1220  138.9140 O   0  0  0  0  0  0  0  0  0  0  0  0
  179.5440  177.7160  139.6190 C   0  0  0  0  0  1  0  0  0  0  0  0
  2  7  2  0  0  0  0
  3  9  2  0  0  0  0
  4  1  1  0  0  0  0
  4  6  1  0  0  0  0
  4 12  1  0  0  0  0
  7  4  1  0  0  0  0
  8 16  1  1  0  0  0
  8 14  1  0  0  0  0
  9 12  1  0  0  0  0
 10  5  2  0  0  0  0
 10  8  1  0  0  0  0
 11 15  2  0  0  0  0
 12 24  1  1  0  0  0
 13  5  1  6  0  0  0
 13 14  1  0  0  0  0
 13 11  1  0  0  0  0
 14  2  1  1  0  0  0
 15  7  1  0  0  0  0
 15  3  1  0  0  0  0
 17 16  1  0  0  0  0
 17 18  1  0  0  0  0
 18 19  1  0  0  0  0
 19 20  2  0  0  0  0
 19 22  1  0  0  0  0
 22 21  1  0  0  0  0
 22 23  2  0  0  0  0
 24 25  1  0  0  0  0
 25 27  1  0  0  0  0
 26 27  1  0  0  0  0
 28  5  1  0  0  0  0
 29 40  1  6  0  0  0
 30 29  1  0  0  0  0
 31 30  1  0  0  0  0
 32 29  1  0  0  0  0
 32 28  1  0  0  0  0
 33 32  2  0  0  0  0
 34 36  1  6  0  0  0
 34 33  1  0  0  0  0
 34 31  1  0  0  0  0
 36 35  1  6  0  0  0
 36 38  1  0  0  0  0
 38 37  1  6  0  0  0
 39 38  1  0  0  0  0
 40 41  1  0  0  0  0
M  END
>  <MODEL>
3

>  <REMARK>
 VINA RESULT:      -7.4      2.929      5.721
  Name = 
  13 active torsions:
  status: ('A' for Active; 'I' for Inactive)
    1  A    between atoms: C_1  and  C_5
    2  A    between atoms: C_1  and  C_25
    3  A    between atoms: C_4  and  O_10
    4  A    between atoms: C_5  and  C_40
    5  A    between atoms: C_8  and  O_28
    6  A    between atoms: C_8  and  C_31
    7  A    between atoms: C_13  and  O_28
    8  A    between atoms: C_14  and  C_19
    9  A    between atoms: C_14  and  C_33
   10  A    between atoms: C_18  and  C_23
   11  A    between atoms: C_21  and  C_36
   12  A    between atoms: C_23  and  C_40
   13  A    between atoms: C_36  and  C_39
                            x       y       z     vdW  Elec       q    Type
                         _______ _______ _______ _____ _____    ______ ____

>  <TORSDO>
F 13

$$$$
=
 OpenBabel11042412343D

 41 44  0  0  1  0  0  0  0  0999 V2000
  191.0390  176.3440  141.0280 F   0  0  0  0  0  0  0  0  0  0  0  0
  188.7650  177.7680  141.6510 C   0  0  0  0  0  3  0  0  0  0  0  0
  188.6060  177.7150  137.8990 C   0  0  0  0  0  3  0  0  0  0  0  0
  190.5040  177.0960  139.9870 C   0  0  0  0  0  0  0  0  0  0  0  0
  185.3020  178.7800  141.1960 C   0  0  0  0  0  0  0  0  0  0  0  0
  191.3890  178.1090  139.6440 F   0  0  0  0  0  0  0  0  0  0  0  0
  189.1700  177.6920  140.3760 C   0  0  0  0  0  0  0  0  0  0  0  0
  186.5230  177.7920  142.7320 C   0  0  2  0  0  3  0  0  0  0  0  0
  189.5790  176.8830  137.6790 N   0  0  0  0  0  0  0  0  0  0  0  0
  185.1990  178.0840  142.2800 N   0  0  0  0  0  0  0  0  0  0  0  0
  187.0840  178.6250  139.5060 N   0  0  0  0  0  0  0  0  0  0  0  0
  190.2700  176.1800  138.7650 C   0  0  1  0  0  3  0  0  0  0  0  0
  186.7150  179.0980  140.8460 C   0  0  2  0  0  3  0  0  0  0  0  0
  187.4180  178.3080  141.9010 C   0  0  2  0  0  3  0  0  0  0  0  0
  188.2360  178.0650  139.2730 C   0  0  0  0  0  0  0  0  0  0  0  0
  186.8190  176.7800  143.7950 C   0  0  0  0  0  2  0  0  0  0  0  0
  187.1890  177.4780  145.1010 C   0  0  0  0  0  2  0  0  0  0  0  0
  188.7000  177.6900  145.2010 C   0  0  0  0  0  2  0  0  0  0  0  0
  189.2600  177.1910  146.4980 C   0  0  0  0  0  0  0  0  0  0  0  0
  188.4580  176.9460  147.4910 N   0  0  0  0  0  2  0  0  0  0  0  0
  191.5460  176.7100  145.4010 C   0  0  0  0  0  1  0  0  0  0  0  0
  190.6960  176.8840  146.6150 C   0  0  0  0  0  0  0  0  0  0  0  0
  191.2230  176.7500  147.7490 O   0  0  0  0  0  0  0  0  0  0  0  0
  191.5320  175.4940  138.2290 C   0  0  0  0  0  2  0  0  0  0  0  0
  191.9210  176.0660  137.0090 O   0  0  0  0  0  0  0  0  0  0  0  0
  193.6590  176.1930  138.5120 O   0  0  0  0  0  1  0  0  0  0  0  0
  193.2590  176.4530  137.1940 C   0  0  0  0  0  2  0  0  0  0  0  0
  184.1130  179.2840  140.4480 C   0  0  0  0  0  2  0  0  0  0  0  0
  182.2290  177.4970  139.9910 C   0  0  1  0  0  3  0  0  0  0  0  0
  182.4340  175.9640  139.9050 C   0  0  0  0  0  2  0  0  0  0  0  0
  183.1860  175.4980  138.6340 C   0  0  0  0  0  2  0  0  0  0  0  0
  183.4960  178.2210  139.5820 C   0  0  0  0  0  0  0  0  0  0  0  0
  184.1650  177.7980  138.5040 C   0  0  0  0  0  3  0  0  0  0  0  0
  183.6080  176.6470  137.6910 C   0  0  1  0  0  3  0  0  0  0  0  0
  185.6270  177.1600  136.4480 O   0  0  0  0  0  1  0  0  0  0  0  0
  184.6080  176.2030  136.6070 C   0  0  1  0  0  3  0  0  0  0  0  0
  185.1130  173.8410  135.8050 C   0  0  0  0  0  1  0  0  0  0  0  0
  185.2530  174.8480  136.9330 C   0  0  1  0  0  3  0  0  0  0  0  0
  186.6110  175.0360  137.2100 O   0  0  0  0  0  1  0  0  0  0  0  0
  181.1860  177.8830  139.1430 O   0  0  0  0  0  0  0  0  0  0  0  0
  180.5620  178.9480  139.7950 C   0  0  0  0  0  1  0  0  0  0  0  0
  3 15  1  0  0  0  0
  4  7  1  0  0  0  0
  4  1  1  0  0  0  0
  5 10  2  0  0  0  0
  6  4  1  0  0  0  0
  7  2  2  0  0  0  0
  8 16  1  6  0  0  0
  9  3  2  0  0  0  0
  9 12  1  0  0  0  0
 10  8  1  0  0  0  0
 12 24  1  6  0  0  0
 12  4  1  0  0  0  0
 13 11  1  6  0  0  0
 13  5  1  0  0  0  0
 13 14  1  0  0  0  0
 14  2  1  6  0  0  0
 14  8  1  0  0  0  0
 15 11  2  0  0  0  0
 15  7  1  0  0  0  0
 16 17  1  0  0  0  0
 17 18  1  0  0  0  0
 18 19  1  0  0  0  0
 19 22  1  0  0  0  0
 19 20  2  0  0  0  0
 21 22  1  0  0  0  0
 22 23  2  0  0  0  0
 25 27  1  0  0  0  0
 25 24  1  0  0  0  0
 27 26  1  0  0  0  0
 28  5  1  0  0  0  0
 29 40  1  6  0  0  0
 30 29  1  0  0  0  0
 31 30  1  0  0  0  0
 32 29  1  0  0  0  0
 32 28  1  0  0  0  0
 33 32  2  0  0  0  0
 34 36  1  6  0  0  0
 34 33  1  0  0  0  0
 34 31  1  0  0  0  0
 36 35  1  1  0  0  0
 36 38  1  0  0  0  0
 38 37  1  6  0  0  0
 38 39  1  0  0  0  0
 40 41  1  0  0  0  0
M  END
>  <MODEL>
4

>  <REMARK>
 VINA RESULT:      -7.3      1.803      2.332
  Name = 
  13 active torsions:
  status: ('A' for Active; 'I' for Inactive)
    1  A    between atoms: C_1  and  C_5
    2  A    between atoms: C_1  and  C_25
    3  A    between atoms: C_4  and  O_10
    4  A    between atoms: C_5  and  C_40
    5  A    between atoms: C_8  and  O_28
    6  A    between atoms: C_8  and  C_31
    7  A    between atoms: C_13  and  O_28
    8  A    between atoms: C_14  and  C_19
    9  A    between atoms: C_14  and  C_33
   10  A    between atoms: C_18  and  C_23
   11  A    between atoms: C_21  and  C_36
   12  A    between atoms: C_23  and  C_40
   13  A    between atoms: C_36  and  C_39
                            x       y       z     vdW  Elec       q    Type
                         _______ _______ _______ _____ _____    ______ ____

>  <TORSDO>
F 13

$$$$
=
 OpenBabel11042412343D

 41 44  0  0  1  0  0  0  0  0999 V2000
  186.9310  178.3030  144.7870 F   0  0  0  0  0  0  0  0  0  0  0  0
  188.7100  177.2940  142.9430 C   0  0  0  0  0  3  0  0  0  0  0  0
  186.0860  178.7840  140.7080 C   0  0  0  0  0  3  0  0  0  0  0  0
  186.4250  178.1350  143.5030 C   0  0  0  0  0  0  0  0  0  0  0  0
  190.5550  177.3250  139.8090 C   0  0  0  0  0  0  0  0  0  0  0  0
  185.4420  177.1550  143.5150 F   0  0  0  0  0  0  0  0  0  0  0  0
  187.5190  177.7500  142.5320 C   0  0  0  0  0  0  0  0  0  0  0  0
  190.9970  177.3660  141.9620 C   0  0  2  0  0  3  0  0  0  0  0  0
  185.3890  179.3990  141.6170 N   0  0  0  0  0  0  0  0  0  0  0  0
  191.5120  177.5680  140.6440 N   0  0  0  0  0  0  0  0  0  0  0  0
  188.1500  177.7020  140.1710 N   0  0  0  0  0  0  0  0  0  0  0  0
  185.8160  179.4700  143.0180 C   0  0  1  0  0  3  0  0  0  0  0  0
  189.3100  176.8560  140.4790 C   0  0  2  0  0  3  0  0  0  0  0  0
  189.7190  177.0140  141.9080 C   0  0  2  0  0  3  0  0  0  0  0  0
  187.2870  178.0370  141.0860 C   0  0  0  0  0  0  0  0  0  0  0  0
  191.7150  177.8120  143.1970 C   0  0  0  0  0  2  0  0  0  0  0  0
  191.4000  176.8750  144.3590 C   0  0  0  0  0  2  0  0  0  0  0  0
  191.4150  177.6260  145.6910 C   0  0  0  0  0  2  0  0  0  0  0  0
  190.7800  176.8370  146.7950 C   0  0  0  0  0  0  0  0  0  0  0  0
  191.4610  175.9050  147.3930 N   0  0  0  0  0  2  0  0  0  0  0  0
  189.2290  178.1740  148.3670 C   0  0  0  0  0  1  0  0  0  0  0  0
  189.4290  177.1830  147.2690 C   0  0  0  0  0  0  0  0  0  0  0  0
  188.4200  176.6320  146.7590 O   0  0  0  0  0  0  0  0  0  0  0  0
  184.6760  180.0070  143.8900 C   0  0  0  0  0  2  0  0  0  0  0  0
  183.4460  179.4800  143.4690 O   0  0  0  0  0  0  0  0  0  0  0  0
  183.7260  179.0910  145.7200 O   0  0  0  0  0  1  0  0  0  0  0  0
  182.8910  178.8830  144.6140 C   0  0  0  0  0  2  0  0  0  0  0  0
  190.7350  177.4170  138.3300 C   0  0  0  0  0  2  0  0  0  0  0  0
  192.1600  175.5520  137.1300 C   0  0  1  0  0  3  0  0  0  0  0  0
  191.9720  175.0620  135.6730 C   0  0  0  0  0  2  0  0  0  0  0  0
  190.6870  174.2270  135.4480 C   0  0  0  0  0  2  0  0  0  0  0  0
  190.8470  176.0630  137.6880 C   0  0  0  0  0  0  0  0  0  0  0  0
  189.7320  175.3580  137.4660 C   0  0  0  0  0  3  0  0  0  0  0  0
  189.8210  174.0460  136.7150 C   0  0  1  0  0  3  0  0  0  0  0  0
  188.1400  172.3750  137.2290 O   0  0  0  0  0  1  0  0  0  0  0  0
  188.4180  173.4870  136.4130 C   0  0  1  0  0  3  0  0  0  0  0  0
  186.7050  175.0150  135.3150 C   0  0  0  0  0  1  0  0  0  0  0  0
  187.3180  174.5360  136.6200 C   0  0  1  0  0  3  0  0  0  0  0  0
  186.3090  173.9980  137.4260 O   0  0  0  0  0  1  0  0  0  0  0  0
  192.6200  174.4980  137.9260 O   0  0  0  0  0  0  0  0  0  0  0  0
  193.9610  174.3350  137.5760 C   0  0  0  0  0  1  0  0  0  0  0  0
  3 15  1  0  0  0  0
  3  9  2  0  0  0  0
  4  6  1  0  0  0  0
  4  1  1  0  0  0  0
  5 10  2  0  0  0  0
  7  2  2  0  0  0  0
  7  4  1  0  0  0  0
  8 16  1  1  0  0  0
  9 12  1  0  0  0  0
 10  8  1  0  0  0  0
 11 13  1  0  0  0  0
 11 15  2  0  0  0  0
 12  4  1  0  0  0  0
 12 24  1  1  0  0  0
 13  5  1  6  0  0  0
 13 14  1  0  0  0  0
 14  8  1  0  0  0  0
 14  2  1  6  0  0  0
 15  7  1  0  0  0  0
 16 17  1  0  0  0  0
 17 18  1  0  0  0  0
 18 19  1  0  0  0  0
 19 22  1  0  0  0  0
 19 20  2  0  0  0  0
 22 21  1  0  0  0  0
 23 22  2  0  0  0  0
 25 24  1  0  0  0  0
 25 27  1  0  0  0  0
 27 26  1  0  0  0  0
 28  5  1  0  0  0  0
 29 32  1  0  0  0  0
 29 40  1  1  0  0  0
 30 29  1  0  0  0  0
 31 30  1  0  0  0  0
 31 34  1  0  0  0  0
 32 28  1  0  0  0  0
 33 32  2  0  0  0  0
 34 36  1  6  0  0  0
 34 33  1  0  0  0  0
 36 38  1  0  0  0  0
 36 35  1  1  0  0  0
 38 37  1  6  0  0  0
 38 39  1  0  0  0  0
 41 40  1  0  0  0  0
M  END
>  <MODEL>
5

>  <REMARK>
 VINA RESULT:      -7.2      3.329      7.049
  Name = 
  13 active torsions:
  status: ('A' for Active; 'I' for Inactive)
    1  A    between atoms: C_1  and  C_5
    2  A    between atoms: C_1  and  C_25
    3  A    between atoms: C_4  and  O_10
    4  A    between atoms: C_5  and  C_40
    5  A    between atoms: C_8  and  O_28
    6  A    between atoms: C_8  and  C_31
    7  A    between atoms: C_13  and  O_28
    8  A    between atoms: C_14  and  C_19
    9  A    between atoms: C_14  and  C_33
   10  A    between atoms: C_18  and  C_23
   11  A    between atoms: C_21  and  C_36
   12  A    between atoms: C_23  and  C_40
   13  A    between atoms: C_36  and  C_39
                            x       y       z     vdW  Elec       q    Type
                         _______ _______ _______ _____ _____    ______ ____

>  <TORSDO>
F 13

$$$$
=
 OpenBabel11042412343D

 41 44  0  0  1  0  0  0  0  0999 V2000
  186.9140  178.1380  144.6560 F   0  0  0  0  0  0  0  0  0  0  0  0
  188.5890  177.2390  142.6630 C   0  0  0  0  0  3  0  0  0  0  0  0
  185.9300  178.9910  140.6700 C   0  0  0  0  0  3  0  0  0  0  0  0
  186.3550  178.0950  143.3840 C   0  0  0  0  0  0  0  0  0  0  0  0
  190.3130  177.4860  139.4700 C   0  0  0  0  0  0  0  0  0  0  0  0
  185.3420  177.1460  143.3540 F   0  0  0  0  0  0  0  0  0  0  0  0
  187.3980  177.7640  142.3410 C   0  0  0  0  0  0  0  0  0  0  0  0
  190.8370  177.3300  141.5990 C   0  0  2  0  0  3  0  0  0  0  0  0
  185.2890  179.5440  141.6550 N   0  0  0  0  0  0  0  0  0  0  0  0
  191.3080  177.6300  140.2830 N   0  0  0  0  0  0  0  0  0  0  0  0
  187.9370  177.8990  139.9600 N   0  0  0  0  0  0  0  0  0  0  0  0
  185.7710  179.4840  143.0380 C   0  0  1  0  0  3  0  0  0  0  0  0
  189.0810  176.9970  140.1480 C   0  0  2  0  0  3  0  0  0  0  0  0
  189.5480  177.0210  141.5680 C   0  0  2  0  0  3  0  0  0  0  0  0
  187.1200  178.1790  140.9340 C   0  0  0  0  0  0  0  0  0  0  0  0
  191.6160  177.6480  142.8370 C   0  0  0  0  0  2  0  0  0  0  0  0
  191.0880  176.8370  144.0170 C   0  0  0  0  0  2  0  0  0  0  0  0
  190.9940  177.6970  145.2780 C   0  0  0  0  0  2  0  0  0  0  0  0
  190.7400  176.8780  146.5060 C   0  0  0  0  0  0  0  0  0  0  0  0
  191.6260  176.0090  146.8940 N   0  0  0  0  0  2  0  0  0  0  0  0
  189.4460  178.3340  148.1990 C   0  0  0  0  0  1  0  0  0  0  0  0
  189.5420  177.1270  147.3260 C   0  0  0  0  0  0  0  0  0  0  0  0
  188.5850  176.3110  147.3120 O   0  0  0  0  0  0  0  0  0  0  0  0
  184.6820  179.9760  143.9980 C   0  0  0  0  0  2  0  0  0  0  0  0
  183.4240  179.5010  143.6000 O   0  0  0  0  0  0  0  0  0  0  0  0
  183.7710  179.0060  145.8200 O   0  0  0  0  0  1  0  0  0  0  0  0
  182.8940  178.8650  144.7350 C   0  0  0  0  0  2  0  0  0  0  0  0
  190.4400  177.6990  137.9980 C   0  0  0  0  0  2  0  0  0  0  0  0
  190.0090  175.4280  136.7310 C   0  0  1  0  0  3  0  0  0  0  0  0
  190.4120  174.0190  137.2310 C   0  0  0  0  0  2  0  0  0  0  0  0
  191.9370  173.7490  137.1970 C   0  0  0  0  0  2  0  0  0  0  0  0
  190.9500  176.4750  137.2910 C   0  0  0  0  0  0  0  0  0  0  0  0
  192.2650  176.2290  137.2920 C   0  0  0  0  0  3  0  0  0  0  0  0
  192.7790  174.9400  136.6850 C   0  0  1  0  0  3  0  0  0  0  0  0
  194.9610  175.9930  136.7790 O   0  0  0  0  0  1  0  0  0  0  0  0
  194.2870  174.7690  136.9460 C   0  0  1  0  0  3  0  0  0  0  0  0
  195.4310  172.9820  138.3500 C   0  0  0  0  0  1  0  0  0  0  0  0
  194.5750  174.2370  138.3560 C   0  0  1  0  0  3  0  0  0  0  0  0
  195.2250  175.2270  139.1010 O   0  0  0  0  0  1  0  0  0  0  0  0
  190.0580  175.4660  135.3340 O   0  0  0  0  0  0  0  0  0  0  0  0
  189.0600  174.5870  134.9100 C   0  0  0  0  0  1  0  0  0  0  0  0
  3 15  1  0  0  0  0
  3  9  2  0  0  0  0
  4  1  1  0  0  0  0
  5 10  2  0  0  0  0
  6  4  1  0  0  0  0
  7  2  2  0  0  0  0
  7  4  1  0  0  0  0
  8 16  1  1  0  0  0
  9 12  1  0  0  0  0
 10  8  1  0  0  0  0
 11 13  1  0  0  0  0
 11 15  2  0  0  0  0
 12  4  1  0  0  0  0
 12 24  1  1  0  0  0
 13  5  1  6  0  0  0
 13 14  1  0  0  0  0
 14  8  1  0  0  0  0
 14  2  1  1  0  0  0
 15  7  1  0  0  0  0
 16 17  1  0  0  0  0
 17 18  1  0  0  0  0
 18 19  1  0  0  0  0
 19 20  2  0  0  0  0
 19 22  1  0  0  0  0
 22 21  1  0  0  0  0
 23 22  2  0  0  0  0
 25 24  1  0  0  0  0
 25 27  1  0  0  0  0
 27 26  1  0  0  0  0
 28  5  1  0  0  0  0
 29 40  1  6  0  0  0
 29 30  1  0  0  0  0
 29 32  1  0  0  0  0
 31 30  1  0  0  0  0
 32 33  2  0  0  0  0
 32 28  1  0  0  0  0
 34 36  1  1  0  0  0
 34 31  1  0  0  0  0
 34 33  1  0  0  0  0
 36 35  1  1  0  0  0
 36 38  1  0  0  0  0
 38 37  1  6  0  0  0
 38 39  1  0  0  0  0
 41 40  1  0  0  0  0
M  END
>  <MODEL>
6

>  <REMARK>
 VINA RESULT:      -7.2      3.589      7.888
  Name = 
  13 active torsions:
  status: ('A' for Active; 'I' for Inactive)
    1  A    between atoms: C_1  and  C_5
    2  A    between atoms: C_1  and  C_25
    3  A    between atoms: C_4  and  O_10
    4  A    between atoms: C_5  and  C_40
    5  A    between atoms: C_8  and  O_28
    6  A    between atoms: C_8  and  C_31
    7  A    between atoms: C_13  and  O_28
    8  A    between atoms: C_14  and  C_19
    9  A    between atoms: C_14  and  C_33
   10  A    between atoms: C_18  and  C_23
   11  A    between atoms: C_21  and  C_36
   12  A    between atoms: C_23  and  C_40
   13  A    between atoms: C_36  and  C_39
                            x       y       z     vdW  Elec       q    Type
                         _______ _______ _______ _____ _____    ______ ____

>  <TORSDO>
F 13

$$$$
=
 OpenBabel11042412343D

 41 44  0  0  1  0  0  0  0  0999 V2000
  189.8930  179.0320  145.1760 F   0  0  0  0  0  0  0  0  0  0  0  0
  189.4140  178.7430  142.4790 C   0  0  0  0  0  3  0  0  0  0  0  0
  191.6320  175.7900  143.1630 C   0  0  0  0  0  3  0  0  0  0  0  0
  190.7850  178.2080  144.4990 C   0  0  0  0  0  0  0  0  0  0  0  0
  188.8070  176.8350  139.4430 C   0  0  0  0  0  0  0  0  0  0  0  0
  192.0470  178.7870  144.5030 F   0  0  0  0  0  0  0  0  0  0  0  0
  190.3350  177.9720  143.0740 C   0  0  0  0  0  0  0  0  0  0  0  0
  187.7600  178.3330  140.6650 C   0  0  2  0  0  3  0  0  0  0  0  0
  191.6650  175.8730  144.4590 N   0  0  0  0  0  0  0  0  0  0  0  0
  187.6390  177.3600  139.6250 N   0  0  0  0  0  0  0  0  0  0  0  0
  190.5470  176.4840  141.1460 N   0  0  0  0  0  0  0  0  0  0  0  0
  190.8460  176.8340  145.2040 C   0  0  1  0  0  3  0  0  0  0  0  0
  189.8580  177.4600  140.2930 C   0  0  2  0  0  3  0  0  0  0  0  0
  189.0070  178.3750  141.1130 C   0  0  2  0  0  3  0  0  0  0  0  0
  190.8430  176.7490  142.3860 C   0  0  0  0  0  0  0  0  0  0  0  0
  186.5800  178.9520  141.3460 C   0  0  0  0  0  2  0  0  0  0  0  0
  185.8160  177.8990  142.1430 C   0  0  0  0  0  2  0  0  0  0  0  0
  185.0590  178.5330  143.3090 C   0  0  0  0  0  2  0  0  0  0  0  0
  185.6850  178.2180  144.6330 C   0  0  0  0  0  0  0  0  0  0  0  0
  186.8540  177.6510  144.6710 N   0  0  0  0  0  2  0  0  0  0  0  0
  185.7630  178.6290  147.1800 C   0  0  0  0  0  1  0  0  0  0  0  0
  185.0270  178.6400  145.8820 C   0  0  0  0  0  0  0  0  0  0  0  0
  183.8230  179.0030  145.8700 O   0  0  0  0  0  0  0  0  0  0  0  0
  191.2970  176.8870  146.6680 C   0  0  0  0  0  2  0  0  0  0  0  0
  190.9550  175.6990  147.3310 O   0  0  0  0  0  0  0  0  0  0  0  0
  193.2510  175.6030  147.4360 O   0  0  0  0  0  1  0  0  0  0  0  0
  192.0590  175.4010  148.1460 C   0  0  0  0  0  2  0  0  0  0  0  0
  189.0660  175.7860  138.4140 C   0  0  0  0  0  2  0  0  0  0  0  0
  189.4060  176.9650  136.0800 C   0  0  1  0  0  3  0  0  0  0  0  0
  189.9610  176.2970  134.7980 C   0  0  0  0  0  2  0  0  0  0  0  0
  191.4750  175.9750  134.8570 C   0  0  0  0  0  2  0  0  0  0  0  0
  189.9620  176.2810  137.3130 C   0  0  0  0  0  0  0  0  0  0  0  0
  191.2630  175.9730  137.3520 C   0  0  0  0  0  3  0  0  0  0  0  0
  192.1530  176.3660  136.1910 C   0  0  1  0  0  3  0  0  0  0  0  0
  194.5290  176.7870  136.4300 O   0  0  0  0  0  1  0  0  0  0  0  0
  193.5630  175.7680  136.3490 C   0  0  1  0  0  3  0  0  0  0  0  0
  194.0650  173.4470  137.2640 C   0  0  0  0  0  1  0  0  0  0  0  0
  193.6800  174.8780  137.5940 C   0  0  1  0  0  3  0  0  0  0  0  0
  194.6360  175.4180  138.4600 O   0  0  0  0  0  1  0  0  0  0  0  0
  189.7660  178.3160  136.1030 O   0  0  0  0  0  0  0  0  0  0  0  0
  188.6670  178.9770  136.6530 C   0  0  0  0  0  1  0  0  0  0  0  0
  2  7  2  0  0  0  0
  3  9  2  0  0  0  0
  4  6  1  0  0  0  0
  4  1  1  0  0  0  0
  4 12  1  0  0  0  0
  5 10  2  0  0  0  0
  7  4  1  0  0  0  0
  8 14  1  0  0  0  0
  8 16  1  1  0  0  0
  9 12  1  0  0  0  0
 10  8  1  0  0  0  0
 11 15  2  0  0  0  0
 12 24  1  1  0  0  0
 13  5  1  6  0  0  0
 13 14  1  0  0  0  0
 13 11  1  0  0  0  0
 14  2  1  1  0  0  0
 15  7  1  0  0  0  0
 15  3  1  0  0  0  0
 16 17  1  0  0  0  0
 17 18  1  0  0  0  0
 18 19  1  0  0  0  0
 19 20  2  0  0  0  0
 19 22  1  0  0  0  0
 22 21  1  0  0  0  0
 23 22  2  0  0  0  0
 24 25  1  0  0  0  0
 25 27  1  0  0  0  0
 26 27  1  0  0  0  0
 28  5  1  0  0  0  0
 29 40  1  1  0  0  0
 29 32  1  0  0  0  0
 30 31  1  0  0  0  0
 30 29  1  0  0  0  0
 31 34  1  0  0  0  0
 32 33  2  0  0  0  0
 32 28  1  0  0  0  0
 34 36  1  1  0  0  0
 34 33  1  0  0  0  0
 36 35  1  1  0  0  0
 36 38  1  0  0  0  0
 38 37  1  6  0  0  0
 38 39  1  0  0  0  0
 40 41  1  0  0  0  0
M  END
>  <MODEL>
7

>  <REMARK>
 VINA RESULT:      -7.0      3.861      7.929
  Name = 
  13 active torsions:
  status: ('A' for Active; 'I' for Inactive)
    1  A    between atoms: C_1  and  C_5
    2  A    between atoms: C_1  and  C_25
    3  A    between atoms: C_4  and  O_10
    4  A    between atoms: C_5  and  C_40
    5  A    between atoms: C_8  and  O_28
    6  A    between atoms: C_8  and  C_31
    7  A    between atoms: C_13  and  O_28
    8  A    between atoms: C_14  and  C_19
    9  A    between atoms: C_14  and  C_33
   10  A    between atoms: C_18  and  C_23
   11  A    between atoms: C_21  and  C_36
   12  A    between atoms: C_23  and  C_40
   13  A    between atoms: C_36  and  C_39
                            x       y       z     vdW  Elec       q    Type
                         _______ _______ _______ _____ _____    ______ ____

>  <TORSDO>
F 13

$$$$
=
 OpenBabel11042412343D

 41 44  0  0  1  0  0  0  0  0999 V2000
  189.6060  177.8180  140.5260 F   0  0  0  0  0  0  0  0  0  0  0  0
  186.9740  178.6300  140.5330 C   0  0  0  0  0  3  0  0  0  0  0  0
  187.3180  177.2480  137.0580 C   0  0  0  0  0  3  0  0  0  0  0  0
  189.0280  177.9740  139.2700 C   0  0  0  0  0  0  0  0  0  0  0  0
  183.4550  178.3520  139.6600 C   0  0  0  0  0  0  0  0  0  0  0  0
  189.6470  179.0210  138.6010 F   0  0  0  0  0  0  0  0  0  0  0  0
  187.5450  178.2440  139.3830 C   0  0  0  0  0  0  0  0  0  0  0  0
  184.6880  178.3590  141.4790 C   0  0  2  0  0  3  0  0  0  0  0  0
  188.4980  176.7190  137.1800 N   0  0  0  0  0  0  0  0  0  0  0  0
  183.4040  178.0720  140.9210 N   0  0  0  0  0  0  0  0  0  0  0  0
  185.4150  178.1610  138.1850 N   0  0  0  0  0  0  0  0  0  0  0  0
  189.2070  176.6690  138.4630 C   0  0  1  0  0  3  0  0  0  0  0  0
  184.7640  178.9330  139.2510 C   0  0  2  0  0  3  0  0  0  0  0  0
  185.5120  178.7980  140.5380 C   0  0  2  0  0  3  0  0  0  0  0  0
  186.6950  177.9220  138.1990 C   0  0  0  0  0  0  0  0  0  0  0  0
  185.1040  177.9090  142.8450 C   0  0  0  0  0  2  0  0  0  0  0  0
  184.2650  178.6080  143.9100 C   0  0  0  0  0  2  0  0  0  0  0  0
  185.1510  179.3740  144.8930 C   0  0  0  0  0  2  0  0  0  0  0  0
  185.4550  178.5770  146.1250 C   0  0  0  0  0  0  0  0  0  0  0  0
  184.5050  178.3170  146.9730 N   0  0  0  0  0  2  0  0  0  0  0  0
  187.5280  178.1820  147.6110 C   0  0  0  0  0  1  0  0  0  0  0  0
  186.7990  178.0050  146.3210 C   0  0  0  0  0  0  0  0  0  0  0  0
  187.3570  177.3690  145.3910 O   0  0  0  0  0  0  0  0  0  0  0  0
  190.6640  176.2470  138.2440 C   0  0  0  0  0  2  0  0  0  0  0  0
  191.1290  176.7110  137.0040 O   0  0  0  0  0  0  0  0  0  0  0  0
  192.7140  175.2780  137.8580 O   0  0  0  0  0  1  0  0  0  0  0  0
  192.4750  176.3130  136.9440 C   0  0  0  0  0  2  0  0  0  0  0  0
  182.2800  178.1930  138.7520 C   0  0  0  0  0  2  0  0  0  0  0  0
  180.2050  179.5290  139.6790 C   0  0  1  0  0  3  0  0  0  0  0  0
  178.9340  179.9020  138.8780 C   0  0  0  0  0  2  0  0  0  0  0  0
  179.1610  180.9960  137.8060 C   0  0  0  0  0  2  0  0  0  0  0  0
  181.3970  179.4090  138.7510 C   0  0  0  0  0  0  0  0  0  0  0  0
  181.5750  180.3360  137.8040 C   0  0  0  0  0  3  0  0  0  0  0  0
  180.6180  181.5070  137.7220 C   0  0  1  0  0  3  0  0  0  0  0  0
  179.8010  182.2850  135.5750 O   0  0  0  0  0  1  0  0  0  0  0  0
  180.8880  182.3550  136.4650 C   0  0  1  0  0  3  0  0  0  0  0  0
  179.8770  184.6090  137.0730 C   0  0  0  0  0  1  0  0  0  0  0  0
  181.1510  183.8280  136.8050 C   0  0  1  0  0  3  0  0  0  0  0  0
  181.9770  183.9040  137.9310 O   0  0  0  0  0  1  0  0  0  0  0  0
  180.4660  180.5150  140.6370 O   0  0  0  0  0  0  0  0  0  0  0  0
  180.3080  179.8770  141.8680 C   0  0  0  0  0  1  0  0  0  0  0  0
  3  9  2  0  0  0  0
  3 15  1  0  0  0  0
  4  7  1  0  0  0  0
  4  1  1  0  0  0  0
  5 10  2  0  0  0  0
  6  4  1  0  0  0  0
  7  2  2  0  0  0  0
  8 16  1  6  0  0  0
  9 12  1  0  0  0  0
 10  8  1  0  0  0  0
 11 15  2  0  0  0  0
 12 24  1  6  0  0  0
 12  4  1  0  0  0  0
 13 11  1  6  0  0  0
 13  5  1  0  0  0  0
 13 14  1  0  0  0  0
 14  2  1  6  0  0  0
 14  8  1  0  0  0  0
 15  7  1  0  0  0  0
 16 17  1  0  0  0  0
 17 18  1  0  0  0  0
 18 19  1  0  0  0  0
 19 22  1  0  0  0  0
 19 20  2  0  0  0  0
 22 21  1  0  0  0  0
 23 22  2  0  0  0  0
 25 24  1  0  0  0  0
 27 25  1  0  0  0  0
 27 26  1  0  0  0  0
 28  5  1  0  0  0  0
 29 40  1  1  0  0  0
 30 29  1  0  0  0  0
 31 30  1  0  0  0  0
 32 28  1  0  0  0  0
 32 29  1  0  0  0  0
 33 32  2  0  0  0  0
 34 36  1  6  0  0  0
 34 33  1  0  0  0  0
 34 31  1  0  0  0  0
 36 35  1  6  0  0  0
 36 38  1  0  0  0  0
 38 37  1  1  0  0  0
 38 39  1  0  0  0  0
 40 41  1  0  0  0  0
M  END
>  <MODEL>
8

>  <REMARK>
 VINA RESULT:      -7.0      2.868      4.328
  Name = 
  13 active torsions:
  status: ('A' for Active; 'I' for Inactive)
    1  A    between atoms: C_1  and  C_5
    2  A    between atoms: C_1  and  C_25
    3  A    between atoms: C_4  and  O_10
    4  A    between atoms: C_5  and  C_40
    5  A    between atoms: C_8  and  O_28
    6  A    between atoms: C_8  and  C_31
    7  A    between atoms: C_13  and  O_28
    8  A    between atoms: C_14  and  C_19
    9  A    between atoms: C_14  and  C_33
   10  A    between atoms: C_18  and  C_23
   11  A    between atoms: C_21  and  C_36
   12  A    between atoms: C_23  and  C_40
   13  A    between atoms: C_36  and  C_39
                            x       y       z     vdW  Elec       q    Type
                         _______ _______ _______ _____ _____    ______ ____

>  <TORSDO>
F 13

$$$$
=
 OpenBabel11042412343D

 41 44  0  0  1  0  0  0  0  0999 V2000
  191.6590  174.8740  135.9560 F   0  0  0  0  0  0  0  0  0  0  0  0
  189.6260  175.8220  137.5540 C   0  0  0  0  0  3  0  0  0  0  0  0
  192.6580  177.0730  139.3840 C   0  0  0  0  0  3  0  0  0  0  0  0
  192.0350  175.2330  137.2460 C   0  0  0  0  0  0  0  0  0  0  0  0
  188.0330  178.2600  139.7330 C   0  0  0  0  0  0  0  0  0  0  0  0
  192.4410  174.1030  137.9420 F   0  0  0  0  0  0  0  0  0  0  0  0
  190.8950  175.9040  137.9790 C   0  0  0  0  0  0  0  0  0  0  0  0
  187.6490  177.3170  137.7850 C   0  0  2  0  0  3  0  0  0  0  0  0
  193.5550  176.7660  138.4970 N   0  0  0  0  0  0  0  0  0  0  0  0
  187.2980  178.3780  138.6770 N   0  0  0  0  0  0  0  0  0  0  0  0
  190.3300  177.3830  139.8420 N   0  0  0  0  0  0  0  0  0  0  0  0
  193.2030  176.2420  137.1730 C   0  0  1  0  0  3  0  0  0  0  0  0
  188.9060  177.0530  139.6960 C   0  0  2  0  0  3  0  0  0  0  0  0
  188.6110  176.5720  138.3130 C   0  0  2  0  0  3  0  0  0  0  0  0
  191.2430  176.7970  139.1230 C   0  0  0  0  0  0  0  0  0  0  0  0
  187.2170  177.2770  136.3530 C   0  0  0  0  0  2  0  0  0  0  0  0
  185.9610  176.4240  136.2030 C   0  0  0  0  0  2  0  0  0  0  0  0
  186.3000  175.0380  135.6520 C   0  0  0  0  0  2  0  0  0  0  0  0
  186.0120  173.9480  136.6390 C   0  0  0  0  0  0  0  0  0  0  0  0
  185.1250  174.1410  137.5690 N   0  0  0  0  0  2  0  0  0  0  0  0
  187.9250  172.3130  137.2160 C   0  0  0  0  0  1  0  0  0  0  0  0
  186.6580  172.6310  136.4950 C   0  0  0  0  0  0  0  0  0  0  0  0
  186.1520  171.7580  135.7440 O   0  0  0  0  0  0  0  0  0  0  0  0
  194.4560  175.7180  136.4630 C   0  0  0  0  0  2  0  0  0  0  0  0
  195.3830  175.2310  137.3970 O   0  0  0  0  0  0  0  0  0  0  0  0
  197.1040  176.0250  136.0930 O   0  0  0  0  0  1  0  0  0  0  0  0
  196.5150  174.8780  136.6430 C   0  0  0  0  0  2  0  0  0  0  0  0
  187.9270  179.1910  140.8950 C   0  0  0  0  0  2  0  0  0  0  0  0
  185.5970  178.9630  142.1080 C   0  0  1  0  0  3  0  0  0  0  0  0
  185.2650  179.4590  143.5370 C   0  0  0  0  0  2  0  0  0  0  0  0
  185.9330  178.6310  144.6630 C   0  0  0  0  0  2  0  0  0  0  0  0
  187.0710  178.6280  141.9950 C   0  0  0  0  0  0  0  0  0  0  0  0
  187.6560  177.9420  142.9830 C   0  0  0  0  0  3  0  0  0  0  0  0
  186.8200  177.4720  144.1560 C   0  0  1  0  0  3  0  0  0  0  0  0
  188.9080  176.3720  144.7140 O   0  0  0  0  0  1  0  0  0  0  0  0
  187.7070  176.8640  145.2570 C   0  0  1  0  0  3  0  0  0  0  0  0
  187.8130  177.3340  147.7560 C   0  0  0  0  0  1  0  0  0  0  0  0
  188.0440  177.8790  146.3580 C   0  0  1  0  0  3  0  0  0  0  0  0
  189.3830  178.2660  146.2360 O   0  0  0  0  0  1  0  0  0  0  0  0
  184.8430  177.8220  141.8160 O   0  0  0  0  0  0  0  0  0  0  0  0
  183.5150  178.2540  141.8150 C   0  0  0  0  0  1  0  0  0  0  0  0
  1  4  1  0  0  0  0
  2  7  2  0  0  0  0
  4  6  1  0  0  0  0
  4  7  1  0  0  0  0
  5 28  1  0  0  0  0
  7 15  1  0  0  0  0
  8 16  1  6  0  0  0
  8 14  1  0  0  0  0
  8 10  1  0  0  0  0
  9  3  2  0  0  0  0
 10  5  2  0  0  0  0
 12 24  1  1  0  0  0
 12  4  1  0  0  0  0
 12  9  1  0  0  0  0
 13  5  1  6  0  0  0
 13 11  1  0  0  0  0
 14  2  1  6  0  0  0
 14 13  1  0  0  0  0
 15  3  1  0  0  0  0
 15 11  2  0  0  0  0
 17 16  1  0  0  0  0
 18 17  1  0  0  0  0
 18 19  1  0  0  0  0
 19 20  2  0  0  0  0
 22 19  1  0  0  0  0
 22 21  1  0  0  0  0
 23 22  2  0  0  0  0
 24 25  1  0  0  0  0
 26 27  1  0  0  0  0
 27 25  1  0  0  0  0
 28 32  1  0  0  0  0
 29 40  1  1  0  0  0
 29 30  1  0  0  0  0
 30 31  1  0  0  0  0
 32 29  1  0  0  0  0
 32 33  2  0  0  0  0
 33 34  1  0  0  0  0
 34 31  1  0  0  0  0
 34 36  1  1  0  0  0
 36 35  1  6  0  0  0
 36 38  1  0  0  0  0
 38 37  1  1  0  0  0
 39 38  1  0  0  0  0
 41 40  1  0  0  0  0
M  END
>  <MODEL>
9

>  <REMARK>
 VINA RESULT:      -6.9      3.068      7.326
  Name = 
  13 active torsions:
  status: ('A' for Active; 'I' for Inactive)
    1  A    between atoms: C_1  and  C_5
    2  A    between atoms: C_1  and  C_25
    3  A    between atoms: C_4  and  O_10
    4  A    between atoms: C_5  and  C_40
    5  A    between atoms: C_8  and  O_28
    6  A    between atoms: C_8  and  C_31
    7  A    between atoms: C_13  and  O_28
    8  A    between atoms: C_14  and  C_19
    9  A    between atoms: C_14  and  C_33
   10  A    between atoms: C_18  and  C_23
   11  A    between atoms: C_21  and  C_36
   12  A    between atoms: C_23  and  C_40
   13  A    between atoms: C_36  and  C_39
                            x       y       z     vdW  Elec       q    Type
                         _______ _______ _______ _____ _____    ______ ____

>  <TORSDO>
F 13

$$$$
