=
 OpenBabel11042412173D

 34 35  0  0  1  0  0  0  0  0999 V2000
  186.0630  178.5530  141.9750 C   0  0  0  0  0  2  0  0  0  0  0  0
  184.8780  179.3110  142.5410 C   0  0  2  0  0  3  0  0  0  0  0  0
  185.4370  178.1250  143.2930 C   0  0  2  0  0  3  0  0  0  0  0  0
  181.8440  178.8140  140.2300 N   0  0  0  0  0  0  0  0  0  0  0  0
  181.1550  178.5980  142.4550 C   0  0  0  0  0  0  0  0  0  0  0  0
  182.8210  178.7820  144.6350 Cl  0  0  0  0  0  0  0  0  0  0  0  0
  182.4730  178.7900  142.8990 C   0  0  0  0  0  0  0  0  0  0  0  0
  183.1510  178.9610  140.5770 C   0  0  0  0  0  0  0  0  0  0  0  0
  183.5030  178.9990  141.9590 C   0  0  0  0  0  0  0  0  0  0  0  0
  180.8800  178.6450  141.1330 N   0  0  0  0  0  0  0  0  0  0  0  0
  184.1190  178.9900  139.4670 C   0  0  0  0  0  0  0  0  0  0  0  0
  184.4620  177.7750  138.7930 N   0  0  0  0  0  2  0  0  0  0  0  0
  184.5880  180.0910  139.0740 O   0  0  0  0  0  0  0  0  0  0  0  0
  185.2460  177.7470  137.5690 C   0  0  0  0  0  2  0  0  0  0  0  0
  186.7390  177.7180  137.8650 C   0  0  0  0  0  2  0  0  0  0  0  0
  187.5380  177.2800  136.6430 C   0  0  0  0  0  2  0  0  0  0  0  0
  188.8680  178.5900  137.8450 C   0  0  0  0  0  1  0  0  0  0  0  0
  188.8450  177.7780  136.7080 O   0  0  0  0  0  0  0  0  0  0  0  0
  180.0400  178.3330  143.4130 C   0  0  0  0  0  2  0  0  0  0  0  0
  179.3440  179.5730  143.7100 N   0  0  0  0  0  1  0  0  0  0  0  0
  186.2920  178.6130  144.4460 C   0  0  0  0  0  2  0  0  0  0  0  0
  186.9210  177.4370  145.1830 C   0  0  1  0  0  3  0  0  0  0  0  0
  189.4120  177.8010  145.0330 N   0  0  0  0  0  2  0  0  0  0  0  0
  188.2480  177.0930  144.5940 C   0  0  0  0  0  0  0  0  0  0  0  0
  188.3470  176.1900  143.7160 O   0  0  0  0  0  0  0  0  0  0  0  0
  190.7570  177.5040  144.5500 C   0  0  1  0  0  3  0  0  0  0  0  0
  191.2040  178.5620  143.5540 C   0  0  0  0  0  1  0  0  0  0  0  0
  191.7150  177.3850  145.6550 N   0  0  0  0  0  2  0  0  0  0  0  0
  190.7260  177.2120  147.7620 O   0  0  0  0  0  1  0  0  0  0  0  0
  191.2220  176.4780  146.6880 C   0  0  2  0  0  3  0  0  0  0  0  0
  192.9230  176.0520  148.3250 O   0  0  0  0  0  1  0  0  0  0  0  0
  192.3370  175.5570  147.1560 C   0  0  0  0  0  2  0  0  0  0  0  0
  187.0610  177.7290  146.6180 C   0  0  0  0  0  0  0  0  0  0  0  0
  187.1820  177.9720  147.7940 C   0  0  0  0  0  3  0  0  0  0  0  0
  1  2  1  0  0  0  0
  1  3  1  0  0  0  0
  2  9  1  6  0  0  0
  2  3  1  0  0  0  0
  3 21  1  1  0  0  0
  4  8  2  0  0  0  0
  4 10  1  0  0  0  0
  5  7  1  0  0  0  0
  5 19  1  0  0  0  0
  7  6  1  0  0  0  0
  8  9  1  0  0  0  0
  9  7  2  0  0  0  0
 10  5  2  0  0  0  0
 11  8  1  0  0  0  0
 12 11  1  0  0  0  0
 13 11  2  0  0  0  0
 14 15  1  0  0  0  0
 14 12  1  0  0  0  0
 16 18  1  0  0  0  0
 16 15  1  0  0  0  0
 18 17  1  0  0  0  0
 19 20  1  0  0  0  0
 22 21  1  6  0  0  0
 22 33  1  0  0  0  0
 24 23  1  0  0  0  0
 24 22  1  0  0  0  0
 25 24  2  0  0  0  0
 26 27  1  6  0  0  0
 26 23  1  0  0  0  0
 26 28  1  0  0  0  0
 28 30  1  0  0  0  0
 30 32  1  0  0  0  0
 30 29  1  1  0  0  0
 32 31  1  0  0  0  0
 33 34  3  0  0  0  0
M  END
>  <MODEL>
1

>  <REMARK>
 VINA RESULT:      -7.3      0.000      0.000
  Name = 
  15 active torsions:
  status: ('A' for Active; 'I' for Inactive)
    1  A    between atoms: C_2  and  C_16
    2  A    between atoms: C_3  and  C_8
    3  A    between atoms: C_3  and  O_20
    4  A    between atoms: C_4  and  C_8
    5  A    between atoms: C_4  and  N_17
    6  A    between atoms: N_6  and  C_14
    7  A    between atoms: C_7  and  C_31
    8  A    between atoms: C_9  and  C_31
    9  A    between atoms: C_10  and  C_26
   10  A    between atoms: C_13  and  C_22
   11  A    between atoms: C_13  and  N_25
   12  A    between atoms: C_14  and  N_25
   13  A    between atoms: C_24  and  C_29
   14  A    between atoms: C_28  and  C_34
   15  A    between atoms: C_31  and  C_34
                            x       y       z     vdW  Elec       q    Type
                         _______ _______ _______ _____ _____    ______ ____

>  <TORSDO>
F 15

$$$$
=
 OpenBabel11042412173D

 34 35  0  0  1  0  0  0  0  0999 V2000
  186.1760  178.5010  142.1210 C   0  0  0  0  0  2  0  0  0  0  0  0
  185.0520  179.3160  142.7310 C   0  0  2  0  0  3  0  0  0  0  0  0
  185.6280  178.1440  143.4930 C   0  0  2  0  0  3  0  0  0  0  0  0
  181.8510  178.8450  140.6520 N   0  0  0  0  0  0  0  0  0  0  0  0
  181.3220  178.6680  142.9240 C   0  0  0  0  0  0  0  0  0  0  0  0
  183.1440  178.8490  144.9750 Cl  0  0  0  0  0  0  0  0  0  0  0  0
  182.6710  178.8420  143.2690 C   0  0  0  0  0  0  0  0  0  0  0  0
  183.1820  178.9730  140.9020 C   0  0  0  0  0  0  0  0  0  0  0  0
  183.6340  179.0220  142.2540 C   0  0  0  0  0  0  0  0  0  0  0  0
  180.9520  178.7050  141.6250 N   0  0  0  0  0  0  0  0  0  0  0  0
  184.0670  178.9700  139.7250 C   0  0  0  0  0  0  0  0  0  0  0  0
  184.2570  177.7620  138.9810 N   0  0  0  0  0  2  0  0  0  0  0  0
  184.5990  180.0460  139.3390 O   0  0  0  0  0  0  0  0  0  0  0  0
  184.9460  177.7240  137.7020 C   0  0  0  0  0  2  0  0  0  0  0  0
  186.4550  177.6450  137.8860 C   0  0  0  0  0  2  0  0  0  0  0  0
  187.1820  178.5550  136.9020 C   0  0  0  0  0  2  0  0  0  0  0  0
  188.4140  176.7490  136.5150 C   0  0  0  0  0  1  0  0  0  0  0  0
  188.5030  178.1290  136.7240 O   0  0  0  0  0  0  0  0  0  0  0  0
  180.2740  178.4350  143.9640 C   0  0  0  0  0  2  0  0  0  0  0  0
  179.2980  179.5100  143.9250 N   0  0  0  0  0  1  0  0  0  0  0  0
  186.5710  178.6530  144.5670 C   0  0  0  0  0  2  0  0  0  0  0  0
  187.4390  177.5190  145.0980 C   0  0  1  0  0  3  0  0  0  0  0  0
  189.1860  176.6310  143.5110 N   0  0  0  0  0  2  0  0  0  0  0  0
  188.8100  177.5830  144.5110 C   0  0  0  0  0  0  0  0  0  0  0  0
  189.6310  178.4640  144.8920 O   0  0  0  0  0  0  0  0  0  0  0  0
  190.4860  176.6430  142.8460 C   0  0  1  0  0  3  0  0  0  0  0  0
  191.4970  175.8420  143.6510 C   0  0  0  0  0  1  0  0  0  0  0  0
  190.3940  176.1400  141.4700 N   0  0  0  0  0  2  0  0  0  0  0  0
  189.1400  177.6170  140.1700 O   0  0  0  0  0  1  0  0  0  0  0  0
  190.4360  177.2330  140.5030 C   0  0  2  0  0  3  0  0  0  0  0  0
  190.7430  175.5520  138.8190 O   0  0  0  0  0  1  0  0  0  0  0  0
  191.1890  176.8030  139.2540 C   0  0  0  0  0  2  0  0  0  0  0  0
  187.5120  177.5570  146.5670 C   0  0  0  0  0  0  0  0  0  0  0  0
  187.5790  177.5860  147.7720 C   0  0  0  0  0  3  0  0  0  0  0  0
  1  2  1  0  0  0  0
  1  3  1  0  0  0  0
  2  9  1  6  0  0  0
  2  3  1  0  0  0  0
  3 21  1  1  0  0  0
  4  8  2  0  0  0  0
  4 10  1  0  0  0  0
  5  7  1  0  0  0  0
  5 19  1  0  0  0  0
  7  6  1  0  0  0  0
  8  9  1  0  0  0  0
  9  7  2  0  0  0  0
 10  5  2  0  0  0  0
 11  8  1  0  0  0  0
 12 11  1  0  0  0  0
 13 11  2  0  0  0  0
 14 15  1  0  0  0  0
 14 12  1  0  0  0  0
 16 15  1  0  0  0  0
 17 18  1  0  0  0  0
 18 16  1  0  0  0  0
 20 19  1  0  0  0  0
 22 21  1  6  0  0  0
 22 33  1  0  0  0  0
 23 24  1  0  0  0  0
 24 25  2  0  0  0  0
 24 22  1  0  0  0  0
 26 23  1  0  0  0  0
 26 27  1  1  0  0  0
 28 26  1  0  0  0  0
 30 29  1  6  0  0  0
 30 28  1  0  0  0  0
 31 32  1  0  0  0  0
 32 30  1  0  0  0  0
 33 34  3  0  0  0  0
M  END
>  <MODEL>
2

>  <REMARK>
 VINA RESULT:      -7.1      1.740      3.047
  Name = 
  15 active torsions:
  status: ('A' for Active; 'I' for Inactive)
    1  A    between atoms: C_2  and  C_16
    2  A    between atoms: C_3  and  C_8
    3  A    between atoms: C_3  and  O_20
    4  A    between atoms: C_4  and  C_8
    5  A    between atoms: C_4  and  N_17
    6  A    between atoms: N_6  and  C_14
    7  A    between atoms: C_7  and  C_31
    8  A    between atoms: C_9  and  C_31
    9  A    between atoms: C_10  and  C_26
   10  A    between atoms: C_13  and  C_22
   11  A    between atoms: C_13  and  N_25
   12  A    between atoms: C_14  and  N_25
   13  A    between atoms: C_24  and  C_29
   14  A    between atoms: C_28  and  C_34
   15  A    between atoms: C_31  and  C_34
                            x       y       z     vdW  Elec       q    Type
                         _______ _______ _______ _____ _____    ______ ____

>  <TORSDO>
F 15

$$$$
=
 OpenBabel11042412173D

 34 35  0  0  1  0  0  0  0  0999 V2000
  185.9460  178.2420  142.0770 C   0  0  0  0  0  2  0  0  0  0  0  0
  184.9180  179.2130  142.6260 C   0  0  2  0  0  3  0  0  0  0  0  0
  185.3790  178.0490  143.4740 C   0  0  2  0  0  3  0  0  0  0  0  0
  181.6580  178.9530  140.6020 N   0  0  0  0  0  0  0  0  0  0  0  0
  181.1470  178.9180  142.8850 C   0  0  0  0  0  0  0  0  0  0  0  0
  183.0070  179.0160  144.9080 Cl  0  0  0  0  0  0  0  0  0  0  0  0
  182.5120  178.9820  143.2080 C   0  0  0  0  0  0  0  0  0  0  0  0
  182.9980  178.9680  140.8320 C   0  0  0  0  0  0  0  0  0  0  0  0
  183.4720  179.0300  142.1770 C   0  0  0  0  0  0  0  0  0  0  0  0
  180.7640  178.9350  141.5890 N   0  0  0  0  0  0  0  0  0  0  0  0
  183.8630  178.8360  139.6480 C   0  0  0  0  0  0  0  0  0  0  0  0
  183.9250  177.5880  138.9490 N   0  0  0  0  0  2  0  0  0  0  0  0
  184.4910  179.8400  139.2160 O   0  0  0  0  0  0  0  0  0  0  0  0
  184.5890  177.4360  137.6650 C   0  0  0  0  0  2  0  0  0  0  0  0
  184.6840  175.9720  137.2580 C   0  0  0  0  0  2  0  0  0  0  0  0
  183.5400  175.1560  137.8500 C   0  0  0  0  0  2  0  0  0  0  0  0
  183.8820  174.3070  135.8280 C   0  0  0  0  0  1  0  0  0  0  0  0
  182.9490  174.3550  136.8680 O   0  0  0  0  0  0  0  0  0  0  0  0
  180.0980  178.8250  143.9440 C   0  0  0  0  0  2  0  0  0  0  0  0
  179.7880  177.4290  144.2050 N   0  0  0  0  0  1  0  0  0  0  0  0
  186.3800  178.5380  144.5030 C   0  0  0  0  0  2  0  0  0  0  0  0
  187.0320  177.3610  145.2190 C   0  0  1  0  0  3  0  0  0  0  0  0
  189.5270  177.7130  145.1110 N   0  0  0  0  0  2  0  0  0  0  0  0
  188.3610  177.0470  144.6160 C   0  0  0  0  0  0  0  0  0  0  0  0
  188.4590  176.2050  143.6800 O   0  0  0  0  0  0  0  0  0  0  0  0
  190.8740  177.4390  144.6180 C   0  0  1  0  0  3  0  0  0  0  0  0
  191.2840  178.4870  143.5970 C   0  0  0  0  0  1  0  0  0  0  0  0
  191.8460  177.3630  145.7140 N   0  0  0  0  0  2  0  0  0  0  0  0
  190.9450  177.3130  147.8660 O   0  0  0  0  0  1  0  0  0  0  0  0
  191.3570  176.5180  146.7990 C   0  0  2  0  0  3  0  0  0  0  0  0
  193.0200  176.0000  148.4480 O   0  0  0  0  0  1  0  0  0  0  0  0
  192.4460  175.5590  147.2530 C   0  0  0  0  0  2  0  0  0  0  0  0
  187.1760  177.6340  146.6570 C   0  0  0  0  0  0  0  0  0  0  0  0
  187.2990  177.8640  147.8350 C   0  0  0  0  0  3  0  0  0  0  0  0
  1  2  1  0  0  0  0
  1  3  1  0  0  0  0
  2  9  1  6  0  0  0
  2  3  1  0  0  0  0
  3 21  1  1  0  0  0
  4  8  2  0  0  0  0
  4 10  1  0  0  0  0
  5  7  1  0  0  0  0
  5 19  1  0  0  0  0
  7  6  1  0  0  0  0
  8  9  1  0  0  0  0
  9  7  2  0  0  0  0
 10  5  2  0  0  0  0
 11  8  1  0  0  0  0
 12 11  1  0  0  0  0
 13 11  2  0  0  0  0
 14 12  1  0  0  0  0
 15 14  1  0  0  0  0
 15 16  1  0  0  0  0
 17 18  1  0  0  0  0
 18 16  1  0  0  0  0
 19 20  1  0  0  0  0
 22 21  1  6  0  0  0
 22 33  1  0  0  0  0
 24 23  1  0  0  0  0
 24 22  1  0  0  0  0
 25 24  2  0  0  0  0
 26 27  1  6  0  0  0
 26 23  1  0  0  0  0
 26 28  1  0  0  0  0
 28 30  1  0  0  0  0
 30 32  1  0  0  0  0
 30 29  1  1  0  0  0
 32 31  1  0  0  0  0
 33 34  3  0  0  0  0
M  END
>  <MODEL>
3

>  <REMARK>
 VINA RESULT:      -7.0      1.523      1.969
  Name = 
  15 active torsions:
  status: ('A' for Active; 'I' for Inactive)
    1  A    between atoms: C_2  and  C_16
    2  A    between atoms: C_3  and  C_8
    3  A    between atoms: C_3  and  O_20
    4  A    between atoms: C_4  and  C_8
    5  A    between atoms: C_4  and  N_17
    6  A    between atoms: N_6  and  C_14
    7  A    between atoms: C_7  and  C_31
    8  A    between atoms: C_9  and  C_31
    9  A    between atoms: C_10  and  C_26
   10  A    between atoms: C_13  and  C_22
   11  A    between atoms: C_13  and  N_25
   12  A    between atoms: C_14  and  N_25
   13  A    between atoms: C_24  and  C_29
   14  A    between atoms: C_28  and  C_34
   15  A    between atoms: C_31  and  C_34
                            x       y       z     vdW  Elec       q    Type
                         _______ _______ _______ _____ _____    ______ ____

>  <TORSDO>
F 15

$$$$
=
 OpenBabel11042412173D

 34 35  0  0  1  0  0  0  0  0999 V2000
  187.7770  178.2420  141.7570 C   0  0  0  0  0  2  0  0  0  0  0  0
  188.0470  177.0530  142.6600 C   0  0  2  0  0  3  0  0  0  0  0  0
  187.1450  178.1680  143.1380 C   0  0  2  0  0  3  0  0  0  0  0  0
  191.7400  176.7970  143.7020 N   0  0  0  0  0  0  0  0  0  0  0  0
  190.4110  176.9520  145.6210 C   0  0  0  0  0  0  0  0  0  0  0  0
  187.6740  177.2160  145.6140 Cl  0  0  0  0  0  0  0  0  0  0  0  0
  189.2550  177.0630  144.8320 C   0  0  0  0  0  0  0  0  0  0  0  0
  190.6750  176.9460  142.8690 C   0  0  0  0  0  0  0  0  0  0  0  0
  189.3650  177.0410  143.4270 C   0  0  0  0  0  0  0  0  0  0  0  0
  191.6150  176.7930  145.0280 N   0  0  0  0  0  0  0  0  0  0  0  0
  190.9840  177.0800  141.4360 C   0  0  0  0  0  0  0  0  0  0  0  0
  190.2760  176.2860  140.4790 N   0  0  0  0  0  2  0  0  0  0  0  0
  191.8220  177.9420  141.0540 O   0  0  0  0  0  0  0  0  0  0  0  0
  190.3770  176.5030  139.0450 C   0  0  0  0  0  2  0  0  0  0  0  0
  189.0680  177.0290  138.4700 C   0  0  0  0  0  2  0  0  0  0  0  0
  189.0700  178.5510  138.3890 C   0  0  0  0  0  2  0  0  0  0  0  0
  188.3650  178.2070  136.3120 C   0  0  0  0  0  1  0  0  0  0  0  0
  189.2590  178.9720  137.0680 O   0  0  0  0  0  0  0  0  0  0  0  0
  190.3470  177.0120  147.1130 C   0  0  0  0  0  2  0  0  0  0  0  0
  191.6870  176.9140  147.6650 N   0  0  0  0  0  1  0  0  0  0  0  0
  185.6970  177.7360  143.0140 C   0  0  0  0  0  2  0  0  0  0  0  0
  184.7640  178.8430  143.4900 C   0  0  1  0  0  3  0  0  0  0  0  0
  182.2500  178.9760  143.6420 N   0  0  0  0  0  2  0  0  0  0  0  0
  183.4180  178.7080  142.8590 C   0  0  0  0  0  0  0  0  0  0  0  0
  183.3070  178.3590  141.6500 O   0  0  0  0  0  0  0  0  0  0  0  0
  180.8950  178.9160  143.1020 C   0  0  1  0  0  3  0  0  0  0  0  0
  179.9080  178.5480  144.1980 C   0  0  0  0  0  1  0  0  0  0  0  0
  180.5150  180.1760  142.4550 N   0  0  0  0  0  2  0  0  0  0  0  0
  179.7060  178.5730  140.9640 O   0  0  0  0  0  1  0  0  0  0  0  0
  179.9070  179.9390  141.1490 C   0  0  2  0  0  3  0  0  0  0  0  0
  180.1780  181.5730  139.4140 O   0  0  0  0  0  1  0  0  0  0  0  0
  180.7950  180.4890  140.0450 C   0  0  0  0  0  2  0  0  0  0  0  0
  184.6440  178.8350  144.9560 C   0  0  0  0  0  0  0  0  0  0  0  0
  184.5490  178.8220  146.1590 C   0  0  0  0  0  3  0  0  0  0  0  0
  1  2  1  0  0  0  0
  1  3  1  0  0  0  0
  2  3  1  0  0  0  0
  2  9  1  1  0  0  0
  3 21  1  6  0  0  0
  4 10  1  0  0  0  0
  5 19  1  0  0  0  0
  7  6  1  0  0  0  0
  7  5  1  0  0  0  0
  8  9  1  0  0  0  0
  8  4  2  0  0  0  0
  9  7  2  0  0  0  0
 10  5  2  0  0  0  0
 11  8  1  0  0  0  0
 12 11  1  0  0  0  0
 13 11  2  0  0  0  0
 14 12  1  0  0  0  0
 15 14  1  0  0  0  0
 16 15  1  0  0  0  0
 17 18  1  0  0  0  0
 18 16  1  0  0  0  0
 19 20  1  0  0  0  0
 22 21  1  1  0  0  0
 22 33  1  0  0  0  0
 24 22  1  0  0  0  0
 24 23  1  0  0  0  0
 25 24  2  0  0  0  0
 26 23  1  0  0  0  0
 26 27  1  1  0  0  0
 28 26  1  0  0  0  0
 30 29  1  6  0  0  0
 30 28  1  0  0  0  0
 31 32  1  0  0  0  0
 32 30  1  0  0  0  0
 33 34  3  0  0  0  0
M  END
>  <MODEL>
4

>  <REMARK>
 VINA RESULT:      -7.0      2.973      8.396
  Name = 
  15 active torsions:
  status: ('A' for Active; 'I' for Inactive)
    1  A    between atoms: C_2  and  C_16
    2  A    between atoms: C_3  and  C_8
    3  A    between atoms: C_3  and  O_20
    4  A    between atoms: C_4  and  C_8
    5  A    between atoms: C_4  and  N_17
    6  A    between atoms: N_6  and  C_14
    7  A    between atoms: C_7  and  C_31
    8  A    between atoms: C_9  and  C_31
    9  A    between atoms: C_10  and  C_26
   10  A    between atoms: C_13  and  C_22
   11  A    between atoms: C_13  and  N_25
   12  A    between atoms: C_14  and  N_25
   13  A    between atoms: C_24  and  C_29
   14  A    between atoms: C_28  and  C_34
   15  A    between atoms: C_31  and  C_34
                            x       y       z     vdW  Elec       q    Type
                         _______ _______ _______ _____ _____    ______ ____

>  <TORSDO>
F 15

$$$$
=
 OpenBabel11042412173D

 34 35  0  0  1  0  0  0  0  0999 V2000
  187.9910  178.3190  141.8480 C   0  0  0  0  0  2  0  0  0  0  0  0
  187.8470  177.2250  142.8890 C   0  0  2  0  0  3  0  0  0  0  0  0
  186.8830  178.3900  142.8870 C   0  0  2  0  0  3  0  0  0  0  0  0
  190.8900  177.2430  145.2400 N   0  0  0  0  0  0  0  0  0  0  0  0
  188.9350  177.1210  146.5190 C   0  0  0  0  0  0  0  0  0  0  0  0
  186.3860  177.1220  145.4870 Cl  0  0  0  0  0  0  0  0  0  0  0  0
  188.1510  177.1830  145.3560 C   0  0  0  0  0  0  0  0  0  0  0  0
  190.2010  177.3540  144.0720 C   0  0  0  0  0  0  0  0  0  0  0  0
  188.7770  177.2790  144.0960 C   0  0  0  0  0  0  0  0  0  0  0  0
  190.2830  177.1240  146.4190 N   0  0  0  0  0  0  0  0  0  0  0  0
  191.0030  177.6280  142.8680 C   0  0  0  0  0  0  0  0  0  0  0  0
  190.8130  176.8340  141.6920 N   0  0  0  0  0  2  0  0  0  0  0  0
  191.8030  178.6020  142.8560 O   0  0  0  0  0  0  0  0  0  0  0  0
  191.4120  177.1680  140.4100 C   0  0  0  0  0  2  0  0  0  0  0  0
  190.7590  176.3940  139.2730 C   0  0  0  0  0  2  0  0  0  0  0  0
  189.4520  177.0470  138.8370 C   0  0  0  0  0  2  0  0  0  0  0  0
  188.9160  178.7450  137.5100 C   0  0  0  0  0  1  0  0  0  0  0  0
  189.6240  178.4260  138.6730 O   0  0  0  0  0  0  0  0  0  0  0  0
  188.3140  177.0590  147.8760 C   0  0  0  0  0  2  0  0  0  0  0  0
  188.6610  178.2530  148.6280 N   0  0  0  0  0  1  0  0  0  0  0  0
  185.5700  177.9590  142.2620 C   0  0  0  0  0  2  0  0  0  0  0  0
  184.5370  179.0750  142.3610 C   0  0  1  0  0  3  0  0  0  0  0  0
  182.3190  178.4540  141.3340 N   0  0  0  0  0  2  0  0  0  0  0  0
  183.6140  179.0470  141.1890 C   0  0  0  0  0  0  0  0  0  0  0  0
  183.9680  179.5390  140.0800 O   0  0  0  0  0  0  0  0  0  0  0  0
  181.3310  178.4210  140.2600 C   0  0  1  0  0  3  0  0  0  0  0  0
  181.3630  177.0730  139.5570 C   0  0  0  0  0  1  0  0  0  0  0  0
  179.9840  178.7230  140.7550 N   0  0  0  0  0  2  0  0  0  0  0  0
  179.2520  177.6360  142.6860 O   0  0  0  0  0  1  0  0  0  0  0  0
  179.9480  178.7460  142.2140 C   0  0  2  0  0  3  0  0  0  0  0  0
  179.6530  181.1060  141.9010 O   0  0  0  0  0  1  0  0  0  0  0  0
  179.2870  180.0240  142.7060 C   0  0  0  0  0  2  0  0  0  0  0  0
  183.7730  178.9750  143.6140 C   0  0  0  0  0  0  0  0  0  0  0  0
  183.1410  178.8970  144.6390 C   0  0  0  0  0  3  0  0  0  0  0  0
  1  3  1  0  0  0  0
  1  2  1  0  0  0  0
  2  9  1  1  0  0  0
  3 21  1  6  0  0  0
  3  2  1  0  0  0  0
  4 10  1  0  0  0  0
  5 19  1  0  0  0  0
  7  6  1  0  0  0  0
  7  5  1  0  0  0  0
  8  9  1  0  0  0  0
  8  4  2  0  0  0  0
  9  7  2  0  0  0  0
 10  5  2  0  0  0  0
 11  8  1  0  0  0  0
 12 11  1  0  0  0  0
 13 11  2  0  0  0  0
 14 12  1  0  0  0  0
 15 14  1  0  0  0  0
 16 15  1  0  0  0  0
 17 18  1  0  0  0  0
 18 16  1  0  0  0  0
 19 20  1  0  0  0  0
 22 21  1  6  0  0  0
 22 33  1  0  0  0  0
 24 23  1  0  0  0  0
 24 22  1  0  0  0  0
 25 24  2  0  0  0  0
 26 27  1  1  0  0  0
 26 28  1  0  0  0  0
 26 23  1  0  0  0  0
 28 30  1  0  0  0  0
 30 29  1  6  0  0  0
 30 32  1  0  0  0  0
 31 32  1  0  0  0  0
 33 34  3  0  0  0  0
M  END
>  <MODEL>
5

>  <REMARK>
 VINA RESULT:      -6.8      2.566      8.243
  Name = 
  15 active torsions:
  status: ('A' for Active; 'I' for Inactive)
    1  A    between atoms: C_2  and  C_16
    2  A    between atoms: C_3  and  C_8
    3  A    between atoms: C_3  and  O_20
    4  A    between atoms: C_4  and  C_8
    5  A    between atoms: C_4  and  N_17
    6  A    between atoms: N_6  and  C_14
    7  A    between atoms: C_7  and  C_31
    8  A    between atoms: C_9  and  C_31
    9  A    between atoms: C_10  and  C_26
   10  A    between atoms: C_13  and  C_22
   11  A    between atoms: C_13  and  N_25
   12  A    between atoms: C_14  and  N_25
   13  A    between atoms: C_24  and  C_29
   14  A    between atoms: C_28  and  C_34
   15  A    between atoms: C_31  and  C_34
                            x       y       z     vdW  Elec       q    Type
                         _______ _______ _______ _____ _____    ______ ____

>  <TORSDO>
F 15

$$$$
=
 OpenBabel11042412173D

 34 35  0  0  1  0  0  0  0  0999 V2000
  187.0890  178.5140  141.2570 C   0  0  0  0  0  2  0  0  0  0  0  0
  186.7780  179.0200  142.6520 C   0  0  2  0  0  3  0  0  0  0  0  0
  187.4350  177.6700  142.4730 C   0  0  2  0  0  3  0  0  0  0  0  0
  183.6100  178.3750  144.7360 N   0  0  0  0  0  0  0  0  0  0  0  0
  183.0030  178.7090  142.5010 C   0  0  0  0  0  0  0  0  0  0  0  0
  184.7650  179.2740  140.4670 Cl  0  0  0  0  0  0  0  0  0  0  0  0
  184.3440  178.9340  142.1530 C   0  0  0  0  0  0  0  0  0  0  0  0
  184.9240  178.6270  144.4880 C   0  0  0  0  0  0  0  0  0  0  0  0
  185.3430  178.8750  143.1470 C   0  0  0  0  0  0  0  0  0  0  0  0
  182.6840  178.4080  143.7790 N   0  0  0  0  0  0  0  0  0  0  0  0
  185.8050  178.7010  145.6650 C   0  0  0  0  0  0  0  0  0  0  0  0
  186.7270  177.6390  145.9310 N   0  0  0  0  0  2  0  0  0  0  0  0
  185.7910  179.7300  146.3940 O   0  0  0  0  0  0  0  0  0  0  0  0
  187.7630  177.7300  146.9460 C   0  0  0  0  0  2  0  0  0  0  0  0
  189.1470  177.5160  146.3480 C   0  0  0  0  0  2  0  0  0  0  0  0
  190.1370  177.0300  147.4010 C   0  0  0  0  0  2  0  0  0  0  0  0
  192.0830  175.9690  147.5290 C   0  0  0  0  0  1  0  0  0  0  0  0
  191.4390  177.0320  146.8880 O   0  0  0  0  0  0  0  0  0  0  0  0
  181.9080  178.8020  141.4890 C   0  0  0  0  0  2  0  0  0  0  0  0
  180.7960  179.5600  142.0380 N   0  0  0  0  0  1  0  0  0  0  0  0
  188.9180  177.7850  142.7690 C   0  0  0  0  0  2  0  0  0  0  0  0
  189.6800  176.6230  142.1450 C   0  0  1  0  0  3  0  0  0  0  0  0
  189.7940  176.7410  139.6280 N   0  0  0  0  0  2  0  0  0  0  0  0
  190.3760  177.0560  140.8970 C   0  0  0  0  0  0  0  0  0  0  0  0
  191.4660  177.6910  140.9570 O   0  0  0  0  0  0  0  0  0  0  0  0
  190.3750  177.1610  138.3560 C   0  0  1  0  0  3  0  0  0  0  0  0
  191.5590  176.2770  138.0000 C   0  0  0  0  0  1  0  0  0  0  0  0
  189.3780  177.1620  137.2800 N   0  0  0  0  0  2  0  0  0  0  0  0
  189.0780  179.3260  138.1030 O   0  0  0  0  0  1  0  0  0  0  0  0
  188.9240  178.5170  136.9790 C   0  0  2  0  0  3  0  0  0  0  0  0
  186.6270  178.7220  137.6380 O   0  0  0  0  0  1  0  0  0  0  0  0
  187.4680  178.5010  136.5440 C   0  0  0  0  0  2  0  0  0  0  0  0
  190.6480  176.0570  143.0970 C   0  0  0  0  0  0  0  0  0  0  0  0
  191.4470  175.5990  143.8770 C   0  0  0  0  0  3  0  0  0  0  0  0
  1  3  1  0  0  0  0
  1  2  1  0  0  0  0
  2  9  1  6  0  0  0
  3  2  1  0  0  0  0
  3 21  1  1  0  0  0
  5 10  1  0  0  0  0
  6  7  1  0  0  0  0
  7  5  2  0  0  0  0
  7  9  1  0  0  0  0
  8  4  1  0  0  0  0
  8 11  1  0  0  0  0
  9  8  2  0  0  0  0
 10  4  2  0  0  0  0
 11 12  1  0  0  0  0
 11 13  2  0  0  0  0
 12 14  1  0  0  0  0
 15 14  1  0  0  0  0
 15 16  1  0  0  0  0
 18 16  1  0  0  0  0
 18 17  1  0  0  0  0
 19 20  1  0  0  0  0
 19  5  1  0  0  0  0
 22 21  1  1  0  0  0
 22 33  1  0  0  0  0
 23 24  1  0  0  0  0
 24 25  2  0  0  0  0
 24 22  1  0  0  0  0
 26 27  1  6  0  0  0
 26 23  1  0  0  0  0
 28 26  1  0  0  0  0
 30 28  1  0  0  0  0
 30 29  1  1  0  0  0
 32 30  1  0  0  0  0
 32 31  1  0  0  0  0
 33 34  3  0  0  0  0
M  END
>  <MODEL>
6

>  <REMARK>
 VINA RESULT:      -6.7      2.694      6.864
  Name = 
  15 active torsions:
  status: ('A' for Active; 'I' for Inactive)
    1  A    between atoms: C_2  and  C_16
    2  A    between atoms: C_3  and  C_8
    3  A    between atoms: C_3  and  O_20
    4  A    between atoms: C_4  and  C_8
    5  A    between atoms: C_4  and  N_17
    6  A    between atoms: N_6  and  C_14
    7  A    between atoms: C_7  and  C_31
    8  A    between atoms: C_9  and  C_31
    9  A    between atoms: C_10  and  C_26
   10  A    between atoms: C_13  and  C_22
   11  A    between atoms: C_13  and  N_25
   12  A    between atoms: C_14  and  N_25
   13  A    between atoms: C_24  and  C_29
   14  A    between atoms: C_28  and  C_34
   15  A    between atoms: C_31  and  C_34
                            x       y       z     vdW  Elec       q    Type
                         _______ _______ _______ _____ _____    ______ ____

>  <TORSDO>
F 15

$$$$
=
 OpenBabel11042412173D

 34 35  0  0  1  0  0  0  0  0999 V2000
  188.6620  177.9320  144.2580 C   0  0  0  0  0  2  0  0  0  0  0  0
  187.3180  177.2400  144.1360 C   0  0  2  0  0  3  0  0  0  0  0  0
  187.8670  178.0240  142.9650 C   0  0  2  0  0  3  0  0  0  0  0  0
  184.7140  178.7400  146.5370 N   0  0  0  0  0  0  0  0  0  0  0  0
  183.8720  178.8060  144.3550 C   0  0  0  0  0  0  0  0  0  0  0  0
  185.2300  177.9440  142.1250 Cl  0  0  0  0  0  0  0  0  0  0  0  0
  185.0640  178.2540  143.8600 C   0  0  0  0  0  0  0  0  0  0  0  0
  185.9150  178.2470  146.1310 C   0  0  0  0  0  0  0  0  0  0  0  0
  186.1110  177.9400  144.7520 C   0  0  0  0  0  0  0  0  0  0  0  0
  183.7260  179.0040  145.6830 N   0  0  0  0  0  0  0  0  0  0  0  0
  186.9590  178.1450  147.1650 C   0  0  0  0  0  0  0  0  0  0  0  0
  187.7250  176.9420  147.2860 N   0  0  0  0  0  2  0  0  0  0  0  0
  187.2180  179.1420  147.8930 O   0  0  0  0  0  0  0  0  0  0  0  0
  188.8990  176.8380  148.1370 C   0  0  0  0  0  2  0  0  0  0  0  0
  190.1700  177.1920  147.3760 C   0  0  0  0  0  2  0  0  0  0  0  0
  191.1250  176.0060  147.3090 C   0  0  0  0  0  2  0  0  0  0  0  0
  191.6760  176.2500  145.1730 C   0  0  0  0  0  1  0  0  0  0  0  0
  192.2050  176.2920  146.4670 O   0  0  0  0  0  0  0  0  0  0  0  0
  182.7530  179.1910  143.4430 C   0  0  0  0  0  2  0  0  0  0  0  0
  181.5070  178.6230  143.9300 N   0  0  0  0  0  1  0  0  0  0  0  0
  188.4460  177.0650  141.9420 C   0  0  0  0  0  2  0  0  0  0  0  0
  189.0100  177.8300  140.7510 C   0  0  1  0  0  3  0  0  0  0  0  0
  189.9490  176.3530  138.9350 N   0  0  0  0  0  2  0  0  0  0  0  0
  190.1560  177.0920  140.1430 C   0  0  0  0  0  0  0  0  0  0  0  0
  191.2960  177.1150  140.6870 O   0  0  0  0  0  0  0  0  0  0  0  0
  191.0170  175.6380  138.2430 C   0  0  1  0  0  3  0  0  0  0  0  0
  190.4320  174.5840  137.3180 C   0  0  0  0  0  1  0  0  0  0  0  0
  191.8920  176.5560  137.5050 N   0  0  0  0  0  2  0  0  0  0  0  0
  193.9320  176.0580  138.5240 O   0  0  0  0  0  1  0  0  0  0  0  0
  193.2250  175.9890  137.3260 C   0  0  2  0  0  3  0  0  0  0  0  0
  195.2550  176.2020  136.0650 O   0  0  0  0  0  1  0  0  0  0  0  0
  193.9740  176.7360  136.2340 C   0  0  0  0  0  2  0  0  0  0  0  0
  187.9680  178.0740  139.7410 C   0  0  0  0  0  0  0  0  0  0  0  0
  187.1120  178.2660  138.9130 C   0  0  0  0  0  3  0  0  0  0  0  0
  2  1  1  0  0  0  0
  2  9  1  1  0  0  0
  3 21  1  6  0  0  0
  3  2  1  0  0  0  0
  3  1  1  0  0  0  0
  5 10  1  0  0  0  0
  6  7  1  0  0  0  0
  7  5  2  0  0  0  0
  7  9  1  0  0  0  0
  8  4  1  0  0  0  0
  8 11  1  0  0  0  0
  9  8  2  0  0  0  0
 10  4  2  0  0  0  0
 11 12  1  0  0  0  0
 11 13  2  0  0  0  0
 12 14  1  0  0  0  0
 15 14  1  0  0  0  0
 16 15  1  0  0  0  0
 17 18  1  0  0  0  0
 18 16  1  0  0  0  0
 19 20  1  0  0  0  0
 19  5  1  0  0  0  0
 22 33  1  6  0  0  0
 22 21  1  0  0  0  0
 23 24  1  0  0  0  0
 24 25  2  0  0  0  0
 24 22  1  0  0  0  0
 26 27  1  6  0  0  0
 26 23  1  0  0  0  0
 28 26  1  0  0  0  0
 30 28  1  0  0  0  0
 30 29  1  1  0  0  0
 31 32  1  0  0  0  0
 32 30  1  0  0  0  0
 34 33  3  0  0  0  0
M  END
>  <MODEL>
7

>  <REMARK>
 VINA RESULT:      -6.7      3.530      7.392
  Name = 
  15 active torsions:
  status: ('A' for Active; 'I' for Inactive)
    1  A    between atoms: C_2  and  C_16
    2  A    between atoms: C_3  and  C_8
    3  A    between atoms: C_3  and  O_20
    4  A    between atoms: C_4  and  C_8
    5  A    between atoms: C_4  and  N_17
    6  A    between atoms: N_6  and  C_14
    7  A    between atoms: C_7  and  C_31
    8  A    between atoms: C_9  and  C_31
    9  A    between atoms: C_10  and  C_26
   10  A    between atoms: C_13  and  C_22
   11  A    between atoms: C_13  and  N_25
   12  A    between atoms: C_14  and  N_25
   13  A    between atoms: C_24  and  C_29
   14  A    between atoms: C_28  and  C_34
   15  A    between atoms: C_31  and  C_34
                            x       y       z     vdW  Elec       q    Type
                         _______ _______ _______ _____ _____    ______ ____

>  <TORSDO>
F 15

$$$$
=
 OpenBabel11042412173D

 34 35  0  0  1  0  0  0  0  0999 V2000
  188.6970  176.6720  144.4530 C   0  0  0  0  0  2  0  0  0  0  0  0
  187.3240  176.9130  143.8550 C   0  0  2  0  0  3  0  0  0  0  0  0
  188.4910  177.7730  143.4260 C   0  0  2  0  0  3  0  0  0  0  0  0
  185.2990  178.5050  146.7110 N   0  0  0  0  0  0  0  0  0  0  0  0
  184.2240  178.9330  144.6780 C   0  0  0  0  0  0  0  0  0  0  0  0
  185.1510  178.1320  142.2170 Cl  0  0  0  0  0  0  0  0  0  0  0  0
  185.2450  178.2700  143.9790 C   0  0  0  0  0  0  0  0  0  0  0  0
  186.3490  177.8880  146.1050 C   0  0  0  0  0  0  0  0  0  0  0  0
  186.3270  177.7100  144.6890 C   0  0  0  0  0  0  0  0  0  0  0  0
  184.2710  179.0030  146.0270 N   0  0  0  0  0  0  0  0  0  0  0  0
  187.4790  177.5210  146.9750 C   0  0  0  0  0  0  0  0  0  0  0  0
  188.7150  178.2350  146.8730 N   0  0  0  0  0  2  0  0  0  0  0  0
  187.3300  176.6270  147.8510 O   0  0  0  0  0  0  0  0  0  0  0  0
  189.8010  178.0720  147.8260 C   0  0  0  0  0  2  0  0  0  0  0  0
  190.4700  176.7130  147.6790 C   0  0  0  0  0  2  0  0  0  0  0  0
  191.5790  176.7510  146.6330 C   0  0  0  0  0  2  0  0  0  0  0  0
  192.8080  175.6270  148.1010 C   0  0  0  0  0  1  0  0  0  0  0  0
  192.4120  175.6340  146.7610 O   0  0  0  0  0  0  0  0  0  0  0  0
  183.0800  179.5760  143.9640 C   0  0  0  0  0  2  0  0  0  0  0  0
  181.9110  178.7160  144.0390 N   0  0  0  0  0  1  0  0  0  0  0  0
  188.9910  177.3080  142.0710 C   0  0  0  0  0  2  0  0  0  0  0  0
  190.5000  177.0950  142.1020 C   0  0  1  0  0  3  0  0  0  0  0  0
  190.4540  176.4080  139.6760 N   0  0  0  0  0  2  0  0  0  0  0  0
  191.0710  177.1620  140.7240 C   0  0  0  0  0  0  0  0  0  0  0  0
  192.0870  177.8720  140.4840 O   0  0  0  0  0  0  0  0  0  0  0  0
  190.9110  176.4450  138.2900 C   0  0  1  0  0  3  0  0  0  0  0  0
  191.3110  175.0520  137.8300 C   0  0  0  0  0  1  0  0  0  0  0  0
  189.8960  177.0200  137.4000 N   0  0  0  0  0  2  0  0  0  0  0  0
  187.8520  175.8980  137.3210 O   0  0  0  0  0  1  0  0  0  0  0  0
  188.5600  176.9030  137.9750 C   0  0  2  0  0  3  0  0  0  0  0  0
  187.3300  178.6240  139.1060 O   0  0  0  0  0  1  0  0  0  0  0  0
  187.8170  178.2240  137.8590 C   0  0  0  0  0  2  0  0  0  0  0  0
  191.1530  178.0850  142.9720 C   0  0  0  0  0  0  0  0  0  0  0  0
  191.6840  178.8950  143.6920 C   0  0  0  0  0  3  0  0  0  0  0  0
  2  1  1  0  0  0  0
  2  9  1  1  0  0  0
  3 21  1  6  0  0  0
  3  2  1  0  0  0  0
  3  1  1  0  0  0  0
  5 10  1  0  0  0  0
  6  7  1  0  0  0  0
  7  5  2  0  0  0  0
  7  9  1  0  0  0  0
  8  4  1  0  0  0  0
  8 11  1  0  0  0  0
  9  8  2  0  0  0  0
 10  4  2  0  0  0  0
 11 13  2  0  0  0  0
 12 11  1  0  0  0  0
 12 14  1  0  0  0  0
 15 14  1  0  0  0  0
 16 18  1  0  0  0  0
 16 15  1  0  0  0  0
 18 17  1  0  0  0  0
 19 20  1  0  0  0  0
 19  5  1  0  0  0  0
 22 21  1  6  0  0  0
 22 33  1  0  0  0  0
 23 24  1  0  0  0  0
 24 22  1  0  0  0  0
 25 24  2  0  0  0  0
 26 27  1  6  0  0  0
 26 23  1  0  0  0  0
 28 30  1  0  0  0  0
 28 26  1  0  0  0  0
 30 29  1  6  0  0  0
 32 30  1  0  0  0  0
 32 31  1  0  0  0  0
 33 34  3  0  0  0  0
M  END
>  <MODEL>
8

>  <REMARK>
 VINA RESULT:      -6.6      2.789      7.429
  Name = 
  15 active torsions:
  status: ('A' for Active; 'I' for Inactive)
    1  A    between atoms: C_2  and  C_16
    2  A    between atoms: C_3  and  C_8
    3  A    between atoms: C_3  and  O_20
    4  A    between atoms: C_4  and  C_8
    5  A    between atoms: C_4  and  N_17
    6  A    between atoms: N_6  and  C_14
    7  A    between atoms: C_7  and  C_31
    8  A    between atoms: C_9  and  C_31
    9  A    between atoms: C_10  and  C_26
   10  A    between atoms: C_13  and  C_22
   11  A    between atoms: C_13  and  N_25
   12  A    between atoms: C_14  and  N_25
   13  A    between atoms: C_24  and  C_29
   14  A    between atoms: C_28  and  C_34
   15  A    between atoms: C_31  and  C_34
                            x       y       z     vdW  Elec       q    Type
                         _______ _______ _______ _____ _____    ______ ____

>  <TORSDO>
F 15

$$$$
=
 OpenBabel11042412173D

 34 35  0  0  1  0  0  0  0  0999 V2000
  187.5780  178.3370  141.8580 C   0  0  0  0  0  2  0  0  0  0  0  0
  187.5790  177.1900  142.8500 C   0  0  2  0  0  3  0  0  0  0  0  0
  186.5890  178.3210  143.0110 C   0  0  2  0  0  3  0  0  0  0  0  0
  190.8490  177.0690  144.8720 N   0  0  0  0  0  0  0  0  0  0  0  0
  189.0360  177.1260  146.3490 C   0  0  0  0  0  0  0  0  0  0  0  0
  186.3980  177.2720  145.5880 Cl  0  0  0  0  0  0  0  0  0  0  0  0
  188.1390  177.2050  145.2730 C   0  0  0  0  0  0  0  0  0  0  0  0
  190.0490  177.1910  143.7780 C   0  0  0  0  0  0  0  0  0  0  0  0
  188.6330  177.2170  143.9520 C   0  0  0  0  0  0  0  0  0  0  0  0
  190.3630  177.0310  146.1110 N   0  0  0  0  0  0  0  0  0  0  0  0
  190.7350  177.3690  142.4870 C   0  0  0  0  0  0  0  0  0  0  0  0
  190.3350  176.5890  141.3560 N   0  0  0  0  0  2  0  0  0  0  0  0
  191.6240  178.2560  142.3680 O   0  0  0  0  0  0  0  0  0  0  0  0
  190.8190  176.8470  140.0100 C   0  0  0  0  0  2  0  0  0  0  0  0
  189.6690  177.1180  139.0490 C   0  0  0  0  0  2  0  0  0  0  0  0
  189.4300  178.6140  138.8780 C   0  0  0  0  0  2  0  0  0  0  0  0
  187.5570  177.7110  138.1000 C   0  0  0  0  0  1  0  0  0  0  0  0
  188.3700  178.8430  137.9940 O   0  0  0  0  0  0  0  0  0  0  0  0
  188.5600  177.1500  147.7650 C   0  0  0  0  0  2  0  0  0  0  0  0
  189.0690  178.3360  148.4330 N   0  0  0  0  0  1  0  0  0  0  0  0
  185.2280  177.8770  142.5100 C   0  0  0  0  0  2  0  0  0  0  0  0
  184.2110  179.0030  142.6540 C   0  0  1  0  0  3  0  0  0  0  0  0
  183.4970  179.0900  140.2360 N   0  0  0  0  0  2  0  0  0  0  0  0
  183.1490  178.8920  141.6100 C   0  0  0  0  0  0  0  0  0  0  0  0
  181.9560  178.6290  141.9330 O   0  0  0  0  0  0  0  0  0  0  0  0
  182.5390  178.9580  139.1420 C   0  0  1  0  0  3  0  0  0  0  0  0
  182.2550  180.3170  138.5230 C   0  0  0  0  0  1  0  0  0  0  0  0
  183.0050  178.0060  138.1280 N   0  0  0  0  0  2  0  0  0  0  0  0
  180.8180  177.2190  137.9190 O   0  0  0  0  0  1  0  0  0  0  0  0
  182.1450  176.8270  138.0730 C   0  0  2  0  0  3  0  0  0  0  0  0
  181.1340  175.2770  139.5980 O   0  0  0  0  0  1  0  0  0  0  0  0
  182.3010  176.0000  139.3380 C   0  0  0  0  0  2  0  0  0  0  0  0
  183.6080  178.9990  143.9960 C   0  0  0  0  0  0  0  0  0  0  0  0
  183.1140  179.0030  145.0970 C   0  0  0  0  0  3  0  0  0  0  0  0
  1  2  1  0  0  0  0
  1  3  1  0  0  0  0
  2  3  1  0  0  0  0
  2  9  1  1  0  0  0
  3 21  1  6  0  0  0
  4 10  1  0  0  0  0
  5 19  1  0  0  0  0
  7  6  1  0  0  0  0
  7  5  1  0  0  0  0
  8  9  1  0  0  0  0
  8  4  2  0  0  0  0
  9  7  2  0  0  0  0
 10  5  2  0  0  0  0
 11  8  1  0  0  0  0
 12 11  1  0  0  0  0
 13 11  2  0  0  0  0
 14 12  1  0  0  0  0
 15 14  1  0  0  0  0
 16 15  1  0  0  0  0
 18 17  1  0  0  0  0
 18 16  1  0  0  0  0
 19 20  1  0  0  0  0
 22 21  1  1  0  0  0
 22 33  1  0  0  0  0
 23 24  1  0  0  0  0
 24 25  2  0  0  0  0
 24 22  1  0  0  0  0
 26 27  1  6  0  0  0
 26 23  1  0  0  0  0
 28 26  1  0  0  0  0
 30 29  1  1  0  0  0
 30 28  1  0  0  0  0
 30 32  1  0  0  0  0
 32 31  1  0  0  0  0
 33 34  3  0  0  0  0
M  END
>  <MODEL>
9

>  <REMARK>
 VINA RESULT:      -6.5      2.670      8.026
  Name = 
  15 active torsions:
  status: ('A' for Active; 'I' for Inactive)
    1  A    between atoms: C_2  and  C_16
    2  A    between atoms: C_3  and  C_8
    3  A    between atoms: C_3  and  O_20
    4  A    between atoms: C_4  and  C_8
    5  A    between atoms: C_4  and  N_17
    6  A    between atoms: N_6  and  C_14
    7  A    between atoms: C_7  and  C_31
    8  A    between atoms: C_9  and  C_31
    9  A    between atoms: C_10  and  C_26
   10  A    between atoms: C_13  and  C_22
   11  A    between atoms: C_13  and  N_25
   12  A    between atoms: C_14  and  N_25
   13  A    between atoms: C_24  and  C_29
   14  A    between atoms: C_28  and  C_34
   15  A    between atoms: C_31  and  C_34
                            x       y       z     vdW  Elec       q    Type
                         _______ _______ _______ _____ _____    ______ ____

>  <TORSDO>
F 15

$$$$
