=
 OpenBabel11042411513D

 35 40  0  0  1  0  0  0  0  0999 V2000
  188.4070  177.7550  144.9620 N   0  0  0  0  0  0  0  0  0  0  0  0
  190.9690  177.0740  147.5230 C   0  0  2  0  0  3  0  0  0  0  0  0
  190.7730  177.0840  145.0880 C   0  0  0  0  0  2  0  0  0  0  0  0
  189.6830  177.9750  145.6580 C   0  0  2  0  0  3  0  0  0  0  0  0
  191.1510  175.6380  147.0760 C   0  0  0  0  0  2  0  0  0  0  0  0
  189.5940  177.5770  147.1200 C   0  0  0  0  0  2  0  0  0  0  0  0
  191.7170  176.7650  146.2340 C   0  0  2  0  0  3  0  0  0  0  0  0
  188.6010  176.7960  143.9520 N   0  0  0  0  0  2  0  0  0  0  0  0
  187.9940  177.3280  142.7420 C   0  0  0  0  0  2  0  0  0  0  0  0
  189.0060  178.1720  141.9830 C   0  0  0  0  0  2  0  0  0  0  0  0
  189.2400  177.7770  139.4870 C   0  0  0  0  0  0  0  0  0  0  0  0
  189.5340  177.4310  140.8440 N   0  0  0  0  0  2  0  0  0  0  0  0
  188.4350  178.7140  139.2330 O   0  0  0  0  0  0  0  0  0  0  0  0
  191.3270  176.0230  138.6640 S   0  0  0  0  0  0  0  0  0  0  0  0
  190.4690  176.3760  135.8760 S   0  0  0  0  0  0  0  0  0  0  0  0
  191.9090  176.4300  136.9850 C   0  0  2  0  0  3  0  0  0  0  0  0
  189.5310  177.2440  137.1210 C   0  0  0  0  0  3  0  0  0  0  0  0
  189.8960  177.0620  138.3830 C   0  0  0  0  0  0  0  0  0  0  0  0
  194.1910  173.3100  136.6860 C   0  0  0  0  0  2  0  0  0  0  0  0
  193.0340  175.5150  136.5030 C   0  0  2  0  0  3  0  0  0  0  0  0
  193.0820  174.1840  137.2640 C   0  0  0  0  0  2  0  0  0  0  0  0
  195.3440  175.3930  135.9480 C   0  0  0  0  0  2  0  0  0  0  0  0
  195.5140  174.0670  136.6870 C   0  0  0  0  0  2  0  0  0  0  0  0
  194.3200  176.2050  136.6040 N   0  0  0  0  0  2  0  0  0  0  0  0
  187.3850  177.2410  145.8900 C   0  0  0  0  0  2  0  0  0  0  0  0
  185.9500  177.4070  145.3810 C   0  0  0  0  0  2  0  0  0  0  0  0
  184.0560  179.0210  145.3760 C   0  0  0  0  0  2  0  0  0  0  0  0
  184.7710  179.2860  144.0630 C   0  0  1  0  0  3  0  0  0  0  0  0
  185.5630  178.8830  145.3140 C   0  0  2  0  0  3  0  0  0  0  0  0
  184.4760  178.1440  143.0940 C   0  0  0  0  0  2  0  0  0  0  0  0
  185.4050  179.1670  140.9460 C   0  0  0  0  0  3  0  0  0  0  0  0
  184.8860  179.5130  139.7510 N   0  0  0  0  0  0  0  0  0  0  0  0
  183.2680  178.7010  141.0040 O   0  0  0  0  0  0  0  0  0  0  0  0
  184.3720  178.6700  141.7060 C   0  0  0  0  0  0  0  0  0  0  0  0
  183.5720  179.2090  139.8320 C   0  0  0  0  0  3  0  0  0  0  0  0
  1 25  1  0  0  0  0
  2  5  1  1  0  0  0
  3  4  1  0  0  0  0
  4  1  1  6  0  0  0
  4  6  1  0  0  0  0
  6  2  1  0  0  0  0
  7  3  1  6  0  0  0
  7  5  1  0  0  0  0
  7  2  1  0  0  0  0
  8  1  1  0  0  0  0
  9  8  1  0  0  0  0
 10  9  1  0  0  0  0
 11 12  1  0  0  0  0
 12 10  1  0  0  0  0
 13 11  2  0  0  0  0
 15 17  1  0  0  0  0
 16 15  1  6  0  0  0
 16 14  1  0  0  0  0
 17 18  2  0  0  0  0
 18 14  1  0  0  0  0
 18 11  1  0  0  0  0
 19 23  1  0  0  0  0
 19 21  1  0  0  0  0
 20 24  1  0  0  0  0
 20 16  1  0  0  0  0
 20 21  1  1  0  0  0
 22 24  1  0  0  0  0
 22 23  1  0  0  0  0
 26 25  1  0  0  0  0
 28 30  1  6  0  0  0
 28 29  1  0  0  0  0
 28 27  1  0  0  0  0
 29 27  1  0  0  0  0
 29 26  1  6  0  0  0
 31 34  2  0  0  0  0
 32 35  2  0  0  0  0
 32 31  1  0  0  0  0
 33 34  1  0  0  0  0
 34 30  1  0  0  0  0
 35 33  1  0  0  0  0
M  END
>  <MODEL>
1

>  <REMARK>
 VINA RESULT:      -7.9      0.000      0.000
  Name = 
  12 active torsions:
  status: ('A' for Active; 'I' for Inactive)
    1  A    between atoms: C_5  and  C_17
    2  A    between atoms: C_9  and  C_23
    3  A    between atoms: C_11  and  N_19
    4  A    between atoms: N_13  and  C_15
    5  A    between atoms: C_14  and  C_29
    6  A    between atoms: C_15  and  C_34
    7  A    between atoms: N_19  and  N_28
    8  A    between atoms: N_19  and  C_33
    9  A    between atoms: N_28  and  C_34
   10  A    between atoms: C_29  and  C_31
   11  A    between atoms: C_32  and  C_33
   12  A    between atoms: C_32  and  C_35
                            x       y       z     vdW  Elec       q    Type
                         _______ _______ _______ _____ _____    ______ ____

>  <TORSDO>
F 12

$$$$
=
 OpenBabel11042411513D

 35 40  0  0  1  0  0  0  0  0999 V2000
  188.1070  177.8280  143.7450 N   0  0  0  0  0  0  0  0  0  0  0  0
  191.4170  176.3660  143.0470 C   0  0  2  0  0  3  0  0  0  0  0  0
  190.4780  178.4910  143.8010 C   0  0  0  0  0  2  0  0  0  0  0  0
  189.4680  177.3940  144.0900 C   0  0  2  0  0  3  0  0  0  0  0  0
  191.7250  177.3760  141.9610 C   0  0  0  0  0  2  0  0  0  0  0  0
  189.9160  176.2300  143.2250 C   0  0  0  0  0  2  0  0  0  0  0  0
  191.7740  177.7990  143.4160 C   0  0  2  0  0  3  0  0  0  0  0  0
  187.6870  177.1340  142.5960 N   0  0  0  0  0  2  0  0  0  0  0  0
  187.1460  178.1240  141.6780 C   0  0  0  0  0  2  0  0  0  0  0  0
  188.2750  178.7880  140.9060 C   0  0  0  0  0  2  0  0  0  0  0  0
  189.2150  178.2220  138.6170 C   0  0  0  0  0  0  0  0  0  0  0  0
  188.8580  177.8510  139.9530 N   0  0  0  0  0  2  0  0  0  0  0  0
  188.9590  179.3810  138.1930 O   0  0  0  0  0  0  0  0  0  0  0  0
  191.2810  176.2830  138.3360 S   0  0  0  0  0  0  0  0  0  0  0  0
  190.5900  176.0180  135.4930 S   0  0  0  0  0  0  0  0  0  0  0  0
  191.9680  176.2890  136.6470 C   0  0  2  0  0  3  0  0  0  0  0  0
  189.6160  177.1640  136.4520 C   0  0  0  0  0  3  0  0  0  0  0  0
  189.9050  177.2620  137.7430 C   0  0  0  0  0  0  0  0  0  0  0  0
  193.8730  172.9130  136.7410 C   0  0  0  0  0  2  0  0  0  0  0  0
  193.0850  175.2650  136.4520 C   0  0  2  0  0  3  0  0  0  0  0  0
  192.7340  173.8880  137.0270 C   0  0  0  0  0  2  0  0  0  0  0  0
  195.4210  174.8660  136.6620 C   0  0  0  0  0  2  0  0  0  0  0  0
  195.1920  173.4780  137.2580 C   0  0  0  0  0  2  0  0  0  0  0  0
  194.3290  175.7610  137.0420 N   0  0  0  0  0  2  0  0  0  0  0  0
  187.1650  177.5190  144.8340 C   0  0  0  0  0  2  0  0  0  0  0  0
  187.4530  178.2760  146.1330 C   0  0  0  0  0  2  0  0  0  0  0  0
  187.9490  178.0370  148.5610 C   0  0  0  0  0  2  0  0  0  0  0  0
  188.7760  176.9460  147.9050 C   0  0  1  0  0  3  0  0  0  0  0  0
  187.4060  177.3340  147.3350 C   0  0  2  0  0  3  0  0  0  0  0  0
  189.9700  177.5800  147.1960 C   0  0  0  0  0  2  0  0  0  0  0  0
  191.6800  175.7800  146.5990 C   0  0  0  0  0  3  0  0  0  0  0  0
  192.8090  175.3100  147.1660 N   0  0  0  0  0  0  0  0  0  0  0  0
  191.9910  176.8960  148.4550 O   0  0  0  0  0  0  0  0  0  0  0  0
  191.1920  176.7630  147.4280 C   0  0  0  0  0  0  0  0  0  0  0  0
  192.9610  176.0240  148.3030 C   0  0  0  0  0  3  0  0  0  0  0  0
  1 25  1  0  0  0  0
  2  5  1  6  0  0  0
  2  6  1  0  0  0  0
  2  7  1  0  0  0  0
  3  4  1  0  0  0  0
  4  1  1  6  0  0  0
  6  4  1  0  0  0  0
  7  5  1  6  0  0  0
  7  3  1  0  0  0  0
  8  1  1  0  0  0  0
  9  8  1  0  0  0  0
 10  9  1  0  0  0  0
 11 12  1  0  0  0  0
 12 10  1  0  0  0  0
 13 11  2  0  0  0  0
 15 17  1  0  0  0  0
 16 15  1  6  0  0  0
 16 14  1  0  0  0  0
 17 18  2  0  0  0  0
 18 14  1  0  0  0  0
 18 11  1  0  0  0  0
 19 21  1  0  0  0  0
 19 23  1  0  0  0  0
 20 16  1  0  0  0  0
 20 21  1  1  0  0  0
 20 24  1  0  0  0  0
 22 24  1  0  0  0  0
 22 23  1  0  0  0  0
 25 26  1  0  0  0  0
 28 30  1  6  0  0  0
 28 27  1  0  0  0  0
 29 26  1  6  0  0  0
 29 28  1  0  0  0  0
 29 27  1  0  0  0  0
 30 34  1  0  0  0  0
 31 32  1  0  0  0  0
 31 34  2  0  0  0  0
 32 35  2  0  0  0  0
 34 33  1  0  0  0  0
 35 33  1  0  0  0  0
M  END
>  <MODEL>
2

>  <REMARK>
 VINA RESULT:      -7.7      2.353      4.872
  Name = 
  12 active torsions:
  status: ('A' for Active; 'I' for Inactive)
    1  A    between atoms: C_5  and  C_17
    2  A    between atoms: C_9  and  C_23
    3  A    between atoms: C_11  and  N_19
    4  A    between atoms: N_13  and  C_15
    5  A    between atoms: C_14  and  C_29
    6  A    between atoms: C_15  and  C_34
    7  A    between atoms: N_19  and  N_28
    8  A    between atoms: N_19  and  C_33
    9  A    between atoms: N_28  and  C_34
   10  A    between atoms: C_29  and  C_31
   11  A    between atoms: C_32  and  C_33
   12  A    between atoms: C_32  and  C_35
                            x       y       z     vdW  Elec       q    Type
                         _______ _______ _______ _____ _____    ______ ____

>  <TORSDO>
F 12

$$$$
=
 OpenBabel11042411513D

 35 40  0  0  1  0  0  0  0  0999 V2000
  188.4510  177.5840  143.0560 N   0  0  0  0  0  0  0  0  0  0  0  0
  191.5270  177.9150  145.0610 C   0  0  2  0  0  3  0  0  0  0  0  0
  190.4890  176.2940  143.5570 C   0  0  0  0  0  2  0  0  0  0  0  0
  189.9060  177.6640  143.2570 C   0  0  2  0  0  3  0  0  0  0  0  0
  191.2060  176.6980  145.9040 C   0  0  0  0  0  2  0  0  0  0  0  0
  190.2520  178.4990  144.4780 C   0  0  0  0  0  2  0  0  0  0  0  0
  191.6780  176.5190  144.4740 C   0  0  2  0  0  3  0  0  0  0  0  0
  188.1960  177.2840  141.7060 N   0  0  0  0  0  2  0  0  0  0  0  0
  188.6530  178.4240  140.9260 C   0  0  0  0  0  2  0  0  0  0  0  0
  188.2620  178.2440  139.4670 C   0  0  0  0  0  2  0  0  0  0  0  0
  189.7010  177.4670  137.5270 C   0  0  0  0  0  0  0  0  0  0  0  0
  189.1330  177.2670  138.8250 N   0  0  0  0  0  2  0  0  0  0  0  0
  189.3970  178.4890  136.8540 O   0  0  0  0  0  0  0  0  0  0  0  0
  192.0610  175.9300  137.9470 S   0  0  0  0  0  0  0  0  0  0  0  0
  191.8850  174.9770  135.1740 S   0  0  0  0  0  0  0  0  0  0  0  0
  193.0010  175.7250  136.3990 C   0  0  2  0  0  3  0  0  0  0  0  0
  190.6040  176.0910  135.7220 C   0  0  0  0  0  3  0  0  0  0  0  0
  190.6630  176.4970  136.9830 C   0  0  0  0  0  0  0  0  0  0  0  0
  195.6080  173.3440  138.0020 C   0  0  0  0  0  2  0  0  0  0  0  0
  194.2800  174.9070  136.5790 C   0  0  2  0  0  3  0  0  0  0  0  0
  194.3320  174.1790  137.9260 C   0  0  0  0  0  2  0  0  0  0  0  0
  196.6510  174.9330  136.3890 C   0  0  0  0  0  2  0  0  0  0  0  0
  196.8260  174.2190  137.7280 C   0  0  0  0  0  2  0  0  0  0  0  0
  195.4520  175.7690  136.4200 N   0  0  0  0  0  2  0  0  0  0  0  0
  187.8650  176.5130  143.8800 C   0  0  0  0  0  2  0  0  0  0  0  0
  186.5330  176.8950  144.5330 C   0  0  0  0  0  2  0  0  0  0  0  0
  185.5340  178.4830  146.1680 C   0  0  0  0  0  2  0  0  0  0  0  0
  185.3420  179.1650  144.8250 C   0  0  1  0  0  3  0  0  0  0  0  0
  186.5900  178.3140  145.0960 C   0  0  2  0  0  3  0  0  0  0  0  0
  184.2330  178.4530  144.0560 C   0  0  0  0  0  2  0  0  0  0  0  0
  185.3760  179.4420  141.9980 C   0  0  0  0  0  3  0  0  0  0  0  0
  185.1230  179.4460  140.6740 N   0  0  0  0  0  0  0  0  0  0  0  0
  183.5270  178.3140  141.6850 O   0  0  0  0  0  0  0  0  0  0  0  0
  184.3620  178.7350  142.6000 C   0  0  0  0  0  0  0  0  0  0  0  0
  183.9790  178.7410  140.5280 C   0  0  0  0  0  3  0  0  0  0  0  0
  1 25  1  0  0  0  0
  2  6  1  6  0  0  0
  2  5  1  0  0  0  0
  4  1  1  1  0  0  0
  4  3  1  0  0  0  0
  4  6  1  0  0  0  0
  7  3  1  6  0  0  0
  7  2  1  0  0  0  0
  7  5  1  0  0  0  0
  8  1  1  0  0  0  0
  9  8  1  0  0  0  0
 10  9  1  0  0  0  0
 11 12  1  0  0  0  0
 12 10  1  0  0  0  0
 13 11  2  0  0  0  0
 15 17  1  0  0  0  0
 16 15  1  6  0  0  0
 16 20  1  0  0  0  0
 16 14  1  0  0  0  0
 17 18  2  0  0  0  0
 18 11  1  0  0  0  0
 18 14  1  0  0  0  0
 20 21  1  1  0  0  0
 21 19  1  0  0  0  0
 22 24  1  0  0  0  0
 22 23  1  0  0  0  0
 23 19  1  0  0  0  0
 24 20  1  0  0  0  0
 25 26  1  0  0  0  0
 28 30  1  6  0  0  0
 28 29  1  0  0  0  0
 28 27  1  0  0  0  0
 29 26  1  6  0  0  0
 29 27  1  0  0  0  0
 31 34  2  0  0  0  0
 32 31  1  0  0  0  0
 33 34  1  0  0  0  0
 34 30  1  0  0  0  0
 35 32  2  0  0  0  0
 35 33  1  0  0  0  0
M  END
>  <MODEL>
3

>  <REMARK>
 VINA RESULT:      -7.6      1.338      1.789
  Name = 
  12 active torsions:
  status: ('A' for Active; 'I' for Inactive)
    1  A    between atoms: C_5  and  C_17
    2  A    between atoms: C_9  and  C_23
    3  A    between atoms: C_11  and  N_19
    4  A    between atoms: N_13  and  C_15
    5  A    between atoms: C_14  and  C_29
    6  A    between atoms: C_15  and  C_34
    7  A    between atoms: N_19  and  N_28
    8  A    between atoms: N_19  and  C_33
    9  A    between atoms: N_28  and  C_34
   10  A    between atoms: C_29  and  C_31
   11  A    between atoms: C_32  and  C_33
   12  A    between atoms: C_32  and  C_35
                            x       y       z     vdW  Elec       q    Type
                         _______ _______ _______ _____ _____    ______ ____

>  <TORSDO>
F 12

$$$$
=
 OpenBabel11042411513D

 35 40  0  0  1  0  0  0  0  0999 V2000
  188.8430  177.9690  142.0450 N   0  0  0  0  0  0  0  0  0  0  0  0
  191.6750  177.8630  144.4020 C   0  0  2  0  0  3  0  0  0  0  0  0
  190.2770  176.3000  143.1490 C   0  0  0  0  0  2  0  0  0  0  0  0
  190.2170  177.6510  142.4590 C   0  0  2  0  0  3  0  0  0  0  0  0
  190.8940  177.0720  145.4320 C   0  0  0  0  0  2  0  0  0  0  0  0
  190.7240  178.6320  143.5020 C   0  0  0  0  0  2  0  0  0  0  0  0
  191.3930  176.3850  144.1760 C   0  0  2  0  0  3  0  0  0  0  0  0
  188.5880  177.3500  140.8080 N   0  0  0  0  0  2  0  0  0  0  0  0
  189.6400  177.7740  139.8980 C   0  0  0  0  0  2  0  0  0  0  0  0
  189.0370  178.5300  138.7240 C   0  0  0  0  0  2  0  0  0  0  0  0
  186.7590  178.0530  137.7120 C   0  0  0  0  0  0  0  0  0  0  0  0
  187.5810  178.5000  138.7950 N   0  0  0  0  0  2  0  0  0  0  0  0
  187.2820  177.7330  136.6110 O   0  0  0  0  0  0  0  0  0  0  0  0
  184.4240  178.9540  139.0710 S   0  0  0  0  0  0  0  0  0  0  0  0
  182.8560  176.9250  137.6370 S   0  0  0  0  0  0  0  0  0  0  0  0
  183.2200  177.6020  139.2850 C   0  0  2  0  0  3  0  0  0  0  0  0
  184.5990  177.0020  137.2660 C   0  0  0  0  0  3  0  0  0  0  0  0
  185.3040  177.9380  137.8880 C   0  0  0  0  0  0  0  0  0  0  0  0
  180.9290  179.0880  142.0370 C   0  0  0  0  0  2  0  0  0  0  0  0
  181.9510  178.0400  140.0140 C   0  0  2  0  0  3  0  0  0  0  0  0
  182.2370  178.6240  141.4020 C   0  0  0  0  0  2  0  0  0  0  0  0
  179.7400  177.4100  140.6270 C   0  0  0  0  0  2  0  0  0  0  0  0
  179.9150  177.9490  142.0460 C   0  0  0  0  0  2  0  0  0  0  0  0
  181.0180  176.9170  140.1170 N   0  0  0  0  0  2  0  0  0  0  0  0
  187.8680  177.4560  143.0220 C   0  0  0  0  0  2  0  0  0  0  0  0
  186.7770  178.4650  143.3930 C   0  0  0  0  0  2  0  0  0  0  0  0
  184.4680  178.7710  144.2700 C   0  0  0  0  0  2  0  0  0  0  0  0
  185.2040  178.0740  145.4000 C   0  0  1  0  0  3  0  0  0  0  0  0
  185.5400  177.7540  143.9380 C   0  0  2  0  0  3  0  0  0  0  0  0
  186.1460  179.0680  146.0730 C   0  0  0  0  0  2  0  0  0  0  0  0
  187.6360  177.1470  146.8550 C   0  0  0  0  0  3  0  0  0  0  0  0
  188.3440  176.8810  147.9710 N   0  0  0  0  0  0  0  0  0  0  0  0
  187.3420  178.8240  148.2290 O   0  0  0  0  0  0  0  0  0  0  0  0
  187.0190  178.3610  147.0490 C   0  0  0  0  0  0  0  0  0  0  0  0
  188.1350  177.9380  148.7860 C   0  0  0  0  0  3  0  0  0  0  0  0
  1 25  1  0  0  0  0
  2  6  1  6  0  0  0
  2  5  1  0  0  0  0
  4  1  1  1  0  0  0
  4  3  1  0  0  0  0
  4  6  1  0  0  0  0
  7  3  1  6  0  0  0
  7  2  1  0  0  0  0
  7  5  1  0  0  0  0
  8  1  1  0  0  0  0
  9  8  1  0  0  0  0
 10 12  1  0  0  0  0
 10  9  1  0  0  0  0
 11 18  1  0  0  0  0
 11 12  1  0  0  0  0
 13 11  2  0  0  0  0
 14 16  1  0  0  0  0
 16 15  1  6  0  0  0
 16 20  1  0  0  0  0
 17 15  1  0  0  0  0
 17 18  2  0  0  0  0
 18 14  1  0  0  0  0
 19 23  1  0  0  0  0
 20 24  1  0  0  0  0
 20 21  1  1  0  0  0
 21 19  1  0  0  0  0
 22 23  1  0  0  0  0
 24 22  1  0  0  0  0
 25 26  1  0  0  0  0
 27 28  1  0  0  0  0
 28 30  1  6  0  0  0
 29 26  1  6  0  0  0
 29 27  1  0  0  0  0
 29 28  1  0  0  0  0
 30 34  1  0  0  0  0
 31 34  2  0  0  0  0
 31 32  1  0  0  0  0
 32 35  2  0  0  0  0
 33 35  1  0  0  0  0
 34 33  1  0  0  0  0
M  END
>  <MODEL>
4

>  <REMARK>
 VINA RESULT:      -7.6      3.851      7.594
  Name = 
  12 active torsions:
  status: ('A' for Active; 'I' for Inactive)
    1  A    between atoms: C_5  and  C_17
    2  A    between atoms: C_9  and  C_23
    3  A    between atoms: C_11  and  N_19
    4  A    between atoms: N_13  and  C_15
    5  A    between atoms: C_14  and  C_29
    6  A    between atoms: C_15  and  C_34
    7  A    between atoms: N_19  and  N_28
    8  A    between atoms: N_19  and  C_33
    9  A    between atoms: N_28  and  C_34
   10  A    between atoms: C_29  and  C_31
   11  A    between atoms: C_32  and  C_33
   12  A    between atoms: C_32  and  C_35
                            x       y       z     vdW  Elec       q    Type
                         _______ _______ _______ _____ _____    ______ ____

>  <TORSDO>
F 12

$$$$
=
 OpenBabel11042411513D

 35 40  0  0  1  0  0  0  0  0999 V2000
  188.3560  178.3920  141.1940 N   0  0  0  0  0  0  0  0  0  0  0  0
  189.5300  176.2800  143.9770 C   0  0  2  0  0  3  0  0  0  0  0  0
  189.8790  178.5420  143.1230 C   0  0  0  0  0  2  0  0  0  0  0  0
  188.5410  178.0400  142.6100 C   0  0  2  0  0  3  0  0  0  0  0  0
  190.9750  176.3460  143.5250 C   0  0  0  0  0  2  0  0  0  0  0  0
  188.6020  176.5350  142.8030 C   0  0  0  0  0  2  0  0  0  0  0  0
  190.3370  177.5540  144.1820 C   0  0  2  0  0  3  0  0  0  0  0  0
  188.8060  177.3240  140.3980 N   0  0  0  0  0  2  0  0  0  0  0  0
  189.6960  177.8900  139.3960 C   0  0  0  0  0  2  0  0  0  0  0  0
  189.2870  177.4130  138.0110 C   0  0  0  0  0  2  0  0  0  0  0  0
  186.8600  177.9190  137.4710 C   0  0  0  0  0  0  0  0  0  0  0  0
  187.8740  177.0550  137.9930 N   0  0  0  0  0  2  0  0  0  0  0  0
  187.1600  179.0750  137.0670 O   0  0  0  0  0  0  0  0  0  0  0  0
  184.1700  178.1860  138.3660 S   0  0  0  0  0  0  0  0  0  0  0  0
  183.4260  175.8920  136.6880 S   0  0  0  0  0  0  0  0  0  0  0  0
  183.3110  176.5790  138.3680 C   0  0  2  0  0  3  0  0  0  0  0  0
  185.1360  176.3980  136.6440 C   0  0  0  0  0  3  0  0  0  0  0  0
  185.4680  177.4530  137.3760 C   0  0  0  0  0  0  0  0  0  0  0  0
  180.1130  177.9960  140.0410 C   0  0  0  0  0  2  0  0  0  0  0  0
  181.8620  176.6750  138.8460 C   0  0  2  0  0  3  0  0  0  0  0  0
  181.5870  177.9500  139.6510 C   0  0  0  0  0  2  0  0  0  0  0  0
  180.0770  175.5080  139.9000 C   0  0  0  0  0  2  0  0  0  0  0  0
  179.7190  176.7140  140.7650 C   0  0  0  0  0  2  0  0  0  0  0  0
  181.5150  175.4910  139.6330 N   0  0  0  0  0  2  0  0  0  0  0  0
  186.9320  178.6180  140.8920 C   0  0  0  0  0  2  0  0  0  0  0  0
  186.1150  179.1010  142.0930 C   0  0  0  0  0  2  0  0  0  0  0  0
  183.6770  178.8850  142.5480 C   0  0  0  0  0  2  0  0  0  0  0  0
  184.3370  178.3100  143.7880 C   0  0  1  0  0  3  0  0  0  0  0  0
  184.9810  178.1270  142.4080 C   0  0  2  0  0  3  0  0  0  0  0  0
  184.9180  179.4510  144.6210 C   0  0  0  0  0  2  0  0  0  0  0  0
  186.5810  177.8470  145.7090 C   0  0  0  0  0  3  0  0  0  0  0  0
  187.0840  177.6890  146.9490 N   0  0  0  0  0  0  0  0  0  0  0  0
  185.6690  179.3750  146.9810 O   0  0  0  0  0  0  0  0  0  0  0  0
  185.6990  178.9000  145.7620 C   0  0  0  0  0  0  0  0  0  0  0  0
  186.4970  178.6490  147.6970 C   0  0  0  0  0  3  0  0  0  0  0  0
  2  6  1  6  0  0  0
  2  7  1  0  0  0  0
  4  1  1  6  0  0  0
  4  6  1  0  0  0  0
  4  3  1  0  0  0  0
  5  2  1  0  0  0  0
  5  7  1  0  0  0  0
  7  3  1  6  0  0  0
  8  1  1  0  0  0  0
  9  8  1  0  0  0  0
 10  9  1  0  0  0  0
 11 12  1  0  0  0  0
 12 10  1  0  0  0  0
 13 11  2  0  0  0  0
 14 16  1  0  0  0  0
 16 15  1  6  0  0  0
 16 20  1  0  0  0  0
 17 15  1  0  0  0  0
 17 18  2  0  0  0  0
 18 11  1  0  0  0  0
 18 14  1  0  0  0  0
 19 23  1  0  0  0  0
 20 24  1  0  0  0  0
 20 21  1  1  0  0  0
 21 19  1  0  0  0  0
 22 23  1  0  0  0  0
 24 22  1  0  0  0  0
 25  1  1  0  0  0  0
 25 26  1  0  0  0  0
 27 28  1  0  0  0  0
 28 30  1  1  0  0  0
 29 26  1  1  0  0  0
 29 27  1  0  0  0  0
 29 28  1  0  0  0  0
 30 34  1  0  0  0  0
 31 34  2  0  0  0  0
 31 32  1  0  0  0  0
 32 35  2  0  0  0  0
 33 35  1  0  0  0  0
 34 33  1  0  0  0  0
M  END
>  <MODEL>
5

>  <REMARK>
 VINA RESULT:      -7.5      3.675      7.316
  Name = 
  12 active torsions:
  status: ('A' for Active; 'I' for Inactive)
    1  A    between atoms: C_5  and  C_17
    2  A    between atoms: C_9  and  C_23
    3  A    between atoms: C_11  and  N_19
    4  A    between atoms: N_13  and  C_15
    5  A    between atoms: C_14  and  C_29
    6  A    between atoms: C_15  and  C_34
    7  A    between atoms: N_19  and  N_28
    8  A    between atoms: N_19  and  C_33
    9  A    between atoms: N_28  and  C_34
   10  A    between atoms: C_29  and  C_31
   11  A    between atoms: C_32  and  C_33
   12  A    between atoms: C_32  and  C_35
                            x       y       z     vdW  Elec       q    Type
                         _______ _______ _______ _____ _____    ______ ____

>  <TORSDO>
F 12

$$$$
=
 OpenBabel11042411513D

 35 40  0  0  1  0  0  0  0  0999 V2000
  188.3440  177.8720  143.0850 N   0  0  0  0  0  0  0  0  0  0  0  0
  191.6960  177.8240  144.6190 C   0  0  2  0  0  3  0  0  0  0  0  0
  190.1440  176.2610  143.5620 C   0  0  0  0  0  2  0  0  0  0  0  0
  189.8000  177.6640  143.0940 C   0  0  2  0  0  3  0  0  0  0  0  0
  191.2780  176.8440  145.6970 C   0  0  0  0  0  2  0  0  0  0  0  0
  190.4850  178.5760  144.0970 C   0  0  0  0  0  2  0  0  0  0  0  0
  191.4810  176.3560  144.2760 C   0  0  2  0  0  3  0  0  0  0  0  0
  187.9300  178.1190  141.7640 N   0  0  0  0  0  2  0  0  0  0  0  0
  189.0460  177.7680  140.8990 C   0  0  0  0  0  2  0  0  0  0  0  0
  188.7650  178.2290  139.4770 C   0  0  0  0  0  2  0  0  0  0  0  0
  186.7120  177.8870  138.0260 C   0  0  0  0  0  0  0  0  0  0  0  0
  187.3280  178.3130  139.2450 N   0  0  0  0  0  2  0  0  0  0  0  0
  187.4220  177.4860  137.0640 O   0  0  0  0  0  0  0  0  0  0  0  0
  184.2260  178.9690  138.8970 S   0  0  0  0  0  0  0  0  0  0  0  0
  182.8310  177.0800  137.1310 S   0  0  0  0  0  0  0  0  0  0  0  0
  182.9010  177.7180  138.8320 C   0  0  2  0  0  3  0  0  0  0  0  0
  184.6140  177.0170  137.1260 C   0  0  0  0  0  3  0  0  0  0  0  0
  185.2470  177.8900  137.8980 C   0  0  0  0  0  0  0  0  0  0  0  0
  180.1600  180.2330  139.9260 C   0  0  0  0  0  2  0  0  0  0  0  0
  181.5470  178.2550  139.2950 C   0  0  2  0  0  3  0  0  0  0  0  0
  181.5580  179.7710  139.5230 C   0  0  0  0  0  2  0  0  0  0  0  0
  179.7440  177.9410  140.8140 C   0  0  0  0  0  2  0  0  0  0  0  0
  179.6680  179.4340  141.1280 C   0  0  0  0  0  2  0  0  0  0  0  0
  181.1230  177.5610  140.5120 N   0  0  0  0  0  2  0  0  0  0  0  0
  187.6390  176.6730  143.5690 C   0  0  0  0  0  2  0  0  0  0  0  0
  186.9850  176.8530  144.9420 C   0  0  0  0  0  2  0  0  0  0  0  0
  186.9880  178.2660  146.9910 C   0  0  0  0  0  2  0  0  0  0  0  0
  186.0450  178.9870  146.0450 C   0  0  1  0  0  3  0  0  0  0  0  0
  187.2730  178.2440  145.5040 C   0  0  2  0  0  3  0  0  0  0  0  0
  184.7340  178.2110  145.9560 C   0  0  0  0  0  2  0  0  0  0  0  0
  184.4960  178.6960  143.4600 C   0  0  0  0  0  3  0  0  0  0  0  0
  183.4860  179.0750  142.6530 N   0  0  0  0  0  0  0  0  0  0  0  0
  182.7140  178.9220  144.7090 O   0  0  0  0  0  0  0  0  0  0  0  0
  183.9860  178.6140  144.7350 C   0  0  0  0  0  0  0  0  0  0  0  0
  182.4120  179.2020  143.4620 C   0  0  0  0  0  3  0  0  0  0  0  0
  1 25  1  0  0  0  0
  2  6  1  6  0  0  0
  2  5  1  0  0  0  0
  4  1  1  1  0  0  0
  4  3  1  0  0  0  0
  4  6  1  0  0  0  0
  7  3  1  6  0  0  0
  7  2  1  0  0  0  0
  7  5  1  0  0  0  0
  8  1  1  0  0  0  0
  9  8  1  0  0  0  0
 10  9  1  0  0  0  0
 11 12  1  0  0  0  0
 12 10  1  0  0  0  0
 13 11  2  0  0  0  0
 16 15  1  6  0  0  0
 16 14  1  0  0  0  0
 16 20  1  0  0  0  0
 17 15  1  0  0  0  0
 17 18  2  0  0  0  0
 18 11  1  0  0  0  0
 18 14  1  0  0  0  0
 19 23  1  0  0  0  0
 20 21  1  1  0  0  0
 20 24  1  0  0  0  0
 21 19  1  0  0  0  0
 22 23  1  0  0  0  0
 24 22  1  0  0  0  0
 25 26  1  0  0  0  0
 28 30  1  6  0  0  0
 28 27  1  0  0  0  0
 29 26  1  6  0  0  0
 29 28  1  0  0  0  0
 29 27  1  0  0  0  0
 31 34  2  0  0  0  0
 32 31  1  0  0  0  0
 32 35  2  0  0  0  0
 33 34  1  0  0  0  0
 34 30  1  0  0  0  0
 35 33  1  0  0  0  0
M  END
>  <MODEL>
6

>  <REMARK>
 VINA RESULT:      -7.5      3.973      7.100
  Name = 
  12 active torsions:
  status: ('A' for Active; 'I' for Inactive)
    1  A    between atoms: C_5  and  C_17
    2  A    between atoms: C_9  and  C_23
    3  A    between atoms: C_11  and  N_19
    4  A    between atoms: N_13  and  C_15
    5  A    between atoms: C_14  and  C_29
    6  A    between atoms: C_15  and  C_34
    7  A    between atoms: N_19  and  N_28
    8  A    between atoms: N_19  and  C_33
    9  A    between atoms: N_28  and  C_34
   10  A    between atoms: C_29  and  C_31
   11  A    between atoms: C_32  and  C_33
   12  A    between atoms: C_32  and  C_35
                            x       y       z     vdW  Elec       q    Type
                         _______ _______ _______ _____ _____    ______ ____

>  <TORSDO>
F 12

$$$$
=
 OpenBabel11042411513D

 35 40  0  0  1  0  0  0  0  0999 V2000
  187.8320  177.6730  144.4460 N   0  0  0  0  0  0  0  0  0  0  0  0
  189.9020  177.5750  147.4940 C   0  0  2  0  0  3  0  0  0  0  0  0
  187.6820  176.8600  146.7650 C   0  0  0  0  0  2  0  0  0  0  0  0
  188.5620  177.0110  145.5370 C   0  0  2  0  0  3  0  0  0  0  0  0
  188.9070  178.3930  148.2940 C   0  0  0  0  0  2  0  0  0  0  0  0
  189.7340  177.8520  146.0110 C   0  0  0  0  0  2  0  0  0  0  0  0
  188.6020  176.9430  147.9710 C   0  0  2  0  0  3  0  0  0  0  0  0
  188.2020  177.0780  143.2260 N   0  0  0  0  0  2  0  0  0  0  0  0
  189.0020  178.0560  142.5050 C   0  0  0  0  0  2  0  0  0  0  0  0
  188.4000  178.3060  141.1300 C   0  0  0  0  0  2  0  0  0  0  0  0
  189.3870  177.9410  138.8210 C   0  0  0  0  0  0  0  0  0  0  0  0
  189.0530  177.4700  140.1300 N   0  0  0  0  0  2  0  0  0  0  0  0
  189.0490  179.1010  138.4610 O   0  0  0  0  0  0  0  0  0  0  0  0
  191.6480  176.2580  138.4190 S   0  0  0  0  0  0  0  0  0  0  0  0
  190.8860  175.9770  135.5950 S   0  0  0  0  0  0  0  0  0  0  0  0
  192.2660  176.3790  136.7080 C   0  0  2  0  0  3  0  0  0  0  0  0
  189.8250  176.9830  136.6170 C   0  0  0  0  0  3  0  0  0  0  0  0
  190.1480  177.0860  137.8990 C   0  0  0  0  0  0  0  0  0  0  0  0
  194.9040  173.5780  137.1910 C   0  0  0  0  0  2  0  0  0  0  0  0
  193.4840  175.4930  136.4480 C   0  0  2  0  0  3  0  0  0  0  0  0
  193.7090  174.4550  137.5530 C   0  0  0  0  0  2  0  0  0  0  0  0
  195.7810  175.4720  135.8270 C   0  0  0  0  0  2  0  0  0  0  0  0
  196.1250  174.4450  136.9040 C   0  0  0  0  0  2  0  0  0  0  0  0
  194.6790  176.3210  136.2770 N   0  0  0  0  0  2  0  0  0  0  0  0
  186.3780  177.5080  144.6100 C   0  0  0  0  0  2  0  0  0  0  0  0
  185.5470  178.3460  143.6340 C   0  0  0  0  0  2  0  0  0  0  0  0
  183.7840  179.0040  145.2630 C   0  0  0  0  0  2  0  0  0  0  0  0
  183.4050  179.7400  143.9900 C   0  0  1  0  0  3  0  0  0  0  0  0
  184.8800  179.5170  144.3520 C   0  0  2  0  0  3  0  0  0  0  0  0
  182.8320  178.7430  142.9870 C   0  0  0  0  0  2  0  0  0  0  0  0
  180.5100  178.3420  143.9700 C   0  0  0  0  0  3  0  0  0  0  0  0
  179.2490  178.6310  143.5910 N   0  0  0  0  0  0  0  0  0  0  0  0
  180.6300  179.3830  142.0500 O   0  0  0  0  0  0  0  0  0  0  0  0
  181.3460  178.8180  142.9880 C   0  0  0  0  0  0  0  0  0  0  0  0
  179.3710  179.2700  142.4070 C   0  0  0  0  0  3  0  0  0  0  0  0
  1 25  1  0  0  0  0
  2  6  1  6  0  0  0
  2  7  1  0  0  0  0
  2  5  1  0  0  0  0
  4  1  1  6  0  0  0
  4  6  1  0  0  0  0
  4  3  1  0  0  0  0
  7  3  1  6  0  0  0
  7  5  1  0  0  0  0
  8  1  1  0  0  0  0
  9  8  1  0  0  0  0
 10  9  1  0  0  0  0
 11 12  1  0  0  0  0
 12 10  1  0  0  0  0
 13 11  2  0  0  0  0
 15 17  1  0  0  0  0
 16 15  1  6  0  0  0
 16 14  1  0  0  0  0
 17 18  2  0  0  0  0
 18 14  1  0  0  0  0
 18 11  1  0  0  0  0
 19 21  1  0  0  0  0
 20 16  1  0  0  0  0
 20 21  1  1  0  0  0
 22 24  1  0  0  0  0
 22 23  1  0  0  0  0
 23 19  1  0  0  0  0
 24 20  1  0  0  0  0
 26 25  1  0  0  0  0
 28 30  1  6  0  0  0
 28 29  1  0  0  0  0
 28 27  1  0  0  0  0
 29 26  1  6  0  0  0
 29 27  1  0  0  0  0
 30 34  1  0  0  0  0
 32 31  1  0  0  0  0
 33 35  1  0  0  0  0
 33 34  1  0  0  0  0
 34 31  2  0  0  0  0
 35 32  2  0  0  0  0
M  END
>  <MODEL>
7

>  <REMARK>
 VINA RESULT:      -7.4      1.926      2.350
  Name = 
  12 active torsions:
  status: ('A' for Active; 'I' for Inactive)
    1  A    between atoms: C_5  and  C_17
    2  A    between atoms: C_9  and  C_23
    3  A    between atoms: C_11  and  N_19
    4  A    between atoms: N_13  and  C_15
    5  A    between atoms: C_14  and  C_29
    6  A    between atoms: C_15  and  C_34
    7  A    between atoms: N_19  and  N_28
    8  A    between atoms: N_19  and  C_33
    9  A    between atoms: N_28  and  C_34
   10  A    between atoms: C_29  and  C_31
   11  A    between atoms: C_32  and  C_33
   12  A    between atoms: C_32  and  C_35
                            x       y       z     vdW  Elec       q    Type
                         _______ _______ _______ _____ _____    ______ ____

>  <TORSDO>
F 12

$$$$
=
 OpenBabel11042411513D

 35 40  0  0  1  0  0  0  0  0999 V2000
  184.6420  178.2780  139.4510 N   0  0  0  0  0  0  0  0  0  0  0  0
  181.1040  177.4020  140.0040 C   0  0  2  0  0  3  0  0  0  0  0  0
  182.4380  179.3770  139.4630 C   0  0  0  0  0  2  0  0  0  0  0  0
  183.2290  178.1430  139.0660 C   0  0  2  0  0  3  0  0  0  0  0  0
  180.9720  178.3420  141.1850 C   0  0  0  0  0  2  0  0  0  0  0  0
  182.5570  177.0050  139.8120 C   0  0  0  0  0  2  0  0  0  0  0  0
  181.0290  178.9060  139.7790 C   0  0  2  0  0  3  0  0  0  0  0  0
  185.3320  178.9400  138.4190 N   0  0  0  0  0  2  0  0  0  0  0  0
  185.1630  178.1390  137.2170 C   0  0  0  0  0  2  0  0  0  0  0  0
  186.5190  177.8390  136.5980 C   0  0  0  0  0  2  0  0  0  0  0  0
  188.5000  178.2120  138.1400 C   0  0  0  0  0  0  0  0  0  0  0  0
  187.4540  177.3850  137.6210 N   0  0  0  0  0  2  0  0  0  0  0  0
  188.6940  179.3620  137.6620 O   0  0  0  0  0  0  0  0  0  0  0  0
  188.6430  177.4200  140.8720 S   0  0  0  0  0  0  0  0  0  0  0  0
  191.5520  177.1220  140.5920 S   0  0  0  0  0  0  0  0  0  0  0  0
  190.2460  177.8740  141.6090 C   0  0  2  0  0  3  0  0  0  0  0  0
  190.6530  177.6310  139.1370 C   0  0  0  0  0  3  0  0  0  0  0  0
  189.3360  177.7360  139.2520 C   0  0  0  0  0  0  0  0  0  0  0  0
  190.5960  178.1930  145.4570 C   0  0  0  0  0  2  0  0  0  0  0  0
  190.3650  177.4710  143.0780 C   0  0  2  0  0  3  0  0  0  0  0  0
  190.5430  178.6750  144.0110 C   0  0  0  0  0  2  0  0  0  0  0  0
  191.4300  176.0010  144.6150 C   0  0  0  0  0  2  0  0  0  0  0  0
  191.6740  177.1260  145.6180 C   0  0  0  0  0  2  0  0  0  0  0  0
  191.4690  176.5260  143.2510 N   0  0  0  0  0  2  0  0  0  0  0  0
  184.7770  179.0810  140.6780 C   0  0  0  0  0  2  0  0  0  0  0  0
  185.1440  178.2580  141.9170 C   0  0  0  0  0  2  0  0  0  0  0  0
  184.7210  179.7490  143.8640 C   0  0  0  0  0  2  0  0  0  0  0  0
  184.7980  178.3600  144.4720 C   0  0  1  0  0  3  0  0  0  0  0  0
  184.1970  178.5670  143.0750 C   0  0  2  0  0  3  0  0  0  0  0  0
  186.2530  177.8990  144.4830 C   0  0  0  0  0  2  0  0  0  0  0  0
  186.3170  178.6770  146.9140 C   0  0  0  0  0  3  0  0  0  0  0  0
  187.0460  178.3560  148.0010 N   0  0  0  0  0  0  0  0  0  0  0  0
  187.7400  177.1300  146.3090 O   0  0  0  0  0  0  0  0  0  0  0  0
  186.7760  177.9010  145.8760 C   0  0  0  0  0  0  0  0  0  0  0  0
  187.9070  177.4020  147.5830 C   0  0  0  0  0  3  0  0  0  0  0  0
  1 25  1  0  0  0  0
  2  6  1  1  0  0  0
  2  5  1  0  0  0  0
  4  1  1  1  0  0  0
  4  3  1  0  0  0  0
  4  6  1  0  0  0  0
  7  3  1  1  0  0  0
  7  2  1  0  0  0  0
  7  5  1  0  0  0  0
  8  1  1  0  0  0  0
  9  8  1  0  0  0  0
 10  9  1  0  0  0  0
 10 12  1  0  0  0  0
 11 18  1  0  0  0  0
 12 11  1  0  0  0  0
 13 11  2  0  0  0  0
 14 16  1  0  0  0  0
 16 15  1  6  0  0  0
 16 20  1  0  0  0  0
 17 18  2  0  0  0  0
 17 15  1  0  0  0  0
 18 14  1  0  0  0  0
 19 23  1  0  0  0  0
 20 24  1  0  0  0  0
 20 21  1  1  0  0  0
 21 19  1  0  0  0  0
 22 23  1  0  0  0  0
 24 22  1  0  0  0  0
 25 26  1  0  0  0  0
 27 28  1  0  0  0  0
 28 30  1  6  0  0  0
 29 26  1  6  0  0  0
 29 27  1  0  0  0  0
 29 28  1  0  0  0  0
 30 34  1  0  0  0  0
 31 32  1  0  0  0  0
 33 35  1  0  0  0  0
 34 33  1  0  0  0  0
 34 31  2  0  0  0  0
 35 32  2  0  0  0  0
M  END
>  <MODEL>
8

>  <REMARK>
 VINA RESULT:      -7.4      3.174      7.237
  Name = 
  12 active torsions:
  status: ('A' for Active; 'I' for Inactive)
    1  A    between atoms: C_5  and  C_17
    2  A    between atoms: C_9  and  C_23
    3  A    between atoms: C_11  and  N_19
    4  A    between atoms: N_13  and  C_15
    5  A    between atoms: C_14  and  C_29
    6  A    between atoms: C_15  and  C_34
    7  A    between atoms: N_19  and  N_28
    8  A    between atoms: N_19  and  C_33
    9  A    between atoms: N_28  and  C_34
   10  A    between atoms: C_29  and  C_31
   11  A    between atoms: C_32  and  C_33
   12  A    between atoms: C_32  and  C_35
                            x       y       z     vdW  Elec       q    Type
                         _______ _______ _______ _____ _____    ______ ____

>  <TORSDO>
F 12

$$$$
=
 OpenBabel11042411513D

 35 40  0  0  1  0  0  0  0  0999 V2000
  186.0880  176.5590  137.2840 N   0  0  0  0  0  0  0  0  0  0  0  0
  186.2470  172.9270  136.6790 C   0  0  2  0  0  3  0  0  0  0  0  0
  185.0870  174.8820  135.7850 C   0  0  0  0  0  2  0  0  0  0  0  0
  186.3500  175.3550  136.4830 C   0  0  2  0  0  3  0  0  0  0  0  0
  184.7780  172.7280  136.9900 C   0  0  0  0  0  2  0  0  0  0  0  0
  186.7600  174.1840  137.3580 C   0  0  0  0  0  2  0  0  0  0  0  0
  185.1880  173.3700  135.6790 C   0  0  2  0  0  3  0  0  0  0  0  0
  186.6760  177.6660  136.6450 N   0  0  0  0  0  2  0  0  0  0  0  0
  188.1120  177.4380  136.6430 C   0  0  0  0  0  2  0  0  0  0  0  0
  188.8140  178.5450  137.4150 C   0  0  0  0  0  2  0  0  0  0  0  0
  188.4730  178.0990  139.8900 C   0  0  0  0  0  0  0  0  0  0  0  0
  189.2760  178.0500  138.7060 N   0  0  0  0  0  2  0  0  0  0  0  0
  187.3420  178.6550  139.8650 O   0  0  0  0  0  0  0  0  0  0  0  0
  187.9360  177.4380  142.6070 S   0  0  0  0  0  0  0  0  0  0  0  0
  190.6650  176.3750  142.8460 S   0  0  0  0  0  0  0  0  0  0  0  0
  189.4550  177.4940  143.6140 C   0  0  2  0  0  3  0  0  0  0  0  0
  190.1930  177.0270  141.2540 C   0  0  0  0  0  3  0  0  0  0  0  0
  188.9520  177.4780  141.1340 C   0  0  0  0  0  0  0  0  0  0  0  0
  187.7840  177.4270  147.1130 C   0  0  0  0  0  2  0  0  0  0  0  0
  189.2120  177.1500  145.0830 C   0  0  2  0  0  3  0  0  0  0  0  0
  187.9890  177.8670  145.6660 C   0  0  0  0  0  2  0  0  0  0  0  0
  190.2240  176.9270  147.2250 C   0  0  0  0  0  2  0  0  0  0  0  0
  189.0640  177.6410  147.9150 C   0  0  0  0  0  2  0  0  0  0  0  0
  190.4060  177.4540  145.8740 N   0  0  0  0  0  2  0  0  0  0  0  0
  184.6410  176.8120  137.3950 C   0  0  0  0  0  2  0  0  0  0  0  0
  184.2780  177.8740  138.4380 C   0  0  0  0  0  2  0  0  0  0  0  0
  182.3160  178.8320  139.6320 C   0  0  0  0  0  2  0  0  0  0  0  0
  182.8770  177.8080  140.6030 C   0  0  1  0  0  3  0  0  0  0  0  0
  182.9330  177.5600  139.0900 C   0  0  2  0  0  3  0  0  0  0  0  0
  184.1660  178.3500  141.2130 C   0  0  0  0  0  2  0  0  0  0  0  0
  182.8210  178.9590  143.2970 C   0  0  0  0  0  3  0  0  0  0  0  0
  183.0820  179.0190  144.6180 N   0  0  0  0  0  0  0  0  0  0  0  0
  184.9160  178.3900  143.5750 O   0  0  0  0  0  0  0  0  0  0  0  0
  183.9840  178.5700  142.6740 C   0  0  0  0  0  0  0  0  0  0  0  0
  184.3790  178.6610  144.7420 C   0  0  0  0  0  3  0  0  0  0  0  0
  1 25  1  0  0  0  0
  2  5  1  1  0  0  0
  2  6  1  0  0  0  0
  3  4  1  0  0  0  0
  4  1  1  1  0  0  0
  4  6  1  0  0  0  0
  7  3  1  1  0  0  0
  7  2  1  0  0  0  0
  7  5  1  0  0  0  0
  8  1  1  0  0  0  0
  9  8  1  0  0  0  0
  9 10  1  0  0  0  0
 10 12  1  0  0  0  0
 11 18  1  0  0  0  0
 12 11  1  0  0  0  0
 13 11  2  0  0  0  0
 15 16  1  0  0  0  0
 16 14  1  6  0  0  0
 16 20  1  0  0  0  0
 17 15  1  0  0  0  0
 18 17  2  0  0  0  0
 18 14  1  0  0  0  0
 19 23  1  0  0  0  0
 20 21  1  1  0  0  0
 20 24  1  0  0  0  0
 21 19  1  0  0  0  0
 22 23  1  0  0  0  0
 24 22  1  0  0  0  0
 25 26  1  0  0  0  0
 27 28  1  0  0  0  0
 28 30  1  6  0  0  0
 29 26  1  6  0  0  0
 29 27  1  0  0  0  0
 29 28  1  0  0  0  0
 30 34  1  0  0  0  0
 31 32  1  0  0  0  0
 32 35  2  0  0  0  0
 33 35  1  0  0  0  0
 34 31  2  0  0  0  0
 34 33  1  0  0  0  0
M  END
>  <MODEL>
9

>  <REMARK>
 VINA RESULT:      -7.4      3.458      8.064
  Name = 
  12 active torsions:
  status: ('A' for Active; 'I' for Inactive)
    1  A    between atoms: C_5  and  C_17
    2  A    between atoms: C_9  and  C_23
    3  A    between atoms: C_11  and  N_19
    4  A    between atoms: N_13  and  C_15
    5  A    between atoms: C_14  and  C_29
    6  A    between atoms: C_15  and  C_34
    7  A    between atoms: N_19  and  N_28
    8  A    between atoms: N_19  and  C_33
    9  A    between atoms: N_28  and  C_34
   10  A    between atoms: C_29  and  C_31
   11  A    between atoms: C_32  and  C_33
   12  A    between atoms: C_32  and  C_35
                            x       y       z     vdW  Elec       q    Type
                         _______ _______ _______ _____ _____    ______ ____

>  <TORSDO>
F 12

$$$$
