=
 OpenBabel11042413303D

 41 42  0  0  1  0  0  0  0  0999 V2000
  185.1970  178.3410  142.2160 C   0  0  2  0  0  3  0  0  0  0  0  0
  185.2280  178.2850  143.7210 C   0  0  0  0  0  0  0  0  0  0  0  0
  183.2860  179.2090  145.0880 O   0  0  0  0  0  0  0  0  0  0  0  0
  184.2280  178.7590  144.4250 C   0  0  0  0  0  0  0  0  0  0  0  0
  186.3770  177.6520  144.3970 C   0  0  0  0  0  0  0  0  0  0  0  0
  186.9890  178.2880  145.5270 N   0  0  0  0  0  2  0  0  0  0  0  0
  186.7810  176.5220  144.0100 O   0  0  0  0  0  0  0  0  0  0  0  0
  189.3530  177.7570  145.2690 C   0  0  0  0  0  3  0  0  0  0  0  0
  188.3950  177.6510  147.4780 C   0  0  0  0  0  0  0  0  0  0  0  0
  189.6420  177.2770  147.9800 C   0  0  0  0  0  3  0  0  0  0  0  0
  190.5590  177.3930  145.7810 N   0  0  0  0  0  0  0  0  0  0  0  0
  187.3330  177.6920  148.3200 F   0  0  0  0  0  0  0  0  0  0  0  0
  190.7330  177.1600  147.1080 C   0  0  0  0  0  0  0  0  0  0  0  0
  188.2460  177.9140  146.1050 C   0  0  0  0  0  0  0  0  0  0  0  0
  192.4280  175.3970  147.7720 C   0  0  0  0  0  1  0  0  0  0  0  0
  192.0260  176.7820  147.5890 N   0  0  0  0  0  2  0  0  0  0  0  0
  186.2930  179.2260  141.6270 C   0  0  0  0  0  2  0  0  0  0  0  0
  187.3760  178.3950  140.9470 C   0  0  0  0  0  2  0  0  0  0  0  0
  188.6870  178.4220  141.7330 C   0  0  0  0  0  2  0  0  0  0  0  0
  190.9180  176.9460  139.6480 C   0  0  0  0  0  0  0  0  0  0  0  0
  191.7640  177.3050  140.5490 N   0  0  0  0  0  0  0  0  0  0  0  0
  189.5900  177.2110  141.4770 C   0  0  2  0  0  3  0  0  0  0  0  0
  191.0570  177.5130  141.8070 C   0  0  0  0  0  2  0  0  0  0  0  0
  189.6170  176.8670  140.1010 O   0  0  0  0  0  0  0  0  0  0  0  0
  190.4730  175.5340  137.6860 C   0  0  0  0  0  1  0  0  0  0  0  0
  191.3080  176.6750  138.2350 C   0  0  0  0  0  2  0  0  0  0  0  0
  183.8190  178.7090  141.6740 C   0  0  0  0  0  2  0  0  0  0  0  0
  183.4910  177.9300  140.5580 O   0  0  0  0  0  0  0  0  0  0  0  0
  183.1740  179.0340  139.3100 P   0  0  1  0  0  0  0  0  0  0  0  0
  181.7050  179.8300  139.5950 O   0  0  0  0  0  1  0  0  0  0  0  0
  184.2940  180.0510  139.2470 O   0  0  0  0  0  0  0  0  0  0  0  0
  183.0900  178.1790  137.8430 O   0  0  0  0  0  0  0  0  0  0  0  0
  183.3440  176.8380  138.1610 C   0  0  1  0  0  3  0  0  0  0  0  0
  182.1030  176.0220  137.9480 C   0  0  0  0  0  3  0  0  0  0  0  0
  181.4820  175.4470  138.9760 C   0  0  0  0  0  2  0  0  0  0  0  0
  184.5240  176.2920  137.3430 C   0  0  1  0  0  3  0  0  0  0  0  0
  185.0130  174.3350  136.0430 O   0  0  0  0  0  1  0  0  0  0  0  0
  184.0770  175.3570  136.2210 C   0  0  0  0  0  2  0  0  0  0  0  0
  185.3280  177.4470  136.7680 C   0  0  0  0  0  2  0  0  0  0  0  0
  186.5900  177.6750  137.5780 C   0  0  0  0  0  2  0  0  0  0  0  0
  187.2280  178.9050  137.1370 N   0  0  0  0  0  1  0  0  0  0  0  0
  1 17  1  1  0  0  0
  1  2  1  0  0  0  0
  2  5  1  0  0  0  0
  2  4  2  0  0  0  0
  4  3  2  0  0  0  0
  5  6  1  0  0  0  0
  6 14  1  0  0  0  0
  7  5  2  0  0  0  0
  8 11  1  0  0  0  0
  8 14  2  0  0  0  0
  9 10  2  0  0  0  0
  9 12  1  0  0  0  0
 11 13  2  0  0  0  0
 13 16  1  0  0  0  0
 13 10  1  0  0  0  0
 14  9  1  0  0  0  0
 16 15  1  0  0  0  0
 18 17  1  0  0  0  0
 18 19  1  0  0  0  0
 20 24  1  0  0  0  0
 20 21  2  0  0  0  0
 21 23  1  0  0  0  0
 22 19  1  6  0  0  0
 22 23  1  0  0  0  0
 24 22  1  0  0  0  0
 25 26  1  0  0  0  0
 26 20  1  0  0  0  0
 27  1  1  0  0  0  0
 28 27  1  0  0  0  0
 29 31  2  6  0  0  0
 29 30  1  0  0  0  0
 29 28  1  0  0  0  0
 32 33  1  0  0  0  0
 32 29  1  0  0  0  0
 33 34  1  6  0  0  0
 34 35  2  0  0  0  0
 36 38  1  6  0  0  0
 36 33  1  0  0  0  0
 37 38  1  0  0  0  0
 39 36  1  0  0  0  0
 39 40  1  0  0  0  0
 41 40  1  0  0  0  0
M  END
>  <MODEL>
1

>  <REMARK>
 VINA RESULT:      -6.8      0.000      0.000
  Name = 
  19 active torsions:
  status: ('A' for Active; 'I' for Inactive)
    1  A    between atoms: C_1  and  C_16
    2  A    between atoms: C_1  and  C_20
    3  A    between atoms: O_2  and  C_8
    4  A    between atoms: O_2  and  P_10
    5  A    between atoms: C_5  and  C_29
    6  A    between atoms: C_7  and  C_23
    7  A    between atoms: C_7  and  C_26
    8  A    between atoms: C_8  and  C_20
    9  A    between atoms: C_9  and  C_21
   10  A    between atoms: C_9  and  C_36
   11  A    between atoms: C_9  and  C_37
   12  A    between atoms: P_10  and  O_31
   13  A    between atoms: C_12  and  C_20
   14  A    between atoms: C_12  and  C_26
   15  A    between atoms: C_13  and  C_21
   16  A    between atoms: O_31  and  C_36
   17  A    between atoms: C_32  and  C_36
   18  A    between atoms: N_34  and  C_40
   19  A    between atoms: C_35  and  N_41
                            x       y       z     vdW  Elec       q    Type
                         _______ _______ _______ _____ _____    ______ ____

>  <TORSDO>
F 19

$$$$
=
 OpenBabel11042413303D

 41 42  0  0  1  0  0  0  0  0999 V2000
  188.9190  178.1670  139.2640 C   0  0  2  0  0  3  0  0  0  0  0  0
  187.8450  178.0990  138.2100 C   0  0  0  0  0  0  0  0  0  0  0  0
  188.4650  177.9480  135.7430 O   0  0  0  0  0  0  0  0  0  0  0  0
  188.1640  178.0210  136.9410 C   0  0  0  0  0  0  0  0  0  0  0  0
  186.4290  178.0820  138.6220 C   0  0  0  0  0  0  0  0  0  0  0  0
  185.9630  178.9760  139.6430 N   0  0  0  0  0  2  0  0  0  0  0  0
  185.6180  177.3180  138.0310 O   0  0  0  0  0  0  0  0  0  0  0  0
  183.5350  179.1680  139.5770 C   0  0  0  0  0  3  0  0  0  0  0  0
  184.5760  178.5750  141.6690 C   0  0  0  0  0  0  0  0  0  0  0  0
  183.3130  178.5170  142.2590 C   0  0  0  0  0  3  0  0  0  0  0  0
  182.3150  179.1030  140.1730 N   0  0  0  0  0  0  0  0  0  0  0  0
  185.6720  178.3900  142.4450 F   0  0  0  0  0  0  0  0  0  0  0  0
  182.1740  178.7770  141.4840 C   0  0  0  0  0  0  0  0  0  0  0  0
  184.6940  178.8860  140.3030 C   0  0  0  0  0  0  0  0  0  0  0  0
  180.6270  178.6700  143.4900 C   0  0  0  0  0  1  0  0  0  0  0  0
  180.8630  178.7230  142.0560 N   0  0  0  0  0  2  0  0  0  0  0  0
  190.2880  177.7220  138.7550 C   0  0  0  0  0  2  0  0  0  0  0  0
  190.5790  176.2730  139.1270 C   0  0  0  0  0  2  0  0  0  0  0  0
  190.4860  175.3470  137.9140 C   0  0  0  0  0  2  0  0  0  0  0  0
  193.7210  174.3720  137.6220 C   0  0  0  0  0  0  0  0  0  0  0  0
  193.2260  173.5090  136.8070 N   0  0  0  0  0  0  0  0  0  0  0  0
  191.7440  175.3380  137.0410 C   0  0  2  0  0  3  0  0  0  0  0  0
  191.9360  173.9930  136.3290 C   0  0  0  0  0  2  0  0  0  0  0  0
  192.9190  175.4770  137.8230 O   0  0  0  0  0  0  0  0  0  0  0  0
  195.4430  172.7200  138.2100 C   0  0  0  0  0  1  0  0  0  0  0  0
  195.0270  174.1750  138.3140 C   0  0  0  0  0  2  0  0  0  0  0  0
  188.5270  177.4370  140.5460 C   0  0  0  0  0  2  0  0  0  0  0  0
  188.6020  178.2880  141.6550 O   0  0  0  0  0  0  0  0  0  0  0  0
  189.1600  177.3200  142.9310 P   0  0  1  0  0  0  0  0  0  0  0  0
  188.2490  175.8930  143.0220 O   0  0  0  0  0  1  0  0  0  0  0  0
  190.6150  176.9750  142.6980 O   0  0  0  0  0  0  0  0  0  0  0  0
  189.0010  178.1970  144.3800 O   0  0  0  0  0  0  0  0  0  0  0  0
  189.0760  177.2540  145.4140 C   0  0  1  0  0  3  0  0  0  0  0  0
  190.3690  177.4170  146.1570 C   0  0  0  0  0  3  0  0  0  0  0  0
  191.3370  176.5100  146.0450 C   0  0  0  0  0  2  0  0  0  0  0  0
  187.8670  177.3710  146.3540 C   0  0  1  0  0  3  0  0  0  0  0  0
  188.0390  177.2490  148.7440 O   0  0  0  0  0  1  0  0  0  0  0  0
  188.2030  178.1040  147.6510 C   0  0  0  0  0  2  0  0  0  0  0  0
  186.7270  178.0760  145.6380 C   0  0  0  0  0  2  0  0  0  0  0  0
  185.6930  178.5670  146.6330 C   0  0  0  0  0  2  0  0  0  0  0  0
  184.4230  178.7630  145.9510 N   0  0  0  0  0  1  0  0  0  0  0  0
  1 17  1  6  0  0  0
  1 27  1  0  0  0  0
  2  5  1  0  0  0  0
  2  1  1  0  0  0  0
  3  4  2  0  0  0  0
  4  2  2  0  0  0  0
  5  6  1  0  0  0  0
  6 14  1  0  0  0  0
  7  5  2  0  0  0  0
  8 11  1  0  0  0  0
  8 14  2  0  0  0  0
  9 10  2  0  0  0  0
  9 12  1  0  0  0  0
 11 13  2  0  0  0  0
 13 16  1  0  0  0  0
 13 10  1  0  0  0  0
 14  9  1  0  0  0  0
 16 15  1  0  0  0  0
 17 18  1  0  0  0  0
 19 18  1  0  0  0  0
 20 24  1  0  0  0  0
 20 26  1  0  0  0  0
 21 20  2  0  0  0  0
 22 24  1  0  0  0  0
 22 19  1  1  0  0  0
 23 21  1  0  0  0  0
 23 22  1  0  0  0  0
 25 26  1  0  0  0  0
 27 28  1  0  0  0  0
 28 29  1  0  0  0  0
 29 31  2  6  0  0  0
 29 30  1  0  0  0  0
 29 32  1  0  0  0  0
 32 33  1  0  0  0  0
 33 34  1  1  0  0  0
 33 36  1  0  0  0  0
 35 34  2  0  0  0  0
 36 39  1  6  0  0  0
 36 38  1  0  0  0  0
 38 37  1  0  0  0  0
 39 40  1  0  0  0  0
 41 40  1  0  0  0  0
M  END
>  <MODEL>
2

>  <REMARK>
 VINA RESULT:      -6.7      3.374      8.256
  Name = 
  19 active torsions:
  status: ('A' for Active; 'I' for Inactive)
    1  A    between atoms: C_1  and  C_16
    2  A    between atoms: C_1  and  C_20
    3  A    between atoms: O_2  and  C_8
    4  A    between atoms: O_2  and  P_10
    5  A    between atoms: C_5  and  C_29
    6  A    between atoms: C_7  and  C_23
    7  A    between atoms: C_7  and  C_26
    8  A    between atoms: C_8  and  C_20
    9  A    between atoms: C_9  and  C_21
   10  A    between atoms: C_9  and  C_36
   11  A    between atoms: C_9  and  C_37
   12  A    between atoms: P_10  and  O_31
   13  A    between atoms: C_12  and  C_20
   14  A    between atoms: C_12  and  C_26
   15  A    between atoms: C_13  and  C_21
   16  A    between atoms: O_31  and  C_36
   17  A    between atoms: C_32  and  C_36
   18  A    between atoms: N_34  and  C_40
   19  A    between atoms: C_35  and  N_41
                            x       y       z     vdW  Elec       q    Type
                         _______ _______ _______ _____ _____    ______ ____

>  <TORSDO>
F 19

$$$$
=
 OpenBabel11042413303D

 41 42  0  0  1  0  0  0  0  0999 V2000
  188.6470  177.4820  139.7380 C   0  0  2  0  0  3  0  0  0  0  0  0
  189.2840  177.8410  138.4210 C   0  0  0  0  0  0  0  0  0  0  0  0
  188.9030  180.1380  137.3860 O   0  0  0  0  0  0  0  0  0  0  0  0
  189.0890  179.0230  137.8890 C   0  0  0  0  0  0  0  0  0  0  0  0
  190.1640  176.8630  137.7540 C   0  0  0  0  0  0  0  0  0  0  0  0
  191.2700  176.2870  138.4610 N   0  0  0  0  0  2  0  0  0  0  0  0
  189.9020  176.4930  136.5770 O   0  0  0  0  0  0  0  0  0  0  0  0
  193.5840  176.1320  137.7120 C   0  0  0  0  0  3  0  0  0  0  0  0
  192.1450  174.2280  137.3720 C   0  0  0  0  0  0  0  0  0  0  0  0
  193.2130  173.5490  136.7860 C   0  0  0  0  0  3  0  0  0  0  0  0
  194.6110  175.4500  137.1390 N   0  0  0  0  0  0  0  0  0  0  0  0
  190.9260  173.6340  137.4020 F   0  0  0  0  0  0  0  0  0  0  0  0
  194.4620  174.1780  136.6840 C   0  0  0  0  0  0  0  0  0  0  0  0
  192.3320  175.5330  137.8620 C   0  0  0  0  0  0  0  0  0  0  0  0
  196.0120  172.1820  136.4960 C   0  0  0  0  0  1  0  0  0  0  0  0
  195.5800  173.5100  136.0910 N   0  0  0  0  0  2  0  0  0  0  0  0
  187.2850  178.1400  139.9440 C   0  0  0  0  0  2  0  0  0  0  0  0
  187.1060  178.6140  141.3820 C   0  0  0  0  0  2  0  0  0  0  0  0
  185.7310  179.2460  141.6020 C   0  0  0  0  0  2  0  0  0  0  0  0
  182.6380  178.6830  142.8740 C   0  0  0  0  0  0  0  0  0  0  0  0
  182.2960  178.6860  141.6340 N   0  0  0  0  0  0  0  0  0  0  0  0
  184.6080  178.2290  141.8300 C   0  0  2  0  0  3  0  0  0  0  0  0
  183.4690  178.3980  140.8180 C   0  0  0  0  0  2  0  0  0  0  0  0
  183.9770  178.4270  143.0850 O   0  0  0  0  0  0  0  0  0  0  0  0
  180.3050  178.4370  143.6080 C   0  0  0  0  0  1  0  0  0  0  0  0
  181.6780  178.9670  143.9780 C   0  0  0  0  0  2  0  0  0  0  0  0
  189.5790  177.7240  140.9230 C   0  0  0  0  0  2  0  0  0  0  0  0
  189.5860  176.6280  141.7920 O   0  0  0  0  0  0  0  0  0  0  0  0
  190.2940  177.1910  143.2270 P   0  0  1  0  0  0  0  0  0  0  0  0
  191.9050  176.6740  143.3240 O   0  0  0  0  0  1  0  0  0  0  0  0
  190.2490  178.7040  143.2460 O   0  0  0  0  0  0  0  0  0  0  0  0
  189.4110  176.5720  144.5420 O   0  0  0  0  0  0  0  0  0  0  0  0
  189.0850  177.6750  145.3430 C   0  0  1  0  0  3  0  0  0  0  0  0
  187.5940  177.8210  145.4220 C   0  0  0  0  0  3  0  0  0  0  0  0
  186.7990  177.1200  144.6170 C   0  0  0  0  0  2  0  0  0  0  0  0
  189.7140  177.5470  146.7390 C   0  0  1  0  0  3  0  0  0  0  0  0
  188.6520  178.2140  148.7840 O   0  0  0  0  0  1  0  0  0  0  0  0
  188.6860  177.2080  147.8160 C   0  0  0  0  0  2  0  0  0  0  0  0
  190.8080  176.4920  146.7140 C   0  0  0  0  0  2  0  0  0  0  0  0
  191.7590  176.6800  147.8810 C   0  0  0  0  0  2  0  0  0  0  0  0
  192.8640  175.7430  147.7560 N   0  0  0  0  0  1  0  0  0  0  0  0
  1 17  1  1  0  0  0
  1 27  1  0  0  0  0
  2  1  1  0  0  0  0
  3  4  2  0  0  0  0
  4  2  2  0  0  0  0
  5  2  1  0  0  0  0
  5  6  1  0  0  0  0
  7  5  2  0  0  0  0
  8 14  2  0  0  0  0
  9 12  1  0  0  0  0
  9 14  1  0  0  0  0
 10  9  2  0  0  0  0
 11  8  1  0  0  0  0
 13 10  1  0  0  0  0
 13 11  2  0  0  0  0
 14  6  1  0  0  0  0
 16 15  1  0  0  0  0
 16 13  1  0  0  0  0
 17 18  1  0  0  0  0
 18 19  1  0  0  0  0
 20 24  1  0  0  0  0
 20 26  1  0  0  0  0
 21 20  2  0  0  0  0
 22 19  1  6  0  0  0
 22 24  1  0  0  0  0
 23 21  1  0  0  0  0
 23 22  1  0  0  0  0
 25 26  1  0  0  0  0
 27 28  1  0  0  0  0
 28 29  1  0  0  0  0
 29 31  2  1  0  0  0
 29 30  1  0  0  0  0
 29 32  1  0  0  0  0
 32 33  1  0  0  0  0
 33 34  1  1  0  0  0
 33 36  1  0  0  0  0
 35 34  2  0  0  0  0
 36 39  1  6  0  0  0
 36 38  1  0  0  0  0
 38 37  1  0  0  0  0
 39 40  1  0  0  0  0
 41 40  1  0  0  0  0
M  END
>  <MODEL>
3

>  <REMARK>
 VINA RESULT:      -6.7      3.763      9.471
  Name = 
  19 active torsions:
  status: ('A' for Active; 'I' for Inactive)
    1  A    between atoms: C_1  and  C_16
    2  A    between atoms: C_1  and  C_20
    3  A    between atoms: O_2  and  C_8
    4  A    between atoms: O_2  and  P_10
    5  A    between atoms: C_5  and  C_29
    6  A    between atoms: C_7  and  C_23
    7  A    between atoms: C_7  and  C_26
    8  A    between atoms: C_8  and  C_20
    9  A    between atoms: C_9  and  C_21
   10  A    between atoms: C_9  and  C_36
   11  A    between atoms: C_9  and  C_37
   12  A    between atoms: P_10  and  O_31
   13  A    between atoms: C_12  and  C_20
   14  A    between atoms: C_12  and  C_26
   15  A    between atoms: C_13  and  C_21
   16  A    between atoms: O_31  and  C_36
   17  A    between atoms: C_32  and  C_36
   18  A    between atoms: N_34  and  C_40
   19  A    between atoms: C_35  and  N_41
                            x       y       z     vdW  Elec       q    Type
                         _______ _______ _______ _____ _____    ______ ____

>  <TORSDO>
F 19

$$$$
=
 OpenBabel11042413303D

 41 42  0  0  1  0  0  0  0  0999 V2000
  185.7120  178.3880  142.2280 C   0  0  2  0  0  3  0  0  0  0  0  0
  185.8280  178.1930  143.7170 C   0  0  0  0  0  0  0  0  0  0  0  0
  184.0170  179.0710  145.2790 O   0  0  0  0  0  0  0  0  0  0  0  0
  184.8960  178.6440  144.5210 C   0  0  0  0  0  0  0  0  0  0  0  0
  186.9820  177.4520  144.2600 C   0  0  0  0  0  0  0  0  0  0  0  0
  187.7570  178.0080  145.3310 N   0  0  0  0  0  2  0  0  0  0  0  0
  187.2480  176.3020  143.8170 O   0  0  0  0  0  0  0  0  0  0  0  0
  189.1450  176.9980  147.0600 C   0  0  0  0  0  2  0  0  0  0  0  0
  190.1820  177.5900  144.9670 C   0  0  0  0  0  0  0  0  0  0  0  0
  191.3980  177.1090  145.4540 C   0  0  0  0  0  2  0  0  0  0  0  0
  190.3400  176.5330  147.5130 N   0  0  0  0  0  0  0  0  0  0  0  0
  190.1510  178.1750  143.7440 F   0  0  0  0  0  0  0  0  0  0  0  0
  191.4600  176.5650  146.7450 C   0  0  0  0  0  0  0  0  0  0  0  0
  189.0310  177.5180  145.7700 C   0  0  0  0  0  0  0  0  0  0  0  0
  192.9010  175.8300  148.6960 C   0  0  0  0  0  1  0  0  0  0  0  0
  192.6880  176.0600  147.2760 N   0  0  0  0  0  2  0  0  0  0  0  0
  186.9480  179.0380  141.6100 C   0  0  0  0  0  2  0  0  0  0  0  0
  187.4820  178.2210  140.4390 C   0  0  0  0  0  2  0  0  0  0  0  0
  188.8000  177.5290  140.7870 C   0  0  0  0  0  2  0  0  0  0  0  0
  190.3940  176.2270  138.0910 C   0  0  0  0  0  0  0  0  0  0  0  0
  189.7200  177.1190  137.4550 N   0  0  0  0  0  0  0  0  0  0  0  0
  189.8980  177.7190  139.7360 C   0  0  2  0  0  3  0  0  0  0  0  0
  189.3270  178.1690  138.3870 C   0  0  0  0  0  2  0  0  0  0  0  0
  190.5460  176.4930  139.4370 O   0  0  0  0  0  0  0  0  0  0  0  0
  192.4110  174.8680  137.7350 C   0  0  0  0  0  1  0  0  0  0  0  0
  190.9290  174.9990  137.4380 C   0  0  0  0  0  2  0  0  0  0  0  0
  184.4300  179.1170  141.8320 C   0  0  0  0  0  2  0  0  0  0  0  0
  183.5560  178.2660  141.1460 O   0  0  0  0  0  0  0  0  0  0  0  0
  183.6320  178.7510  139.5230 P   0  0  1  0  0  0  0  0  0  0  0  0
  184.5010  180.2000  139.3870 O   0  0  0  0  0  1  0  0  0  0  0  0
  184.3200  177.6740  138.7110 O   0  0  0  0  0  0  0  0  0  0  0  0
  182.0450  178.9760  138.9540 O   0  0  0  0  0  0  0  0  0  0  0  0
  181.2010  178.6830  140.0340 C   0  0  1  0  0  3  0  0  0  0  0  0
  180.5090  179.9330  140.4900 C   0  0  0  0  0  3  0  0  0  0  0  0
  179.8990  179.9800  141.6720 C   0  0  0  0  0  2  0  0  0  0  0  0
  180.1940  177.5840  139.6620 C   0  0  1  0  0  3  0  0  0  0  0  0
  180.4090  177.0280  137.3380 O   0  0  0  0  0  1  0  0  0  0  0  0
  179.6380  177.7530  138.2500 C   0  0  0  0  0  2  0  0  0  0  0  0
  180.8470  176.2190  139.8040 C   0  0  0  0  0  2  0  0  0  0  0  0
  179.8490  175.2000  140.3190 C   0  0  0  0  0  2  0  0  0  0  0  0
  179.0510  175.7990  141.3770 N   0  0  0  0  0  1  0  0  0  0  0  0
  1 17  1  1  0  0  0
  1  2  1  0  0  0  0
  2  5  1  0  0  0  0
  2  4  2  0  0  0  0
  4  3  2  0  0  0  0
  5  6  1  0  0  0  0
  6 14  1  0  0  0  0
  7  5  2  0  0  0  0
  8 11  1  0  0  0  0
  9 10  1  0  0  0  0
  9 14  2  0  0  0  0
 10 13  1  0  0  0  0
 12  9  1  0  0  0  0
 13 16  1  0  0  0  0
 13 11  2  0  0  0  0
 14  8  1  0  0  0  0
 16 15  1  0  0  0  0
 18 19  1  0  0  0  0
 18 17  1  0  0  0  0
 20 24  1  0  0  0  0
 21 20  2  0  0  0  0
 21 23  1  0  0  0  0
 22 19  1  1  0  0  0
 23 22  1  0  0  0  0
 24 22  1  0  0  0  0
 26 25  1  0  0  0  0
 26 20  1  0  0  0  0
 27  1  1  0  0  0  0
 28 27  1  0  0  0  0
 29 31  2  6  0  0  0
 29 28  1  0  0  0  0
 30 29  1  0  0  0  0
 32 29  1  0  0  0  0
 32 33  1  0  0  0  0
 33 34  1  6  0  0  0
 34 35  2  0  0  0  0
 36 38  1  6  0  0  0
 36 39  1  0  0  0  0
 36 33  1  0  0  0  0
 37 38  1  0  0  0  0
 39 40  1  0  0  0  0
 40 41  1  0  0  0  0
M  END
>  <MODEL>
4

>  <REMARK>
 VINA RESULT:      -6.7      2.381      3.366
  Name = 
  19 active torsions:
  status: ('A' for Active; 'I' for Inactive)
    1  A    between atoms: C_1  and  C_16
    2  A    between atoms: C_1  and  C_20
    3  A    between atoms: O_2  and  C_8
    4  A    between atoms: O_2  and  P_10
    5  A    between atoms: C_5  and  C_29
    6  A    between atoms: C_7  and  C_23
    7  A    between atoms: C_7  and  C_26
    8  A    between atoms: C_8  and  C_20
    9  A    between atoms: C_9  and  C_21
   10  A    between atoms: C_9  and  C_36
   11  A    between atoms: C_9  and  C_37
   12  A    between atoms: P_10  and  O_31
   13  A    between atoms: C_12  and  C_20
   14  A    between atoms: C_12  and  C_26
   15  A    between atoms: C_13  and  C_21
   16  A    between atoms: O_31  and  C_36
   17  A    between atoms: C_32  and  C_36
   18  A    between atoms: N_34  and  C_40
   19  A    between atoms: C_35  and  N_41
                            x       y       z     vdW  Elec       q    Type
                         _______ _______ _______ _____ _____    ______ ____

>  <TORSDO>
F 19

$$$$
=
 OpenBabel11042413303D

 41 42  0  0  1  0  0  0  0  0999 V2000
  185.7340  178.4390  142.3140 C   0  0  2  0  0  3  0  0  0  0  0  0
  185.8210  178.2410  143.8040 C   0  0  0  0  0  0  0  0  0  0  0  0
  184.0020  179.1550  145.3360 O   0  0  0  0  0  0  0  0  0  0  0  0
  184.8850  178.7110  144.5930 C   0  0  0  0  0  0  0  0  0  0  0  0
  186.9510  177.4770  144.3670 C   0  0  0  0  0  0  0  0  0  0  0  0
  187.8110  178.0760  145.3460 N   0  0  0  0  0  2  0  0  0  0  0  0
  187.1220  176.2760  144.0240 O   0  0  0  0  0  0  0  0  0  0  0  0
  189.1560  176.9450  147.0340 C   0  0  0  0  0  3  0  0  0  0  0  0
  190.2360  177.6480  144.9970 C   0  0  0  0  0  0  0  0  0  0  0  0
  191.4370  177.1220  145.4750 C   0  0  0  0  0  3  0  0  0  0  0  0
  190.3370  176.4380  147.4780 N   0  0  0  0  0  0  0  0  0  0  0  0
  190.2330  178.3060  143.8110 F   0  0  0  0  0  0  0  0  0  0  0  0
  191.4700  176.5020  146.7320 C   0  0  0  0  0  0  0  0  0  0  0  0
  189.0700  177.5440  145.7760 C   0  0  0  0  0  0  0  0  0  0  0  0
  192.9660  175.8620  148.6750 C   0  0  0  0  0  1  0  0  0  0  0  0
  192.6830  175.9490  147.2510 N   0  0  0  0  0  2  0  0  0  0  0  0
  187.0230  178.9880  141.7050 C   0  0  0  0  0  2  0  0  0  0  0  0
  187.5680  178.0630  140.6240 C   0  0  0  0  0  2  0  0  0  0  0  0
  188.8080  177.3060  141.0990 C   0  0  0  0  0  2  0  0  0  0  0  0
  190.4280  176.1440  138.3540 C   0  0  0  0  0  0  0  0  0  0  0  0
  189.9680  177.2190  137.8180 N   0  0  0  0  0  0  0  0  0  0  0  0
  190.0190  177.4520  140.1710 C   0  0  2  0  0  3  0  0  0  0  0  0
  189.6580  178.1790  138.8710 C   0  0  0  0  0  2  0  0  0  0  0  0
  190.4900  176.1880  139.7320 O   0  0  0  0  0  0  0  0  0  0  0  0
  190.7840  175.2860  136.0790 C   0  0  0  0  0  1  0  0  0  0  0  0
  190.8210  174.9470  137.5570 C   0  0  0  0  0  2  0  0  0  0  0  0
  184.5170  179.2640  141.9040 C   0  0  0  0  0  2  0  0  0  0  0  0
  183.5360  178.4580  141.3150 O   0  0  0  0  0  0  0  0  0  0  0  0
  183.7180  178.6710  139.6420 P   0  0  1  0  0  0  0  0  0  0  0  0
  182.2030  178.8840  138.9130 O   0  0  0  0  0  0  0  0  0  0  0  0
  184.5770  179.8910  139.3850 O   0  0  0  0  0  1  0  0  0  0  0  0
  184.4760  177.2890  139.0030 O   0  0  0  0  0  0  0  0  0  0  0  0
  184.6990  177.5630  137.6460 C   0  0  1  0  0  3  0  0  0  0  0  0
  186.1550  177.3930  137.3280 C   0  0  0  0  0  3  0  0  0  0  0  0
  186.7650  178.2150  136.4770 C   0  0  0  0  0  2  0  0  0  0  0  0
  183.8190  176.6730  136.7540 C   0  0  1  0  0  3  0  0  0  0  0  0
  182.2410  177.9360  135.4610 O   0  0  0  0  0  1  0  0  0  0  0  0
  183.4970  177.3270  135.4120 C   0  0  0  0  0  2  0  0  0  0  0  0
  184.5020  175.3340  136.5310 C   0  0  0  0  0  2  0  0  0  0  0  0
  183.8030  174.2400  137.3160 C   0  0  0  0  0  2  0  0  0  0  0  0
  182.4770  174.6960  137.7000 N   0  0  0  0  0  1  0  0  0  0  0  0
  1 17  1  1  0  0  0
  1  2  1  0  0  0  0
  2  5  1  0  0  0  0
  2  4  2  0  0  0  0
  4  3  2  0  0  0  0
  5  6  1  0  0  0  0
  6 14  1  0  0  0  0
  7  5  2  0  0  0  0
  8 11  1  0  0  0  0
  9 10  2  0  0  0  0
  9 14  1  0  0  0  0
 10 13  1  0  0  0  0
 12  9  1  0  0  0  0
 13 16  1  0  0  0  0
 13 11  2  0  0  0  0
 14  8  2  0  0  0  0
 16 15  1  0  0  0  0
 18 19  1  0  0  0  0
 18 17  1  0  0  0  0
 20 24  1  0  0  0  0
 21 20  2  0  0  0  0
 21 23  1  0  0  0  0
 22 19  1  1  0  0  0
 23 22  1  0  0  0  0
 24 22  1  0  0  0  0
 25 26  1  0  0  0  0
 26 20  1  0  0  0  0
 27  1  1  0  0  0  0
 28 27  1  0  0  0  0
 29 30  2  6  0  0  0
 29 28  1  0  0  0  0
 31 29  1  0  0  0  0
 32 29  1  0  0  0  0
 33 34  1  6  0  0  0
 33 32  1  0  0  0  0
 35 34  2  0  0  0  0
 36 38  1  6  0  0  0
 36 33  1  0  0  0  0
 38 37  1  0  0  0  0
 39 36  1  0  0  0  0
 39 40  1  0  0  0  0
 40 41  1  0  0  0  0
M  END
>  <MODEL>
5

>  <REMARK>
 VINA RESULT:      -6.7      1.806      2.535
  Name = 
  19 active torsions:
  status: ('A' for Active; 'I' for Inactive)
    1  A    between atoms: C_1  and  C_16
    2  A    between atoms: C_1  and  C_20
    3  A    between atoms: O_2  and  C_8
    4  A    between atoms: O_2  and  P_10
    5  A    between atoms: C_5  and  C_29
    6  A    between atoms: C_7  and  C_23
    7  A    between atoms: C_7  and  C_26
    8  A    between atoms: C_8  and  C_20
    9  A    between atoms: C_9  and  C_21
   10  A    between atoms: C_9  and  C_36
   11  A    between atoms: C_9  and  C_37
   12  A    between atoms: P_10  and  O_31
   13  A    between atoms: C_12  and  C_20
   14  A    between atoms: C_12  and  C_26
   15  A    between atoms: C_13  and  C_21
   16  A    between atoms: O_31  and  C_36
   17  A    between atoms: C_32  and  C_36
   18  A    between atoms: N_34  and  C_40
   19  A    between atoms: C_35  and  N_41
                            x       y       z     vdW  Elec       q    Type
                         _______ _______ _______ _____ _____    ______ ____

>  <TORSDO>
F 19

$$$$
=
 OpenBabel11042413303D

 41 42  0  0  1  0  0  0  0  0999 V2000
  185.3760  178.8150  142.1080 C   0  0  2  0  0  3  0  0  0  0  0  0
  185.4980  178.4770  143.5710 C   0  0  0  0  0  0  0  0  0  0  0  0
  183.6440  179.1100  145.2010 O   0  0  0  0  0  0  0  0  0  0  0  0
  184.5440  178.8020  144.4100 C   0  0  0  0  0  0  0  0  0  0  0  0
  186.6840  177.7400  144.0460 C   0  0  0  0  0  0  0  0  0  0  0  0
  187.4170  178.2090  145.1860 N   0  0  0  0  0  2  0  0  0  0  0  0
  187.0160  176.6630  143.4790 O   0  0  0  0  0  0  0  0  0  0  0  0
  188.8480  177.1290  146.8360 C   0  0  0  0  0  2  0  0  0  0  0  0
  189.8550  177.9150  144.7910 C   0  0  0  0  0  0  0  0  0  0  0  0
  191.0900  177.4470  145.2420 C   0  0  0  0  0  2  0  0  0  0  0  0
  190.0620  176.6800  147.2530 N   0  0  0  0  0  0  0  0  0  0  0  0
  189.7970  178.5870  143.6150 F   0  0  0  0  0  0  0  0  0  0  0  0
  191.1780  176.8130  146.4890 C   0  0  0  0  0  0  0  0  0  0  0  0
  188.7100  177.7390  145.5870 C   0  0  0  0  0  0  0  0  0  0  0  0
  192.5470  175.5670  148.2200 C   0  0  0  0  0  1  0  0  0  0  0  0
  192.4270  176.3190  146.9820 N   0  0  0  0  0  2  0  0  0  0  0  0
  184.3910  177.9150  141.3650 C   0  0  0  0  0  2  0  0  0  0  0  0
  183.1350  178.6770  140.9600 C   0  0  0  0  0  2  0  0  0  0  0  0
  182.9680  178.7280  139.4420 C   0  0  0  0  0  2  0  0  0  0  0  0
  181.1610  181.1710  137.9330 C   0  0  0  0  0  0  0  0  0  0  0  0
  181.1290  180.3310  136.9580 N   0  0  0  0  0  0  0  0  0  0  0  0
  181.5830  179.1960  138.9830 C   0  0  2  0  0  3  0  0  0  0  0  0
  181.3800  178.9920  137.4780 C   0  0  0  0  0  2  0  0  0  0  0  0
  181.4250  180.5950  139.1590 O   0  0  0  0  0  0  0  0  0  0  0  0
  180.6490  182.9240  136.2890 C   0  0  0  0  0  1  0  0  0  0  0  0
  180.9670  182.6360  137.7440 C   0  0  0  0  0  2  0  0  0  0  0  0
  186.7310  178.8740  141.4080 C   0  0  0  0  0  2  0  0  0  0  0  0
  186.6140  178.5410  140.0530 O   0  0  0  0  0  0  0  0  0  0  0  0
  188.1720  178.0830  139.5630 P   0  0  1  0  0  0  0  0  0  0  0  0
  188.8930  179.3310  138.6720 O   0  0  0  0  0  0  0  0  0  0  0  0
  189.0140  177.7870  140.7860 O   0  0  0  0  0  1  0  0  0  0  0  0
  188.0450  176.6870  138.6000 O   0  0  0  0  0  0  0  0  0  0  0  0
  187.4350  177.0950  137.4060 C   0  0  1  0  0  3  0  0  0  0  0  0
  188.3190  176.7550  136.2430 C   0  0  0  0  0  3  0  0  0  0  0  0
  189.0170  177.7030  135.6200 C   0  0  0  0  0  2  0  0  0  0  0  0
  186.0410  176.4650  137.2580 C   0  0  1  0  0  3  0  0  0  0  0  0
  184.2030  176.7840  135.7490 O   0  0  0  0  0  1  0  0  0  0  0  0
  185.0170  177.4380  136.6760 C   0  0  0  0  0  2  0  0  0  0  0  0
  186.1300  175.2210  136.3890 C   0  0  0  0  0  2  0  0  0  0  0  0
  186.0030  173.9680  137.2340 C   0  0  0  0  0  2  0  0  0  0  0  0
  184.6270  173.8290  137.6840 N   0  0  0  0  0  1  0  0  0  0  0  0
  1 17  1  6  0  0  0
  1  2  1  0  0  0  0
  2  5  1  0  0  0  0
  2  4  2  0  0  0  0
  4  3  2  0  0  0  0
  5  6  1  0  0  0  0
  6 14  1  0  0  0  0
  7  5  2  0  0  0  0
  8 11  1  0  0  0  0
  9 10  1  0  0  0  0
  9 14  2  0  0  0  0
 10 13  1  0  0  0  0
 12  9  1  0  0  0  0
 13 16  1  0  0  0  0
 13 11  2  0  0  0  0
 14  8  1  0  0  0  0
 16 15  1  0  0  0  0
 18 17  1  0  0  0  0
 19 18  1  0  0  0  0
 20 24  1  0  0  0  0
 21 23  1  0  0  0  0
 21 20  2  0  0  0  0
 22 24  1  0  0  0  0
 22 19  1  6  0  0  0
 23 22  1  0  0  0  0
 25 26  1  0  0  0  0
 26 20  1  0  0  0  0
 27  1  1  0  0  0  0
 28 27  1  0  0  0  0
 29 30  2  6  0  0  0
 29 28  1  0  0  0  0
 29 31  1  0  0  0  0
 32 29  1  0  0  0  0
 33 34  1  6  0  0  0
 33 32  1  0  0  0  0
 35 34  2  0  0  0  0
 36 39  1  6  0  0  0
 36 33  1  0  0  0  0
 37 38  1  0  0  0  0
 38 36  1  0  0  0  0
 39 40  1  0  0  0  0
 40 41  1  0  0  0  0
M  END
>  <MODEL>
6

>  <REMARK>
 VINA RESULT:      -6.5      2.858      5.613
  Name = 
  19 active torsions:
  status: ('A' for Active; 'I' for Inactive)
    1  A    between atoms: C_1  and  C_16
    2  A    between atoms: C_1  and  C_20
    3  A    between atoms: O_2  and  C_8
    4  A    between atoms: O_2  and  P_10
    5  A    between atoms: C_5  and  C_29
    6  A    between atoms: C_7  and  C_23
    7  A    between atoms: C_7  and  C_26
    8  A    between atoms: C_8  and  C_20
    9  A    between atoms: C_9  and  C_21
   10  A    between atoms: C_9  and  C_36
   11  A    between atoms: C_9  and  C_37
   12  A    between atoms: P_10  and  O_31
   13  A    between atoms: C_12  and  C_20
   14  A    between atoms: C_12  and  C_26
   15  A    between atoms: C_13  and  C_21
   16  A    between atoms: O_31  and  C_36
   17  A    between atoms: C_32  and  C_36
   18  A    between atoms: N_34  and  C_40
   19  A    between atoms: C_35  and  N_41
                            x       y       z     vdW  Elec       q    Type
                         _______ _______ _______ _____ _____    ______ ____

>  <TORSDO>
F 19

$$$$
=
 OpenBabel11042413303D

 41 42  0  0  1  0  0  0  0  0999 V2000
  187.9670  177.5680  141.9510 C   0  0  2  0  0  3  0  0  0  0  0  0
  186.7230  177.8840  142.7390 C   0  0  0  0  0  0  0  0  0  0  0  0
  186.5690  177.2720  145.2080 O   0  0  0  0  0  0  0  0  0  0  0  0
  186.6440  177.5700  144.0100 C   0  0  0  0  0  0  0  0  0  0  0  0
  185.6080  178.5870  142.0770 C   0  0  0  0  0  0  0  0  0  0  0  0
  184.4100  177.8780  141.7330 N   0  0  0  0  0  2  0  0  0  0  0  0
  185.6910  179.8290  141.8690 O   0  0  0  0  0  0  0  0  0  0  0  0
  183.6580  178.5770  139.5230 C   0  0  0  0  0  2  0  0  0  0  0  0
  182.0970  178.7100  141.3540 C   0  0  0  0  0  0  0  0  0  0  0  0
  181.1330  179.2020  140.4730 C   0  0  0  0  0  2  0  0  0  0  0  0
  182.7020  179.0560  138.6820 N   0  0  0  0  0  0  0  0  0  0  0  0
  181.7970  178.6260  142.6740 F   0  0  0  0  0  0  0  0  0  0  0  0
  181.4520  179.3610  139.1170 C   0  0  0  0  0  0  0  0  0  0  0  0
  183.3740  178.3740  140.8750 C   0  0  0  0  0  0  0  0  0  0  0  0
  179.8830  181.1760  138.3010 C   0  0  0  0  0  1  0  0  0  0  0  0
  180.4880  179.8590  138.1850 N   0  0  0  0  0  2  0  0  0  0  0  0
  189.2540  177.8590  142.7200 C   0  0  0  0  0  2  0  0  0  0  0  0
  189.7680  176.6160  143.4370 C   0  0  0  0  0  2  0  0  0  0  0  0
  191.2020  176.8010  143.9330 C   0  0  0  0  0  2  0  0  0  0  0  0
  189.8010  177.0320  147.0140 C   0  0  0  0  0  0  0  0  0  0  0  0
  190.7720  176.2550  147.3440 N   0  0  0  0  0  0  0  0  0  0  0  0
  191.3010  177.3970  145.3410 C   0  0  2  0  0  3  0  0  0  0  0  0
  191.8370  176.3800  146.3560 C   0  0  0  0  0  2  0  0  0  0  0  0
  190.0220  177.7400  145.8490 O   0  0  0  0  0  0  0  0  0  0  0  0
  188.6560  178.2510  148.8140 C   0  0  0  0  0  1  0  0  0  0  0  0
  188.5390  177.1290  147.8000 C   0  0  0  0  0  2  0  0  0  0  0  0
  187.9690  178.2260  140.5740 C   0  0  0  0  0  2  0  0  0  0  0  0
  188.0960  177.2710  139.5580 O   0  0  0  0  0  0  0  0  0  0  0  0
  188.2030  178.1560  138.1150 P   0  0  1  0  0  0  0  0  0  0  0  0
  186.6580  178.6280  137.6040 O   0  0  0  0  0  0  0  0  0  0  0  0
  189.0560  179.3850  138.3450 O   0  0  0  0  0  1  0  0  0  0  0  0
  188.9240  177.1690  136.9320 O   0  0  0  0  0  0  0  0  0  0  0  0
  188.8730  175.8620  137.4340 C   0  0  1  0  0  3  0  0  0  0  0  0
  187.9680  175.0250  136.5780 C   0  0  0  0  0  3  0  0  0  0  0  0
  186.8970  174.4320  137.0990 C   0  0  0  0  0  2  0  0  0  0  0  0
  190.2810  175.2540  137.5290 C   0  0  1  0  0  3  0  0  0  0  0  0
  191.8780  173.8020  136.4810 O   0  0  0  0  0  1  0  0  0  0  0  0
  190.5450  174.2150  136.4400 C   0  0  0  0  0  2  0  0  0  0  0  0
  191.3230  176.3580  137.4580 C   0  0  0  0  0  2  0  0  0  0  0  0
  192.1690  176.3770  138.7160 C   0  0  0  0  0  2  0  0  0  0  0  0
  191.4830  177.1430  139.7450 N   0  0  0  0  0  1  0  0  0  0  0  0
  1 27  1  6  0  0  0
  1 17  1  0  0  0  0
  1  2  1  0  0  0  0
  2  4  2  0  0  0  0
  4  3  2  0  0  0  0
  5  2  1  0  0  0  0
  6  5  1  0  0  0  0
  7  5  2  0  0  0  0
  8 14  1  0  0  0  0
  9 12  1  0  0  0  0
 10  9  1  0  0  0  0
 11 13  2  0  0  0  0
 11  8  1  0  0  0  0
 13 10  1  0  0  0  0
 14  9  2  0  0  0  0
 14  6  1  0  0  0  0
 16 15  1  0  0  0  0
 16 13  1  0  0  0  0
 17 18  1  0  0  0  0
 18 19  1  0  0  0  0
 20 21  2  0  0  0  0
 20 26  1  0  0  0  0
 22 19  1  6  0  0  0
 22 24  1  0  0  0  0
 22 23  1  0  0  0  0
 23 21  1  0  0  0  0
 24 20  1  0  0  0  0
 26 25  1  0  0  0  0
 28 27  1  0  0  0  0
 29 30  2  6  0  0  0
 29 31  1  0  0  0  0
 29 28  1  0  0  0  0
 32 33  1  0  0  0  0
 32 29  1  0  0  0  0
 33 34  1  6  0  0  0
 33 36  1  0  0  0  0
 34 35  2  0  0  0  0
 36 38  1  6  0  0  0
 38 37  1  0  0  0  0
 39 36  1  0  0  0  0
 39 40  1  0  0  0  0
 40 41  1  0  0  0  0
M  END
>  <MODEL>
7

>  <REMARK>
 VINA RESULT:      -6.4      3.052      7.309
  Name = 
  19 active torsions:
  status: ('A' for Active; 'I' for Inactive)
    1  A    between atoms: C_1  and  C_16
    2  A    between atoms: C_1  and  C_20
    3  A    between atoms: O_2  and  C_8
    4  A    between atoms: O_2  and  P_10
    5  A    between atoms: C_5  and  C_29
    6  A    between atoms: C_7  and  C_23
    7  A    between atoms: C_7  and  C_26
    8  A    between atoms: C_8  and  C_20
    9  A    between atoms: C_9  and  C_21
   10  A    between atoms: C_9  and  C_36
   11  A    between atoms: C_9  and  C_37
   12  A    between atoms: P_10  and  O_31
   13  A    between atoms: C_12  and  C_20
   14  A    between atoms: C_12  and  C_26
   15  A    between atoms: C_13  and  C_21
   16  A    between atoms: O_31  and  C_36
   17  A    between atoms: C_32  and  C_36
   18  A    between atoms: N_34  and  C_40
   19  A    between atoms: C_35  and  N_41
                            x       y       z     vdW  Elec       q    Type
                         _______ _______ _______ _____ _____    ______ ____

>  <TORSDO>
F 19

$$$$
=
 OpenBabel11042413303D

 41 42  0  0  1  0  0  0  0  0999 V2000
  186.4490  178.3170  141.8490 C   0  0  2  0  0  3  0  0  0  0  0  0
  186.3420  178.0490  143.3280 C   0  0  0  0  0  0  0  0  0  0  0  0
  184.2990  178.8260  144.6360 O   0  0  0  0  0  0  0  0  0  0  0  0
  185.2900  178.4480  144.0010 C   0  0  0  0  0  0  0  0  0  0  0  0
  187.4160  177.2960  144.0050 C   0  0  0  0  0  0  0  0  0  0  0  0
  188.0920  177.8630  145.1350 N   0  0  0  0  0  2  0  0  0  0  0  0
  187.6950  176.1290  143.6190 O   0  0  0  0  0  0  0  0  0  0  0  0
  189.2600  176.8260  147.0060 C   0  0  0  0  0  2  0  0  0  0  0  0
  190.5370  177.4180  145.0490 C   0  0  0  0  0  0  0  0  0  0  0  0
  191.6830  176.9190  145.6700 C   0  0  0  0  0  2  0  0  0  0  0  0
  190.3890  176.3440  147.5900 N   0  0  0  0  0  0  0  0  0  0  0  0
  190.6540  178.0100  143.8350 F   0  0  0  0  0  0  0  0  0  0  0  0
  191.5910  176.3680  146.9560 C   0  0  0  0  0  0  0  0  0  0  0  0
  189.3010  177.3550  145.7150 C   0  0  0  0  0  0  0  0  0  0  0  0
  193.1580  176.2790  148.9460 C   0  0  0  0  0  1  0  0  0  0  0  0
  192.7440  175.8450  147.6210 N   0  0  0  0  0  2  0  0  0  0  0  0
  187.8120  178.8660  141.4360 C   0  0  0  0  0  2  0  0  0  0  0  0
  188.5970  177.8510  140.6130 C   0  0  0  0  0  2  0  0  0  0  0  0
  188.2440  177.9320  139.1280 C   0  0  0  0  0  2  0  0  0  0  0  0
  190.8200  176.7160  137.2860 C   0  0  0  0  0  0  0  0  0  0  0  0
  190.0610  177.0370  136.2980 N   0  0  0  0  0  0  0  0  0  0  0  0
  189.4350  178.2610  138.2220 C   0  0  2  0  0  3  0  0  0  0  0  0
  189.1040  178.0430  136.7410 C   0  0  0  0  0  2  0  0  0  0  0  0
  190.5230  177.3820  138.4580 O   0  0  0  0  0  0  0  0  0  0  0  0
  191.2820  174.3040  137.2140 C   0  0  0  0  0  1  0  0  0  0  0  0
  191.8960  175.6910  137.1810 C   0  0  0  0  0  2  0  0  0  0  0  0
  185.3060  179.1850  141.3290 C   0  0  0  0  0  2  0  0  0  0  0  0
  185.3630  179.3130  139.9360 O   0  0  0  0  0  0  0  0  0  0  0  0
  183.7750  179.0690  139.3940 P   0  0  1  0  0  0  0  0  0  0  0  0
  183.0320  180.5590  139.0760 O   0  0  0  0  0  1  0  0  0  0  0  0
  183.8010  178.2400  138.1270 O   0  0  0  0  0  0  0  0  0  0  0  0
  182.9130  178.2430  140.6050 O   0  0  0  0  0  0  0  0  0  0  0  0
  181.6460  177.9780  140.0670 C   0  0  1  0  0  3  0  0  0  0  0  0
  181.4920  176.5050  139.8320 C   0  0  0  0  0  3  0  0  0  0  0  0
  181.1790  176.0370  138.6250 C   0  0  0  0  0  2  0  0  0  0  0  0
  180.5360  178.5230  140.9790 C   0  0  1  0  0  3  0  0  0  0  0  0
  180.8060  180.1400  142.7310 O   0  0  0  0  0  1  0  0  0  0  0  0
  181.0290  178.8020  142.3980 C   0  0  0  0  0  2  0  0  0  0  0  0
  179.9490  179.7870  140.3740 C   0  0  0  0  0  2  0  0  0  0  0  0
  179.6070  179.5710  138.9120 C   0  0  0  0  0  2  0  0  0  0  0  0
  179.1170  180.8170  138.3440 N   0  0  0  0  0  1  0  0  0  0  0  0
  1 27  1  1  0  0  0
  1  2  1  0  0  0  0
  2  4  2  0  0  0  0
  2  5  1  0  0  0  0
  4  3  2  0  0  0  0
  5  6  1  0  0  0  0
  6 14  1  0  0  0  0
  7  5  2  0  0  0  0
  8 11  1  0  0  0  0
  9 10  1  0  0  0  0
  9 14  2  0  0  0  0
 10 13  1  0  0  0  0
 12  9  1  0  0  0  0
 13 11  2  0  0  0  0
 13 16  1  0  0  0  0
 14  8  1  0  0  0  0
 16 15  1  0  0  0  0
 17  1  1  0  0  0  0
 18 17  1  0  0  0  0
 19 18  1  0  0  0  0
 20 24  1  0  0  0  0
 21 23  1  0  0  0  0
 21 20  2  0  0  0  0
 22 24  1  0  0  0  0
 22 19  1  1  0  0  0
 23 22  1  0  0  0  0
 26 25  1  0  0  0  0
 26 20  1  0  0  0  0
 28 27  1  0  0  0  0
 29 31  2  6  0  0  0
 29 28  1  0  0  0  0
 29 32  1  0  0  0  0
 30 29  1  0  0  0  0
 33 34  1  1  0  0  0
 33 32  1  0  0  0  0
 33 36  1  0  0  0  0
 35 34  2  0  0  0  0
 36 39  1  6  0  0  0
 36 38  1  0  0  0  0
 38 37  1  0  0  0  0
 40 39  1  0  0  0  0
 41 40  1  0  0  0  0
M  END
>  <MODEL>
8

>  <REMARK>
 VINA RESULT:      -6.4      2.472      3.707
  Name = 
  19 active torsions:
  status: ('A' for Active; 'I' for Inactive)
    1  A    between atoms: C_1  and  C_16
    2  A    between atoms: C_1  and  C_20
    3  A    between atoms: O_2  and  C_8
    4  A    between atoms: O_2  and  P_10
    5  A    between atoms: C_5  and  C_29
    6  A    between atoms: C_7  and  C_23
    7  A    between atoms: C_7  and  C_26
    8  A    between atoms: C_8  and  C_20
    9  A    between atoms: C_9  and  C_21
   10  A    between atoms: C_9  and  C_36
   11  A    between atoms: C_9  and  C_37
   12  A    between atoms: P_10  and  O_31
   13  A    between atoms: C_12  and  C_20
   14  A    between atoms: C_12  and  C_26
   15  A    between atoms: C_13  and  C_21
   16  A    between atoms: O_31  and  C_36
   17  A    between atoms: C_32  and  C_36
   18  A    between atoms: N_34  and  C_40
   19  A    between atoms: C_35  and  N_41
                            x       y       z     vdW  Elec       q    Type
                         _______ _______ _______ _____ _____    ______ ____

>  <TORSDO>
F 19

$$$$
=
 OpenBabel11042413303D

 41 42  0  0  1  0  0  0  0  0999 V2000
  186.3460  178.2790  141.6600 C   0  0  2  0  0  3  0  0  0  0  0  0
  186.1180  177.9530  143.1130 C   0  0  0  0  0  0  0  0  0  0  0  0
  183.9160  178.5600  144.2420 O   0  0  0  0  0  0  0  0  0  0  0  0
  184.9850  178.2650  143.6940 C   0  0  0  0  0  0  0  0  0  0  0  0
  187.1690  177.2420  143.8680 C   0  0  0  0  0  0  0  0  0  0  0  0
  187.8660  177.9040  144.9310 N   0  0  0  0  0  2  0  0  0  0  0  0
  187.4080  176.0310  143.6090 O   0  0  0  0  0  0  0  0  0  0  0  0
  190.2420  177.3740  144.8220 C   0  0  0  0  0  3  0  0  0  0  0  0
  189.0720  176.9480  146.8850 C   0  0  0  0  0  0  0  0  0  0  0  0
  190.2630  176.4770  147.4410 C   0  0  0  0  0  3  0  0  0  0  0  0
  191.3910  176.9130  145.3850 N   0  0  0  0  0  0  0  0  0  0  0  0
  187.9330  176.8790  147.6180 F   0  0  0  0  0  0  0  0  0  0  0  0
  191.4340  176.4760  146.6700 C   0  0  0  0  0  0  0  0  0  0  0  0
  189.0600  177.4220  145.5620 C   0  0  0  0  0  0  0  0  0  0  0  0
  192.8390  175.6390  148.6070 C   0  0  0  0  0  1  0  0  0  0  0  0
  192.6720  176.0040  147.2090 N   0  0  0  0  0  2  0  0  0  0  0  0
  187.7710  178.7440  141.3660 C   0  0  0  0  0  2  0  0  0  0  0  0
  188.5850  177.6500  140.6850 C   0  0  0  0  0  2  0  0  0  0  0  0
  188.9720  178.0380  139.2580 C   0  0  0  0  0  2  0  0  0  0  0  0
  188.2450  176.6770  136.2370 C   0  0  0  0  0  0  0  0  0  0  0  0
  189.4660  176.9880  135.9760 N   0  0  0  0  0  0  0  0  0  0  0  0
  189.1550  176.8430  138.3160 C   0  0  2  0  0  3  0  0  0  0  0  0
  190.1980  177.1270  137.2290 C   0  0  0  0  0  2  0  0  0  0  0  0
  187.9700  176.5740  137.5850 O   0  0  0  0  0  0  0  0  0  0  0  0
  186.4330  177.7690  134.9870 C   0  0  0  0  0  1  0  0  0  0  0  0
  187.2160  176.4830  135.1770 C   0  0  0  0  0  2  0  0  0  0  0  0
  185.3070  179.2520  141.1100 C   0  0  0  0  0  2  0  0  0  0  0  0
  185.3450  179.2930  139.7110 O   0  0  0  0  0  0  0  0  0  0  0  0
  183.7270  179.2070  139.2110 P   0  0  1  0  0  0  0  0  0  0  0  0
  183.1630  180.7490  138.7930 O   0  0  0  0  0  1  0  0  0  0  0  0
  183.6240  178.2910  138.0100 O   0  0  0  0  0  0  0  0  0  0  0  0
  182.8000  178.5820  140.4930 O   0  0  0  0  0  0  0  0  0  0  0  0
  181.5260  178.3340  139.9640 C   0  0  1  0  0  3  0  0  0  0  0  0
  181.2360  176.8630  140.0110 C   0  0  0  0  0  3  0  0  0  0  0  0
  180.6210  176.2580  138.9970 C   0  0  0  0  0  2  0  0  0  0  0  0
  180.4540  179.1440  140.7080 C   0  0  1  0  0  3  0  0  0  0  0  0
  179.8500  179.7170  138.4580 O   0  0  0  0  0  1  0  0  0  0  0  0
  179.3760  179.6880  139.7720 C   0  0  0  0  0  2  0  0  0  0  0  0
  179.8190  178.2850  141.7890 C   0  0  0  0  0  2  0  0  0  0  0  0
  180.2750  178.7330  143.1640 C   0  0  0  0  0  2  0  0  0  0  0  0
  179.6810  177.8690  144.1730 N   0  0  0  0  0  1  0  0  0  0  0  0
  1 27  1  1  0  0  0
  1  2  1  0  0  0  0
  2  4  2  0  0  0  0
  2  5  1  0  0  0  0
  4  3  2  0  0  0  0
  5  6  1  0  0  0  0
  6 14  1  0  0  0  0
  7  5  2  0  0  0  0
  8 11  1  0  0  0  0
  8 14  2  0  0  0  0
  9 10  2  0  0  0  0
  9 12  1  0  0  0  0
 11 13  2  0  0  0  0
 13 16  1  0  0  0  0
 13 10  1  0  0  0  0
 14  9  1  0  0  0  0
 16 15  1  0  0  0  0
 17  1  1  0  0  0  0
 18 17  1  0  0  0  0
 19 18  1  0  0  0  0
 20 24  1  0  0  0  0
 21 20  2  0  0  0  0
 21 23  1  0  0  0  0
 22 19  1  1  0  0  0
 23 22  1  0  0  0  0
 24 22  1  0  0  0  0
 25 26  1  0  0  0  0
 26 20  1  0  0  0  0
 28 27  1  0  0  0  0
 29 31  2  6  0  0  0
 29 28  1  0  0  0  0
 29 32  1  0  0  0  0
 30 29  1  0  0  0  0
 33 34  1  1  0  0  0
 33 32  1  0  0  0  0
 33 36  1  0  0  0  0
 35 34  2  0  0  0  0
 36 38  1  6  0  0  0
 36 39  1  0  0  0  0
 37 38  1  0  0  0  0
 39 40  1  0  0  0  0
 40 41  1  0  0  0  0
M  END
>  <MODEL>
9

>  <REMARK>
 VINA RESULT:      -6.4      2.275      3.825
  Name = 
  19 active torsions:
  status: ('A' for Active; 'I' for Inactive)
    1  A    between atoms: C_1  and  C_16
    2  A    between atoms: C_1  and  C_20
    3  A    between atoms: O_2  and  C_8
    4  A    between atoms: O_2  and  P_10
    5  A    between atoms: C_5  and  C_29
    6  A    between atoms: C_7  and  C_23
    7  A    between atoms: C_7  and  C_26
    8  A    between atoms: C_8  and  C_20
    9  A    between atoms: C_9  and  C_21
   10  A    between atoms: C_9  and  C_36
   11  A    between atoms: C_9  and  C_37
   12  A    between atoms: P_10  and  O_31
   13  A    between atoms: C_12  and  C_20
   14  A    between atoms: C_12  and  C_26
   15  A    between atoms: C_13  and  C_21
   16  A    between atoms: O_31  and  C_36
   17  A    between atoms: C_32  and  C_36
   18  A    between atoms: N_34  and  C_40
   19  A    between atoms: C_35  and  N_41
                            x       y       z     vdW  Elec       q    Type
                         _______ _______ _______ _____ _____    ______ ____

>  <TORSDO>
F 19

$$$$
