=
 OpenBabel11042411263D

 55 59  0  0  1  0  0  0  0  0999 V2000
  190.8740  175.2850  137.3550 C   0  0  1  0  0  3  0  0  0  0  0  0
  191.8200  174.2600  136.9450 C   0  0  0  0  0  2  0  0  0  0  0  0
  193.0740  174.6450  137.4640 O   0  0  0  0  0  0  0  0  0  0  0  0
  193.9710  174.7010  136.3620 C   0  0  1  0  0  3  0  0  0  0  0  0
  194.1460  176.1290  135.8000 C   0  0  0  0  0  2  0  0  0  0  0  0
  195.4250  176.6160  136.1030 O   0  0  0  0  0  1  0  0  0  0  0  0
  195.4250  174.4300  136.8080 C   0  0  2  0  0  3  0  0  0  0  0  0
  196.0020  173.2450  135.9940 C   0  0  0  0  0  1  0  0  0  0  0  0
  195.6960  172.7420  138.8030 O   0  0  0  0  0  0  0  0  0  0  0  0
  195.6320  174.0660  138.2960 C   0  0  0  0  0  0  0  0  0  0  0  0
  195.8340  174.9970  139.1300 O   0  0  0  0  0  1  0  0  0  0  0  0
  191.2980  175.8100  138.5760 O   0  0  0  0  0  0  0  0  0  0  0  0
  189.1520  176.4320  139.3580 O   0  0  0  0  0  0  0  0  0  0  0  0
  192.5620  177.3900  140.3260 C   0  0  0  0  0  1  0  0  0  0  0  0
  190.3940  176.6510  139.2770 C   0  0  0  0  0  0  0  0  0  0  0  0
  191.1060  177.3780  140.2780 N   0  0  0  0  0  0  0  0  0  0  0  0
  190.3180  177.8730  141.4050 C   0  0  0  0  0  2  0  0  0  0  0  0
  191.1340  178.0570  142.6680 C   0  0  0  0  0  2  0  0  0  0  0  0
  190.3670  178.3920  143.9490 C   0  0  0  0  0  2  0  0  0  0  0  0
  190.3400  177.1820  144.9050 C   0  0  0  0  0  2  0  0  0  0  0  0
  186.3990  177.4230  144.5000 C   0  0  1  0  0  3  0  0  0  0  0  0
  183.9300  178.9910  145.3480 C   0  0  0  0  0  2  0  0  0  0  0  0
  188.3650  177.7130  146.5400 N   0  0  0  0  0  2  0  0  0  0  0  0
  184.8230  178.2900  146.4680 C   0  0  0  0  0  2  0  0  0  0  0  0
  187.1230  178.2620  146.8910 C   0  0  0  0  0  2  0  0  0  0  0  0
  184.4120  178.7800  143.7920 C   0  0  0  0  0  3  0  0  0  0  0  0
  187.9610  177.2180  144.1320 C   0  0  0  0  0  2  0  0  0  0  0  0
  186.1850  178.1560  145.9390 C   0  0  1  0  0  3  0  0  0  0  0  0
  185.5520  178.1590  143.4560 N   0  0  0  0  0  0  0  0  0  0  0  0
  188.8590  177.0290  145.2770 C   0  0  1  0  0  3  0  0  0  0  0  0
  190.3120  176.2620  136.3380 C   0  0  0  0  0  2  0  0  0  0  0  0
  189.0650  175.3270  136.0730 C   0  0  1  0  0  3  0  0  0  0  0  0
  188.6050  174.3120  137.0380 O   0  0  0  0  0  1  0  0  0  0  0  0
  187.8990  175.9090  135.2810 C   0  0  0  0  0  2  0  0  0  0  0  0
  183.7550  177.5020  138.6790 C   0  0  0  0  0  0  0  0  0  0  0  0
  186.2540  176.8240  136.9270 C   0  0  0  0  0  0  0  0  0  0  0  0
  187.8900  178.4530  136.7780 C   0  0  0  0  0  3  0  0  0  0  0  0
  182.2310  177.6420  139.0460 C   0  0  0  0  0  0  0  0  0  0  0  0
  183.2550  175.5960  137.2950 C   0  0  0  0  0  0  0  0  0  0  0  0
  185.6140  175.5080  136.6640 N   0  0  0  0  0  2  0  0  0  0  0  0
  183.7000  176.5070  137.9700 C   0  0  0  0  0  3  0  0  0  0  0  0
  184.7890  179.6420  139.1890 O   0  0  0  0  0  1  0  0  0  0  0  0
  184.2220  175.0970  136.2860 C   0  0  0  0  0  2  0  0  0  0  0  0
  187.0090  178.9990  137.5520 N   0  0  0  0  0  0  0  0  0  0  0  0
  181.2100  176.5120  138.3860 C   0  0  0  0  0  3  0  0  0  0  0  0
  184.8350  178.4130  138.5240 N   0  0  0  0  0  0  0  0  0  0  0  0
  186.0310  178.0220  137.7160 C   0  0  1  0  0  3  0  0  0  0  0  0
  181.7820  175.5950  137.4750 C   0  0  0  0  0  0  0  0  0  0  0  0
  187.5330  176.9760  136.3660 C   0  0  0  0  0  0  0  0  0  0  0  0
  181.2150  174.8390  136.5070 F   0  0  0  0  0  0  0  0  0  0  0  0
  181.9950  178.3120  140.4090 C   0  0  0  0  0  2  0  0  0  0  0  0
  180.5750  178.9190  140.2280 C   0  0  1  0  0  3  0  0  0  0  0  0
  179.7220  178.6890  141.3360 O   0  0  0  0  0  1  0  0  0  0  0  0
  180.4950  180.9250  138.5450 C   0  0  0  0  0  1  0  0  0  0  0  0
  180.5130  180.4340  139.9960 C   0  0  0  0  0  2  0  0  0  0  0  0
  1 31  1  6  0  0  0
  1 12  1  0  0  0  0
  2  1  1  0  0  0  0
  2  3  1  0  0  0  0
  4  5  1  1  0  0  0
  4  7  1  0  0  0  0
  4  3  1  0  0  0  0
  5  6  1  0  0  0  0
  7  8  1  6  0  0  0
  7 10  1  0  0  0  0
 10  9  2  0  0  0  0
 10 11  1  0  0  0  0
 12 15  1  0  0  0  0
 15 13  2  0  0  0  0
 15 16  1  0  0  0  0
 16 14  1  0  0  0  0
 16 17  1  0  0  0  0
 17 18  1  0  0  0  0
 18 19  1  0  0  0  0
 19 20  1  0  0  0  0
 21 27  1  6  0  0  0
 21 28  1  0  0  0  0
 22 24  1  0  0  0  0
 23 25  1  0  0  0  0
 26 22  1  0  0  0  0
 27 30  1  0  0  0  0
 28 24  1  1  0  0  0
 28 25  1  0  0  0  0
 29 26  2  0  0  0  0
 29 21  1  0  0  0  0
 30 20  1  6  0  0  0
 30 23  1  0  0  0  0
 32 31  1  0  0  0  0
 32 33  1  1  0  0  0
 34 32  1  0  0  0  0
 34 49  1  0  0  0  0
 35 38  1  0  0  0  0
 37 44  2  0  0  0  0
 38 51  1  0  0  0  0
 39 48  2  0  0  0  0
 39 41  1  0  0  0  0
 40 36  1  0  0  0  0
 41 35  2  0  0  0  0
 43 40  1  0  0  0  0
 43 39  1  0  0  0  0
 44 47  1  0  0  0  0
 45 38  2  0  0  0  0
 46 35  1  0  0  0  0
 46 42  1  0  0  0  0
 47 36  1  6  0  0  0
 47 46  1  0  0  0  0
 48 45  1  0  0  0  0
 49 37  1  0  0  0  0
 49 36  2  0  0  0  0
 50 48  1  0  0  0  0
 52 51  1  0  0  0  0
 52 53  1  1  0  0  0
 54 55  1  0  0  0  0
 55 52  1  0  0  0  0
M  END
>  <MODEL>
1

>  <REMARK>
 VINA RESULT:      -7.6      0.000      0.000
  Name = 
  20 active torsions:
  status: ('A' for Active; 'I' for Inactive)
    1  A    between atoms: C_8  and  C_39
    2  A    between atoms: C_9  and  C_28
    3  A    between atoms: C_9  and  C_33
    4  A    between atoms: C_10  and  C_29
    5  A    between atoms: C_12  and  C_17
    6  A    between atoms: C_12  and  C_55
    7  A    between atoms: C_15  and  C_39
    8  A    between atoms: C_15  and  C_52
    9  A    between atoms: C_17  and  C_49
   10  A    between atoms: C_18  and  C_44
   11  A    between atoms: O_27  and  C_46
   12  A    between atoms: O_27  and  C_55
   13  A    between atoms: C_28  and  C_31
   14  A    between atoms: C_29  and  C_44
   15  A    between atoms: C_31  and  N_51
   16  A    between atoms: O_32  and  C_36
   17  A    between atoms: O_32  and  C_44
   18  A    between atoms: C_33  and  C_50
   19  A    between atoms: C_36  and  C_55
   20  A    between atoms: C_40  and  C_49
                            x       y       z     vdW  Elec       q    Type
                         _______ _______ _______ _____ _____    ______ ____

>  <TORSDO>
F 20

$$$$
=
 OpenBabel11042411263D

 55 59  0  0  1  0  0  0  0  0999 V2000
  192.8750  175.7760  136.4330 C   0  0  1  0  0  3  0  0  0  0  0  0
  193.9540  175.6090  135.4750 C   0  0  0  0  0  2  0  0  0  0  0  0
  195.1530  175.6200  136.2180 O   0  0  0  0  0  0  0  0  0  0  0  0
  196.0080  174.6490  135.6280 C   0  0  1  0  0  3  0  0  0  0  0  0
  197.4630  175.1410  135.4750 C   0  0  0  0  0  2  0  0  0  0  0  0
  197.5850  176.4500  135.9610 O   0  0  0  0  0  1  0  0  0  0  0  0
  196.2470  173.4580  136.5820 C   0  0  2  0  0  3  0  0  0  0  0  0
  195.2650  172.3120  136.2330 C   0  0  0  0  0  1  0  0  0  0  0  0
  195.4260  172.8520  139.0040 O   0  0  0  0  0  1  0  0  0  0  0  0
  196.0580  173.7370  138.0910 C   0  0  0  0  0  0  0  0  0  0  0  0
  196.5570  174.7900  138.5850 O   0  0  0  0  0  0  0  0  0  0  0  0
  191.6620  175.6930  135.7480 O   0  0  0  0  0  0  0  0  0  0  0  0
  191.9160  173.3620  135.4300 O   0  0  0  0  0  0  0  0  0  0  0  0
  189.2040  175.7250  134.6920 C   0  0  0  0  0  1  0  0  0  0  0  0
  191.3230  174.4450  135.1640 C   0  0  0  0  0  0  0  0  0  0  0  0
  189.9630  174.4820  134.7300 N   0  0  0  0  0  0  0  0  0  0  0  0
  189.2900  173.1910  134.5940 C   0  0  0  0  0  2  0  0  0  0  0  0
  188.8610  172.6010  135.9220 C   0  0  0  0  0  2  0  0  0  0  0  0
  187.9360  173.4530  136.7950 C   0  0  0  0  0  2  0  0  0  0  0  0
  186.4560  173.1440  136.4910 C   0  0  0  0  0  2  0  0  0  0  0  0
  183.3180  175.0040  138.0580 C   0  0  1  0  0  3  0  0  0  0  0  0
  181.5020  177.4310  137.7720 C   0  0  0  0  0  2  0  0  0  0  0  0
  185.8390  175.6550  136.9060 N   0  0  0  0  0  2  0  0  0  0  0  0
  183.0650  177.6560  137.9910 C   0  0  0  0  0  2  0  0  0  0  0  0
  184.9660  176.7510  136.9760 C   0  0  0  0  0  2  0  0  0  0  0  0
  180.9850  175.8720  137.7470 C   0  0  0  0  0  3  0  0  0  0  0  0
  184.2840  173.8150  137.5360 C   0  0  0  0  0  2  0  0  0  0  0  0
  183.7650  176.4660  137.4960 C   0  0  1  0  0  3  0  0  0  0  0  0
  181.8200  174.8230  137.7870 N   0  0  0  0  0  0  0  0  0  0  0  0
  185.6800  174.1950  137.2960 C   0  0  1  0  0  3  0  0  0  0  0  0
  192.9480  175.1100  137.7950 C   0  0  0  0  0  2  0  0  0  0  0  0
  191.6650  175.8930  138.2880 C   0  0  1  0  0  3  0  0  0  0  0  0
  190.3660  175.2370  138.5240 O   0  0  0  0  0  1  0  0  0  0  0  0
  191.8750  177.0680  139.2380 C   0  0  0  0  0  2  0  0  0  0  0  0
  187.1420  178.4280  141.8870 C   0  0  0  0  0  0  0  0  0  0  0  0
  189.6680  177.8110  140.1500 C   0  0  0  0  0  0  0  0  0  0  0  0
  189.3760  177.8130  137.8550 C   0  0  0  0  0  3  0  0  0  0  0  0
  186.0820  178.2300  143.0330 C   0  0  0  0  0  0  0  0  0  0  0  0
  188.8470  177.4650  143.2880 C   0  0  0  0  0  0  0  0  0  0  0  0
  190.4180  177.6820  141.4280 N   0  0  0  0  0  2  0  0  0  0  0  0
  188.1370  178.0050  142.4590 C   0  0  0  0  0  3  0  0  0  0  0  0
  185.8880  178.7110  139.8230 O   0  0  0  0  0  1  0  0  0  0  0  0
  190.1320  176.9810  142.7230 C   0  0  0  0  0  2  0  0  0  0  0  0
  188.1940  178.0980  138.2970 N   0  0  0  0  0  0  0  0  0  0  0  0
  186.6440  177.5690  144.4480 C   0  0  0  0  0  3  0  0  0  0  0  0
  187.0950  178.4180  140.4660 N   0  0  0  0  0  0  0  0  0  0  0  0
  188.3420  178.1670  139.6800 C   0  0  1  0  0  3  0  0  0  0  0  0
  187.9930  177.1480  144.4590 C   0  0  0  0  0  0  0  0  0  0  0  0
  190.4550  177.6790  138.9940 C   0  0  0  0  0  0  0  0  0  0  0  0
  188.6370  176.2620  145.2540 F   0  0  0  0  0  0  0  0  0  0  0  0
  184.9200  179.2340  142.9620 C   0  0  0  0  0  2  0  0  0  0  0  0
  184.0290  178.7790  144.1520 C   0  0  1  0  0  3  0  0  0  0  0  0
  184.1970  179.5720  145.3140 O   0  0  0  0  0  1  0  0  0  0  0  0
  182.0410  179.0210  142.4630 C   0  0  0  0  0  1  0  0  0  0  0  0
  182.5160  178.7760  143.8980 C   0  0  0  0  0  2  0  0  0  0  0  0
  1  2  1  6  0  0  0
  1 31  1  0  0  0  0
  2  3  1  0  0  0  0
  4  5  1  1  0  0  0
  4  3  1  0  0  0  0
  4  7  1  0  0  0  0
  5  6  1  0  0  0  0
  7  8  1  6  0  0  0
  7 10  1  0  0  0  0
 10 11  2  0  0  0  0
 10  9  1  0  0  0  0
 12  1  1  0  0  0  0
 14 16  1  0  0  0  0
 15 13  2  0  0  0  0
 15 12  1  0  0  0  0
 16 15  1  0  0  0  0
 17 16  1  0  0  0  0
 17 18  1  0  0  0  0
 18 19  1  0  0  0  0
 20 19  1  0  0  0  0
 21 27  1  6  0  0  0
 22 24  1  0  0  0  0
 23 25  1  0  0  0  0
 23 30  1  0  0  0  0
 26 22  1  0  0  0  0
 26 29  2  0  0  0  0
 28 25  1  1  0  0  0
 28 24  1  0  0  0  0
 28 21  1  0  0  0  0
 29 21  1  0  0  0  0
 30 20  1  6  0  0  0
 30 27  1  0  0  0  0
 31 32  1  0  0  0  0
 32 33  1  1  0  0  0
 32 34  1  0  0  0  0
 35 41  2  0  0  0  0
 35 38  1  0  0  0  0
 36 40  1  0  0  0  0
 37 44  2  0  0  0  0
 37 49  1  0  0  0  0
 38 45  2  0  0  0  0
 39 48  2  0  0  0  0
 40 43  1  0  0  0  0
 41 39  1  0  0  0  0
 42 46  1  0  0  0  0
 43 39  1  0  0  0  0
 45 48  1  0  0  0  0
 46 35  1  0  0  0  0
 47 44  1  6  0  0  0
 47 36  1  0  0  0  0
 47 46  1  0  0  0  0
 48 50  1  0  0  0  0
 49 34  1  0  0  0  0
 49 36  2  0  0  0  0
 51 38  1  0  0  0  0
 51 52  1  0  0  0  0
 52 53  1  1  0  0  0
 54 55  1  0  0  0  0
 55 52  1  0  0  0  0
M  END
>  <MODEL>
2

>  <REMARK>
 VINA RESULT:      -6.8      2.555      6.207
  Name = 
  20 active torsions:
  status: ('A' for Active; 'I' for Inactive)
    1  A    between atoms: C_8  and  C_39
    2  A    between atoms: C_9  and  C_28
    3  A    between atoms: C_9  and  C_33
    4  A    between atoms: C_10  and  C_29
    5  A    between atoms: C_12  and  C_17
    6  A    between atoms: C_12  and  C_55
    7  A    between atoms: C_15  and  C_39
    8  A    between atoms: C_15  and  C_52
    9  A    between atoms: C_17  and  C_49
   10  A    between atoms: C_18  and  C_44
   11  A    between atoms: O_27  and  C_46
   12  A    between atoms: O_27  and  C_55
   13  A    between atoms: C_28  and  C_31
   14  A    between atoms: C_29  and  C_44
   15  A    between atoms: C_31  and  N_51
   16  A    between atoms: O_32  and  C_36
   17  A    between atoms: O_32  and  C_44
   18  A    between atoms: C_33  and  C_50
   19  A    between atoms: C_36  and  C_55
   20  A    between atoms: C_40  and  C_49
                            x       y       z     vdW  Elec       q    Type
                         _______ _______ _______ _____ _____    ______ ____

>  <TORSDO>
F 20

$$$$
=
 OpenBabel11042411263D

 55 59  0  0  1  0  0  0  0  0999 V2000
  192.5490  175.6980  136.6710 C   0  0  1  0  0  3  0  0  0  0  0  0
  193.6740  175.3530  135.8190 C   0  0  0  0  0  2  0  0  0  0  0  0
  194.8380  175.7290  136.5230 O   0  0  0  0  0  0  0  0  0  0  0  0
  195.8400  174.7760  136.1920 C   0  0  1  0  0  3  0  0  0  0  0  0
  197.0100  175.3880  135.3890 C   0  0  0  0  0  2  0  0  0  0  0  0
  197.7260  176.2900  136.1880 O   0  0  0  0  0  1  0  0  0  0  0  0
  196.6140  174.3170  137.4470 C   0  0  2  0  0  3  0  0  0  0  0  0
  197.2190  172.9140  137.1950 C   0  0  0  0  0  1  0  0  0  0  0  0
  195.6770  175.2270  139.7280 O   0  0  0  0  0  1  0  0  0  0  0  0
  195.7970  174.2010  138.7550 C   0  0  0  0  0  0  0  0  0  0  0  0
  195.1200  173.1510  138.9600 O   0  0  0  0  0  0  0  0  0  0  0  0
  191.5410  176.2370  135.8710 O   0  0  0  0  0  0  0  0  0  0  0  0
  190.9460  174.1000  135.0450 O   0  0  0  0  0  0  0  0  0  0  0  0
  189.0520  177.1890  135.6370 C   0  0  0  0  0  1  0  0  0  0  0  0
  190.6910  175.3290  135.1870 C   0  0  0  0  0  0  0  0  0  0  0  0
  189.3550  175.8330  135.2010 N   0  0  0  0  0  0  0  0  0  0  0  0
  188.2890  174.8480  135.0270 C   0  0  0  0  0  2  0  0  0  0  0  0
  187.6450  174.4310  136.3340 C   0  0  0  0  0  2  0  0  0  0  0  0
  186.1200  174.3030  136.3470 C   0  0  0  0  0  2  0  0  0  0  0  0
  185.4750  175.3180  135.3830 C   0  0  0  0  0  2  0  0  0  0  0  0
  184.2660  178.0100  138.0380 C   0  0  1  0  0  3  0  0  0  0  0  0
  183.3520  178.3850  140.9190 C   0  0  0  0  0  2  0  0  0  0  0  0
  183.6570  175.3370  137.2670 N   0  0  0  0  0  2  0  0  0  0  0  0
  182.5210  177.4150  139.9640 C   0  0  0  0  0  2  0  0  0  0  0  0
  183.1390  175.6780  138.5250 C   0  0  0  0  0  2  0  0  0  0  0  0
  184.6450  179.1420  140.2440 C   0  0  0  0  0  3  0  0  0  0  0  0
  185.0970  177.3220  136.8330 C   0  0  0  0  0  2  0  0  0  0  0  0
  183.4290  176.9260  138.9200 C   0  0  1  0  0  3  0  0  0  0  0  0
  185.0740  178.8880  139.0000 N   0  0  0  0  0  0  0  0  0  0  0  0
  184.4990  176.1090  136.2650 C   0  0  1  0  0  3  0  0  0  0  0  0
  192.1200  174.7670  137.7910 C   0  0  0  0  0  2  0  0  0  0  0  0
  191.1580  175.8700  138.3900 C   0  0  1  0  0  3  0  0  0  0  0  0
  189.7560  175.6000  138.7530 O   0  0  0  0  0  1  0  0  0  0  0  0
  191.7740  176.9270  139.3020 C   0  0  0  0  0  2  0  0  0  0  0  0
  188.9050  177.9820  143.9830 C   0  0  0  0  0  0  0  0  0  0  0  0
  190.2740  177.5340  141.2080 C   0  0  0  0  0  0  0  0  0  0  0  0
  188.8940  177.5710  139.3510 C   0  0  0  0  0  3  0  0  0  0  0  0
  188.5500  177.7050  145.4910 C   0  0  0  0  0  0  0  0  0  0  0  0
  191.1100  177.0790  144.3270 C   0  0  0  0  0  0  0  0  0  0  0  0
  191.5580  177.4170  141.9490 N   0  0  0  0  0  2  0  0  0  0  0  0
  190.0670  177.5990  143.9770 C   0  0  0  0  0  3  0  0  0  0  0  0
  186.7910  178.2440  142.8110 O   0  0  0  0  0  1  0  0  0  0  0  0
  191.9680  176.6750  143.1860 C   0  0  0  0  0  2  0  0  0  0  0  0
  188.0720  177.7850  140.3270 N   0  0  0  0  0  0  0  0  0  0  0  0
  189.7560  177.0440  146.4200 C   0  0  0  0  0  3  0  0  0  0  0  0
  188.1670  178.0000  142.7680 N   0  0  0  0  0  0  0  0  0  0  0  0
  188.8760  177.8310  141.4620 C   0  0  1  0  0  3  0  0  0  0  0  0
  190.9510  176.6930  145.7510 C   0  0  0  0  0  0  0  0  0  0  0  0
  190.3970  177.4690  139.8100 C   0  0  0  0  0  0  0  0  0  0  0  0
  191.9320  175.8250  146.0900 F   0  0  0  0  0  0  0  0  0  0  0  0
  187.4700  178.6490  146.0420 C   0  0  0  0  0  2  0  0  0  0  0  0
  186.1620  177.9360  145.5960 C   0  0  1  0  0  3  0  0  0  0  0  0
  186.1270  176.5620  145.9400 O   0  0  0  0  0  1  0  0  0  0  0  0
  183.7920  178.9590  145.1500 C   0  0  0  0  0  1  0  0  0  0  0  0
  184.8550  178.5110  146.1570 C   0  0  0  0  0  2  0  0  0  0  0  0
  1  2  1  6  0  0  0
  1 31  1  0  0  0  0
  2  3  1  0  0  0  0
  4  5  1  6  0  0  0
  4  3  1  0  0  0  0
  4  7  1  0  0  0  0
  5  6  1  0  0  0  0
  7  8  1  6  0  0  0
  7 10  1  0  0  0  0
 10 11  2  0  0  0  0
 10  9  1  0  0  0  0
 12  1  1  0  0  0  0
 13 15  2  0  0  0  0
 15 16  1  0  0  0  0
 15 12  1  0  0  0  0
 16 14  1  0  0  0  0
 17 16  1  0  0  0  0
 17 18  1  0  0  0  0
 18 19  1  0  0  0  0
 20 19  1  0  0  0  0
 21 27  1  6  0  0  0
 21 28  1  0  0  0  0
 21 29  1  0  0  0  0
 23 25  1  0  0  0  0
 24 22  1  0  0  0  0
 26 22  1  0  0  0  0
 28 25  1  6  0  0  0
 28 24  1  0  0  0  0
 29 26  2  0  0  0  0
 30 20  1  1  0  0  0
 30 27  1  0  0  0  0
 30 23  1  0  0  0  0
 31 32  1  0  0  0  0
 32 33  1  1  0  0  0
 32 34  1  0  0  0  0
 34 49  1  0  0  0  0
 35 38  1  0  0  0  0
 36 47  1  0  0  0  0
 36 40  1  0  0  0  0
 37 49  1  0  0  0  0
 37 44  2  0  0  0  0
 38 51  1  0  0  0  0
 38 45  2  0  0  0  0
 39 48  2  0  0  0  0
 40 43  1  0  0  0  0
 41 35  2  0  0  0  0
 41 39  1  0  0  0  0
 43 39  1  0  0  0  0
 46 42  1  0  0  0  0
 46 35  1  0  0  0  0
 47 44  1  1  0  0  0
 47 46  1  0  0  0  0
 48 50  1  0  0  0  0
 48 45  1  0  0  0  0
 49 36  2  0  0  0  0
 52 53  1  1  0  0  0
 52 51  1  0  0  0  0
 52 55  1  0  0  0  0
 54 55  1  0  0  0  0
M  END
>  <MODEL>
3

>  <REMARK>
 VINA RESULT:      -6.7      2.770      6.857
  Name = 
  20 active torsions:
  status: ('A' for Active; 'I' for Inactive)
    1  A    between atoms: C_8  and  C_39
    2  A    between atoms: C_9  and  C_28
    3  A    between atoms: C_9  and  C_33
    4  A    between atoms: C_10  and  C_29
    5  A    between atoms: C_12  and  C_17
    6  A    between atoms: C_12  and  C_55
    7  A    between atoms: C_15  and  C_39
    8  A    between atoms: C_15  and  C_52
    9  A    between atoms: C_17  and  C_49
   10  A    between atoms: C_18  and  C_44
   11  A    between atoms: O_27  and  C_46
   12  A    between atoms: O_27  and  C_55
   13  A    between atoms: C_28  and  C_31
   14  A    between atoms: C_29  and  C_44
   15  A    between atoms: C_31  and  N_51
   16  A    between atoms: O_32  and  C_36
   17  A    between atoms: O_32  and  C_44
   18  A    between atoms: C_33  and  C_50
   19  A    between atoms: C_36  and  C_55
   20  A    between atoms: C_40  and  C_49
                            x       y       z     vdW  Elec       q    Type
                         _______ _______ _______ _____ _____    ______ ____

>  <TORSDO>
F 20

$$$$
=
 OpenBabel11042411263D

 55 59  0  0  1  0  0  0  0  0999 V2000
  190.6450  174.7630  136.6340 C   0  0  1  0  0  3  0  0  0  0  0  0
  191.5570  173.6490  136.8370 C   0  0  0  0  0  2  0  0  0  0  0  0
  192.2800  173.5020  135.6350 O   0  0  0  0  0  0  0  0  0  0  0  0
  193.6060  173.1400  135.9990 C   0  0  1  0  0  3  0  0  0  0  0  0
  194.6620  173.6170  134.9770 C   0  0  0  0  0  2  0  0  0  0  0  0
  195.5850  172.5940  134.7200 O   0  0  0  0  0  1  0  0  0  0  0  0
  194.0830  173.9300  137.2370 C   0  0  2  0  0  3  0  0  0  0  0  0
  194.6970  175.2780  136.7820 C   0  0  0  0  0  1  0  0  0  0  0  0
  195.0370  171.9490  138.6760 O   0  0  0  0  0  1  0  0  0  0  0  0
  195.1560  173.2490  138.1170 C   0  0  0  0  0  0  0  0  0  0  0  0
  196.2580  173.8430  138.3080 O   0  0  0  0  0  0  0  0  0  0  0  0
  189.5110  174.5510  137.4190 O   0  0  0  0  0  0  0  0  0  0  0  0
  188.2320  172.6590  136.7990 O   0  0  0  0  0  0  0  0  0  0  0  0
  187.4790  176.2450  137.0220 C   0  0  0  0  0  1  0  0  0  0  0  0
  188.4020  173.9100  136.8080 C   0  0  0  0  0  0  0  0  0  0  0  0
  187.3090  174.8270  136.7350 N   0  0  0  0  0  0  0  0  0  0  0  0
  185.9740  174.2400  136.6350 C   0  0  0  0  0  2  0  0  0  0  0  0
  185.0550  175.0050  135.7050 C   0  0  0  0  0  2  0  0  0  0  0  0
  183.7410  175.5210  136.2970 C   0  0  0  0  0  2  0  0  0  0  0  0
  183.0300  174.4160  137.1030 C   0  0  0  0  0  2  0  0  0  0  0  0
  180.7040  176.3040  139.7070 C   0  0  1  0  0  3  0  0  0  0  0  0
  180.0860  179.0220  140.9330 C   0  0  0  0  0  2  0  0  0  0  0  0
  183.4190  176.3270  138.8490 N   0  0  0  0  0  2  0  0  0  0  0  0
  181.5530  178.4180  141.0910 C   0  0  0  0  0  2  0  0  0  0  0  0
  183.0620  177.4730  139.5750 C   0  0  0  0  0  2  0  0  0  0  0  0
  178.9960  178.0920  140.1290 C   0  0  0  0  0  3  0  0  0  0  0  0
  181.1780  175.2850  138.5430 C   0  0  0  0  0  2  0  0  0  0  0  0
  181.7820  177.4960  139.9740 C   0  0  1  0  0  3  0  0  0  0  0  0
  179.3220  176.9410  139.5240 N   0  0  0  0  0  0  0  0  0  0  0  0
  182.6280  175.1060  138.4130 C   0  0  1  0  0  3  0  0  0  0  0  0
  191.1750  176.1830  136.5510 C   0  0  0  0  0  2  0  0  0  0  0  0
  191.0100  176.3750  138.1120 C   0  0  1  0  0  3  0  0  0  0  0  0
  191.9430  175.7930  139.0940 O   0  0  0  0  0  1  0  0  0  0  0  0
  190.4380  177.7000  138.6060 C   0  0  0  0  0  2  0  0  0  0  0  0
  187.7920  177.5480  143.5300 C   0  0  0  0  0  0  0  0  0  0  0  0
  189.5180  177.4980  140.9230 C   0  0  0  0  0  0  0  0  0  0  0  0
  191.8130  177.3780  141.1990 C   0  0  0  0  0  3  0  0  0  0  0  0
  186.6860  178.0470  144.5320 C   0  0  0  0  0  0  0  0  0  0  0  0
  186.4330  178.2470  141.6690 C   0  0  0  0  0  0  0  0  0  0  0  0
  188.2390  177.5700  140.1690 N   0  0  0  0  0  2  0  0  0  0  0  0
  187.2330  177.8010  142.4710 C   0  0  0  0  0  3  0  0  0  0  0  0
  189.8540  177.3690  144.8060 O   0  0  0  0  0  1  0  0  0  0  0  0
  187.0060  178.4120  140.3100 C   0  0  0  0  0  2  0  0  0  0  0  0
  191.3750  177.3760  142.4160 N   0  0  0  0  0  0  0  0  0  0  0  0
  185.3140  178.6860  143.8520 C   0  0  0  0  0  3  0  0  0  0  0  0
  189.2110  177.4570  143.5670 N   0  0  0  0  0  0  0  0  0  0  0  0
  189.9880  177.3860  142.2920 C   0  0  1  0  0  3  0  0  0  0  0  0
  185.3070  178.8220  142.4450 C   0  0  0  0  0  0  0  0  0  0  0  0
  190.6650  177.3750  140.1210 C   0  0  0  0  0  0  0  0  0  0  0  0
  184.5680  179.6160  141.6370 F   0  0  0  0  0  0  0  0  0  0  0  0
  186.7050  177.2990  145.8750 C   0  0  0  0  0  2  0  0  0  0  0  0
  186.4670  178.4540  146.8890 C   0  0  1  0  0  3  0  0  0  0  0  0
  185.1280  178.5310  147.3460 O   0  0  0  0  0  1  0  0  0  0  0  0
  188.6240  177.6210  148.1210 C   0  0  0  0  0  1  0  0  0  0  0  0
  187.3140  178.4140  148.1670 C   0  0  0  0  0  2  0  0  0  0  0  0
  1 31  1  1  0  0  0
  1  2  1  0  0  0  0
  1 12  1  0  0  0  0
  3  4  1  0  0  0  0
  3  2  1  0  0  0  0
  4  5  1  6  0  0  0
  4  7  1  0  0  0  0
  6  5  1  0  0  0  0
  7  8  1  6  0  0  0
  7 10  1  0  0  0  0
 10 11  2  0  0  0  0
 10  9  1  0  0  0  0
 13 15  2  0  0  0  0
 15 12  1  0  0  0  0
 16 15  1  0  0  0  0
 16 14  1  0  0  0  0
 17 16  1  0  0  0  0
 18 19  1  0  0  0  0
 18 17  1  0  0  0  0
 19 20  1  0  0  0  0
 21 27  1  6  0  0  0
 21 28  1  0  0  0  0
 22 24  1  0  0  0  0
 23 25  1  0  0  0  0
 26 22  1  0  0  0  0
 28 25  1  1  0  0  0
 28 24  1  0  0  0  0
 29 21  1  0  0  0  0
 29 26  2  0  0  0  0
 30 20  1  6  0  0  0
 30 27  1  0  0  0  0
 30 23  1  0  0  0  0
 31 32  1  0  0  0  0
 32 34  1  0  0  0  0
 32 33  1  1  0  0  0
 34 49  1  0  0  0  0
 35 46  1  0  0  0  0
 35 38  1  0  0  0  0
 37 44  2  0  0  0  0
 38 51  1  0  0  0  0
 39 48  2  0  0  0  0
 39 41  1  0  0  0  0
 40 43  1  0  0  0  0
 40 36  1  0  0  0  0
 41 35  2  0  0  0  0
 43 39  1  0  0  0  0
 45 38  2  0  0  0  0
 46 42  1  0  0  0  0
 47 36  1  6  0  0  0
 47 44  1  0  0  0  0
 47 46  1  0  0  0  0
 48 45  1  0  0  0  0
 49 36  2  0  0  0  0
 49 37  1  0  0  0  0
 50 48  1  0  0  0  0
 51 52  1  0  0  0  0
 52 53  1  1  0  0  0
 52 55  1  0  0  0  0
 54 55  1  0  0  0  0
M  END
>  <MODEL>
4

>  <REMARK>
 VINA RESULT:      -6.7      2.495      6.531
  Name = 
  20 active torsions:
  status: ('A' for Active; 'I' for Inactive)
    1  A    between atoms: C_8  and  C_39
    2  A    between atoms: C_9  and  C_28
    3  A    between atoms: C_9  and  C_33
    4  A    between atoms: C_10  and  C_29
    5  A    between atoms: C_12  and  C_17
    6  A    between atoms: C_12  and  C_55
    7  A    between atoms: C_15  and  C_39
    8  A    between atoms: C_15  and  C_52
    9  A    between atoms: C_17  and  C_49
   10  A    between atoms: C_18  and  C_44
   11  A    between atoms: O_27  and  C_46
   12  A    between atoms: O_27  and  C_55
   13  A    between atoms: C_28  and  C_31
   14  A    between atoms: C_29  and  C_44
   15  A    between atoms: C_31  and  N_51
   16  A    between atoms: O_32  and  C_36
   17  A    between atoms: O_32  and  C_44
   18  A    between atoms: C_33  and  C_50
   19  A    between atoms: C_36  and  C_55
   20  A    between atoms: C_40  and  C_49
                            x       y       z     vdW  Elec       q    Type
                         _______ _______ _______ _____ _____    ______ ____

>  <TORSDO>
F 20

$$$$
=
 OpenBabel11042411263D

 55 59  0  0  1  0  0  0  0  0999 V2000
  191.3380  175.5760  137.1450 C   0  0  1  0  0  3  0  0  0  0  0  0
  192.5450  175.5280  136.3370 C   0  0  0  0  0  2  0  0  0  0  0  0
  193.6290  175.6290  137.2330 O   0  0  0  0  0  0  0  0  0  0  0  0
  194.5520  174.6080  136.8730 C   0  0  1  0  0  3  0  0  0  0  0  0
  196.0160  175.0990  136.8590 C   0  0  0  0  0  2  0  0  0  0  0  0
  196.2970  175.7500  135.6490 O   0  0  0  0  0  1  0  0  0  0  0  0
  194.6610  173.5350  137.9780 C   0  0  2  0  0  3  0  0  0  0  0  0
  195.7330  173.9650  139.0100 C   0  0  0  0  0  1  0  0  0  0  0  0
  195.7020  171.1490  138.3390 O   0  0  0  0  0  1  0  0  0  0  0  0
  195.0570  172.1130  137.5200 C   0  0  0  0  0  0  0  0  0  0  0  0
  194.7270  171.7310  136.3580 O   0  0  0  0  0  0  0  0  0  0  0  0
  191.6970  175.9070  138.4520 O   0  0  0  0  0  0  0  0  0  0  0  0
  189.5460  176.3470  139.3350 O   0  0  0  0  0  0  0  0  0  0  0  0
  192.9180  177.5010  140.2200 C   0  0  0  0  0  1  0  0  0  0  0  0
  190.7660  176.6540  139.2180 C   0  0  0  0  0  0  0  0  0  0  0  0
  191.4650  177.3900  140.2230 N   0  0  0  0  0  0  0  0  0  0  0  0
  190.6890  177.7850  141.3970 C   0  0  0  0  0  2  0  0  0  0  0  0
  191.3480  177.3980  142.7050 C   0  0  0  0  0  2  0  0  0  0  0  0
  190.8000  178.0460  143.9780 C   0  0  0  0  0  2  0  0  0  0  0  0
  190.7700  177.0330  145.1410 C   0  0  0  0  0  2  0  0  0  0  0  0
  186.8380  177.3220  144.6790 C   0  0  1  0  0  3  0  0  0  0  0  0
  184.3850  178.9560  145.4440 C   0  0  0  0  0  2  0  0  0  0  0  0
  188.7840  177.6490  146.7320 N   0  0  0  0  0  2  0  0  0  0  0  0
  185.2530  178.2780  146.5970 C   0  0  0  0  0  2  0  0  0  0  0  0
  187.5460  178.2290  147.0490 C   0  0  0  0  0  2  0  0  0  0  0  0
  184.8810  178.6860  143.9020 C   0  0  0  0  0  3  0  0  0  0  0  0
  188.4000  177.0800  144.3380 C   0  0  0  0  0  2  0  0  0  0  0  0
  186.6190  178.1060  146.0900 C   0  0  1  0  0  3  0  0  0  0  0  0
  186.0150  178.0360  143.6010 N   0  0  0  0  0  0  0  0  0  0  0  0
  189.2820  176.9150  145.4990 C   0  0  1  0  0  3  0  0  0  0  0  0
  190.0700  176.2060  136.5950 C   0  0  0  0  0  2  0  0  0  0  0  0
  189.4730  174.7840  136.2440 C   0  0  1  0  0  3  0  0  0  0  0  0
  189.2370  173.7410  137.2580 O   0  0  0  0  0  1  0  0  0  0  0  0
  188.4470  174.7060  135.1170 C   0  0  0  0  0  2  0  0  0  0  0  0
  183.1650  175.4410  136.8000 C   0  0  0  0  0  0  0  0  0  0  0  0
  186.1810  175.3130  135.9870 C   0  0  0  0  0  0  0  0  0  0  0  0
  187.3010  177.3320  135.8310 C   0  0  0  0  0  3  0  0  0  0  0  0
  181.6230  175.1400  136.7160 C   0  0  0  0  0  0  0  0  0  0  0  0
  183.6470  173.2630  135.8920 C   0  0  0  0  0  0  0  0  0  0  0  0
  186.0220  173.8360  135.9290 N   0  0  0  0  0  2  0  0  0  0  0  0
  183.6000  174.3720  136.3910 C   0  0  0  0  0  3  0  0  0  0  0  0
  183.3920  177.8550  136.9680 O   0  0  0  0  0  1  0  0  0  0  0  0
  184.9820  172.9350  135.3330 C   0  0  0  0  0  2  0  0  0  0  0  0
  186.1090  177.6890  136.1810 N   0  0  0  0  0  0  0  0  0  0  0  0
  181.1960  173.6420  136.1430 C   0  0  0  0  0  3  0  0  0  0  0  0
  183.9650  176.6100  136.6880 N   0  0  0  0  0  0  0  0  0  0  0  0
  185.4160  176.4930  136.3460 C   0  0  1  0  0  3  0  0  0  0  0  0
  182.2470  172.8150  135.6850 C   0  0  0  0  0  0  0  0  0  0  0  0
  187.4890  175.7710  135.7500 C   0  0  0  0  0  0  0  0  0  0  0  0
  182.2380  171.7570  134.8410 F   0  0  0  0  0  0  0  0  0  0  0  0
  180.7960  175.9270  137.7450 C   0  0  0  0  0  2  0  0  0  0  0  0
  181.3140  175.3420  139.0890 C   0  0  1  0  0  3  0  0  0  0  0  0
  182.0310  176.2820  139.8700 O   0  0  0  0  0  1  0  0  0  0  0  0
  178.9310  174.3030  139.4140 C   0  0  0  0  0  1  0  0  0  0  0  0
  180.2470  174.7800  140.0370 C   0  0  0  0  0  2  0  0  0  0  0  0
  1  2  1  6  0  0  0
  1 12  1  0  0  0  0
  2  3  1  0  0  0  0
  4  5  1  1  0  0  0
  4  3  1  0  0  0  0
  4  7  1  0  0  0  0
  6  5  1  0  0  0  0
  7  8  1  1  0  0  0
 10  7  1  0  0  0  0
 10  9  1  0  0  0  0
 11 10  2  0  0  0  0
 12 15  1  0  0  0  0
 14 16  1  0  0  0  0
 15 13  2  0  0  0  0
 15 16  1  0  0  0  0
 16 17  1  0  0  0  0
 17 18  1  0  0  0  0
 18 19  1  0  0  0  0
 19 20  1  0  0  0  0
 21 27  1  6  0  0  0
 21 28  1  0  0  0  0
 22 24  1  0  0  0  0
 23 25  1  0  0  0  0
 26 22  1  0  0  0  0
 27 30  1  0  0  0  0
 28 24  1  1  0  0  0
 28 25  1  0  0  0  0
 29 26  2  0  0  0  0
 29 21  1  0  0  0  0
 30 20  1  6  0  0  0
 30 23  1  0  0  0  0
 31  1  1  0  0  0  0
 32 31  1  0  0  0  0
 32 33  1  1  0  0  0
 34 49  1  0  0  0  0
 34 32  1  0  0  0  0
 37 44  2  0  0  0  0
 38 35  1  0  0  0  0
 38 51  1  0  0  0  0
 39 41  1  0  0  0  0
 40 36  1  0  0  0  0
 41 35  2  0  0  0  0
 43 39  1  0  0  0  0
 43 40  1  0  0  0  0
 44 47  1  0  0  0  0
 45 38  2  0  0  0  0
 46 35  1  0  0  0  0
 46 42  1  0  0  0  0
 47 36  1  6  0  0  0
 47 46  1  0  0  0  0
 48 39  2  0  0  0  0
 48 45  1  0  0  0  0
 49 37  1  0  0  0  0
 49 36  2  0  0  0  0
 50 48  1  0  0  0  0
 51 52  1  0  0  0  0
 52 53  1  1  0  0  0
 52 55  1  0  0  0  0
 54 55  1  0  0  0  0
M  END
>  <MODEL>
5

>  <REMARK>
 VINA RESULT:      -6.1      1.858      2.322
  Name = 
  20 active torsions:
  status: ('A' for Active; 'I' for Inactive)
    1  A    between atoms: C_8  and  C_39
    2  A    between atoms: C_9  and  C_28
    3  A    between atoms: C_9  and  C_33
    4  A    between atoms: C_10  and  C_29
    5  A    between atoms: C_12  and  C_17
    6  A    between atoms: C_12  and  C_55
    7  A    between atoms: C_15  and  C_39
    8  A    between atoms: C_15  and  C_52
    9  A    between atoms: C_17  and  C_49
   10  A    between atoms: C_18  and  C_44
   11  A    between atoms: O_27  and  C_46
   12  A    between atoms: O_27  and  C_55
   13  A    between atoms: C_28  and  C_31
   14  A    between atoms: C_29  and  C_44
   15  A    between atoms: C_31  and  N_51
   16  A    between atoms: O_32  and  C_36
   17  A    between atoms: O_32  and  C_44
   18  A    between atoms: C_33  and  C_50
   19  A    between atoms: C_36  and  C_55
   20  A    between atoms: C_40  and  C_49
                            x       y       z     vdW  Elec       q    Type
                         _______ _______ _______ _____ _____    ______ ____

>  <TORSDO>
F 20

$$$$
=
 OpenBabel11042411263D

 55 59  0  0  1  0  0  0  0  0999 V2000
  192.8300  176.2290  136.8910 C   0  0  1  0  0  3  0  0  0  0  0  0
  193.9590  176.1790  135.9780 C   0  0  0  0  0  2  0  0  0  0  0  0
  195.0930  175.8760  136.7620 O   0  0  0  0  0  0  0  0  0  0  0  0
  195.8000  174.8500  136.0760 C   0  0  1  0  0  3  0  0  0  0  0  0
  197.0830  175.3630  135.3870 C   0  0  0  0  0  2  0  0  0  0  0  0
  197.6180  176.4450  136.0990 O   0  0  0  0  0  1  0  0  0  0  0  0
  196.4340  173.8480  137.0660 C   0  0  2  0  0  3  0  0  0  0  0  0
  197.3890  172.9010  136.2990 C   0  0  0  0  0  1  0  0  0  0  0  0
  194.6250  171.9500  137.2420 O   0  0  0  0  0  0  0  0  0  0  0  0
  195.4560  172.9330  137.8400 C   0  0  0  0  0  0  0  0  0  0  0  0
  195.4310  172.9970  139.1040 O   0  0  0  0  0  1  0  0  0  0  0  0
  191.6550  176.2050  136.1380 O   0  0  0  0  0  0  0  0  0  0  0  0
  191.8450  173.8720  135.7880 O   0  0  0  0  0  0  0  0  0  0  0  0
  189.2300  176.3310  135.0150 C   0  0  0  0  0  1  0  0  0  0  0  0
  191.2940  174.9780  135.5240 C   0  0  0  0  0  0  0  0  0  0  0  0
  189.9490  175.0650  135.0530 N   0  0  0  0  0  0  0  0  0  0  0  0
  189.2400  173.7980  134.8770 C   0  0  0  0  0  2  0  0  0  0  0  0
  188.4900  173.3580  136.1180 C   0  0  0  0  0  2  0  0  0  0  0  0
  187.0110  173.0010  135.9460 C   0  0  0  0  0  2  0  0  0  0  0  0
  186.4330  173.6530  134.6730 C   0  0  0  0  0  2  0  0  0  0  0  0
  182.5610  173.3600  135.4960 C   0  0  1  0  0  3  0  0  0  0  0  0
  180.4860  171.7350  137.0210 C   0  0  0  0  0  2  0  0  0  0  0  0
  184.7650  171.6510  134.9220 N   0  0  0  0  0  2  0  0  0  0  0  0
  181.3760  171.0100  135.9140 C   0  0  0  0  0  2  0  0  0  0  0  0
  183.6740  170.9720  135.4850 C   0  0  0  0  0  2  0  0  0  0  0  0
  180.7500  173.3430  137.2310 C   0  0  0  0  0  3  0  0  0  0  0  0
  184.0190  174.0080  135.2250 C   0  0  0  0  0  2  0  0  0  0  0  0
  182.6300  171.7590  135.7830 C   0  0  1  0  0  3  0  0  0  0  0  0
  181.7310  174.0110  136.6070 N   0  0  0  0  0  0  0  0  0  0  0  0
  184.9980  173.1160  134.5940 C   0  0  1  0  0  3  0  0  0  0  0  0
  192.8450  175.4200  138.1760 C   0  0  0  0  0  2  0  0  0  0  0  0
  191.5140  176.1160  138.6720 C   0  0  1  0  0  3  0  0  0  0  0  0
  190.2110  175.4270  138.7000 O   0  0  0  0  0  1  0  0  0  0  0  0
  191.6270  177.1360  139.8010 C   0  0  0  0  0  2  0  0  0  0  0  0
  186.9180  178.6480  142.4080 C   0  0  0  0  0  0  0  0  0  0  0  0
  189.4330  177.9410  140.6910 C   0  0  0  0  0  0  0  0  0  0  0  0
  189.1420  177.8890  138.3960 C   0  0  0  0  0  3  0  0  0  0  0  0
  185.8530  178.4990  143.5580 C   0  0  0  0  0  0  0  0  0  0  0  0
  188.6050  177.6920  143.8350 C   0  0  0  0  0  0  0  0  0  0  0  0
  190.1800  177.8320  141.9720 N   0  0  0  0  0  2  0  0  0  0  0  0
  187.9050  178.2230  142.9930 C   0  0  0  0  0  3  0  0  0  0  0  0
  185.6700  178.8990  140.3370 O   0  0  0  0  0  1  0  0  0  0  0  0
  189.8810  177.1710  143.2850 C   0  0  0  0  0  2  0  0  0  0  0  0
  187.9660  178.2060  138.8290 N   0  0  0  0  0  0  0  0  0  0  0  0
  186.4030  177.8660  144.9900 C   0  0  0  0  0  3  0  0  0  0  0  0
  186.8710  178.6020  140.9880 N   0  0  0  0  0  0  0  0  0  0  0  0
  188.1140  178.3090  140.2100 C   0  0  1  0  0  3  0  0  0  0  0  0
  187.7440  177.4210  145.0140 C   0  0  0  0  0  0  0  0  0  0  0  0
  190.2180  177.7660  139.5390 C   0  0  0  0  0  0  0  0  0  0  0  0
  188.3720  176.5450  145.8320 F   0  0  0  0  0  0  0  0  0  0  0  0
  184.7100  179.5220  143.4600 C   0  0  0  0  0  2  0  0  0  0  0  0
  183.4810  178.6060  143.1980 C   0  0  1  0  0  3  0  0  0  0  0  0
  182.6160  178.4960  144.3150 O   0  0  0  0  0  1  0  0  0  0  0  0
  181.1970  178.3420  141.9430 C   0  0  0  0  0  1  0  0  0  0  0  0
  182.5680  179.0190  142.0370 C   0  0  0  0  0  2  0  0  0  0  0  0
  1  2  1  6  0  0  0
  1 31  1  0  0  0  0
  2  3  1  0  0  0  0
  4  5  1  1  0  0  0
  4  3  1  0  0  0  0
  4  7  1  0  0  0  0
  5  6  1  0  0  0  0
  7  8  1  6  0  0  0
  7 10  1  0  0  0  0
  9 10  2  0  0  0  0
 10 11  1  0  0  0  0
 12  1  1  0  0  0  0
 14 16  1  0  0  0  0
 15 13  2  0  0  0  0
 15 12  1  0  0  0  0
 16 15  1  0  0  0  0
 17 16  1  0  0  0  0
 17 18  1  0  0  0  0
 19 18  1  0  0  0  0
 20 19  1  0  0  0  0
 21 27  1  1  0  0  0
 21 28  1  0  0  0  0
 21 29  1  0  0  0  0
 22 26  1  0  0  0  0
 23 25  1  0  0  0  0
 24 22  1  0  0  0  0
 28 25  1  6  0  0  0
 28 24  1  0  0  0  0
 29 26  2  0  0  0  0
 30 20  1  1  0  0  0
 30 23  1  0  0  0  0
 30 27  1  0  0  0  0
 31 32  1  0  0  0  0
 32 33  1  1  0  0  0
 32 34  1  0  0  0  0
 35 41  2  0  0  0  0
 35 38  1  0  0  0  0
 36 40  1  0  0  0  0
 37 44  2  0  0  0  0
 37 49  1  0  0  0  0
 38 45  2  0  0  0  0
 39 48  2  0  0  0  0
 40 43  1  0  0  0  0
 41 39  1  0  0  0  0
 42 46  1  0  0  0  0
 43 39  1  0  0  0  0
 45 48  1  0  0  0  0
 46 35  1  0  0  0  0
 47 44  1  6  0  0  0
 47 36  1  0  0  0  0
 47 46  1  0  0  0  0
 48 50  1  0  0  0  0
 49 34  1  0  0  0  0
 49 36  2  0  0  0  0
 51 38  1  0  0  0  0
 52 51  1  0  0  0  0
 52 53  1  1  0  0  0
 54 55  1  0  0  0  0
 55 52  1  0  0  0  0
M  END
>  <MODEL>
6

>  <REMARK>
 VINA RESULT:      -6.0      2.826      7.099
  Name = 
  20 active torsions:
  status: ('A' for Active; 'I' for Inactive)
    1  A    between atoms: C_8  and  C_39
    2  A    between atoms: C_9  and  C_28
    3  A    between atoms: C_9  and  C_33
    4  A    between atoms: C_10  and  C_29
    5  A    between atoms: C_12  and  C_17
    6  A    between atoms: C_12  and  C_55
    7  A    between atoms: C_15  and  C_39
    8  A    between atoms: C_15  and  C_52
    9  A    between atoms: C_17  and  C_49
   10  A    between atoms: C_18  and  C_44
   11  A    between atoms: O_27  and  C_46
   12  A    between atoms: O_27  and  C_55
   13  A    between atoms: C_28  and  C_31
   14  A    between atoms: C_29  and  C_44
   15  A    between atoms: C_31  and  N_51
   16  A    between atoms: O_32  and  C_36
   17  A    between atoms: O_32  and  C_44
   18  A    between atoms: C_33  and  C_50
   19  A    between atoms: C_36  and  C_55
   20  A    between atoms: C_40  and  C_49
                            x       y       z     vdW  Elec       q    Type
                         _______ _______ _______ _____ _____    ______ ____

>  <TORSDO>
F 20

$$$$
=
 OpenBabel11042411263D

 55 59  0  0  1  0  0  0  0  0999 V2000
  192.7340  175.5810  136.8500 C   0  0  1  0  0  3  0  0  0  0  0  0
  193.5170  174.4790  137.3820 C   0  0  0  0  0  2  0  0  0  0  0  0
  194.8530  174.7190  137.0010 O   0  0  0  0  0  0  0  0  0  0  0  0
  195.5000  173.4530  136.9640 C   0  0  1  0  0  3  0  0  0  0  0  0
  195.1070  172.6110  135.7310 C   0  0  0  0  0  2  0  0  0  0  0  0
  196.1450  172.6160  134.7890 O   0  0  0  0  0  1  0  0  0  0  0  0
  197.0130  173.6040  136.6890 C   0  0  2  0  0  3  0  0  0  0  0  0
  197.8010  172.6290  137.5990 C   0  0  0  0  0  1  0  0  0  0  0  0
  197.6230  176.0630  135.9900 O   0  0  0  0  0  0  0  0  0  0  0  0
  197.6210  175.0030  136.9360 C   0  0  0  0  0  0  0  0  0  0  0  0
  198.0920  175.2720  138.0800 O   0  0  0  0  0  1  0  0  0  0  0  0
  191.3970  175.1850  136.7940 O   0  0  0  0  0  0  0  0  0  0  0  0
  190.9750  175.9750  134.6040 O   0  0  0  0  0  0  0  0  0  0  0  0
  188.7960  175.0250  137.4020 C   0  0  0  0  0  1  0  0  0  0  0  0
  190.5830  175.7630  135.7850 C   0  0  0  0  0  0  0  0  0  0  0  0
  189.2090  175.5390  136.1030 N   0  0  0  0  0  0  0  0  0  0  0  0
  188.2690  175.5820  134.9840 C   0  0  0  0  0  2  0  0  0  0  0  0
  187.6360  176.9450  134.7910 C   0  0  0  0  0  2  0  0  0  0  0  0
  186.2530  177.1630  135.4090 C   0  0  0  0  0  2  0  0  0  0  0  0
  185.5910  175.8160  135.7630 C   0  0  0  0  0  2  0  0  0  0  0  0
  182.9160  175.6900  138.6930 C   0  0  1  0  0  3  0  0  0  0  0  0
  180.8660  177.3410  140.2240 C   0  0  0  0  0  2  0  0  0  0  0  0
  184.8830  177.4730  137.6630 N   0  0  0  0  0  2  0  0  0  0  0  0
  182.3900  177.8090  140.2220 C   0  0  0  0  0  2  0  0  0  0  0  0
  183.9680  178.1000  138.5220 C   0  0  0  0  0  2  0  0  0  0  0  0
  180.5250  175.9580  139.4050 C   0  0  0  0  0  3  0  0  0  0  0  0
  183.7880  175.2500  137.4040 C   0  0  0  0  0  2  0  0  0  0  0  0
  183.0200  177.2850  139.0050 C   0  0  1  0  0  3  0  0  0  0  0  0
  181.4330  175.3030  138.6680 N   0  0  0  0  0  0  0  0  0  0  0  0
  184.9980  176.0440  137.1600 C   0  0  1  0  0  3  0  0  0  0  0  0
  193.0150  177.0060  137.2920 C   0  0  0  0  0  2  0  0  0  0  0  0
  192.3250  176.7480  138.6910 C   0  0  1  0  0  3  0  0  0  0  0  0
  193.0870  176.4480  139.9170 O   0  0  0  0  0  1  0  0  0  0  0  0
  191.0490  177.5230  139.0060 C   0  0  0  0  0  2  0  0  0  0  0  0
  187.8090  177.4770  143.5620 C   0  0  0  0  0  0  0  0  0  0  0  0
  189.8410  177.3560  141.1880 C   0  0  0  0  0  0  0  0  0  0  0  0
  192.0750  177.1270  141.7450 C   0  0  0  0  0  3  0  0  0  0  0  0
  186.6110  178.0240  144.4240 C   0  0  0  0  0  0  0  0  0  0  0  0
  186.7250  178.2460  141.5540 C   0  0  0  0  0  0  0  0  0  0  0  0
  188.6700  177.4900  140.2820 N   0  0  0  0  0  2  0  0  0  0  0  0
  187.3970  177.7600  142.4450 C   0  0  0  0  0  3  0  0  0  0  0  0
  189.6850  177.1960  145.0810 O   0  0  0  0  0  1  0  0  0  0  0  0
  187.4690  178.3890  140.2780 C   0  0  0  0  0  2  0  0  0  0  0  0
  191.4900  177.1410  142.8990 N   0  0  0  0  0  0  0  0  0  0  0  0
  185.3640  178.7300  143.5860 C   0  0  0  0  0  3  0  0  0  0  0  0
  189.2060  177.3200  143.7740 N   0  0  0  0  0  0  0  0  0  0  0  0
  190.1310  177.2160  142.6040 C   0  0  1  0  0  3  0  0  0  0  0  0
  185.5380  178.8710  142.1900 C   0  0  0  0  0  0  0  0  0  0  0  0
  191.0720  177.1820  140.5330 C   0  0  0  0  0  0  0  0  0  0  0  0
  184.9430  179.7020  141.3040 F   0  0  0  0  0  0  0  0  0  0  0  0
  186.4280  177.2710  145.7510 C   0  0  0  0  0  2  0  0  0  0  0  0
  186.3260  178.4390  146.7720 C   0  0  1  0  0  3  0  0  0  0  0  0
  185.0010  178.6870  147.2100 O   0  0  0  0  0  1  0  0  0  0  0  0
  188.3580  177.3530  148.0190 C   0  0  0  0  0  1  0  0  0  0  0  0
  187.1400  178.2800  148.0630 C   0  0  0  0  0  2  0  0  0  0  0  0
  1 31  1  1  0  0  0
  1  2  1  0  0  0  0
  3  2  1  0  0  0  0
  4  5  1  6  0  0  0
  4  3  1  0  0  0  0
  6  5  1  0  0  0  0
  7 10  1  0  0  0  0
  7  4  1  0  0  0  0
  7  8  1  1  0  0  0
  9 10  2  0  0  0  0
 10 11  1  0  0  0  0
 12  1  1  0  0  0  0
 13 15  2  0  0  0  0
 15 16  1  0  0  0  0
 15 12  1  0  0  0  0
 16 14  1  0  0  0  0
 17 16  1  0  0  0  0
 18 17  1  0  0  0  0
 18 19  1  0  0  0  0
 19 20  1  0  0  0  0
 21 27  1  6  0  0  0
 21 28  1  0  0  0  0
 23 25  1  0  0  0  0
 24 22  1  0  0  0  0
 26 22  1  0  0  0  0
 28 25  1  1  0  0  0
 28 24  1  0  0  0  0
 29 21  1  0  0  0  0
 29 26  2  0  0  0  0
 30 20  1  6  0  0  0
 30 27  1  0  0  0  0
 30 23  1  0  0  0  0
 31 32  1  0  0  0  0
 32 34  1  0  0  0  0
 32 33  1  1  0  0  0
 34 49  1  0  0  0  0
 35 46  1  0  0  0  0
 35 38  1  0  0  0  0
 37 44  2  0  0  0  0
 38 51  1  0  0  0  0
 39 48  2  0  0  0  0
 39 41  1  0  0  0  0
 40 36  1  0  0  0  0
 41 35  2  0  0  0  0
 43 40  1  0  0  0  0
 43 39  1  0  0  0  0
 45 38  2  0  0  0  0
 46 42  1  0  0  0  0
 47 36  1  6  0  0  0
 47 44  1  0  0  0  0
 47 46  1  0  0  0  0
 48 45  1  0  0  0  0
 49 36  2  0  0  0  0
 49 37  1  0  0  0  0
 50 48  1  0  0  0  0
 51 52  1  0  0  0  0
 52 53  1  1  0  0  0
 52 55  1  0  0  0  0
 54 55  1  0  0  0  0
M  END
>  <MODEL>
7

>  <REMARK>
 VINA RESULT:      -6.0      2.621      6.549
  Name = 
  20 active torsions:
  status: ('A' for Active; 'I' for Inactive)
    1  A    between atoms: C_8  and  C_39
    2  A    between atoms: C_9  and  C_28
    3  A    between atoms: C_9  and  C_33
    4  A    between atoms: C_10  and  C_29
    5  A    between atoms: C_12  and  C_17
    6  A    between atoms: C_12  and  C_55
    7  A    between atoms: C_15  and  C_39
    8  A    between atoms: C_15  and  C_52
    9  A    between atoms: C_17  and  C_49
   10  A    between atoms: C_18  and  C_44
   11  A    between atoms: O_27  and  C_46
   12  A    between atoms: O_27  and  C_55
   13  A    between atoms: C_28  and  C_31
   14  A    between atoms: C_29  and  C_44
   15  A    between atoms: C_31  and  N_51
   16  A    between atoms: O_32  and  C_36
   17  A    between atoms: O_32  and  C_44
   18  A    between atoms: C_33  and  C_50
   19  A    between atoms: C_36  and  C_55
   20  A    between atoms: C_40  and  C_49
                            x       y       z     vdW  Elec       q    Type
                         _______ _______ _______ _____ _____    ______ ____

>  <TORSDO>
F 20

$$$$
=
 OpenBabel11042411263D

 55 59  0  0  1  0  0  0  0  0999 V2000
  189.2570  175.6830  136.0920 C   0  0  1  0  0  3  0  0  0  0  0  0
  189.9930  174.5640  135.5300 C   0  0  0  0  0  2  0  0  0  0  0  0
  191.1950  175.0940  135.0170 O   0  0  0  0  0  0  0  0  0  0  0  0
  192.2480  174.5570  135.8070 C   0  0  1  0  0  3  0  0  0  0  0  0
  192.3690  173.0220  135.6860 C   0  0  0  0  0  2  0  0  0  0  0  0
  192.4720  172.4420  136.9580 O   0  0  0  0  0  1  0  0  0  0  0  0
  193.6310  174.9590  135.2480 C   0  0  2  0  0  3  0  0  0  0  0  0
  194.4140  173.6850  134.8450 C   0  0  0  0  0  1  0  0  0  0  0  0
  195.3760  175.1550  137.2030 O   0  0  0  0  0  1  0  0  0  0  0  0
  194.5570  175.7450  136.2040 C   0  0  0  0  0  0  0  0  0  0  0  0
  194.6660  176.9980  136.0570 O   0  0  0  0  0  0  0  0  0  0  0  0
  188.5790  176.3280  135.0570 O   0  0  0  0  0  0  0  0  0  0  0  0
  187.4030  178.3300  135.5150 O   0  0  0  0  0  0  0  0  0  0  0  0
  186.3390  174.9300  134.6270 C   0  0  0  0  0  1  0  0  0  0  0  0
  187.4190  177.0720  135.3960 C   0  0  0  0  0  0  0  0  0  0  0  0
  186.2570  176.3270  135.0310 N   0  0  0  0  0  0  0  0  0  0  0  0
  185.0340  177.0970  134.8140 C   0  0  0  0  0  2  0  0  0  0  0  0
  183.7780  176.3420  135.2000 C   0  0  0  0  0  2  0  0  0  0  0  0
  182.6560  177.1500  135.8550 C   0  0  0  0  0  2  0  0  0  0  0  0
  182.1110  176.4230  137.1010 C   0  0  0  0  0  2  0  0  0  0  0  0
  182.8160  178.6010  140.3440 C   0  0  1  0  0  3  0  0  0  0  0  0
  181.8840  179.1460  143.1910 C   0  0  0  0  0  2  0  0  0  0  0  0
  180.5900  177.6150  138.8670 N   0  0  0  0  0  2  0  0  0  0  0  0
  180.8620  179.3670  141.9880 C   0  0  0  0  0  2  0  0  0  0  0  0
  180.2450  178.0520  140.1550 C   0  0  0  0  0  2  0  0  0  0  0  0
  183.3990  178.6600  142.7830 C   0  0  0  0  0  3  0  0  0  0  0  0
  183.0740  177.7030  139.0240 C   0  0  0  0  0  2  0  0  0  0  0  0
  181.2800  178.5030  140.8780 C   0  0  1  0  0  3  0  0  0  0  0  0
  183.7520  178.3430  141.5290 N   0  0  0  0  0  0  0  0  0  0  0  0
  181.9180  177.5410  138.1340 C   0  0  1  0  0  3  0  0  0  0  0  0
  188.5230  175.5350  137.4130 C   0  0  0  0  0  2  0  0  0  0  0  0
  189.7930  176.0270  138.2160 C   0  0  1  0  0  3  0  0  0  0  0  0
  190.9560  175.1620  138.4860 O   0  0  0  0  0  1  0  0  0  0  0  0
  190.2110  177.4850  138.0560 C   0  0  0  0  0  2  0  0  0  0  0  0
  189.1140  178.0390  143.5110 C   0  0  0  0  0  0  0  0  0  0  0  0
  189.4700  177.9060  140.4070 C   0  0  0  0  0  0  0  0  0  0  0  0
  187.5800  178.2880  139.1280 C   0  0  0  0  0  3  0  0  0  0  0  0
  189.2350  177.5730  145.0090 C   0  0  0  0  0  0  0  0  0  0  0  0
  191.2080  176.9640  143.0010 C   0  0  0  0  0  0  0  0  0  0  0  0
  190.9040  177.6080  140.6630 N   0  0  0  0  0  2  0  0  0  0  0  0
  190.1670  177.5910  143.0770 C   0  0  0  0  0  3  0  0  0  0  0  0
  186.7760  178.5910  143.1420 O   0  0  0  0  0  1  0  0  0  0  0  0
  191.6100  176.6750  141.6020 C   0  0  0  0  0  2  0  0  0  0  0  0
  187.1400  178.4110  140.3380 N   0  0  0  0  0  0  0  0  0  0  0  0
  190.5990  176.7150  145.4050 C   0  0  0  0  0  3  0  0  0  0  0  0
  188.0330  178.2730  142.6180 N   0  0  0  0  0  0  0  0  0  0  0  0
  188.2650  178.2480  141.1410 C   0  0  1  0  0  3  0  0  0  0  0  0
  191.4750  176.3910  144.3430 C   0  0  0  0  0  0  0  0  0  0  0  0
  189.1320  178.0320  139.0490 C   0  0  0  0  0  0  0  0  0  0  0  0
  192.4170  175.4260  144.2370 F   0  0  0  0  0  0  0  0  0  0  0  0
  188.4910  178.4930  145.9900 C   0  0  0  0  0  2  0  0  0  0  0  0
  187.4180  177.5340  146.5800 C   0  0  1  0  0  3  0  0  0  0  0  0
  187.8320  176.8960  147.7750 O   0  0  0  0  0  1  0  0  0  0  0  0
  185.2780  178.8190  145.7830 C   0  0  0  0  0  1  0  0  0  0  0  0
  186.0640  178.1670  146.9250 C   0  0  0  0  0  2  0  0  0  0  0  0
  1  2  1  6  0  0  0
  1 31  1  0  0  0  0
  3  2  1  0  0  0  0
  3  4  1  0  0  0  0
  4  5  1  6  0  0  0
  5  6  1  0  0  0  0
  7  8  1  1  0  0  0
  7  4  1  0  0  0  0
  7 10  1  0  0  0  0
 10  9  1  0  0  0  0
 11 10  2  0  0  0  0
 12 15  1  0  0  0  0
 12  1  1  0  0  0  0
 14 16  1  0  0  0  0
 15 13  2  0  0  0  0
 16 15  1  0  0  0  0
 17 16  1  0  0  0  0
 17 18  1  0  0  0  0
 18 19  1  0  0  0  0
 19 20  1  0  0  0  0
 21 27  1  6  0  0  0
 21 28  1  0  0  0  0
 21 29  1  0  0  0  0
 23 25  1  0  0  0  0
 24 22  1  0  0  0  0
 26 22  1  0  0  0  0
 28 25  1  6  0  0  0
 28 24  1  0  0  0  0
 29 26  2  0  0  0  0
 30 20  1  1  0  0  0
 30 23  1  0  0  0  0
 30 27  1  0  0  0  0
 31 32  1  0  0  0  0
 32 33  1  6  0  0  0
 34 32  1  0  0  0  0
 34 49  1  0  0  0  0
 35 38  1  0  0  0  0
 36 40  1  0  0  0  0
 36 47  1  0  0  0  0
 37 44  2  0  0  0  0
 38 45  2  0  0  0  0
 38 51  1  0  0  0  0
 39 41  1  0  0  0  0
 39 48  2  0  0  0  0
 40 43  1  0  0  0  0
 41 35  2  0  0  0  0
 43 39  1  0  0  0  0
 46 42  1  0  0  0  0
 46 35  1  0  0  0  0
 47 44  1  6  0  0  0
 47 46  1  0  0  0  0
 48 45  1  0  0  0  0
 49 37  1  0  0  0  0
 49 36  2  0  0  0  0
 50 48  1  0  0  0  0
 51 52  1  0  0  0  0
 52 55  1  0  0  0  0
 52 53  1  1  0  0  0
 54 55  1  0  0  0  0
M  END
>  <MODEL>
8

>  <REMARK>
 VINA RESULT:      -6.0      2.880      7.037
  Name = 
  20 active torsions:
  status: ('A' for Active; 'I' for Inactive)
    1  A    between atoms: C_8  and  C_39
    2  A    between atoms: C_9  and  C_28
    3  A    between atoms: C_9  and  C_33
    4  A    between atoms: C_10  and  C_29
    5  A    between atoms: C_12  and  C_17
    6  A    between atoms: C_12  and  C_55
    7  A    between atoms: C_15  and  C_39
    8  A    between atoms: C_15  and  C_52
    9  A    between atoms: C_17  and  C_49
   10  A    between atoms: C_18  and  C_44
   11  A    between atoms: O_27  and  C_46
   12  A    between atoms: O_27  and  C_55
   13  A    between atoms: C_28  and  C_31
   14  A    between atoms: C_29  and  C_44
   15  A    between atoms: C_31  and  N_51
   16  A    between atoms: O_32  and  C_36
   17  A    between atoms: O_32  and  C_44
   18  A    between atoms: C_33  and  C_50
   19  A    between atoms: C_36  and  C_55
   20  A    between atoms: C_40  and  C_49
                            x       y       z     vdW  Elec       q    Type
                         _______ _______ _______ _____ _____    ______ ____

>  <TORSDO>
F 20

$$$$
=
 OpenBabel11042411263D

 55 59  0  0  1  0  0  0  0  0999 V2000
  181.9760  178.1050  139.1750 C   0  0  1  0  0  3  0  0  0  0  0  0
  181.1830  178.9010  138.2520 C   0  0  0  0  0  2  0  0  0  0  0  0
  180.0310  179.3030  138.9600 O   0  0  0  0  0  0  0  0  0  0  0  0
  179.6470  180.5650  138.4300 C   0  0  1  0  0  3  0  0  0  0  0  0
  179.7720  181.7120  139.4580 C   0  0  0  0  0  2  0  0  0  0  0  0
  179.9470  181.1900  140.7470 O   0  0  0  0  0  1  0  0  0  0  0  0
  180.6610  181.0640  137.3770 C   0  0  2  0  0  3  0  0  0  0  0  0
  181.1190  182.4980  137.7420 C   0  0  0  0  0  1  0  0  0  0  0  0
  180.1190  182.3170  135.1320 O   0  0  0  0  0  0  0  0  0  0  0  0
  180.1580  181.1350  135.9170 C   0  0  0  0  0  0  0  0  0  0  0  0
  179.8200  180.0630  135.3350 O   0  0  0  0  0  1  0  0  0  0  0  0
  182.7860  177.2470  138.4310 O   0  0  0  0  0  0  0  0  0  0  0  0
  182.7610  177.5690  136.0860 O   0  0  0  0  0  0  0  0  0  0  0  0
  181.7930  174.7690  138.2560 C   0  0  0  0  0  1  0  0  0  0  0  0
  182.3730  176.9370  137.1090 C   0  0  0  0  0  0  0  0  0  0  0  0
  181.9700  175.5680  137.0510 N   0  0  0  0  0  0  0  0  0  0  0  0
  182.0150  174.9340  135.7340 C   0  0  0  0  0  2  0  0  0  0  0  0
  183.3990  174.9380  135.1180 C   0  0  0  0  0  2  0  0  0  0  0  0
  184.2620  173.6940  135.3400 C   0  0  0  0  0  2  0  0  0  0  0  0
  184.9980  173.7700  136.6930 C   0  0  0  0  0  2  0  0  0  0  0  0
  188.7610  175.0320  136.7620 C   0  0  1  0  0  3  0  0  0  0  0  0
  190.6720  176.9970  138.0880 C   0  0  0  0  0  2  0  0  0  0  0  0
  186.1330  176.1170  136.9280 N   0  0  0  0  0  2  0  0  0  0  0  0
  189.3960  177.5610  137.3150 C   0  0  0  0  0  2  0  0  0  0  0  0
  187.1250  177.0080  137.3670 C   0  0  0  0  0  2  0  0  0  0  0  0
  190.8690  175.3670  138.0800 C   0  0  0  0  0  3  0  0  0  0  0  0
  187.4850  174.0400  136.6860 C   0  0  0  0  0  2  0  0  0  0  0  0
  188.3700  176.5130  137.3170 C   0  0  1  0  0  3  0  0  0  0  0  0
  189.9640  174.5230  137.5640 N   0  0  0  0  0  0  0  0  0  0  0  0
  186.1960  174.6880  136.4190 C   0  0  1  0  0  3  0  0  0  0  0  0
  182.5910  178.7440  140.4070 C   0  0  0  0  0  2  0  0  0  0  0  0
  183.7360  179.4040  139.5390 C   0  0  1  0  0  3  0  0  0  0  0  0
  183.6940  180.8080  139.0920 O   0  0  0  0  0  1  0  0  0  0  0  0
  185.1680  178.9420  139.7880 C   0  0  0  0  0  2  0  0  0  0  0  0
  188.0140  177.8480  144.4750 C   0  0  0  0  0  0  0  0  0  0  0  0
  186.1820  178.5480  142.0400 C   0  0  0  0  0  0  0  0  0  0  0  0
  183.9010  178.5580  142.4260 C   0  0  0  0  0  3  0  0  0  0  0  0
  189.1630  177.1220  145.2690 C   0  0  0  0  0  0  0  0  0  0  0  0
  189.2990  177.6770  142.4450 C   0  0  0  0  0  0  0  0  0  0  0  0
  187.4290  178.6940  141.2440 N   0  0  0  0  0  2  0  0  0  0  0  0
  188.5310  177.8870  143.3660 C   0  0  0  0  0  3  0  0  0  0  0  0
  186.0060  177.6590  145.8320 O   0  0  0  0  0  1  0  0  0  0  0  0
  188.6710  177.8630  141.1140 C   0  0  0  0  0  2  0  0  0  0  0  0
  184.3880  178.2510  143.5840 N   0  0  0  0  0  0  0  0  0  0  0  0
  190.5090  176.7020  144.3940 C   0  0  0  0  0  3  0  0  0  0  0  0
  186.5980  177.9050  144.5890 N   0  0  0  0  0  0  0  0  0  0  0  0
  185.7690  178.2940  143.4080 C   0  0  1  0  0  3  0  0  0  0  0  0
  190.4590  176.9370  143.0010 C   0  0  0  0  0  0  0  0  0  0  0  0
  185.0020  178.8580  141.3420 C   0  0  0  0  0  0  0  0  0  0  0  0
  191.1670  176.3920  141.9850 F   0  0  0  0  0  0  0  0  0  0  0  0
  189.1960  177.4950  146.7600 C   0  0  0  0  0  2  0  0  0  0  0  0
  190.7020  177.3160  147.1020 C   0  0  1  0  0  3  0  0  0  0  0  0
  191.0640  177.8790  148.3510 O   0  0  0  0  0  1  0  0  0  0  0  0
  192.5490  175.6240  147.8720 C   0  0  0  0  0  1  0  0  0  0  0  0
  191.2130  175.8710  147.1640 C   0  0  0  0  0  2  0  0  0  0  0  0
  1  2  1  6  0  0  0
  1 31  1  0  0  0  0
  2  3  1  0  0  0  0
  4  3  1  0  0  0  0
  4  5  1  1  0  0  0
  5  6  1  0  0  0  0
  7  8  1  1  0  0  0
  7  4  1  0  0  0  0
  9 10  2  0  0  0  0
 10  7  1  0  0  0  0
 11 10  1  0  0  0  0
 12  1  1  0  0  0  0
 13 15  2  0  0  0  0
 15 12  1  0  0  0  0
 16 15  1  0  0  0  0
 16 14  1  0  0  0  0
 17 16  1  0  0  0  0
 18 19  1  0  0  0  0
 18 17  1  0  0  0  0
 19 20  1  0  0  0  0
 21 27  1  1  0  0  0
 21 28  1  0  0  0  0
 21 29  1  0  0  0  0
 23 25  1  0  0  0  0
 24 22  1  0  0  0  0
 26 22  1  0  0  0  0
 28 24  1  6  0  0  0
 28 25  1  0  0  0  0
 29 26  2  0  0  0  0
 30 27  1  0  0  0  0
 30 20  1  1  0  0  0
 30 23  1  0  0  0  0
 32 33  1  1  0  0  0
 32 34  1  0  0  0  0
 32 31  1  0  0  0  0
 34 49  1  0  0  0  0
 35 46  1  0  0  0  0
 35 38  1  0  0  0  0
 37 44  2  0  0  0  0
 38 51  1  0  0  0  0
 39 48  2  0  0  0  0
 39 41  1  0  0  0  0
 40 36  1  0  0  0  0
 41 35  2  0  0  0  0
 43 40  1  0  0  0  0
 43 39  1  0  0  0  0
 45 38  2  0  0  0  0
 46 42  1  0  0  0  0
 47 36  1  6  0  0  0
 47 44  1  0  0  0  0
 47 46  1  0  0  0  0
 48 45  1  0  0  0  0
 49 36  2  0  0  0  0
 49 37  1  0  0  0  0
 50 48  1  0  0  0  0
 51 52  1  0  0  0  0
 52 55  1  0  0  0  0
 52 53  1  1  0  0  0
 55 54  1  0  0  0  0
M  END
>  <MODEL>
9

>  <REMARK>
 VINA RESULT:      -5.9      4.435     10.932
  Name = 
  20 active torsions:
  status: ('A' for Active; 'I' for Inactive)
    1  A    between atoms: C_8  and  C_39
    2  A    between atoms: C_9  and  C_28
    3  A    between atoms: C_9  and  C_33
    4  A    between atoms: C_10  and  C_29
    5  A    between atoms: C_12  and  C_17
    6  A    between atoms: C_12  and  C_55
    7  A    between atoms: C_15  and  C_39
    8  A    between atoms: C_15  and  C_52
    9  A    between atoms: C_17  and  C_49
   10  A    between atoms: C_18  and  C_44
   11  A    between atoms: O_27  and  C_46
   12  A    between atoms: O_27  and  C_55
   13  A    between atoms: C_28  and  C_31
   14  A    between atoms: C_29  and  C_44
   15  A    between atoms: C_31  and  N_51
   16  A    between atoms: O_32  and  C_36
   17  A    between atoms: O_32  and  C_44
   18  A    between atoms: C_33  and  C_50
   19  A    between atoms: C_36  and  C_55
   20  A    between atoms: C_40  and  C_49
                            x       y       z     vdW  Elec       q    Type
                         _______ _______ _______ _____ _____    ______ ____

>  <TORSDO>
F 20

$$$$
