=
 OpenBabel11042412153D

 67 76  0  0  1  0  0  0  0  0999 V2000
  187.6250  176.3940  136.7060 C   0  0  2  0  0  3  0  0  0  0  0  0
  188.5760  176.8920  137.7820 C   0  0  2  0  0  3  0  0  0  0  0  0
  186.8530  177.6540  136.4260 C   0  0  2  0  0  3  0  0  0  0  0  0
  185.0000  173.6570  137.6360 C   0  0  0  0  0  3  0  0  0  0  0  0
  183.6300  173.5200  136.9910 C   0  0  0  0  0  3  0  0  0  0  0  0
  185.6480  174.8080  136.9410 C   0  0  0  0  0  0  0  0  0  0  0  0
  183.5560  174.6250  135.9870 C   0  0  0  0  0  0  0  0  0  0  0  0
  184.5280  176.8090  136.2410 N   0  0  0  0  0  2  0  0  0  0  0  0
  186.9180  178.4670  137.6950 C   0  0  2  0  0  3  0  0  0  0  0  0
  184.8010  175.4270  135.8860 C   0  0  1  0  0  3  0  0  0  0  0  0
  182.4820  174.9490  135.3270 N   0  0  0  0  0  0  0  0  0  0  0  0
  186.8450  175.2640  137.3270 C   0  0  0  0  0  3  0  0  0  0  0  0
  185.5550  177.6190  135.6070 C   0  0  0  0  0  2  0  0  0  0  0  0
  188.0970  178.0920  138.3700 O   0  0  0  0  0  0  0  0  0  0  0  0
  181.2340  174.2380  135.3530 C   0  0  0  0  0  0  0  0  0  0  0  0
  181.0490  173.2460  134.5990 O   0  0  0  0  0  0  0  0  0  0  0  0
  180.1620  174.6670  136.2010 N   0  0  0  0  0  2  0  0  0  0  0  0
  180.5310  177.1100  140.2080 C   0  0  0  0  0  3  0  0  0  0  0  0
  180.1740  177.8330  134.9280 C   0  0  0  0  0  2  0  0  0  0  0  0
  180.2530  175.5540  137.3220 C   0  0  0  0  0  0  0  0  0  0  0  0
  179.8010  176.7910  137.1840 C   0  0  0  0  0  0  0  0  0  0  0  0
  179.0900  178.7160  137.0480 C   0  0  2  0  0  3  0  0  0  0  0  0
  181.2750  178.6050  135.3240 O   0  0  0  0  0  0  0  0  0  0  0  0
  179.1890  177.6170  136.0920 C   0  0  1  0  0  3  0  0  0  0  0  0
  180.7640  179.8920  135.4980 C   0  0  0  0  0  2  0  0  0  0  0  0
  179.9740  179.9590  136.8030 C   0  0  0  0  0  2  0  0  0  0  0  0
  180.7760  175.0850  138.6230 C   0  0  0  0  0  3  0  0  0  0  0  0
  179.9920  178.0910  139.4810 C   0  0  0  0  0  3  0  0  0  0  0  0
  179.6710  177.9220  138.1120 N   0  0  0  0  0  0  0  0  0  0  0  0
  180.8890  175.7270  139.7990 C   0  0  0  0  0  3  0  0  0  0  0  0
  189.9120  177.1090  137.2390 N   0  0  0  0  0  2  0  0  0  0  0  0
  190.8460  176.2520  137.9540 C   0  0  0  0  0  2  0  0  0  0  0  0
  191.9360  175.9310  137.1330 O   0  0  0  0  0  0  0  0  0  0  0  0
  191.8840  174.5470  136.9760 C   0  0  0  0  0  2  0  0  0  0  0  0
  192.2530  174.1710  135.5460 C   0  0  0  0  0  2  0  0  0  0  0  0
  195.7610  173.4860  136.5960 P   0  0  2  0  0  0  0  0  0  0  0  0
  195.0370  171.9730  136.6670 O   0  0  0  0  0  0  0  0  0  0  0  0
  193.7070  172.2630  136.3560 C   0  0  1  0  0  3  0  0  0  0  0  0
  193.6290  173.5170  135.4660 C   0  0  2  0  0  3  0  0  0  0  0  0
  194.6320  174.4370  135.7950 O   0  0  0  0  0  0  0  0  0  0  0  0
  197.0440  173.4190  135.8000 O   0  0  0  0  0  0  0  0  0  0  0  0
  193.0810  171.0970  135.6650 C   0  0  0  0  0  0  0  0  0  0  0  0
  193.3530  169.8020  136.0890 O   0  0  0  0  0  1  0  0  0  0  0  0
  192.3290  171.2820  134.6680 O   0  0  0  0  0  0  0  0  0  0  0  0
  195.3080  175.2830  138.4560 O   0  0  0  0  0  1  0  0  0  0  0  0
  196.0600  174.1230  138.2700 C   0  0  0  0  0  0  0  0  0  0  0  0
  195.6660  173.1600  139.2010 O   0  0  0  0  0  1  0  0  0  0  0  0
  197.5450  174.4300  138.4310 C   0  0  0  0  0  2  0  0  0  0  0  0
  197.8390  175.1110  139.7610 C   0  0  0  0  0  1  0  0  0  0  0  0
  185.7260  178.2230  138.6110 C   0  0  0  0  0  2  0  0  0  0  0  0
  185.8700  178.9910  139.7710 O   0  0  0  0  0  0  0  0  0  0  0  0
  184.4590  179.4010  141.6580 C   0  0  0  0  0  3  0  0  0  0  0  0
  185.9220  177.5580  141.5670 O   0  0  0  0  0  0  0  0  0  0  0  0
  185.9600  178.0350  142.8550 C   0  0  0  0  0  0  0  0  0  0  0  0
  186.7040  177.4810  143.7670 N   0  0  0  0  0  0  0  0  0  0  0  0
  185.0890  178.3470  140.7370 C   0  0  2  0  0  3  0  0  0  0  0  0
  185.0930  179.2230  143.0360 C   0  0  0  0  0  3  0  0  0  0  0  0
  185.6780  177.6150  146.0820 C   0  0  0  0  0  2  0  0  0  0  0  0
  186.0870  179.0370  145.6970 C   0  0  0  0  0  2  0  0  0  0  0  0
  186.8720  177.8510  145.1800 C   0  0  0  0  0  0  0  0  0  0  0  0
  188.3630  177.6200  147.1770 C   0  0  0  0  0  3  0  0  0  0  0  0
  188.2220  177.6240  145.7820 C   0  0  0  0  0  0  0  0  0  0  0  0
  189.2110  177.2920  143.6170 F   0  0  0  0  0  0  0  0  0  0  0  0
  190.7130  177.0880  146.9480 C   0  0  0  0  0  3  0  0  0  0  0  0
  189.6080  177.3590  147.7570 C   0  0  0  0  0  3  0  0  0  0  0  0
  189.3340  177.3300  144.9700 C   0  0  0  0  0  0  0  0  0  0  0  0
  190.5760  177.0700  145.5550 C   0  0  0  0  0  3  0  0  0  0  0  0
  1 12  1  1  0  0  0
  1  2  1  0  0  0  0
  2 31  1  6  0  0  0
  2 14  1  0  0  0  0
  3 13  1  1  0  0  0
  3  1  1  0  0  0  0
  3  9  1  0  0  0  0
  5  4  2  0  0  0  0
  6 12  2  0  0  0  0
  6  4  1  0  0  0  0
  7  5  1  0  0  0  0
  9 14  1  0  0  0  0
  9 50  1  1  0  0  0
 10  7  1  1  0  0  0
 10  8  1  0  0  0  0
 10  6  1  0  0  0  0
 11 15  1  0  0  0  0
 11  7  2  0  0  0  0
 13  8  1  0  0  0  0
 15 17  1  0  0  0  0
 16 15  2  0  0  0  0
 17 20  1  0  0  0  0
 19 23  1  0  0  0  0
 20 27  1  0  0  0  0
 21 20  2  0  0  0  0
 21 29  1  0  0  0  0
 22 26  1  6  0  0  0
 22 29  1  0  0  0  0
 23 25  1  0  0  0  0
 24 19  1  6  0  0  0
 24 22  1  0  0  0  0
 24 21  1  0  0  0  0
 25 26  1  0  0  0  0
 27 30  2  0  0  0  0
 28 18  2  0  0  0  0
 29 28  1  0  0  0  0
 30 18  1  0  0  0  0
 31 32  1  0  0  0  0
 33 32  1  0  0  0  0
 34 33  1  0  0  0  0
 35 34  1  0  0  0  0
 36 41  2  6  0  0  0
 36 37  1  0  0  0  0
 36 46  1  0  0  0  0
 38 42  1  6  0  0  0
 38 37  1  0  0  0  0
 39 35  1  1  0  0  0
 39 40  1  0  0  0  0
 39 38  1  0  0  0  0
 40 36  1  0  0  0  0
 42 43  1  0  0  0  0
 44 42  2  0  0  0  0
 46 48  1  0  0  0  0
 46 45  1  0  0  0  0
 46 47  1  0  0  0  0
 48 49  1  0  0  0  0
 50 51  1  0  0  0  0
 52 57  2  0  0  0  0
 53 54  1  0  0  0  0
 54 57  1  0  0  0  0
 54 55  2  0  0  0  0
 55 60  1  0  0  0  0
 56 51  1  6  0  0  0
 56 53  1  0  0  0  0
 56 52  1  0  0  0  0
 59 58  1  0  0  0  0
 60 59  1  0  0  0  0
 60 62  1  0  0  0  0
 60 58  1  0  0  0  0
 61 65  1  0  0  0  0
 62 61  2  0  0  0  0
 63 66  1  0  0  0  0
 64 65  2  0  0  0  0
 66 67  2  0  0  0  0
 66 62  1  0  0  0  0
 67 64  1  0  0  0  0
M  END
>  <MODEL>
1

>  <REMARK>
 VINA RESULT:      -7.6      0.000      0.000
  Name = 
  16 active torsions:
  status: ('A' for Active; 'I' for Inactive)
    1  A    between atoms: C_3  and  C_31
    2  A    between atoms: C_5  and  N_32
    3  A    between atoms: C_6  and  N_43
    4  A    between atoms: C_7  and  N_32
    5  A    between atoms: C_7  and  O_41
    6  A    between atoms: C_13  and  N_33
    7  A    between atoms: P_16  and  C_62
    8  A    between atoms: C_19  and  C_66
    9  A    between atoms: O_36  and  C_45
   10  A    between atoms: O_36  and  C_57
   11  A    between atoms: C_38  and  C_45
   12  A    between atoms: O_41  and  C_61
   13  A    between atoms: C_44  and  C_67
   14  A    between atoms: N_53  and  C_66
   15  A    between atoms: C_54  and  C_62
   16  A    between atoms: C_61  and  C_67
                            x       y       z     vdW  Elec       q    Type
                         _______ _______ _______ _____ _____    ______ ____

>  <TORSDO>
F 16

$$$$
=
 OpenBabel11042412153D

 67 76  0  0  1  0  0  0  0  0999 V2000
  187.0420  175.8640  136.4910 C   0  0  2  0  0  3  0  0  0  0  0  0
  188.1470  176.1650  137.4910 C   0  0  2  0  0  3  0  0  0  0  0  0
  186.5680  177.2580  136.1860 C   0  0  2  0  0  3  0  0  0  0  0  0
  183.9130  173.8600  137.6930 C   0  0  0  0  0  3  0  0  0  0  0  0
  182.5120  174.0260  137.1260 C   0  0  0  0  0  3  0  0  0  0  0  0
  184.7670  174.7980  136.9070 C   0  0  0  0  0  0  0  0  0  0  0  0
  182.6360  175.0780  136.0720 C   0  0  0  0  0  0  0  0  0  0  0  0
  184.1040  176.9790  136.1630 N   0  0  0  0  0  2  0  0  0  0  0  0
  186.8990  178.0810  137.4070 C   0  0  2  0  0  3  0  0  0  0  0  0
  184.0250  175.5600  135.8670 C   0  0  1  0  0  3  0  0  0  0  0  0
  181.6290  175.6200  135.4510 N   0  0  0  0  0  0  0  0  0  0  0  0
  186.0590  174.9740  137.2080 C   0  0  0  0  0  3  0  0  0  0  0  0
  185.2510  177.4990  135.4370 C   0  0  0  0  0  2  0  0  0  0  0  0
  187.9970  177.4650  138.0400 O   0  0  0  0  0  0  0  0  0  0  0  0
  180.2530  175.2250  135.5760 C   0  0  0  0  0  0  0  0  0  0  0  0
  179.7930  174.2860  134.8750 O   0  0  0  0  0  0  0  0  0  0  0  0
  179.3690  175.9170  136.4660 N   0  0  0  0  0  2  0  0  0  0  0  0
  180.5950  178.3040  140.3340 C   0  0  0  0  0  3  0  0  0  0  0  0
  179.8280  179.0080  135.0960 C   0  0  0  0  0  2  0  0  0  0  0  0
  179.7370  176.7870  137.5430 C   0  0  0  0  0  0  0  0  0  0  0  0
  179.5080  178.0850  137.4100 C   0  0  0  0  0  0  0  0  0  0  0  0
  179.1510  180.1070  137.2830 C   0  0  2  0  0  3  0  0  0  0  0  0
  181.0870  179.5680  135.3530 O   0  0  0  0  0  0  0  0  0  0  0  0
  178.9470  178.9950  136.3580 C   0  0  1  0  0  3  0  0  0  0  0  0
  180.8410  180.9300  135.5360 C   0  0  0  0  0  2  0  0  0  0  0  0
  180.2180  181.1600  136.9100 C   0  0  0  0  0  2  0  0  0  0  0  0
  180.2980  176.2470  138.7990 C   0  0  0  0  0  3  0  0  0  0  0  0
  180.1720  179.3570  139.6320 C   0  0  0  0  0  3  0  0  0  0  0  0
  179.6850  179.2320  138.3090 N   0  0  0  0  0  0  0  0  0  0  0  0
  180.6480  176.8730  139.9360 C   0  0  0  0  0  3  0  0  0  0  0  0
  189.4600  176.0390  136.8700 N   0  0  0  0  0  2  0  0  0  0  0  0
  190.4670  176.0150  137.9210 C   0  0  0  0  0  2  0  0  0  0  0  0
  191.0910  174.7600  137.9670 O   0  0  0  0  0  0  0  0  0  0  0  0
  190.9490  174.2320  136.6840 C   0  0  0  0  0  2  0  0  0  0  0  0
  192.2960  174.2310  135.9700 C   0  0  0  0  0  2  0  0  0  0  0  0
  195.4760  173.1310  137.5690 P   0  0  2  0  0  0  0  0  0  0  0  0
  195.8430  174.6690  137.0030 O   0  0  0  0  0  0  0  0  0  0  0  0
  194.6710  175.0280  136.3330 C   0  0  1  0  0  3  0  0  0  0  0  0
  193.4600  174.3070  136.9520 C   0  0  2  0  0  3  0  0  0  0  0  0
  193.8080  173.0280  137.4060 O   0  0  0  0  0  0  0  0  0  0  0  0
  195.8650  172.9990  139.0240 O   0  0  0  0  0  0  0  0  0  0  0  0
  194.4830  176.5080  136.3980 C   0  0  0  0  0  0  0  0  0  0  0  0
  195.0650  177.3310  135.4420 O   0  0  0  0  0  0  0  0  0  0  0  0
  193.8220  177.0190  137.3440 O   0  0  0  0  0  1  0  0  0  0  0  0
  195.4220  171.4570  135.5470 O   0  0  0  0  0  1  0  0  0  0  0  0
  196.2960  171.8700  136.5530 C   0  0  0  0  0  0  0  0  0  0  0  0
  197.4400  172.4250  135.9740 O   0  0  0  0  0  1  0  0  0  0  0  0
  196.6780  170.6860  137.4350 C   0  0  0  0  0  2  0  0  0  0  0  0
  195.5210  169.7100  137.6000 C   0  0  0  0  0  1  0  0  0  0  0  0
  185.7420  178.1600  138.3940 C   0  0  0  0  0  2  0  0  0  0  0  0
  186.2190  178.6080  139.6300 O   0  0  0  0  0  0  0  0  0  0  0  0
  184.7420  179.5430  141.2620 C   0  0  0  0  0  3  0  0  0  0  0  0
  185.7750  177.4490  141.5630 O   0  0  0  0  0  0  0  0  0  0  0  0
  185.7820  178.0770  142.7850 C   0  0  0  0  0  0  0  0  0  0  0  0
  186.2920  177.5120  143.8410 N   0  0  0  0  0  0  0  0  0  0  0  0
  185.2220  178.2710  140.5510 C   0  0  2  0  0  3  0  0  0  0  0  0
  185.1780  179.4280  142.7220 C   0  0  0  0  0  3  0  0  0  0  0  0
  185.1090  178.0250  146.0250 C   0  0  0  0  0  2  0  0  0  0  0  0
  185.7050  179.3420  145.5260 C   0  0  0  0  0  2  0  0  0  0  0  0
  186.3890  178.0270  145.2150 C   0  0  0  0  0  0  0  0  0  0  0  0
  188.8020  177.3660  145.2460 C   0  0  0  0  0  3  0  0  0  0  0  0
  187.6530  177.7350  145.9580 C   0  0  0  0  0  0  0  0  0  0  0  0
  186.6330  178.3030  148.0600 F   0  0  0  0  0  0  0  0  0  0  0  0
  190.0700  177.2930  147.3070 C   0  0  0  0  0  3  0  0  0  0  0  0
  190.0060  177.1380  145.9200 C   0  0  0  0  0  3  0  0  0  0  0  0
  187.7260  177.9090  147.3530 C   0  0  0  0  0  0  0  0  0  0  0  0
  188.9310  177.6810  148.0230 C   0  0  0  0  0  3  0  0  0  0  0  0
  1 12  1  1  0  0  0
  1  2  1  0  0  0  0
  2 31  1  6  0  0  0
  2 14  1  0  0  0  0
  3 13  1  1  0  0  0
  3  1  1  0  0  0  0
  3  9  1  0  0  0  0
  5  4  2  0  0  0  0
  6 12  2  0  0  0  0
  6  4  1  0  0  0  0
  7  5  1  0  0  0  0
  9 14  1  0  0  0  0
  9 50  1  1  0  0  0
 10  7  1  1  0  0  0
 10  8  1  0  0  0  0
 10  6  1  0  0  0  0
 11 15  1  0  0  0  0
 11  7  2  0  0  0  0
 13  8  1  0  0  0  0
 15 17  1  0  0  0  0
 16 15  2  0  0  0  0
 17 20  1  0  0  0  0
 19 23  1  0  0  0  0
 20 27  1  0  0  0  0
 21 20  2  0  0  0  0
 21 29  1  0  0  0  0
 22 26  1  6  0  0  0
 22 29  1  0  0  0  0
 23 25  1  0  0  0  0
 24 19  1  6  0  0  0
 24 22  1  0  0  0  0
 24 21  1  0  0  0  0
 25 26  1  0  0  0  0
 27 30  2  0  0  0  0
 28 18  2  0  0  0  0
 29 28  1  0  0  0  0
 30 18  1  0  0  0  0
 31 32  1  0  0  0  0
 32 33  1  0  0  0  0
 34 33  1  0  0  0  0
 35 34  1  0  0  0  0
 36 41  2  1  0  0  0
 37 36  1  0  0  0  0
 38 42  1  1  0  0  0
 38 39  1  0  0  0  0
 38 37  1  0  0  0  0
 39 35  1  6  0  0  0
 39 40  1  0  0  0  0
 40 36  1  0  0  0  0
 42 44  1  0  0  0  0
 43 42  2  0  0  0  0
 45 46  1  0  0  0  0
 46 48  1  0  0  0  0
 46 36  1  0  0  0  0
 47 46  1  0  0  0  0
 48 49  1  0  0  0  0
 50 51  1  0  0  0  0
 52 57  2  0  0  0  0
 53 54  1  0  0  0  0
 54 55  2  0  0  0  0
 55 60  1  0  0  0  0
 56 51  1  6  0  0  0
 56 52  1  0  0  0  0
 56 53  1  0  0  0  0
 57 54  1  0  0  0  0
 59 58  1  0  0  0  0
 60 59  1  0  0  0  0
 60 62  1  0  0  0  0
 60 58  1  0  0  0  0
 61 65  2  0  0  0  0
 61 62  1  0  0  0  0
 62 66  2  0  0  0  0
 64 67  2  0  0  0  0
 65 64  1  0  0  0  0
 66 67  1  0  0  0  0
 66 63  1  0  0  0  0
M  END
>  <MODEL>
2

>  <REMARK>
 VINA RESULT:      -7.5      1.515      2.354
  Name = 
  16 active torsions:
  status: ('A' for Active; 'I' for Inactive)
    1  A    between atoms: C_3  and  C_31
    2  A    between atoms: C_5  and  N_32
    3  A    between atoms: C_6  and  N_43
    4  A    between atoms: C_7  and  N_32
    5  A    between atoms: C_7  and  O_41
    6  A    between atoms: C_13  and  N_33
    7  A    between atoms: P_16  and  C_62
    8  A    between atoms: C_19  and  C_66
    9  A    between atoms: O_36  and  C_45
   10  A    between atoms: O_36  and  C_57
   11  A    between atoms: C_38  and  C_45
   12  A    between atoms: O_41  and  C_61
   13  A    between atoms: C_44  and  C_67
   14  A    between atoms: N_53  and  C_66
   15  A    between atoms: C_54  and  C_62
   16  A    between atoms: C_61  and  C_67
                            x       y       z     vdW  Elec       q    Type
                         _______ _______ _______ _____ _____    ______ ____

>  <TORSDO>
F 16

$$$$
=
 OpenBabel11042412153D

 67 76  0  0  1  0  0  0  0  0999 V2000
  187.4200  175.2080  135.0630 C   0  0  2  0  0  3  0  0  0  0  0  0
  188.8140  175.0600  135.6490 C   0  0  2  0  0  3  0  0  0  0  0  0
  187.2180  176.6910  135.2190 C   0  0  2  0  0  3  0  0  0  0  0  0
  184.4250  173.4760  136.8740 C   0  0  0  0  0  3  0  0  0  0  0  0
  182.9980  174.0020  136.8790 C   0  0  0  0  0  3  0  0  0  0  0  0
  185.1960  174.4410  136.0360 C   0  0  0  0  0  0  0  0  0  0  0  0
  183.0400  175.2600  136.0730 C   0  0  0  0  0  0  0  0  0  0  0  0
  184.8700  176.8170  136.0090 N   0  0  0  0  0  2  0  0  0  0  0  0
  188.0880  177.1030  136.3820 C   0  0  2  0  0  3  0  0  0  0  0  0
  184.3740  175.5540  135.4910 C   0  0  1  0  0  3  0  0  0  0  0  0
  182.0490  176.0970  135.9630 N   0  0  0  0  0  0  0  0  0  0  0  0
  186.5210  174.3270  135.8930 C   0  0  0  0  0  3  0  0  0  0  0  0
  185.8310  177.3220  135.0430 C   0  0  0  0  0  2  0  0  0  0  0  0
  189.1490  176.1780  136.4560 O   0  0  0  0  0  0  0  0  0  0  0  0
  180.7240  175.9040  136.4840 C   0  0  0  0  0  0  0  0  0  0  0  0
  180.2310  174.7470  136.5610 O   0  0  0  0  0  0  0  0  0  0  0  0
  179.9230  177.0210  136.8860 N   0  0  0  0  0  2  0  0  0  0  0  0
  181.2060  181.5350  137.2620 C   0  0  0  0  0  3  0  0  0  0  0  0
  181.0080  177.0280  140.1210 C   0  0  0  0  0  2  0  0  0  0  0  0
  180.3760  178.3530  137.1580 C   0  0  0  0  0  0  0  0  0  0  0  0
  181.2660  178.5290  138.1230 C   0  0  0  0  0  0  0  0  0  0  0  0
  182.6710  178.8710  139.5860 C   0  0  2  0  0  3  0  0  0  0  0  0
  180.3930  177.9940  140.9290 O   0  0  0  0  0  0  0  0  0  0  0  0
  181.9860  177.6690  139.1180 C   0  0  1  0  0  3  0  0  0  0  0  0
  181.4060  178.4460  141.7780 C   0  0  0  0  0  2  0  0  0  0  0  0
  182.3440  179.3730  141.0100 C   0  0  0  0  0  2  0  0  0  0  0  0
  179.9150  179.4950  136.3420 C   0  0  0  0  0  3  0  0  0  0  0  0
  181.9790  181.0740  138.2470 C   0  0  0  0  0  3  0  0  0  0  0  0
  181.9870  179.7080  138.6190 N   0  0  0  0  0  0  0  0  0  0  0  0
  180.2560  180.7940  136.3910 C   0  0  0  0  0  3  0  0  0  0  0  0
  189.8090  174.8970  134.5960 N   0  0  0  0  0  2  0  0  0  0  0  0
  190.9890  175.6720  134.9500 C   0  0  0  0  0  2  0  0  0  0  0  0
  192.1460  174.9000  134.7760 O   0  0  0  0  0  0  0  0  0  0  0  0
  192.3490  174.2610  135.9990 C   0  0  0  0  0  2  0  0  0  0  0  0
  193.2170  175.1300  136.9020 C   0  0  0  0  0  2  0  0  0  0  0  0
  195.6940  172.3490  137.0060 P   0  0  2  0  0  0  0  0  0  0  0  0
  196.4830  173.5330  136.1130 O   0  0  0  0  0  0  0  0  0  0  0  0
  195.5090  174.5290  136.0110 C   0  0  1  0  0  3  0  0  0  0  0  0
  194.5540  174.4660  137.2170 C   0  0  2  0  0  3  0  0  0  0  0  0
  194.3600  173.1460  137.6440 O   0  0  0  0  0  0  0  0  0  0  0  0
  196.5840  171.8490  138.1200 O   0  0  0  0  0  0  0  0  0  0  0  0
  196.1610  175.8700  135.9360 C   0  0  0  0  0  0  0  0  0  0  0  0
  195.4250  176.9870  135.5620 O   0  0  0  0  0  0  0  0  0  0  0  0
  197.3950  175.9870  136.1790 O   0  0  0  0  0  1  0  0  0  0  0  0
  195.3060  171.3850  134.5950 O   0  0  0  0  0  1  0  0  0  0  0  0
  195.1680  170.9880  135.9250 C   0  0  0  0  0  0  0  0  0  0  0  0
  195.9800  169.8770  136.1640 O   0  0  0  0  0  1  0  0  0  0  0  0
  193.7120  170.6460  136.2220 C   0  0  0  0  0  2  0  0  0  0  0  0
  192.9220  170.3880  134.9470 C   0  0  0  0  0  1  0  0  0  0  0  0
  187.3380  177.1020  137.7070 C   0  0  0  0  0  2  0  0  0  0  0  0
  187.2510  178.4110  138.1890 O   0  0  0  0  0  0  0  0  0  0  0  0
  188.9950  177.1960  139.2850 C   0  0  0  0  0  3  0  0  0  0  0  0
  187.9370  179.0450  140.2880 O   0  0  0  0  0  0  0  0  0  0  0  0
  188.1420  178.1160  141.2790 C   0  0  0  0  0  0  0  0  0  0  0  0
  187.7770  178.3370  142.5090 N   0  0  0  0  0  0  0  0  0  0  0  0
  188.3630  178.5700  139.0240 C   0  0  2  0  0  3  0  0  0  0  0  0
  188.7820  176.8830  140.7660 C   0  0  0  0  0  3  0  0  0  0  0  0
  189.2910  176.9040  143.9530 C   0  0  0  0  0  2  0  0  0  0  0  0
  188.1670  175.9950  143.4540 C   0  0  0  0  0  2  0  0  0  0  0  0
  187.9110  177.4690  143.6880 C   0  0  0  0  0  0  0  0  0  0  0  0
  187.7030  177.8860  146.1470 C   0  0  0  0  0  3  0  0  0  0  0  0
  187.0920  177.8270  144.8870 C   0  0  0  0  0  0  0  0  0  0  0  0
  185.1330  178.1710  143.5360 F   0  0  0  0  0  0  0  0  0  0  0  0
  185.6150  178.6060  147.1380 C   0  0  0  0  0  3  0  0  0  0  0  0
  186.9640  178.2690  147.2710 C   0  0  0  0  0  3  0  0  0  0  0  0
  185.7370  178.1860  144.7540 C   0  0  0  0  0  0  0  0  0  0  0  0
  185.0030  178.5680  145.8800 C   0  0  0  0  0  3  0  0  0  0  0  0
  1  3  1  0  0  0  0
  1  2  1  0  0  0  0
  1 12  1  1  0  0  0
  2 31  1  6  0  0  0
  2 14  1  0  0  0  0
  3 13  1  1  0  0  0
  3  9  1  0  0  0  0
  4  5  2  0  0  0  0
  6  4  1  0  0  0  0
  7  5  1  0  0  0  0
  9 14  1  0  0  0  0
  9 50  1  1  0  0  0
 10  8  1  1  0  0  0
 10  6  1  0  0  0  0
 10  7  1  0  0  0  0
 11  7  2  0  0  0  0
 11 15  1  0  0  0  0
 12  6  2  0  0  0  0
 13  8  1  0  0  0  0
 15 16  2  0  0  0  0
 15 17  1  0  0  0  0
 17 20  1  0  0  0  0
 18 28  2  0  0  0  0
 19 23  1  0  0  0  0
 20 21  2  0  0  0  0
 21 29  1  0  0  0  0
 21 24  1  0  0  0  0
 22 26  1  1  0  0  0
 23 25  1  0  0  0  0
 24 22  1  0  0  0  0
 24 19  1  1  0  0  0
 26 25  1  0  0  0  0
 27 30  2  0  0  0  0
 27 20  1  0  0  0  0
 28 29  1  0  0  0  0
 29 22  1  0  0  0  0
 30 18  1  0  0  0  0
 31 32  1  0  0  0  0
 33 32  1  0  0  0  0
 33 34  1  0  0  0  0
 34 35  1  0  0  0  0
 36 40  1  0  0  0  0
 36 41  2  1  0  0  0
 37 36  1  0  0  0  0
 38 42  1  1  0  0  0
 38 37  1  0  0  0  0
 38 39  1  0  0  0  0
 39 35  1  6  0  0  0
 39 40  1  0  0  0  0
 42 44  1  0  0  0  0
 43 42  2  0  0  0  0
 45 46  1  0  0  0  0
 46 47  1  0  0  0  0
 46 48  1  0  0  0  0
 46 36  1  0  0  0  0
 49 48  1  0  0  0  0
 50 51  1  0  0  0  0
 52 57  2  0  0  0  0
 53 54  1  0  0  0  0
 54 55  2  0  0  0  0
 55 60  1  0  0  0  0
 56 51  1  6  0  0  0
 56 52  1  0  0  0  0
 56 53  1  0  0  0  0
 57 54  1  0  0  0  0
 59 60  1  0  0  0  0
 59 58  1  0  0  0  0
 60 58  1  0  0  0  0
 60 62  1  0  0  0  0
 61 65  1  0  0  0  0
 62 61  2  0  0  0  0
 63 66  1  0  0  0  0
 64 65  2  0  0  0  0
 66 62  1  0  0  0  0
 66 67  2  0  0  0  0
 67 64  1  0  0  0  0
M  END
>  <MODEL>
3

>  <REMARK>
 VINA RESULT:      -7.3      1.997      3.790
  Name = 
  16 active torsions:
  status: ('A' for Active; 'I' for Inactive)
    1  A    between atoms: C_3  and  C_31
    2  A    between atoms: C_5  and  N_32
    3  A    between atoms: C_6  and  N_43
    4  A    between atoms: C_7  and  N_32
    5  A    between atoms: C_7  and  O_41
    6  A    between atoms: C_13  and  N_33
    7  A    between atoms: P_16  and  C_62
    8  A    between atoms: C_19  and  C_66
    9  A    between atoms: O_36  and  C_45
   10  A    between atoms: O_36  and  C_57
   11  A    between atoms: C_38  and  C_45
   12  A    between atoms: O_41  and  C_61
   13  A    between atoms: C_44  and  C_67
   14  A    between atoms: N_53  and  C_66
   15  A    between atoms: C_54  and  C_62
   16  A    between atoms: C_61  and  C_67
                            x       y       z     vdW  Elec       q    Type
                         _______ _______ _______ _____ _____    ______ ____

>  <TORSDO>
F 16

$$$$
=
 OpenBabel11042412153D

 67 76  0  0  1  0  0  0  0  0999 V2000
  185.3490  179.2010  142.1420 C   0  0  2  0  0  3  0  0  0  0  0  0
  184.5380  178.5740  143.2650 C   0  0  2  0  0  3  0  0  0  0  0  0
  184.2810  179.3590  141.0950 C   0  0  2  0  0  3  0  0  0  0  0  0
  188.2200  177.1190  140.5070 C   0  0  0  0  0  3  0  0  0  0  0  0
  188.6610  177.2470  139.0580 C   0  0  0  0  0  3  0  0  0  0  0  0
  187.1320  178.1260  140.6760 C   0  0  0  0  0  0  0  0  0  0  0  0
  187.7740  178.2950  138.4680 C   0  0  0  0  0  0  0  0  0  0  0  0
  185.4650  178.6510  139.0330 N   0  0  0  0  0  2  0  0  0  0  0  0
  183.2550  178.2930  141.3910 C   0  0  2  0  0  3  0  0  0  0  0  0
  186.8350  178.9040  139.4430 C   0  0  1  0  0  3  0  0  0  0  0  0
  187.7280  178.5930  137.2020 N   0  0  0  0  0  0  0  0  0  0  0  0
  186.4500  178.2210  141.8230 C   0  0  0  0  0  3  0  0  0  0  0  0
  184.6450  179.6850  139.6400 C   0  0  0  0  0  2  0  0  0  0  0  0
  183.3330  178.0110  142.7700 O   0  0  0  0  0  0  0  0  0  0  0  0
  188.5920  178.0650  136.1820 C   0  0  0  0  0  0  0  0  0  0  0  0
  189.8010  178.4140  136.1270 O   0  0  0  0  0  0  0  0  0  0  0  0
  188.0890  177.1670  135.1860 N   0  0  0  0  0  2  0  0  0  0  0  0
  183.8030  175.2190  135.1850 C   0  0  0  0  0  3  0  0  0  0  0  0
  188.9500  173.9160  135.7610 C   0  0  0  0  0  2  0  0  0  0  0  0
  186.8640  176.4250  135.2340 C   0  0  0  0  0  0  0  0  0  0  0  0
  186.8460  175.2820  135.9010 C   0  0  0  0  0  0  0  0  0  0  0  0
  186.7410  173.5130  136.9460 C   0  0  2  0  0  3  0  0  0  0  0  0
  188.4550  173.0150  134.8080 O   0  0  0  0  0  0  0  0  0  0  0  0
  187.8280  174.4490  136.6700 C   0  0  1  0  0  3  0  0  0  0  0  0
  188.1220  171.8720  135.5370 C   0  0  0  0  0  2  0  0  0  0  0  0
  186.8230  172.1120  136.3020 C   0  0  0  0  0  2  0  0  0  0  0  0
  185.6310  176.9530  134.6120 C   0  0  0  0  0  3  0  0  0  0  0  0
  184.4030  174.2670  135.9030 C   0  0  0  0  0  3  0  0  0  0  0  0
  185.7830  174.3180  136.2130 N   0  0  0  0  0  0  0  0  0  0  0  0
  184.3830  176.4530  134.5940 C   0  0  0  0  0  3  0  0  0  0  0  0
  184.2350  179.5540  144.3010 N   0  0  0  0  0  2  0  0  0  0  0  0
  184.3560  178.9070  145.5990 C   0  0  0  0  0  2  0  0  0  0  0  0
  185.4730  179.4020  146.2860 O   0  0  0  0  0  0  0  0  0  0  0  0
  186.5790  178.9140  145.5910 C   0  0  0  0  0  2  0  0  0  0  0  0
  186.7400  177.4210  145.8510 C   0  0  0  0  0  2  0  0  0  0  0  0
  190.3550  177.2630  144.9640 P   0  0  2  0  0  0  0  0  0  0  0  0
  190.3610  178.0110  146.4680 O   0  0  0  0  0  0  0  0  0  0  0  0
  188.9980  178.1400  146.7430 C   0  0  1  0  0  3  0  0  0  0  0  0
  188.2030  177.0290  146.0320 C   0  0  2  0  0  3  0  0  0  0  0  0
  188.7810  176.7000  144.8000 O   0  0  0  0  0  0  0  0  0  0  0  0
  191.3260  176.1060  144.9480 O   0  0  0  0  0  0  0  0  0  0  0  0
  188.7700  178.0780  148.2170 C   0  0  0  0  0  0  0  0  0  0  0  0
  187.4800  177.9710  148.7230 O   0  0  0  0  0  0  0  0  0  0  0  0
  189.7480  178.1590  149.0110 O   0  0  0  0  0  1  0  0  0  0  0  0
  189.6200  178.6330  142.8490 O   0  0  0  0  0  1  0  0  0  0  0  0
  190.7430  178.4640  143.6590 C   0  0  0  0  0  0  0  0  0  0  0  0
  191.0770  179.6860  144.2480 O   0  0  0  0  0  1  0  0  0  0  0  0
  191.9130  177.9440  142.8310 C   0  0  0  0  0  2  0  0  0  0  0  0
  191.4600  177.4460  141.4660 C   0  0  0  0  0  1  0  0  0  0  0  0
  183.4970  177.0090  140.6100 C   0  0  0  0  0  2  0  0  0  0  0  0
  182.9440  177.1340  139.3320 O   0  0  0  0  0  0  0  0  0  0  0  0
  180.7010  177.1310  138.5040 C   0  0  0  0  0  3  0  0  0  0  0  0
  181.7500  179.0960  139.2660 O   0  0  0  0  0  0  0  0  0  0  0  0
  181.0110  179.4410  138.1600 C   0  0  0  0  0  0  0  0  0  0  0  0
  180.9750  180.6640  137.7160 N   0  0  0  0  0  0  0  0  0  0  0  0
  181.6830  177.7070  139.5320 C   0  0  2  0  0  3  0  0  0  0  0  0
  180.3170  178.2750  137.5660 C   0  0  0  0  0  3  0  0  0  0  0  0
  178.9580  180.5160  136.1870 C   0  0  0  0  0  2  0  0  0  0  0  0
  180.1960  180.3750  135.3000 C   0  0  0  0  0  2  0  0  0  0  0  0
  180.2510  181.2120  136.5600 C   0  0  0  0  0  0  0  0  0  0  0  0
  179.4270  183.3010  135.4550 C   0  0  0  0  0  3  0  0  0  0  0  0
  180.2890  182.6950  136.3800 C   0  0  0  0  0  0  0  0  0  0  0  0
  181.9360  182.9360  138.1150 F   0  0  0  0  0  0  0  0  0  0  0  0
  180.2520  185.4840  136.0980 C   0  0  0  0  0  3  0  0  0  0  0  0
  179.4140  184.6920  135.3100 C   0  0  0  0  0  3  0  0  0  0  0  0
  181.1190  183.4990  137.1860 C   0  0  0  0  0  0  0  0  0  0  0  0
  181.1020  184.8880  137.0380 C   0  0  0  0  0  3  0  0  0  0  0  0
  1 12  1  6  0  0  0
  1  2  1  0  0  0  0
  2 31  1  1  0  0  0
  3 13  1  6  0  0  0
  3  9  1  0  0  0  0
  3  1  1  0  0  0  0
  4  6  1  0  0  0  0
  5  4  2  0  0  0  0
  6 12  2  0  0  0  0
  7  5  1  0  0  0  0
  8 10  1  0  0  0  0
  8 13  1  0  0  0  0
  9 50  1  6  0  0  0
  9 14  1  0  0  0  0
 10  7  1  6  0  0  0
 10  6  1  0  0  0  0
 11  7  2  0  0  0  0
 14  2  1  0  0  0  0
 15 11  1  0  0  0  0
 16 15  2  0  0  0  0
 17 20  1  0  0  0  0
 17 15  1  0  0  0  0
 18 28  2  0  0  0  0
 20 21  2  0  0  0  0
 21 29  1  0  0  0  0
 21 24  1  0  0  0  0
 22 26  1  6  0  0  0
 23 25  1  0  0  0  0
 23 19  1  0  0  0  0
 24 19  1  6  0  0  0
 24 22  1  0  0  0  0
 25 26  1  0  0  0  0
 27 20  1  0  0  0  0
 28 29  1  0  0  0  0
 29 22  1  0  0  0  0
 30 27  2  0  0  0  0
 30 18  1  0  0  0  0
 31 32  1  0  0  0  0
 32 33  1  0  0  0  0
 34 35  1  0  0  0  0
 34 33  1  0  0  0  0
 36 41  2  6  0  0  0
 36 37  1  0  0  0  0
 37 38  1  0  0  0  0
 38 42  1  1  0  0  0
 39 35  1  6  0  0  0
 39 38  1  0  0  0  0
 40 36  1  0  0  0  0
 40 39  1  0  0  0  0
 42 43  2  0  0  0  0
 42 44  1  0  0  0  0
 45 46  1  0  0  0  0
 46 47  1  0  0  0  0
 46 36  1  0  0  0  0
 48 46  1  0  0  0  0
 49 48  1  0  0  0  0
 51 50  1  0  0  0  0
 52 56  1  0  0  0  0
 53 56  1  0  0  0  0
 54 53  1  0  0  0  0
 55 54  2  0  0  0  0
 56 51  1  6  0  0  0
 57 54  1  0  0  0  0
 57 52  2  0  0  0  0
 58 60  1  0  0  0  0
 59 58  1  0  0  0  0
 59 60  1  0  0  0  0
 60 55  1  0  0  0  0
 61 62  1  0  0  0  0
 62 60  1  0  0  0  0
 62 66  2  0  0  0  0
 64 67  2  0  0  0  0
 65 61  2  0  0  0  0
 65 64  1  0  0  0  0
 66 63  1  0  0  0  0
 67 66  1  0  0  0  0
M  END
>  <MODEL>
4

>  <REMARK>
 VINA RESULT:      -6.2      3.982      9.749
  Name = 
  16 active torsions:
  status: ('A' for Active; 'I' for Inactive)
    1  A    between atoms: C_3  and  C_31
    2  A    between atoms: C_5  and  N_32
    3  A    between atoms: C_6  and  N_43
    4  A    between atoms: C_7  and  N_32
    5  A    between atoms: C_7  and  O_41
    6  A    between atoms: C_13  and  N_33
    7  A    between atoms: P_16  and  C_62
    8  A    between atoms: C_19  and  C_66
    9  A    between atoms: O_36  and  C_45
   10  A    between atoms: O_36  and  C_57
   11  A    between atoms: C_38  and  C_45
   12  A    between atoms: O_41  and  C_61
   13  A    between atoms: C_44  and  C_67
   14  A    between atoms: N_53  and  C_66
   15  A    between atoms: C_54  and  C_62
   16  A    between atoms: C_61  and  C_67
                            x       y       z     vdW  Elec       q    Type
                         _______ _______ _______ _____ _____    ______ ____

>  <TORSDO>
F 16

$$$$
=
 OpenBabel11042412153D

 67 76  0  0  1  0  0  0  0  0999 V2000
  187.5340  175.5900  135.6100 C   0  0  2  0  0  3  0  0  0  0  0  0
  189.0000  175.4850  136.0000 C   0  0  2  0  0  3  0  0  0  0  0  0
  187.2800  177.0420  135.9090 C   0  0  2  0  0  3  0  0  0  0  0  0
  184.8980  173.5520  137.6470 C   0  0  0  0  0  3  0  0  0  0  0  0
  183.4590  173.9880  137.8760 C   0  0  0  0  0  3  0  0  0  0  0  0
  185.5010  174.6200  136.7960 C   0  0  0  0  0  0  0  0  0  0  0  0
  183.3300  175.3010  137.1740 C   0  0  0  0  0  0  0  0  0  0  0  0
  185.0540  176.9680  137.0000 N   0  0  0  0  0  2  0  0  0  0  0  0
  188.2740  177.4220  136.9790 C   0  0  2  0  0  3  0  0  0  0  0  0
  184.5580  175.7180  136.4510 C   0  0  1  0  0  3  0  0  0  0  0  0
  182.2920  176.0820  137.2580 N   0  0  0  0  0  0  0  0  0  0  0  0
  186.7990  174.5980  136.4750 C   0  0  0  0  0  3  0  0  0  0  0  0
  185.8510  177.5990  135.9620 C   0  0  0  0  0  2  0  0  0  0  0  0
  189.3810  176.5610  136.8430 O   0  0  0  0  0  0  0  0  0  0  0  0
  181.0590  175.7710  137.9280 C   0  0  0  0  0  0  0  0  0  0  0  0
  180.9720  174.7530  138.6640 O   0  0  0  0  0  0  0  0  0  0  0  0
  179.8950  176.5850  137.7390 N   0  0  0  0  0  2  0  0  0  0  0  0
  179.6620  180.7030  135.4690 C   0  0  0  0  0  3  0  0  0  0  0  0
  179.9960  178.7050  140.4110 C   0  0  0  0  0  2  0  0  0  0  0  0
  179.8510  177.9140  137.2050 C   0  0  0  0  0  0  0  0  0  0  0  0
  180.3490  178.9020  137.9320 C   0  0  0  0  0  0  0  0  0  0  0  0
  181.1350  180.4780  138.9940 C   0  0  2  0  0  3  0  0  0  0  0  0
  178.9310  179.6140  140.4610 O   0  0  0  0  0  0  0  0  0  0  0  0
  180.9830  179.0540  139.2820 C   0  0  1  0  0  3  0  0  0  0  0  0
  179.4940  180.7980  140.9410 C   0  0  0  0  0  2  0  0  0  0  0  0
  180.2980  181.4700  139.8310 C   0  0  0  0  0  2  0  0  0  0  0  0
  179.3220  178.1700  135.8480 C   0  0  0  0  0  3  0  0  0  0  0  0
  180.2320  181.1730  136.5800 C   0  0  0  0  0  3  0  0  0  0  0  0
  180.5330  180.3370  137.6820 N   0  0  0  0  0  0  0  0  0  0  0  0
  179.2460  179.3140  135.1450 C   0  0  0  0  0  3  0  0  0  0  0  0
  189.8530  175.4600  134.8180 N   0  0  0  0  0  2  0  0  0  0  0  0
  190.9350  176.4140  135.0080 C   0  0  0  0  0  2  0  0  0  0  0  0
  192.1530  175.8560  134.5940 O   0  0  0  0  0  0  0  0  0  0  0  0
  193.0410  176.0910  135.6430 C   0  0  0  0  0  2  0  0  0  0  0  0
  194.3300  175.3080  135.4190 C   0  0  0  0  0  2  0  0  0  0  0  0
  196.4860  173.1940  137.6000 P   0  0  2  0  0  0  0  0  0  0  0  0
  195.8820  174.3470  138.6610 O   0  0  0  0  0  0  0  0  0  0  0  0
  195.1490  175.1790  137.8110 C   0  0  1  0  0  3  0  0  0  0  0  0
  194.6450  174.3850  136.5920 C   0  0  2  0  0  3  0  0  0  0  0  0
  195.5660  173.4010  136.2110 O   0  0  0  0  0  0  0  0  0  0  0  0
  196.2800  171.8050  138.1590 O   0  0  0  0  0  0  0  0  0  0  0  0
  193.9980  175.7740  138.5530 C   0  0  0  0  0  0  0  0  0  0  0  0
  194.1940  176.8620  139.3950 O   0  0  0  0  0  1  0  0  0  0  0  0
  192.8470  175.2680  138.4450 O   0  0  0  0  0  0  0  0  0  0  0  0
  198.3510  174.2080  136.0550 O   0  0  0  0  0  1  0  0  0  0  0  0
  198.2410  173.5080  137.2570 C   0  0  0  0  0  0  0  0  0  0  0  0
  198.7770  174.2780  138.2920 O   0  0  0  0  0  1  0  0  0  0  0  0
  198.9790  172.1780  137.1580 C   0  0  0  0  0  2  0  0  0  0  0  0
  198.6620  171.4520  135.8580 C   0  0  0  0  0  1  0  0  0  0  0  0
  187.7070  177.2790  138.3850 C   0  0  0  0  0  2  0  0  0  0  0  0
  187.8470  178.4930  139.0650 O   0  0  0  0  0  0  0  0  0  0  0  0
  189.6290  177.0490  139.7410 C   0  0  0  0  0  3  0  0  0  0  0  0
  189.1940  179.0940  140.8260 O   0  0  0  0  0  0  0  0  0  0  0  0
  189.5330  178.1880  141.8020 C   0  0  0  0  0  0  0  0  0  0  0  0
  189.5750  178.5220  143.0590 N   0  0  0  0  0  0  0  0  0  0  0  0
  189.1620  178.4970  139.5420 C   0  0  2  0  0  3  0  0  0  0  0  0
  189.8060  176.8430  141.2450 C   0  0  0  0  0  3  0  0  0  0  0  0
  191.3810  177.5840  144.5730 C   0  0  0  0  0  2  0  0  0  0  0  0
  190.6320  176.3880  143.9860 C   0  0  0  0  0  2  0  0  0  0  0  0
  189.9100  177.6960  144.2280 C   0  0  0  0  0  0  0  0  0  0  0  0
  189.3790  178.2440  146.6120 C   0  0  0  0  0  3  0  0  0  0  0  0
  188.9540  177.7330  145.3780 C   0  0  0  0  0  0  0  0  0  0  0  0
  187.1690  176.8770  144.0140 F   0  0  0  0  0  0  0  0  0  0  0  0
  187.1580  177.9250  147.5200 C   0  0  0  0  0  3  0  0  0  0  0  0
  188.4830  178.3330  147.6830 C   0  0  0  0  0  3  0  0  0  0  0  0
  187.6120  177.3410  145.2120 C   0  0  0  0  0  0  0  0  0  0  0  0
  186.7210  177.4320  146.2850 C   0  0  0  0  0  3  0  0  0  0  0  0
  1  3  1  0  0  0  0
  1  2  1  0  0  0  0
  1 12  1  1  0  0  0
  2 31  1  6  0  0  0
  2 14  1  0  0  0  0
  3 13  1  1  0  0  0
  3  9  1  0  0  0  0
  4  5  2  0  0  0  0
  6  4  1  0  0  0  0
  7 11  2  0  0  0  0
  7  5  1  0  0  0  0
  9 50  1  1  0  0  0
 10  6  1  1  0  0  0
 10  8  1  0  0  0  0
 10  7  1  0  0  0  0
 11 15  1  0  0  0  0
 12  6  2  0  0  0  0
 13  8  1  0  0  0  0
 14  9  1  0  0  0  0
 15 16  2  0  0  0  0
 17 15  1  0  0  0  0
 18 28  2  0  0  0  0
 19 23  1  0  0  0  0
 20 17  1  0  0  0  0
 20 21  2  0  0  0  0
 21 24  1  0  0  0  0
 22 24  1  0  0  0  0
 22 26  1  1  0  0  0
 23 25  1  0  0  0  0
 24 19  1  1  0  0  0
 26 25  1  0  0  0  0
 27 20  1  0  0  0  0
 28 29  1  0  0  0  0
 29 21  1  0  0  0  0
 29 22  1  0  0  0  0
 30 18  1  0  0  0  0
 30 27  2  0  0  0  0
 31 32  1  0  0  0  0
 33 32  1  0  0  0  0
 33 34  1  0  0  0  0
 35 34  1  0  0  0  0
 36 41  2  1  0  0  0
 36 37  1  0  0  0  0
 38 42  1  1  0  0  0
 38 37  1  0  0  0  0
 39 35  1  6  0  0  0
 39 38  1  0  0  0  0
 40 39  1  0  0  0  0
 40 36  1  0  0  0  0
 42 43  1  0  0  0  0
 44 42  2  0  0  0  0
 45 46  1  0  0  0  0
 46 36  1  0  0  0  0
 46 47  1  0  0  0  0
 48 46  1  0  0  0  0
 49 48  1  0  0  0  0
 50 51  1  0  0  0  0
 52 57  2  0  0  0  0
 53 54  1  0  0  0  0
 54 55  2  0  0  0  0
 55 60  1  0  0  0  0
 56 51  1  1  0  0  0
 56 52  1  0  0  0  0
 56 53  1  0  0  0  0
 57 54  1  0  0  0  0
 59 60  1  0  0  0  0
 59 58  1  0  0  0  0
 60 58  1  0  0  0  0
 60 62  1  0  0  0  0
 61 65  1  0  0  0  0
 62 61  2  0  0  0  0
 63 66  1  0  0  0  0
 64 65  2  0  0  0  0
 66 62  1  0  0  0  0
 66 67  2  0  0  0  0
 67 64  1  0  0  0  0
M  END
>  <MODEL>
5

>  <REMARK>
 VINA RESULT:      -5.9      2.150      3.546
  Name = 
  16 active torsions:
  status: ('A' for Active; 'I' for Inactive)
    1  A    between atoms: C_3  and  C_31
    2  A    between atoms: C_5  and  N_32
    3  A    between atoms: C_6  and  N_43
    4  A    between atoms: C_7  and  N_32
    5  A    between atoms: C_7  and  O_41
    6  A    between atoms: C_13  and  N_33
    7  A    between atoms: P_16  and  C_62
    8  A    between atoms: C_19  and  C_66
    9  A    between atoms: O_36  and  C_45
   10  A    between atoms: O_36  and  C_57
   11  A    between atoms: C_38  and  C_45
   12  A    between atoms: O_41  and  C_61
   13  A    between atoms: C_44  and  C_67
   14  A    between atoms: N_53  and  C_66
   15  A    between atoms: C_54  and  C_62
   16  A    between atoms: C_61  and  C_67
                            x       y       z     vdW  Elec       q    Type
                         _______ _______ _______ _____ _____    ______ ____

>  <TORSDO>
F 16

$$$$
=
 OpenBabel11042412153D

 67 76  0  0  1  0  0  0  0  0999 V2000
  190.6350  175.4740  136.9000 C   0  0  2  0  0  3  0  0  0  0  0  0
  190.5450  175.8400  135.4280 C   0  0  2  0  0  3  0  0  0  0  0  0
  189.2220  175.7520  137.3340 C   0  0  2  0  0  3  0  0  0  0  0  0
  192.9540  177.5890  139.2240 C   0  0  0  0  0  3  0  0  0  0  0  0
  192.7000  177.8350  140.7030 C   0  0  0  0  0  3  0  0  0  0  0  0
  191.8340  176.7100  138.7750 C   0  0  0  0  0  0  0  0  0  0  0  0
  191.4280  177.1140  141.0090 C   0  0  0  0  0  0  0  0  0  0  0  0
  189.5590  176.8820  139.5160 N   0  0  0  0  0  2  0  0  0  0  0  0
  188.6990  176.7990  136.3810 C   0  0  2  0  0  3  0  0  0  0  0  0
  190.8720  176.3630  139.8560 C   0  0  1  0  0  3  0  0  0  0  0  0
  190.7850  177.2030  142.1380 N   0  0  0  0  0  0  0  0  0  0  0  0
  191.6960  176.3680  137.4890 C   0  0  0  0  0  3  0  0  0  0  0  0
  188.8510  175.8200  138.8210 C   0  0  0  0  0  2  0  0  0  0  0  0
  189.4140  176.6590  135.1750 O   0  0  0  0  0  0  0  0  0  0  0  0
  191.2370  177.8980  143.3110 C   0  0  0  0  0  0  0  0  0  0  0  0
  192.4300  178.2920  143.3980 O   0  0  0  0  0  0  0  0  0  0  0  0
  190.3560  178.1200  144.4180 N   0  0  0  0  0  2  0  0  0  0  0  0
  185.6930  177.8680  143.8300 C   0  0  0  0  0  3  0  0  0  0  0  0
  189.4220  177.4480  147.6300 C   0  0  0  0  0  2  0  0  0  0  0  0
  188.9270  178.0300  144.4140 C   0  0  0  0  0  0  0  0  0  0  0  0
  188.2780  178.2580  145.5460 C   0  0  0  0  0  0  0  0  0  0  0  0
  187.2060  178.6320  147.2610 C   0  0  2  0  0  3  0  0  0  0  0  0
  188.6350  176.2960  147.7680 O   0  0  0  0  0  0  0  0  0  0  0  0
  188.6350  178.5910  146.9630 C   0  0  1  0  0  3  0  0  0  0  0  0
  187.7090  176.6130  148.7640 C   0  0  0  0  0  2  0  0  0  0  0  0
  186.6370  177.5380  148.1910 C   0  0  0  0  0  2  0  0  0  0  0  0
  188.1860  177.7540  143.1650 C   0  0  0  0  0  3  0  0  0  0  0  0
  185.6670  178.1500  145.1340 C   0  0  0  0  0  3  0  0  0  0  0  0
  186.8520  178.3210  145.8890 N   0  0  0  0  0  0  0  0  0  0  0  0
  186.8630  177.6870  142.9340 C   0  0  0  0  0  3  0  0  0  0  0  0
  190.4840  174.6440  134.5960 N   0  0  0  0  0  2  0  0  0  0  0  0
  190.7850  173.4870  135.4260 C   0  0  0  0  0  2  0  0  0  0  0  0
  191.4240  172.4970  134.6660 O   0  0  0  0  0  0  0  0  0  0  0  0
  192.7690  172.8630  134.6420 C   0  0  0  0  0  2  0  0  0  0  0  0
  193.3810  172.6900  136.0270 C   0  0  0  0  0  2  0  0  0  0  0  0
  197.0830  173.0030  136.3050 P   0  0  2  0  0  0  0  0  0  0  0  0
  196.7220  171.7610  137.3770 O   0  0  0  0  0  0  0  0  0  0  0  0
  195.3260  171.7180  137.3240 C   0  0  1  0  0  3  0  0  0  0  0  0
  194.8290  172.2150  135.9540 C   0  0  2  0  0  3  0  0  0  0  0  0
  195.6550  173.2270  135.4500 O   0  0  0  0  0  0  0  0  0  0  0  0
  198.1910  172.5830  135.3670 O   0  0  0  0  0  0  0  0  0  0  0  0
  194.8520  170.3240  137.5730 C   0  0  0  0  0  0  0  0  0  0  0  0
  195.0160  169.7420  138.8240 O   0  0  0  0  0  1  0  0  0  0  0  0
  194.3320  169.6570  136.6360 O   0  0  0  0  0  0  0  0  0  0  0  0
  198.8320  174.8760  136.8770 O   0  0  0  0  0  1  0  0  0  0  0  0
  197.5280  174.5110  137.2130 C   0  0  0  0  0  0  0  0  0  0  0  0
  196.6520  175.5370  136.8490 O   0  0  0  0  0  1  0  0  0  0  0  0
  197.4270  174.2440  138.7100 C   0  0  0  0  0  2  0  0  0  0  0  0
  196.0930  174.7080  139.2780 C   0  0  0  0  0  1  0  0  0  0  0  0
  188.8860  178.2160  136.9040 C   0  0  0  0  0  2  0  0  0  0  0  0
  187.6330  178.8150  137.0740 O   0  0  0  0  0  0  0  0  0  0  0  0
  185.7270  177.3720  137.0190 C   0  0  0  0  0  3  0  0  0  0  0  0
  186.3130  178.5980  138.9420 O   0  0  0  0  0  0  0  0  0  0  0  0
  184.9420  178.6300  138.8500 C   0  0  0  0  0  0  0  0  0  0  0  0
  184.2130  179.2540  139.7300 N   0  0  0  0  0  0  0  0  0  0  0  0
  186.8980  177.9120  137.8510 C   0  0  2  0  0  3  0  0  0  0  0  0
  184.4450  177.9100  137.6550 C   0  0  0  0  0  3  0  0  0  0  0  0
  181.9920  179.0860  138.5180 C   0  0  0  0  0  2  0  0  0  0  0  0
  182.1170  180.5280  139.0130 C   0  0  0  0  0  2  0  0  0  0  0  0
  182.7510  179.3950  139.7920 C   0  0  0  0  0  0  0  0  0  0  0  0
  182.7180  179.3070  142.2930 C   0  0  0  0  0  3  0  0  0  0  0  0
  182.0890  179.0100  141.0760 C   0  0  0  0  0  0  0  0  0  0  0  0
  180.1610  178.1660  139.9130 F   0  0  0  0  0  0  0  0  0  0  0  0
  180.8250  178.4070  143.5040 C   0  0  0  0  0  3  0  0  0  0  0  0
  182.0890  179.0000  143.5040 C   0  0  0  0  0  3  0  0  0  0  0  0
  180.8050  178.4300  141.0800 C   0  0  0  0  0  0  0  0  0  0  0  0
  180.1820  178.1250  142.2930 C   0  0  0  0  0  3  0  0  0  0  0  0
  1  3  1  0  0  0  0
  1 12  1  1  0  0  0
  2 31  1  6  0  0  0
  2  1  1  0  0  0  0
  3 13  1  1  0  0  0
  4  5  2  0  0  0  0
  5  7  1  0  0  0  0
  6  4  1  0  0  0  0
  7 11  2  0  0  0  0
  8 10  1  0  0  0  0
  9 50  1  1  0  0  0
  9  3  1  0  0  0  0
 10  6  1  6  0  0  0
 10  7  1  0  0  0  0
 11 15  1  0  0  0  0
 12  6  2  0  0  0  0
 13  8  1  0  0  0  0
 14  2  1  0  0  0  0
 14  9  1  0  0  0  0
 15 16  2  0  0  0  0
 15 17  1  0  0  0  0
 18 28  2  0  0  0  0
 19 23  1  0  0  0  0
 20 17  1  0  0  0  0
 20 21  2  0  0  0  0
 21 29  1  0  0  0  0
 21 24  1  0  0  0  0
 22 26  1  1  0  0  0
 23 25  1  0  0  0  0
 24 22  1  0  0  0  0
 24 19  1  1  0  0  0
 26 25  1  0  0  0  0
 27 20  1  0  0  0  0
 28 29  1  0  0  0  0
 29 22  1  0  0  0  0
 30 27  2  0  0  0  0
 30 18  1  0  0  0  0
 31 32  1  0  0  0  0
 33 32  1  0  0  0  0
 34 33  1  0  0  0  0
 34 35  1  0  0  0  0
 36 41  2  6  0  0  0
 36 46  1  0  0  0  0
 36 37  1  0  0  0  0
 38 37  1  0  0  0  0
 38 42  1  6  0  0  0
 39 35  1  1  0  0  0
 39 38  1  0  0  0  0
 40 39  1  0  0  0  0
 40 36  1  0  0  0  0
 42 43  1  0  0  0  0
 44 42  2  0  0  0  0
 45 46  1  0  0  0  0
 46 48  1  0  0  0  0
 47 46  1  0  0  0  0
 48 49  1  0  0  0  0
 50 51  1  0  0  0  0
 52 57  2  0  0  0  0
 52 56  1  0  0  0  0
 54 53  1  0  0  0  0
 54 55  2  0  0  0  0
 55 60  1  0  0  0  0
 56 51  1  6  0  0  0
 56 53  1  0  0  0  0
 57 54  1  0  0  0  0
 58 59  1  0  0  0  0
 58 60  1  0  0  0  0
 59 60  1  0  0  0  0
 60 62  1  0  0  0  0
 61 65  1  0  0  0  0
 62 66  1  0  0  0  0
 62 61  2  0  0  0  0
 63 66  1  0  0  0  0
 64 65  2  0  0  0  0
 66 67  2  0  0  0  0
 67 64  1  0  0  0  0
M  END
>  <MODEL>
6

>  <REMARK>
 VINA RESULT:      -5.6      3.156      7.916
  Name = 
  16 active torsions:
  status: ('A' for Active; 'I' for Inactive)
    1  A    between atoms: C_3  and  C_31
    2  A    between atoms: C_5  and  N_32
    3  A    between atoms: C_6  and  N_43
    4  A    between atoms: C_7  and  N_32
    5  A    between atoms: C_7  and  O_41
    6  A    between atoms: C_13  and  N_33
    7  A    between atoms: P_16  and  C_62
    8  A    between atoms: C_19  and  C_66
    9  A    between atoms: O_36  and  C_45
   10  A    between atoms: O_36  and  C_57
   11  A    between atoms: C_38  and  C_45
   12  A    between atoms: O_41  and  C_61
   13  A    between atoms: C_44  and  C_67
   14  A    between atoms: N_53  and  C_66
   15  A    between atoms: C_54  and  C_62
   16  A    between atoms: C_61  and  C_67
                            x       y       z     vdW  Elec       q    Type
                         _______ _______ _______ _____ _____    ______ ____

>  <TORSDO>
F 16

$$$$
=
 OpenBabel11042412153D

 67 76  0  0  1  0  0  0  0  0999 V2000
  187.8400  175.6930  135.3850 C   0  0  2  0  0  3  0  0  0  0  0  0
  187.2960  177.0670  135.7420 C   0  0  2  0  0  3  0  0  0  0  0  0
  187.5970  174.9630  136.6780 C   0  0  2  0  0  3  0  0  0  0  0  0
  191.6460  175.3250  134.5940 C   0  0  0  0  0  3  0  0  0  0  0  0
  192.4690  174.0770  134.8690 C   0  0  0  0  0  3  0  0  0  0  0  0
  190.2590  174.9850  135.0250 C   0  0  0  0  0  0  0  0  0  0  0  0
  191.5120  173.1030  135.4780 C   0  0  0  0  0  0  0  0  0  0  0  0
  189.6930  173.6640  136.9450 N   0  0  0  0  0  2  0  0  0  0  0  0
  187.6040  176.0210  137.7540 C   0  0  2  0  0  3  0  0  0  0  0  0
  190.1170  173.6030  135.5580 C   0  0  1  0  0  3  0  0  0  0  0  0
  191.8570  171.9610  136.0000 N   0  0  0  0  0  0  0  0  0  0  0  0
  189.2840  175.9000  135.0030 C   0  0  0  0  0  3  0  0  0  0  0  0
  188.2410  173.5970  136.9460 C   0  0  0  0  0  2  0  0  0  0  0  0
  187.2160  177.2340  137.1480 O   0  0  0  0  0  0  0  0  0  0  0  0
  193.1740  171.3880  135.9720 C   0  0  0  0  0  0  0  0  0  0  0  0
  193.3490  170.2080  135.5690 O   0  0  0  0  0  0  0  0  0  0  0  0
  194.3070  172.1290  136.4420 N   0  0  0  0  0  2  0  0  0  0  0  0
  194.0770  176.7210  137.4510 C   0  0  0  0  0  3  0  0  0  0  0  0
  197.2670  173.1500  135.0860 C   0  0  0  0  0  2  0  0  0  0  0  0
  194.3840  173.5440  136.6540 C   0  0  0  0  0  0  0  0  0  0  0  0
  195.1450  174.2620  135.8420 C   0  0  0  0  0  0  0  0  0  0  0  0
  196.2840  175.4410  134.6000 C   0  0  2  0  0  3  0  0  0  0  0  0
  198.0990  173.8400  135.9790 O   0  0  0  0  0  0  0  0  0  0  0  0
  196.0510  174.0010  134.6760 C   0  0  1  0  0  3  0  0  0  0  0  0
  198.7020  174.8350  135.2080 C   0  0  0  0  0  2  0  0  0  0  0  0
  197.7000  175.9550  134.9400 C   0  0  0  0  0  2  0  0  0  0  0  0
  193.5820  174.1990  137.7090 C   0  0  0  0  0  3  0  0  0  0  0  0
  194.9310  176.8320  136.4320 C   0  0  0  0  0  3  0  0  0  0  0  0
  195.4010  175.7030  135.7200 N   0  0  0  0  0  0  0  0  0  0  0  0
  193.4630  175.4990  138.0310 C   0  0  0  0  0  3  0  0  0  0  0  0
  185.9830  177.2790  135.1440 N   0  0  0  0  0  2  0  0  0  0  0  0
  185.0380  176.3650  135.7690 C   0  0  0  0  0  2  0  0  0  0  0  0
  184.0410  175.9970  134.8540 O   0  0  0  0  0  0  0  0  0  0  0  0
  183.0880  175.3100  135.6050 C   0  0  0  0  0  2  0  0  0  0  0  0
  181.9860  176.2660  136.0470 C   0  0  0  0  0  2  0  0  0  0  0  0
  182.0100  179.0350  138.5390 P   0  0  2  0  0  0  0  0  0  0  0  0
  181.2530  177.7840  139.3640 O   0  0  0  0  0  0  0  0  0  0  0  0
  181.1750  176.7870  138.3890 C   0  0  1  0  0  3  0  0  0  0  0  0
  182.3200  176.9460  137.3710 C   0  0  2  0  0  3  0  0  0  0  0  0
  182.6340  178.2960  137.1670 O   0  0  0  0  0  0  0  0  0  0  0  0
  183.1290  179.6150  139.3730 O   0  0  0  0  0  0  0  0  0  0  0  0
  181.2370  175.4410  139.0320 C   0  0  0  0  0  0  0  0  0  0  0  0
  180.0920  174.6620  139.1390 O   0  0  0  0  0  0  0  0  0  0  0  0
  182.3260  175.0210  139.5150 O   0  0  0  0  0  1  0  0  0  0  0  0
  180.4470  180.1440  136.7440 O   0  0  0  0  0  1  0  0  0  0  0  0
  180.8020  180.3120  138.0830 C   0  0  0  0  0  0  0  0  0  0  0  0
  179.6670  180.1730  138.8850 O   0  0  0  0  0  1  0  0  0  0  0  0
  181.4250  181.6880  138.2910 C   0  0  0  0  0  2  0  0  0  0  0  0
  180.5220  182.8000  137.7740 C   0  0  0  0  0  1  0  0  0  0  0  0
  188.9740  176.2040  138.3910 C   0  0  0  0  0  2  0  0  0  0  0  0
  189.4300  177.5030  138.1430 O   0  0  0  0  0  0  0  0  0  0  0  0
  190.4000  176.6800  140.1680 C   0  0  0  0  0  3  0  0  0  0  0  0
  189.0840  178.6320  140.1140 O   0  0  0  0  0  0  0  0  0  0  0  0
  188.7570  177.9610  141.2680 C   0  0  0  0  0  0  0  0  0  0  0  0
  187.8710  178.4260  142.1010 N   0  0  0  0  0  0  0  0  0  0  0  0
  190.0280  177.9160  139.3380 C   0  0  2  0  0  3  0  0  0  0  0  0
  189.5060  176.6910  141.4070 C   0  0  0  0  0  3  0  0  0  0  0  0
  188.4420  177.6550  144.4480 C   0  0  0  0  0  2  0  0  0  0  0  0
  187.8470  176.4490  143.7200 C   0  0  0  0  0  2  0  0  0  0  0  0
  187.3980  177.8520  143.3690 C   0  0  0  0  0  0  0  0  0  0  0  0
  185.7590  178.3400  145.1960 C   0  0  0  0  0  3  0  0  0  0  0  0
  186.0310  178.2540  143.8240 C   0  0  0  0  0  0  0  0  0  0  0  0
  185.2960  178.5870  141.5590 F   0  0  0  0  0  0  0  0  0  0  0  0
  183.5170  179.1150  144.7130 C   0  0  0  0  0  3  0  0  0  0  0  0
  184.5020  178.7640  145.6390 C   0  0  0  0  0  3  0  0  0  0  0  0
  185.0420  178.6280  142.8940 C   0  0  0  0  0  0  0  0  0  0  0  0
  183.7880  179.0500  143.3420 C   0  0  0  0  0  3  0  0  0  0  0  0
  1 12  1  1  0  0  0
  1  2  1  0  0  0  0
  1  3  1  0  0  0  0
  2 31  1  6  0  0  0
  2 14  1  0  0  0  0
  3 13  1  1  0  0  0
  3  9  1  0  0  0  0
  4  5  2  0  0  0  0
  4  6  1  0  0  0  0
  5  7  1  0  0  0  0
  7 10  1  0  0  0  0
  7 11  2  0  0  0  0
  8 13  1  0  0  0  0
  9 50  1  6  0  0  0
 10  6  1  1  0  0  0
 10  8  1  0  0  0  0
 12  6  2  0  0  0  0
 14  9  1  0  0  0  0
 15 11  1  0  0  0  0
 15 17  1  0  0  0  0
 16 15  2  0  0  0  0
 17 20  1  0  0  0  0
 18 30  1  0  0  0  0
 19 23  1  0  0  0  0
 20 27  1  0  0  0  0
 21 20  2  0  0  0  0
 22 24  1  0  0  0  0
 22 26  1  1  0  0  0
 22 29  1  0  0  0  0
 24 19  1  1  0  0  0
 24 21  1  0  0  0  0
 25 23  1  0  0  0  0
 26 25  1  0  0  0  0
 27 30  2  0  0  0  0
 28 18  2  0  0  0  0
 29 21  1  0  0  0  0
 29 28  1  0  0  0  0
 31 32  1  0  0  0  0
 33 34  1  0  0  0  0
 33 32  1  0  0  0  0
 34 35  1  0  0  0  0
 36 37  1  0  0  0  0
 36 41  2  1  0  0  0
 38 42  1  1  0  0  0
 38 37  1  0  0  0  0
 39 35  1  6  0  0  0
 39 38  1  0  0  0  0
 40 39  1  0  0  0  0
 40 36  1  0  0  0  0
 42 43  2  0  0  0  0
 42 44  1  0  0  0  0
 45 46  1  0  0  0  0
 46 48  1  0  0  0  0
 46 36  1  0  0  0  0
 46 47  1  0  0  0  0
 49 48  1  0  0  0  0
 51 50  1  0  0  0  0
 52 57  2  0  0  0  0
 53 54  1  0  0  0  0
 54 57  1  0  0  0  0
 54 55  2  0  0  0  0
 55 60  1  0  0  0  0
 56 51  1  6  0  0  0
 56 53  1  0  0  0  0
 56 52  1  0  0  0  0
 59 58  1  0  0  0  0
 60 59  1  0  0  0  0
 60 62  1  0  0  0  0
 60 58  1  0  0  0  0
 61 65  1  0  0  0  0
 62 61  2  0  0  0  0
 63 66  1  0  0  0  0
 64 65  2  0  0  0  0
 66 67  2  0  0  0  0
 66 62  1  0  0  0  0
 67 64  1  0  0  0  0
M  END
>  <MODEL>
7

>  <REMARK>
 VINA RESULT:      -5.2      3.271     11.109
  Name = 
  16 active torsions:
  status: ('A' for Active; 'I' for Inactive)
    1  A    between atoms: C_3  and  C_31
    2  A    between atoms: C_5  and  N_32
    3  A    between atoms: C_6  and  N_43
    4  A    between atoms: C_7  and  N_32
    5  A    between atoms: C_7  and  O_41
    6  A    between atoms: C_13  and  N_33
    7  A    between atoms: P_16  and  C_62
    8  A    between atoms: C_19  and  C_66
    9  A    between atoms: O_36  and  C_45
   10  A    between atoms: O_36  and  C_57
   11  A    between atoms: C_38  and  C_45
   12  A    between atoms: O_41  and  C_61
   13  A    between atoms: C_44  and  C_67
   14  A    between atoms: N_53  and  C_66
   15  A    between atoms: C_54  and  C_62
   16  A    between atoms: C_61  and  C_67
                            x       y       z     vdW  Elec       q    Type
                         _______ _______ _______ _____ _____    ______ ____

>  <TORSDO>
F 16

$$$$
=
 OpenBabel11042412153D

 67 76  0  0  1  0  0  0  0  0999 V2000
  187.2180  176.4560  136.6770 C   0  0  2  0  0  3  0  0  0  0  0  0
  188.4300  175.5460  136.8020 C   0  0  2  0  0  3  0  0  0  0  0  0
  187.8140  177.7610  137.1300 C   0  0  2  0  0  3  0  0  0  0  0  0
  184.1200  175.7900  138.9590 C   0  0  0  0  0  3  0  0  0  0  0  0
  183.1720  176.8660  139.4630 C   0  0  0  0  0  3  0  0  0  0  0  0
  185.1130  176.5090  138.1070 C   0  0  0  0  0  0  0  0  0  0  0  0
  183.6980  178.1470  138.9010 C   0  0  0  0  0  0  0  0  0  0  0  0
  186.0190  178.6800  138.5730 N   0  0  0  0  0  2  0  0  0  0  0  0
  188.9580  177.3940  138.0440 C   0  0  2  0  0  3  0  0  0  0  0  0
  184.8780  177.9750  138.0170 C   0  0  1  0  0  3  0  0  0  0  0  0
  183.2550  179.3290  139.2230 N   0  0  0  0  0  0  0  0  0  0  0  0
  186.1570  175.8670  137.5710 C   0  0  0  0  0  3  0  0  0  0  0  0
  186.9210  178.9610  137.4690 C   0  0  0  0  0  2  0  0  0  0  0  0
  189.4100  176.1180  137.6530 O   0  0  0  0  0  0  0  0  0  0  0  0
  182.1230  179.6010  140.0640 C   0  0  0  0  0  0  0  0  0  0  0  0
  182.1620  179.3320  141.2940 O   0  0  0  0  0  0  0  0  0  0  0  0
  180.9150  180.1430  139.5170 N   0  0  0  0  0  2  0  0  0  0  0  0
  180.5370  182.7430  135.6100 C   0  0  0  0  0  3  0  0  0  0  0  0
  180.3860  177.6590  137.2380 C   0  0  0  0  0  2  0  0  0  0  0  0
  180.7570  180.7860  138.2460 C   0  0  0  0  0  0  0  0  0  0  0  0
  180.0810  180.1520  137.3000 C   0  0  0  0  0  0  0  0  0  0  0  0
  179.0160  179.2380  135.7970 C   0  0  2  0  0  3  0  0  0  0  0  0
  181.2860  177.6670  136.1640 O   0  0  0  0  0  0  0  0  0  0  0  0
  179.3900  178.8300  137.1480 C   0  0  1  0  0  3  0  0  0  0  0  0
  180.5220  177.2960  135.0550 C   0  0  0  0  0  2  0  0  0  0  0  0
  179.6520  178.4720  134.6160 C   0  0  0  0  0  2  0  0  0  0  0  0
  181.2770  182.1500  138.0130 C   0  0  0  0  0  3  0  0  0  0  0  0
  179.8640  181.6850  135.1550 C   0  0  0  0  0  3  0  0  0  0  0  0
  179.6720  180.5230  135.9390 N   0  0  0  0  0  0  0  0  0  0  0  0
  181.1850  182.9440  136.9320 C   0  0  0  0  0  3  0  0  0  0  0  0
  189.0120  175.2690  135.4950 N   0  0  0  0  0  2  0  0  0  0  0  0
  189.9390  176.3410  135.1650 C   0  0  0  0  0  2  0  0  0  0  0  0
  191.0480  176.3050  136.0220 O   0  0  0  0  0  0  0  0  0  0  0  0
  191.9340  175.4000  135.4380 C   0  0  0  0  0  2  0  0  0  0  0  0
  191.8800  174.0680  136.1760 C   0  0  0  0  0  2  0  0  0  0  0  0
  195.1510  172.4290  136.8780 P   0  0  2  0  0  0  0  0  0  0  0  0
  195.5540  174.0550  136.7680 O   0  0  0  0  0  0  0  0  0  0  0  0
  194.3340  174.6420  136.4190 C   0  0  1  0  0  3  0  0  0  0  0  0
  193.1640  173.7970  136.9540 C   0  0  2  0  0  3  0  0  0  0  0  0
  193.4730  172.4300  136.9350 O   0  0  0  0  0  0  0  0  0  0  0  0
  195.7140  171.8320  138.1480 O   0  0  0  0  0  0  0  0  0  0  0  0
  194.2640  176.0290  136.9650 C   0  0  0  0  0  0  0  0  0  0  0  0
  194.5740  177.1170  136.1580 O   0  0  0  0  0  0  0  0  0  0  0  0
  193.9560  176.2170  138.1750 O   0  0  0  0  0  1  0  0  0  0  0  0
  196.3660  170.3530  135.8250 O   0  0  0  0  0  1  0  0  0  0  0  0
  195.7400  171.5310  135.4140 C   0  0  0  0  0  0  0  0  0  0  0  0
  194.6480  171.2170  134.6020 O   0  0  0  0  0  1  0  0  0  0  0  0
  196.7250  172.4090  134.6500 C   0  0  0  0  0  2  0  0  0  0  0  0
  198.1480  172.2400  135.1640 C   0  0  0  0  0  1  0  0  0  0  0  0
  188.5480  177.3460  139.5090 C   0  0  0  0  0  2  0  0  0  0  0  0
  189.4570  178.0890  140.2680 O   0  0  0  0  0  0  0  0  0  0  0  0
  189.3840  176.0160  141.4570 C   0  0  0  0  0  3  0  0  0  0  0  0
  190.8900  177.7330  142.0280 O   0  0  0  0  0  0  0  0  0  0  0  0
  190.4450  177.1840  143.2060 C   0  0  0  0  0  0  0  0  0  0  0  0
  190.8590  177.6180  144.3620 N   0  0  0  0  0  0  0  0  0  0  0  0
  190.2670  177.1410  140.9030 C   0  0  2  0  0  3  0  0  0  0  0  0
  189.4620  176.1000  142.9810 C   0  0  0  0  0  3  0  0  0  0  0  0
  191.6190  177.0900  146.7220 C   0  0  0  0  0  2  0  0  0  0  0  0
  191.0070  175.8080  146.1590 C   0  0  0  0  0  2  0  0  0  0  0  0
  190.4950  177.1600  145.7100 C   0  0  0  0  0  0  0  0  0  0  0  0
  188.0330  177.4800  145.3900 C   0  0  0  0  0  3  0  0  0  0  0  0
  189.1540  177.5760  146.2260 C   0  0  0  0  0  0  0  0  0  0  0  0
  190.0580  178.0450  148.4040 F   0  0  0  0  0  0  0  0  0  0  0  0
  186.6090  178.2360  147.1950 C   0  0  0  0  0  3  0  0  0  0  0  0
  186.7650  177.8170  145.8720 C   0  0  0  0  0  3  0  0  0  0  0  0
  188.9900  177.9800  147.5650 C   0  0  0  0  0  0  0  0  0  0  0  0
  187.7200  178.3150  148.0420 C   0  0  0  0  0  3  0  0  0  0  0  0
  1  2  1  0  0  0  0
  1  3  1  0  0  0  0
  1 12  1  1  0  0  0
  2 31  1  6  0  0  0
  2 14  1  0  0  0  0
  3 13  1  1  0  0  0
  3  9  1  0  0  0  0
  4  5  2  0  0  0  0
  6  4  1  0  0  0  0
  7 11  2  0  0  0  0
  7  5  1  0  0  0  0
  9 50  1  1  0  0  0
 10  6  1  1  0  0  0
 10  8  1  0  0  0  0
 10  7  1  0  0  0  0
 11 15  1  0  0  0  0
 12  6  2  0  0  0  0
 13  8  1  0  0  0  0
 14  9  1  0  0  0  0
 15 16  2  0  0  0  0
 17 15  1  0  0  0  0
 18 30  1  0  0  0  0
 20 17  1  0  0  0  0
 21 20  2  0  0  0  0
 22 26  1  6  0  0  0
 22 29  1  0  0  0  0
 22 24  1  0  0  0  0
 23 19  1  0  0  0  0
 24 19  1  6  0  0  0
 24 21  1  0  0  0  0
 25 23  1  0  0  0  0
 26 25  1  0  0  0  0
 27 20  1  0  0  0  0
 28 18  2  0  0  0  0
 28 29  1  0  0  0  0
 29 21  1  0  0  0  0
 30 27  2  0  0  0  0
 32 31  1  0  0  0  0
 32 33  1  0  0  0  0
 34 33  1  0  0  0  0
 34 35  1  0  0  0  0
 36 40  1  0  0  0  0
 36 41  2  1  0  0  0
 37 36  1  0  0  0  0
 38 37  1  0  0  0  0
 38 39  1  0  0  0  0
 38 42  1  1  0  0  0
 39 35  1  6  0  0  0
 40 39  1  0  0  0  0
 42 44  1  0  0  0  0
 43 42  2  0  0  0  0
 46 45  1  0  0  0  0
 46 36  1  0  0  0  0
 47 46  1  0  0  0  0
 48 49  1  0  0  0  0
 48 46  1  0  0  0  0
 50 51  1  0  0  0  0
 52 57  2  0  0  0  0
 53 54  1  0  0  0  0
 54 55  2  0  0  0  0
 55 60  1  0  0  0  0
 56 51  1  1  0  0  0
 56 52  1  0  0  0  0
 56 53  1  0  0  0  0
 57 54  1  0  0  0  0
 59 58  1  0  0  0  0
 60 59  1  0  0  0  0
 60 62  1  0  0  0  0
 60 58  1  0  0  0  0
 61 65  2  0  0  0  0
 61 62  1  0  0  0  0
 62 66  2  0  0  0  0
 64 67  2  0  0  0  0
 65 64  1  0  0  0  0
 66 67  1  0  0  0  0
 66 63  1  0  0  0  0
M  END
>  <MODEL>
8

>  <REMARK>
 VINA RESULT:      -4.8      2.513      4.272
  Name = 
  16 active torsions:
  status: ('A' for Active; 'I' for Inactive)
    1  A    between atoms: C_3  and  C_31
    2  A    between atoms: C_5  and  N_32
    3  A    between atoms: C_6  and  N_43
    4  A    between atoms: C_7  and  N_32
    5  A    between atoms: C_7  and  O_41
    6  A    between atoms: C_13  and  N_33
    7  A    between atoms: P_16  and  C_62
    8  A    between atoms: C_19  and  C_66
    9  A    between atoms: O_36  and  C_45
   10  A    between atoms: O_36  and  C_57
   11  A    between atoms: C_38  and  C_45
   12  A    between atoms: O_41  and  C_61
   13  A    between atoms: C_44  and  C_67
   14  A    between atoms: N_53  and  C_66
   15  A    between atoms: C_54  and  C_62
   16  A    between atoms: C_61  and  C_67
                            x       y       z     vdW  Elec       q    Type
                         _______ _______ _______ _____ _____    ______ ____

>  <TORSDO>
F 16

$$$$
=
 OpenBabel11042412153D

 67 76  0  0  1  0  0  0  0  0999 V2000
  187.5550  175.6900  135.6660 C   0  0  2  0  0  3  0  0  0  0  0  0
  188.9980  175.5690  136.1280 C   0  0  2  0  0  3  0  0  0  0  0  0
  187.3330  177.1650  135.8600 C   0  0  2  0  0  3  0  0  0  0  0  0
  184.7690  173.8630  137.7040 C   0  0  0  0  0  3  0  0  0  0  0  0
  183.3360  174.3530  137.8380 C   0  0  0  0  0  3  0  0  0  0  0  0
  185.4420  174.8570  136.8160 C   0  0  0  0  0  0  0  0  0  0  0  0
  183.2790  175.6210  137.0490 C   0  0  0  0  0  0  0  0  0  0  0  0
  185.0600  177.2240  136.8500 N   0  0  0  0  0  2  0  0  0  0  0  0
  188.2900  177.5840  136.9490 C   0  0  2  0  0  3  0  0  0  0  0  0
  184.5500  175.9560  136.3590 C   0  0  1  0  0  3  0  0  0  0  0  0
  182.2630  176.4350  137.0360 N   0  0  0  0  0  0  0  0  0  0  0  0
  186.7520  174.7770  136.5580 C   0  0  0  0  0  3  0  0  0  0  0  0
  185.9210  177.7630  135.8110 C   0  0  0  0  0  2  0  0  0  0  0  0
  189.3750  176.6850  136.9190 O   0  0  0  0  0  0  0  0  0  0  0  0
  180.9920  176.2030  137.6660 C   0  0  0  0  0  0  0  0  0  0  0  0
  180.8410  175.2370  138.4600 O   0  0  0  0  0  0  0  0  0  0  0  0
  179.8650  177.0370  137.3740 N   0  0  0  0  0  2  0  0  0  0  0  0
  179.8540  181.0080  134.8460 C   0  0  0  0  0  3  0  0  0  0  0  0
  179.9640  179.3170  139.9110 C   0  0  0  0  0  2  0  0  0  0  0  0
  179.8860  178.3300  136.7570 C   0  0  0  0  0  0  0  0  0  0  0  0
  180.3990  179.3440  137.4370 C   0  0  0  0  0  0  0  0  0  0  0  0
  181.2100  180.9560  138.4240 C   0  0  2  0  0  3  0  0  0  0  0  0
  178.9310  180.2650  139.8690 O   0  0  0  0  0  0  0  0  0  0  0  0
  180.9970  179.5590  138.7950 C   0  0  1  0  0  3  0  0  0  0  0  0
  179.5240  181.4560  140.2930 C   0  0  0  0  0  2  0  0  0  0  0  0
  180.3850  182.0280  139.1700 C   0  0  0  0  0  2  0  0  0  0  0  0
  179.4090  178.5180  135.3700 C   0  0  0  0  0  3  0  0  0  0  0  0
  180.4070  181.5270  135.9430 C   0  0  0  0  0  3  0  0  0  0  0  0
  180.6430  180.7530  137.1040 N   0  0  0  0  0  0  0  0  0  0  0  0
  179.3970  179.6160  134.5960 C   0  0  0  0  0  3  0  0  0  0  0  0
  189.9020  175.4430  134.9910 N   0  0  0  0  0  2  0  0  0  0  0  0
  191.0340  176.3330  135.1990 C   0  0  0  0  0  2  0  0  0  0  0  0
  192.2300  175.6840  134.8610 O   0  0  0  0  0  0  0  0  0  0  0  0
  193.0540  175.8280  135.9770 C   0  0  0  0  0  2  0  0  0  0  0  0
  194.4490  176.2610  135.5420 C   0  0  0  0  0  2  0  0  0  0  0  0
  196.9180  174.2750  137.5000 P   0  0  2  0  0  0  0  0  0  0  0  0
  195.7970  173.1220  137.0160 O   0  0  0  0  0  0  0  0  0  0  0  0
  194.8370  173.8970  136.3600 C   0  0  1  0  0  3  0  0  0  0  0  0
  195.4840  175.1650  135.7750 C   0  0  2  0  0  3  0  0  0  0  0  0
  196.5200  175.6320  136.5950 O   0  0  0  0  0  0  0  0  0  0  0  0
  198.3200  173.8190  137.1650 O   0  0  0  0  0  0  0  0  0  0  0  0
  194.1930  173.0960  135.2770 C   0  0  0  0  0  0  0  0  0  0  0  0
  194.7880  171.9250  134.8230 O   0  0  0  0  0  1  0  0  0  0  0  0
  193.1220  173.5000  134.7440 O   0  0  0  0  0  0  0  0  0  0  0  0
  196.0670  175.8250  139.4410 O   0  0  0  0  0  1  0  0  0  0  0  0
  196.7460  174.6180  139.2750 C   0  0  0  0  0  0  0  0  0  0  0  0
  196.0130  173.5880  139.8690 O   0  0  0  0  0  1  0  0  0  0  0  0
  198.1320  174.7050  139.9050 C   0  0  0  0  0  2  0  0  0  0  0  0
  198.1690  175.7060  141.0510 C   0  0  0  0  0  1  0  0  0  0  0  0
  187.6580  177.5490  138.3330 C   0  0  0  0  0  2  0  0  0  0  0  0
  187.8940  178.7660  138.9800 O   0  0  0  0  0  0  0  0  0  0  0  0
  189.0510  177.0230  140.1380 C   0  0  0  0  0  3  0  0  0  0  0  0
  188.7520  179.1620  141.0750 O   0  0  0  0  0  0  0  0  0  0  0  0
  188.5880  178.2540  142.0930 C   0  0  0  0  0  0  0  0  0  0  0  0
  188.3230  178.6320  143.3100 N   0  0  0  0  0  0  0  0  0  0  0  0
  188.9790  178.5240  139.8310 C   0  0  2  0  0  3  0  0  0  0  0  0
  188.7260  176.8560  141.6220 C   0  0  0  0  0  3  0  0  0  0  0  0
  187.0110  176.7780  144.4370 C   0  0  0  0  0  2  0  0  0  0  0  0
  186.8400  178.0280  145.3010 C   0  0  0  0  0  2  0  0  0  0  0  0
  188.1140  177.8130  144.5120 C   0  0  0  0  0  0  0  0  0  0  0  0
  190.5110  177.0980  144.6130 C   0  0  0  0  0  3  0  0  0  0  0  0
  189.3330  177.4370  145.2930 C   0  0  0  0  0  0  0  0  0  0  0  0
  188.2160  177.8630  147.3790 F   0  0  0  0  0  0  0  0  0  0  0  0
  191.6680  176.8390  146.7230 C   0  0  0  0  0  3  0  0  0  0  0  0
  191.6730  176.7930  145.3270 C   0  0  0  0  0  3  0  0  0  0  0  0
  189.3360  177.5020  146.7000 C   0  0  0  0  0  0  0  0  0  0  0  0
  190.5010  177.1960  147.4090 C   0  0  0  0  0  3  0  0  0  0  0  0
  1  3  1  0  0  0  0
  1  2  1  0  0  0  0
  1 12  1  1  0  0  0
  2 31  1  6  0  0  0
  2 14  1  0  0  0  0
  3 13  1  1  0  0  0
  3  9  1  0  0  0  0
  4  5  2  0  0  0  0
  6  4  1  0  0  0  0
  7  5  1  0  0  0  0
  9 50  1  1  0  0  0
 10  6  1  1  0  0  0
 10  8  1  0  0  0  0
 10  7  1  0  0  0  0
 11  7  2  0  0  0  0
 11 15  1  0  0  0  0
 12  6  2  0  0  0  0
 13  8  1  0  0  0  0
 14  9  1  0  0  0  0
 15 16  2  0  0  0  0
 17 15  1  0  0  0  0
 18 28  2  0  0  0  0
 20 17  1  0  0  0  0
 20 21  2  0  0  0  0
 21 24  1  0  0  0  0
 22 24  1  0  0  0  0
 22 26  1  1  0  0  0
 23 19  1  0  0  0  0
 23 25  1  0  0  0  0
 24 19  1  1  0  0  0
 26 25  1  0  0  0  0
 27 20  1  0  0  0  0
 28 29  1  0  0  0  0
 29 21  1  0  0  0  0
 29 22  1  0  0  0  0
 30 18  1  0  0  0  0
 30 27  2  0  0  0  0
 31 32  1  0  0  0  0
 33 32  1  0  0  0  0
 33 34  1  0  0  0  0
 35 34  1  0  0  0  0
 36 41  2  6  0  0  0
 36 46  1  0  0  0  0
 37 36  1  0  0  0  0
 38 42  1  6  0  0  0
 38 37  1  0  0  0  0
 39 35  1  1  0  0  0
 39 38  1  0  0  0  0
 39 40  1  0  0  0  0
 40 36  1  0  0  0  0
 43 42  1  0  0  0  0
 44 42  2  0  0  0  0
 46 45  1  0  0  0  0
 46 47  1  0  0  0  0
 46 48  1  0  0  0  0
 48 49  1  0  0  0  0
 50 51  1  0  0  0  0
 52 57  2  0  0  0  0
 53 54  1  0  0  0  0
 54 55  2  0  0  0  0
 55 60  1  0  0  0  0
 56 51  1  6  0  0  0
 56 52  1  0  0  0  0
 56 53  1  0  0  0  0
 57 54  1  0  0  0  0
 58 60  1  0  0  0  0
 58 59  1  0  0  0  0
 60 62  1  0  0  0  0
 60 59  1  0  0  0  0
 61 62  2  0  0  0  0
 61 65  1  0  0  0  0
 62 66  1  0  0  0  0
 64 67  1  0  0  0  0
 65 64  2  0  0  0  0
 66 63  1  0  0  0  0
 66 67  2  0  0  0  0
M  END
>  <MODEL>
9

>  <REMARK>
 VINA RESULT:      -4.8      1.993      2.950
  Name = 
  16 active torsions:
  status: ('A' for Active; 'I' for Inactive)
    1  A    between atoms: C_3  and  C_31
    2  A    between atoms: C_5  and  N_32
    3  A    between atoms: C_6  and  N_43
    4  A    between atoms: C_7  and  N_32
    5  A    between atoms: C_7  and  O_41
    6  A    between atoms: C_13  and  N_33
    7  A    between atoms: P_16  and  C_62
    8  A    between atoms: C_19  and  C_66
    9  A    between atoms: O_36  and  C_45
   10  A    between atoms: O_36  and  C_57
   11  A    between atoms: C_38  and  C_45
   12  A    between atoms: O_41  and  C_61
   13  A    between atoms: C_44  and  C_67
   14  A    between atoms: N_53  and  C_66
   15  A    between atoms: C_54  and  C_62
   16  A    between atoms: C_61  and  C_67
                            x       y       z     vdW  Elec       q    Type
                         _______ _______ _______ _____ _____    ______ ____

>  <TORSDO>
F 16

$$$$
