=
 OpenBabel11032419333D

 31 34  0  0  0  0  0  0  0  0999 V2000
  186.5760  178.2570  143.6140 C   0  0  0  0  0  0  0  0  0  0  0  0
  189.4200  178.0120  141.1440 C   0  0  0  0  0  0  0  0  0  0  0  0
  189.3750  177.8440  143.5890 C   0  0  0  0  0  0  0  0  0  0  0  0
  187.2260  178.0630  144.8410 C   0  0  0  0  0  0  0  0  0  0  0  0
  190.8920  177.8250  143.5790 C   0  0  0  0  0  2  0  0  0  0  0  0
  189.1040  178.2890  147.1040 O   0  0  0  0  0  0  0  0  0  0  0  0
  191.4920  177.4350  142.2560 C   0  0  0  0  0  3  0  0  0  0  0  0
  185.1960  178.4650  143.5670 C   0  0  0  0  0  3  0  0  0  0  0  0
  190.8230  177.5480  141.1090 C   0  0  0  0  0  0  0  0  0  0  0  0
  184.4410  178.4760  144.7500 C   0  0  0  0  0  0  0  0  0  0  0  0
  186.4650  178.0650  146.0210 C   0  0  0  0  0  3  0  0  0  0  0  0
  187.3160  178.2320  142.4320 O   0  0  0  0  0  0  0  0  0  0  0  0
  185.0830  178.2720  145.9740 C   0  0  0  0  0  3  0  0  0  0  0  0
  189.3470  177.5800  146.0890 C   0  0  0  0  0  0  0  0  0  0  0  0
  188.6560  177.8370  144.8490 N   0  0  0  0  0  0  0  0  0  0  0  0
  188.8360  178.3930  140.0960 O   0  0  0  0  0  0  0  0  0  0  0  0
  188.7030  178.0300  142.4310 C   0  0  0  0  0  0  0  0  0  0  0  0
  191.0010  176.3510  138.8660 C   0  0  0  0  0  0  0  0  0  0  0  0
  191.4970  177.2220  139.8880 N   0  0  0  0  0  2  0  0  0  0  0  0
  190.0400  175.5670  139.0970 O   0  0  0  0  0  0  0  0  0  0  0  0
  193.1990  176.3770  137.7100 C   0  0  0  0  0  2  0  0  0  0  0  0
  193.8710  176.2640  136.3450 C   0  0  0  0  0  2  0  0  0  0  0  0
  193.4810  175.0120  135.6960 N   0  0  0  0  0  2  0  0  0  0  0  0
  192.0450  175.0570  135.4240 C   0  0  0  0  0  2  0  0  0  0  0  0
  191.2650  175.0990  136.7360 C   0  0  0  0  0  2  0  0  0  0  0  0
  191.6810  176.3310  137.5380 C   0  0  0  0  0  3  0  0  0  0  0  0
  183.0590  178.6850  144.7380 O   0  0  0  0  0  0  0  0  0  0  0  0
  182.3450  179.0250  143.5570 C   0  0  0  0  0  1  0  0  0  0  0  0
  190.2710  176.4050  146.2130 C   0  0  0  0  0  2  0  0  0  0  0  0
  191.3260  176.6120  147.2910 C   0  0  0  0  0  2  0  0  0  0  0  0
  192.3870  175.6300  147.1550 N   0  0  0  0  0  1  0  0  0  0  0  0
  1  4  1  0  0  0  0
  2 17  1  0  0  0  0
  3 15  1  0  0  0  0
  4 15  1  0  0  0  0
  4 11  2  0  0  0  0
  5  3  1  0  0  0  0
  7  5  1  0  0  0  0
  8  1  2  0  0  0  0
  8 10  1  0  0  0  0
  9  2  1  0  0  0  0
  9  7  2  0  0  0  0
 10 13  2  0  0  0  0
 12  1  1  0  0  0  0
 13 11  1  0  0  0  0
 14 29  1  0  0  0  0
 14  6  2  0  0  0  0
 15 14  1  0  0  0  0
 16  2  2  0  0  0  0
 17 12  1  0  0  0  0
 17  3  2  0  0  0  0
 18 20  2  0  0  0  0
 18 19  1  0  0  0  0
 19  9  1  0  0  0  0
 22 21  1  0  0  0  0
 23 22  1  0  0  0  0
 24 23  1  0  0  0  0
 24 25  1  0  0  0  0
 25 26  1  0  0  0  0
 26 21  1  0  0  0  0
 26 18  1  0  0  0  0
 27 10  1  0  0  0  0
 28 27  1  0  0  0  0
 29 30  1  0  0  0  0
 31 30  1  0  0  0  0
M  END
>  <MODEL>
1

>  <REMARK>
 VINA RESULT:      -8.6      0.000      0.000
  Name = 
  5 active torsions:
  status: ('A' for Active; 'I' for Inactive)
    1  A    between atoms: C_3  and  C_23
    2  A    between atoms: C_3  and  C_24
    3  A    between atoms: O_8  and  C_17
    4  A    between atoms: C_9  and  C_31
    5  A    between atoms: N_11  and  C_15
                            x       y       z     vdW  Elec       q    Type
                         _______ _______ _______ _____ _____    ______ ____

>  <TORSDO>
F 5

$$$$
=
 OpenBabel11032419333D

 31 34  0  0  0  0  0  0  0  0999 V2000
  189.1120  177.4730  144.2570 C   0  0  0  0  0  0  0  0  0  0  0  0
  186.1020  178.5500  142.2530 C   0  0  0  0  0  0  0  0  0  0  0  0
  188.3730  177.9390  141.5660 C   0  0  0  0  0  0  0  0  0  0  0  0
  190.0780  177.2670  143.2620 C   0  0  0  0  0  0  0  0  0  0  0  0
  188.0280  178.3830  140.1580 C   0  0  0  0  0  2  0  0  0  0  0  0
  191.8590  177.6400  140.9400 O   0  0  0  0  0  0  0  0  0  0  0  0
  186.5510  178.4380  139.8760 C   0  0  0  0  0  3  0  0  0  0  0  0
  189.4230  177.2580  145.6020 C   0  0  0  0  0  3  0  0  0  0  0  0
  185.6450  178.5480  140.8470 C   0  0  0  0  0  0  0  0  0  0  0  0
  190.7060  176.8260  145.9720 C   0  0  0  0  0  0  0  0  0  0  0  0
  191.3580  176.8250  143.6370 C   0  0  0  0  0  3  0  0  0  0  0  0
  187.8310  177.8870  143.8970 O   0  0  0  0  0  0  0  0  0  0  0  0
  191.6680  176.6090  144.9820 C   0  0  0  0  0  3  0  0  0  0  0  0
  190.6700  177.2330  140.8250 C   0  0  0  0  0  0  0  0  0  0  0  0
  189.7170  177.4870  141.8780 N   0  0  0  0  0  0  0  0  0  0  0  0
  185.3370  178.9190  143.1830 O   0  0  0  0  0  0  0  0  0  0  0  0
  187.4760  178.1180  142.5610 C   0  0  0  0  0  0  0  0  0  0  0  0
  183.7370  179.5350  139.4740 C   0  0  0  0  0  0  0  0  0  0  0  0
  184.2640  178.6680  140.4840 N   0  0  0  0  0  2  0  0  0  0  0  0
  184.4290  180.4850  139.0150 O   0  0  0  0  0  0  0  0  0  0  0  0
  181.4560  178.8400  140.1670 C   0  0  0  0  0  2  0  0  0  0  0  0
  180.0060  178.7410  139.7000 C   0  0  0  0  0  2  0  0  0  0  0  0
  179.5320  180.0500  139.2530 N   0  0  0  0  0  2  0  0  0  0  0  0
  180.2990  180.4440  138.0720 C   0  0  0  0  0  2  0  0  0  0  0  0
  181.7670  180.6430  138.4420 C   0  0  0  0  0  2  0  0  0  0  0  0
  182.3290  179.3440  139.0190 C   0  0  0  0  0  3  0  0  0  0  0  0
  191.0480  176.6040  147.3090 O   0  0  0  0  0  0  0  0  0  0  0  0
  192.2060  175.8770  147.6940 C   0  0  0  0  0  1  0  0  0  0  0  0
  190.2880  176.3910  139.6440 C   0  0  0  0  0  2  0  0  0  0  0  0
  191.4350  176.2300  138.6550 C   0  0  0  0  0  2  0  0  0  0  0  0
  191.3870  174.9180  138.0350 N   0  0  0  0  0  1  0  0  0  0  0  0
  1  8  1  0  0  0  0
  2 17  1  0  0  0  0
  2 16  2  0  0  0  0
  3 15  1  0  0  0  0
  3 17  2  0  0  0  0
  4 11  1  0  0  0  0
  4  1  2  0  0  0  0
  5  3  1  0  0  0  0
  7  5  1  0  0  0  0
  7  9  2  0  0  0  0
  8 10  2  0  0  0  0
  9  2  1  0  0  0  0
 10 27  1  0  0  0  0
 11 13  2  0  0  0  0
 12  1  1  0  0  0  0
 13 10  1  0  0  0  0
 14  6  2  0  0  0  0
 14 15  1  0  0  0  0
 15  4  1  0  0  0  0
 17 12  1  0  0  0  0
 18 19  1  0  0  0  0
 19  9  1  0  0  0  0
 20 18  2  0  0  0  0
 22 21  1  0  0  0  0
 23 22  1  0  0  0  0
 24 25  1  0  0  0  0
 24 23  1  0  0  0  0
 25 26  1  0  0  0  0
 26 18  1  0  0  0  0
 26 21  1  0  0  0  0
 27 28  1  0  0  0  0
 29 14  1  0  0  0  0
 30 29  1  0  0  0  0
 31 30  1  0  0  0  0
M  END
>  <MODEL>
2

>  <REMARK>
 VINA RESULT:      -8.4      3.579      7.904
  Name = 
  5 active torsions:
  status: ('A' for Active; 'I' for Inactive)
    1  A    between atoms: C_3  and  C_23
    2  A    between atoms: C_3  and  C_24
    3  A    between atoms: O_8  and  C_17
    4  A    between atoms: C_9  and  C_31
    5  A    between atoms: N_11  and  C_15
                            x       y       z     vdW  Elec       q    Type
                         _______ _______ _______ _____ _____    ______ ____

>  <TORSDO>
F 5

$$$$
=
 OpenBabel11032419333D

 31 34  0  0  0  0  0  0  0  0999 V2000
  189.3710  177.1060  145.8020 C   0  0  0  0  0  0  0  0  0  0  0  0
  185.9840  178.1110  144.4750 C   0  0  0  0  0  0  0  0  0  0  0  0
  188.1390  177.8000  143.3510 C   0  0  0  0  0  0  0  0  0  0  0  0
  190.1600  177.1080  144.6420 C   0  0  0  0  0  0  0  0  0  0  0  0
  187.5200  178.3650  142.0870 C   0  0  0  0  0  2  0  0  0  0  0  0
  191.4730  177.9070  142.1250 O   0  0  0  0  0  0  0  0  0  0  0  0
  186.0170  178.3110  142.0620 C   0  0  0  0  0  3  0  0  0  0  0  0
  189.9280  176.7720  147.0380 C   0  0  0  0  0  3  0  0  0  0  0  0
  185.2900  178.2240  143.1750 C   0  0  0  0  0  0  0  0  0  0  0  0
  191.2840  176.4250  147.1330 C   0  0  0  0  0  0  0  0  0  0  0  0
  191.5150  176.7500  144.7410 C   0  0  0  0  0  3  0  0  0  0  0  0
  188.0190  177.4350  145.7130 O   0  0  0  0  0  0  0  0  0  0  0  0
  192.0720  176.4140  145.9790 C   0  0  0  0  0  3  0  0  0  0  0  0
  190.3170  177.4050  142.1570 C   0  0  0  0  0  0  0  0  0  0  0  0
  189.5460  177.4460  143.3760 N   0  0  0  0  0  0  0  0  0  0  0  0
  185.3690  178.2980  145.5580 O   0  0  0  0  0  0  0  0  0  0  0  0
  187.4190  177.7800  144.4950 C   0  0  0  0  0  0  0  0  0  0  0  0
  183.0220  179.3770  143.3440 C   0  0  0  0  0  0  0  0  0  0  0  0
  183.8610  178.2510  143.0630 N   0  0  0  0  0  2  0  0  0  0  0  0
  183.4630  180.3630  143.9960 O   0  0  0  0  0  0  0  0  0  0  0  0
  181.4570  178.6430  141.5610 C   0  0  0  0  0  2  0  0  0  0  0  0
  179.9810  178.5380  141.1880 C   0  0  0  0  0  2  0  0  0  0  0  0
  179.2570  177.7850  142.2110 N   0  0  0  0  0  2  0  0  0  0  0  0
  179.2930  178.5440  143.4610 C   0  0  0  0  0  2  0  0  0  0  0  0
  180.7290  178.6500  143.9680 C   0  0  0  0  0  2  0  0  0  0  0  0
  181.5940  179.3400  142.9140 C   0  0  0  0  0  3  0  0  0  0  0  0
  191.8720  176.0880  148.3560 O   0  0  0  0  0  0  0  0  0  0  0  0
  193.2230  175.6640  148.4670 C   0  0  0  0  0  1  0  0  0  0  0  0
  189.7970  176.6690  140.9570 C   0  0  0  0  0  2  0  0  0  0  0  0
  190.5480  177.0380  139.6850 C   0  0  0  0  0  2  0  0  0  0  0  0
  190.9260  175.8410  138.9560 N   0  0  0  0  0  1  0  0  0  0  0  0
  1  8  1  0  0  0  0
  2 17  1  0  0  0  0
  2 16  2  0  0  0  0
  3 15  1  0  0  0  0
  3 17  2  0  0  0  0
  4 11  1  0  0  0  0
  4  1  2  0  0  0  0
  5  3  1  0  0  0  0
  6 14  2  0  0  0  0
  7  5  1  0  0  0  0
  7  9  2  0  0  0  0
  8 10  2  0  0  0  0
  9  2  1  0  0  0  0
 10 27  1  0  0  0  0
 11 13  2  0  0  0  0
 12  1  1  0  0  0  0
 13 10  1  0  0  0  0
 14 15  1  0  0  0  0
 15  4  1  0  0  0  0
 17 12  1  0  0  0  0
 18 20  2  0  0  0  0
 19  9  1  0  0  0  0
 19 18  1  0  0  0  0
 21 26  1  0  0  0  0
 22 21  1  0  0  0  0
 22 23  1  0  0  0  0
 23 24  1  0  0  0  0
 24 25  1  0  0  0  0
 26 18  1  0  0  0  0
 26 25  1  0  0  0  0
 27 28  1  0  0  0  0
 29 14  1  0  0  0  0
 30 29  1  0  0  0  0
 31 30  1  0  0  0  0
M  END
>  <MODEL>
3

>  <REMARK>
 VINA RESULT:      -8.4      2.686      8.538
  Name = 
  5 active torsions:
  status: ('A' for Active; 'I' for Inactive)
    1  A    between atoms: C_3  and  C_23
    2  A    between atoms: C_3  and  C_24
    3  A    between atoms: O_8  and  C_17
    4  A    between atoms: C_9  and  C_31
    5  A    between atoms: N_11  and  C_15
                            x       y       z     vdW  Elec       q    Type
                         _______ _______ _______ _____ _____    ______ ____

>  <TORSDO>
F 5

$$$$
=
 OpenBabel11032419333D

 31 34  0  0  0  0  0  0  0  0999 V2000
  192.0130  176.3590  138.1450 C   0  0  0  0  0  0  0  0  0  0  0  0
  190.7540  177.5270  141.5060 C   0  0  0  0  0  0  0  0  0  0  0  0
  189.7040  177.5270  139.2910 C   0  0  0  0  0  0  0  0  0  0  0  0
  190.9230  176.6320  137.3050 C   0  0  0  0  0  0  0  0  0  0  0  0
  188.5590  178.3320  139.8740 C   0  0  0  0  0  2  0  0  0  0  0  0
  188.7070  177.9910  135.9120 O   0  0  0  0  0  0  0  0  0  0  0  0
  188.4440  178.2410  141.3720 C   0  0  0  0  0  3  0  0  0  0  0  0
  193.1770  175.7830  137.6320 C   0  0  0  0  0  3  0  0  0  0  0  0
  189.4730  177.8960  142.1450 C   0  0  0  0  0  0  0  0  0  0  0  0
  193.2680  175.4640  136.2690 C   0  0  0  0  0  0  0  0  0  0  0  0
  191.0150  176.3010  135.9430 C   0  0  0  0  0  3  0  0  0  0  0  0
  191.9250  176.6600  139.5040 O   0  0  0  0  0  0  0  0  0  0  0  0
  192.1810  175.7230  135.4300 C   0  0  0  0  0  3  0  0  0  0  0  0
  188.5700  177.4600  137.0480 C   0  0  0  0  0  0  0  0  0  0  0  0
  189.7280  177.2170  137.8740 N   0  0  0  0  0  0  0  0  0  0  0  0
  191.8170  177.4590  142.1760 O   0  0  0  0  0  0  0  0  0  0  0  0
  190.7780  177.2410  140.0610 C   0  0  0  0  0  0  0  0  0  0  0  0
  188.4480  177.0210  144.3090 C   0  0  0  0  0  0  0  0  0  0  0  0
  189.2940  177.9050  143.5670 N   0  0  0  0  0  2  0  0  0  0  0  0
  187.5610  176.3380  143.7260 O   0  0  0  0  0  0  0  0  0  0  0  0
  189.9780  177.4100  146.2250 C   0  0  0  0  0  2  0  0  0  0  0  0
  190.0590  177.4330  147.7490 C   0  0  0  0  0  2  0  0  0  0  0  0
  189.0570  178.3500  148.2900 N   0  0  0  0  0  2  0  0  0  0  0  0
  187.7280  177.8260  147.9750 C   0  0  0  0  0  2  0  0  0  0  0  0
  187.5100  177.8250  146.4640 C   0  0  0  0  0  2  0  0  0  0  0  0
  188.5810  176.9670  145.7940 C   0  0  0  0  0  3  0  0  0  0  0  0
  194.4200  174.8890  135.7250 O   0  0  0  0  0  0  0  0  0  0  0  0
  195.6180  174.7210  136.4690 C   0  0  0  0  0  1  0  0  0  0  0  0
  187.2160  176.9840  137.4830 C   0  0  0  0  0  2  0  0  0  0  0  0
  186.1060  177.9340  137.0530 C   0  0  0  0  0  2  0  0  0  0  0  0
  185.6190  178.6910  138.1920 N   0  0  0  0  0  1  0  0  0  0  0  0
  1 12  1  0  0  0  0
  2  9  1  0  0  0  0
  2 16  2  0  0  0  0
  3  5  1  0  0  0  0
  3 17  2  0  0  0  0
  4 15  1  0  0  0  0
  4  1  2  0  0  0  0
  5  7  1  0  0  0  0
  6 14  2  0  0  0  0
  7  9  2  0  0  0  0
  8  1  1  0  0  0  0
  9 19  1  0  0  0  0
 10  8  2  0  0  0  0
 11  4  1  0  0  0  0
 12 17  1  0  0  0  0
 13 11  2  0  0  0  0
 13 10  1  0  0  0  0
 14 29  1  0  0  0  0
 14 15  1  0  0  0  0
 15  3  1  0  0  0  0
 17  2  1  0  0  0  0
 18 26  1  0  0  0  0
 19 18  1  0  0  0  0
 20 18  2  0  0  0  0
 21 22  1  0  0  0  0
 22 23  1  0  0  0  0
 24 23  1  0  0  0  0
 25 24  1  0  0  0  0
 26 21  1  0  0  0  0
 26 25  1  0  0  0  0
 27 10  1  0  0  0  0
 27 28  1  0  0  0  0
 30 29  1  0  0  0  0
 30 31  1  0  0  0  0
M  END
>  <MODEL>
4

>  <REMARK>
 VINA RESULT:      -8.3      2.671      9.451
  Name = 
  5 active torsions:
  status: ('A' for Active; 'I' for Inactive)
    1  A    between atoms: C_3  and  C_23
    2  A    between atoms: C_3  and  C_24
    3  A    between atoms: O_8  and  C_17
    4  A    between atoms: C_9  and  C_31
    5  A    between atoms: N_11  and  C_15
                            x       y       z     vdW  Elec       q    Type
                         _______ _______ _______ _____ _____    ______ ____

>  <TORSDO>
F 5

$$$$
=
 OpenBabel11032419333D

 31 34  0  0  0  0  0  0  0  0999 V2000
  188.3640  178.0370  141.3570 C   0  0  0  0  0  0  0  0  0  0  0  0
  185.1600  178.9550  139.5870 C   0  0  0  0  0  0  0  0  0  0  0  0
  185.6130  178.3800  141.9260 C   0  0  0  0  0  0  0  0  0  0  0  0
  187.9320  177.8390  142.6770 C   0  0  0  0  0  0  0  0  0  0  0  0
  184.1170  178.3690  142.1760 C   0  0  0  0  0  2  0  0  0  0  0  0
  186.4490  176.9030  145.0480 O   0  0  0  0  0  0  0  0  0  0  0  0
  183.3180  179.1270  141.1500 C   0  0  0  0  0  3  0  0  0  0  0  0
  189.7110  177.8820  141.0200 C   0  0  0  0  0  3  0  0  0  0  0  0
  183.7850  179.3780  139.9280 C   0  0  0  0  0  0  0  0  0  0  0  0
  190.6500  177.5310  142.0020 C   0  0  0  0  0  0  0  0  0  0  0  0
  188.8780  177.4980  143.6580 C   0  0  0  0  0  3  0  0  0  0  0  0
  187.4390  178.4010  140.3790 O   0  0  0  0  0  0  0  0  0  0  0  0
  190.2260  177.3430  143.3210 C   0  0  0  0  0  3  0  0  0  0  0  0
  186.0630  177.8790  144.3480 C   0  0  0  0  0  0  0  0  0  0  0  0
  186.5310  178.0220  142.9910 N   0  0  0  0  0  0  0  0  0  0  0  0
  185.5490  178.9200  138.3910 O   0  0  0  0  0  0  0  0  0  0  0  0
  186.0790  178.5650  140.6700 C   0  0  0  0  0  0  0  0  0  0  0  0
  181.7280  179.5020  138.4270 C   0  0  0  0  0  0  0  0  0  0  0  0
  182.9270  180.0430  138.9910 N   0  0  0  0  0  2  0  0  0  0  0  0
  181.4820  178.2670  138.4960 O   0  0  0  0  0  0  0  0  0  0  0  0
  181.1710  181.8730  137.9390 C   0  0  0  0  0  2  0  0  0  0  0  0
  180.2660  182.7770  137.1070 C   0  0  0  0  0  2  0  0  0  0  0  0
  180.4110  182.4600  135.6860 N   0  0  0  0  0  2  0  0  0  0  0  0
  179.9230  181.1000  135.4610 C   0  0  0  0  0  2  0  0  0  0  0  0
  180.8070  180.0970  136.1970 C   0  0  0  0  0  2  0  0  0  0  0  0
  180.8000  180.4110  137.6920 C   0  0  0  0  0  3  0  0  0  0  0  0
  192.0040  177.3650  141.6970 O   0  0  0  0  0  0  0  0  0  0  0  0
  192.5150  177.5010  140.3790 C   0  0  0  0  0  1  0  0  0  0  0  0
  185.2090  178.9430  144.9720 C   0  0  0  0  0  2  0  0  0  0  0  0
  184.8460  178.6190  146.4150 C   0  0  0  0  0  2  0  0  0  0  0  0
  185.6810  179.3800  147.3280 N   0  0  0  0  0  1  0  0  0  0  0  0
  1  4  1  0  0  0  0
  2  9  1  0  0  0  0
  2 17  1  0  0  0  0
  3  5  1  0  0  0  0
  3 15  1  0  0  0  0
  4 15  1  0  0  0  0
  4 11  2  0  0  0  0
  7  5  1  0  0  0  0
  8  1  2  0  0  0  0
  8 10  1  0  0  0  0
  9  7  2  0  0  0  0
 10 13  2  0  0  0  0
 12 17  1  0  0  0  0
 12  1  1  0  0  0  0
 13 11  1  0  0  0  0
 14 29  1  0  0  0  0
 14  6  2  0  0  0  0
 15 14  1  0  0  0  0
 16  2  2  0  0  0  0
 17  3  2  0  0  0  0
 18 20  2  0  0  0  0
 18 19  1  0  0  0  0
 19  9  1  0  0  0  0
 22 21  1  0  0  0  0
 23 22  1  0  0  0  0
 24 23  1  0  0  0  0
 24 25  1  0  0  0  0
 25 26  1  0  0  0  0
 26 21  1  0  0  0  0
 26 18  1  0  0  0  0
 27 10  1  0  0  0  0
 28 27  1  0  0  0  0
 29 30  1  0  0  0  0
 30 31  1  0  0  0  0
M  END
>  <MODEL>
5

>  <REMARK>
 VINA RESULT:      -7.9      4.782      8.226
  Name = 
  5 active torsions:
  status: ('A' for Active; 'I' for Inactive)
    1  A    between atoms: C_3  and  C_23
    2  A    between atoms: C_3  and  C_24
    3  A    between atoms: O_8  and  C_17
    4  A    between atoms: C_9  and  C_31
    5  A    between atoms: N_11  and  C_15
                            x       y       z     vdW  Elec       q    Type
                         _______ _______ _______ _____ _____    ______ ____

>  <TORSDO>
F 5

$$$$
=
 OpenBabel11032419333D

 31 34  0  0  0  0  0  0  0  0999 V2000
  184.0930  178.6920  141.8940 C   0  0  0  0  0  0  0  0  0  0  0  0
  187.2990  178.2570  139.9490 C   0  0  0  0  0  0  0  0  0  0  0  0
  186.8570  178.3000  142.3590 C   0  0  0  0  0  0  0  0  0  0  0  0
  184.5350  178.6090  143.2220 C   0  0  0  0  0  0  0  0  0  0  0  0
  188.3550  178.2920  142.5970 C   0  0  0  0  0  2  0  0  0  0  0  0
  186.0210  179.0430  145.7320 O   0  0  0  0  0  0  0  0  0  0  0  0
  189.1600  177.7940  141.4280 C   0  0  0  0  0  3  0  0  0  0  0  0
  182.7400  178.8840  141.6060 C   0  0  0  0  0  3  0  0  0  0  0  0
  188.6860  177.8030  140.1830 C   0  0  0  0  0  0  0  0  0  0  0  0
  181.8040  178.9910  142.6450 C   0  0  0  0  0  0  0  0  0  0  0  0
  183.5920  178.7060  144.2590 C   0  0  0  0  0  3  0  0  0  0  0  0
  185.0160  178.5710  140.8540 O   0  0  0  0  0  0  0  0  0  0  0  0
  182.2370  178.8980  143.9710 C   0  0  0  0  0  3  0  0  0  0  0  0
  186.4210  178.2520  144.8350 C   0  0  0  0  0  0  0  0  0  0  0  0
  185.9420  178.3950  143.4820 N   0  0  0  0  0  0  0  0  0  0  0  0
  186.8960  178.5420  138.7910 O   0  0  0  0  0  0  0  0  0  0  0  0
  186.3820  178.3810  141.0960 C   0  0  0  0  0  0  0  0  0  0  0  0
  190.9440  177.0860  139.2410 C   0  0  0  0  0  0  0  0  0  0  0  0
  189.5480  177.3790  139.1190 N   0  0  0  0  0  2  0  0  0  0  0  0
  191.5950  177.4600  140.2550 O   0  0  0  0  0  0  0  0  0  0  0  0
  193.1490  176.3790  138.3450 C   0  0  0  0  0  2  0  0  0  0  0  0
  193.8260  175.5830  137.2330 C   0  0  0  0  0  2  0  0  0  0  0  0
  193.3170  174.2120  137.2150 N   0  0  0  0  0  2  0  0  0  0  0  0
  191.8980  174.2480  136.8650 C   0  0  0  0  0  2  0  0  0  0  0  0
  191.1060  174.9660  137.9550 C   0  0  0  0  0  2  0  0  0  0  0  0
  191.6380  176.3890  138.1190 C   0  0  0  0  0  3  0  0  0  0  0  0
  180.4430  179.1870  142.3910 O   0  0  0  0  0  0  0  0  0  0  0  0
  179.7380  180.3380  142.8330 C   0  0  0  0  0  1  0  0  0  0  0  0
  187.3060  177.0990  145.2080 C   0  0  0  0  0  2  0  0  0  0  0  0
  188.2100  177.4250  146.3890 C   0  0  0  0  0  2  0  0  0  0  0  0
  189.5590  177.7050  145.9290 N   0  0  0  0  0  1  0  0  0  0  0  0
  1  4  1  0  0  0  0
  2  9  1  0  0  0  0
  2 17  1  0  0  0  0
  3  5  1  0  0  0  0
  3 15  1  0  0  0  0
  4 15  1  0  0  0  0
  4 11  2  0  0  0  0
  7  5  1  0  0  0  0
  8  1  2  0  0  0  0
  8 10  1  0  0  0  0
  9  7  2  0  0  0  0
 10 13  2  0  0  0  0
 12 17  1  0  0  0  0
 12  1  1  0  0  0  0
 13 11  1  0  0  0  0
 14 29  1  0  0  0  0
 14  6  2  0  0  0  0
 15 14  1  0  0  0  0
 16  2  2  0  0  0  0
 17  3  2  0  0  0  0
 18 20  2  0  0  0  0
 19 18  1  0  0  0  0
 19  9  1  0  0  0  0
 22 21  1  0  0  0  0
 23 22  1  0  0  0  0
 24 23  1  0  0  0  0
 24 25  1  0  0  0  0
 25 26  1  0  0  0  0
 26 21  1  0  0  0  0
 26 18  1  0  0  0  0
 27 10  1  0  0  0  0
 27 28  1  0  0  0  0
 29 30  1  0  0  0  0
 31 30  1  0  0  0  0
M  END
>  <MODEL>
6

>  <REMARK>
 VINA RESULT:      -7.9      1.953      2.725
  Name = 
  5 active torsions:
  status: ('A' for Active; 'I' for Inactive)
    1  A    between atoms: C_3  and  C_23
    2  A    between atoms: C_3  and  C_24
    3  A    between atoms: O_8  and  C_17
    4  A    between atoms: C_9  and  C_31
    5  A    between atoms: N_11  and  C_15
                            x       y       z     vdW  Elec       q    Type
                         _______ _______ _______ _____ _____    ______ ____

>  <TORSDO>
F 5

$$$$
=
 OpenBabel11032419333D

 31 34  0  0  0  0  0  0  0  0999 V2000
  189.6220  177.3440  144.9790 C   0  0  0  0  0  0  0  0  0  0  0  0
  188.4370  177.4770  141.3980 C   0  0  0  0  0  0  0  0  0  0  0  0
  187.2490  177.8230  143.5130 C   0  0  0  0  0  0  0  0  0  0  0  0
  188.4520  177.6430  145.6930 C   0  0  0  0  0  0  0  0  0  0  0  0
  185.9500  177.8780  142.7320 C   0  0  0  0  0  2  0  0  0  0  0  0
  185.6780  177.6300  146.6950 O   0  0  0  0  0  0  0  0  0  0  0  0
  186.1250  178.1850  141.2700 C   0  0  0  0  0  3  0  0  0  0  0  0
  190.8210  177.0990  145.6510 C   0  0  0  0  0  3  0  0  0  0  0  0
  187.2740  177.9710  140.6310 C   0  0  0  0  0  0  0  0  0  0  0  0
  190.8710  177.1560  147.0520 C   0  0  0  0  0  0  0  0  0  0  0  0
  188.5110  177.7090  147.0950 C   0  0  0  0  0  3  0  0  0  0  0  0
  189.5830  177.3000  143.5850 O   0  0  0  0  0  0  0  0  0  0  0  0
  189.7120  177.4650  147.7680 C   0  0  0  0  0  3  0  0  0  0  0  0
  186.0240  178.2680  145.6630 C   0  0  0  0  0  0  0  0  0  0  0  0
  187.2310  177.9050  144.9620 N   0  0  0  0  0  0  0  0  0  0  0  0
  189.4470  177.0060  140.8120 O   0  0  0  0  0  0  0  0  0  0  0  0
  188.4020  177.5350  142.8690 C   0  0  0  0  0  0  0  0  0  0  0  0
  188.4660  178.7230  138.5060 C   0  0  0  0  0  0  0  0  0  0  0  0
  187.3300  178.2240  139.2210 N   0  0  0  0  0  2  0  0  0  0  0  0
  189.4300  179.2580  139.1190 O   0  0  0  0  0  0  0  0  0  0  0  0
  189.4420  177.6030  136.5160 C   0  0  0  0  0  2  0  0  0  0  0  0
  189.3540  177.5030  134.9960 C   0  0  0  0  0  2  0  0  0  0  0  0
  187.9920  177.1540  134.5940 N   0  0  0  0  0  2  0  0  0  0  0  0
  187.1020  178.2520  134.9660 C   0  0  0  0  0  2  0  0  0  0  0  0
  187.0560  178.3980  136.4860 C   0  0  0  0  0  2  0  0  0  0  0  0
  188.4640  178.6660  137.0150 C   0  0  0  0  0  3  0  0  0  0  0  0
  192.0550  176.9130  147.7550 O   0  0  0  0  0  0  0  0  0  0  0  0
  192.5510  175.6040  147.9940 C   0  0  0  0  0  1  0  0  0  0  0  0
  185.2350  179.4710  145.2400 C   0  0  0  0  0  2  0  0  0  0  0  0
  183.7480  179.1690  145.1100 C   0  0  0  0  0  2  0  0  0  0  0  0
  183.2190  179.7500  143.8890 N   0  0  0  0  0  1  0  0  0  0  0  0
  1  8  2  0  0  0  0
  1  4  1  0  0  0  0
  2 17  1  0  0  0  0
  3 15  1  0  0  0  0
  4 11  2  0  0  0  0
  5  3  1  0  0  0  0
  7  5  1  0  0  0  0
  8 10  1  0  0  0  0
  9  7  2  0  0  0  0
  9  2  1  0  0  0  0
 10 27  1  0  0  0  0
 10 13  2  0  0  0  0
 11 13  1  0  0  0  0
 12  1  1  0  0  0  0
 14  6  2  0  0  0  0
 15 14  1  0  0  0  0
 15  4  1  0  0  0  0
 16  2  2  0  0  0  0
 17  3  2  0  0  0  0
 17 12  1  0  0  0  0
 18 20  2  0  0  0  0
 18 19  1  0  0  0  0
 19  9  1  0  0  0  0
 21 26  1  0  0  0  0
 22 21  1  0  0  0  0
 23 24  1  0  0  0  0
 23 22  1  0  0  0  0
 24 25  1  0  0  0  0
 25 26  1  0  0  0  0
 26 18  1  0  0  0  0
 27 28  1  0  0  0  0
 29 14  1  0  0  0  0
 30 29  1  0  0  0  0
 31 30  1  0  0  0  0
M  END
>  <MODEL>
7

>  <REMARK>
 VINA RESULT:      -7.8      2.867      5.354
  Name = 
  5 active torsions:
  status: ('A' for Active; 'I' for Inactive)
    1  A    between atoms: C_3  and  C_23
    2  A    between atoms: C_3  and  C_24
    3  A    between atoms: O_8  and  C_17
    4  A    between atoms: C_9  and  C_31
    5  A    between atoms: N_11  and  C_15
                            x       y       z     vdW  Elec       q    Type
                         _______ _______ _______ _____ _____    ______ ____

>  <TORSDO>
F 5

$$$$
=
 OpenBabel11032419333D

 31 34  0  0  0  0  0  0  0  0999 V2000
  183.2850  178.7800  139.5450 C   0  0  0  0  0  0  0  0  0  0  0  0
  186.2080  178.4330  141.9080 C   0  0  0  0  0  0  0  0  0  0  0  0
  183.8400  178.9180  142.3170 C   0  0  0  0  0  0  0  0  0  0  0  0
  182.2220  179.0490  140.4200 C   0  0  0  0  0  0  0  0  0  0  0  0
  184.1840  179.1880  143.7690 C   0  0  0  0  0  2  0  0  0  0  0  0
  180.5430  180.2250  142.5410 O   0  0  0  0  0  0  0  0  0  0  0  0
  185.4860  178.5810  144.2150 C   0  0  0  0  0  3  0  0  0  0  0  0
  183.0680  178.7010  138.1680 C   0  0  0  0  0  3  0  0  0  0  0  0
  186.4500  178.2540  143.3550 C   0  0  0  0  0  0  0  0  0  0  0  0
  181.7800  178.8820  137.6430 C   0  0  0  0  0  0  0  0  0  0  0  0
  180.9330  179.2200  139.8900 C   0  0  0  0  0  3  0  0  0  0  0  0
  184.5660  178.5830  140.0610 O   0  0  0  0  0  0  0  0  0  0  0  0
  180.7150  179.1390  138.5120 C   0  0  0  0  0  3  0  0  0  0  0  0
  181.4020  179.3310  142.7730 C   0  0  0  0  0  0  0  0  0  0  0  0
  182.4820  179.1100  141.8420 N   0  0  0  0  0  0  0  0  0  0  0  0
  187.1580  178.4020  141.0820 O   0  0  0  0  0  0  0  0  0  0  0  0
  184.8310  178.6570  141.4340 C   0  0  0  0  0  0  0  0  0  0  0  0
  188.0630  177.7150  145.2550 C   0  0  0  0  0  0  0  0  0  0  0  0
  187.6870  177.7490  143.8740 N   0  0  0  0  0  2  0  0  0  0  0  0
  187.4380  178.4010  146.1100 O   0  0  0  0  0  0  0  0  0  0  0  0
  190.4320  177.1830  144.7330 C   0  0  0  0  0  2  0  0  0  0  0  0
  191.6570  176.4170  145.2240 C   0  0  0  0  0  2  0  0  0  0  0  0
  191.9910  176.8280  146.5880 N   0  0  0  0  0  2  0  0  0  0  0  0
  190.8980  176.4310  147.4740 C   0  0  0  0  0  2  0  0  0  0  0  0
  189.6270  177.1970  147.1150 C   0  0  0  0  0  2  0  0  0  0  0  0
  189.2510  176.9090  145.6620 C   0  0  0  0  0  3  0  0  0  0  0  0
  181.5300  178.8120  136.2690 O   0  0  0  0  0  0  0  0  0  0  0  0
  180.3320  179.3000  135.6810 C   0  0  0  0  0  1  0  0  0  0  0  0
  181.2290  178.4310  143.9600 C   0  0  0  0  0  2  0  0  0  0  0  0
  179.8270  177.8420  144.0380 C   0  0  0  0  0  2  0  0  0  0  0  0
  178.9310  178.7620  144.7160 N   0  0  0  0  0  1  0  0  0  0  0  0
  1 12  1  0  0  0  0
  1  4  1  0  0  0  0
  2  9  1  0  0  0  0
  3  5  1  0  0  0  0
  4 15  1  0  0  0  0
  5  7  1  0  0  0  0
  6 14  2  0  0  0  0
  8  1  2  0  0  0  0
  9 19  1  0  0  0  0
  9  7  2  0  0  0  0
 10  8  1  0  0  0  0
 10 13  2  0  0  0  0
 11  4  2  0  0  0  0
 12 17  1  0  0  0  0
 13 11  1  0  0  0  0
 14 29  1  0  0  0  0
 15  3  1  0  0  0  0
 15 14  1  0  0  0  0
 16  2  2  0  0  0  0
 17  2  1  0  0  0  0
 17  3  2  0  0  0  0
 18 26  1  0  0  0  0
 18 20  2  0  0  0  0
 19 18  1  0  0  0  0
 21 22  1  0  0  0  0
 21 26  1  0  0  0  0
 22 23  1  0  0  0  0
 23 24  1  0  0  0  0
 25 24  1  0  0  0  0
 26 25  1  0  0  0  0
 27 10  1  0  0  0  0
 28 27  1  0  0  0  0
 29 30  1  0  0  0  0
 30 31  1  0  0  0  0
M  END
>  <MODEL>
8

>  <REMARK>
 VINA RESULT:      -7.6      4.481      8.119
  Name = 
  5 active torsions:
  status: ('A' for Active; 'I' for Inactive)
    1  A    between atoms: C_3  and  C_23
    2  A    between atoms: C_3  and  C_24
    3  A    between atoms: O_8  and  C_17
    4  A    between atoms: C_9  and  C_31
    5  A    between atoms: N_11  and  C_15
                            x       y       z     vdW  Elec       q    Type
                         _______ _______ _______ _____ _____    ______ ____

>  <TORSDO>
F 5

$$$$
=
 OpenBabel11032419333D

 31 34  0  0  0  0  0  0  0  0999 V2000
  183.1280  178.2360  138.8090 C   0  0  0  0  0  0  0  0  0  0  0  0
  185.1360  178.4950  141.9930 C   0  0  0  0  0  0  0  0  0  0  0  0
  182.7360  178.7430  141.5650 C   0  0  0  0  0  0  0  0  0  0  0  0
  181.8210  178.4740  139.2580 C   0  0  0  0  0  0  0  0  0  0  0  0
  182.5660  179.2100  142.9980 C   0  0  0  0  0  2  0  0  0  0  0  0
  179.4590  179.6730  140.5550 O   0  0  0  0  0  0  0  0  0  0  0  0
  183.6930  178.8110  143.9120 C   0  0  0  0  0  3  0  0  0  0  0  0
  183.3790  177.9810  137.4580 C   0  0  0  0  0  3  0  0  0  0  0  0
  184.9060  178.5060  143.4530 C   0  0  0  0  0  0  0  0  0  0  0  0
  182.3230  177.9520  136.5350 C   0  0  0  0  0  0  0  0  0  0  0  0
  180.7660  178.4340  138.3310 C   0  0  0  0  0  3  0  0  0  0  0  0
  184.1820  178.2480  139.7220 O   0  0  0  0  0  0  0  0  0  0  0  0
  181.0170  178.1770  136.9800 C   0  0  0  0  0  3  0  0  0  0  0  0
  180.2590  178.9170  141.1690 C   0  0  0  0  0  0  0  0  0  0  0  0
  181.5970  178.7220  140.6660 N   0  0  0  0  0  0  0  0  0  0  0  0
  186.3040  178.4840  141.5210 O   0  0  0  0  0  0  0  0  0  0  0  0
  183.9770  178.5030  141.0850 C   0  0  0  0  0  0  0  0  0  0  0  0
  185.8110  178.2650  145.8250 C   0  0  0  0  0  0  0  0  0  0  0  0
  185.9410  178.2090  144.4000 N   0  0  0  0  0  2  0  0  0  0  0  0
  184.8400  178.8670  146.3610 O   0  0  0  0  0  0  0  0  0  0  0  0
  188.1920  177.5650  145.8980 C   0  0  0  0  0  2  0  0  0  0  0  0
  189.2880  177.0290  146.8150 C   0  0  0  0  0  2  0  0  0  0  0  0
  189.4540  177.9130  147.9680 N   0  0  0  0  0  2  0  0  0  0  0  0
  188.2260  177.8780  148.7620 C   0  0  0  0  0  2  0  0  0  0  0  0
  187.0670  178.4630  147.9590 C   0  0  0  0  0  2  0  0  0  0  0  0
  186.8790  177.6600  146.6730 C   0  0  0  0  0  3  0  0  0  0  0  0
  182.5410  177.7020  135.1780 O   0  0  0  0  0  0  0  0  0  0  0  0
  183.6530  176.9560  134.7040 C   0  0  0  0  0  1  0  0  0  0  0  0
  179.7760  178.1390  142.3570 C   0  0  0  0  0  2  0  0  0  0  0  0
  178.9310  178.9880  143.2980 C   0  0  0  0  0  2  0  0  0  0  0  0
  179.2820  178.7120  144.6800 N   0  0  0  0  0  1  0  0  0  0  0  0
  1  4  1  0  0  0  0
  1 12  1  0  0  0  0
  2  9  1  0  0  0  0
  3  5  1  0  0  0  0
  4 15  1  0  0  0  0
  5  7  1  0  0  0  0
  6 14  2  0  0  0  0
  8  1  2  0  0  0  0
  9  7  2  0  0  0  0
  9 19  1  0  0  0  0
 10 13  2  0  0  0  0
 10  8  1  0  0  0  0
 11  4  2  0  0  0  0
 12 17  1  0  0  0  0
 13 11  1  0  0  0  0
 14 29  1  0  0  0  0
 15 14  1  0  0  0  0
 15  3  1  0  0  0  0
 16  2  2  0  0  0  0
 17  3  2  0  0  0  0
 17  2  1  0  0  0  0
 18 20  2  0  0  0  0
 18 26  1  0  0  0  0
 19 18  1  0  0  0  0
 21 26  1  0  0  0  0
 21 22  1  0  0  0  0
 22 23  1  0  0  0  0
 23 24  1  0  0  0  0
 25 24  1  0  0  0  0
 26 25  1  0  0  0  0
 27 10  1  0  0  0  0
 28 27  1  0  0  0  0
 29 30  1  0  0  0  0
 30 31  1  0  0  0  0
M  END
>  <MODEL>
9

>  <REMARK>
 VINA RESULT:      -7.5      5.246      9.439
  Name = 
  5 active torsions:
  status: ('A' for Active; 'I' for Inactive)
    1  A    between atoms: C_3  and  C_23
    2  A    between atoms: C_3  and  C_24
    3  A    between atoms: O_8  and  C_17
    4  A    between atoms: C_9  and  C_31
    5  A    between atoms: N_11  and  C_15
                            x       y       z     vdW  Elec       q    Type
                         _______ _______ _______ _____ _____    ______ ____

>  <TORSDO>
F 5

$$$$
