=
 OpenBabel11032420143D

 28 29  0  0  1  0  0  0  0  0999 V2000
  187.5660  177.6110  143.5670 C   0  0  2  0  0  3  0  0  0  0  0  0
  188.2460  176.4110  143.1090 N   0  0  0  0  0  2  0  0  0  0  0  0
  188.8640  176.7380  141.8950 N   0  0  0  0  0  2  0  0  0  0  0  0
  190.7410  177.4440  140.6230 N   0  0  0  0  0  0  0  0  0  0  0  0
  190.2480  177.1040  141.7790 C   0  0  0  0  0  0  0  0  0  0  0  0
  190.9140  175.3990  138.5770 N   0  0  0  0  0  1  0  0  0  0  0  0
  188.6860  178.2070  137.5670 N   0  0  0  0  0  0  0  0  0  0  0  0
  189.1460  178.5960  138.9050 C   0  0  0  0  0  2  0  0  0  0  0  0
  189.3130  176.9150  137.2700 C   0  0  0  0  0  3  0  0  0  0  0  0
  190.1300  176.5820  138.4510 C   0  0  0  0  0  0  0  0  0  0  0  0
  190.0440  177.5100  139.3670 C   0  0  0  0  0  0  0  0  0  0  0  0
  191.6390  175.8800  143.4780 N   0  0  0  0  0  2  0  0  0  0  0  0
  191.5100  178.2150  143.5180 N   0  0  0  0  0  1  0  0  0  0  0  0
  191.1570  177.1110  142.9490 C   0  0  0  0  0  0  0  0  0  0  0  0
  187.7080  177.7540  145.0830 C   0  0  1  0  0  3  0  0  0  0  0  0
  185.9120  178.7850  146.5350 C   0  0  0  0  0  1  0  0  0  0  0  0
  186.3730  177.5350  145.8000 C   0  0  0  0  0  2  0  0  0  0  0  0
  188.6930  176.8470  145.5720 O   0  0  0  0  0  0  0  0  0  0  0  0
  190.9180  176.7340  146.7820 C   0  0  0  0  0  3  0  0  0  0  0  0
  190.3250  178.0300  148.5050 C   0  0  0  0  0  2  0  0  0  0  0  0
  189.1810  177.9190  147.6080 N   0  0  0  0  0  0  0  0  0  0  0  0
  189.5470  177.1720  146.6280 C   0  0  0  0  0  0  0  0  0  0  0  0
  191.3770  177.2330  147.8780 N   0  0  0  0  0  0  0  0  0  0  0  0
  186.1580  177.5320  143.2070 N   0  0  0  0  0  2  0  0  0  0  0  0
  186.4550  178.8520  141.3080 O   0  0  0  0  0  1  0  0  0  0  0  0
  185.8060  178.7770  142.5400 C   0  0  1  0  0  3  0  0  0  0  0  0
  184.2940  178.8860  142.3500 C   0  0  0  0  0  2  0  0  0  0  0  0
  183.5510  178.8300  143.6760 C   0  0  0  0  0  1  0  0  0  0  0  0
  1  2  1  1  0  0  0
  1 15  1  0  0  0  0
  3  2  1  0  0  0  0
  4  5  2  0  0  0  0
  5  3  1  0  0  0  0
  5 14  1  0  0  0  0
  7  8  1  0  0  0  0
  8 11  1  0  0  0  0
  9  7  2  0  0  0  0
  9 10  1  0  0  0  0
 10  6  1  0  0  0  0
 10 11  2  0  0  0  0
 11  4  1  0  0  0  0
 14 12  2  0  0  0  0
 14 13  1  0  0  0  0
 15 18  1  0  0  0  0
 15 17  1  1  0  0  0
 17 16  1  0  0  0  0
 18 22  1  0  0  0  0
 19 23  2  0  0  0  0
 21 20  1  0  0  0  0
 22 19  1  0  0  0  0
 22 21  2  0  0  0  0
 23 20  1  0  0  0  0
 24  1  1  0  0  0  0
 26 25  1  6  0  0  0
 26 24  1  0  0  0  0
 27 26  1  0  0  0  0
 27 28  1  0  0  0  0
M  END
>  <MODEL>
1

>  <REMARK>
 VINA RESULT:      -6.8      0.000      0.000
  Name = 
  11 active torsions:
  status: ('A' for Active; 'I' for Inactive)
    1  A    between atoms: O_5  and  C_16
    2  A    between atoms: O_5  and  C_23
    3  A    between atoms: C_10  and  C_15
    4  A    between atoms: C_10  and  N_22
    5  A    between atoms: N_11  and  C_14
    6  A    between atoms: N_11  and  N_17
    7  A    between atoms: C_13  and  C_16
    8  A    between atoms: C_14  and  C_16
    9  A    between atoms: C_14  and  N_22
   10  A    between atoms: N_20  and  C_26
   11  A    between atoms: C_24  and  C_27
                            x       y       z     vdW  Elec       q    Type
                         _______ _______ _______ _____ _____    ______ ____

>  <TORSDO>
F 11

$$$$
=
 OpenBabel11032420143D

 28 29  0  0  1  0  0  0  0  0999 V2000
  187.3200  177.8930  142.5190 C   0  0  2  0  0  3  0  0  0  0  0  0
  186.8070  178.9180  141.6250 N   0  0  0  0  0  2  0  0  0  0  0  0
  187.0570  178.4730  140.3200 N   0  0  0  0  0  2  0  0  0  0  0  0
  186.3600  177.9880  138.1020 N   0  0  0  0  0  0  0  0  0  0  0  0
  186.0680  178.4620  139.2800 C   0  0  0  0  0  0  0  0  0  0  0  0
  188.6460  179.5960  137.3360 N   0  0  0  0  0  1  0  0  0  0  0  0
  189.3500  175.9480  137.0810 N   0  0  0  0  0  0  0  0  0  0  0  0
  187.9620  175.9990  137.5530 C   0  0  0  0  0  2  0  0  0  0  0  0
  189.7940  177.3390  136.9390 C   0  0  0  0  0  3  0  0  0  0  0  0
  188.6420  178.1720  137.3330 C   0  0  0  0  0  0  0  0  0  0  0  0
  187.6180  177.4370  137.6770 C   0  0  0  0  0  0  0  0  0  0  0  0
  183.7290  178.1660  140.1510 N   0  0  0  0  0  1  0  0  0  0  0  0
  184.3500  180.1540  139.0860 N   0  0  0  0  0  2  0  0  0  0  0  0
  184.6970  178.9800  139.4970 C   0  0  0  0  0  0  0  0  0  0  0  0
  186.7640  178.0950  143.9290 C   0  0  1  0  0  3  0  0  0  0  0  0
  184.6780  179.2550  144.7660 C   0  0  0  0  0  1  0  0  0  0  0  0
  185.2330  178.1050  143.9380 C   0  0  0  0  0  2  0  0  0  0  0  0
  187.2630  177.0860  144.8040 O   0  0  0  0  0  0  0  0  0  0  0  0
  187.1900  177.9660  147.1790 C   0  0  0  0  0  3  0  0  0  0  0  0
  189.3500  177.6160  147.6360 C   0  0  0  0  0  2  0  0  0  0  0  0
  189.1010  177.1780  146.2690 N   0  0  0  0  0  0  0  0  0  0  0  0
  187.8550  177.3880  146.0310 C   0  0  0  0  0  0  0  0  0  0  0  0
  188.0610  178.1010  148.1210 N   0  0  0  0  0  0  0  0  0  0  0  0
  188.7740  177.9640  142.5450 N   0  0  0  0  0  2  0  0  0  0  0  0
  189.9990  176.9460  140.8420 O   0  0  0  0  0  1  0  0  0  0  0  0
  189.2830  176.7070  142.0150 C   0  0  1  0  0  3  0  0  0  0  0  0
  190.1670  176.0000  143.0410 C   0  0  0  0  0  2  0  0  0  0  0  0
  191.4660  176.7520  143.2830 C   0  0  0  0  0  1  0  0  0  0  0  0
  1  2  1  6  0  0  0
  1 24  1  0  0  0  0
  1 15  1  0  0  0  0
  3  2  1  0  0  0  0
  4  5  2  0  0  0  0
  5 14  1  0  0  0  0
  5  3  1  0  0  0  0
  7  8  1  0  0  0  0
  8 11  1  0  0  0  0
  9  7  2  0  0  0  0
  9 10  1  0  0  0  0
 10  6  1  0  0  0  0
 10 11  2  0  0  0  0
 11  4  1  0  0  0  0
 13 14  2  0  0  0  0
 14 12  1  0  0  0  0
 15 17  1  6  0  0  0
 15 18  1  0  0  0  0
 17 16  1  0  0  0  0
 18 22  1  0  0  0  0
 19 23  2  0  0  0  0
 20 23  1  0  0  0  0
 21 20  1  0  0  0  0
 22 21  2  0  0  0  0
 22 19  1  0  0  0  0
 26 25  1  6  0  0  0
 26 24  1  0  0  0  0
 26 27  1  0  0  0  0
 27 28  1  0  0  0  0
M  END
>  <MODEL>
2

>  <REMARK>
 VINA RESULT:      -6.4      2.193      4.387
  Name = 
  11 active torsions:
  status: ('A' for Active; 'I' for Inactive)
    1  A    between atoms: O_5  and  C_16
    2  A    between atoms: O_5  and  C_23
    3  A    between atoms: C_10  and  C_15
    4  A    between atoms: C_10  and  N_22
    5  A    between atoms: N_11  and  C_14
    6  A    between atoms: N_11  and  N_17
    7  A    between atoms: C_13  and  C_16
    8  A    between atoms: C_14  and  C_16
    9  A    between atoms: C_14  and  N_22
   10  A    between atoms: N_20  and  C_26
   11  A    between atoms: C_24  and  C_27
                            x       y       z     vdW  Elec       q    Type
                         _______ _______ _______ _____ _____    ______ ____

>  <TORSDO>
F 11

$$$$
=
 OpenBabel11032420143D

 28 29  0  0  1  0  0  0  0  0999 V2000
  187.4530  177.8460  142.6280 C   0  0  2  0  0  3  0  0  0  0  0  0
  186.8780  178.8880  141.7930 N   0  0  0  0  0  2  0  0  0  0  0  0
  187.1520  178.5350  140.4650 N   0  0  0  0  0  2  0  0  0  0  0  0
  186.4800  178.1380  138.2220 N   0  0  0  0  0  0  0  0  0  0  0  0
  186.1630  178.5260  139.4240 C   0  0  0  0  0  0  0  0  0  0  0  0
  187.0070  175.4390  137.3110 N   0  0  0  0  0  1  0  0  0  0  0  0
  190.0470  177.5840  137.1680 N   0  0  0  0  0  0  0  0  0  0  0  0
  189.0130  178.4860  137.6870 C   0  0  0  0  0  2  0  0  0  0  0  0
  189.4000  176.2850  136.9550 C   0  0  0  0  0  3  0  0  0  0  0  0
  187.9930  176.4660  137.3580 C   0  0  0  0  0  0  0  0  0  0  0  0
  187.7660  177.6860  137.7670 C   0  0  0  0  0  0  0  0  0  0  0  0
  184.3070  180.2020  139.1670 N   0  0  0  0  0  2  0  0  0  0  0  0
  183.9490  178.2150  140.3480 N   0  0  0  0  0  1  0  0  0  0  0  0
  184.7650  178.9500  139.6680 C   0  0  0  0  0  0  0  0  0  0  0  0
  187.0080  178.0250  144.0790 C   0  0  1  0  0  3  0  0  0  0  0  0
  184.9630  179.2100  144.9810 C   0  0  0  0  0  1  0  0  0  0  0  0
  185.4820  178.0060  144.2110 C   0  0  0  0  0  2  0  0  0  0  0  0
  187.5940  177.0200  144.9020 O   0  0  0  0  0  0  0  0  0  0  0  0
  189.5700  177.1540  146.4830 C   0  0  0  0  0  3  0  0  0  0  0  0
  188.4260  177.9390  148.2370 C   0  0  0  0  0  2  0  0  0  0  0  0
  187.4930  177.7610  147.1320 N   0  0  0  0  0  0  0  0  0  0  0  0
  188.1730  177.3110  146.1380 C   0  0  0  0  0  0  0  0  0  0  0  0
  189.7230  177.5200  147.7100 N   0  0  0  0  0  0  0  0  0  0  0  0
  188.9050  177.9080  142.5430 N   0  0  0  0  0  2  0  0  0  0  0  0
  190.0110  176.8450  140.7860 O   0  0  0  0  0  1  0  0  0  0  0  0
  189.3680  176.6360  142.0060 C   0  0  1  0  0  3  0  0  0  0  0  0
  190.3080  175.9400  142.9890 C   0  0  0  0  0  2  0  0  0  0  0  0
  191.5400  176.7810  143.2860 C   0  0  0  0  0  1  0  0  0  0  0  0
  1  2  1  6  0  0  0
  1 15  1  0  0  0  0
  3  2  1  0  0  0  0
  4  5  2  0  0  0  0
  5 14  1  0  0  0  0
  5  3  1  0  0  0  0
  6 10  1  0  0  0  0
  7  8  1  0  0  0  0
  8 11  1  0  0  0  0
  9  7  2  0  0  0  0
  9 10  1  0  0  0  0
 10 11  2  0  0  0  0
 11  4  1  0  0  0  0
 12 14  2  0  0  0  0
 14 13  1  0  0  0  0
 15 17  1  6  0  0  0
 15 18  1  0  0  0  0
 17 16  1  0  0  0  0
 18 22  1  0  0  0  0
 19 23  2  0  0  0  0
 21 20  1  0  0  0  0
 22 19  1  0  0  0  0
 22 21  2  0  0  0  0
 23 20  1  0  0  0  0
 24  1  1  0  0  0  0
 26 25  1  6  0  0  0
 26 24  1  0  0  0  0
 26 27  1  0  0  0  0
 27 28  1  0  0  0  0
M  END
>  <MODEL>
3

>  <REMARK>
 VINA RESULT:      -6.3      2.198      4.208
  Name = 
  11 active torsions:
  status: ('A' for Active; 'I' for Inactive)
    1  A    between atoms: O_5  and  C_16
    2  A    between atoms: O_5  and  C_23
    3  A    between atoms: C_10  and  C_15
    4  A    between atoms: C_10  and  N_22
    5  A    between atoms: N_11  and  C_14
    6  A    between atoms: N_11  and  N_17
    7  A    between atoms: C_13  and  C_16
    8  A    between atoms: C_14  and  C_16
    9  A    between atoms: C_14  and  N_22
   10  A    between atoms: N_20  and  C_26
   11  A    between atoms: C_24  and  C_27
                            x       y       z     vdW  Elec       q    Type
                         _______ _______ _______ _____ _____    ______ ____

>  <TORSDO>
F 11

$$$$
=
 OpenBabel11032420143D

 28 29  0  0  1  0  0  0  0  0999 V2000
  185.9840  178.0540  142.5510 C   0  0  2  0  0  3  0  0  0  0  0  0
  186.8340  178.5840  141.4980 N   0  0  0  0  0  2  0  0  0  0  0  0
  188.1520  178.2620  141.8460 N   0  0  0  0  0  2  0  0  0  0  0  0
  190.3550  177.5680  141.2930 N   0  0  0  0  0  0  0  0  0  0  0  0
  189.1620  177.9040  140.8910 C   0  0  0  0  0  0  0  0  0  0  0  0
  190.3310  175.1470  142.8860 N   0  0  0  0  0  1  0  0  0  0  0  0
  191.7170  178.0480  144.7660 N   0  0  0  0  0  0  0  0  0  0  0  0
  191.3870  178.6140  143.4530 C   0  0  0  0  0  3  0  0  0  0  0  0
  191.3500  176.6280  144.7120 C   0  0  0  0  0  2  0  0  0  0  0  0
  190.8100  176.4020  143.3590 C   0  0  0  0  0  0  0  0  0  0  0  0
  190.8260  177.5000  142.6490 C   0  0  0  0  0  0  0  0  0  0  0  0
  188.9570  179.1200  138.7010 N   0  0  0  0  0  2  0  0  0  0  0  0
  188.5900  176.8120  138.8100 N   0  0  0  0  0  1  0  0  0  0  0  0
  188.8970  177.9010  139.4340 C   0  0  0  0  0  0  0  0  0  0  0  0
  184.5280  178.4480  142.3050 C   0  0  1  0  0  3  0  0  0  0  0  0
  182.6370  178.8790  143.9290 C   0  0  0  0  0  1  0  0  0  0  0  0
  183.9890  179.3520  143.4180 C   0  0  0  0  0  2  0  0  0  0  0  0
  184.3980  179.0850  141.0360 O   0  0  0  0  0  0  0  0  0  0  0  0
  182.7260  177.4270  140.0990 C   0  0  0  0  0  3  0  0  0  0  0  0
  182.1590  178.6380  138.3070 C   0  0  0  0  0  2  0  0  0  0  0  0
  183.1540  179.3880  139.0630 N   0  0  0  0  0  0  0  0  0  0  0  0
  183.4620  178.6730  140.0860 C   0  0  0  0  0  0  0  0  0  0  0  0
  181.9620  177.4020  139.0610 N   0  0  0  0  0  0  0  0  0  0  0  0
  186.4280  178.5760  143.8350 N   0  0  0  0  0  2  0  0  0  0  0  0
  187.5580  176.6500  144.5070 O   0  0  0  0  0  1  0  0  0  0  0  0
  186.4570  177.4630  144.7740 C   0  0  1  0  0  3  0  0  0  0  0  0
  186.5070  177.9670  146.2160 C   0  0  0  0  0  2  0  0  0  0  0  0
  185.1280  178.3510  146.7290 C   0  0  0  0  0  1  0  0  0  0  0  0
  1  2  1  6  0  0  0
  1 24  1  0  0  0  0
  2  3  1  0  0  0  0
  4 11  1  0  0  0  0
  5  4  2  0  0  0  0
  5  3  1  0  0  0  0
  6 10  1  0  0  0  0
  8  7  2  0  0  0  0
  9  7  1  0  0  0  0
 10  9  1  0  0  0  0
 11 10  2  0  0  0  0
 11  8  1  0  0  0  0
 12 14  2  0  0  0  0
 13 14  1  0  0  0  0
 14  5  1  0  0  0  0
 15  1  1  0  0  0  0
 15 17  1  1  0  0  0
 17 16  1  0  0  0  0
 18 15  1  0  0  0  0
 20 23  1  0  0  0  0
 20 21  1  0  0  0  0
 21 22  2  0  0  0  0
 22 19  1  0  0  0  0
 22 18  1  0  0  0  0
 23 19  2  0  0  0  0
 24 26  1  0  0  0  0
 26 25  1  6  0  0  0
 26 27  1  0  0  0  0
 27 28  1  0  0  0  0
M  END
>  <MODEL>
4

>  <REMARK>
 VINA RESULT:      -6.3      2.253      6.288
  Name = 
  11 active torsions:
  status: ('A' for Active; 'I' for Inactive)
    1  A    between atoms: O_5  and  C_16
    2  A    between atoms: O_5  and  C_23
    3  A    between atoms: C_10  and  C_15
    4  A    between atoms: C_10  and  N_22
    5  A    between atoms: N_11  and  C_14
    6  A    between atoms: N_11  and  N_17
    7  A    between atoms: C_13  and  C_16
    8  A    between atoms: C_14  and  C_16
    9  A    between atoms: C_14  and  N_22
   10  A    between atoms: N_20  and  C_26
   11  A    between atoms: C_24  and  C_27
                            x       y       z     vdW  Elec       q    Type
                         _______ _______ _______ _____ _____    ______ ____

>  <TORSDO>
F 11

$$$$
=
 OpenBabel11032420143D

 28 29  0  0  1  0  0  0  0  0999 V2000
  184.9520  178.4790  142.9710 C   0  0  2  0  0  3  0  0  0  0  0  0
  183.5630  178.8530  143.1770 N   0  0  0  0  0  2  0  0  0  0  0  0
  182.9050  178.6410  141.9570 N   0  0  0  0  0  2  0  0  0  0  0  0
  180.9420  178.5440  140.6250 N   0  0  0  0  0  0  0  0  0  0  0  0
  181.4910  178.8070  141.7770 C   0  0  0  0  0  0  0  0  0  0  0  0
  181.0120  175.7650  139.8050 N   0  0  0  0  0  1  0  0  0  0  0  0
  182.8310  177.9750  137.4230 N   0  0  0  0  0  0  0  0  0  0  0  0
  182.3420  178.9030  138.4490 C   0  0  0  0  0  2  0  0  0  0  0  0
  182.3750  176.6380  137.8180 C   0  0  0  0  0  3  0  0  0  0  0  0
  181.6270  176.8220  139.0760 C   0  0  0  0  0  0  0  0  0  0  0  0
  181.6020  178.0780  139.4350 C   0  0  0  0  0  0  0  0  0  0  0  0
  180.2210  178.3710  143.9020 N   0  0  0  0  0  1  0  0  0  0  0  0
  180.1680  180.4870  142.9060 N   0  0  0  0  0  2  0  0  0  0  0  0
  180.6100  179.2740  142.8720 C   0  0  0  0  0  0  0  0  0  0  0  0
  185.7010  178.4720  144.3040 C   0  0  1  0  0  3  0  0  0  0  0  0
  185.4600  178.6100  146.8180 C   0  0  0  0  0  1  0  0  0  0  0  0
  184.7760  178.8170  145.4750 C   0  0  0  0  0  2  0  0  0  0  0  0
  186.3230  177.2070  144.5130 O   0  0  0  0  0  0  0  0  0  0  0  0
  188.8200  177.6200  144.6460 C   0  0  0  0  0  3  0  0  0  0  0  0
  189.4020  176.0880  143.1260 C   0  0  0  0  0  2  0  0  0  0  0  0
  187.9510  176.0650  143.2570 N   0  0  0  0  0  0  0  0  0  0  0  0
  187.6420  176.9520  144.1350 C   0  0  0  0  0  0  0  0  0  0  0  0
  189.8520  177.1180  144.0590 N   0  0  0  0  0  0  0  0  0  0  0  0
  185.5740  179.4270  142.0580 N   0  0  0  0  0  2  0  0  0  0  0  0
  185.7710  178.9960  139.7750 O   0  0  0  0  0  1  0  0  0  0  0  0
  186.2670  178.6580  141.0340 C   0  0  1  0  0  3  0  0  0  0  0  0
  187.7740  178.9040  141.0930 C   0  0  0  0  0  2  0  0  0  0  0  0
  188.5240  178.0690  140.0690 C   0  0  0  0  0  1  0  0  0  0  0  0
  1 24  1  6  0  0  0
  1  2  1  0  0  0  0
  1 15  1  0  0  0  0
  3  2  1  0  0  0  0
  4  5  2  0  0  0  0
  5  3  1  0  0  0  0
  5 14  1  0  0  0  0
  7  9  2  0  0  0  0
  7  8  1  0  0  0  0
  8 11  1  0  0  0  0
  9 10  1  0  0  0  0
 10 11  2  0  0  0  0
 10  6  1  0  0  0  0
 11  4  1  0  0  0  0
 14 13  2  0  0  0  0
 14 12  1  0  0  0  0
 15 18  1  0  0  0  0
 15 17  1  1  0  0  0
 17 16  1  0  0  0  0
 20 21  1  0  0  0  0
 20 23  1  0  0  0  0
 21 22  2  0  0  0  0
 22 18  1  0  0  0  0
 22 19  1  0  0  0  0
 23 19  2  0  0  0  0
 26 25  1  6  0  0  0
 26 27  1  0  0  0  0
 26 24  1  0  0  0  0
 28 27  1  0  0  0  0
M  END
>  <MODEL>
5

>  <REMARK>
 VINA RESULT:      -6.2      3.585      6.507
  Name = 
  11 active torsions:
  status: ('A' for Active; 'I' for Inactive)
    1  A    between atoms: O_5  and  C_16
    2  A    between atoms: O_5  and  C_23
    3  A    between atoms: C_10  and  C_15
    4  A    between atoms: C_10  and  N_22
    5  A    between atoms: N_11  and  C_14
    6  A    between atoms: N_11  and  N_17
    7  A    between atoms: C_13  and  C_16
    8  A    between atoms: C_14  and  C_16
    9  A    between atoms: C_14  and  N_22
   10  A    between atoms: N_20  and  C_26
   11  A    between atoms: C_24  and  C_27
                            x       y       z     vdW  Elec       q    Type
                         _______ _______ _______ _____ _____    ______ ____

>  <TORSDO>
F 11

$$$$
=
 OpenBabel11032420143D

 28 29  0  0  1  0  0  0  0  0999 V2000
  185.1240  178.6190  141.5560 C   0  0  2  0  0  3  0  0  0  0  0  0
  186.2210  179.0060  140.6850 N   0  0  0  0  0  2  0  0  0  0  0  0
  187.4030  178.6290  141.3370 N   0  0  0  0  0  2  0  0  0  0  0  0
  189.6220  177.7840  141.3300 N   0  0  0  0  0  0  0  0  0  0  0  0
  188.5760  178.1640  140.6530 C   0  0  0  0  0  0  0  0  0  0  0  0
  188.6630  175.6330  143.0190 N   0  0  0  0  0  1  0  0  0  0  0  0
  190.3130  178.3310  144.9860 N   0  0  0  0  0  0  0  0  0  0  0  0
  190.4140  178.8040  143.6010 C   0  0  0  0  0  3  0  0  0  0  0  0
  189.6210  177.0380  144.9360 C   0  0  0  0  0  2  0  0  0  0  0  0
  189.3340  176.7890  143.5120 C   0  0  0  0  0  0  0  0  0  0  0  0
  189.7700  177.7650  142.7600 C   0  0  0  0  0  0  0  0  0  0  0  0
  188.2800  176.8930  138.5040 N   0  0  0  0  0  1  0  0  0  0  0  0
  189.0510  179.1020  138.4750 N   0  0  0  0  0  2  0  0  0  0  0  0
  188.6450  178.0950  139.1750 C   0  0  0  0  0  0  0  0  0  0  0  0
  183.7850  178.9840  140.9140 C   0  0  1  0  0  3  0  0  0  0  0  0
  183.2480  180.1170  138.7170 C   0  0  0  0  0  1  0  0  0  0  0  0
  183.8440  178.8880  139.3870 C   0  0  0  0  0  2  0  0  0  0  0  0
  182.7490  178.1520  141.4290 O   0  0  0  0  0  0  0  0  0  0  0  0
  180.2340  178.3830  141.2140 C   0  0  0  0  0  3  0  0  0  0  0  0
  179.9680  179.7770  142.9410 C   0  0  0  0  0  2  0  0  0  0  0  0
  181.3870  179.4630  142.8280 N   0  0  0  0  0  0  0  0  0  0  0  0
  181.5130  178.6610  141.8310 C   0  0  0  0  0  0  0  0  0  0  0  0
  179.3270  179.0340  141.8590 N   0  0  0  0  0  0  0  0  0  0  0  0
  185.2630  179.3000  142.8350 N   0  0  0  0  0  2  0  0  0  0  0  0
  186.1520  177.7140  144.2940 O   0  0  0  0  0  1  0  0  0  0  0  0
  184.9710  178.3310  143.8820 C   0  0  1  0  0  3  0  0  0  0  0  0
  184.2810  179.0010  145.0680 C   0  0  0  0  0  2  0  0  0  0  0  0
  184.9300  178.6210  146.3890 C   0  0  0  0  0  1  0  0  0  0  0  0
  1  2  1  6  0  0  0
  1 24  1  0  0  0  0
  2  3  1  0  0  0  0
  4 11  1  0  0  0  0
  5  4  2  0  0  0  0
  5  3  1  0  0  0  0
  6 10  1  0  0  0  0
  8  7  2  0  0  0  0
  9  7  1  0  0  0  0
 10  9  1  0  0  0  0
 11 10  2  0  0  0  0
 11  8  1  0  0  0  0
 12 14  1  0  0  0  0
 13 14  2  0  0  0  0
 14  5  1  0  0  0  0
 15 17  1  6  0  0  0
 15 18  1  0  0  0  0
 15  1  1  0  0  0  0
 16 17  1  0  0  0  0
 18 22  1  0  0  0  0
 19 22  1  0  0  0  0
 19 23  2  0  0  0  0
 21 20  1  0  0  0  0
 22 21  2  0  0  0  0
 23 20  1  0  0  0  0
 24 26  1  0  0  0  0
 26 25  1  1  0  0  0
 26 27  1  0  0  0  0
 27 28  1  0  0  0  0
M  END
>  <MODEL>
6

>  <REMARK>
 VINA RESULT:      -6.1      2.800      6.617
  Name = 
  11 active torsions:
  status: ('A' for Active; 'I' for Inactive)
    1  A    between atoms: O_5  and  C_16
    2  A    between atoms: O_5  and  C_23
    3  A    between atoms: C_10  and  C_15
    4  A    between atoms: C_10  and  N_22
    5  A    between atoms: N_11  and  C_14
    6  A    between atoms: N_11  and  N_17
    7  A    between atoms: C_13  and  C_16
    8  A    between atoms: C_14  and  C_16
    9  A    between atoms: C_14  and  N_22
   10  A    between atoms: N_20  and  C_26
   11  A    between atoms: C_24  and  C_27
                            x       y       z     vdW  Elec       q    Type
                         _______ _______ _______ _____ _____    ______ ____

>  <TORSDO>
F 11

$$$$
=
 OpenBabel11032420143D

 28 29  0  0  1  0  0  0  0  0999 V2000
  187.8570  177.7140  142.0520 C   0  0  2  0  0  3  0  0  0  0  0  0
  187.0740  178.6680  141.2850 N   0  0  0  0  0  2  0  0  0  0  0  0
  187.2120  178.3090  139.9370 N   0  0  0  0  0  2  0  0  0  0  0  0
  186.3200  177.9220  137.7710 N   0  0  0  0  0  0  0  0  0  0  0  0
  186.1270  178.3170  138.9970 C   0  0  0  0  0  0  0  0  0  0  0  0
  186.7550  175.1780  136.9480 N   0  0  0  0  0  1  0  0  0  0  0  0
  189.7460  177.3120  136.3450 N   0  0  0  0  0  0  0  0  0  0  0  0
  188.7730  178.2410  136.9300 C   0  0  0  0  0  2  0  0  0  0  0  0
  189.0860  176.0040  136.2750 C   0  0  0  0  0  3  0  0  0  0  0  0
  187.7340  176.2060  136.8280 C   0  0  0  0  0  0  0  0  0  0  0  0
  187.5480  177.4460  137.1950 C   0  0  0  0  0  0  0  0  0  0  0  0
  183.8320  177.8290  139.8980 N   0  0  0  0  0  1  0  0  0  0  0  0
  184.3990  179.9950  139.2180 N   0  0  0  0  0  2  0  0  0  0  0  0
  184.7670  178.7660  139.3730 C   0  0  0  0  0  0  0  0  0  0  0  0
  187.1630  177.4070  143.3790 C   0  0  1  0  0  3  0  0  0  0  0  0
  188.1220  177.4710  145.7190 C   0  0  0  0  0  1  0  0  0  0  0  0
  188.1190  176.7500  144.3800 C   0  0  0  0  0  2  0  0  0  0  0  0
  186.6030  178.5960  143.9290 O   0  0  0  0  0  0  0  0  0  0  0  0
  184.6620  178.9600  145.5180 C   0  0  0  0  0  3  0  0  0  0  0  0
  183.0510  178.7940  143.9780 C   0  0  0  0  0  2  0  0  0  0  0  0
  184.3340  178.6170  143.3100 N   0  0  0  0  0  0  0  0  0  0  0  0
  185.2420  178.7170  144.2150 C   0  0  0  0  0  0  0  0  0  0  0  0
  183.3810  179.0050  145.3850 N   0  0  0  0  0  0  0  0  0  0  0  0
  189.1800  178.2690  142.3020 N   0  0  0  0  0  2  0  0  0  0  0  0
  190.3750  177.5520  140.4320 O   0  0  0  0  0  1  0  0  0  0  0  0
  190.1570  177.3180  141.7900 C   0  0  1  0  0  3  0  0  0  0  0  0
  191.4710  177.4170  142.5630 C   0  0  0  0  0  2  0  0  0  0  0  0
  191.3450  178.3210  143.7790 C   0  0  0  0  0  1  0  0  0  0  0  0
  1  2  1  1  0  0  0
  1 24  1  0  0  0  0
  1 15  1  0  0  0  0
  3  2  1  0  0  0  0
  4  5  2  0  0  0  0
  5 14  1  0  0  0  0
  5  3  1  0  0  0  0
  7  8  1  0  0  0  0
  8 11  1  0  0  0  0
  9  7  2  0  0  0  0
  9 10  1  0  0  0  0
 10  6  1  0  0  0  0
 10 11  2  0  0  0  0
 11  4  1  0  0  0  0
 13 14  2  0  0  0  0
 14 12  1  0  0  0  0
 15 18  1  0  0  0  0
 15 17  1  1  0  0  0
 17 16  1  0  0  0  0
 18 22  1  0  0  0  0
 20 23  1  0  0  0  0
 21 20  1  0  0  0  0
 21 22  2  0  0  0  0
 22 19  1  0  0  0  0
 23 19  2  0  0  0  0
 26 25  1  6  0  0  0
 26 24  1  0  0  0  0
 26 27  1  0  0  0  0
 27 28  1  0  0  0  0
M  END
>  <MODEL>
7

>  <REMARK>
 VINA RESULT:      -6.0      2.619      5.290
  Name = 
  11 active torsions:
  status: ('A' for Active; 'I' for Inactive)
    1  A    between atoms: O_5  and  C_16
    2  A    between atoms: O_5  and  C_23
    3  A    between atoms: C_10  and  C_15
    4  A    between atoms: C_10  and  N_22
    5  A    between atoms: N_11  and  C_14
    6  A    between atoms: N_11  and  N_17
    7  A    between atoms: C_13  and  C_16
    8  A    between atoms: C_14  and  C_16
    9  A    between atoms: C_14  and  N_22
   10  A    between atoms: N_20  and  C_26
   11  A    between atoms: C_24  and  C_27
                            x       y       z     vdW  Elec       q    Type
                         _______ _______ _______ _____ _____    ______ ____

>  <TORSDO>
F 11

$$$$
=
 OpenBabel11032420143D

 28 29  0  0  1  0  0  0  0  0999 V2000
  189.9420  177.6130  142.0530 C   0  0  2  0  0  3  0  0  0  0  0  0
  190.9310  177.0880  141.1260 N   0  0  0  0  0  2  0  0  0  0  0  0
  190.3840  177.2170  139.8420 N   0  0  0  0  0  2  0  0  0  0  0  0
  190.5530  177.1270  137.4750 N   0  0  0  0  0  0  0  0  0  0  0  0
  191.1120  176.9380  138.6360 C   0  0  0  0  0  0  0  0  0  0  0  0
  188.2690  175.4000  137.0290 N   0  0  0  0  0  1  0  0  0  0  0  0
  187.3530  179.0050  136.8580 N   0  0  0  0  0  0  0  0  0  0  0  0
  188.7930  179.0280  137.1380 C   0  0  0  0  0  2  0  0  0  0  0  0
  186.9660  177.5930  136.7810 C   0  0  0  0  0  3  0  0  0  0  0  0
  188.2010  176.8220  137.0200 C   0  0  0  0  0  0  0  0  0  0  0  0
  189.2230  177.6110  137.2200 C   0  0  0  0  0  0  0  0  0  0  0  0
  193.4950  177.1260  139.4110 N   0  0  0  0  0  1  0  0  0  0  0  0
  192.8480  175.3800  137.9940 N   0  0  0  0  0  2  0  0  0  0  0  0
  192.5040  176.4330  138.6600 C   0  0  0  0  0  0  0  0  0  0  0  0
  190.2150  177.0970  143.4660 C   0  0  1  0  0  3  0  0  0  0  0  0
  191.7930  175.2880  144.2640 C   0  0  0  0  0  1  0  0  0  0  0  0
  191.6760  176.6710  143.6400 C   0  0  0  0  0  2  0  0  0  0  0  0
  189.8640  178.0880  144.4280 O   0  0  0  0  0  0  0  0  0  0  0  0
  187.7760  177.8700  145.8490 C   0  0  0  0  0  3  0  0  0  0  0  0
  188.8090  177.1350  147.6900 C   0  0  0  0  0  2  0  0  0  0  0  0
  189.8190  177.3520  146.6620 N   0  0  0  0  0  0  0  0  0  0  0  0
  189.2020  177.7730  145.6160 C   0  0  0  0  0  0  0  0  0  0  0  0
  187.5420  177.4980  147.0610 N   0  0  0  0  0  0  0  0  0  0  0  0
  188.6140  177.2000  141.6230 N   0  0  0  0  0  2  0  0  0  0  0  0
  187.3500  178.6330  140.2860 O   0  0  0  0  0  1  0  0  0  0  0  0
  187.7730  178.3890  141.5930 C   0  0  1  0  0  3  0  0  0  0  0  0
  186.5690  178.2290  142.5190 C   0  0  0  0  0  2  0  0  0  0  0  0
  185.3270  178.8990  141.9530 C   0  0  0  0  0  1  0  0  0  0  0  0
  1  2  1  6  0  0  0
  1 15  1  0  0  0  0
  3  2  1  0  0  0  0
  4  5  2  0  0  0  0
  5 14  1  0  0  0  0
  5  3  1  0  0  0  0
  7  8  1  0  0  0  0
  8 11  1  0  0  0  0
  9  7  2  0  0  0  0
  9 10  1  0  0  0  0
 10  6  1  0  0  0  0
 10 11  2  0  0  0  0
 11  4  1  0  0  0  0
 13 14  2  0  0  0  0
 14 12  1  0  0  0  0
 15 17  1  6  0  0  0
 15 18  1  0  0  0  0
 17 16  1  0  0  0  0
 18 22  1  0  0  0  0
 19 23  2  0  0  0  0
 21 20  1  0  0  0  0
 22 19  1  0  0  0  0
 22 21  2  0  0  0  0
 23 20  1  0  0  0  0
 24  1  1  0  0  0  0
 26 25  1  6  0  0  0
 26 24  1  0  0  0  0
 26 27  1  0  0  0  0
 28 27  1  0  0  0  0
M  END
>  <MODEL>
8

>  <REMARK>
 VINA RESULT:      -6.0      1.720      3.398
  Name = 
  11 active torsions:
  status: ('A' for Active; 'I' for Inactive)
    1  A    between atoms: O_5  and  C_16
    2  A    between atoms: O_5  and  C_23
    3  A    between atoms: C_10  and  C_15
    4  A    between atoms: C_10  and  N_22
    5  A    between atoms: N_11  and  C_14
    6  A    between atoms: N_11  and  N_17
    7  A    between atoms: C_13  and  C_16
    8  A    between atoms: C_14  and  C_16
    9  A    between atoms: C_14  and  N_22
   10  A    between atoms: N_20  and  C_26
   11  A    between atoms: C_24  and  C_27
                            x       y       z     vdW  Elec       q    Type
                         _______ _______ _______ _____ _____    ______ ____

>  <TORSDO>
F 11

$$$$
=
 OpenBabel11032420143D

 28 29  0  0  1  0  0  0  0  0999 V2000
  187.7290  177.4400  142.4060 C   0  0  2  0  0  3  0  0  0  0  0  0
  186.6770  178.2450  143.0050 N   0  0  0  0  0  2  0  0  0  0  0  0
  185.6000  178.2280  142.1100 N   0  0  0  0  0  2  0  0  0  0  0  0
  183.3130  178.5830  141.5770 N   0  0  0  0  0  0  0  0  0  0  0  0
  184.2770  178.6750  142.4480 C   0  0  0  0  0  0  0  0  0  0  0  0
  184.2110  180.1290  139.2970 N   0  0  0  0  0  1  0  0  0  0  0  0
  183.2970  176.6440  138.3550 N   0  0  0  0  0  0  0  0  0  0  0  0
  183.0480  176.6870  139.8000 C   0  0  0  0  0  2  0  0  0  0  0  0
  183.7830  177.9750  137.9750 C   0  0  0  0  0  3  0  0  0  0  0  0
  183.8030  178.7670  139.2200 C   0  0  0  0  0  0  0  0  0  0  0  0
  183.3960  178.0600  140.2410 C   0  0  0  0  0  0  0  0  0  0  0  0
  182.9640  178.6360  144.5910 N   0  0  0  0  0  1  0  0  0  0  0  0
  184.5540  180.3090  144.2090 N   0  0  0  0  0  2  0  0  0  0  0  0
  183.9600  179.2480  143.7760 C   0  0  0  0  0  0  0  0  0  0  0  0
  188.5380  176.7330  143.4930 C   0  0  1  0  0  3  0  0  0  0  0  0
  191.0220  176.3060  143.2750 C   0  0  0  0  0  1  0  0  0  0  0  0
  189.6260  175.8350  142.8960 C   0  0  0  0  0  2  0  0  0  0  0  0
  189.1100  177.6890  144.3820 O   0  0  0  0  0  0  0  0  0  0  0  0
  189.8490  177.5440  146.8020 C   0  0  0  0  0  3  0  0  0  0  0  0
  187.8070  177.7240  147.6920 C   0  0  0  0  0  2  0  0  0  0  0  0
  187.6740  177.7800  146.2420 N   0  0  0  0  0  0  0  0  0  0  0  0
  188.8590  177.6760  145.7540 C   0  0  0  0  0  0  0  0  0  0  0  0
  189.2390  177.5720  147.9370 N   0  0  0  0  0  0  0  0  0  0  0  0
  188.6010  178.2990  141.6190 N   0  0  0  0  0  2  0  0  0  0  0  0
  187.6540  178.6250  139.5120 O   0  0  0  0  0  1  0  0  0  0  0  0
  188.5450  177.8350  140.2400 C   0  0  1  0  0  3  0  0  0  0  0  0
  189.9300  177.8680  139.5960 C   0  0  0  0  0  2  0  0  0  0  0  0
  190.4550  176.4700  139.3100 C   0  0  0  0  0  1  0  0  0  0  0  0
  1 24  1  1  0  0  0
  1  2  1  0  0  0  0
  1 15  1  0  0  0  0
  3  5  1  0  0  0  0
  3  2  1  0  0  0  0
  4  5  2  0  0  0  0
  5 14  1  0  0  0  0
  7  8  1  0  0  0  0
  8 11  1  0  0  0  0
  9  7  2  0  0  0  0
  9 10  1  0  0  0  0
 10  6  1  0  0  0  0
 10 11  2  0  0  0  0
 11  4  1  0  0  0  0
 14 13  2  0  0  0  0
 14 12  1  0  0  0  0
 15 17  1  6  0  0  0
 15 18  1  0  0  0  0
 17 16  1  0  0  0  0
 18 22  1  0  0  0  0
 19 23  2  0  0  0  0
 20 23  1  0  0  0  0
 21 20  1  0  0  0  0
 22 21  2  0  0  0  0
 22 19  1  0  0  0  0
 26 25  1  6  0  0  0
 26 24  1  0  0  0  0
 27 26  1  0  0  0  0
 28 27  1  0  0  0  0
M  END
>  <MODEL>
9

>  <REMARK>
 VINA RESULT:      -6.0      2.520      5.364
  Name = 
  11 active torsions:
  status: ('A' for Active; 'I' for Inactive)
    1  A    between atoms: O_5  and  C_16
    2  A    between atoms: O_5  and  C_23
    3  A    between atoms: C_10  and  C_15
    4  A    between atoms: C_10  and  N_22
    5  A    between atoms: N_11  and  C_14
    6  A    between atoms: N_11  and  N_17
    7  A    between atoms: C_13  and  C_16
    8  A    between atoms: C_14  and  C_16
    9  A    between atoms: C_14  and  N_22
   10  A    between atoms: N_20  and  C_26
   11  A    between atoms: C_24  and  C_27
                            x       y       z     vdW  Elec       q    Type
                         _______ _______ _______ _____ _____    ______ ____

>  <TORSDO>
F 11

$$$$
