=
 OpenBabel11032420493D

 51 54  0  0  1  0  0  0  0  0999 V2000
  187.7250  177.4760  138.1090 C   0  0  2  0  0  0  0  0  0  0  0  0
  187.5110  176.0370  137.6310 C   0  0  0  0  0  1  0  0  0  0  0  0
  186.4420  178.3300  137.8670 C   0  0  1  0  0  3  0  0  0  0  0  0
  185.3760  177.6690  137.1040 C   0  0  0  0  0  0  0  0  0  0  0  0
  184.5340  177.8170  139.2560 O   0  0  0  0  0  0  0  0  0  0  0  0
  185.4020  177.4850  135.8980 O   0  0  0  0  0  0  0  0  0  0  0  0
  185.6920  178.6270  139.1620 C   0  0  0  0  0  2  0  0  0  0  0  0
  184.2000  177.4030  137.9500 C   0  0  1  0  0  3  0  0  0  0  0  0
  183.1050  178.1380  137.4920 O   0  0  0  0  0  0  0  0  0  0  0  0
  182.0910  177.8830  138.4160 C   0  0  0  0  0  2  0  0  0  0  0  0
  180.8550  177.4020  137.6880 C   0  0  0  0  0  2  0  0  0  0  0  0
  179.8940  178.5580  137.5130 C   0  0  0  0  0  1  0  0  0  0  0  0
  188.9520  178.0960  137.3740 C   0  0  2  0  0  3  0  0  0  0  0  0
  188.8120  179.4760  137.1840 O   0  0  0  0  0  1  0  0  0  0  0  0
  189.3400  177.4280  136.0480 C   0  0  0  0  0  2  0  0  0  0  0  0
  190.6100  176.5950  136.1600 C   0  0  0  0  0  2  0  0  0  0  0  0
  190.5260  175.3410  135.2970 C   0  0  0  0  0  2  0  0  0  0  0  0
  190.2370  173.9740  137.2360 O   0  0  0  0  0  1  0  0  0  0  0  0
  190.9440  174.0650  136.0340 C   0  0  2  0  0  3  0  0  0  0  0  0
  194.4740  172.7110  135.5220 C   0  0  0  0  0  2  0  0  0  0  0  0
  193.0690  172.5840  136.0900 C   0  0  2  0  0  3  0  0  0  0  0  0
  192.3130  171.7920  135.2250 O   0  0  0  0  0  1  0  0  0  0  0  0
  195.6920  172.8210  136.8220 S   0  0  0  0  0  0  0  0  0  0  0  0
  196.0720  171.4340  137.2530 O   0  0  0  0  0  0  0  0  0  0  0  0
  192.7960  174.5070  137.6810 C   0  0  0  0  0  2  0  0  0  0  0  0
  195.0960  173.7210  138.2400 C   0  0  0  0  0  2  0  0  0  0  0  0
  192.4670  173.9920  136.2770 C   0  0  2  0  0  3  0  0  0  0  0  0
  194.2550  174.9130  137.8150 C   0  0  0  0  0  2  0  0  0  0  0  0
  196.9090  173.5160  136.2830 O   0  0  0  0  0  0  0  0  0  0  0  0
  187.9870  177.4060  139.6270 C   0  0  0  0  0  2  0  0  0  0  0  0
  189.4520  177.6410  140.0030 C   0  0  2  0  0  3  0  0  0  0  0  0
  190.3420  176.4580  139.6360 C   0  0  0  0  0  1  0  0  0  0  0  0
  189.6160  178.1650  141.3160 O   0  0  0  0  0  0  0  0  0  0  0  0
  189.4810  177.1970  142.3550 C   0  0  2  0  0  3  0  0  0  0  0  0
  185.2870  178.4160  143.2770 C   0  0  0  0  0  3  0  0  0  0  0  0
  189.4060  177.7970  147.4540 C   0  0  0  0  0  1  0  0  0  0  0  0
  187.2300  177.5830  146.3610 C   0  0  0  0  0  2  0  0  0  0  0  0
  188.6500  178.0970  146.1690 C   0  0  2  0  0  3  0  0  0  0  0  0
  187.3080  177.0620  143.5470 C   0  0  0  0  0  2  0  0  0  0  0  0
  184.8340  178.2520  146.1130 C   0  0  0  0  0  2  0  0  0  0  0  0
  188.6820  177.7320  143.5700 C   0  0  1  0  0  3  0  0  0  0  0  0
  189.3880  177.4960  144.9400 C   0  0  1  0  0  3  0  0  0  0  0  0
  184.2240  179.3180  143.8370 C   0  0  0  0  0  2  0  0  0  0  0  0
  183.7180  178.7830  145.1840 C   0  0  0  0  0  2  0  0  0  0  0  0
  186.2470  178.3960  145.5340 C   0  0  2  0  0  3  0  0  0  0  0  0
  186.2620  177.9830  144.0830 C   0  0  0  0  0  0  0  0  0  0  0  0
  190.8420  177.9910  144.9300 C   0  0  0  0  0  2  0  0  0  0  0  0
  190.9700  179.3920  144.3450 C   0  0  0  0  0  1  0  0  0  0  0  0
  190.7110  176.6210  142.7130 O   0  0  0  0  0  0  0  0  0  0  0  0
  190.4290  175.2670  142.9230 C   0  0  0  0  0  2  0  0  0  0  0  0
  191.4210  174.6970  143.7220 O   0  0  0  0  0  1  0  0  0  0  0  0
  1  2  1  6  0  0  0
  1 30  1  0  0  0  0
  3  1  1  1  0  0  0
  3  7  1  0  0  0  0
  4  3  1  0  0  0  0
  4  8  1  0  0  0  0
  6  4  2  0  0  0  0
  7  5  1  0  0  0  0
  8  9  1  6  0  0  0
  8  5  1  0  0  0  0
  9 10  1  0  0  0  0
 11 10  1  0  0  0  0
 12 11  1  0  0  0  0
 13 14  1  6  0  0  0
 13  1  1  0  0  0  0
 15 16  1  0  0  0  0
 15 13  1  0  0  0  0
 17 19  1  0  0  0  0
 17 16  1  0  0  0  0
 19 18  1  1  0  0  0
 20 21  1  0  0  0  0
 20 23  1  0  0  0  0
 21 22  1  6  0  0  0
 21 27  1  0  0  0  0
 23 24  2  0  0  0  0
 23 26  1  0  0  0  0
 25 28  1  0  0  0  0
 27 19  1  1  0  0  0
 27 25  1  0  0  0  0
 28 26  1  0  0  0  0
 29 23  2  0  0  0  0
 30 31  1  0  0  0  0
 31 32  1  1  0  0  0
 31 33  1  0  0  0  0
 34 33  1  6  0  0  0
 34 49  1  0  0  0  0
 35 43  1  0  0  0  0
 35 46  2  0  0  0  0
 38 37  1  0  0  0  0
 38 36  1  1  0  0  0
 39 41  1  0  0  0  0
 39 46  1  0  0  0  0
 41 34  1  6  0  0  0
 41 42  1  0  0  0  0
 42 47  1  6  0  0  0
 42 38  1  0  0  0  0
 43 44  1  0  0  0  0
 44 40  1  0  0  0  0
 45 40  1  1  0  0  0
 45 37  1  0  0  0  0
 46 45  1  0  0  0  0
 48 47  1  0  0  0  0
 49 50  1  0  0  0  0
 50 51  1  0  0  0  0
M  END
>  <MODEL>
1

>  <REMARK>
 VINA RESULT:      -7.6      0.000      0.000
  Name = 
  18 active torsions:
  status: ('A' for Active; 'I' for Inactive)
    1  A    between atoms: C_1  and  C_4
    2  A    between atoms: C_1  and  C_10
    3  A    between atoms: C_4  and  C_9
    4  A    between atoms: C_5  and  C_9
    5  A    between atoms: C_9  and  C_38
    6  A    between atoms: C_10  and  C_43
    7  A    between atoms: C_11  and  O_15
    8  A    between atoms: C_11  and  C_38
    9  A    between atoms: O_15  and  C_26
   10  A    between atoms: O_18  and  C_19
   11  A    between atoms: O_18  and  C_45
   12  A    between atoms: C_19  and  C_21
   13  A    between atoms: C_22  and  O_47
   14  A    between atoms: C_26  and  C_34
   15  A    between atoms: C_26  and  O_47
   16  A    between atoms: C_29  and  C_35
   17  A    between atoms: C_37  and  C_50
   18  A    between atoms: C_43  and  C_50
                            x       y       z     vdW  Elec       q    Type
                         _______ _______ _______ _____ _____    ______ ____

>  <TORSDO>
F 18

$$$$
=
 OpenBabel11032420493D

 51 54  0  0  1  0  0  0  0  0999 V2000
  188.8380  177.4730  142.8320 C   0  0  2  0  0  0  0  0  0  0  0  0
  188.9770  175.9530  142.7150 C   0  0  0  0  0  1  0  0  0  0  0  0
  189.8050  178.0310  143.9210 C   0  0  1  0  0  3  0  0  0  0  0  0
  189.8430  177.2750  145.1800 C   0  0  0  0  0  0  0  0  0  0  0  0
  191.8990  176.8580  144.1980 O   0  0  0  0  0  0  0  0  0  0  0  0
  188.9710  177.3070  146.0320 O   0  0  0  0  0  0  0  0  0  0  0  0
  191.2690  177.9220  143.5060 C   0  0  0  0  0  2  0  0  0  0  0  0
  191.1420  176.6010  145.3590 C   0  0  1  0  0  3  0  0  0  0  0  0
  191.8010  177.1250  146.4730 O   0  0  0  0  0  0  0  0  0  0  0  0
  191.5140  176.2350  147.5090 C   0  0  0  0  0  2  0  0  0  0  0  0
  192.8040  175.6580  148.0500 C   0  0  0  0  0  2  0  0  0  0  0  0
  193.2460  176.4600  149.2550 C   0  0  0  0  0  1  0  0  0  0  0  0
  187.3590  177.8410  143.1620 C   0  0  2  0  0  3  0  0  0  0  0  0
  186.6470  176.7520  143.6790 O   0  0  0  0  0  1  0  0  0  0  0  0
  186.5630  178.4840  142.0190 C   0  0  0  0  0  2  0  0  0  0  0  0
  185.3280  179.2280  142.5090 C   0  0  0  0  0  2  0  0  0  0  0  0
  184.0600  178.6810  141.8630 C   0  0  0  0  0  2  0  0  0  0  0  0
  183.9690  179.7590  139.7310 O   0  0  0  0  0  1  0  0  0  0  0  0
  184.1720  178.5180  140.3440 C   0  0  2  0  0  3  0  0  0  0  0  0
  183.1240  175.6120  138.1070 C   0  0  0  0  0  2  0  0  0  0  0  0
  183.4500  177.0830  138.3130 C   0  0  2  0  0  3  0  0  0  0  0  0
  184.7730  177.3020  137.9250 O   0  0  0  0  0  1  0  0  0  0  0  0
  181.4160  175.3830  137.6460 S   0  0  0  0  0  0  0  0  0  0  0  0
  181.2850  175.5430  136.1590 O   0  0  0  0  0  0  0  0  0  0  0  0
  181.7540  177.9360  139.9550 C   0  0  0  0  0  2  0  0  0  0  0  0
  180.3320  176.5480  138.4470 C   0  0  0  0  0  2  0  0  0  0  0  0
  183.1980  177.4580  139.7870 C   0  0  2  0  0  3  0  0  0  0  0  0
  180.7580  176.7890  139.8860 C   0  0  0  0  0  2  0  0  0  0  0  0
  180.9980  173.9910  138.0260 O   0  0  0  0  0  0  0  0  0  0  0  0
  189.2460  178.0640  141.4670 C   0  0  0  0  0  2  0  0  0  0  0  0
  189.9290  177.0520  140.5450 C   0  0  2  0  0  3  0  0  0  0  0  0
  191.3760  177.4270  140.2420 C   0  0  0  0  0  1  0  0  0  0  0  0
  189.1290  176.6850  139.4260 O   0  0  0  0  0  0  0  0  0  0  0  0
  189.8690  176.1810  138.3160 C   0  0  2  0  0  3  0  0  0  0  0  0
  188.0450  172.4530  136.6710 C   0  0  0  0  0  3  0  0  0  0  0  0
  186.5920  177.8280  134.7230 C   0  0  0  0  0  1  0  0  0  0  0  0
  186.2760  175.5310  135.4980 C   0  0  0  0  0  2  0  0  0  0  0  0
  187.3270  176.6050  135.2500 C   0  0  2  0  0  3  0  0  0  0  0  0
  187.9950  174.7030  137.6330 C   0  0  0  0  0  2  0  0  0  0  0  0
  185.7630  173.1250  135.0540 C   0  0  0  0  0  2  0  0  0  0  0  0
  188.9610  175.7750  137.1270 C   0  0  1  0  0  3  0  0  0  0  0  0
  188.1810  176.9680  136.4970 C   0  0  1  0  0  3  0  0  0  0  0  0
  187.6860  171.4790  135.5850 C   0  0  0  0  0  2  0  0  0  0  0  0
  186.2180  171.6520  135.1710 C   0  0  0  0  0  2  0  0  0  0  0  0
  186.8760  174.1430  135.3340 C   0  0  2  0  0  3  0  0  0  0  0  0
  187.6700  173.7310  136.5480 C   0  0  0  0  0  0  0  0  0  0  0  0
  189.1080  178.1430  136.1520 C   0  0  0  0  0  2  0  0  0  0  0  0
  188.9810  179.2880  137.1490 C   0  0  0  0  0  1  0  0  0  0  0  0
  190.7740  175.1740  138.6890 O   0  0  0  0  0  0  0  0  0  0  0  0
  191.5420  174.9350  137.5450 C   0  0  0  0  0  2  0  0  0  0  0  0
  192.4180  176.0000  137.3310 O   0  0  0  0  0  1  0  0  0  0  0  0
  1  2  1  6  0  0  0
  1 13  1  0  0  0  0
  3  1  1  6  0  0  0
  3  4  1  0  0  0  0
  4  8  1  0  0  0  0
  4  6  2  0  0  0  0
  5  8  1  0  0  0  0
  7  3  1  0  0  0  0
  7  5  1  0  0  0  0
  8  9  1  1  0  0  0
  9 10  1  0  0  0  0
 10 11  1  0  0  0  0
 11 12  1  0  0  0  0
 13 14  1  6  0  0  0
 15 16  1  0  0  0  0
 15 13  1  0  0  0  0
 17 16  1  0  0  0  0
 19 18  1  6  0  0  0
 19 17  1  0  0  0  0
 20 21  1  0  0  0  0
 21 22  1  1  0  0  0
 21 27  1  0  0  0  0
 23 29  2  0  0  0  0
 23 20  1  0  0  0  0
 23 26  1  0  0  0  0
 24 23  2  0  0  0  0
 26 28  1  0  0  0  0
 27 25  1  0  0  0  0
 27 19  1  6  0  0  0
 28 25  1  0  0  0  0
 30  1  1  0  0  0  0
 31 32  1  6  0  0  0
 31 30  1  0  0  0  0
 33 31  1  0  0  0  0
 34 49  1  1  0  0  0
 34 33  1  0  0  0  0
 38 36  1  1  0  0  0
 38 37  1  0  0  0  0
 38 42  1  0  0  0  0
 40 44  1  0  0  0  0
 41 39  1  0  0  0  0
 41 34  1  1  0  0  0
 42 47  1  6  0  0  0
 42 41  1  0  0  0  0
 43 35  1  0  0  0  0
 44 43  1  0  0  0  0
 45 40  1  1  0  0  0
 45 37  1  0  0  0  0
 45 46  1  0  0  0  0
 46 35  2  0  0  0  0
 46 39  1  0  0  0  0
 47 48  1  0  0  0  0
 50 49  1  0  0  0  0
 51 50  1  0  0  0  0
M  END
>  <MODEL>
2

>  <REMARK>
 VINA RESULT:      -7.6      3.211     10.102
  Name = 
  18 active torsions:
  status: ('A' for Active; 'I' for Inactive)
    1  A    between atoms: C_1  and  C_4
    2  A    between atoms: C_1  and  C_10
    3  A    between atoms: C_4  and  C_9
    4  A    between atoms: C_5  and  C_9
    5  A    between atoms: C_9  and  C_38
    6  A    between atoms: C_10  and  C_43
    7  A    between atoms: C_11  and  O_15
    8  A    between atoms: C_11  and  C_38
    9  A    between atoms: O_15  and  C_26
   10  A    between atoms: O_18  and  C_19
   11  A    between atoms: O_18  and  C_45
   12  A    between atoms: C_19  and  C_21
   13  A    between atoms: C_22  and  O_47
   14  A    between atoms: C_26  and  C_34
   15  A    between atoms: C_26  and  O_47
   16  A    between atoms: C_29  and  C_35
   17  A    between atoms: C_37  and  C_50
   18  A    between atoms: C_43  and  C_50
                            x       y       z     vdW  Elec       q    Type
                         _______ _______ _______ _____ _____    ______ ____

>  <TORSDO>
F 18

$$$$
=
 OpenBabel11032420493D

 51 54  0  0  1  0  0  0  0  0999 V2000
  188.3770  177.4630  138.2480 C   0  0  2  0  0  0  0  0  0  0  0  0
  189.4320  178.5500  138.4680 C   0  0  0  0  0  1  0  0  0  0  0  0
  188.7780  176.5430  137.0540 C   0  0  1  0  0  3  0  0  0  0  0  0
  189.9730  176.9580  136.3090 C   0  0  0  0  0  0  0  0  0  0  0  0
  190.6340  175.0440  137.4310 O   0  0  0  0  0  0  0  0  0  0  0  0
  190.0060  177.8870  135.5190 O   0  0  0  0  0  0  0  0  0  0  0  0
  189.2240  175.1590  137.5140 C   0  0  0  0  0  2  0  0  0  0  0  0
  191.0840  176.0120  136.5110 C   0  0  1  0  0  3  0  0  0  0  0  0
  191.4080  175.3920  135.3020 O   0  0  0  0  0  0  0  0  0  0  0  0
  192.6990  175.8330  135.0100 C   0  0  0  0  0  2  0  0  0  0  0  0
  193.6440  175.3910  136.1060 C   0  0  0  0  0  2  0  0  0  0  0  0
  194.5500  174.3000  135.5780 C   0  0  0  0  0  1  0  0  0  0  0  0
  186.9870  178.1240  137.9970 C   0  0  2  0  0  3  0  0  0  0  0  0
  187.0940  179.3260  137.2880 O   0  0  0  0  0  1  0  0  0  0  0  0
  186.1160  178.3340  139.2430 C   0  0  0  0  0  2  0  0  0  0  0  0
  184.6880  178.7360  138.9000 C   0  0  0  0  0  2  0  0  0  0  0  0
  184.1200  177.8640  137.7860 C   0  0  0  0  0  2  0  0  0  0  0  0
  182.0490  178.1100  136.6190 O   0  0  0  0  0  1  0  0  0  0  0  0
  182.5970  177.7160  137.8430 C   0  0  2  0  0  3  0  0  0  0  0  0
  181.4150  178.2310  141.4330 C   0  0  0  0  0  2  0  0  0  0  0  0
  181.2460  177.6200  140.0510 C   0  0  2  0  0  3  0  0  0  0  0  0
  181.7450  176.3160  140.0810 O   0  0  0  0  0  1  0  0  0  0  0  0
  180.0910  179.3700  141.8040 S   0  0  0  0  0  0  0  0  0  0  0  0
  178.9310  178.6020  142.3680 O   0  0  0  0  0  0  0  0  0  0  0  0
  180.9960  179.5540  138.4710 C   0  0  0  0  0  2  0  0  0  0  0  0
  179.5430  180.2700  140.3680 C   0  0  0  0  0  2  0  0  0  0  0  0
  181.9680  178.5030  139.0130 C   0  0  2  0  0  3  0  0  0  0  0  0
  180.7180  180.6540  139.4840 C   0  0  0  0  0  2  0  0  0  0  0  0
  180.5750  180.3490  142.8350 O   0  0  0  0  0  0  0  0  0  0  0  0
  188.3410  176.6100  139.5330 C   0  0  0  0  0  2  0  0  0  0  0  0
  189.3190  177.0880  140.6080 C   0  0  2  0  0  3  0  0  0  0  0  0
  190.7730  176.8330  140.2240 C   0  0  0  0  0  1  0  0  0  0  0  0
  188.9400  176.6980  141.9230 O   0  0  0  0  0  0  0  0  0  0  0  0
  189.5070  177.4980  142.9590 C   0  0  2  0  0  3  0  0  0  0  0  0
  185.2750  178.9010  143.1680 C   0  0  0  0  0  3  0  0  0  0  0  0
  188.2950  177.1910  147.9390 C   0  0  0  0  0  1  0  0  0  0  0  0
  186.4190  177.3680  146.3810 C   0  0  0  0  0  2  0  0  0  0  0  0
  187.8680  177.7790  146.6030 C   0  0  2  0  0  3  0  0  0  0  0  0
  187.1150  177.3470  143.6040 C   0  0  0  0  0  2  0  0  0  0  0  0
  184.1770  178.2800  145.7540 C   0  0  0  0  0  2  0  0  0  0  0  0
  188.4770  177.8780  144.0520 C   0  0  1  0  0  3  0  0  0  0  0  0
  188.8390  177.3430  145.4710 C   0  0  1  0  0  3  0  0  0  0  0  0
  184.1560  179.7810  143.6480 C   0  0  0  0  0  2  0  0  0  0  0  0
  183.3300  179.0630  144.7250 C   0  0  0  0  0  2  0  0  0  0  0  0
  185.6900  178.3980  145.5320 C   0  0  2  0  0  3  0  0  0  0  0  0
  186.0190  178.2480  144.0680 C   0  0  0  0  0  0  0  0  0  0  0  0
  190.2780  177.7010  145.8700 C   0  0  0  0  0  2  0  0  0  0  0  0
  191.0610  176.4870  146.3540 C   0  0  0  0  0  1  0  0  0  0  0  0
  190.2140  178.6020  142.4560 O   0  0  0  0  0  0  0  0  0  0  0  0
  191.4800  178.5210  143.0450 C   0  0  0  0  0  2  0  0  0  0  0  0
  191.6610  179.5880  143.9250 O   0  0  0  0  0  1  0  0  0  0  0  0
  1  2  1  1  0  0  0
  1 30  1  0  0  0  0
  3  7  1  0  0  0  0
  3  1  1  1  0  0  0
  4  8  1  0  0  0  0
  4  3  1  0  0  0  0
  5  7  1  0  0  0  0
  6  4  2  0  0  0  0
  8  9  1  6  0  0  0
  8  5  1  0  0  0  0
 10  9  1  0  0  0  0
 10 11  1  0  0  0  0
 12 11  1  0  0  0  0
 13 14  1  1  0  0  0
 13  1  1  0  0  0  0
 13 15  1  0  0  0  0
 16 15  1  0  0  0  0
 17 19  1  0  0  0  0
 17 16  1  0  0  0  0
 19 18  1  6  0  0  0
 20 23  1  0  0  0  0
 21 22  1  1  0  0  0
 21 20  1  0  0  0  0
 23 24  2  0  0  0  0
 23 29  2  0  0  0  0
 25 27  1  0  0  0  0
 25 28  1  0  0  0  0
 26 23  1  0  0  0  0
 27 19  1  6  0  0  0
 27 21  1  0  0  0  0
 28 26  1  0  0  0  0
 30 31  1  0  0  0  0
 31 32  1  6  0  0  0
 31 33  1  0  0  0  0
 34 33  1  6  0  0  0
 35 43  1  0  0  0  0
 35 46  2  0  0  0  0
 37 38  1  0  0  0  0
 38 36  1  1  0  0  0
 39 41  1  0  0  0  0
 39 46  1  0  0  0  0
 41 34  1  6  0  0  0
 41 42  1  0  0  0  0
 42 47  1  1  0  0  0
 42 38  1  0  0  0  0
 43 44  1  0  0  0  0
 44 40  1  0  0  0  0
 45 40  1  6  0  0  0
 45 37  1  0  0  0  0
 46 45  1  0  0  0  0
 47 48  1  0  0  0  0
 49 34  1  0  0  0  0
 49 50  1  0  0  0  0
 50 51  1  0  0  0  0
M  END
>  <MODEL>
3

>  <REMARK>
 VINA RESULT:      -7.4      3.167      8.398
  Name = 
  18 active torsions:
  status: ('A' for Active; 'I' for Inactive)
    1  A    between atoms: C_1  and  C_4
    2  A    between atoms: C_1  and  C_10
    3  A    between atoms: C_4  and  C_9
    4  A    between atoms: C_5  and  C_9
    5  A    between atoms: C_9  and  C_38
    6  A    between atoms: C_10  and  C_43
    7  A    between atoms: C_11  and  O_15
    8  A    between atoms: C_11  and  C_38
    9  A    between atoms: O_15  and  C_26
   10  A    between atoms: O_18  and  C_19
   11  A    between atoms: O_18  and  C_45
   12  A    between atoms: C_19  and  C_21
   13  A    between atoms: C_22  and  O_47
   14  A    between atoms: C_26  and  C_34
   15  A    between atoms: C_26  and  O_47
   16  A    between atoms: C_29  and  C_35
   17  A    between atoms: C_37  and  C_50
   18  A    between atoms: C_43  and  C_50
                            x       y       z     vdW  Elec       q    Type
                         _______ _______ _______ _____ _____    ______ ____

>  <TORSDO>
F 18

$$$$
=
 OpenBabel11032420493D

 51 54  0  0  1  0  0  0  0  0999 V2000
  182.8600  178.3390  138.7810 C   0  0  2  0  0  0  0  0  0  0  0  0
  183.6460  178.1240  137.4850 C   0  0  0  0  0  1  0  0  0  0  0  0
  181.4010  178.7960  138.4690 C   0  0  1  0  0  3  0  0  0  0  0  0
  180.9580  180.0130  139.1600 C   0  0  0  0  0  0  0  0  0  0  0  0
  181.1640  180.6550  136.9450 O   0  0  0  0  0  0  0  0  0  0  0  0
  180.6520  180.0650  140.3400 O   0  0  0  0  0  0  0  0  0  0  0  0
  181.2320  179.2420  137.0200 C   0  0  0  0  0  2  0  0  0  0  0  0
  180.7730  181.1280  138.2140 C   0  0  1  0  0  3  0  0  0  0  0  0
  179.4290  181.5050  138.1790 O   0  0  0  0  0  0  0  0  0  0  0  0
  179.4280  182.8550  138.5320 C   0  0  0  0  0  2  0  0  0  0  0  0
  179.5040  183.7040  137.2820 C   0  0  0  0  0  2  0  0  0  0  0  0
  180.8890  184.3040  137.1670 C   0  0  0  0  0  1  0  0  0  0  0  0
  183.5920  179.3890  139.6700 C   0  0  2  0  0  3  0  0  0  0  0  0
  184.2830  180.3380  138.9070 O   0  0  0  0  0  1  0  0  0  0  0  0
  184.5230  178.8150  140.7460 C   0  0  0  0  0  2  0  0  0  0  0  0
  183.9110  178.8640  142.1400 C   0  0  0  0  0  2  0  0  0  0  0  0
  184.6610  177.9550  143.1060 C   0  0  0  0  0  2  0  0  0  0  0  0
  185.0480  179.9850  144.3060 O   0  0  0  0  0  1  0  0  0  0  0  0
  184.9310  178.6020  144.4680 C   0  0  2  0  0  3  0  0  0  0  0  0
  187.0630  177.5760  147.4600 C   0  0  0  0  0  2  0  0  0  0  0  0
  186.4770  178.6400  146.5450 C   0  0  2  0  0  3  0  0  0  0  0  0
  185.3360  179.1670  147.1530 O   0  0  0  0  0  1  0  0  0  0  0  0
  188.8430  177.5240  147.3390 S   0  0  0  0  0  0  0  0  0  0  0  0
  189.4260  178.5420  148.2750 O   0  0  0  0  0  0  0  0  0  0  0  0
  187.4010  178.1630  144.2600 C   0  0  0  0  0  2  0  0  0  0  0  0
  189.4230  177.8590  145.6880 C   0  0  0  0  0  2  0  0  0  0  0  0
  186.1760  178.0170  145.1670 C   0  0  2  0  0  3  0  0  0  0  0  0
  188.5210  177.2120  144.6510 C   0  0  0  0  0  2  0  0  0  0  0  0
  189.3120  176.1570  147.7500 O   0  0  0  0  0  0  0  0  0  0  0  0
  182.8020  176.9750  139.4980 C   0  0  0  0  0  2  0  0  0  0  0  0
  182.2300  175.8530  138.6290 C   0  0  2  0  0  3  0  0  0  0  0  0
  180.9150  175.3080  139.1770 C   0  0  0  0  0  1  0  0  0  0  0  0
  183.2020  174.8850  138.2520 O   0  0  0  0  0  0  0  0  0  0  0  0
  183.1340  174.4860  136.8840 C   0  0  2  0  0  3  0  0  0  0  0  0
  186.6300  177.0680  135.8630 C   0  0  0  0  0  3  0  0  0  0  0  0
  186.8320  171.1790  135.5590 C   0  0  0  0  0  1  0  0  0  0  0  0
  187.5580  173.4520  136.0910 C   0  0  0  0  0  2  0  0  0  0  0  0
  186.4110  172.6400  135.5060 C   0  0  2  0  0  3  0  0  0  0  0  0
  185.5020  175.2220  137.0080 C   0  0  0  0  0  2  0  0  0  0  0  0
  188.9980  175.4480  135.6470 C   0  0  0  0  0  2  0  0  0  0  0  0
  184.5340  174.3210  136.2400 C   0  0  1  0  0  3  0  0  0  0  0  0
  185.0470  172.8490  136.2210 C   0  0  1  0  0  3  0  0  0  0  0  0
  187.7190  177.5920  134.9710 C   0  0  0  0  0  2  0  0  0  0  0  0
  189.0700  176.9620  135.3410 C   0  0  0  0  0  2  0  0  0  0  0  0
  187.5970  174.8460  135.4830 C   0  0  2  0  0  3  0  0  0  0  0  0
  186.5610  175.7530  136.1000 C   0  0  0  0  0  0  0  0  0  0  0  0
  184.0090  171.8860  135.6250 C   0  0  0  0  0  2  0  0  0  0  0  0
  183.4070  170.9650  136.6780 C   0  0  0  0  0  1  0  0  0  0  0  0
  182.2720  175.3000  136.1320 O   0  0  0  0  0  0  0  0  0  0  0  0
  181.5750  174.4170  135.3000 C   0  0  0  0  0  2  0  0  0  0  0  0
  180.7660  173.5810  136.0700 O   0  0  0  0  0  1  0  0  0  0  0  0
  1  2  1  6  0  0  0
  1 30  1  0  0  0  0
  1 13  1  0  0  0  0
  3  1  1  6  0  0  0
  3  4  1  0  0  0  0
  4  6  2  0  0  0  0
  5  7  1  0  0  0  0
  5  8  1  0  0  0  0
  7  3  1  0  0  0  0
  8  9  1  6  0  0  0
  8  4  1  0  0  0  0
  9 10  1  0  0  0  0
 11 10  1  0  0  0  0
 12 11  1  0  0  0  0
 13 14  1  6  0  0  0
 13 15  1  0  0  0  0
 15 16  1  0  0  0  0
 16 17  1  0  0  0  0
 17 19  1  0  0  0  0
 19 18  1  6  0  0  0
 21 22  1  1  0  0  0
 21 20  1  0  0  0  0
 23 20  1  0  0  0  0
 23 29  2  0  0  0  0
 23 24  2  0  0  0  0
 25 28  1  0  0  0  0
 25 27  1  0  0  0  0
 26 23  1  0  0  0  0
 27 19  1  6  0  0  0
 27 21  1  0  0  0  0
 28 26  1  0  0  0  0
 31 32  1  1  0  0  0
 31 30  1  0  0  0  0
 33 31  1  0  0  0  0
 34 49  1  6  0  0  0
 34 33  1  0  0  0  0
 35 46  2  0  0  0  0
 38 36  1  1  0  0  0
 38 37  1  0  0  0  0
 38 42  1  0  0  0  0
 41 34  1  1  0  0  0
 41 39  1  0  0  0  0
 42 47  1  6  0  0  0
 42 41  1  0  0  0  0
 43 44  1  0  0  0  0
 43 35  1  0  0  0  0
 44 40  1  0  0  0  0
 45 40  1  1  0  0  0
 45 37  1  0  0  0  0
 45 46  1  0  0  0  0
 46 39  1  0  0  0  0
 47 48  1  0  0  0  0
 50 51  1  0  0  0  0
 50 49  1  0  0  0  0
M  END
>  <MODEL>
4

>  <REMARK>
 VINA RESULT:      -7.4      4.779      9.862
  Name = 
  18 active torsions:
  status: ('A' for Active; 'I' for Inactive)
    1  A    between atoms: C_1  and  C_4
    2  A    between atoms: C_1  and  C_10
    3  A    between atoms: C_4  and  C_9
    4  A    between atoms: C_5  and  C_9
    5  A    between atoms: C_9  and  C_38
    6  A    between atoms: C_10  and  C_43
    7  A    between atoms: C_11  and  O_15
    8  A    between atoms: C_11  and  C_38
    9  A    between atoms: O_15  and  C_26
   10  A    between atoms: O_18  and  C_19
   11  A    between atoms: O_18  and  C_45
   12  A    between atoms: C_19  and  C_21
   13  A    between atoms: C_22  and  O_47
   14  A    between atoms: C_26  and  C_34
   15  A    between atoms: C_26  and  O_47
   16  A    between atoms: C_29  and  C_35
   17  A    between atoms: C_37  and  C_50
   18  A    between atoms: C_43  and  C_50
                            x       y       z     vdW  Elec       q    Type
                         _______ _______ _______ _____ _____    ______ ____

>  <TORSDO>
F 18

$$$$
=
 OpenBabel11032420493D

 51 54  0  0  1  0  0  0  0  0999 V2000
  188.8880  177.7800  137.8930 C   0  0  2  0  0  0  0  0  0  0  0  0
  188.4650  179.1010  137.2440 C   0  0  0  0  0  1  0  0  0  0  0  0
  189.9390  178.0340  139.0170 C   0  0  1  0  0  3  0  0  0  0  0  0
  189.4550  177.8430  140.3900 C   0  0  0  0  0  0  0  0  0  0  0  0
  190.9070  176.0730  140.0430 O   0  0  0  0  0  0  0  0  0  0  0  0
  188.7300  178.6250  140.9830 O   0  0  0  0  0  0  0  0  0  0  0  0
  191.0700  177.0110  138.9940 C   0  0  0  0  0  2  0  0  0  0  0  0
  190.0870  176.6700  141.0210 C   0  0  1  0  0  3  0  0  0  0  0  0
  190.8700  177.0750  142.1040 O   0  0  0  0  0  0  0  0  0  0  0  0
  190.3750  176.3540  143.1920 C   0  0  0  0  0  2  0  0  0  0  0  0
  190.7700  177.0460  144.4780 C   0  0  0  0  0  2  0  0  0  0  0  0
  190.3640  178.5020  144.4100 C   0  0  0  0  0  1  0  0  0  0  0  0
  189.4600  176.8220  136.8050 C   0  0  2  0  0  3  0  0  0  0  0  0
  189.4410  177.3980  135.5290 O   0  0  0  0  0  1  0  0  0  0  0  0
  188.8280  175.4250  136.7500 C   0  0  0  0  0  2  0  0  0  0  0  0
  189.8220  174.3170  137.0690 C   0  0  0  0  0  2  0  0  0  0  0  0
  190.9180  174.2360  136.0120 C   0  0  0  0  0  2  0  0  0  0  0  0
  192.6900  175.7840  135.5890 O   0  0  0  0  0  1  0  0  0  0  0  0
  192.2630  174.7980  136.4840 C   0  0  2  0  0  3  0  0  0  0  0  0
  195.1370  173.0120  138.2430 C   0  0  0  0  0  2  0  0  0  0  0  0
  194.5950  174.1680  137.4170 C   0  0  2  0  0  3  0  0  0  0  0  0
  194.3360  175.2400  138.2720 O   0  0  0  0  0  1  0  0  0  0  0  0
  196.3190  172.0490  137.3160 S   0  0  0  0  0  0  0  0  0  0  0  0
  197.6750  172.6820  137.4470 O   0  0  0  0  0  0  0  0  0  0  0  0
  193.7400  173.1460  135.2890 C   0  0  0  0  0  2  0  0  0  0  0  0
  195.9010  171.9380  135.5870 C   0  0  0  0  0  2  0  0  0  0  0  0
  193.3360  173.7030  136.6570 C   0  0  2  0  0  3  0  0  0  0  0  0
  194.4020  171.7820  135.3980 C   0  0  0  0  0  2  0  0  0  0  0  0
  196.3690  170.6640  137.8930 O   0  0  0  0  0  0  0  0  0  0  0  0
  187.6240  177.1720  138.5330 C   0  0  0  0  0  2  0  0  0  0  0  0
  186.3230  177.7950  138.0220 C   0  0  2  0  0  3  0  0  0  0  0  0
  186.4640  178.3550  136.6100 C   0  0  0  0  0  1  0  0  0  0  0  0
  185.6980  178.6470  138.9750 O   0  0  0  0  0  0  0  0  0  0  0  0
  184.3550  178.2850  139.2940 C   0  0  2  0  0  3  0  0  0  0  0  0
  186.7300  177.6640  143.0220 C   0  0  0  0  0  3  0  0  0  0  0  0
  181.0940  179.4050  143.0980 C   0  0  0  0  0  1  0  0  0  0  0  0
  183.4660  179.3620  143.6890 C   0  0  0  0  0  2  0  0  0  0  0  0
  182.4220  178.7390  142.7720 C   0  0  2  0  0  3  0  0  0  0  0  0
  185.2720  178.9210  141.5110 C   0  0  0  0  0  2  0  0  0  0  0  0
  185.3150  178.7770  145.2660 C   0  0  0  0  0  2  0  0  0  0  0  0
  184.0990  178.2240  140.8210 C   0  0  1  0  0  3  0  0  0  0  0  0
  182.7440  178.8600  141.2570 C   0  0  1  0  0  3  0  0  0  0  0  0
  187.0210  177.0550  144.3640 C   0  0  0  0  0  2  0  0  0  0  0  0
  186.6500  178.0300  145.4910 C   0  0  0  0  0  2  0  0  0  0  0  0
  184.5860  178.3750  143.9780 C   0  0  2  0  0  3  0  0  0  0  0  0
  185.5610  178.2860  142.8310 C   0  0  0  0  0  0  0  0  0  0  0  0
  181.5630  178.3130  140.4410 C   0  0  0  0  0  2  0  0  0  0  0  0
  180.8460  179.4070  139.6610 C   0  0  0  0  0  1  0  0  0  0  0  0
  183.9370  177.1290  138.6160 O   0  0  0  0  0  0  0  0  0  0  0  0
  183.1370  177.5920  137.5670 C   0  0  0  0  0  2  0  0  0  0  0  0
  183.1270  176.6580  136.5310 O   0  0  0  0  0  1  0  0  0  0  0  0
  1  2  1  6  0  0  0
  1 30  1  0  0  0  0
  3  1  1  6  0  0  0
  3  4  1  0  0  0  0
  4  6  2  0  0  0  0
  4  8  1  0  0  0  0
  5  8  1  0  0  0  0
  7  3  1  0  0  0  0
  7  5  1  0  0  0  0
  8  9  1  1  0  0  0
  9 10  1  0  0  0  0
 10 11  1  0  0  0  0
 12 11  1  0  0  0  0
 13 14  1  6  0  0  0
 13  1  1  0  0  0  0
 15 13  1  0  0  0  0
 15 16  1  0  0  0  0
 17 19  1  0  0  0  0
 17 16  1  0  0  0  0
 19 18  1  6  0  0  0
 21 20  1  0  0  0  0
 21 22  1  1  0  0  0
 23 24  2  0  0  0  0
 23 29  2  0  0  0  0
 23 20  1  0  0  0  0
 25 28  1  0  0  0  0
 25 27  1  0  0  0  0
 26 23  1  0  0  0  0
 27 19  1  6  0  0  0
 27 21  1  0  0  0  0
 28 26  1  0  0  0  0
 31 32  1  6  0  0  0
 31 30  1  0  0  0  0
 31 33  1  0  0  0  0
 33 34  1  0  0  0  0
 34 49  1  1  0  0  0
 35 43  1  0  0  0  0
 38 36  1  6  0  0  0
 38 37  1  0  0  0  0
 39 46  1  0  0  0  0
 40 44  1  0  0  0  0
 41 34  1  6  0  0  0
 41 42  1  0  0  0  0
 41 39  1  0  0  0  0
 42 47  1  6  0  0  0
 42 38  1  0  0  0  0
 43 44  1  0  0  0  0
 45 37  1  6  0  0  0
 45 40  1  0  0  0  0
 46 35  2  0  0  0  0
 46 45  1  0  0  0  0
 48 47  1  0  0  0  0
 50 49  1  0  0  0  0
 51 50  1  0  0  0  0
M  END
>  <MODEL>
5

>  <REMARK>
 VINA RESULT:      -7.3      1.605      5.817
  Name = 
  18 active torsions:
  status: ('A' for Active; 'I' for Inactive)
    1  A    between atoms: C_1  and  C_4
    2  A    between atoms: C_1  and  C_10
    3  A    between atoms: C_4  and  C_9
    4  A    between atoms: C_5  and  C_9
    5  A    between atoms: C_9  and  C_38
    6  A    between atoms: C_10  and  C_43
    7  A    between atoms: C_11  and  O_15
    8  A    between atoms: C_11  and  C_38
    9  A    between atoms: O_15  and  C_26
   10  A    between atoms: O_18  and  C_19
   11  A    between atoms: O_18  and  C_45
   12  A    between atoms: C_19  and  C_21
   13  A    between atoms: C_22  and  O_47
   14  A    between atoms: C_26  and  C_34
   15  A    between atoms: C_26  and  O_47
   16  A    between atoms: C_29  and  C_35
   17  A    between atoms: C_37  and  C_50
   18  A    between atoms: C_43  and  C_50
                            x       y       z     vdW  Elec       q    Type
                         _______ _______ _______ _____ _____    ______ ____

>  <TORSDO>
F 18

$$$$
=
 OpenBabel11032420493D

 51 54  0  0  1  0  0  0  0  0999 V2000
  188.5270  177.5970  138.0150 C   0  0  2  0  0  0  0  0  0  0  0  0
  189.4800  178.7360  138.3850 C   0  0  0  0  0  1  0  0  0  0  0  0
  189.0780  176.7960  136.7950 C   0  0  1  0  0  3  0  0  0  0  0  0
  189.2670  175.3560  137.0170 C   0  0  0  0  0  0  0  0  0  0  0  0
  187.4710  175.4810  135.5610 O   0  0  0  0  0  0  0  0  0  0  0  0
  190.1790  174.8710  137.6650 O   0  0  0  0  0  0  0  0  0  0  0  0
  188.0890  176.7540  135.6350 C   0  0  0  0  0  2  0  0  0  0  0  0
  188.3110  174.5640  136.2240 C   0  0  1  0  0  3  0  0  0  0  0  0
  188.9960  173.7920  135.2830 O   0  0  0  0  0  0  0  0  0  0  0  0
  188.7270  172.4710  135.6410 C   0  0  0  0  0  2  0  0  0  0  0  0
  187.4800  172.4230  136.4960 C   0  0  0  0  0  2  0  0  0  0  0  0
  186.4040  171.6440  135.7710 C   0  0  0  0  0  1  0  0  0  0  0  0
  187.1130  178.1760  137.7050 C   0  0  2  0  0  3  0  0  0  0  0  0
  187.1800  179.4280  137.0820 O   0  0  0  0  0  1  0  0  0  0  0  0
  186.1460  178.2420  138.8940 C   0  0  0  0  0  2  0  0  0  0  0  0
  184.7620  178.7390  138.4990 C   0  0  0  0  0  2  0  0  0  0  0  0
  184.1760  177.9010  137.3680 C   0  0  0  0  0  2  0  0  0  0  0  0
  182.0230  177.9920  136.3320 O   0  0  0  0  0  1  0  0  0  0  0  0
  182.6740  177.6390  137.5180 C   0  0  2  0  0  3  0  0  0  0  0  0
  181.7210  178.0780  141.1850 C   0  0  0  0  0  2  0  0  0  0  0  0
  181.5090  177.4370  139.8230 C   0  0  2  0  0  3  0  0  0  0  0  0
  182.1330  176.1880  139.8200 O   0  0  0  0  0  1  0  0  0  0  0  0
  180.3250  179.0870  141.6520 S   0  0  0  0  0  0  0  0  0  0  0  0
  179.2900  178.2180  142.3050 O   0  0  0  0  0  0  0  0  0  0  0  0
  180.9540  179.3210  138.2590 C   0  0  0  0  0  2  0  0  0  0  0  0
  179.5860  179.9140  140.2570 C   0  0  0  0  0  2  0  0  0  0  0  0
  182.0610  178.3740  138.7290 C   0  0  2  0  0  3  0  0  0  0  0  0
  180.6470  180.4000  139.2860 C   0  0  0  0  0  2  0  0  0  0  0  0
  180.7870  180.1210  142.6390 O   0  0  0  0  0  0  0  0  0  0  0  0
  188.4650  176.6530  139.2330 C   0  0  0  0  0  2  0  0  0  0  0  0
  189.3690  177.0890  140.3870 C   0  0  2  0  0  3  0  0  0  0  0  0
  190.8420  176.8060  140.1090 C   0  0  0  0  0  1  0  0  0  0  0  0
  188.8830  176.6860  141.6620 O   0  0  0  0  0  0  0  0  0  0  0  0
  189.5480  177.3010  142.7650 C   0  0  2  0  0  3  0  0  0  0  0  0
  185.3120  178.6820  143.0440 C   0  0  0  0  0  3  0  0  0  0  0  0
  188.5770  177.4650  147.8050 C   0  0  0  0  0  1  0  0  0  0  0  0
  186.6280  177.4760  146.3300 C   0  0  0  0  0  2  0  0  0  0  0  0
  188.0800  177.9180  146.4410 C   0  0  2  0  0  3  0  0  0  0  0  0
  187.1910  177.1930  143.5370 C   0  0  0  0  0  2  0  0  0  0  0  0
  184.3470  178.3040  145.7280 C   0  0  0  0  0  2  0  0  0  0  0  0
  188.5660  177.7760  143.8650 C   0  0  1  0  0  3  0  0  0  0  0  0
  189.0020  177.3830  145.3090 C   0  0  1  0  0  3  0  0  0  0  0  0
  184.2060  179.5950  143.4910 C   0  0  0  0  0  2  0  0  0  0  0  0
  183.4410  178.9780  144.6710 C   0  0  0  0  0  2  0  0  0  0  0  0
  185.8460  178.4130  145.4220 C   0  0  2  0  0  3  0  0  0  0  0  0
  186.1060  178.1250  143.9650 C   0  0  0  0  0  0  0  0  0  0  0  0
  190.4530  177.7900  145.6030 C   0  0  0  0  0  2  0  0  0  0  0  0
  191.2200  176.6980  146.3380 C   0  0  0  0  0  1  0  0  0  0  0  0
  190.4480  178.2990  142.3580 O   0  0  0  0  0  0  0  0  0  0  0  0
  191.7070  177.8340  142.7530 C   0  0  0  0  0  2  0  0  0  0  0  0
  191.6120  176.5050  143.1670 O   0  0  0  0  0  1  0  0  0  0  0  0
  1  2  1  1  0  0  0
  1 30  1  0  0  0  0
  3  4  1  0  0  0  0
  3  1  1  1  0  0  0
  4  6  2  0  0  0  0
  5  7  1  0  0  0  0
  5  8  1  0  0  0  0
  7  3  1  0  0  0  0
  8  9  1  6  0  0  0
  8  4  1  0  0  0  0
  9 10  1  0  0  0  0
 10 11  1  0  0  0  0
 12 11  1  0  0  0  0
 13 14  1  1  0  0  0
 13  1  1  0  0  0  0
 13 15  1  0  0  0  0
 16 15  1  0  0  0  0
 17 19  1  0  0  0  0
 17 16  1  0  0  0  0
 19 18  1  6  0  0  0
 20 23  1  0  0  0  0
 21 22  1  1  0  0  0
 21 20  1  0  0  0  0
 23 24  2  0  0  0  0
 23 29  2  0  0  0  0
 25 27  1  0  0  0  0
 25 28  1  0  0  0  0
 26 23  1  0  0  0  0
 27 19  1  6  0  0  0
 27 21  1  0  0  0  0
 28 26  1  0  0  0  0
 30 31  1  0  0  0  0
 31 32  1  6  0  0  0
 31 33  1  0  0  0  0
 34 33  1  6  0  0  0
 35 43  1  0  0  0  0
 35 46  2  0  0  0  0
 37 38  1  0  0  0  0
 38 36  1  1  0  0  0
 39 41  1  0  0  0  0
 39 46  1  0  0  0  0
 41 34  1  6  0  0  0
 41 42  1  0  0  0  0
 42 47  1  1  0  0  0
 42 38  1  0  0  0  0
 43 44  1  0  0  0  0
 44 40  1  0  0  0  0
 45 40  1  6  0  0  0
 45 37  1  0  0  0  0
 46 45  1  0  0  0  0
 47 48  1  0  0  0  0
 49 50  1  0  0  0  0
 49 34  1  0  0  0  0
 50 51  1  0  0  0  0
M  END
>  <MODEL>
6

>  <REMARK>
 VINA RESULT:      -7.2      3.467      7.812
  Name = 
  18 active torsions:
  status: ('A' for Active; 'I' for Inactive)
    1  A    between atoms: C_1  and  C_4
    2  A    between atoms: C_1  and  C_10
    3  A    between atoms: C_4  and  C_9
    4  A    between atoms: C_5  and  C_9
    5  A    between atoms: C_9  and  C_38
    6  A    between atoms: C_10  and  C_43
    7  A    between atoms: C_11  and  O_15
    8  A    between atoms: C_11  and  C_38
    9  A    between atoms: O_15  and  C_26
   10  A    between atoms: O_18  and  C_19
   11  A    between atoms: O_18  and  C_45
   12  A    between atoms: C_19  and  C_21
   13  A    between atoms: C_22  and  O_47
   14  A    between atoms: C_26  and  C_34
   15  A    between atoms: C_26  and  O_47
   16  A    between atoms: C_29  and  C_35
   17  A    between atoms: C_37  and  C_50
   18  A    between atoms: C_43  and  C_50
                            x       y       z     vdW  Elec       q    Type
                         _______ _______ _______ _____ _____    ______ ____

>  <TORSDO>
F 18

$$$$
=
 OpenBabel11032420493D

 51 54  0  0  1  0  0  0  0  0999 V2000
  183.4020  178.5550  140.0040 C   0  0  2  0  0  0  0  0  0  0  0  0
  182.2150  179.0440  139.1700 C   0  0  0  0  0  1  0  0  0  0  0  0
  183.5110  179.3670  141.3320 C   0  0  1  0  0  3  0  0  0  0  0  0
  182.7530  178.8270  142.4680 C   0  0  0  0  0  0  0  0  0  0  0  0
  184.9690  178.4560  143.0290 O   0  0  0  0  0  0  0  0  0  0  0  0
  181.5420  178.9100  142.5930 O   0  0  0  0  0  0  0  0  0  0  0  0
  184.9190  179.3330  141.9170 C   0  0  0  0  0  2  0  0  0  0  0  0
  183.6540  178.3160  143.5160 C   0  0  1  0  0  3  0  0  0  0  0  0
  183.5040  179.0690  144.6830 O   0  0  0  0  0  0  0  0  0  0  0  0
  184.7970  179.2070  145.1870 C   0  0  0  0  0  2  0  0  0  0  0  0
  184.9340  178.3920  146.4550 C   0  0  0  0  0  2  0  0  0  0  0  0
  186.3840  178.3770  146.8880 C   0  0  0  0  0  1  0  0  0  0  0  0
  184.7140  178.6770  139.1710 C   0  0  2  0  0  3  0  0  0  0  0  0
  184.9030  179.9710  138.6700 O   0  0  0  0  0  1  0  0  0  0  0  0
  184.8790  177.6550  138.0380 C   0  0  0  0  0  2  0  0  0  0  0  0
  186.1520  177.8730  137.2320 C   0  0  0  0  0  2  0  0  0  0  0  0
  187.3620  177.2640  137.9320 C   0  0  0  0  0  2  0  0  0  0  0  0
  189.4570  178.2010  137.2660 O   0  0  0  0  0  1  0  0  0  0  0  0
  188.4620  178.2830  138.2450 C   0  0  2  0  0  3  0  0  0  0  0  0
  190.9520  176.9550  140.8120 C   0  0  0  0  0  2  0  0  0  0  0  0
  189.7740  176.7520  139.8710 C   0  0  2  0  0  3  0  0  0  0  0  0
  190.2500  176.2070  138.6770 O   0  0  0  0  0  1  0  0  0  0  0  0
  190.4710  176.7190  142.5140 S   0  0  0  0  0  0  0  0  0  0  0  0
  190.5520  175.2570  142.8470 O   0  0  0  0  0  0  0  0  0  0  0  0
  187.9580  178.2680  140.7110 C   0  0  0  0  0  2  0  0  0  0  0  0
  188.8150  177.2920  142.8400 C   0  0  0  0  0  2  0  0  0  0  0  0
  189.0560  178.1010  139.6580 C   0  0  2  0  0  3  0  0  0  0  0  0
  188.5260  178.5790  142.0870 C   0  0  0  0  0  2  0  0  0  0  0  0
  191.4270  177.4740  143.3930 O   0  0  0  0  0  0  0  0  0  0  0  0
  183.1230  177.0800  140.3540 C   0  0  0  0  0  2  0  0  0  0  0  0
  182.0590  176.4340  139.4660 C   0  0  2  0  0  3  0  0  0  0  0  0
  180.6960  176.3670  140.1480 C   0  0  0  0  0  1  0  0  0  0  0  0
  182.5040  175.2370  138.8370 O   0  0  0  0  0  0  0  0  0  0  0  0
  181.8890  174.9720  137.5780 C   0  0  2  0  0  3  0  0  0  0  0  0
  186.1450  174.1490  136.5110 C   0  0  0  0  0  3  0  0  0  0  0  0
  181.7710  170.3970  135.2490 C   0  0  0  0  0  1  0  0  0  0  0  0
  183.9600  171.1520  136.0320 C   0  0  0  0  0  2  0  0  0  0  0  0
  182.6220  171.6340  135.4870 C   0  0  2  0  0  3  0  0  0  0  0  0
  183.9660  173.6160  137.4910 C   0  0  0  0  0  2  0  0  0  0  0  0
  186.4280  171.3980  135.7180 C   0  0  0  0  0  2  0  0  0  0  0  0
  182.6820  173.9450  136.7300 C   0  0  1  0  0  3  0  0  0  0  0  0
  181.8830  172.6460  136.4070 C   0  0  1  0  0  3  0  0  0  0  0  0
  187.2760  173.8380  135.5740 C   0  0  0  0  0  2  0  0  0  0  0  0
  187.6460  172.3490  135.6500 C   0  0  0  0  0  2  0  0  0  0  0  0
  185.0740  172.1160  135.6540 C   0  0  2  0  0  3  0  0  0  0  0  0
  185.0840  173.3340  136.5430 C   0  0  0  0  0  0  0  0  0  0  0  0
  180.5000  172.9540  135.8130 C   0  0  0  0  0  2  0  0  0  0  0  0
  179.3730  172.6540  136.7930 C   0  0  0  0  0  1  0  0  0  0  0  0
  181.5780  176.1470  136.8750 O   0  0  0  0  0  0  0  0  0  0  0  0
  182.4870  176.1850  135.8130 C   0  0  0  0  0  2  0  0  0  0  0  0
  181.9230  176.8630  134.7320 O   0  0  0  0  0  1  0  0  0  0  0  0
  1  2  1  6  0  0  0
  1 30  1  0  0  0  0
  3  1  1  6  0  0  0
  3  7  1  0  0  0  0
  3  4  1  0  0  0  0
  4  6  2  0  0  0  0
  4  8  1  0  0  0  0
  5  8  1  0  0  0  0
  7  5  1  0  0  0  0
  8  9  1  1  0  0  0
  9 10  1  0  0  0  0
 10 11  1  0  0  0  0
 11 12  1  0  0  0  0
 13 14  1  6  0  0  0
 13  1  1  0  0  0  0
 15 13  1  0  0  0  0
 16 17  1  0  0  0  0
 16 15  1  0  0  0  0
 17 19  1  0  0  0  0
 19 18  1  6  0  0  0
 20 23  1  0  0  0  0
 21 22  1  6  0  0  0
 21 20  1  0  0  0  0
 23 26  1  0  0  0  0
 23 24  2  0  0  0  0
 23 29  2  0  0  0  0
 25 28  1  0  0  0  0
 27 19  1  6  0  0  0
 27 21  1  0  0  0  0
 27 25  1  0  0  0  0
 28 26  1  0  0  0  0
 31 32  1  1  0  0  0
 31 30  1  0  0  0  0
 33 31  1  0  0  0  0
 34 49  1  6  0  0  0
 34 33  1  0  0  0  0
 35 46  2  0  0  0  0
 38 36  1  1  0  0  0
 38 37  1  0  0  0  0
 38 42  1  0  0  0  0
 41 39  1  0  0  0  0
 41 34  1  1  0  0  0
 42 47  1  6  0  0  0
 42 41  1  0  0  0  0
 43 44  1  0  0  0  0
 43 35  1  0  0  0  0
 44 40  1  0  0  0  0
 45 40  1  1  0  0  0
 45 37  1  0  0  0  0
 45 46  1  0  0  0  0
 46 39  1  0  0  0  0
 47 48  1  0  0  0  0
 50 49  1  0  0  0  0
 51 50  1  0  0  0  0
M  END
>  <MODEL>
7

>  <REMARK>
 VINA RESULT:      -7.1      3.409      9.007
  Name = 
  18 active torsions:
  status: ('A' for Active; 'I' for Inactive)
    1  A    between atoms: C_1  and  C_4
    2  A    between atoms: C_1  and  C_10
    3  A    between atoms: C_4  and  C_9
    4  A    between atoms: C_5  and  C_9
    5  A    between atoms: C_9  and  C_38
    6  A    between atoms: C_10  and  C_43
    7  A    between atoms: C_11  and  O_15
    8  A    between atoms: C_11  and  C_38
    9  A    between atoms: O_15  and  C_26
   10  A    between atoms: O_18  and  C_19
   11  A    between atoms: O_18  and  C_45
   12  A    between atoms: C_19  and  C_21
   13  A    between atoms: C_22  and  O_47
   14  A    between atoms: C_26  and  C_34
   15  A    between atoms: C_26  and  O_47
   16  A    between atoms: C_29  and  C_35
   17  A    between atoms: C_37  and  C_50
   18  A    between atoms: C_43  and  C_50
                            x       y       z     vdW  Elec       q    Type
                         _______ _______ _______ _____ _____    ______ ____

>  <TORSDO>
F 18

$$$$
=
 OpenBabel11032420493D

 51 54  0  0  1  0  0  0  0  0999 V2000
  188.7860  177.1680  137.7470 C   0  0  2  0  0  0  0  0  0  0  0  0
  188.2150  175.8440  138.2610 C   0  0  0  0  0  1  0  0  0  0  0  0
  190.3130  177.0310  137.4590 C   0  0  1  0  0  3  0  0  0  0  0  0
  191.0360  176.0800  138.3130 C   0  0  0  0  0  0  0  0  0  0  0  0
  191.0010  175.0680  136.2300 O   0  0  0  0  0  0  0  0  0  0  0  0
  191.3400  176.2880  139.4760 O   0  0  0  0  0  0  0  0  0  0  0  0
  190.5910  176.4170  136.0900 C   0  0  0  0  0  2  0  0  0  0  0  0
  191.4900  174.9080  137.5430 C   0  0  1  0  0  3  0  0  0  0  0  0
  192.8850  174.8640  137.5210 O   0  0  0  0  0  0  0  0  0  0  0  0
  193.1940  173.6650  136.8770 C   0  0  0  0  0  2  0  0  0  0  0  0
  194.1500  173.9360  135.7360 C   0  0  0  0  0  2  0  0  0  0  0  0
  195.3260  174.7400  136.2460 C   0  0  0  0  0  1  0  0  0  0  0  0
  188.5170  178.2950  138.7890 C   0  0  2  0  0  3  0  0  0  0  0  0
  189.3390  179.4100  138.5860 O   0  0  0  0  0  1  0  0  0  0  0  0
  188.5800  177.8680  140.2620 C   0  0  0  0  0  2  0  0  0  0  0  0
  187.6520  178.6860  141.1510 C   0  0  0  0  0  2  0  0  0  0  0  0
  187.8400  178.3300  142.6210 C   0  0  0  0  0  2  0  0  0  0  0  0
  188.3380  175.9920  142.5870 O   0  0  0  0  0  1  0  0  0  0  0  0
  188.8960  177.2450  142.8560 C   0  0  2  0  0  3  0  0  0  0  0  0
  191.6470  176.8910  145.4750 C   0  0  0  0  0  2  0  0  0  0  0  0
  190.6300  176.2830  144.5220 C   0  0  2  0  0  3  0  0  0  0  0  0
  191.2870  175.9260  143.3440 O   0  0  0  0  0  1  0  0  0  0  0  0
  191.2480  176.5190  147.1750 S   0  0  0  0  0  0  0  0  0  0  0  0
  191.8270  175.1800  147.5300 O   0  0  0  0  0  0  0  0  0  0  0  0
  188.3850  177.0800  145.3150 C   0  0  0  0  0  2  0  0  0  0  0  0
  189.4910  176.4830  147.4700 C   0  0  0  0  0  2  0  0  0  0  0  0
  189.4920  177.2950  144.2790 C   0  0  2  0  0  3  0  0  0  0  0  0
  188.7850  177.5820  146.6940 C   0  0  0  0  0  2  0  0  0  0  0  0
  191.8660  177.5670  148.0540 O   0  0  0  0  0  0  0  0  0  0  0  0
  188.0640  177.4800  136.4210 C   0  0  0  0  0  2  0  0  0  0  0  0
  186.7290  176.7480  136.2670 C   0  0  2  0  0  3  0  0  0  0  0  0
  186.6140  176.0250  134.9300 C   0  0  0  0  0  1  0  0  0  0  0  0
  185.6100  177.5400  136.6500 O   0  0  0  0  0  0  0  0  0  0  0  0
  184.7460  176.9150  137.5970 C   0  0  2  0  0  3  0  0  0  0  0  0
  184.7490  172.5020  136.9240 C   0  0  0  0  0  3  0  0  0  0  0  0
  180.0050  175.8640  135.9270 C   0  0  0  0  0  1  0  0  0  0  0  0
  181.3120  173.9610  136.7320 C   0  0  0  0  0  2  0  0  0  0  0  0
  181.4180  175.3150  136.0430 C   0  0  2  0  0  3  0  0  0  0  0  0
  183.8770  174.6010  137.8310 C   0  0  0  0  0  2  0  0  0  0  0  0
  182.0510  171.5800  136.5410 C   0  0  0  0  0  2  0  0  0  0  0  0
  183.8210  175.8510  136.9520 C   0  0  1  0  0  3  0  0  0  0  0  0
  182.3490  176.3290  136.7650 C   0  0  1  0  0  3  0  0  0  0  0  0
  184.5800  171.2500  136.1110 C   0  0  0  0  0  2  0  0  0  0  0  0
  183.2290  170.5870  136.4180 C   0  0  0  0  0  2  0  0  0  0  0  0
  182.4420  173.0420  136.2930 C   0  0  2  0  0  3  0  0  0  0  0  0
  183.7320  173.3670  137.0030 C   0  0  0  0  0  0  0  0  0  0  0  0
  182.2720  177.6860  136.0490 C   0  0  0  0  0  2  0  0  0  0  0  0
  181.4820  178.7150  136.8470 C   0  0  0  0  0  1  0  0  0  0  0  0
  184.0510  177.8470  138.3840 O   0  0  0  0  0  0  0  0  0  0  0  0
  185.0410  178.6710  138.9290 C   0  0  0  0  0  2  0  0  0  0  0  0
  184.5410  179.9630  139.0970 O   0  0  0  0  0  1  0  0  0  0  0  0
  1  2  1  1  0  0  0
  1 13  1  0  0  0  0
  3  1  1  1  0  0  0
  3  4  1  0  0  0  0
  4  6  2  0  0  0  0
  5  8  1  0  0  0  0
  7  5  1  0  0  0  0
  7  3  1  0  0  0  0
  8  9  1  6  0  0  0
  8  4  1  0  0  0  0
 10  9  1  0  0  0  0
 11 12  1  0  0  0  0
 11 10  1  0  0  0  0
 13 14  1  1  0  0  0
 13 15  1  0  0  0  0
 15 16  1  0  0  0  0
 16 17  1  0  0  0  0
 17 19  1  0  0  0  0
 19 18  1  1  0  0  0
 20 23  1  0  0  0  0
 21 22  1  6  0  0  0
 21 20  1  0  0  0  0
 23 26  1  0  0  0  0
 23 24  2  0  0  0  0
 23 29  2  0  0  0  0
 25 28  1  0  0  0  0
 27 19  1  6  0  0  0
 27 21  1  0  0  0  0
 27 25  1  0  0  0  0
 28 26  1  0  0  0  0
 30  1  1  0  0  0  0
 31 32  1  6  0  0  0
 31 30  1  0  0  0  0
 31 33  1  0  0  0  0
 34 33  1  6  0  0  0
 34 49  1  0  0  0  0
 35 46  2  0  0  0  0
 38 36  1  1  0  0  0
 38 37  1  0  0  0  0
 38 42  1  0  0  0  0
 41 34  1  1  0  0  0
 41 39  1  0  0  0  0
 42 47  1  6  0  0  0
 42 41  1  0  0  0  0
 43 44  1  0  0  0  0
 43 35  1  0  0  0  0
 44 40  1  0  0  0  0
 45 40  1  1  0  0  0
 45 37  1  0  0  0  0
 45 46  1  0  0  0  0
 46 39  1  0  0  0  0
 47 48  1  0  0  0  0
 49 50  1  0  0  0  0
 50 51  1  0  0  0  0
M  END
>  <MODEL>
8

>  <REMARK>
 VINA RESULT:      -7.0      3.123      9.376
  Name = 
  18 active torsions:
  status: ('A' for Active; 'I' for Inactive)
    1  A    between atoms: C_1  and  C_4
    2  A    between atoms: C_1  and  C_10
    3  A    between atoms: C_4  and  C_9
    4  A    between atoms: C_5  and  C_9
    5  A    between atoms: C_9  and  C_38
    6  A    between atoms: C_10  and  C_43
    7  A    between atoms: C_11  and  O_15
    8  A    between atoms: C_11  and  C_38
    9  A    between atoms: O_15  and  C_26
   10  A    between atoms: O_18  and  C_19
   11  A    between atoms: O_18  and  C_45
   12  A    between atoms: C_19  and  C_21
   13  A    between atoms: C_22  and  O_47
   14  A    between atoms: C_26  and  C_34
   15  A    between atoms: C_26  and  O_47
   16  A    between atoms: C_29  and  C_35
   17  A    between atoms: C_37  and  C_50
   18  A    between atoms: C_43  and  C_50
                            x       y       z     vdW  Elec       q    Type
                         _______ _______ _______ _____ _____    ______ ____

>  <TORSDO>
F 18

$$$$
=
 OpenBabel11032420493D

 51 54  0  0  1  0  0  0  0  0999 V2000
  188.3690  177.1340  136.9900 C   0  0  2  0  0  0  0  0  0  0  0  0
  189.8060  177.6020  136.7490 C   0  0  0  0  0  1  0  0  0  0  0  0
  187.8520  176.3030  135.7760 C   0  0  1  0  0  3  0  0  0  0  0  0
  187.6890  174.8640  136.0170 C   0  0  0  0  0  0  0  0  0  0  0  0
  185.5230  175.6620  135.8290 O   0  0  0  0  0  0  0  0  0  0  0  0
  188.6100  174.0660  136.0880 O   0  0  0  0  0  0  0  0  0  0  0  0
  186.4210  176.6670  135.3920 C   0  0  0  0  0  2  0  0  0  0  0  0
  186.2670  174.4770  136.0020 C   0  0  1  0  0  3  0  0  0  0  0  0
  186.0200  173.6090  134.9360 O   0  0  0  0  0  0  0  0  0  0  0  0
  184.6800  173.2460  135.0740 C   0  0  0  0  0  2  0  0  0  0  0  0
  184.5780  172.0190  135.9540 C   0  0  0  0  0  2  0  0  0  0  0  0
  185.3650  170.8870  135.3300 C   0  0  0  0  0  1  0  0  0  0  0  0
  187.4520  178.3690  137.2480 C   0  0  2  0  0  3  0  0  0  0  0  0
  188.1700  179.5700  137.2440 O   0  0  0  0  0  1  0  0  0  0  0  0
  186.5760  178.2950  138.5060 C   0  0  0  0  0  2  0  0  0  0  0  0
  185.0890  178.2450  138.1830 C   0  0  0  0  0  2  0  0  0  0  0  0
  184.2590  178.8670  139.3020 C   0  0  0  0  0  2  0  0  0  0  0  0
  182.0750  179.3440  140.1480 O   0  0  0  0  0  1  0  0  0  0  0  0
  182.7500  178.8090  139.0460 C   0  0  2  0  0  3  0  0  0  0  0  0
  181.9020  175.8590  136.7820 C   0  0  0  0  0  2  0  0  0  0  0  0
  181.5920  177.2370  137.3450 C   0  0  2  0  0  3  0  0  0  0  0  0
  182.0400  178.1970  136.4360 O   0  0  0  0  0  1  0  0  0  0  0  0
  180.6620  174.6680  137.2590 S   0  0  0  0  0  0  0  0  0  0  0  0
  179.5250  174.7290  136.2810 O   0  0  0  0  0  0  0  0  0  0  0  0
  181.2830  176.9140  139.8150 C   0  0  0  0  0  2  0  0  0  0  0  0
  180.0280  174.9640  138.8980 C   0  0  0  0  0  2  0  0  0  0  0  0
  182.2550  177.3820  138.7300 C   0  0  2  0  0  3  0  0  0  0  0  0
  181.1360  175.4010  139.8410 C   0  0  0  0  0  2  0  0  0  0  0  0
  181.2700  173.2960  137.2160 O   0  0  0  0  0  0  0  0  0  0  0  0
  188.4000  176.2200  138.2320 C   0  0  0  0  0  2  0  0  0  0  0  0
  189.6590  176.3930  139.0840 C   0  0  2  0  0  3  0  0  0  0  0  0
  190.8510  175.6260  138.5190 C   0  0  0  0  0  1  0  0  0  0  0  0
  189.4170  176.2380  140.4770 O   0  0  0  0  0  0  0  0  0  0  0  0
  190.1520  177.1390  141.3040 C   0  0  2  0  0  3  0  0  0  0  0  0
  186.0020  178.4400  142.3150 C   0  0  0  0  0  3  0  0  0  0  0  0
  190.0330  177.1870  146.4370 C   0  0  0  0  0  1  0  0  0  0  0  0
  187.8640  177.1920  145.3080 C   0  0  0  0  0  2  0  0  0  0  0  0
  189.3090  177.6580  145.1860 C   0  0  2  0  0  3  0  0  0  0  0  0
  187.9580  176.9740  142.4550 C   0  0  0  0  0  2  0  0  0  0  0  0
  185.5030  177.9910  145.1130 C   0  0  0  0  0  2  0  0  0  0  0  0
  189.3600  177.5760  142.5630 C   0  0  1  0  0  3  0  0  0  0  0  0
  190.0360  177.1610  143.9050 C   0  0  1  0  0  3  0  0  0  0  0  0
  184.9730  179.3230  142.9600 C   0  0  0  0  0  2  0  0  0  0  0  0
  184.4250  178.6690  144.2360 C   0  0  0  0  0  2  0  0  0  0  0  0
  186.9290  178.1330  144.5650 C   0  0  2  0  0  3  0  0  0  0  0  0
  186.9470  177.8790  143.0780 C   0  0  0  0  0  0  0  0  0  0  0  0
  191.5110  177.5880  143.9620 C   0  0  0  0  0  2  0  0  0  0  0  0
  191.6720  179.1020  143.9680 C   0  0  0  0  0  1  0  0  0  0  0  0
  190.6790  178.2200  140.5800 O   0  0  0  0  0  0  0  0  0  0  0  0
  192.0100  177.8730  140.3280 C   0  0  0  0  0  2  0  0  0  0  0  0
  192.4760  177.0250  141.3340 O   0  0  0  0  0  1  0  0  0  0  0  0
  1  2  1  6  0  0  0
  1 13  1  0  0  0  0
  1 30  1  0  0  0  0
  3  4  1  0  0  0  0
  3  1  1  1  0  0  0
  4  6  2  0  0  0  0
  5  8  1  0  0  0  0
  7  3  1  0  0  0  0
  7  5  1  0  0  0  0
  8  9  1  6  0  0  0
  8  4  1  0  0  0  0
  9 10  1  0  0  0  0
 10 11  1  0  0  0  0
 12 11  1  0  0  0  0
 13 14  1  1  0  0  0
 13 15  1  0  0  0  0
 16 15  1  0  0  0  0
 16 17  1  0  0  0  0
 19 17  1  0  0  0  0
 19 18  1  1  0  0  0
 20 23  1  0  0  0  0
 20 21  1  0  0  0  0
 21 22  1  6  0  0  0
 21 27  1  0  0  0  0
 23 26  1  0  0  0  0
 24 23  2  0  0  0  0
 25 28  1  0  0  0  0
 26 28  1  0  0  0  0
 27 19  1  1  0  0  0
 27 25  1  0  0  0  0
 29 23  2  0  0  0  0
 30 31  1  0  0  0  0
 31 32  1  6  0  0  0
 31 33  1  0  0  0  0
 34 33  1  6  0  0  0
 35 43  1  0  0  0  0
 35 46  2  0  0  0  0
 38 37  1  0  0  0  0
 38 36  1  1  0  0  0
 39 41  1  0  0  0  0
 39 46  1  0  0  0  0
 41 34  1  6  0  0  0
 41 42  1  0  0  0  0
 42 47  1  6  0  0  0
 42 38  1  0  0  0  0
 43 44  1  0  0  0  0
 44 40  1  0  0  0  0
 45 40  1  1  0  0  0
 45 37  1  0  0  0  0
 46 45  1  0  0  0  0
 47 48  1  0  0  0  0
 49 34  1  0  0  0  0
 50 49  1  0  0  0  0
 50 51  1  0  0  0  0
M  END
>  <MODEL>
9

>  <REMARK>
 VINA RESULT:      -6.9      3.338      7.171
  Name = 
  18 active torsions:
  status: ('A' for Active; 'I' for Inactive)
    1  A    between atoms: C_1  and  C_4
    2  A    between atoms: C_1  and  C_10
    3  A    between atoms: C_4  and  C_9
    4  A    between atoms: C_5  and  C_9
    5  A    between atoms: C_9  and  C_38
    6  A    between atoms: C_10  and  C_43
    7  A    between atoms: C_11  and  O_15
    8  A    between atoms: C_11  and  C_38
    9  A    between atoms: O_15  and  C_26
   10  A    between atoms: O_18  and  C_19
   11  A    between atoms: O_18  and  C_45
   12  A    between atoms: C_19  and  C_21
   13  A    between atoms: C_22  and  O_47
   14  A    between atoms: C_26  and  C_34
   15  A    between atoms: C_26  and  O_47
   16  A    between atoms: C_29  and  C_35
   17  A    between atoms: C_37  and  C_50
   18  A    between atoms: C_43  and  C_50
                            x       y       z     vdW  Elec       q    Type
                         _______ _______ _______ _____ _____    ______ ____

>  <TORSDO>
F 18

$$$$
