=
 OpenBabel11042410393D

 44 49  0  0  1  0  0  0  0  0999 V2000
  189.6120  176.9360  140.5990 C   0  0  0  0  0  3  0  0  0  0  0  0
  189.8160  177.0190  141.9220 C   0  0  0  0  0  0  0  0  0  0  0  0
  190.4960  177.5870  139.5790 C   0  0  1  0  0  3  0  0  0  0  0  0
  191.2910  176.5240  138.8380 C   0  0  0  0  0  1  0  0  0  0  0  0
  189.6710  178.3250  138.6380 N   0  0  0  0  0  2  0  0  0  0  0  0
  188.3500  177.8870  138.8140 N   0  0  0  0  0  2  0  0  0  0  0  0
  186.3310  177.7450  137.2770 C   0  0  2  0  0  0  0  0  0  0  0  0
  188.4540  176.5390  136.7820 O   0  0  0  0  0  1  0  0  0  0  0  0
  185.4920  178.2510  138.4430 C   0  0  0  0  0  1  0  0  0  0  0  0
  187.8180  177.5570  137.4980 C   0  0  2  0  0  0  0  0  0  0  0  0
  187.3280  178.7320  136.6670 C   0  0  0  0  0  2  0  0  0  0  0  0
  185.7290  176.8000  136.3420 N   0  0  0  0  0  2  0  0  0  0  0  0
  185.4560  175.5550  137.0440 C   0  0  0  0  0  2  0  0  0  0  0  0
  182.3090  173.3030  136.7340 C   0  0  0  0  0  1  0  0  0  0  0  0
  183.5220  174.7620  138.2160 O   0  0  0  0  0  0  0  0  0  0  0  0
  183.6610  173.8050  137.1950 C   0  0  0  0  0  0  0  0  0  0  0  0
  184.7400  172.7890  137.5430 C   0  0  0  0  0  1  0  0  0  0  0  0
  183.9710  175.2410  136.9670 C   0  0  2  0  0  3  0  0  0  0  0  0
  190.9880  177.7810  142.4850 C   0  0  1  0  0  3  0  0  0  0  0  0
  190.5520  179.1500  142.9790 C   0  0  0  0  0  1  0  0  0  0  0  0
  191.6520  176.9890  143.6000 C   0  0  0  0  0  2  0  0  0  0  0  0
  191.6830  177.7770  144.8970 C   0  0  0  0  0  2  0  0  0  0  0  0
  191.8330  177.3930  147.2590 O   0  0  0  0  0  0  0  0  0  0  0  0
  191.9560  175.5040  145.8440 C   0  0  0  0  0  2  0  0  0  0  0  0
  192.0680  176.2820  148.0850 C   0  0  0  0  0  2  0  0  0  0  0  0
  191.3350  176.8630  146.0580 C   0  0  2  0  0  3  0  0  0  0  0  0
  192.3930  175.0890  147.2170 C   0  0  0  0  0  2  0  0  0  0  0  0
  188.8870  176.2650  142.8310 C   0  0  0  0  0  2  0  0  0  0  0  0
  187.2620  177.4170  144.3580 C   0  0  2  0  0  3  0  0  0  0  0  0
  187.6670  177.0730  143.1390 C   0  0  0  0  0  0  0  0  0  0  0  0
  187.8500  177.1790  145.6030 C   0  0  0  0  0  3  0  0  0  0  0  0
  185.3890  178.5620  145.3740 C   0  0  0  0  0  0  0  0  0  0  0  0
  183.9580  179.0210  141.5940 O   0  0  0  0  0  0  0  0  0  0  0  0
  184.1030  179.2640  145.1220 C   0  0  0  0  0  3  0  0  0  0  0  0
  184.3970  178.8860  142.7650 C   0  0  0  0  0  0  0  0  0  0  0  0
  187.1840  177.6470  146.7580 C   0  0  0  0  0  0  0  0  0  0  0  0
  185.9500  178.3470  146.6460 C   0  0  0  0  0  0  0  0  0  0  0  0
  183.6600  179.4030  143.8960 N   0  0  0  0  0  0  0  0  0  0  0  0
  186.6580  177.5490  142.1150 C   0  0  0  0  0  3  0  0  0  0  0  0
  185.6700  178.2010  143.0310 C   0  0  0  0  0  0  0  0  0  0  0  0
  186.0790  178.0830  144.2690 C   0  0  0  0  0  0  0  0  0  0  0  0
  185.2990  178.8170  147.7830 O   0  0  0  0  0  1  0  0  0  0  0  0
  187.8010  177.4100  148.0960 C   0  0  0  0  0  2  0  0  0  0  0  0
  188.8530  178.4640  148.3810 C   0  0  0  0  0  1  0  0  0  0  0  0
  1  2  2  0  0  0  0
  2 19  1  0  0  0  0
  2 28  1  0  0  0  0
  3  4  1  6  0  0  0
  3  1  1  0  0  0  0
  5  6  1  0  0  0  0
  5  3  1  0  0  0  0
  7 10  1  0  0  0  0
  7  9  1  1  0  0  0
 10  8  1  6  0  0  0
 10  6  1  0  0  0  0
 11  7  1  0  0  0  0
 11 10  1  0  0  0  0
 12 13  1  0  0  0  0
 12  7  1  0  0  0  0
 14 16  1  0  0  0  0
 16 17  1  0  0  0  0
 16 15  1  0  0  0  0
 18 13  1  1  0  0  0
 18 16  1  0  0  0  0
 18 15  1  0  0  0  0
 19 20  1  1  0  0  0
 19 21  1  0  0  0  0
 21 22  1  0  0  0  0
 23 25  1  0  0  0  0
 24 26  1  0  0  0  0
 24 27  1  0  0  0  0
 26 22  1  6  0  0  0
 26 23  1  0  0  0  0
 27 25  1  0  0  0  0
 28 30  1  0  0  0  0
 29 31  1  1  0  0  0
 30 29  1  0  0  0  0
 31 36  2  0  0  0  0
 32 37  2  0  0  0  0
 33 35  2  0  0  0  0
 34 32  1  0  0  0  0
 35 40  1  0  0  0  0
 35 38  1  0  0  0  0
 36 43  1  0  0  0  0
 37 36  1  0  0  0  0
 37 42  1  0  0  0  0
 38 34  2  0  0  0  0
 39 40  1  0  0  0  0
 39 30  2  0  0  0  0
 40 41  2  0  0  0  0
 41 29  1  0  0  0  0
 41 32  1  0  0  0  0
 43 44  1  0  0  0  0
M  END
>  <MODEL>
1

>  <REMARK>
 VINA RESULT:      -8.7      0.000      0.000
  Name = 
  14 active torsions:
  status: ('A' for Active; 'I' for Inactive)
    1  A    between atoms: C_2  and  N_31
    2  A    between atoms: C_7  and  C_14
    3  A    between atoms: C_8  and  C_19
    4  A    between atoms: N_12  and  N_38
    5  A    between atoms: N_12  and  C_40
    6  A    between atoms: C_13  and  C_22
    7  A    between atoms: C_14  and  N_38
    8  A    between atoms: C_15  and  C_41
    9  A    between atoms: C_16  and  C_20
   10  A    between atoms: C_16  and  C_30
   11  A    between atoms: C_19  and  C_30
   12  A    between atoms: C_20  and  C_36
   13  A    between atoms: N_31  and  C_41
   14  A    between atoms: C_34  and  C_36
                            x       y       z     vdW  Elec       q    Type
                         _______ _______ _______ _____ _____    ______ ____

>  <TORSDO>
F 14

$$$$
=
 OpenBabel11042410393D

 44 49  0  0  1  0  0  0  0  0999 V2000
  188.2940  177.3740  140.5230 C   0  0  0  0  0  3  0  0  0  0  0  0
  189.2650  177.0770  141.3990 C   0  0  0  0  0  0  0  0  0  0  0  0
  188.5080  178.2020  139.2930 C   0  0  1  0  0  3  0  0  0  0  0  0
  188.8220  177.2940  138.1140 C   0  0  0  0  0  1  0  0  0  0  0  0
  187.3020  178.9620  139.0160 N   0  0  0  0  0  2  0  0  0  0  0  0
  186.2690  178.3910  139.7750 N   0  0  0  0  0  2  0  0  0  0  0  0
  183.7400  178.1900  139.6500 C   0  0  2  0  0  0  0  0  0  0  0  0
  185.1860  177.9090  137.6420 O   0  0  0  0  0  1  0  0  0  0  0  0
  183.7470  177.9960  141.1610 C   0  0  0  0  0  1  0  0  0  0  0  0
  185.0680  178.3860  138.9500 C   0  0  2  0  0  0  0  0  0  0  0  0
  184.1350  179.5720  139.1310 C   0  0  0  0  0  2  0  0  0  0  0  0
  182.7330  177.4860  138.8610 N   0  0  0  0  0  2  0  0  0  0  0  0
  182.6120  176.1250  139.3610 C   0  0  0  0  0  2  0  0  0  0  0  0
  179.9630  173.5840  138.0980 C   0  0  0  0  0  1  0  0  0  0  0  0
  180.6570  175.8870  137.9940 O   0  0  0  0  0  0  0  0  0  0  0  0
  180.5700  174.7600  138.8320 C   0  0  0  0  0  0  0  0  0  0  0  0
  180.0160  175.1380  140.1980 C   0  0  0  0  0  1  0  0  0  0  0  0
  181.8780  175.2690  138.3410 C   0  0  2  0  0  3  0  0  0  0  0  0
  190.6790  177.5580  141.1900 C   0  0  1  0  0  3  0  0  0  0  0  0
  191.3770  177.7710  142.5220 C   0  0  0  0  0  1  0  0  0  0  0  0
  191.4520  176.5770  140.3240 C   0  0  0  0  0  2  0  0  0  0  0  0
  192.4830  177.2870  139.4660 C   0  0  0  0  0  2  0  0  0  0  0  0
  193.7960  176.9880  137.4820 O   0  0  0  0  0  0  0  0  0  0  0  0
  192.0290  175.4620  137.8530 C   0  0  0  0  0  2  0  0  0  0  0  0
  193.7500  176.1420  136.3630 C   0  0  0  0  0  2  0  0  0  0  0  0
  193.1070  176.3020  138.4950 C   0  0  2  0  0  3  0  0  0  0  0  0
  192.4940  175.3050  136.4370 C   0  0  0  0  0  2  0  0  0  0  0  0
  188.9260  176.1850  142.5590 C   0  0  0  0  0  2  0  0  0  0  0  0
  188.4310  177.1480  144.8230 C   0  0  2  0  0  3  0  0  0  0  0  0
  188.0840  176.9080  143.5620 C   0  0  0  0  0  0  0  0  0  0  0  0
  189.6160  176.8560  145.5030 C   0  0  0  0  0  3  0  0  0  0  0  0
  187.4440  178.1250  146.8040 C   0  0  0  0  0  0  0  0  0  0  0  0
  184.1390  178.7650  144.5210 O   0  0  0  0  0  0  0  0  0  0  0  0
  186.2350  178.7770  147.3720 C   0  0  0  0  0  3  0  0  0  0  0  0
  185.1600  178.5740  145.2300 C   0  0  0  0  0  0  0  0  0  0  0  0
  189.7100  177.2110  146.8680 C   0  0  0  0  0  0  0  0  0  0  0  0
  188.6220  177.8540  147.5230 C   0  0  0  0  0  0  0  0  0  0  0  0
  185.1810  178.9760  146.6190 N   0  0  0  0  0  0  0  0  0  0  0  0
  186.6730  177.4000  143.3190 C   0  0  0  0  0  3  0  0  0  0  0  0
  186.3660  177.9380  144.6830 C   0  0  0  0  0  0  0  0  0  0  0  0
  187.3990  177.7570  145.4660 C   0  0  0  0  0  0  0  0  0  0  0  0
  188.7190  178.2130  148.8640 O   0  0  0  0  0  1  0  0  0  0  0  0
  190.9710  176.9160  147.6080 C   0  0  0  0  0  2  0  0  0  0  0  0
  191.8870  176.0550  146.7590 C   0  0  0  0  0  1  0  0  0  0  0  0
  1  2  2  0  0  0  0
  2 28  1  0  0  0  0
  3  4  1  6  0  0  0
  3  1  1  0  0  0  0
  5  3  1  0  0  0  0
  5  6  1  0  0  0  0
  7  9  1  1  0  0  0
 10  8  1  6  0  0  0
 10 11  1  0  0  0  0
 10  7  1  0  0  0  0
 10  6  1  0  0  0  0
 11  7  1  0  0  0  0
 12 13  1  0  0  0  0
 12  7  1  0  0  0  0
 14 16  1  0  0  0  0
 15 18  1  0  0  0  0
 15 16  1  0  0  0  0
 16 17  1  0  0  0  0
 18 16  1  0  0  0  0
 18 13  1  1  0  0  0
 19  2  1  0  0  0  0
 19 20  1  1  0  0  0
 21 19  1  0  0  0  0
 22 21  1  0  0  0  0
 23 26  1  0  0  0  0
 24 26  1  0  0  0  0
 25 27  1  0  0  0  0
 25 23  1  0  0  0  0
 26 22  1  1  0  0  0
 27 24  1  0  0  0  0
 28 30  1  0  0  0  0
 29 41  1  0  0  0  0
 29 31  1  1  0  0  0
 30 29  1  0  0  0  0
 31 36  2  0  0  0  0
 32 34  1  0  0  0  0
 32 37  2  0  0  0  0
 33 35  2  0  0  0  0
 35 38  1  0  0  0  0
 36 37  1  0  0  0  0
 36 43  1  0  0  0  0
 37 42  1  0  0  0  0
 38 34  2  0  0  0  0
 39 30  2  0  0  0  0
 39 40  1  0  0  0  0
 40 35  1  0  0  0  0
 40 41  2  0  0  0  0
 41 32  1  0  0  0  0
 44 43  1  0  0  0  0
M  END
>  <MODEL>
2

>  <REMARK>
 VINA RESULT:      -8.2      2.281      4.338
  Name = 
  14 active torsions:
  status: ('A' for Active; 'I' for Inactive)
    1  A    between atoms: C_2  and  N_31
    2  A    between atoms: C_7  and  C_14
    3  A    between atoms: C_8  and  C_19
    4  A    between atoms: N_12  and  N_38
    5  A    between atoms: N_12  and  C_40
    6  A    between atoms: C_13  and  C_22
    7  A    between atoms: C_14  and  N_38
    8  A    between atoms: C_15  and  C_41
    9  A    between atoms: C_16  and  C_20
   10  A    between atoms: C_16  and  C_30
   11  A    between atoms: C_19  and  C_30
   12  A    between atoms: C_20  and  C_36
   13  A    between atoms: N_31  and  C_41
   14  A    between atoms: C_34  and  C_36
                            x       y       z     vdW  Elec       q    Type
                         _______ _______ _______ _____ _____    ______ ____

>  <TORSDO>
F 14

$$$$
=
 OpenBabel11042410393D

 44 49  0  0  1  0  0  0  0  0999 V2000
  188.9750  177.4180  139.7900 C   0  0  0  0  0  3  0  0  0  0  0  0
  189.3430  177.5030  141.0770 C   0  0  0  0  0  0  0  0  0  0  0  0
  189.5710  176.4460  138.8170 C   0  0  1  0  0  3  0  0  0  0  0  0
  188.6150  176.2360  137.6530 C   0  0  0  0  0  1  0  0  0  0  0  0
  190.8290  176.9790  138.3250 N   0  0  0  0  0  2  0  0  0  0  0  0
  191.5420  175.9080  137.7640 N   0  0  0  0  0  2  0  0  0  0  0  0
  193.9480  175.1740  137.4120 C   0  0  2  0  0  0  0  0  0  0  0  0
  193.3640  177.1600  138.7970 O   0  0  0  0  0  1  0  0  0  0  0  0
  193.4020  173.8190  136.9800 C   0  0  0  0  0  1  0  0  0  0  0  0
  192.9580  176.2440  137.8230 C   0  0  2  0  0  0  0  0  0  0  0  0
  193.6690  176.3570  136.4840 C   0  0  0  0  0  2  0  0  0  0  0  0
  195.2230  175.2190  138.1210 N   0  0  0  0  0  2  0  0  0  0  0  0
  196.0500  174.1100  137.6700 C   0  0  0  0  0  2  0  0  0  0  0  0
  199.1680  174.7350  135.4430 C   0  0  0  0  0  1  0  0  0  0  0  0
  197.3500  175.8130  136.5950 O   0  0  0  0  0  0  0  0  0  0  0  0
  197.7190  174.6630  135.8750 C   0  0  0  0  0  0  0  0  0  0  0  0
  196.6620  174.3030  134.8410 C   0  0  0  0  0  1  0  0  0  0  0  0
  197.4450  174.6160  137.3360 C   0  0  2  0  0  3  0  0  0  0  0  0
  190.3990  176.5930  141.6490 C   0  0  1  0  0  3  0  0  0  0  0  0
  191.7600  177.2690  141.6300 C   0  0  0  0  0  1  0  0  0  0  0  0
  190.0260  176.1640  143.0580 C   0  0  0  0  0  2  0  0  0  0  0  0
  191.2590  175.9500  143.9170 C   0  0  0  0  0  2  0  0  0  0  0  0
  191.8330  176.2260  146.2290 O   0  0  0  0  0  0  0  0  0  0  0  0
  189.7470  177.0830  145.5190 C   0  0  0  0  0  2  0  0  0  0  0  0
  191.1890  176.7240  147.3730 C   0  0  0  0  0  2  0  0  0  0  0  0
  191.1890  176.8420  145.1430 C   0  0  2  0  0  3  0  0  0  0  0  0
  189.7610  177.0650  147.0180 C   0  0  0  0  0  2  0  0  0  0  0  0
  188.6190  178.4810  141.9580 C   0  0  0  0  0  2  0  0  0  0  0  0
  186.1550  178.6010  142.4160 C   0  0  0  0  0  0  0  0  0  0  0  0
  187.1790  178.5880  141.5680 C   0  0  0  0  0  0  0  0  0  0  0  0
  186.1400  178.5690  143.8130 C   0  0  0  0  0  3  0  0  0  0  0  0
  183.7380  178.6380  142.3160 C   0  0  1  0  0  3  0  0  0  0  0  0
  184.1700  178.6670  138.2710 O   0  0  0  0  0  0  0  0  0  0  0  0
  182.5530  178.6660  141.4180 C   0  0  0  0  0  3  0  0  0  0  0  0
  184.0300  178.6630  139.5210 C   0  0  0  0  0  0  0  0  0  0  0  0
  184.8890  178.5730  144.4710 C   0  0  0  0  0  0  0  0  0  0  0  0
  183.6810  178.6130  143.7210 C   0  0  0  0  0  0  0  0  0  0  0  0
  182.7130  178.6770  140.1180 N   0  0  0  0  0  0  0  0  0  0  0  0
  186.6630  178.6110  140.1460 C   0  0  0  0  0  3  0  0  0  0  0  0
  185.1910  178.6420  140.4220 C   0  0  0  0  0  0  0  0  0  0  0  0
  184.9900  178.6320  141.7150 C   0  0  0  0  0  0  0  0  0  0  0  0
  182.4490  178.6260  144.3680 O   0  0  0  0  0  1  0  0  0  0  0  0
  184.8550  178.5490  145.9620 C   0  0  0  0  0  2  0  0  0  0  0  0
  186.2190  178.1760  146.5110 C   0  0  0  0  0  1  0  0  0  0  0  0
  1  2  2  0  0  0  0
  2 19  1  0  0  0  0
  2 28  1  0  0  0  0
  3  4  1  6  0  0  0
  3  1  1  0  0  0  0
  5  3  1  0  0  0  0
  6 10  1  0  0  0  0
  6  5  1  0  0  0  0
  7  9  1  6  0  0  0
  7 10  1  0  0  0  0
  7 12  1  0  0  0  0
 10  8  1  1  0  0  0
 11  7  1  0  0  0  0
 11 10  1  0  0  0  0
 13 12  1  0  0  0  0
 14 16  1  0  0  0  0
 15 18  1  0  0  0  0
 16 15  1  0  0  0  0
 16 18  1  0  0  0  0
 17 16  1  0  0  0  0
 18 13  1  6  0  0  0
 19 20  1  1  0  0  0
 19 21  1  0  0  0  0
 21 22  1  0  0  0  0
 23 25  1  0  0  0  0
 24 27  1  0  0  0  0
 26 22  1  6  0  0  0
 26 24  1  0  0  0  0
 26 23  1  0  0  0  0
 27 25  1  0  0  0  0
 29 31  2  0  0  0  0
 30 28  1  0  0  0  0
 30 29  1  0  0  0  0
 31 36  1  0  0  0  0
 32 34  1  6  0  0  0
 32 37  1  0  0  0  0
 33 35  2  0  0  0  0
 35 38  1  0  0  0  0
 35 40  1  0  0  0  0
 36 43  1  0  0  0  0
 37 42  1  0  0  0  0
 37 36  2  0  0  0  0
 38 34  2  0  0  0  0
 39 40  1  0  0  0  0
 39 30  2  0  0  0  0
 40 41  2  0  0  0  0
 41 32  1  0  0  0  0
 41 29  1  0  0  0  0
 43 44  1  0  0  0  0
M  END
>  <MODEL>
3

>  <REMARK>
 VINA RESULT:      -8.0      3.525      6.277
  Name = 
  14 active torsions:
  status: ('A' for Active; 'I' for Inactive)
    1  A    between atoms: C_2  and  N_31
    2  A    between atoms: C_7  and  C_14
    3  A    between atoms: C_8  and  C_19
    4  A    between atoms: N_12  and  N_38
    5  A    between atoms: N_12  and  C_40
    6  A    between atoms: C_13  and  C_22
    7  A    between atoms: C_14  and  N_38
    8  A    between atoms: C_15  and  C_41
    9  A    between atoms: C_16  and  C_20
   10  A    between atoms: C_16  and  C_30
   11  A    between atoms: C_19  and  C_30
   12  A    between atoms: C_20  and  C_36
   13  A    between atoms: N_31  and  C_41
   14  A    between atoms: C_34  and  C_36
                            x       y       z     vdW  Elec       q    Type
                         _______ _______ _______ _____ _____    ______ ____

>  <TORSDO>
F 14

$$$$
=
 OpenBabel11042410393D

 44 49  0  0  1  0  0  0  0  0999 V2000
  188.0420  177.4200  140.5580 C   0  0  0  0  0  3  0  0  0  0  0  0
  189.1190  177.1650  141.3150 C   0  0  0  0  0  0  0  0  0  0  0  0
  188.0920  178.1910  139.2740 C   0  0  1  0  0  3  0  0  0  0  0  0
  188.0570  177.2280  138.0980 C   0  0  0  0  0  1  0  0  0  0  0  0
  186.9470  179.0820  139.2100 N   0  0  0  0  0  2  0  0  0  0  0  0
  185.8400  178.3070  138.8330 N   0  0  0  0  0  2  0  0  0  0  0  0
  183.3270  178.5190  139.1390 C   0  0  2  0  0  0  0  0  0  0  0  0
  184.9410  179.7120  140.6150 O   0  0  0  0  0  1  0  0  0  0  0  0
  183.1760  177.9900  137.7190 C   0  0  0  0  0  1  0  0  0  0  0  0
  184.7270  178.6820  139.6940 C   0  0  2  0  0  0  0  0  0  0  0  0
  183.8550  177.5390  140.1870 C   0  0  0  0  0  2  0  0  0  0  0  0
  182.3600  179.4990  139.6260 N   0  0  0  0  0  2  0  0  0  0  0  0
  181.8300  180.2390  138.4920 C   0  0  0  0  0  2  0  0  0  0  0  0
  178.9310  182.7730  138.9860 C   0  0  0  0  0  1  0  0  0  0  0  0
  179.7410  180.9890  137.5870 O   0  0  0  0  0  0  0  0  0  0  0  0
  180.1330  182.0880  138.3730 C   0  0  0  0  0  0  0  0  0  0  0  0
  181.1690  182.9340  137.6470 C   0  0  0  0  0  1  0  0  0  0  0  0
  180.4090  180.6880  138.7930 C   0  0  2  0  0  3  0  0  0  0  0  0
  190.4910  177.6380  140.9070 C   0  0  1  0  0  3  0  0  0  0  0  0
  191.4170  177.7050  142.1090 C   0  0  0  0  0  1  0  0  0  0  0  0
  191.0670  176.7340  139.8290 C   0  0  0  0  0  2  0  0  0  0  0  0
  192.4810  177.1420  139.4600 C   0  0  0  0  0  2  0  0  0  0  0  0
  193.7300  176.9140  137.4260 O   0  0  0  0  0  0  0  0  0  0  0  0
  191.8910  175.4610  137.7380 C   0  0  0  0  0  2  0  0  0  0  0  0
  193.6110  176.1530  136.2530 C   0  0  0  0  0  2  0  0  0  0  0  0
  193.0280  176.1950  138.4070 C   0  0  2  0  0  3  0  0  0  0  0  0
  192.3140  175.3800  136.3020 C   0  0  0  0  0  2  0  0  0  0  0  0
  188.9370  176.3270  142.5480 C   0  0  0  0  0  2  0  0  0  0  0  0
  188.3350  177.2390  144.8070 C   0  0  2  0  0  3  0  0  0  0  0  0
  188.0400  177.0090  143.5310 C   0  0  0  0  0  0  0  0  0  0  0  0
  189.5040  176.9720  145.5240 C   0  0  0  0  0  3  0  0  0  0  0  0
  187.2520  178.1560  146.7660 C   0  0  0  0  0  0  0  0  0  0  0  0
  184.0100  178.7340  144.3780 O   0  0  0  0  0  0  0  0  0  0  0  0
  186.0040  178.7630  147.3010 C   0  0  0  0  0  3  0  0  0  0  0  0
  185.0100  178.5620  145.1210 C   0  0  0  0  0  0  0  0  0  0  0  0
  189.5400  177.3080  146.8960 C   0  0  0  0  0  0  0  0  0  0  0  0
  188.4120  177.9090  147.5220 C   0  0  0  0  0  0  0  0  0  0  0  0
  184.9710  178.9430  146.5150 N   0  0  0  0  0  0  0  0  0  0  0  0
  186.6240  177.4630  143.2470 C   0  0  0  0  0  3  0  0  0  0  0  0
  186.2530  177.9700  144.6060 C   0  0  0  0  0  0  0  0  0  0  0  0
  187.2630  177.8080  145.4230 C   0  0  0  0  0  0  0  0  0  0  0  0
  188.4510  178.2490  148.8710 O   0  0  0  0  0  1  0  0  0  0  0  0
  190.7840  177.0390  147.6760 C   0  0  0  0  0  2  0  0  0  0  0  0
  191.7310  176.1740  146.8670 C   0  0  0  0  0  1  0  0  0  0  0  0
  1  2  2  0  0  0  0
  2 28  1  0  0  0  0
  3  4  1  6  0  0  0
  3  1  1  0  0  0  0
  5  3  1  0  0  0  0
  6  5  1  0  0  0  0
  6 10  1  0  0  0  0
  7  9  1  6  0  0  0
  7 12  1  0  0  0  0
  7 10  1  0  0  0  0
  7 11  1  0  0  0  0
 10 11  1  0  0  0  0
 10  8  1  1  0  0  0
 13 12  1  0  0  0  0
 15 16  1  0  0  0  0
 15 18  1  0  0  0  0
 16 18  1  0  0  0  0
 16 14  1  0  0  0  0
 17 16  1  0  0  0  0
 18 13  1  6  0  0  0
 19  2  1  0  0  0  0
 19 20  1  1  0  0  0
 21 19  1  0  0  0  0
 22 21  1  0  0  0  0
 23 26  1  0  0  0  0
 24 26  1  0  0  0  0
 25 27  1  0  0  0  0
 25 23  1  0  0  0  0
 26 22  1  1  0  0  0
 27 24  1  0  0  0  0
 28 30  1  0  0  0  0
 29 41  1  0  0  0  0
 29 31  1  1  0  0  0
 30 29  1  0  0  0  0
 31 36  2  0  0  0  0
 32 34  1  0  0  0  0
 32 37  2  0  0  0  0
 33 35  2  0  0  0  0
 35 38  1  0  0  0  0
 36 37  1  0  0  0  0
 36 43  1  0  0  0  0
 37 42  1  0  0  0  0
 38 34  2  0  0  0  0
 39 30  2  0  0  0  0
 39 40  1  0  0  0  0
 40 35  1  0  0  0  0
 40 41  2  0  0  0  0
 41 32  1  0  0  0  0
 44 43  1  0  0  0  0
M  END
>  <MODEL>
4

>  <REMARK>
 VINA RESULT:      -8.0      2.997      5.314
  Name = 
  14 active torsions:
  status: ('A' for Active; 'I' for Inactive)
    1  A    between atoms: C_2  and  N_31
    2  A    between atoms: C_7  and  C_14
    3  A    between atoms: C_8  and  C_19
    4  A    between atoms: N_12  and  N_38
    5  A    between atoms: N_12  and  C_40
    6  A    between atoms: C_13  and  C_22
    7  A    between atoms: C_14  and  N_38
    8  A    between atoms: C_15  and  C_41
    9  A    between atoms: C_16  and  C_20
   10  A    between atoms: C_16  and  C_30
   11  A    between atoms: C_19  and  C_30
   12  A    between atoms: C_20  and  C_36
   13  A    between atoms: N_31  and  C_41
   14  A    between atoms: C_34  and  C_36
                            x       y       z     vdW  Elec       q    Type
                         _______ _______ _______ _____ _____    ______ ____

>  <TORSDO>
F 14

$$$$
=
 OpenBabel11042410393D

 44 49  0  0  1  0  0  0  0  0999 V2000
  186.3160  178.4590  142.4460 C   0  0  0  0  0  3  0  0  0  0  0  0
  187.6130  178.1170  142.4260 C   0  0  0  0  0  0  0  0  0  0  0  0
  185.3390  177.9580  143.4650 C   0  0  1  0  0  3  0  0  0  0  0  0
  185.6070  178.6290  144.8030 C   0  0  0  0  0  1  0  0  0  0  0  0
  183.9910  178.2690  143.0240 N   0  0  0  0  0  2  0  0  0  0  0  0
  184.0740  178.6560  141.6780 N   0  0  0  0  0  2  0  0  0  0  0  0
  182.5400  179.1470  139.7140 C   0  0  2  0  0  0  0  0  0  0  0  0
  181.6770  178.9410  142.0420 O   0  0  0  0  0  1  0  0  0  0  0  0
  183.7800  179.5640  138.9350 C   0  0  0  0  0  1  0  0  0  0  0  0
  182.7190  178.6850  141.1450 C   0  0  2  0  0  0  0  0  0  0  0  0
  182.4100  177.6640  140.0620 C   0  0  0  0  0  2  0  0  0  0  0  0
  181.2840  179.8430  139.4510 N   0  0  0  0  0  2  0  0  0  0  0  0
  181.3900  180.5370  138.1760 C   0  0  0  0  0  2  0  0  0  0  0  0
  181.2490  184.2870  137.1830 C   0  0  0  0  0  1  0  0  0  0  0  0
  180.0350  182.5120  138.2650 O   0  0  0  0  0  0  0  0  0  0  0  0
  180.9210  182.8100  137.2140 C   0  0  0  0  0  0  0  0  0  0  0  0
  180.4860  182.1270  135.9250 C   0  0  0  0  0  1  0  0  0  0  0  0
  181.3570  182.0390  138.4090 C   0  0  2  0  0  3  0  0  0  0  0  0
  188.1920  177.1930  143.4660 C   0  0  1  0  0  3  0  0  0  0  0  0
  188.7590  175.9420  142.8180 C   0  0  0  0  0  1  0  0  0  0  0  0
  189.2550  177.9100  144.2830 C   0  0  0  0  0  2  0  0  0  0  0  0
  190.6310  177.3150  144.0450 C   0  0  0  0  0  2  0  0  0  0  0  0
  192.0400  175.9880  145.4600 O   0  0  0  0  0  0  0  0  0  0  0  0
  190.4150  177.3430  146.5130 C   0  0  0  0  0  2  0  0  0  0  0  0
  192.1170  175.7180  146.8360 C   0  0  0  0  0  2  0  0  0  0  0  0
  191.3830  177.2250  145.3610 C   0  0  2  0  0  3  0  0  0  0  0  0
  190.9450  176.3750  147.5270 C   0  0  0  0  0  2  0  0  0  0  0  0
  188.4950  178.7420  141.3830 C   0  0  0  0  0  2  0  0  0  0  0  0
  189.1940  177.5700  139.2780 C   0  0  0  0  0  0  0  0  0  0  0  0
  188.2580  178.1250  140.0420 C   0  0  0  0  0  0  0  0  0  0  0  0
  190.5570  177.3770  139.5180 C   0  0  0  0  0  3  0  0  0  0  0  0
  189.3630  176.5770  137.0780 C   0  0  0  0  0  0  0  0  0  0  0  0
  185.3860  177.3480  136.7130 O   0  0  0  0  0  0  0  0  0  0  0  0
  188.6220  176.2120  135.8420 C   0  0  0  0  0  3  0  0  0  0  0  0
  186.6150  177.1030  136.8220 C   0  0  0  0  0  0  0  0  0  0  0  0
  191.3360  176.7680  138.5080 C   0  0  0  0  0  0  0  0  0  0  0  0
  190.7380  176.3600  137.2830 C   0  0  0  0  0  0  0  0  0  0  0  0
  187.3400  176.4670  135.7450 N   0  0  0  0  0  0  0  0  0  0  0  0
  186.9320  178.1150  139.3110 C   0  0  0  0  0  2  0  0  0  0  0  0
  187.3610  177.4510  138.0390 C   0  0  0  0  0  0  0  0  0  0  0  0
  188.6400  177.1790  138.0980 C   0  0  0  0  0  0  0  0  0  0  0  0
  191.5030  175.7510  136.2930 O   0  0  0  0  0  1  0  0  0  0  0  0
  192.7910  176.5450  138.7520 C   0  0  0  0  0  2  0  0  0  0  0  0
  193.2320  177.2860  139.9990 C   0  0  0  0  0  1  0  0  0  0  0  0
  1  3  1  0  0  0  0
  2  1  2  0  0  0  0
  2 19  1  0  0  0  0
  3  4  1  1  0  0  0
  5  3  1  0  0  0  0
  6  5  1  0  0  0  0
  7  9  1  6  0  0  0
  7 11  1  0  0  0  0
  7 10  1  0  0  0  0
 10  6  1  0  0  0  0
 10  8  1  1  0  0  0
 11 10  1  0  0  0  0
 12  7  1  0  0  0  0
 13 12  1  0  0  0  0
 14 16  1  0  0  0  0
 15 18  1  0  0  0  0
 16 15  1  0  0  0  0
 16 18  1  0  0  0  0
 17 16  1  0  0  0  0
 18 13  1  6  0  0  0
 19 20  1  6  0  0  0
 19 21  1  0  0  0  0
 22 21  1  0  0  0  0
 23 25  1  0  0  0  0
 24 27  1  0  0  0  0
 25 27  1  0  0  0  0
 26 22  1  6  0  0  0
 26 23  1  0  0  0  0
 26 24  1  0  0  0  0
 28  2  1  0  0  0  0
 29 31  1  0  0  0  0
 29 30  2  0  0  0  0
 30 28  1  0  0  0  0
 32 37  2  0  0  0  0
 32 41  1  0  0  0  0
 33 35  2  0  0  0  0
 34 32  1  0  0  0  0
 35 40  1  0  0  0  0
 36 43  1  0  0  0  0
 36 31  2  0  0  0  0
 37 36  1  0  0  0  0
 38 34  2  0  0  0  0
 38 35  1  0  0  0  0
 39 30  1  0  0  0  0
 40 41  2  0  0  0  0
 40 39  1  0  0  0  0
 41 29  1  0  0  0  0
 42 37  1  0  0  0  0
 43 44  1  0  0  0  0
M  END
>  <MODEL>
5

>  <REMARK>
 VINA RESULT:      -7.5      2.968      6.911
  Name = 
  14 active torsions:
  status: ('A' for Active; 'I' for Inactive)
    1  A    between atoms: C_2  and  N_31
    2  A    between atoms: C_7  and  C_14
    3  A    between atoms: C_8  and  C_19
    4  A    between atoms: N_12  and  N_38
    5  A    between atoms: N_12  and  C_40
    6  A    between atoms: C_13  and  C_22
    7  A    between atoms: C_14  and  N_38
    8  A    between atoms: C_15  and  C_41
    9  A    between atoms: C_16  and  C_20
   10  A    between atoms: C_16  and  C_30
   11  A    between atoms: C_19  and  C_30
   12  A    between atoms: C_20  and  C_36
   13  A    between atoms: N_31  and  C_41
   14  A    between atoms: C_34  and  C_36
                            x       y       z     vdW  Elec       q    Type
                         _______ _______ _______ _____ _____    ______ ____

>  <TORSDO>
F 14

$$$$
=
 OpenBabel11042410393D

 44 49  0  0  1  0  0  0  0  0999 V2000
  187.1750  177.6920  141.7180 C   0  0  0  0  0  3  0  0  0  0  0  0
  188.3970  177.2660  142.0700 C   0  0  0  0  0  0  0  0  0  0  0  0
  186.9300  178.7990  140.7390 C   0  0  1  0  0  3  0  0  0  0  0  0
  187.0360  178.2610  139.3210 C   0  0  0  0  0  1  0  0  0  0  0  0
  185.5990  179.3400  140.9570 N   0  0  0  0  0  2  0  0  0  0  0  0
  184.9610  179.3880  139.7080 N   0  0  0  0  0  2  0  0  0  0  0  0
  182.5940  178.7320  139.0610 C   0  0  2  0  0  0  0  0  0  0  0  0
  183.8860  177.4790  140.7840 O   0  0  0  0  0  1  0  0  0  0  0  0
  182.4420  180.1240  138.4640 C   0  0  0  0  0  1  0  0  0  0  0  0
  183.9150  178.3750  139.7110 C   0  0  2  0  0  0  0  0  0  0  0  0
  183.5630  177.7810  138.3560 C   0  0  0  0  0  2  0  0  0  0  0  0
  181.4260  178.1020  139.6690 N   0  0  0  0  0  2  0  0  0  0  0  0
  180.8130  179.0430  140.5940 C   0  0  0  0  0  2  0  0  0  0  0  0
  179.6890  177.9800  144.1550 C   0  0  0  0  0  1  0  0  0  0  0  0
  178.9970  179.1280  142.1560 O   0  0  0  0  0  0  0  0  0  0  0  0
  180.0940  178.8640  142.9940 C   0  0  0  0  0  0  0  0  0  0  0  0
  180.8810  180.1350  143.2800 C   0  0  0  0  0  1  0  0  0  0  0  0
  179.9970  178.2840  141.6280 C   0  0  2  0  0  3  0  0  0  0  0  0
  189.6390  177.8820  141.4770 C   0  0  1  0  0  3  0  0  0  0  0  0
  190.3690  178.7210  142.5100 C   0  0  0  0  0  1  0  0  0  0  0  0
  190.5490  176.8040  140.9120 C   0  0  0  0  0  2  0  0  0  0  0  0
  191.5630  177.3850  139.9430 C   0  0  0  0  0  2  0  0  0  0  0  0
  190.5760  175.6130  138.6660 O   0  0  0  0  0  0  0  0  0  0  0  0
  192.7130  176.3710  137.9980 C   0  0  0  0  0  2  0  0  0  0  0  0
  190.9830  174.7910  137.6020 C   0  0  0  0  0  2  0  0  0  0  0  0
  191.3730  176.7650  138.5710 C   0  0  2  0  0  3  0  0  0  0  0  0
  192.4340  175.0760  137.2950 C   0  0  0  0  0  2  0  0  0  0  0  0
  188.4980  176.1040  143.0160 C   0  0  0  0  0  2  0  0  0  0  0  0
  187.8350  177.2160  145.1660 C   0  0  0  0  0  0  0  0  0  0  0  0
  188.7270  176.5740  144.4170 C   0  0  0  0  0  0  0  0  0  0  0  0
  186.5100  177.5630  144.8910 C   0  0  0  0  0  3  0  0  0  0  0  0
  187.7330  178.2520  147.3500 C   0  0  0  0  0  0  0  0  0  0  0  0
  191.6180  177.1240  147.7750 O   0  0  0  0  0  0  0  0  0  0  0  0
  188.4890  178.5610  148.5920 C   0  0  0  0  0  3  0  0  0  0  0  0
  190.4160  177.4720  147.6510 C   0  0  0  0  0  0  0  0  0  0  0  0
  185.7840  178.2720  145.8750 C   0  0  0  0  0  0  0  0  0  0  0  0
  186.3950  178.6150  147.1140 C   0  0  0  0  0  0  0  0  0  0  0  0
  189.7400  178.1880  148.7100 N   0  0  0  0  0  0  0  0  0  0  0  0
  190.0390  176.4690  145.1660 C   0  0  0  0  0  2  0  0  0  0  0  0
  189.6520  177.1680  146.4330 C   0  0  0  0  0  0  0  0  0  0  0  0
  188.4050  177.5570  146.3540 C   0  0  0  0  0  0  0  0  0  0  0  0
  185.6770  179.3050  148.0870 O   0  0  0  0  0  1  0  0  0  0  0  0
  184.3650  178.6430  145.6010 C   0  0  0  0  0  2  0  0  0  0  0  0
  184.1010  178.6360  144.1080 C   0  0  0  0  0  1  0  0  0  0  0  0
  1  2  2  0  0  0  0
  2 28  1  0  0  0  0
  3  4  1  6  0  0  0
  3  5  1  0  0  0  0
  3  1  1  0  0  0  0
  6 10  1  0  0  0  0
  6  5  1  0  0  0  0
  7  9  1  6  0  0  0
  7 12  1  0  0  0  0
  7 10  1  0  0  0  0
 10  8  1  1  0  0  0
 11  7  1  0  0  0  0
 11 10  1  0  0  0  0
 12 13  1  0  0  0  0
 15 16  1  0  0  0  0
 16 17  1  0  0  0  0
 16 14  1  0  0  0  0
 18 13  1  6  0  0  0
 18 15  1  0  0  0  0
 18 16  1  0  0  0  0
 19  2  1  0  0  0  0
 19 20  1  1  0  0  0
 21 19  1  0  0  0  0
 22 21  1  0  0  0  0
 24 26  1  0  0  0  0
 25 23  1  0  0  0  0
 26 23  1  0  0  0  0
 26 22  1  1  0  0  0
 27 25  1  0  0  0  0
 27 24  1  0  0  0  0
 28 30  1  0  0  0  0
 29 41  1  0  0  0  0
 30 29  2  0  0  0  0
 30 39  1  0  0  0  0
 31 29  1  0  0  0  0
 31 36  2  0  0  0  0
 32 34  1  0  0  0  0
 34 38  2  0  0  0  0
 35 33  2  0  0  0  0
 35 38  1  0  0  0  0
 36 37  1  0  0  0  0
 37 32  2  0  0  0  0
 37 42  1  0  0  0  0
 39 40  1  0  0  0  0
 40 35  1  0  0  0  0
 41 40  2  0  0  0  0
 41 32  1  0  0  0  0
 43 36  1  0  0  0  0
 44 43  1  0  0  0  0
M  END
>  <MODEL>
6

>  <REMARK>
 VINA RESULT:      -7.3      2.691      5.783
  Name = 
  14 active torsions:
  status: ('A' for Active; 'I' for Inactive)
    1  A    between atoms: C_2  and  N_31
    2  A    between atoms: C_7  and  C_14
    3  A    between atoms: C_8  and  C_19
    4  A    between atoms: N_12  and  N_38
    5  A    between atoms: N_12  and  C_40
    6  A    between atoms: C_13  and  C_22
    7  A    between atoms: C_14  and  N_38
    8  A    between atoms: C_15  and  C_41
    9  A    between atoms: C_16  and  C_20
   10  A    between atoms: C_16  and  C_30
   11  A    between atoms: C_19  and  C_30
   12  A    between atoms: C_20  and  C_36
   13  A    between atoms: N_31  and  C_41
   14  A    between atoms: C_34  and  C_36
                            x       y       z     vdW  Elec       q    Type
                         _______ _______ _______ _____ _____    ______ ____

>  <TORSDO>
F 14

$$$$
=
 OpenBabel11042410393D

 44 49  0  0  1  0  0  0  0  0999 V2000
  185.7290  177.8550  137.7720 C   0  0  0  0  0  3  0  0  0  0  0  0
  184.7370  178.1080  138.6380 C   0  0  0  0  0  0  0  0  0  0  0  0
  185.6320  176.8480  136.6670 C   0  0  1  0  0  3  0  0  0  0  0  0
  185.0540  177.5060  135.4240 C   0  0  0  0  0  1  0  0  0  0  0  0
  186.9590  176.3350  136.3740 N   0  0  0  0  0  2  0  0  0  0  0  0
  187.7280  176.4860  137.5380 N   0  0  0  0  0  2  0  0  0  0  0  0
  190.1010  175.9120  136.8340 C   0  0  2  0  0  0  0  0  0  0  0  0
  189.4800  178.1820  137.6510 O   0  0  0  0  0  1  0  0  0  0  0  0
  189.7200  174.4450  136.9860 C   0  0  0  0  0  1  0  0  0  0  0  0
  189.0470  176.9570  137.1350 C   0  0  2  0  0  0  0  0  0  0  0  0
  189.4370  176.6820  135.6920 C   0  0  0  0  0  2  0  0  0  0  0  0
  191.4670  176.3150  137.1530 N   0  0  0  0  0  2  0  0  0  0  0  0
  192.2740  175.1210  137.3510 C   0  0  0  0  0  2  0  0  0  0  0  0
  195.7170  174.4870  139.0310 C   0  0  0  0  0  1  0  0  0  0  0  0
  194.6100  175.6460  137.2340 O   0  0  0  0  0  0  0  0  0  0  0  0
  194.6120  174.4640  137.9960 C   0  0  0  0  0  0  0  0  0  0  0  0
  194.4690  173.2400  137.1030 C   0  0  0  0  0  1  0  0  0  0  0  0
  193.5320  175.4780  138.1280 C   0  0  2  0  0  3  0  0  0  0  0  0
  183.4160  177.3870  138.5440 C   0  0  1  0  0  3  0  0  0  0  0  0
  183.0300  176.7950  139.8890 C   0  0  0  0  0  1  0  0  0  0  0  0
  182.3330  178.3230  138.0330 C   0  0  0  0  0  2  0  0  0  0  0  0
  181.2640  178.5610  139.0840 C   0  0  0  0  0  2  0  0  0  0  0  0
  179.8350  180.4670  139.3450 O   0  0  0  0  0  0  0  0  0  0  0  0
  181.9570  180.8290  138.3700 C   0  0  0  0  0  2  0  0  0  0  0  0
  179.8870  181.8220  138.9800 C   0  0  0  0  0  2  0  0  0  0  0  0
  181.1720  180.0440  139.3930 C   0  0  2  0  0  3  0  0  0  0  0  0
  181.1220  182.0530  138.1400 C   0  0  0  0  0  2  0  0  0  0  0  0
  184.9450  179.1890  139.6600 C   0  0  0  0  0  2  0  0  0  0  0  0
  185.4990  178.6110  142.0390 C   0  0  2  0  0  3  0  0  0  0  0  0
  185.8440  178.7180  140.7590 C   0  0  0  0  0  0  0  0  0  0  0  0
  184.2700  178.8450  142.6640 C   0  0  0  0  0  3  0  0  0  0  0  0
  186.5480  178.0420  144.1430 C   0  0  0  0  0  0  0  0  0  0  0  0
  189.9610  177.5100  141.9950 O   0  0  0  0  0  0  0  0  0  0  0  0
  187.8130  177.6280  144.8050 C   0  0  0  0  0  3  0  0  0  0  0  0
  188.9080  177.6690  142.6640 C   0  0  0  0  0  0  0  0  0  0  0  0
  184.1870  178.6700  144.0640 C   0  0  0  0  0  0  0  0  0  0  0  0
  185.3280  178.2610  144.8090 C   0  0  0  0  0  0  0  0  0  0  0  0
  188.9010  177.4600  144.0950 N   0  0  0  0  0  0  0  0  0  0  0  0
  187.3100  178.3760  140.5980 C   0  0  0  0  0  3  0  0  0  0  0  0
  187.6470  178.0700  142.0250 C   0  0  0  0  0  0  0  0  0  0  0  0
  186.5810  178.2270  142.7680 C   0  0  0  0  0  0  0  0  0  0  0  0
  185.2430  178.0790  146.1860 O   0  0  0  0  0  1  0  0  0  0  0  0
  182.8810  178.9050  144.7460 C   0  0  0  0  0  2  0  0  0  0  0  0
  181.7670  179.0090  143.7230 C   0  0  0  0  0  1  0  0  0  0  0  0
  1  2  2  0  0  0  0
  2 28  1  0  0  0  0
  3  4  1  6  0  0  0
  3  1  1  0  0  0  0
  5  3  1  0  0  0  0
  5  6  1  0  0  0  0
  7  9  1  1  0  0  0
  7 10  1  0  0  0  0
  7 12  1  0  0  0  0
 10  6  1  0  0  0  0
 10  8  1  1  0  0  0
 11  7  1  0  0  0  0
 11 10  1  0  0  0  0
 12 13  1  0  0  0  0
 15 16  1  0  0  0  0
 15 18  1  0  0  0  0
 16 18  1  0  0  0  0
 16 14  1  0  0  0  0
 17 16  1  0  0  0  0
 18 13  1  6  0  0  0
 19  2  1  0  0  0  0
 19 20  1  1  0  0  0
 21 19  1  0  0  0  0
 21 22  1  0  0  0  0
 23 26  1  0  0  0  0
 24 26  1  0  0  0  0
 25 23  1  0  0  0  0
 26 22  1  6  0  0  0
 27 24  1  0  0  0  0
 27 25  1  0  0  0  0
 28 30  1  0  0  0  0
 29 31  1  1  0  0  0
 29 41  1  0  0  0  0
 30 29  1  0  0  0  0
 31 36  2  0  0  0  0
 32 34  1  0  0  0  0
 32 37  2  0  0  0  0
 33 35  2  0  0  0  0
 35 38  1  0  0  0  0
 36 43  1  0  0  0  0
 36 37  1  0  0  0  0
 37 42  1  0  0  0  0
 38 34  2  0  0  0  0
 39 30  2  0  0  0  0
 39 40  1  0  0  0  0
 40 35  1  0  0  0  0
 40 41  2  0  0  0  0
 41 32  1  0  0  0  0
 44 43  1  0  0  0  0
M  END
>  <MODEL>
7

>  <REMARK>
 VINA RESULT:      -7.2      3.171      7.915
  Name = 
  14 active torsions:
  status: ('A' for Active; 'I' for Inactive)
    1  A    between atoms: C_2  and  N_31
    2  A    between atoms: C_7  and  C_14
    3  A    between atoms: C_8  and  C_19
    4  A    between atoms: N_12  and  N_38
    5  A    between atoms: N_12  and  C_40
    6  A    between atoms: C_13  and  C_22
    7  A    between atoms: C_14  and  N_38
    8  A    between atoms: C_15  and  C_41
    9  A    between atoms: C_16  and  C_20
   10  A    between atoms: C_16  and  C_30
   11  A    between atoms: C_19  and  C_30
   12  A    between atoms: C_20  and  C_36
   13  A    between atoms: N_31  and  C_41
   14  A    between atoms: C_34  and  C_36
                            x       y       z     vdW  Elec       q    Type
                         _______ _______ _______ _____ _____    ______ ____

>  <TORSDO>
F 14

$$$$
=
 OpenBabel11042410393D

 44 49  0  0  1  0  0  0  0  0999 V2000
  184.9520  178.2280  139.2580 C   0  0  0  0  0  3  0  0  0  0  0  0
  184.6340  178.5220  140.5270 C   0  0  0  0  0  0  0  0  0  0  0  0
  184.0700  177.4340  138.3430 C   0  0  1  0  0  3  0  0  0  0  0  0
  183.4490  178.3560  137.3050 C   0  0  0  0  0  1  0  0  0  0  0  0
  184.8680  176.4190  137.6780 N   0  0  0  0  0  2  0  0  0  0  0  0
  185.6410  177.0700  136.7050 N   0  0  0  0  0  2  0  0  0  0  0  0
  188.1720  176.8630  136.6330 C   0  0  2  0  0  0  0  0  0  0  0  0
  186.6830  175.2450  135.4630 O   0  0  0  0  0  1  0  0  0  0  0  0
  188.2380  178.3190  137.0750 C   0  0  0  0  0  1  0  0  0  0  0  0
  186.8070  176.2370  136.4400 C   0  0  2  0  0  0  0  0  0  0  0  0
  187.6400  175.8570  137.6530 C   0  0  0  0  0  2  0  0  0  0  0  0
  189.2060  176.3590  135.7340 N   0  0  0  0  0  2  0  0  0  0  0  0
  190.4970  176.4630  136.3970 C   0  0  0  0  0  2  0  0  0  0  0  0
  193.2550  173.8490  137.1900 C   0  0  0  0  0  1  0  0  0  0  0  0
  191.1760  174.7820  137.9650 O   0  0  0  0  0  0  0  0  0  0  0  0
  192.3850  175.0810  137.3120 C   0  0  0  0  0  0  0  0  0  0  0  0
  192.9990  176.3610  137.8620 C   0  0  0  0  0  1  0  0  0  0  0  0
  191.0860  175.0750  136.5870 C   0  0  2  0  0  3  0  0  0  0  0  0
  183.3270  178.0740  141.1290 C   0  0  1  0  0  3  0  0  0  0  0  0
  183.3360  178.2610  142.6370 C   0  0  0  0  0  1  0  0  0  0  0  0
  182.1650  178.8230  140.4970 C   0  0  0  0  0  2  0  0  0  0  0  0
  180.8800  178.0190  140.5720 C   0  0  0  0  0  2  0  0  0  0  0  0
  180.2690  180.1010  141.5900 O   0  0  0  0  0  0  0  0  0  0  0  0
  179.6750  178.1200  142.7340 C   0  0  0  0  0  2  0  0  0  0  0  0
  179.6830  180.4950  142.8030 C   0  0  0  0  0  2  0  0  0  0  0  0
  179.8480  178.7770  141.3860 C   0  0  2  0  0  3  0  0  0  0  0  0
  179.5030  179.2740  143.6760 C   0  0  0  0  0  2  0  0  0  0  0  0
  185.5830  179.3800  141.3160 C   0  0  0  0  0  2  0  0  0  0  0  0
  187.1490  178.2300  142.9040 C   0  0  2  0  0  3  0  0  0  0  0  0
  186.8180  178.6180  141.6760 C   0  0  0  0  0  0  0  0  0  0  0  0
  186.4570  178.3720  144.1110 C   0  0  0  0  0  3  0  0  0  0  0  0
  188.9990  177.1280  144.0060 C   0  0  0  0  0  0  0  0  0  0  0  0
  190.7330  176.9440  140.3300 O   0  0  0  0  0  0  0  0  0  0  0  0
  190.3360  176.5050  143.8190 C   0  0  0  0  0  3  0  0  0  0  0  0
  190.2000  176.9940  141.4680 C   0  0  0  0  0  0  0  0  0  0  0  0
  187.0590  177.8760  145.2900 C   0  0  0  0  0  0  0  0  0  0  0  0
  188.3340  177.2450  145.2390 C   0  0  0  0  0  0  0  0  0  0  0  0
  190.8770  176.4540  142.6260 N   0  0  0  0  0  0  0  0  0  0  0  0
  187.9250  178.2500  140.7110 C   0  0  0  0  0  3  0  0  0  0  0  0
  188.8760  177.5990  141.6690 C   0  0  0  0  0  0  0  0  0  0  0  0
  188.3690  177.6300  142.8750 C   0  0  0  0  0  0  0  0  0  0  0  0
  188.9210  176.7480  146.3990 O   0  0  0  0  0  1  0  0  0  0  0  0
  186.3310  178.0100  146.5850 C   0  0  0  0  0  2  0  0  0  0  0  0
  184.9600  178.6160  146.3560 C   0  0  0  0  0  1  0  0  0  0  0  0
  1  2  2  0  0  0  0
  2 19  1  0  0  0  0
  2 28  1  0  0  0  0
  3  4  1  6  0  0  0
  3  1  1  0  0  0  0
  5  3  1  0  0  0  0
  6  5  1  0  0  0  0
  7  9  1  1  0  0  0
  7 11  1  0  0  0  0
 10  8  1  6  0  0  0
 10  7  1  0  0  0  0
 10  6  1  0  0  0  0
 10 11  1  0  0  0  0
 12 13  1  0  0  0  0
 12  7  1  0  0  0  0
 14 16  1  0  0  0  0
 16 17  1  0  0  0  0
 16 15  1  0  0  0  0
 18 13  1  1  0  0  0
 18 16  1  0  0  0  0
 18 15  1  0  0  0  0
 19 20  1  1  0  0  0
 21 22  1  0  0  0  0
 21 19  1  0  0  0  0
 23 25  1  0  0  0  0
 24 27  1  0  0  0  0
 25 27  1  0  0  0  0
 26 22  1  6  0  0  0
 26 23  1  0  0  0  0
 26 24  1  0  0  0  0
 28 30  1  0  0  0  0
 29 31  1  1  0  0  0
 30 29  1  0  0  0  0
 31 36  2  0  0  0  0
 32 37  2  0  0  0  0
 33 35  2  0  0  0  0
 34 32  1  0  0  0  0
 35 40  1  0  0  0  0
 35 38  1  0  0  0  0
 36 43  1  0  0  0  0
 37 36  1  0  0  0  0
 37 42  1  0  0  0  0
 38 34  2  0  0  0  0
 39 40  1  0  0  0  0
 39 30  2  0  0  0  0
 40 41  2  0  0  0  0
 41 29  1  0  0  0  0
 41 32  1  0  0  0  0
 44 43  1  0  0  0  0
M  END
>  <MODEL>
8

>  <REMARK>
 VINA RESULT:      -7.2      2.696      7.145
  Name = 
  14 active torsions:
  status: ('A' for Active; 'I' for Inactive)
    1  A    between atoms: C_2  and  N_31
    2  A    between atoms: C_7  and  C_14
    3  A    between atoms: C_8  and  C_19
    4  A    between atoms: N_12  and  N_38
    5  A    between atoms: N_12  and  C_40
    6  A    between atoms: C_13  and  C_22
    7  A    between atoms: C_14  and  N_38
    8  A    between atoms: C_15  and  C_41
    9  A    between atoms: C_16  and  C_20
   10  A    between atoms: C_16  and  C_30
   11  A    between atoms: C_19  and  C_30
   12  A    between atoms: C_20  and  C_36
   13  A    between atoms: N_31  and  C_41
   14  A    between atoms: C_34  and  C_36
                            x       y       z     vdW  Elec       q    Type
                         _______ _______ _______ _____ _____    ______ ____

>  <TORSDO>
F 14

$$$$
=
 OpenBabel11042410393D

 44 49  0  0  1  0  0  0  0  0999 V2000
  188.9630  177.0890  140.9160 C   0  0  0  0  0  3  0  0  0  0  0  0
  189.4400  177.0330  142.1680 C   0  0  0  0  0  0  0  0  0  0  0  0
  189.5260  177.9800  139.8510 C   0  0  1  0  0  3  0  0  0  0  0  0
  190.8230  177.3880  139.3220 C   0  0  0  0  0  1  0  0  0  0  0  0
  188.5640  178.0930  138.7690 N   0  0  0  0  0  2  0  0  0  0  0  0
  189.2500  177.8250  137.5750 N   0  0  0  0  0  2  0  0  0  0  0  0
  187.3700  177.0110  136.0720 C   0  0  2  0  0  0  0  0  0  0  0  0
  188.6170  175.4670  137.5780 O   0  0  0  0  0  1  0  0  0  0  0  0
  186.9220  178.4620  135.9590 C   0  0  0  0  0  1  0  0  0  0  0  0
  188.5830  176.7040  136.9270 C   0  0  2  0  0  0  0  0  0  0  0  0
  188.7010  176.6470  135.4120 C   0  0  0  0  0  2  0  0  0  0  0  0
  186.3540  175.9630  136.0570 N   0  0  0  0  0  2  0  0  0  0  0  0
  185.0500  176.5710  136.2750 C   0  0  0  0  0  2  0  0  0  0  0  0
  182.6800  176.0060  139.2970 C   0  0  0  0  0  1  0  0  0  0  0  0
  182.9220  175.6800  136.9240 O   0  0  0  0  0  0  0  0  0  0  0  0
  183.2140  176.5500  137.9900 C   0  0  0  0  0  0  0  0  0  0  0  0
  182.9070  177.9930  137.6160 C   0  0  0  0  0  1  0  0  0  0  0  0
  184.2770  175.7660  137.3070 C   0  0  2  0  0  3  0  0  0  0  0  0
  190.6150  177.8750  142.5950 C   0  0  1  0  0  3  0  0  0  0  0  0
  190.2060  178.8590  143.6780 C   0  0  0  0  0  1  0  0  0  0  0  0
  191.7590  176.9930  143.0680 C   0  0  0  0  0  2  0  0  0  0  0  0
  191.3030  176.0250  144.1440 C   0  0  0  0  0  2  0  0  0  0  0  0
  192.3720  175.0960  146.0790 O   0  0  0  0  0  0  0  0  0  0  0  0
  191.1970  177.1280  146.3590 C   0  0  0  0  0  2  0  0  0  0  0  0
  192.4280  175.4120  147.4460 C   0  0  0  0  0  2  0  0  0  0  0  0
  192.0560  176.3020  145.4330 C   0  0  2  0  0  3  0  0  0  0  0  0
  191.4950  176.5690  147.7180 C   0  0  0  0  0  2  0  0  0  0  0  0
  188.8200  176.0490  143.1190 C   0  0  0  0  0  2  0  0  0  0  0  0
  186.8730  177.4240  143.9040 C   0  0  0  0  0  0  0  0  0  0  0  0
  187.9930  176.7490  144.1490 C   0  0  0  0  0  0  0  0  0  0  0  0
  186.1780  177.6120  142.7060 C   0  0  0  0  0  3  0  0  0  0  0  0
  185.2840  178.7760  145.1280 C   0  0  0  0  0  0  0  0  0  0  0  0
  187.5910  178.0550  148.4000 O   0  0  0  0  0  0  0  0  0  0  0  0
  184.9260  179.3370  146.4570 C   0  0  0  0  0  3  0  0  0  0  0  0
  186.8710  178.2780  147.3930 C   0  0  0  0  0  0  0  0  0  0  0  0
  185.0080  178.4040  142.7290 C   0  0  0  0  0  0  0  0  0  0  0  0
  184.5530  178.9850  143.9450 C   0  0  0  0  0  0  0  0  0  0  0  0
  185.6810  179.0920  147.5000 N   0  0  0  0  0  0  0  0  0  0  0  0
  188.3500  176.8710  145.6160 C   0  0  0  0  0  2  0  0  0  0  0  0
  187.2070  177.7250  146.0740 C   0  0  0  0  0  0  0  0  0  0  0  0
  186.4280  177.9920  145.0570 C   0  0  0  0  0  0  0  0  0  0  0  0
  183.3940  179.7560  143.9680 O   0  0  0  0  0  1  0  0  0  0  0  0
  184.2480  178.6080  141.4610 C   0  0  0  0  0  2  0  0  0  0  0  0
  185.1930  179.0020  140.3420 C   0  0  0  0  0  1  0  0  0  0  0  0
  1  2  2  0  0  0  0
  2 19  1  0  0  0  0
  2 28  1  0  0  0  0
  3  4  1  6  0  0  0
  3  1  1  0  0  0  0
  5  3  1  0  0  0  0
  6  5  1  0  0  0  0
  7  9  1  6  0  0  0
  7 10  1  0  0  0  0
 10  6  1  0  0  0  0
 10  8  1  1  0  0  0
 11  7  1  0  0  0  0
 11 10  1  0  0  0  0
 12  7  1  0  0  0  0
 12 13  1  0  0  0  0
 15 18  1  0  0  0  0
 15 16  1  0  0  0  0
 16 14  1  0  0  0  0
 17 16  1  0  0  0  0
 18 13  1  6  0  0  0
 18 16  1  0  0  0  0
 19 21  1  0  0  0  0
 19 20  1  1  0  0  0
 21 22  1  0  0  0  0
 23 25  1  0  0  0  0
 24 27  1  0  0  0  0
 25 27  1  0  0  0  0
 26 22  1  6  0  0  0
 26 23  1  0  0  0  0
 26 24  1  0  0  0  0
 28 30  1  0  0  0  0
 29 30  2  0  0  0  0
 29 41  1  0  0  0  0
 30 39  1  0  0  0  0
 31 36  2  0  0  0  0
 31 29  1  0  0  0  0
 32 34  1  0  0  0  0
 34 38  2  0  0  0  0
 35 38  1  0  0  0  0
 35 33  2  0  0  0  0
 36 37  1  0  0  0  0
 37 42  1  0  0  0  0
 37 32  2  0  0  0  0
 39 40  1  0  0  0  0
 40 35  1  0  0  0  0
 41 32  1  0  0  0  0
 41 40  2  0  0  0  0
 43 36  1  0  0  0  0
 44 43  1  0  0  0  0
M  END
>  <MODEL>
9

>  <REMARK>
 VINA RESULT:      -7.2      1.521      3.183
  Name = 
  14 active torsions:
  status: ('A' for Active; 'I' for Inactive)
    1  A    between atoms: C_2  and  N_31
    2  A    between atoms: C_7  and  C_14
    3  A    between atoms: C_8  and  C_19
    4  A    between atoms: N_12  and  N_38
    5  A    between atoms: N_12  and  C_40
    6  A    between atoms: C_13  and  C_22
    7  A    between atoms: C_14  and  N_38
    8  A    between atoms: C_15  and  C_41
    9  A    between atoms: C_16  and  C_20
   10  A    between atoms: C_16  and  C_30
   11  A    between atoms: C_19  and  C_30
   12  A    between atoms: C_20  and  C_36
   13  A    between atoms: N_31  and  C_41
   14  A    between atoms: C_34  and  C_36
                            x       y       z     vdW  Elec       q    Type
                         _______ _______ _______ _____ _____    ______ ____

>  <TORSDO>
F 14

$$$$
