=
 OpenBabel11032419303D

 31 34  0  0  0  0  0  0  0  0999 V2000
  186.3600  178.8560  142.8220 C   0  0  0  0  0  3  0  0  0  0  0  0
  180.3260  179.8150  142.1310 O   0  0  0  0  0  0  0  0  0  0  0  0
  182.8550  178.8690  144.3450 C   0  0  0  0  0  0  0  0  0  0  0  0
  186.0840  178.8010  141.4560 C   0  0  0  0  0  0  0  0  0  0  0  0
  181.4330  178.7290  143.9010 C   0  0  0  0  0  2  0  0  0  0  0  0
  183.9860  178.8270  143.3640 C   0  0  0  0  0  0  0  0  0  0  0  0
  185.3430  178.8710  143.7740 C   0  0  0  0  0  0  0  0  0  0  0  0
  182.2740  178.6700  141.4710 C   0  0  0  0  0  2  0  0  0  0  0  0
  184.7470  178.7650  141.0290 C   0  0  0  0  0  0  0  0  0  0  0  0
  181.2850  179.1480  142.4800 C   0  0  0  0  0  0  0  0  0  0  0  0
  183.0670  179.0010  145.5800 O   0  0  0  0  0  0  0  0  0  0  0  0
  183.6960  178.7750  141.9720 C   0  0  0  0  0  0  0  0  0  0  0  0
  184.4490  178.6790  139.5610 C   0  0  0  0  0  2  0  0  0  0  0  0
  184.4240  179.9600  139.0090 O   0  0  0  0  0  1  0  0  0  0  0  0
  187.1420  178.7910  140.4790 N   0  0  0  0  0  2  0  0  0  0  0  0
  189.2030  178.1090  139.3730 C   0  0  0  0  0  3  0  0  0  0  0  0
  190.4130  177.4090  139.3490 C   0  0  0  0  0  3  0  0  0  0  0  0
  190.8070  176.6560  140.4590 C   0  0  0  0  0  3  0  0  0  0  0  0
  188.7810  177.3020  141.6120 C   0  0  0  0  0  3  0  0  0  0  0  0
  189.9900  176.6030  141.5910 C   0  0  0  0  0  0  0  0  0  0  0  0
  190.3680  175.8730  142.6670 F   0  0  0  0  0  0  0  0  0  0  0  0
  188.3800  178.0650  140.5040 C   0  0  0  0  0  0  0  0  0  0  0  0
  185.7640  178.8970  145.2080 C   0  0  0  0  0  2  0  0  0  0  0  0
  185.9650  177.4810  145.7170 C   0  0  0  0  0  2  0  0  0  0  0  0
  187.3260  177.3540  146.2970 C   0  0  0  0  0  3  0  0  0  0  0  0
  188.3740  177.2030  145.5000 C   0  0  0  0  0  3  0  0  0  0  0  0
  190.0350  176.7490  147.3450 C   0  0  0  0  0  3  0  0  0  0  0  0
  191.4210  176.7600  147.3490 C   0  0  0  0  0  3  0  0  0  0  0  0
  191.8680  177.0740  146.1150 N   0  0  0  0  0  0  0  0  0  0  0  0
  190.8290  177.2570  145.3600 O   0  0  0  0  0  0  0  0  0  0  0  0
  189.7270  177.0760  146.0420 C   0  0  0  0  0  0  0  0  0  0  0  0
  1  7  1  0  0  0  0
  2 10  2  0  0  0  0
  3 11  2  0  0  0  0
  4  1  2  0  0  0  0
  5  3  1  0  0  0  0
  6  7  2  0  0  0  0
  6  3  1  0  0  0  0
  7 23  1  0  0  0  0
  8 12  1  0  0  0  0
  8 10  1  0  0  0  0
  9  4  1  0  0  0  0
  9 12  2  0  0  0  0
 10  5  1  0  0  0  0
 12  6  1  0  0  0  0
 13  9  1  0  0  0  0
 14 13  1  0  0  0  0
 15 22  1  0  0  0  0
 15  4  1  0  0  0  0
 16 22  1  0  0  0  0
 17 16  2  0  0  0  0
 17 18  1  0  0  0  0
 18 20  2  0  0  0  0
 20 19  1  0  0  0  0
 20 21  1  0  0  0  0
 22 19  2  0  0  0  0
 23 24  1  0  0  0  0
 24 25  1  0  0  0  0
 26 31  1  0  0  0  0
 26 25  2  0  0  0  0
 27 28  1  0  0  0  0
 29 28  2  0  0  0  0
 30 31  1  0  0  0  0
 30 29  1  0  0  0  0
 31 27  2  0  0  0  0
M  END
>  <MODEL>
1

>  <REMARK>
 VINA RESULT:      -9.7      0.000      0.000
  Name = 
  7 active torsions:
  status: ('A' for Active; 'I' for Inactive)
    1  A    between atoms: N_4  and  C_8
    2  A    between atoms: N_4  and  C_30
    3  A    between atoms: C_12  and  C_20
    4  A    between atoms: C_12  and  C_28
    5  A    between atoms: C_14  and  C_28
    6  A    between atoms: C_16  and  C_22
    7  A    between atoms: C_19  and  C_24
                            x       y       z     vdW  Elec       q    Type
                         _______ _______ _______ _____ _____    ______ ____

>  <TORSDO>
F 7

$$$$
=
 OpenBabel11032419303D

 31 34  0  0  0  0  0  0  0  0999 V2000
  187.4240  177.8410  143.8740 C   0  0  0  0  0  3  0  0  0  0  0  0
  181.3010  178.3810  144.0190 O   0  0  0  0  0  0  0  0  0  0  0  0
  184.1730  178.7020  142.0590 C   0  0  0  0  0  0  0  0  0  0  0  0
  187.0470  177.9480  145.2130 C   0  0  0  0  0  0  0  0  0  0  0  0
  182.7930  179.1800  142.3850 C   0  0  0  0  0  2  0  0  0  0  0  0
  185.1860  178.4560  143.1340 C   0  0  0  0  0  0  0  0  0  0  0  0
  186.5230  178.0850  142.8390 C   0  0  0  0  0  0  0  0  0  0  0  0
  183.4000  179.0080  144.8780 C   0  0  0  0  0  2  0  0  0  0  0  0
  185.7260  178.3060  145.5260 C   0  0  0  0  0  0  0  0  0  0  0  0
  182.4200  178.7960  143.7740 C   0  0  0  0  0  0  0  0  0  0  0  0
  184.4560  178.5340  140.8430 O   0  0  0  0  0  0  0  0  0  0  0  0
  184.7930  178.5640  144.4970 C   0  0  0  0  0  0  0  0  0  0  0  0
  185.3260  178.4470  146.9650 C   0  0  0  0  0  2  0  0  0  0  0  0
  185.6930  179.7090  147.4340 O   0  0  0  0  0  1  0  0  0  0  0  0
  187.9830  177.6890  146.2760 N   0  0  0  0  0  2  0  0  0  0  0  0
  189.9700  176.7960  147.3660 C   0  0  0  0  0  3  0  0  0  0  0  0
  191.2810  176.3100  147.3290 C   0  0  0  0  0  3  0  0  0  0  0  0
  191.9570  176.2160  146.1100 C   0  0  0  0  0  3  0  0  0  0  0  0
  190.0130  177.0940  144.9680 C   0  0  0  0  0  3  0  0  0  0  0  0
  191.3230  176.6080  144.9290 C   0  0  0  0  0  0  0  0  0  0  0  0
  191.9760  176.5190  143.7460 F   0  0  0  0  0  0  0  0  0  0  0  0
  189.3250  177.1870  146.1880 C   0  0  0  0  0  0  0  0  0  0  0  0
  187.0530  177.9720  141.4460 C   0  0  0  0  0  2  0  0  0  0  0  0
  188.5530  178.2020  141.4390 C   0  0  0  0  0  2  0  0  0  0  0  0
  189.2030  177.1890  140.5680 C   0  0  0  0  0  3  0  0  0  0  0  0
  190.3290  177.4850  139.9340 C   0  0  0  0  0  3  0  0  0  0  0  0
  192.2600  176.6390  138.5490 C   0  0  0  0  0  3  0  0  0  0  0  0
  192.4170  175.4730  137.8150 C   0  0  0  0  0  3  0  0  0  0  0  0
  191.2970  174.7270  137.9200 N   0  0  0  0  0  0  0  0  0  0  0  0
  190.4670  175.3760  138.6770 O   0  0  0  0  0  0  0  0  0  0  0  0
  190.9920  176.5080  139.0700 C   0  0  0  0  0  0  0  0  0  0  0  0
  1  4  1  0  0  0  0
  3  5  1  0  0  0  0
  3  6  1  0  0  0  0
  4  9  2  0  0  0  0
  4 15  1  0  0  0  0
  5 10  1  0  0  0  0
  6 12  2  0  0  0  0
  7  6  1  0  0  0  0
  7  1  2  0  0  0  0
  9 13  1  0  0  0  0
 10  2  2  0  0  0  0
 10  8  1  0  0  0  0
 11  3  2  0  0  0  0
 12  8  1  0  0  0  0
 12  9  1  0  0  0  0
 13 14  1  0  0  0  0
 17 16  1  0  0  0  0
 18 17  2  0  0  0  0
 19 22  1  0  0  0  0
 20 19  2  0  0  0  0
 20 18  1  0  0  0  0
 21 20  1  0  0  0  0
 22 15  1  0  0  0  0
 22 16  2  0  0  0  0
 23  7  1  0  0  0  0
 24 23  1  0  0  0  0
 25 24  1  0  0  0  0
 26 25  2  0  0  0  0
 27 31  2  0  0  0  0
 28 29  2  0  0  0  0
 28 27  1  0  0  0  0
 29 30  1  0  0  0  0
 30 31  1  0  0  0  0
 31 26  1  0  0  0  0
M  END
>  <MODEL>
2

>  <REMARK>
 VINA RESULT:      -9.6      2.351      5.580
  Name = 
  7 active torsions:
  status: ('A' for Active; 'I' for Inactive)
    1  A    between atoms: N_4  and  C_8
    2  A    between atoms: N_4  and  C_30
    3  A    between atoms: C_12  and  C_20
    4  A    between atoms: C_12  and  C_28
    5  A    between atoms: C_14  and  C_28
    6  A    between atoms: C_16  and  C_22
    7  A    between atoms: C_19  and  C_24
                            x       y       z     vdW  Elec       q    Type
                         _______ _______ _______ _____ _____    ______ ____

>  <TORSDO>
F 7

$$$$
=
 OpenBabel11032419303D

 31 34  0  0  0  0  0  0  0  0999 V2000
  187.1070  177.3720  143.4400 C   0  0  0  0  0  3  0  0  0  0  0  0
  189.7820  178.4800  148.8640 O   0  0  0  0  0  0  0  0  0  0  0  0
  190.0360  176.7820  145.8230 C   0  0  0  0  0  0  0  0  0  0  0  0
  186.1160  177.8370  144.3060 C   0  0  0  0  0  0  0  0  0  0  0  0
  190.3160  176.8120  147.2920 C   0  0  0  0  0  2  0  0  0  0  0  0
  188.6820  177.1230  145.2820 C   0  0  0  0  0  0  0  0  0  0  0  0
  188.3730  177.0180  143.9010 C   0  0  0  0  0  0  0  0  0  0  0  0
  187.9240  177.6830  147.6580 C   0  0  0  0  0  2  0  0  0  0  0  0
  186.4040  177.9560  145.6740 C   0  0  0  0  0  0  0  0  0  0  0  0
  189.3780  177.7370  147.9860 C   0  0  0  0  0  0  0  0  0  0  0  0
  190.9770  176.4390  145.0600 O   0  0  0  0  0  0  0  0  0  0  0  0
  187.6780  177.6000  146.1700 C   0  0  0  0  0  0  0  0  0  0  0  0
  185.3320  178.4310  146.6100 C   0  0  0  0  0  2  0  0  0  0  0  0
  185.5920  179.7460  146.9960 O   0  0  0  0  0  1  0  0  0  0  0  0
  184.8110  178.2050  143.8200 N   0  0  0  0  0  2  0  0  0  0  0  0
  185.3510  178.8990  141.5470 C   0  0  0  0  0  3  0  0  0  0  0  0
  184.9880  179.1680  140.2240 C   0  0  0  0  0  3  0  0  0  0  0  0
  183.6620  179.0010  139.8150 C   0  0  0  0  0  3  0  0  0  0  0  0
  183.0640  178.2980  142.0520 C   0  0  0  0  0  3  0  0  0  0  0  0
  182.7000  178.5660  140.7290 C   0  0  0  0  0  0  0  0  0  0  0  0
  181.4140  178.4060  140.3360 F   0  0  0  0  0  0  0  0  0  0  0  0
  184.3950  178.4590  142.4700 C   0  0  0  0  0  0  0  0  0  0  0  0
  189.3390  176.5010  142.8830 C   0  0  0  0  0  2  0  0  0  0  0  0
  190.0220  177.6570  142.1770 C   0  0  0  0  0  2  0  0  0  0  0  0
  189.6780  177.6260  140.7330 C   0  0  0  0  0  3  0  0  0  0  0  0
  188.6940  178.3840  140.2700 C   0  0  0  0  0  3  0  0  0  0  0  0
  187.6650  177.3570  138.2070 C   0  0  0  0  0  3  0  0  0  0  0  0
  187.5700  177.8220  136.9050 C   0  0  0  0  0  3  0  0  0  0  0  0
  188.1530  179.0360  136.8220 N   0  0  0  0  0  0  0  0  0  0  0  0
  188.5990  179.3350  138.0040 O   0  0  0  0  0  0  0  0  0  0  0  0
  188.3330  178.3750  138.8520 C   0  0  0  0  0  0  0  0  0  0  0  0
  1  7  2  0  0  0  0
  1  4  1  0  0  0  0
  3  5  1  0  0  0  0
  4  9  2  0  0  0  0
  5 10  1  0  0  0  0
  6  3  1  0  0  0  0
  6 12  2  0  0  0  0
  7  6  1  0  0  0  0
  8 10  1  0  0  0  0
  9 12  1  0  0  0  0
  9 13  1  0  0  0  0
 10  2  2  0  0  0  0
 11  3  2  0  0  0  0
 12  8  1  0  0  0  0
 13 14  1  0  0  0  0
 15  4  1  0  0  0  0
 16 22  1  0  0  0  0
 17 16  2  0  0  0  0
 18 17  1  0  0  0  0
 18 20  2  0  0  0  0
 19 22  2  0  0  0  0
 20 19  1  0  0  0  0
 21 20  1  0  0  0  0
 22 15  1  0  0  0  0
 23  7  1  0  0  0  0
 24 23  1  0  0  0  0
 25 24  1  0  0  0  0
 26 25  2  0  0  0  0
 27 31  2  0  0  0  0
 28 27  1  0  0  0  0
 29 28  2  0  0  0  0
 29 30  1  0  0  0  0
 30 31  1  0  0  0  0
 31 26  1  0  0  0  0
M  END
>  <MODEL>
3

>  <REMARK>
 VINA RESULT:      -9.4      3.010      7.279
  Name = 
  7 active torsions:
  status: ('A' for Active; 'I' for Inactive)
    1  A    between atoms: N_4  and  C_8
    2  A    between atoms: N_4  and  C_30
    3  A    between atoms: C_12  and  C_20
    4  A    between atoms: C_12  and  C_28
    5  A    between atoms: C_14  and  C_28
    6  A    between atoms: C_16  and  C_22
    7  A    between atoms: C_19  and  C_24
                            x       y       z     vdW  Elec       q    Type
                         _______ _______ _______ _____ _____    ______ ____

>  <TORSDO>
F 7

$$$$
=
 OpenBabel11032419303D

 31 34  0  0  0  0  0  0  0  0999 V2000
  187.5830  177.8490  143.3830 C   0  0  0  0  0  3  0  0  0  0  0  0
  192.2020  175.9360  146.9630 O   0  0  0  0  0  0  0  0  0  0  0  0
  188.9240  177.1390  146.8910 C   0  0  0  0  0  0  0  0  0  0  0  0
  188.7570  177.9510  142.6370 C   0  0  0  0  0  0  0  0  0  0  0  0
  190.2390  177.0670  147.6000 C   0  0  0  0  0  2  0  0  0  0  0  0
  188.8460  177.4390  145.4250 C   0  0  0  0  0  0  0  0  0  0  0  0
  187.6060  177.5950  144.7530 C   0  0  0  0  0  0  0  0  0  0  0  0
  191.4000  177.4370  145.3360 C   0  0  0  0  0  2  0  0  0  0  0  0
  189.9940  177.7910  143.2820 C   0  0  0  0  0  0  0  0  0  0  0  0
  191.3310  176.7290  146.6470 C   0  0  0  0  0  0  0  0  0  0  0  0
  187.8840  176.9580  147.5760 O   0  0  0  0  0  0  0  0  0  0  0  0
  190.0470  177.5380  144.6710 C   0  0  0  0  0  0  0  0  0  0  0  0
  191.2590  177.9270  142.4870 C   0  0  0  0  0  2  0  0  0  0  0  0
  191.6660  176.6730  142.0310 O   0  0  0  0  0  1  0  0  0  0  0  0
  188.7240  178.2080  141.2210 N   0  0  0  0  0  2  0  0  0  0  0  0
  187.7370  177.9290  139.0100 C   0  0  0  0  0  3  0  0  0  0  0  0
  186.6570  178.0100  138.1250 C   0  0  0  0  0  3  0  0  0  0  0  0
  185.4150  178.4640  138.5780 C   0  0  0  0  0  3  0  0  0  0  0  0
  186.3350  178.7570  140.7970 C   0  0  0  0  0  3  0  0  0  0  0  0
  185.2540  178.8380  139.9140 C   0  0  0  0  0  0  0  0  0  0  0  0
  184.0530  179.2800  140.3550 F   0  0  0  0  0  0  0  0  0  0  0  0
  187.5850  178.2980  140.3510 C   0  0  0  0  0  0  0  0  0  0  0  0
  186.2850  177.5420  145.4490 C   0  0  0  0  0  2  0  0  0  0  0  0
  185.6860  178.9330  145.5390 C   0  0  0  0  0  2  0  0  0  0  0  0
  184.2520  178.8790  145.1530 C   0  0  0  0  0  3  0  0  0  0  0  0
  183.9090  178.9060  143.8730 C   0  0  0  0  0  3  0  0  0  0  0  0
  181.4400  178.6120  144.3020 C   0  0  0  0  0  3  0  0  0  0  0  0
  180.3510  178.6640  143.4460 C   0  0  0  0  0  3  0  0  0  0  0  0
  180.7820  178.9200  142.1930 N   0  0  0  0  0  0  0  0  0  0  0  0
  182.0740  179.0260  142.2400 O   0  0  0  0  0  0  0  0  0  0  0  0
  182.5060  178.8530  143.4630 C   0  0  0  0  0  0  0  0  0  0  0  0
  1  7  1  0  0  0  0
  3 11  2  0  0  0  0
  3  5  1  0  0  0  0
  4  9  1  0  0  0  0
  4  1  2  0  0  0  0
  6  3  1  0  0  0  0
  7  6  2  0  0  0  0
  7 23  1  0  0  0  0
  8 10  1  0  0  0  0
  9 12  2  0  0  0  0
 10  2  2  0  0  0  0
 10  5  1  0  0  0  0
 12  8  1  0  0  0  0
 12  6  1  0  0  0  0
 13  9  1  0  0  0  0
 14 13  1  0  0  0  0
 15  4  1  0  0  0  0
 16 22  1  0  0  0  0
 17 18  1  0  0  0  0
 17 16  2  0  0  0  0
 18 20  2  0  0  0  0
 20 21  1  0  0  0  0
 20 19  1  0  0  0  0
 22 19  2  0  0  0  0
 22 15  1  0  0  0  0
 23 24  1  0  0  0  0
 25 24  1  0  0  0  0
 26 25  2  0  0  0  0
 28 27  1  0  0  0  0
 29 30  1  0  0  0  0
 29 28  2  0  0  0  0
 30 31  1  0  0  0  0
 31 26  1  0  0  0  0
 31 27  2  0  0  0  0
M  END
>  <MODEL>
4

>  <REMARK>
 VINA RESULT:      -9.3      2.412      7.079
  Name = 
  7 active torsions:
  status: ('A' for Active; 'I' for Inactive)
    1  A    between atoms: N_4  and  C_8
    2  A    between atoms: N_4  and  C_30
    3  A    between atoms: C_12  and  C_20
    4  A    between atoms: C_12  and  C_28
    5  A    between atoms: C_14  and  C_28
    6  A    between atoms: C_16  and  C_22
    7  A    between atoms: C_19  and  C_24
                            x       y       z     vdW  Elec       q    Type
                         _______ _______ _______ _____ _____    ______ ____

>  <TORSDO>
F 7

$$$$
=
 OpenBabel11032419303D

 31 34  0  0  0  0  0  0  0  0999 V2000
  186.9100  177.6000  143.3200 C   0  0  0  0  0  3  0  0  0  0  0  0
  189.7620  178.3180  148.7200 O   0  0  0  0  0  0  0  0  0  0  0  0
  189.9150  176.8460  145.5570 C   0  0  0  0  0  0  0  0  0  0  0  0
  185.9480  177.9990  144.2490 C   0  0  0  0  0  0  0  0  0  0  0  0
  190.2440  176.7700  147.0150 C   0  0  0  0  0  2  0  0  0  0  0  0
  188.5440  177.2220  145.0860 C   0  0  0  0  0  0  0  0  0  0  0  0
  188.1910  177.2170  143.7120 C   0  0  0  0  0  0  0  0  0  0  0  0
  187.8650  177.6070  147.5200 C   0  0  0  0  0  2  0  0  0  0  0  0
  186.2810  178.0200  145.6120 C   0  0  0  0  0  0  0  0  0  0  0  0
  189.3290  177.6400  147.8040 C   0  0  0  0  0  0  0  0  0  0  0  0
  190.8300  176.5610  144.7400 O   0  0  0  0  0  0  0  0  0  0  0  0
  187.5700  177.6310  146.0390 C   0  0  0  0  0  0  0  0  0  0  0  0
  185.2400  178.4230  146.6150 C   0  0  0  0  0  2  0  0  0  0  0  0
  185.5330  179.6920  147.1130 O   0  0  0  0  0  1  0  0  0  0  0  0
  184.6280  178.3980  143.8340 N   0  0  0  0  0  2  0  0  0  0  0  0
  182.7350  178.5260  142.3050 C   0  0  0  0  0  3  0  0  0  0  0  0
  182.1960  178.6800  141.0240 C   0  0  0  0  0  3  0  0  0  0  0  0
  183.0410  178.8770  139.9290 C   0  0  0  0  0  3  0  0  0  0  0  0
  184.9620  178.7650  141.3960 C   0  0  0  0  0  3  0  0  0  0  0  0
  184.4250  178.9190  140.1150 C   0  0  0  0  0  0  0  0  0  0  0  0
  185.2470  179.1080  139.0560 F   0  0  0  0  0  0  0  0  0  0  0  0
  184.1200  178.5710  142.5020 C   0  0  0  0  0  0  0  0  0  0  0  0
  189.1220  176.7770  142.6290 C   0  0  0  0  0  2  0  0  0  0  0  0
  189.3870  177.9240  141.6720 C   0  0  0  0  0  2  0  0  0  0  0  0
  189.0950  177.4850  140.2830 C   0  0  0  0  0  3  0  0  0  0  0  0
  188.4370  178.2880  139.4600 C   0  0  0  0  0  3  0  0  0  0  0  0
  188.2900  178.6770  136.9710 C   0  0  0  0  0  3  0  0  0  0  0  0
  187.8750  177.8480  135.9390 C   0  0  0  0  0  3  0  0  0  0  0  0
  187.5080  176.6540  136.4480 N   0  0  0  0  0  0  0  0  0  0  0  0
  187.6760  176.7100  137.7340 O   0  0  0  0  0  0  0  0  0  0  0  0
  188.1350  177.8830  138.0860 C   0  0  0  0  0  0  0  0  0  0  0  0
  1  7  2  0  0  0  0
  1  4  1  0  0  0  0
  3  5  1  0  0  0  0
  4  9  2  0  0  0  0
  5 10  1  0  0  0  0
  6  3  1  0  0  0  0
  6 12  2  0  0  0  0
  7  6  1  0  0  0  0
  8 10  1  0  0  0  0
  9 12  1  0  0  0  0
  9 13  1  0  0  0  0
 10  2  2  0  0  0  0
 11  3  2  0  0  0  0
 12  8  1  0  0  0  0
 13 14  1  0  0  0  0
 15  4  1  0  0  0  0
 16 22  1  0  0  0  0
 17 16  2  0  0  0  0
 18 20  2  0  0  0  0
 18 17  1  0  0  0  0
 19 22  2  0  0  0  0
 20 19  1  0  0  0  0
 21 20  1  0  0  0  0
 22 15  1  0  0  0  0
 23  7  1  0  0  0  0
 24 23  1  0  0  0  0
 25 24  1  0  0  0  0
 26 25  2  0  0  0  0
 27 31  2  0  0  0  0
 28 29  2  0  0  0  0
 28 27  1  0  0  0  0
 29 30  1  0  0  0  0
 30 31  1  0  0  0  0
 31 26  1  0  0  0  0
M  END
>  <MODEL>
5

>  <REMARK>
 VINA RESULT:      -9.3      2.803      7.408
  Name = 
  7 active torsions:
  status: ('A' for Active; 'I' for Inactive)
    1  A    between atoms: N_4  and  C_8
    2  A    between atoms: N_4  and  C_30
    3  A    between atoms: C_12  and  C_20
    4  A    between atoms: C_12  and  C_28
    5  A    between atoms: C_14  and  C_28
    6  A    between atoms: C_16  and  C_22
    7  A    between atoms: C_19  and  C_24
                            x       y       z     vdW  Elec       q    Type
                         _______ _______ _______ _____ _____    ______ ____

>  <TORSDO>
F 7

$$$$
=
 OpenBabel11032419303D

 31 34  0  0  0  0  0  0  0  0999 V2000
  186.9060  177.7880  143.2080 C   0  0  0  0  0  3  0  0  0  0  0  0
  189.7600  178.2420  148.6360 O   0  0  0  0  0  0  0  0  0  0  0  0
  189.9580  177.0120  145.3730 C   0  0  0  0  0  0  0  0  0  0  0  0
  185.9340  178.0740  144.1680 C   0  0  0  0  0  0  0  0  0  0  0  0
  190.3000  176.8460  146.8200 C   0  0  0  0  0  2  0  0  0  0  0  0
  188.5680  177.3590  144.9360 C   0  0  0  0  0  0  0  0  0  0  0  0
  188.2060  177.4370  143.5670 C   0  0  0  0  0  0  0  0  0  0  0  0
  187.8900  177.5340  147.3950 C   0  0  0  0  0  2  0  0  0  0  0  0
  186.2750  178.0110  145.5280 C   0  0  0  0  0  0  0  0  0  0  0  0
  189.3530  177.6130  147.6740 C   0  0  0  0  0  0  0  0  0  0  0  0
  190.8800  176.8300  144.5340 O   0  0  0  0  0  0  0  0  0  0  0  0
  187.5840  177.6520  145.9200 C   0  0  0  0  0  0  0  0  0  0  0  0
  185.2230  178.2920  146.5610 C   0  0  0  0  0  2  0  0  0  0  0  0
  185.4350  179.5530  147.1170 O   0  0  0  0  0  1  0  0  0  0  0  0
  184.5940  178.4420  143.7880 N   0  0  0  0  0  2  0  0  0  0  0  0
  182.6610  178.5610  142.3090 C   0  0  0  0  0  3  0  0  0  0  0  0
  182.0880  178.7150  141.0430 C   0  0  0  0  0  3  0  0  0  0  0  0
  182.9030  178.9230  139.9270 C   0  0  0  0  0  3  0  0  0  0  0  0
  184.8620  178.8210  141.3440 C   0  0  0  0  0  3  0  0  0  0  0  0
  184.2910  178.9760  140.0780 C   0  0  0  0  0  0  0  0  0  0  0  0
  185.0840  179.1760  138.9990 F   0  0  0  0  0  0  0  0  0  0  0  0
  184.0500  178.6160  142.4710 C   0  0  0  0  0  0  0  0  0  0  0  0
  189.1480  177.1200  142.4510 C   0  0  0  0  0  2  0  0  0  0  0  0
  188.7190  177.8400  141.1860 C   0  0  0  0  0  2  0  0  0  0  0  0
  189.6590  177.5070  140.0860 C   0  0  0  0  0  3  0  0  0  0  0  0
  190.9240  177.2190  140.3600 C   0  0  0  0  0  3  0  0  0  0  0  0
  191.5410  176.3440  138.0740 C   0  0  0  0  0  3  0  0  0  0  0  0
  192.7700  176.2200  137.4450 C   0  0  0  0  0  3  0  0  0  0  0  0
  193.7400  176.6680  138.2680 N   0  0  0  0  0  0  0  0  0  0  0  0
  193.1680  177.0580  139.3670 O   0  0  0  0  0  0  0  0  0  0  0  0
  191.8730  176.8860  139.2970 C   0  0  0  0  0  0  0  0  0  0  0  0
  1  7  2  0  0  0  0
  1  4  1  0  0  0  0
  3  5  1  0  0  0  0
  4  9  2  0  0  0  0
  5 10  1  0  0  0  0
  6  3  1  0  0  0  0
  6 12  2  0  0  0  0
  7  6  1  0  0  0  0
  8 10  1  0  0  0  0
  9 12  1  0  0  0  0
  9 13  1  0  0  0  0
 10  2  2  0  0  0  0
 11  3  2  0  0  0  0
 12  8  1  0  0  0  0
 13 14  1  0  0  0  0
 15  4  1  0  0  0  0
 16 22  1  0  0  0  0
 17 16  2  0  0  0  0
 18 20  2  0  0  0  0
 18 17  1  0  0  0  0
 19 22  2  0  0  0  0
 20 19  1  0  0  0  0
 21 20  1  0  0  0  0
 22 15  1  0  0  0  0
 23  7  1  0  0  0  0
 24 23  1  0  0  0  0
 25 26  2  0  0  0  0
 25 24  1  0  0  0  0
 27 31  2  0  0  0  0
 28 27  1  0  0  0  0
 28 29  2  0  0  0  0
 29 30  1  0  0  0  0
 31 30  1  0  0  0  0
 31 26  1  0  0  0  0
M  END
>  <MODEL>
6

>  <REMARK>
 VINA RESULT:      -9.3      3.027      7.055
  Name = 
  7 active torsions:
  status: ('A' for Active; 'I' for Inactive)
    1  A    between atoms: N_4  and  C_8
    2  A    between atoms: N_4  and  C_30
    3  A    between atoms: C_12  and  C_20
    4  A    between atoms: C_12  and  C_28
    5  A    between atoms: C_14  and  C_28
    6  A    between atoms: C_16  and  C_22
    7  A    between atoms: C_19  and  C_24
                            x       y       z     vdW  Elec       q    Type
                         _______ _______ _______ _____ _____    ______ ____

>  <TORSDO>
F 7

$$$$
=
 OpenBabel11032419303D

 31 34  0  0  0  0  0  0  0  0999 V2000
  187.6270  177.6830  143.8490 C   0  0  0  0  0  3  0  0  0  0  0  0
  192.0550  177.1290  148.0780 O   0  0  0  0  0  0  0  0  0  0  0  0
  191.0920  176.3860  144.8050 C   0  0  0  0  0  0  0  0  0  0  0  0
  187.0390  177.8910  145.0970 C   0  0  0  0  0  0  0  0  0  0  0  0
  191.8440  175.9830  146.0340 C   0  0  0  0  0  2  0  0  0  0  0  0
  189.6830  176.8880  144.8850 C   0  0  0  0  0  0  0  0  0  0  0  0
  188.9250  177.1940  143.7250 C   0  0  0  0  0  0  0  0  0  0  0  0
  189.8250  176.7440  147.4330 C   0  0  0  0  0  2  0  0  0  0  0  0
  187.7750  177.6030  146.2570 C   0  0  0  0  0  0  0  0  0  0  0  0
  191.3010  176.6800  147.2320 C   0  0  0  0  0  0  0  0  0  0  0  0
  191.6810  176.2660  143.6990 O   0  0  0  0  0  0  0  0  0  0  0  0
  189.0920  177.1000  146.1600 C   0  0  0  0  0  0  0  0  0  0  0  0
  187.1350  177.8000  147.6000 C   0  0  0  0  0  2  0  0  0  0  0  0
  187.5670  179.0040  148.1550 O   0  0  0  0  0  1  0  0  0  0  0  0
  185.6980  178.4020  145.2170 N   0  0  0  0  0  2  0  0  0  0  0  0
  183.3940  178.8890  144.5880 C   0  0  0  0  0  3  0  0  0  0  0  0
  182.3760  179.0030  143.6360 C   0  0  0  0  0  3  0  0  0  0  0  0
  182.6460  178.7430  142.2900 C   0  0  0  0  0  3  0  0  0  0  0  0
  184.9490  178.2530  142.8490 C   0  0  0  0  0  3  0  0  0  0  0  0
  183.9330  178.3680  141.8960 C   0  0  0  0  0  0  0  0  0  0  0  0
  184.1970  178.1140  140.5930 F   0  0  0  0  0  0  0  0  0  0  0  0
  184.6870  178.5170  144.2030 C   0  0  0  0  0  0  0  0  0  0  0  0
  189.4330  176.9810  142.3350 C   0  0  0  0  0  2  0  0  0  0  0  0
  189.2220  178.2340  141.5050 C   0  0  0  0  0  2  0  0  0  0  0  0
  188.7560  177.8530  140.1470 C   0  0  0  0  0  3  0  0  0  0  0  0
  189.0370  178.6280  139.1090 C   0  0  0  0  0  3  0  0  0  0  0  0
  189.1980  177.3540  136.9370 C   0  0  0  0  0  3  0  0  0  0  0  0
  188.4120  177.3920  135.7950 C   0  0  0  0  0  3  0  0  0  0  0  0
  187.4190  178.2880  135.9680 N   0  0  0  0  0  0  0  0  0  0  0  0
  187.5570  178.7990  137.1530 O   0  0  0  0  0  0  0  0  0  0  0  0
  188.5930  178.2780  137.7600 C   0  0  0  0  0  0  0  0  0  0  0  0
  1  4  1  0  0  0  0
  3  6  1  0  0  0  0
  3  5  1  0  0  0  0
  4 15  1  0  0  0  0
  4  9  2  0  0  0  0
  5 10  1  0  0  0  0
  6 12  2  0  0  0  0
  7  1  2  0  0  0  0
  7  6  1  0  0  0  0
  9 13  1  0  0  0  0
 10  8  1  0  0  0  0
 10  2  2  0  0  0  0
 11  3  2  0  0  0  0
 12  9  1  0  0  0  0
 12  8  1  0  0  0  0
 13 14  1  0  0  0  0
 17 16  2  0  0  0  0
 18 17  1  0  0  0  0
 19 22  2  0  0  0  0
 20 18  2  0  0  0  0
 20 19  1  0  0  0  0
 21 20  1  0  0  0  0
 22 16  1  0  0  0  0
 22 15  1  0  0  0  0
 23  7  1  0  0  0  0
 24 23  1  0  0  0  0
 25 24  1  0  0  0  0
 26 25  2  0  0  0  0
 27 31  2  0  0  0  0
 28 29  2  0  0  0  0
 28 27  1  0  0  0  0
 29 30  1  0  0  0  0
 30 31  1  0  0  0  0
 31 26  1  0  0  0  0
M  END
>  <MODEL>
7

>  <REMARK>
 VINA RESULT:      -9.2      2.951      8.146
  Name = 
  7 active torsions:
  status: ('A' for Active; 'I' for Inactive)
    1  A    between atoms: N_4  and  C_8
    2  A    between atoms: N_4  and  C_30
    3  A    between atoms: C_12  and  C_20
    4  A    between atoms: C_12  and  C_28
    5  A    between atoms: C_14  and  C_28
    6  A    between atoms: C_16  and  C_22
    7  A    between atoms: C_19  and  C_24
                            x       y       z     vdW  Elec       q    Type
                         _______ _______ _______ _____ _____    ______ ____

>  <TORSDO>
F 7

$$$$
=
 OpenBabel11032419303D

 31 34  0  0  0  0  0  0  0  0999 V2000
  187.2060  177.4620  142.9120 C   0  0  0  0  0  3  0  0  0  0  0  0
  187.9300  177.2680  149.0150 O   0  0  0  0  0  0  0  0  0  0  0  0
  185.9480  178.4340  146.3870 C   0  0  0  0  0  0  0  0  0  0  0  0
  188.5430  177.1490  143.1630 C   0  0  0  0  0  0  0  0  0  0  0  0
  186.4940  178.6490  147.7640 C   0  0  0  0  0  2  0  0  0  0  0  0
  186.8330  178.0110  145.2560 C   0  0  0  0  0  0  0  0  0  0  0  0
  186.3510  177.8840  143.9280 C   0  0  0  0  0  0  0  0  0  0  0  0
  188.7830  177.8560  146.9020 C   0  0  0  0  0  2  0  0  0  0  0  0
  189.0370  177.2590  144.4730 C   0  0  0  0  0  0  0  0  0  0  0  0
  187.7360  177.8550  147.9640 C   0  0  0  0  0  0  0  0  0  0  0  0
  184.7190  178.6430  146.2110 O   0  0  0  0  0  0  0  0  0  0  0  0
  188.1930  177.6910  145.5210 C   0  0  0  0  0  0  0  0  0  0  0  0
  190.4810  176.9500  144.7400 C   0  0  0  0  0  2  0  0  0  0  0  0
  191.2620  178.0710  144.4600 O   0  0  0  0  0  1  0  0  0  0  0  0
  189.4190  176.7080  142.1090 N   0  0  0  0  0  2  0  0  0  0  0  0
  188.5800  178.1360  140.3210 C   0  0  0  0  0  3  0  0  0  0  0  0
  188.6310  178.6280  139.0130 C   0  0  0  0  0  3  0  0  0  0  0  0
  189.6190  178.1770  138.1340 C   0  0  0  0  0  3  0  0  0  0  0  0
  190.5030  176.7420  139.8700 C   0  0  0  0  0  3  0  0  0  0  0  0
  190.5550  177.2330  138.5630 C   0  0  0  0  0  0  0  0  0  0  0  0
  191.5130  176.7920  137.7130 F   0  0  0  0  0  0  0  0  0  0  0  0
  189.5160  177.1930  140.7610 C   0  0  0  0  0  0  0  0  0  0  0  0
  184.9510  178.2230  143.5290 C   0  0  0  0  0  2  0  0  0  0  0  0
  184.9550  179.3570  142.5220 C   0  0  0  0  0  2  0  0  0  0  0  0
  184.2790  178.9130  141.2760 C   0  0  0  0  0  3  0  0  0  0  0  0
  184.9750  178.7790  140.1560 C   0  0  0  0  0  3  0  0  0  0  0  0
  184.9650  177.6670  137.8910 C   0  0  0  0  0  3  0  0  0  0  0  0
  183.9490  177.4900  136.9650 C   0  0  0  0  0  3  0  0  0  0  0  0
  182.8110  178.0360  137.4410 N   0  0  0  0  0  0  0  0  0  0  0  0
  183.0800  178.5370  138.6080 O   0  0  0  0  0  0  0  0  0  0  0  0
  184.3370  178.3420  138.9140 C   0  0  0  0  0  0  0  0  0  0  0  0
  1  4  2  0  0  0  0
  1  7  1  0  0  0  0
  3  5  1  0  0  0  0
  4  9  1  0  0  0  0
  5 10  1  0  0  0  0
  6 12  1  0  0  0  0
  6  3  1  0  0  0  0
  7  6  2  0  0  0  0
  8 10  1  0  0  0  0
  9 13  1  0  0  0  0
  9 12  2  0  0  0  0
 10  2  2  0  0  0  0
 11  3  2  0  0  0  0
 12  8  1  0  0  0  0
 14 13  1  0  0  0  0
 15  4  1  0  0  0  0
 16 22  1  0  0  0  0
 17 16  2  0  0  0  0
 18 20  2  0  0  0  0
 18 17  1  0  0  0  0
 19 22  2  0  0  0  0
 20 19  1  0  0  0  0
 21 20  1  0  0  0  0
 22 15  1  0  0  0  0
 23  7  1  0  0  0  0
 24 23  1  0  0  0  0
 25 24  1  0  0  0  0
 26 25  2  0  0  0  0
 27 31  2  0  0  0  0
 28 29  2  0  0  0  0
 28 27  1  0  0  0  0
 29 30  1  0  0  0  0
 30 31  1  0  0  0  0
 31 26  1  0  0  0  0
M  END
>  <MODEL>
8

>  <REMARK>
 VINA RESULT:      -8.9      2.236      6.610
  Name = 
  7 active torsions:
  status: ('A' for Active; 'I' for Inactive)
    1  A    between atoms: N_4  and  C_8
    2  A    between atoms: N_4  and  C_30
    3  A    between atoms: C_12  and  C_20
    4  A    between atoms: C_12  and  C_28
    5  A    between atoms: C_14  and  C_28
    6  A    between atoms: C_16  and  C_22
    7  A    between atoms: C_19  and  C_24
                            x       y       z     vdW  Elec       q    Type
                         _______ _______ _______ _____ _____    ______ ____

>  <TORSDO>
F 7

$$$$
=
 OpenBabel11032419303D

 31 34  0  0  0  0  0  0  0  0999 V2000
  187.1120  177.3300  143.3280 C   0  0  0  0  0  3  0  0  0  0  0  0
  188.2990  177.7750  149.3450 O   0  0  0  0  0  0  0  0  0  0  0  0
  186.1600  178.7290  146.7550 C   0  0  0  0  0  0  0  0  0  0  0  0
  188.4520  176.9920  143.5140 C   0  0  0  0  0  0  0  0  0  0  0  0
  186.8180  179.0700  148.0550 C   0  0  0  0  0  2  0  0  0  0  0  0
  186.9400  178.1470  145.6170 C   0  0  0  0  0  0  0  0  0  0  0  0
  186.3520  177.8970  144.3500 C   0  0  0  0  0  0  0  0  0  0  0  0
  189.0050  178.0920  147.1220 C   0  0  0  0  0  2  0  0  0  0  0  0
  189.0500  177.2230  144.7630 C   0  0  0  0  0  0  0  0  0  0  0  0
  188.0450  178.2510  148.2520 C   0  0  0  0  0  0  0  0  0  0  0  0
  184.9280  178.9690  146.6470 O   0  0  0  0  0  0  0  0  0  0  0  0
  188.3050  177.8010  145.8150 C   0  0  0  0  0  0  0  0  0  0  0  0
  190.4990  176.8850  144.9560 C   0  0  0  0  0  2  0  0  0  0  0  0
  191.2930  177.9400  144.5090 O   0  0  0  0  0  1  0  0  0  0  0  0
  189.2290  176.4010  142.4550 N   0  0  0  0  0  2  0  0  0  0  0  0
  190.7360  176.7580  140.5730 C   0  0  0  0  0  3  0  0  0  0  0  0
  191.0080  177.2350  139.2870 C   0  0  0  0  0  3  0  0  0  0  0  0
  190.0000  177.8590  138.5460 C   0  0  0  0  0  3  0  0  0  0  0  0
  188.4530  177.5300  140.3770 C   0  0  0  0  0  3  0  0  0  0  0  0
  188.7230  178.0060  139.0910 C   0  0  0  0  0  0  0  0  0  0  0  0
  187.7450  178.6120  138.3770 F   0  0  0  0  0  0  0  0  0  0  0  0
  189.4580  176.8980  141.1270 C   0  0  0  0  0  0  0  0  0  0  0  0
  184.9370  178.2480  144.0200 C   0  0  0  0  0  2  0  0  0  0  0  0
  184.7650  178.3600  142.5170 C   0  0  0  0  0  2  0  0  0  0  0  0
  183.3390  178.6340  142.2030 C   0  0  0  0  0  3  0  0  0  0  0  0
  182.5040  178.9850  143.1700 C   0  0  0  0  0  3  0  0  0  0  0  0
  180.0330  178.8480  143.6660 C   0  0  0  0  0  3  0  0  0  0  0  0
  178.9360  179.3540  142.9870 C   0  0  0  0  0  3  0  0  0  0  0  0
  179.3570  180.0170  141.8900 N   0  0  0  0  0  0  0  0  0  0  0  0
  180.6530  179.9410  141.8640 O   0  0  0  0  0  0  0  0  0  0  0  0
  181.0940  179.2620  142.8910 C   0  0  0  0  0  0  0  0  0  0  0  0
  1  4  2  0  0  0  0
  1  7  1  0  0  0  0
  3  5  1  0  0  0  0
  4  9  1  0  0  0  0
  5 10  1  0  0  0  0
  6 12  1  0  0  0  0
  6  3  1  0  0  0  0
  7  6  2  0  0  0  0
  8 10  1  0  0  0  0
  9 13  1  0  0  0  0
  9 12  2  0  0  0  0
 10  2  2  0  0  0  0
 11  3  2  0  0  0  0
 12  8  1  0  0  0  0
 14 13  1  0  0  0  0
 15  4  1  0  0  0  0
 16 22  1  0  0  0  0
 17 16  2  0  0  0  0
 18 20  2  0  0  0  0
 18 17  1  0  0  0  0
 19 22  2  0  0  0  0
 20 19  1  0  0  0  0
 21 20  1  0  0  0  0
 22 15  1  0  0  0  0
 23  7  1  0  0  0  0
 24 23  1  0  0  0  0
 25 24  1  0  0  0  0
 25 26  2  0  0  0  0
 28 27  1  0  0  0  0
 29 28  2  0  0  0  0
 30 29  1  0  0  0  0
 30 31  1  0  0  0  0
 31 26  1  0  0  0  0
 31 27  2  0  0  0  0
M  END
>  <MODEL>
9

>  <REMARK>
 VINA RESULT:      -8.8      2.440      6.863
  Name = 
  7 active torsions:
  status: ('A' for Active; 'I' for Inactive)
    1  A    between atoms: N_4  and  C_8
    2  A    between atoms: N_4  and  C_30
    3  A    between atoms: C_12  and  C_20
    4  A    between atoms: C_12  and  C_28
    5  A    between atoms: C_14  and  C_28
    6  A    between atoms: C_16  and  C_22
    7  A    between atoms: C_19  and  C_24
                            x       y       z     vdW  Elec       q    Type
                         _______ _______ _______ _____ _____    ______ ____

>  <TORSDO>
F 7

$$$$
