=
 OpenBabel11032421263D

 34 37  0  0  1  0  0  0  0  0999 V2000
  188.3120  178.2800  143.3080 C   0  0  1  0  0  3  0  0  0  0  0  0
  186.2300  178.9430  138.8980 C   0  0  0  0  0  1  0  0  0  0  0  0
  188.8470  177.9830  137.8840 C   0  0  2  0  0  3  0  0  0  0  0  0
  190.8120  176.3810  138.3360 C   0  0  0  0  0  0  0  0  0  0  0  0
  188.9160  176.7780  141.5900 C   0  0  1  0  0  3  0  0  0  0  0  0
  189.7920  177.8830  143.3970 C   0  0  2  0  0  0  0  0  0  0  0  0
  187.2040  178.3200  139.8520 C   0  0  0  0  0  0  0  0  0  0  0  0
  189.2690  179.3650  137.7280 N   0  0  0  0  0  1  0  0  0  0  0  0
  186.9670  178.3340  141.1770 C   0  0  0  0  0  0  0  0  0  0  0  0
  192.0290  175.6600  137.8700 C   0  0  0  0  0  1  0  0  0  0  0  0
  190.1090  176.9450  136.1410 O   0  0  0  0  0  0  0  0  0  0  0  0
  190.5070  176.3740  139.6310 C   0  0  0  0  0  3  0  0  0  0  0  0
  188.4660  177.7260  139.3290 C   0  0  0  0  0  0  0  0  0  0  0  0
  190.6200  179.0960  142.9970 C   0  0  0  0  0  1  0  0  0  0  0  0
  187.9090  177.7100  142.0570 N   0  0  0  0  0  0  0  0  0  0  0  0
  189.2960  177.0390  140.1540 C   0  0  0  0  0  0  0  0  0  0  0  0
  187.4250  177.7170  144.4170 C   0  0  0  0  0  1  0  0  0  0  0  0
  189.9310  177.0740  137.3820 C   0  0  0  0  0  0  0  0  0  0  0  0
  190.0400  176.8610  142.4450 O   0  0  0  0  0  0  0  0  0  0  0  0
  189.5260  177.8650  145.9210 C   0  0  0  0  0  3  0  0  0  0  0  0
  190.2240  177.4390  144.7800 C   0  0  0  0  0  0  0  0  0  0  0  0
  189.9680  177.4720  147.1840 C   0  0  0  0  0  0  0  0  0  0  0  0
  191.3360  176.6630  144.9290 N   0  0  0  0  0  0  0  0  0  0  0  0
  191.7810  176.2710  146.1540 C   0  0  0  0  0  3  0  0  0  0  0  0
  191.1010  176.6690  147.3070 C   0  0  0  0  0  3  0  0  0  0  0  0
  189.1030  177.9900  148.6140 Cl  0  0  0  0  0  0  0  0  0  0  0  0
  185.7440  178.9860  141.7470 C   0  0  0  0  0  2  0  0  0  0  0  0
  184.6790  177.9380  142.0130 C   0  0  0  0  0  2  0  0  0  0  0  0
  183.4480  178.5850  142.6260 C   0  0  0  0  0  2  0  0  0  0  0  0
  183.3820  178.3200  144.0230 O   0  0  0  0  0  0  0  0  0  0  0  0
  184.5920  180.1820  144.5870 O   0  0  0  0  0  0  0  0  0  0  0  0
  184.0470  179.1090  144.9620 C   0  0  0  0  0  0  0  0  0  0  0  0
  185.3400  178.6230  147.0000 C   0  0  0  0  0  1  0  0  0  0  0  0
  184.1090  178.7130  146.3010 O   0  0  0  0  0  0  0  0  0  0  0  0
  1  6  1  0  0  0  0
  1 17  1  1  0  0  0
  2  7  1  0  0  0  0
  3  8  1  1  0  0  0
  3 13  1  0  0  0  0
  4 12  2  0  0  0  0
  5 16  1  6  0  0  0
  5 15  1  0  0  0  0
  5 19  1  0  0  0  0
  6 14  1  6  0  0  0
  6 21  1  0  0  0  0
  7  9  2  0  0  0  0
  9 27  1  0  0  0  0
  9 15  1  0  0  0  0
 10  4  1  0  0  0  0
 11 18  2  0  0  0  0
 12 16  1  0  0  0  0
 13  7  1  0  0  0  0
 13 16  2  0  0  0  0
 15  1  1  0  0  0  0
 18  3  1  0  0  0  0
 18  4  1  0  0  0  0
 19  6  1  0  0  0  0
 20 22  1  0  0  0  0
 21 23  1  0  0  0  0
 21 20  2  0  0  0  0
 22 25  2  0  0  0  0
 22 26  1  0  0  0  0
 23 24  2  0  0  0  0
 24 25  1  0  0  0  0
 27 28  1  0  0  0  0
 28 29  1  0  0  0  0
 29 30  1  0  0  0  0
 30 32  1  0  0  0  0
 31 32  2  0  0  0  0
 32 34  1  0  0  0  0
 34 33  1  0  0  0  0
M  END
>  <MODEL>
1

>  <REMARK>
 VINA RESULT:      -8.1      0.000      0.000
  Name = 
  7 active torsions:
  status: ('A' for Active; 'I' for Inactive)
    1  A    between atoms: O_1  and  C_18
    2  A    between atoms: O_1  and  C_29
    3  A    between atoms: C_2  and  C_15
    4  A    between atoms: C_2  and  C_33
    5  A    between atoms: C_9  and  C_13
    6  A    between atoms: C_18  and  O_30
    7  A    between atoms: C_29  and  C_33
                            x       y       z     vdW  Elec       q    Type
                         _______ _______ _______ _____ _____    ______ ____

>  <TORSDO>
F 7

$$$$
=
 OpenBabel11032421263D

 34 37  0  0  1  0  0  0  0  0999 V2000
  188.1230  178.2610  143.4500 C   0  0  1  0  0  3  0  0  0  0  0  0
  186.0750  178.8940  139.0200 C   0  0  0  0  0  1  0  0  0  0  0  0
  188.7540  178.0920  138.0300 C   0  0  2  0  0  3  0  0  0  0  0  0
  190.7940  176.5890  138.4850 C   0  0  0  0  0  0  0  0  0  0  0  0
  188.8320  176.8250  141.7150 C   0  0  1  0  0  3  0  0  0  0  0  0
  189.6210  177.9420  143.5540 C   0  0  2  0  0  0  0  0  0  0  0  0
  187.0660  178.3060  139.9780 C   0  0  0  0  0  0  0  0  0  0  0  0
  189.1040  179.4970  137.9050 N   0  0  0  0  0  1  0  0  0  0  0  0
  186.8090  178.2830  141.2980 C   0  0  0  0  0  0  0  0  0  0  0  0
  192.0550  175.9420  138.0260 C   0  0  0  0  0  1  0  0  0  0  0  0
  190.0950  177.1540  136.2890 O   0  0  0  0  0  0  0  0  0  0  0  0
  190.4710  176.5420  139.7740 C   0  0  0  0  0  3  0  0  0  0  0  0
  188.3660  177.7890  139.4640 C   0  0  0  0  0  0  0  0  0  0  0  0
  190.3890  179.2030  143.1890 C   0  0  0  0  0  1  0  0  0  0  0  0
  187.7700  177.6930  142.1830 N   0  0  0  0  0  0  0  0  0  0  0  0
  189.2190  177.1320  140.2900 C   0  0  0  0  0  0  0  0  0  0  0  0
  187.2520  177.6320  144.5340 C   0  0  0  0  0  1  0  0  0  0  0  0
  189.8920  177.2510  137.5300 C   0  0  0  0  0  0  0  0  0  0  0  0
  189.9370  176.9520  142.5890 O   0  0  0  0  0  0  0  0  0  0  0  0
  189.3450  177.9000  146.0770 C   0  0  0  0  0  3  0  0  0  0  0  0
  190.0550  177.4960  144.9370 C   0  0  0  0  0  0  0  0  0  0  0  0
  189.7890  177.5060  147.3390 C   0  0  0  0  0  0  0  0  0  0  0  0
  191.1810  176.7400  145.0850 N   0  0  0  0  0  0  0  0  0  0  0  0
  191.6290  176.3480  146.3090 C   0  0  0  0  0  3  0  0  0  0  0  0
  190.9360  176.7240  147.4610 C   0  0  0  0  0  3  0  0  0  0  0  0
  188.9070  177.9980  148.7690 Cl  0  0  0  0  0  0  0  0  0  0  0  0
  185.5450  178.8590  141.8600 C   0  0  0  0  0  2  0  0  0  0  0  0
  184.3900  177.9060  141.6110 C   0  0  0  0  0  2  0  0  0  0  0  0
  183.1630  178.6770  141.1530 C   0  0  0  0  0  2  0  0  0  0  0  0
  182.0290  178.3360  141.9420 O   0  0  0  0  0  0  0  0  0  0  0  0
  180.9530  180.0690  142.9870 O   0  0  0  0  0  0  0  0  0  0  0  0
  181.6830  179.0460  143.0920 C   0  0  0  0  0  0  0  0  0  0  0  0
  183.3850  179.0680  144.8710 C   0  0  0  0  0  1  0  0  0  0  0  0
  182.1420  178.6290  144.3440 O   0  0  0  0  0  0  0  0  0  0  0  0
  1  6  1  0  0  0  0
  1 17  1  1  0  0  0
  2  7  1  0  0  0  0
  3  8  1  1  0  0  0
  3 13  1  0  0  0  0
  4 12  2  0  0  0  0
  5 16  1  6  0  0  0
  5 15  1  0  0  0  0
  5 19  1  0  0  0  0
  6 14  1  6  0  0  0
  6 21  1  0  0  0  0
  7  9  2  0  0  0  0
  9 27  1  0  0  0  0
  9 15  1  0  0  0  0
 10  4  1  0  0  0  0
 11 18  2  0  0  0  0
 12 16  1  0  0  0  0
 13  7  1  0  0  0  0
 13 16  2  0  0  0  0
 15  1  1  0  0  0  0
 18  3  1  0  0  0  0
 18  4  1  0  0  0  0
 19  6  1  0  0  0  0
 20 22  1  0  0  0  0
 21 23  1  0  0  0  0
 21 20  2  0  0  0  0
 22 25  2  0  0  0  0
 22 26  1  0  0  0  0
 23 24  2  0  0  0  0
 24 25  1  0  0  0  0
 28 27  1  0  0  0  0
 29 28  1  0  0  0  0
 29 30  1  0  0  0  0
 30 32  1  0  0  0  0
 31 32  2  0  0  0  0
 32 34  1  0  0  0  0
 34 33  1  0  0  0  0
M  END
>  <MODEL>
2

>  <REMARK>
 VINA RESULT:      -8.0      0.953      1.228
  Name = 
  7 active torsions:
  status: ('A' for Active; 'I' for Inactive)
    1  A    between atoms: O_1  and  C_18
    2  A    between atoms: O_1  and  C_29
    3  A    between atoms: C_2  and  C_15
    4  A    between atoms: C_2  and  C_33
    5  A    between atoms: C_9  and  C_13
    6  A    between atoms: C_18  and  O_30
    7  A    between atoms: C_29  and  C_33
                            x       y       z     vdW  Elec       q    Type
                         _______ _______ _______ _____ _____    ______ ____

>  <TORSDO>
F 7

$$$$
=
 OpenBabel11032421263D

 34 37  0  0  1  0  0  0  0  0999 V2000
  188.4480  177.6280  142.5230 C   0  0  1  0  0  3  0  0  0  0  0  0
  185.6820  178.6500  138.5830 C   0  0  0  0  0  1  0  0  0  0  0  0
  183.4310  178.3420  140.4910 C   0  0  2  0  0  3  0  0  0  0  0  0
  182.6810  178.7100  142.9270 C   0  0  0  0  0  0  0  0  0  0  0  0
  186.4650  178.8590  142.8830 C   0  0  1  0  0  3  0  0  0  0  0  0
  187.7710  177.2400  143.8450 C   0  0  2  0  0  0  0  0  0  0  0  0
  185.9680  178.5890  140.0530 C   0  0  0  0  0  0  0  0  0  0  0  0
  183.2800  176.9630  140.0560 N   0  0  0  0  0  1  0  0  0  0  0  0
  187.2350  178.5170  140.4990 C   0  0  0  0  0  0  0  0  0  0  0  0
  181.6040  178.8020  143.9500 C   0  0  0  0  0  1  0  0  0  0  0  0
  181.1780  178.8550  141.0970 O   0  0  0  0  0  0  0  0  0  0  0  0
  183.9520  178.6930  143.3200 C   0  0  0  0  0  3  0  0  0  0  0  0
  184.8360  178.5570  141.0210 C   0  0  0  0  0  0  0  0  0  0  0  0
  187.1920  175.8420  143.6750 C   0  0  0  0  0  1  0  0  0  0  0  0
  187.4730  178.4820  141.9120 N   0  0  0  0  0  0  0  0  0  0  0  0
  185.0700  178.6390  142.3560 C   0  0  0  0  0  0  0  0  0  0  0  0
  189.7570  178.4000  142.6710 C   0  0  0  0  0  1  0  0  0  0  0  0
  182.3600  178.6660  141.4920 C   0  0  0  0  0  0  0  0  0  0  0  0
  186.6880  178.1280  144.0730 O   0  0  0  0  0  0  0  0  0  0  0  0
  188.2860  177.6890  146.2890 C   0  0  0  0  0  3  0  0  0  0  0  0
  188.7120  177.2300  145.0340 C   0  0  0  0  0  0  0  0  0  0  0  0
  189.1840  177.7050  147.3570 C   0  0  0  0  0  0  0  0  0  0  0  0
  190.0050  176.8260  144.8750 N   0  0  0  0  0  0  0  0  0  0  0  0
  190.8940  176.8350  145.9050 C   0  0  0  0  0  3  0  0  0  0  0  0
  190.4960  177.2750  147.1690 C   0  0  0  0  0  3  0  0  0  0  0  0
  188.6630  178.2690  148.9300 Cl  0  0  0  0  0  0  0  0  0  0  0  0
  188.3980  178.4740  139.5550 C   0  0  0  0  0  2  0  0  0  0  0  0
  188.6900  177.0370  139.1640 C   0  0  0  0  0  2  0  0  0  0  0  0
  189.0240  176.9530  137.6840 C   0  0  0  0  0  2  0  0  0  0  0  0
  190.4330  176.9840  137.4810 O   0  0  0  0  0  0  0  0  0  0  0  0
  191.1010  174.9230  138.2260 O   0  0  0  0  0  0  0  0  0  0  0  0
  191.3050  176.1670  138.2010 C   0  0  0  0  0  0  0  0  0  0  0  0
  192.2260  177.3980  140.1240 C   0  0  0  0  0  1  0  0  0  0  0  0
  192.3890  176.7220  138.8870 O   0  0  0  0  0  0  0  0  0  0  0  0
  1 17  1  1  0  0  0
  1  6  1  0  0  0  0
  2  7  1  0  0  0  0
  3  8  1  1  0  0  0
  3 13  1  0  0  0  0
  3 18  1  0  0  0  0
  4 12  2  0  0  0  0
  4 10  1  0  0  0  0
  5 16  1  6  0  0  0
  5 19  1  0  0  0  0
  6 14  1  6  0  0  0
  6 19  1  0  0  0  0
  6 21  1  0  0  0  0
  7  9  2  0  0  0  0
  7 13  1  0  0  0  0
  9 15  1  0  0  0  0
 11 18  2  0  0  0  0
 13 16  2  0  0  0  0
 15  1  1  0  0  0  0
 15  5  1  0  0  0  0
 16 12  1  0  0  0  0
 18  4  1  0  0  0  0
 20 22  1  0  0  0  0
 21 20  2  0  0  0  0
 22 26  1  0  0  0  0
 23 21  1  0  0  0  0
 23 24  2  0  0  0  0
 24 25  1  0  0  0  0
 25 22  2  0  0  0  0
 27  9  1  0  0  0  0
 28 27  1  0  0  0  0
 29 28  1  0  0  0  0
 30 29  1  0  0  0  0
 30 32  1  0  0  0  0
 32 31  2  0  0  0  0
 32 34  1  0  0  0  0
 34 33  1  0  0  0  0
M  END
>  <MODEL>
3

>  <REMARK>
 VINA RESULT:      -7.9      1.833      6.250
  Name = 
  7 active torsions:
  status: ('A' for Active; 'I' for Inactive)
    1  A    between atoms: O_1  and  C_18
    2  A    between atoms: O_1  and  C_29
    3  A    between atoms: C_2  and  C_15
    4  A    between atoms: C_2  and  C_33
    5  A    between atoms: C_9  and  C_13
    6  A    between atoms: C_18  and  O_30
    7  A    between atoms: C_29  and  C_33
                            x       y       z     vdW  Elec       q    Type
                         _______ _______ _______ _____ _____    ______ ____

>  <TORSDO>
F 7

$$$$
=
 OpenBabel11032421263D

 34 37  0  0  1  0  0  0  0  0999 V2000
  188.1720  177.7810  142.8180 C   0  0  1  0  0  3  0  0  0  0  0  0
  185.6680  178.6030  138.6610 C   0  0  0  0  0  1  0  0  0  0  0  0
  183.2960  178.3130  140.4200 C   0  0  2  0  0  3  0  0  0  0  0  0
  182.3720  178.7510  142.7830 C   0  0  0  0  0  0  0  0  0  0  0  0
  186.1460  178.9800  142.9950 C   0  0  1  0  0  3  0  0  0  0  0  0
  187.4120  177.4250  144.1030 C   0  0  2  0  0  0  0  0  0  0  0  0
  185.8520  178.6000  140.1490 C   0  0  0  0  0  0  0  0  0  0  0  0
  183.2020  176.9170  140.0260 N   0  0  0  0  0  1  0  0  0  0  0  0
  187.0870  178.5710  140.6840 C   0  0  0  0  0  0  0  0  0  0  0  0
  181.2240  178.8560  143.7260 C   0  0  0  0  0  1  0  0  0  0  0  0
  180.9970  178.7990  140.8500 O   0  0  0  0  0  0  0  0  0  0  0  0
  183.6120  178.7760  143.2630 C   0  0  0  0  0  3  0  0  0  0  0  0
  184.6560  178.5780  141.0370 C   0  0  0  0  0  0  0  0  0  0  0  0
  186.8740  176.0100  143.9450 C   0  0  0  0  0  1  0  0  0  0  0  0
  187.2260  178.5910  142.1100 N   0  0  0  0  0  0  0  0  0  0  0  0
  184.7950  178.7110  142.3810 C   0  0  0  0  0  0  0  0  0  0  0  0
  189.4530  178.5850  143.0270 C   0  0  0  0  0  1  0  0  0  0  0  0
  182.1520  178.6490  141.3320 C   0  0  0  0  0  0  0  0  0  0  0  0
  186.3000  178.2970  144.2230 O   0  0  0  0  0  0  0  0  0  0  0  0
  189.5560  176.9210  145.3650 C   0  0  0  0  0  3  0  0  0  0  0  0
  188.2680  177.4780  145.3530 C   0  0  0  0  0  0  0  0  0  0  0  0
  190.3070  176.9500  146.5400 C   0  0  0  0  0  0  0  0  0  0  0  0
  187.7660  178.0210  146.4990 N   0  0  0  0  0  0  0  0  0  0  0  0
  188.4840  178.0580  147.6540 C   0  0  0  0  0  3  0  0  0  0  0  0
  189.7730  177.5220  147.6940 C   0  0  0  0  0  3  0  0  0  0  0  0
  191.9170  176.2640  146.5660 Cl  0  0  0  0  0  0  0  0  0  0  0  0
  188.3120  178.5190  139.8240 C   0  0  0  0  0  2  0  0  0  0  0  0
  188.7040  177.0750  139.5730 C   0  0  0  0  0  2  0  0  0  0  0  0
  189.0160  176.8640  138.1000 C   0  0  0  0  0  2  0  0  0  0  0  0
  190.4030  177.0620  137.8440 O   0  0  0  0  0  0  0  0  0  0  0  0
  191.2530  174.9610  138.1850 O   0  0  0  0  0  0  0  0  0  0  0  0
  191.3810  176.2050  138.3490 C   0  0  0  0  0  0  0  0  0  0  0  0
  192.3490  177.4780  140.2210 C   0  0  0  0  0  1  0  0  0  0  0  0
  192.4880  176.7190  139.0300 O   0  0  0  0  0  0  0  0  0  0  0  0
  1 17  1  1  0  0  0
  1  6  1  0  0  0  0
  2  7  1  0  0  0  0
  3  8  1  1  0  0  0
  3 13  1  0  0  0  0
  3 18  1  0  0  0  0
  4 12  2  0  0  0  0
  4 10  1  0  0  0  0
  5 16  1  6  0  0  0
  5 19  1  0  0  0  0
  6 14  1  6  0  0  0
  6 19  1  0  0  0  0
  6 21  1  0  0  0  0
  7  9  2  0  0  0  0
  7 13  1  0  0  0  0
  9 15  1  0  0  0  0
 11 18  2  0  0  0  0
 13 16  2  0  0  0  0
 15  1  1  0  0  0  0
 15  5  1  0  0  0  0
 16 12  1  0  0  0  0
 18  4  1  0  0  0  0
 20 22  1  0  0  0  0
 21 20  2  0  0  0  0
 21 23  1  0  0  0  0
 22 26  1  0  0  0  0
 22 25  2  0  0  0  0
 23 24  2  0  0  0  0
 24 25  1  0  0  0  0
 27  9  1  0  0  0  0
 28 27  1  0  0  0  0
 29 28  1  0  0  0  0
 30 29  1  0  0  0  0
 30 32  1  0  0  0  0
 31 32  2  0  0  0  0
 32 34  1  0  0  0  0
 34 33  1  0  0  0  0
M  END
>  <MODEL>
4

>  <REMARK>
 VINA RESULT:      -7.8      2.109      6.406
  Name = 
  7 active torsions:
  status: ('A' for Active; 'I' for Inactive)
    1  A    between atoms: O_1  and  C_18
    2  A    between atoms: O_1  and  C_29
    3  A    between atoms: C_2  and  C_15
    4  A    between atoms: C_2  and  C_33
    5  A    between atoms: C_9  and  C_13
    6  A    between atoms: C_18  and  O_30
    7  A    between atoms: C_29  and  C_33
                            x       y       z     vdW  Elec       q    Type
                         _______ _______ _______ _____ _____    ______ ____

>  <TORSDO>
F 7

$$$$
=
 OpenBabel11032421263D

 34 37  0  0  1  0  0  0  0  0999 V2000
  188.1310  178.2650  143.5350 C   0  0  1  0  0  3  0  0  0  0  0  0
  186.0330  178.9180  139.1320 C   0  0  0  0  0  1  0  0  0  0  0  0
  188.6900  178.0860  138.1080 C   0  0  2  0  0  3  0  0  0  0  0  0
  190.7190  176.5610  138.5370 C   0  0  0  0  0  0  0  0  0  0  0  0
  188.8020  176.8200  141.7930 C   0  0  1  0  0  3  0  0  0  0  0  0
  189.6260  177.9300  143.6210 C   0  0  2  0  0  0  0  0  0  0  0  0
  187.0300  178.3190  140.0770 C   0  0  0  0  0  0  0  0  0  0  0  0
  189.0540  179.4870  137.9780 N   0  0  0  0  0  1  0  0  0  0  0  0
  186.7900  178.3000  141.4010 C   0  0  0  0  0  0  0  0  0  0  0  0
  191.9670  175.9000  138.0630 C   0  0  0  0  0  1  0  0  0  0  0  0
  189.9980  177.1330  136.3510 O   0  0  0  0  0  0  0  0  0  0  0  0
  190.4130  176.5180  139.8310 C   0  0  0  0  0  3  0  0  0  0  0  0
  188.3170  177.7880  139.5480 C   0  0  0  0  0  0  0  0  0  0  0  0
  190.4040  179.1830  143.2450 C   0  0  0  0  0  1  0  0  0  0  0  0
  187.7550  177.7010  142.2740 N   0  0  0  0  0  0  0  0  0  0  0  0
  189.1740  177.1220  140.3630 C   0  0  0  0  0  0  0  0  0  0  0  0
  187.2670  177.6460  144.6310 C   0  0  0  0  0  1  0  0  0  0  0  0
  189.8120  177.2330  137.5940 C   0  0  0  0  0  0  0  0  0  0  0  0
  189.9190  176.9360  142.6520 O   0  0  0  0  0  0  0  0  0  0  0  0
  189.3520  177.8490  146.1430 C   0  0  0  0  0  3  0  0  0  0  0  0
  190.0740  177.4800  144.9980 C   0  0  0  0  0  0  0  0  0  0  0  0
  189.8070  177.4530  147.4000 C   0  0  0  0  0  0  0  0  0  0  0  0
  191.2220  176.7560  145.1370 N   0  0  0  0  0  0  0  0  0  0  0  0
  191.6810  176.3620  146.3560 C   0  0  0  0  0  3  0  0  0  0  0  0
  190.9780  176.7040  147.5130 C   0  0  0  0  0  3  0  0  0  0  0  0
  188.9120  177.9010  148.8360 Cl  0  0  0  0  0  0  0  0  0  0  0  0
  185.5390  178.8900  141.9790 C   0  0  0  0  0  2  0  0  0  0  0  0
  184.4110  177.8780  141.9060 C   0  0  0  0  0  2  0  0  0  0  0  0
  183.1310  178.5520  141.4410 C   0  0  0  0  0  2  0  0  0  0  0  0
  182.8010  178.1510  140.1160 O   0  0  0  0  0  0  0  0  0  0  0  0
  182.7220  175.9960  139.3400 O   0  0  0  0  0  0  0  0  0  0  0  0
  182.1060  176.9720  139.8470 C   0  0  0  0  0  0  0  0  0  0  0  0
  180.0790  175.6220  140.2170 C   0  0  0  0  0  1  0  0  0  0  0  0
  180.7410  176.8750  140.1360 O   0  0  0  0  0  0  0  0  0  0  0  0
  1  6  1  0  0  0  0
  1 17  1  1  0  0  0
  2  7  1  0  0  0  0
  3  8  1  1  0  0  0
  3 13  1  0  0  0  0
  4 12  2  0  0  0  0
  5 16  1  6  0  0  0
  5 15  1  0  0  0  0
  5 19  1  0  0  0  0
  6 14  1  6  0  0  0
  6 21  1  0  0  0  0
  7  9  2  0  0  0  0
  9 27  1  0  0  0  0
  9 15  1  0  0  0  0
 10  4  1  0  0  0  0
 11 18  2  0  0  0  0
 12 16  1  0  0  0  0
 13  7  1  0  0  0  0
 13 16  2  0  0  0  0
 15  1  1  0  0  0  0
 18  3  1  0  0  0  0
 18  4  1  0  0  0  0
 19  6  1  0  0  0  0
 20 22  1  0  0  0  0
 21 23  1  0  0  0  0
 21 20  2  0  0  0  0
 22 25  2  0  0  0  0
 22 26  1  0  0  0  0
 23 24  2  0  0  0  0
 24 25  1  0  0  0  0
 28 27  1  0  0  0  0
 29 28  1  0  0  0  0
 30 29  1  0  0  0  0
 31 32  2  0  0  0  0
 32 30  1  0  0  0  0
 32 34  1  0  0  0  0
 34 33  1  0  0  0  0
M  END
>  <MODEL>
5

>  <REMARK>
 VINA RESULT:      -7.6      1.794      2.645
  Name = 
  7 active torsions:
  status: ('A' for Active; 'I' for Inactive)
    1  A    between atoms: O_1  and  C_18
    2  A    between atoms: O_1  and  C_29
    3  A    between atoms: C_2  and  C_15
    4  A    between atoms: C_2  and  C_33
    5  A    between atoms: C_9  and  C_13
    6  A    between atoms: C_18  and  O_30
    7  A    between atoms: C_29  and  C_33
                            x       y       z     vdW  Elec       q    Type
                         _______ _______ _______ _____ _____    ______ ____

>  <TORSDO>
F 7

$$$$
=
 OpenBabel11032421263D

 34 37  0  0  1  0  0  0  0  0999 V2000
  190.5500  177.0210  142.1580 C   0  0  1  0  0  3  0  0  0  0  0  0
  189.3750  177.8850  137.4580 C   0  0  0  0  0  1  0  0  0  0  0  0
  186.6120  178.0620  138.5230 C   0  0  2  0  0  3  0  0  0  0  0  0
  185.1830  178.7970  140.5360 C   0  0  0  0  0  0  0  0  0  0  0  0
  188.7600  178.5040  141.7460 C   0  0  1  0  0  3  0  0  0  0  0  0
  189.4360  176.8700  143.2030 C   0  0  2  0  0  0  0  0  0  0  0  0
  189.1630  177.9640  138.9390 C   0  0  0  0  0  0  0  0  0  0  0  0
  186.4080  176.6690  138.1640 N   0  0  0  0  0  1  0  0  0  0  0  0
  190.1950  177.8000  139.7870 C   0  0  0  0  0  0  0  0  0  0  0  0
  183.8600  179.1310  141.1320 C   0  0  0  0  0  1  0  0  0  0  0  0
  184.3850  178.8980  138.3050 O   0  0  0  0  0  0  0  0  0  0  0  0
  186.2440  178.6800  141.3310 C   0  0  0  0  0  3  0  0  0  0  0  0
  187.7880  178.1760  139.4740 C   0  0  0  0  0  0  0  0  0  0  0  0
  188.7440  175.5380  142.9520 C   0  0  0  0  0  1  0  0  0  0  0  0
  189.9590  177.9030  141.1960 N   0  0  0  0  0  0  0  0  0  0  0  0
  187.5910  178.3850  140.8010 C   0  0  0  0  0  0  0  0  0  0  0  0
  191.8410  177.6480  142.6780 C   0  0  0  0  0  1  0  0  0  0  0  0
  185.3370  178.6220  139.0830 C   0  0  0  0  0  0  0  0  0  0  0  0
  188.4800  177.8970  142.9920 O   0  0  0  0  0  0  0  0  0  0  0  0
  189.1700  177.4850  145.6510 C   0  0  0  0  0  3  0  0  0  0  0  0
  189.9340  176.8920  144.6350 C   0  0  0  0  0  0  0  0  0  0  0  0
  189.6690  177.5250  146.9530 C   0  0  0  0  0  0  0  0  0  0  0  0
  191.1630  176.3810  144.9360 N   0  0  0  0  0  0  0  0  0  0  0  0
  191.6650  176.4120  146.2000 C   0  0  0  0  0  3  0  0  0  0  0  0
  190.9230  176.9850  147.2340 C   0  0  0  0  0  3  0  0  0  0  0  0
  188.7230  178.2560  148.2310 Cl  0  0  0  0  0  0  0  0  0  0  0  0
  191.5790  177.5130  139.2900 C   0  0  0  0  0  2  0  0  0  0  0  0
  191.6510  176.0920  138.7600 C   0  0  0  0  0  2  0  0  0  0  0  0
  192.6210  176.0170  137.5920 C   0  0  0  0  0  2  0  0  0  0  0  0
  193.9670  175.9830  138.0540 O   0  0  0  0  0  0  0  0  0  0  0  0
  194.1200  173.7000  137.9340 O   0  0  0  0  0  0  0  0  0  0  0  0
  194.7090  174.8030  138.0940 C   0  0  0  0  0  0  0  0  0  0  0  0
  197.0180  174.4910  137.2960 C   0  0  0  0  0  1  0  0  0  0  0  0
  196.0900  174.8430  138.3100 O   0  0  0  0  0  0  0  0  0  0  0  0
  1 17  1  1  0  0  0
  1  6  1  0  0  0  0
  2  7  1  0  0  0  0
  3  8  1  1  0  0  0
  3 18  1  0  0  0  0
  3 13  1  0  0  0  0
  4 10  1  0  0  0  0
  4 12  2  0  0  0  0
  5 16  1  6  0  0  0
  5 19  1  0  0  0  0
  6 14  1  6  0  0  0
  6 21  1  0  0  0  0
  7 13  1  0  0  0  0
  7  9  2  0  0  0  0
  9 15  1  0  0  0  0
 11 18  2  0  0  0  0
 13 16  2  0  0  0  0
 15  5  1  0  0  0  0
 15  1  1  0  0  0  0
 16 12  1  0  0  0  0
 18  4  1  0  0  0  0
 19  6  1  0  0  0  0
 20 22  1  0  0  0  0
 21 23  1  0  0  0  0
 21 20  2  0  0  0  0
 22 25  2  0  0  0  0
 22 26  1  0  0  0  0
 23 24  2  0  0  0  0
 24 25  1  0  0  0  0
 27  9  1  0  0  0  0
 28 27  1  0  0  0  0
 29 30  1  0  0  0  0
 29 28  1  0  0  0  0
 30 32  1  0  0  0  0
 31 32  2  0  0  0  0
 32 34  1  0  0  0  0
 33 34  1  0  0  0  0
M  END
>  <MODEL>
6

>  <REMARK>
 VINA RESULT:      -7.5      2.529      6.741
  Name = 
  7 active torsions:
  status: ('A' for Active; 'I' for Inactive)
    1  A    between atoms: O_1  and  C_18
    2  A    between atoms: O_1  and  C_29
    3  A    between atoms: C_2  and  C_15
    4  A    between atoms: C_2  and  C_33
    5  A    between atoms: C_9  and  C_13
    6  A    between atoms: C_18  and  O_30
    7  A    between atoms: C_29  and  C_33
                            x       y       z     vdW  Elec       q    Type
                         _______ _______ _______ _____ _____    ______ ____

>  <TORSDO>
F 7

$$$$
=
 OpenBabel11032421263D

 34 37  0  0  1  0  0  0  0  0999 V2000
  185.8290  178.7670  141.6120 C   0  0  1  0  0  3  0  0  0  0  0  0
  190.6900  178.0770  141.2740 C   0  0  0  0  0  1  0  0  0  0  0  0
  190.5450  177.9330  144.2340 C   0  0  2  0  0  3  0  0  0  0  0  0
  189.1060  177.1710  146.2280 C   0  0  0  0  0  0  0  0  0  0  0  0
  186.8330  177.3400  143.2040 C   0  0  1  0  0  3  0  0  0  0  0  0
  185.1780  178.9120  142.9950 C   0  0  2  0  0  0  0  0  0  0  0  0
  189.3530  177.9570  141.9390 C   0  0  0  0  0  0  0  0  0  0  0  0
  190.8980  179.3420  144.2980 N   0  0  0  0  0  1  0  0  0  0  0  0
  188.2210  178.0700  141.2200 C   0  0  0  0  0  0  0  0  0  0  0  0
  188.9630  176.8500  147.6750 C   0  0  0  0  0  1  0  0  0  0  0  0
  191.4770  177.1580  146.2930 O   0  0  0  0  0  0  0  0  0  0  0  0
  188.0160  177.2380  145.4670 C   0  0  0  0  0  3  0  0  0  0  0  0
  189.2800  177.7620  143.4140 C   0  0  0  0  0  0  0  0  0  0  0  0
  185.5830  180.2670  143.5560 C   0  0  0  0  0  1  0  0  0  0  0  0
  186.9590  177.9290  141.8850 N   0  0  0  0  0  0  0  0  0  0  0  0
  188.0900  177.5160  144.0180 C   0  0  0  0  0  0  0  0  0  0  0  0
  184.9570  178.0930  140.5560 C   0  0  0  0  0  1  0  0  0  0  0  0
  190.4310  177.3870  145.6270 C   0  0  0  0  0  0  0  0  0  0  0  0
  185.7140  177.9150  143.8500 O   0  0  0  0  0  0  0  0  0  0  0  0
  182.9650  178.8800  141.7530 C   0  0  0  0  0  3  0  0  0  0  0  0
  183.6640  178.8340  142.9680 C   0  0  0  0  0  0  0  0  0  0  0  0
  181.5710  178.8440  141.7600 C   0  0  0  0  0  0  0  0  0  0  0  0
  182.9660  178.7760  144.1380 N   0  0  0  0  0  0  0  0  0  0  0  0
  181.6050  178.7410  144.1640 C   0  0  0  0  0  3  0  0  0  0  0  0
  180.8820  178.7730  142.9700 C   0  0  0  0  0  3  0  0  0  0  0  0
  180.6860  178.8940  140.2500 Cl  0  0  0  0  0  0  0  0  0  0  0  0
  188.2510  178.3390  139.7470 C   0  0  0  0  0  2  0  0  0  0  0  0
  188.2060  177.0290  138.9830 C   0  0  0  0  0  2  0  0  0  0  0  0
  189.0550  177.1240  137.7260 C   0  0  0  0  0  2  0  0  0  0  0  0
  190.4310  177.2780  138.0570 O   0  0  0  0  0  0  0  0  0  0  0  0
  192.5240  176.5390  137.4870 O   0  0  0  0  0  0  0  0  0  0  0  0
  191.3590  176.2520  137.8730 C   0  0  0  0  0  0  0  0  0  0  0  0
  190.8990  173.9730  137.0620 C   0  0  0  0  0  1  0  0  0  0  0  0
  190.9990  174.9220  138.1110 O   0  0  0  0  0  0  0  0  0  0  0  0
  1 17  1  6  0  0  0
  1 15  1  0  0  0  0
  1  6  1  0  0  0  0
  2  7  1  0  0  0  0
  3  8  1  1  0  0  0
  3 18  1  0  0  0  0
  4 10  1  0  0  0  0
  5 19  1  1  0  0  0
  5 16  1  0  0  0  0
  6 14  1  1  0  0  0
  6 19  1  0  0  0  0
  7 13  1  0  0  0  0
  9 15  1  0  0  0  0
  9  7  2  0  0  0  0
 12  4  2  0  0  0  0
 13 16  2  0  0  0  0
 13  3  1  0  0  0  0
 15  5  1  0  0  0  0
 16 12  1  0  0  0  0
 18  4  1  0  0  0  0
 18 11  2  0  0  0  0
 20 22  2  0  0  0  0
 20 21  1  0  0  0  0
 21  6  1  0  0  0  0
 21 23  2  0  0  0  0
 22 25  1  0  0  0  0
 23 24  1  0  0  0  0
 25 24  2  0  0  0  0
 26 22  1  0  0  0  0
 27  9  1  0  0  0  0
 28 27  1  0  0  0  0
 29 30  1  0  0  0  0
 29 28  1  0  0  0  0
 31 32  2  0  0  0  0
 32 30  1  0  0  0  0
 32 34  1  0  0  0  0
 33 34  1  0  0  0  0
M  END
>  <MODEL>
7

>  <REMARK>
 VINA RESULT:      -7.3      2.837      7.713
  Name = 
  7 active torsions:
  status: ('A' for Active; 'I' for Inactive)
    1  A    between atoms: O_1  and  C_18
    2  A    between atoms: O_1  and  C_29
    3  A    between atoms: C_2  and  C_15
    4  A    between atoms: C_2  and  C_33
    5  A    between atoms: C_9  and  C_13
    6  A    between atoms: C_18  and  O_30
    7  A    between atoms: C_29  and  C_33
                            x       y       z     vdW  Elec       q    Type
                         _______ _______ _______ _____ _____    ______ ____

>  <TORSDO>
F 7

$$$$
=
 OpenBabel11032421263D

 34 37  0  0  1  0  0  0  0  0999 V2000
  189.7270  177.3770  143.4640 C   0  0  1  0  0  3  0  0  0  0  0  0
  186.3880  177.6610  147.0680 C   0  0  0  0  0  1  0  0  0  0  0  0
  184.6160  178.6450  144.9020 C   0  0  2  0  0  3  0  0  0  0  0  0
  184.0390  178.4270  142.4030 C   0  0  0  0  0  0  0  0  0  0  0  0
  187.4800  176.9250  142.8950 C   0  0  1  0  0  3  0  0  0  0  0  0
  189.3790  177.9030  142.0640 C   0  0  2  0  0  0  0  0  0  0  0  0
  186.8270  177.5260  145.6410 C   0  0  0  0  0  0  0  0  0  0  0  0
  184.9350  180.0090  145.2910 N   0  0  0  0  0  1  0  0  0  0  0  0
  188.0720  177.1090  145.3470 C   0  0  0  0  0  0  0  0  0  0  0  0
  183.1140  178.6680  141.2600 C   0  0  0  0  0  1  0  0  0  0  0  0
  182.4060  178.9440  144.0440 O   0  0  0  0  0  0  0  0  0  0  0  0
  185.2610  177.9600  142.1610 C   0  0  0  0  0  3  0  0  0  0  0  0
  185.8910  177.9060  144.5460 C   0  0  0  0  0  0  0  0  0  0  0  0
  189.3370  179.4220  142.1390 C   0  0  0  0  0  1  0  0  0  0  0  0
  188.4500  176.9700  143.9720 N   0  0  0  0  0  0  0  0  0  0  0  0
  186.2160  177.6650  143.2500 C   0  0  0  0  0  0  0  0  0  0  0  0
  190.6720  176.1780  143.4860 C   0  0  0  0  0  1  0  0  0  0  0  0
  183.6100  178.6700  143.7880 C   0  0  0  0  0  0  0  0  0  0  0  0
  188.0770  177.4530  141.7270 O   0  0  0  0  0  0  0  0  0  0  0  0
  189.9680  176.7570  139.8780 C   0  0  0  0  0  3  0  0  0  0  0  0
  190.3760  177.5010  140.9950 C   0  0  0  0  0  0  0  0  0  0  0  0
  190.9130  176.3680  138.9280 C   0  0  0  0  0  0  0  0  0  0  0  0
  191.6960  177.8130  141.1430 N   0  0  0  0  0  0  0  0  0  0  0  0
  192.6310  177.4410  140.2270 C   0  0  0  0  0  3  0  0  0  0  0  0
  192.2530  176.7110  139.0990 C   0  0  0  0  0  3  0  0  0  0  0  0
  190.4160  175.4450  137.5260 Cl  0  0  0  0  0  0  0  0  0  0  0  0
  189.0650  176.7870  146.4210 C   0  0  0  0  0  2  0  0  0  0  0  0
  189.4380  178.0510  147.1730 C   0  0  0  0  0  2  0  0  0  0  0  0
  190.6340  177.7920  148.0750 C   0  0  0  0  0  2  0  0  0  0  0  0
  191.6710  177.1280  147.3600 O   0  0  0  0  0  0  0  0  0  0  0  0
  191.8970  174.8780  147.7280 O   0  0  0  0  0  0  0  0  0  0  0  0
  192.3600  176.0380  147.8930 C   0  0  0  0  0  0  0  0  0  0  0  0
  193.5540  176.6140  149.9680 C   0  0  0  0  0  1  0  0  0  0  0  0
  193.5500  176.2330  148.6010 O   0  0  0  0  0  0  0  0  0  0  0  0
  1 17  1  6  0  0  0
  1 15  1  0  0  0  0
  3  8  1  6  0  0  0
  4 18  1  0  0  0  0
  5 19  1  6  0  0  0
  5 16  1  0  0  0  0
  5 15  1  0  0  0  0
  6 14  1  1  0  0  0
  6  1  1  0  0  0  0
  7  2  1  0  0  0  0
  9  7  2  0  0  0  0
  9 27  1  0  0  0  0
 10  4  1  0  0  0  0
 12  4  2  0  0  0  0
 12 16  1  0  0  0  0
 13  3  1  0  0  0  0
 13  7  1  0  0  0  0
 15  9  1  0  0  0  0
 16 13  2  0  0  0  0
 18 11  2  0  0  0  0
 18  3  1  0  0  0  0
 19  6  1  0  0  0  0
 20 21  1  0  0  0  0
 21 23  2  0  0  0  0
 21  6  1  0  0  0  0
 22 25  1  0  0  0  0
 22 20  2  0  0  0  0
 24 23  1  0  0  0  0
 25 24  2  0  0  0  0
 26 22  1  0  0  0  0
 27 28  1  0  0  0  0
 28 29  1  0  0  0  0
 30 32  1  0  0  0  0
 30 29  1  0  0  0  0
 31 32  2  0  0  0  0
 32 34  1  0  0  0  0
 34 33  1  0  0  0  0
M  END
>  <MODEL>
8

>  <REMARK>
 VINA RESULT:      -7.2      3.213      7.178
  Name = 
  7 active torsions:
  status: ('A' for Active; 'I' for Inactive)
    1  A    between atoms: O_1  and  C_18
    2  A    between atoms: O_1  and  C_29
    3  A    between atoms: C_2  and  C_15
    4  A    between atoms: C_2  and  C_33
    5  A    between atoms: C_9  and  C_13
    6  A    between atoms: C_18  and  O_30
    7  A    between atoms: C_29  and  C_33
                            x       y       z     vdW  Elec       q    Type
                         _______ _______ _______ _____ _____    ______ ____

>  <TORSDO>
F 7

$$$$
=
 OpenBabel11032421263D

 34 37  0  0  1  0  0  0  0  0999 V2000
  188.2390  177.7920  142.9130 C   0  0  1  0  0  3  0  0  0  0  0  0
  185.6550  178.6770  138.8190 C   0  0  0  0  0  1  0  0  0  0  0  0
  183.3180  178.3370  140.6130 C   0  0  2  0  0  3  0  0  0  0  0  0
  182.4320  178.7210  143.0000 C   0  0  0  0  0  0  0  0  0  0  0  0
  186.2080  178.9740  143.1490 C   0  0  1  0  0  3  0  0  0  0  0  0
  187.5050  177.4060  144.2050 C   0  0  2  0  0  0  0  0  0  0  0  0
  185.8660  178.6470  140.3020 C   0  0  0  0  0  0  0  0  0  0  0  0
  183.2260  176.9480  140.1940 N   0  0  0  0  0  1  0  0  0  0  0  0
  187.1100  178.6160  140.8140 C   0  0  0  0  0  0  0  0  0  0  0  0
  181.3010  178.8000  143.9650 C   0  0  0  0  0  1  0  0  0  0  0  0
  181.0230  178.7970  141.0930 O   0  0  0  0  0  0  0  0  0  0  0  0
  183.6810  178.7460  143.4590 C   0  0  0  0  0  3  0  0  0  0  0  0
  184.6870  178.5990  141.2110 C   0  0  0  0  0  0  0  0  0  0  0  0
  186.9730  175.9910  144.0290 C   0  0  0  0  0  1  0  0  0  0  0  0
  187.2750  178.6100  142.2380 N   0  0  0  0  0  0  0  0  0  0  0  0
  184.8490  178.7070  142.5540 C   0  0  0  0  0  0  0  0  0  0  0  0
  189.5180  178.6010  143.1150 C   0  0  0  0  0  1  0  0  0  0  0  0
  182.1880  178.6460  141.5510 C   0  0  0  0  0  0  0  0  0  0  0  0
  186.3890  178.2680  144.3610 O   0  0  0  0  0  0  0  0  0  0  0  0
  189.6460  176.8300  145.4400 C   0  0  0  0  0  3  0  0  0  0  0  0
  188.3830  177.4410  145.4400 C   0  0  0  0  0  0  0  0  0  0  0  0
  190.4170  176.8440  146.6020 C   0  0  0  0  0  0  0  0  0  0  0  0
  187.9220  178.0210  146.5860 N   0  0  0  0  0  0  0  0  0  0  0  0
  188.6610  178.0440  147.7280 C   0  0  0  0  0  3  0  0  0  0  0  0
  189.9260  177.4550  147.7560 C   0  0  0  0  0  3  0  0  0  0  0  0
  191.9970  176.0920  146.6130 Cl  0  0  0  0  0  0  0  0  0  0  0  0
  188.3210  178.5900  139.9320 C   0  0  0  0  0  2  0  0  0  0  0  0
  188.8860  177.1830  139.8760 C   0  0  0  0  0  2  0  0  0  0  0  0
  189.2190  176.8080  138.4410 C   0  0  0  0  0  2  0  0  0  0  0  0
  189.0210  177.9170  137.5700 O   0  0  0  0  0  0  0  0  0  0  0  0
  189.4760  177.6070  135.3460 O   0  0  0  0  0  0  0  0  0  0  0  0
  188.6080  177.7580  136.2480 C   0  0  0  0  0  0  0  0  0  0  0  0
  186.7750  178.2550  134.6800 C   0  0  0  0  0  1  0  0  0  0  0  0
  187.2470  177.7690  135.9270 O   0  0  0  0  0  0  0  0  0  0  0  0
  1 17  1  1  0  0  0
  1  6  1  0  0  0  0
  2  7  1  0  0  0  0
  3  8  1  1  0  0  0
  3 13  1  0  0  0  0
  3 18  1  0  0  0  0
  4 12  2  0  0  0  0
  4 10  1  0  0  0  0
  5 16  1  6  0  0  0
  5 19  1  0  0  0  0
  6 14  1  6  0  0  0
  6 19  1  0  0  0  0
  6 21  1  0  0  0  0
  7  9  2  0  0  0  0
  7 13  1  0  0  0  0
  9 15  1  0  0  0  0
 11 18  2  0  0  0  0
 13 16  2  0  0  0  0
 15  1  1  0  0  0  0
 15  5  1  0  0  0  0
 16 12  1  0  0  0  0
 18  4  1  0  0  0  0
 20 21  2  0  0  0  0
 20 22  1  0  0  0  0
 21 23  1  0  0  0  0
 22 26  1  0  0  0  0
 22 25  2  0  0  0  0
 23 24  2  0  0  0  0
 24 25  1  0  0  0  0
 27  9  1  0  0  0  0
 28 27  1  0  0  0  0
 29 28  1  0  0  0  0
 30 29  1  0  0  0  0
 31 32  2  0  0  0  0
 32 30  1  0  0  0  0
 33 34  1  0  0  0  0
 34 32  1  0  0  0  0
M  END
>  <MODEL>
9

>  <REMARK>
 VINA RESULT:      -7.2      2.138      6.481
  Name = 
  7 active torsions:
  status: ('A' for Active; 'I' for Inactive)
    1  A    between atoms: O_1  and  C_18
    2  A    between atoms: O_1  and  C_29
    3  A    between atoms: C_2  and  C_15
    4  A    between atoms: C_2  and  C_33
    5  A    between atoms: C_9  and  C_13
    6  A    between atoms: C_18  and  O_30
    7  A    between atoms: C_29  and  C_33
                            x       y       z     vdW  Elec       q    Type
                         _______ _______ _______ _____ _____    ______ ____

>  <TORSDO>
F 7

$$$$
