=
 OpenBabel11042413063D

 40 47  0  0  1  0  0  0  0  0999 V2000
  187.0980  178.0340  148.0240 C   0  0  0  0  0  2  0  0  0  0  0  0
  186.8910  178.1860  146.7260 C   0  0  2  0  0  3  0  0  0  0  0  0
  190.1050  177.2860  143.8960 C   0  0  2  0  0  3  0  0  0  0  0  0
  192.2030  176.1000  146.6860 N   0  0  0  0  0  0  0  0  0  0  0  0
  191.9400  176.1710  145.3650 C   0  0  0  0  0  3  0  0  0  0  0  0
  190.7310  176.8270  145.1980 C   0  0  0  0  0  0  0  0  0  0  0  0
  185.7520  177.6810  145.8960 C   0  0  2  0  0  3  0  0  0  0  0  0
  188.6570  177.0710  143.8580 N   0  0  0  0  0  0  0  0  0  0  0  0
  188.5880  178.0210  148.2480 C   0  0  0  0  0  2  0  0  0  0  0  0
  189.1090  177.8800  146.8460 C   0  0  2  0  0  3  0  0  0  0  0  0
  188.1090  178.0960  146.0160 C   0  0  1  0  0  3  0  0  0  0  0  0
  187.8030  177.4980  144.7390 C   0  0  0  0  0  0  0  0  0  0  0  0
  186.3970  177.2660  144.6390 N   0  0  0  0  0  2  0  0  0  0  0  0
  191.2330  176.7000  147.3600 N   0  0  0  0  0  2  0  0  0  0  0  0
  190.3340  177.1630  146.4760 C   0  0  0  0  0  0  0  0  0  0  0  0
  190.1970  177.0310  141.3760 C   0  0  1  0  0  0  0  0  0  0  0  0
  191.4240  177.5060  141.8820 O   0  0  0  0  0  0  0  0  0  0  0  0
  190.7270  176.5750  142.6910 C   0  0  1  0  0  3  0  0  0  0  0  0
  188.3020  178.9120  141.1550 C   0  0  0  0  0  3  0  0  0  0  0  0
  189.1600  178.0690  141.2600 C   0  0  0  0  0  0  0  0  0  0  0  0
  190.3280  176.0590  140.2890 N   0  0  0  0  0  2  0  0  0  0  0  0
  190.6150  176.7290  139.0190 C   0  0  0  0  0  2  0  0  0  0  0  0
  191.3400  174.6410  138.1060 O   0  0  0  0  0  1  0  0  0  0  0  0
  191.5110  175.8880  138.1670 C   0  0  0  0  0  0  0  0  0  0  0  0
  192.5310  176.4850  137.4330 O   0  0  0  0  0  0  0  0  0  0  0  0
  184.7510  178.7930  145.6290 C   0  0  0  0  0  2  0  0  0  0  0  0
  184.6820  179.0670  144.1360 C   0  0  0  0  0  2  0  0  0  0  0  0
  183.4110  178.4860  143.5440 C   0  0  1  0  0  3  0  0  0  0  0  0
  182.2960  179.0960  144.1170 O   0  0  0  0  0  1  0  0  0  0  0  0
  183.4150  178.7300  142.0480 C   0  0  0  0  0  2  0  0  0  0  0  0
  183.6160  178.3640  138.8110 C   0  0  2  0  0  3  0  0  0  0  0  0
  181.8940  177.6060  140.2740 C   0  0  2  0  0  3  0  0  0  0  0  0
  183.1970  177.1760  139.6450 C   0  0  0  0  0  2  0  0  0  0  0  0
  185.1230  178.4720  138.7970 C   0  0  0  0  0  1  0  0  0  0  0  0
  181.8860  179.1010  140.0470 C   0  0  1  0  0  0  0  0  0  0  0  0
  182.0050  178.5750  141.4720 C   0  0  2  0  0  3  0  0  0  0  0  0
  183.0650  179.5190  139.3850 O   0  0  0  0  0  0  0  0  0  0  0  0
  180.5300  179.6000  139.5540 C   0  0  0  0  0  3  0  0  0  0  0  0
  180.4110  181.1100  139.6920 C   0  0  0  0  0  2  0  0  0  0  0  0
  179.7500  180.2050  140.7080 C   0  0  0  0  0  2  0  0  0  0  0  0
  1  9  1  0  0  0  0
  2  1  1  1  0  0  0
  3  8  1  1  0  0  0
  3  6  1  0  0  0  0
  4 14  1  0  0  0  0
  5  4  2  0  0  0  0
  6  5  1  0  0  0  0
  6 15  2  0  0  0  0
  7 26  1  6  0  0  0
  7  2  1  0  0  0  0
  8 12  2  0  0  0  0
 10  9  1  1  0  0  0
 11 12  1  6  0  0  0
 11  2  1  0  0  0  0
 11 10  1  0  0  0  0
 13 12  1  0  0  0  0
 13  7  1  0  0  0  0
 15 10  1  0  0  0  0
 15 14  1  0  0  0  0
 16 20  1  6  0  0  0
 16 17  1  0  0  0  0
 16 18  1  0  0  0  0
 18 17  1  6  0  0  0
 18  3  1  0  0  0  0
 19 20  3  0  0  0  0
 21 16  1  0  0  0  0
 22 21  1  0  0  0  0
 23 24  1  0  0  0  0
 24 22  1  0  0  0  0
 25 24  2  0  0  0  0
 27 26  1  0  0  0  0
 28 29  1  1  0  0  0
 28 27  1  0  0  0  0
 30 28  1  0  0  0  0
 31 34  1  1  0  0  0
 31 37  1  0  0  0  0
 31 33  1  0  0  0  0
 32 33  1  6  0  0  0
 32 36  1  0  0  0  0
 35 38  1  6  0  0  0
 35 32  1  0  0  0  0
 35 36  1  0  0  0  0
 36 30  1  6  0  0  0
 37 35  1  0  0  0  0
 38 39  1  0  0  0  0
 38 40  1  0  0  0  0
 39 40  1  0  0  0  0
M  END
>  <MODEL>
1

>  <REMARK>
 VINA RESULT:      -9.2      0.000      0.000
  Name = 
  11 active torsions:
  status: ('A' for Active; 'I' for Inactive)
    1  A    between atoms: C_2  and  C_20
    2  A    between atoms: C_5  and  C_27
    3  A    between atoms: C_11  and  N_36
    4  A    between atoms: C_11  and  C_40
    5  A    between atoms: C_16  and  C_39
    6  A    between atoms: C_17  and  C_22
    7  A    between atoms: C_17  and  N_36
    8  A    between atoms: C_21  and  C_25
    9  A    between atoms: C_21  and  C_29
   10  A    between atoms: C_25  and  C_31
   11  A    between atoms: C_31  and  C_39
                            x       y       z     vdW  Elec       q    Type
                         _______ _______ _______ _____ _____    ______ ____

>  <TORSDO>
F 11

$$$$
=
 OpenBabel11042413063D

 40 47  0  0  1  0  0  0  0  0999 V2000
  186.9390  178.0400  147.7830 C   0  0  0  0  0  2  0  0  0  0  0  0
  186.7900  178.1820  146.4770 C   0  0  2  0  0  3  0  0  0  0  0  0
  190.1320  177.2840  143.7980 C   0  0  2  0  0  3  0  0  0  0  0  0
  192.1110  176.1300  146.6880 N   0  0  0  0  0  0  0  0  0  0  0  0
  191.9060  176.1910  145.3550 C   0  0  0  0  0  3  0  0  0  0  0  0
  190.7020  176.8380  145.1300 C   0  0  0  0  0  0  0  0  0  0  0  0
  185.6920  177.6650  145.6010 C   0  0  2  0  0  3  0  0  0  0  0  0
  188.6880  177.0600  143.6980 N   0  0  0  0  0  0  0  0  0  0  0  0
  188.4180  178.0380  148.0740 C   0  0  0  0  0  2  0  0  0  0  0  0
  189.0020  177.8910  146.6970 C   0  0  2  0  0  3  0  0  0  0  0  0
  188.0390  178.0960  145.8230 C   0  0  1  0  0  3  0  0  0  0  0  0
  187.7930  177.4870  144.5370 C   0  0  0  0  0  0  0  0  0  0  0  0
  186.3950  177.2460  144.3770 N   0  0  0  0  0  2  0  0  0  0  0  0
  191.1080  176.7280  147.3140 N   0  0  0  0  0  2  0  0  0  0  0  0
  190.2470  177.1790  146.3870 C   0  0  0  0  0  0  0  0  0  0  0  0
  190.3160  176.9910  141.2880 C   0  0  1  0  0  0  0  0  0  0  0  0
  191.5130  177.5040  141.8270 O   0  0  0  0  0  0  0  0  0  0  0  0
  190.8110  176.5690  142.6270 C   0  0  1  0  0  3  0  0  0  0  0  0
  188.3860  178.8270  140.9960 C   0  0  0  0  0  3  0  0  0  0  0  0
  189.2590  178.0020  141.1200 C   0  0  0  0  0  0  0  0  0  0  0  0
  190.5070  176.0060  140.2220 N   0  0  0  0  0  2  0  0  0  0  0  0
  190.7220  176.6630  138.9320 C   0  0  0  0  0  2  0  0  0  0  0  0
  190.7340  174.4820  137.9550 O   0  0  0  0  0  1  0  0  0  0  0  0
  190.4900  175.7090  137.8050 C   0  0  0  0  0  0  0  0  0  0  0  0
  189.9950  176.1750  136.5920 O   0  0  0  0  0  0  0  0  0  0  0  0
  184.6970  178.7680  145.2820 C   0  0  0  0  0  2  0  0  0  0  0  0
  183.7860  178.3210  144.1510 C   0  0  0  0  0  2  0  0  0  0  0  0
  184.0120  179.1710  142.9150 C   0  0  1  0  0  3  0  0  0  0  0  0
  185.1930  179.9000  143.0460 O   0  0  0  0  0  1  0  0  0  0  0  0
  184.1070  178.2590  141.7070 C   0  0  0  0  0  2  0  0  0  0  0  0
  182.3610  177.5650  139.0380 C   0  0  2  0  0  3  0  0  0  0  0  0
  183.6650  179.5100  139.4790 C   0  0  2  0  0  3  0  0  0  0  0  0
  182.2680  178.9570  139.6170 C   0  0  0  0  0  2  0  0  0  0  0  0
  181.4210  176.6410  139.7780 C   0  0  0  0  0  1  0  0  0  0  0  0
  184.4900  178.2760  139.1900 C   0  0  1  0  0  0  0  0  0  0  0  0
  184.6990  179.0070  140.5100 C   0  0  2  0  0  3  0  0  0  0  0  0
  183.6810  177.1150  139.1880 O   0  0  0  0  0  0  0  0  0  0  0  0
  185.4840  178.5010  138.0540 C   0  0  0  0  0  3  0  0  0  0  0  0
  185.4420  177.3630  137.0460 C   0  0  0  0  0  2  0  0  0  0  0  0
  186.5490  177.4190  138.0760 C   0  0  0  0  0  2  0  0  0  0  0  0
  1  9  1  0  0  0  0
  2  1  1  1  0  0  0
  3  8  1  1  0  0  0
  3  6  1  0  0  0  0
  4 14  1  0  0  0  0
  5  4  2  0  0  0  0
  6  5  1  0  0  0  0
  6 15  2  0  0  0  0
  7 26  1  6  0  0  0
  7  2  1  0  0  0  0
  8 12  2  0  0  0  0
 10  9  1  1  0  0  0
 11 12  1  6  0  0  0
 11  2  1  0  0  0  0
 11 10  1  0  0  0  0
 13 12  1  0  0  0  0
 13  7  1  0  0  0  0
 15 10  1  0  0  0  0
 15 14  1  0  0  0  0
 16 20  1  6  0  0  0
 16 17  1  0  0  0  0
 16 18  1  0  0  0  0
 18 17  1  6  0  0  0
 18  3  1  0  0  0  0
 19 20  3  0  0  0  0
 21 16  1  0  0  0  0
 22 21  1  0  0  0  0
 24 23  1  0  0  0  0
 24 22  1  0  0  0  0
 25 24  2  0  0  0  0
 27 26  1  0  0  0  0
 28 29  1  1  0  0  0
 28 27  1  0  0  0  0
 30 28  1  0  0  0  0
 31 37  1  0  0  0  0
 31 33  1  0  0  0  0
 31 34  1  1  0  0  0
 32 33  1  1  0  0  0
 32 36  1  0  0  0  0
 35 38  1  6  0  0  0
 35 32  1  0  0  0  0
 35 36  1  0  0  0  0
 36 30  1  1  0  0  0
 37 35  1  0  0  0  0
 38 40  1  0  0  0  0
 39 38  1  0  0  0  0
 39 40  1  0  0  0  0
M  END
>  <MODEL>
2

>  <REMARK>
 VINA RESULT:      -9.0      1.200      2.308
  Name = 
  11 active torsions:
  status: ('A' for Active; 'I' for Inactive)
    1  A    between atoms: C_2  and  C_20
    2  A    between atoms: C_5  and  C_27
    3  A    between atoms: C_11  and  N_36
    4  A    between atoms: C_11  and  C_40
    5  A    between atoms: C_16  and  C_39
    6  A    between atoms: C_17  and  C_22
    7  A    between atoms: C_17  and  N_36
    8  A    between atoms: C_21  and  C_25
    9  A    between atoms: C_21  and  C_29
   10  A    between atoms: C_25  and  C_31
   11  A    between atoms: C_31  and  C_39
                            x       y       z     vdW  Elec       q    Type
                         _______ _______ _______ _____ _____    ______ ____

>  <TORSDO>
F 11

$$$$
=
 OpenBabel11042413063D

 40 47  0  0  1  0  0  0  0  0999 V2000
  188.9490  177.3880  143.5500 C   0  0  0  0  0  2  0  0  0  0  0  0
  188.2500  177.4520  142.4290 C   0  0  2  0  0  3  0  0  0  0  0  0
  183.9810  178.4030  142.5840 C   0  0  2  0  0  3  0  0  0  0  0  0
  184.2510  178.9260  146.2240 N   0  0  0  0  0  0  0  0  0  0  0  0
  183.5790  179.0800  145.0640 C   0  0  0  0  0  3  0  0  0  0  0  0
  184.3710  178.5920  144.0370 C   0  0  0  0  0  0  0  0  0  0  0  0
  188.5710  178.1960  141.1700 C   0  0  2  0  0  3  0  0  0  0  0  0
  185.0510  178.7780  141.6580 N   0  0  0  0  0  0  0  0  0  0  0  0
  187.9730  177.2040  144.6840 C   0  0  0  0  0  2  0  0  0  0  0  0
  186.6610  177.4930  144.0110 C   0  0  2  0  0  3  0  0  0  0  0  0
  186.8660  177.5120  142.7100 C   0  0  1  0  0  3  0  0  0  0  0  0
  186.2670  178.3220  141.6770 C   0  0  0  0  0  0  0  0  0  0  0  0
  187.2650  178.7180  140.7350 N   0  0  0  0  0  2  0  0  0  0  0  0
  185.4160  178.3430  145.9840 N   0  0  0  0  0  2  0  0  0  0  0  0
  185.5050  178.1180  144.6630 C   0  0  0  0  0  0  0  0  0  0  0  0
  181.9540  178.6570  141.0830 C   0  0  1  0  0  0  0  0  0  0  0  0
  181.5700  178.4230  142.4190 O   0  0  0  0  0  0  0  0  0  0  0  0
  182.7310  179.2110  142.2270 C   0  0  1  0  0  3  0  0  0  0  0  0
  182.7140  176.4540  139.7610 C   0  0  0  0  0  3  0  0  0  0  0  0
  182.3700  177.4420  140.3630 C   0  0  0  0  0  0  0  0  0  0  0  0
  181.1210  179.6300  140.3760 N   0  0  0  0  0  2  0  0  0  0  0  0
  181.5130  179.7310  138.9690 C   0  0  0  0  0  2  0  0  0  0  0  0
  182.1410  181.9910  138.5070 O   0  0  0  0  0  0  0  0  0  0  0  0
  182.5200  180.8190  138.7760 C   0  0  0  0  0  0  0  0  0  0  0  0
  183.8760  180.5400  138.9030 O   0  0  0  0  0  1  0  0  0  0  0  0
  189.1330  177.2520  140.1200 C   0  0  0  0  0  2  0  0  0  0  0  0
  190.6510  177.3180  140.1390 C   0  0  0  0  0  2  0  0  0  0  0  0
  191.2210  176.9080  138.7930 C   0  0  1  0  0  3  0  0  0  0  0  0
  191.4520  175.5330  138.7720 O   0  0  0  0  0  1  0  0  0  0  0  0
  190.2240  177.2750  137.7110 C   0  0  0  0  0  2  0  0  0  0  0  0
  187.2710  177.1120  136.3320 C   0  0  2  0  0  3  0  0  0  0  0  0
  189.3820  176.6020  135.3520 C   0  0  2  0  0  3  0  0  0  0  0  0
  188.4000  177.7310  135.5440 C   0  0  0  0  0  2  0  0  0  0  0  0
  186.6740  178.1410  137.2640 C   0  0  0  0  0  1  0  0  0  0  0  0
  188.9100  175.5710  136.3530 C   0  0  1  0  0  0  0  0  0  0  0  0
  190.2560  176.2480  136.5770 C   0  0  2  0  0  3  0  0  0  0  0  0
  187.7910  176.0440  137.0780 O   0  0  0  0  0  0  0  0  0  0  0  0
  188.8790  174.1650  135.7580 C   0  0  0  0  0  3  0  0  0  0  0  0
  188.7380  173.1070  136.8410 C   0  0  0  0  0  2  0  0  0  0  0  0
  190.0920  173.3790  136.2240 C   0  0  0  0  0  2  0  0  0  0  0  0
  1  9  1  0  0  0  0
  2 11  1  0  0  0  0
  2  1  1  1  0  0  0
  3  8  1  6  0  0  0
  3  6  1  0  0  0  0
  5  4  2  0  0  0  0
  6 15  2  0  0  0  0
  6  5  1  0  0  0  0
  7 26  1  6  0  0  0
  7  2  1  0  0  0  0
  8 12  2  0  0  0  0
 10 15  1  0  0  0  0
 10  9  1  1  0  0  0
 11 12  1  1  0  0  0
 11 10  1  0  0  0  0
 13  7  1  0  0  0  0
 13 12  1  0  0  0  0
 14  4  1  0  0  0  0
 15 14  1  0  0  0  0
 16 20  1  6  0  0  0
 16 18  1  0  0  0  0
 16 17  1  0  0  0  0
 18 17  1  1  0  0  0
 18  3  1  0  0  0  0
 19 20  3  0  0  0  0
 21 16  1  0  0  0  0
 22 21  1  0  0  0  0
 23 24  2  0  0  0  0
 24 25  1  0  0  0  0
 24 22  1  0  0  0  0
 26 27  1  0  0  0  0
 28 29  1  1  0  0  0
 28 27  1  0  0  0  0
 30 28  1  0  0  0  0
 31 37  1  0  0  0  0
 31 34  1  1  0  0  0
 32 33  1  1  0  0  0
 32 35  1  0  0  0  0
 32 36  1  0  0  0  0
 33 31  1  0  0  0  0
 35 38  1  6  0  0  0
 35 36  1  0  0  0  0
 35 37  1  0  0  0  0
 36 30  1  1  0  0  0
 38 40  1  0  0  0  0
 38 39  1  0  0  0  0
 40 39  1  0  0  0  0
M  END
>  <MODEL>
3

>  <REMARK>
 VINA RESULT:      -8.9      2.579      7.906
  Name = 
  11 active torsions:
  status: ('A' for Active; 'I' for Inactive)
    1  A    between atoms: C_2  and  C_20
    2  A    between atoms: C_5  and  C_27
    3  A    between atoms: C_11  and  N_36
    4  A    between atoms: C_11  and  C_40
    5  A    between atoms: C_16  and  C_39
    6  A    between atoms: C_17  and  C_22
    7  A    between atoms: C_17  and  N_36
    8  A    between atoms: C_21  and  C_25
    9  A    between atoms: C_21  and  C_29
   10  A    between atoms: C_25  and  C_31
   11  A    between atoms: C_31  and  C_39
                            x       y       z     vdW  Elec       q    Type
                         _______ _______ _______ _____ _____    ______ ____

>  <TORSDO>
F 11

$$$$
=
 OpenBabel11042413063D

 40 47  0  0  1  0  0  0  0  0999 V2000
  187.0810  178.0580  147.9430 C   0  0  0  0  0  2  0  0  0  0  0  0
  186.8830  178.1930  146.6430 C   0  0  2  0  0  3  0  0  0  0  0  0
  190.1200  177.2680  143.8460 C   0  0  2  0  0  3  0  0  0  0  0  0
  192.2030  176.1280  146.6670 N   0  0  0  0  0  0  0  0  0  0  0  0
  191.9490  176.1800  145.3430 C   0  0  0  0  0  3  0  0  0  0  0  0
  190.7390  176.8300  145.1590 C   0  0  0  0  0  0  0  0  0  0  0  0
  185.7520  177.6720  145.8120 C   0  0  2  0  0  3  0  0  0  0  0  0
  188.6730  177.0470  143.8020 N   0  0  0  0  0  0  0  0  0  0  0  0
  188.5700  178.0550  148.1780 C   0  0  0  0  0  2  0  0  0  0  0  0
  189.1010  177.8970  146.7820 C   0  0  2  0  0  3  0  0  0  0  0  0
  188.1070  178.0980  145.9420 C   0  0  1  0  0  3  0  0  0  0  0  0
  187.8110  177.4820  144.6710 C   0  0  0  0  0  0  0  0  0  0  0  0
  186.4070  177.2430  144.5650 N   0  0  0  0  0  2  0  0  0  0  0  0
  191.2260  176.7330  147.3260 N   0  0  0  0  0  2  0  0  0  0  0  0
  190.3320  177.1800  146.4300 C   0  0  0  0  0  0  0  0  0  0  0  0
  190.2750  177.0220  141.3280 C   0  0  1  0  0  0  0  0  0  0  0  0
  191.5010  177.4570  141.8720 O   0  0  0  0  0  0  0  0  0  0  0  0
  190.7530  176.5440  142.6550 C   0  0  1  0  0  3  0  0  0  0  0  0
  188.4460  178.9660  141.0890 C   0  0  0  0  0  3  0  0  0  0  0  0
  189.2740  178.0930  141.1900 C   0  0  0  0  0  0  0  0  0  0  0  0
  190.4060  176.0520  140.2400 N   0  0  0  0  0  2  0  0  0  0  0  0
  190.8050  176.7110  138.9960 C   0  0  0  0  0  2  0  0  0  0  0  0
  192.2360  175.2250  137.7880 O   0  0  0  0  0  0  0  0  0  0  0  0
  192.1460  176.2290  138.5460 C   0  0  0  0  0  0  0  0  0  0  0  0
  193.2970  176.8930  138.9560 O   0  0  0  0  0  1  0  0  0  0  0  0
  184.7480  178.7760  145.5230 C   0  0  0  0  0  2  0  0  0  0  0  0
  184.6840  179.0270  144.0260 C   0  0  0  0  0  2  0  0  0  0  0  0
  183.3930  178.4790  143.4470 C   0  0  1  0  0  3  0  0  0  0  0  0
  182.3060  178.9310  144.1930 O   0  0  0  0  0  1  0  0  0  0  0  0
  183.2610  178.9550  142.0130 C   0  0  0  0  0  2  0  0  0  0  0  0
  181.5090  179.2260  139.2730 C   0  0  2  0  0  3  0  0  0  0  0  0
  183.6730  178.2660  139.5480 C   0  0  2  0  0  3  0  0  0  0  0  0
  182.9800  179.5670  139.2240 C   0  0  0  0  0  2  0  0  0  0  0  0
  180.7260  180.4160  139.7780 C   0  0  0  0  0  1  0  0  0  0  0  0
  182.5540  177.4190  140.1110 C   0  0  1  0  0  0  0  0  0  0  0  0
  183.6830  177.8550  141.0370 C   0  0  2  0  0  3  0  0  0  0  0  0
  181.3390  178.1420  140.1470 O   0  0  0  0  0  0  0  0  0  0  0  0
  182.5670  176.0000  139.5470 C   0  0  0  0  0  3  0  0  0  0  0  0
  181.8470  175.9280  138.2100 C   0  0  0  0  0  2  0  0  0  0  0  0
  181.1500  175.4600  139.4690 C   0  0  0  0  0  2  0  0  0  0  0  0
  1  9  1  0  0  0  0
  2  1  1  1  0  0  0
  3  8  1  1  0  0  0
  3  6  1  0  0  0  0
  4 14  1  0  0  0  0
  5  4  2  0  0  0  0
  6  5  1  0  0  0  0
  6 15  2  0  0  0  0
  7 26  1  6  0  0  0
  7  2  1  0  0  0  0
  8 12  2  0  0  0  0
 10  9  1  1  0  0  0
 11 12  1  6  0  0  0
 11  2  1  0  0  0  0
 11 10  1  0  0  0  0
 13 12  1  0  0  0  0
 13  7  1  0  0  0  0
 15 10  1  0  0  0  0
 15 14  1  0  0  0  0
 16 20  1  6  0  0  0
 16 17  1  0  0  0  0
 16 18  1  0  0  0  0
 18 17  1  6  0  0  0
 18  3  1  0  0  0  0
 19 20  3  0  0  0  0
 21 16  1  0  0  0  0
 22 21  1  0  0  0  0
 23 24  2  0  0  0  0
 24 25  1  0  0  0  0
 24 22  1  0  0  0  0
 27 26  1  0  0  0  0
 28 27  1  0  0  0  0
 28 29  1  1  0  0  0
 30 28  1  0  0  0  0
 31 34  1  1  0  0  0
 31 37  1  0  0  0  0
 32 33  1  1  0  0  0
 32 35  1  0  0  0  0
 32 36  1  0  0  0  0
 33 31  1  0  0  0  0
 35 38  1  6  0  0  0
 35 37  1  0  0  0  0
 35 36  1  0  0  0  0
 36 30  1  1  0  0  0
 39 40  1  0  0  0  0
 39 38  1  0  0  0  0
 40 38  1  0  0  0  0
M  END
>  <MODEL>
4

>  <REMARK>
 VINA RESULT:      -8.9      0.867      1.812
  Name = 
  11 active torsions:
  status: ('A' for Active; 'I' for Inactive)
    1  A    between atoms: C_2  and  C_20
    2  A    between atoms: C_5  and  C_27
    3  A    between atoms: C_11  and  N_36
    4  A    between atoms: C_11  and  C_40
    5  A    between atoms: C_16  and  C_39
    6  A    between atoms: C_17  and  C_22
    7  A    between atoms: C_17  and  N_36
    8  A    between atoms: C_21  and  C_25
    9  A    between atoms: C_21  and  C_29
   10  A    between atoms: C_25  and  C_31
   11  A    between atoms: C_31  and  C_39
                            x       y       z     vdW  Elec       q    Type
                         _______ _______ _______ _____ _____    ______ ____

>  <TORSDO>
F 11

$$$$
=
 OpenBabel11042413063D

 40 47  0  0  1  0  0  0  0  0999 V2000
  184.9100  179.3120  144.3250 C   0  0  0  0  0  2  0  0  0  0  0  0
  184.9990  178.9040  143.0710 C   0  0  2  0  0  3  0  0  0  0  0  0
  181.3560  178.1900  140.7540 C   0  0  2  0  0  3  0  0  0  0  0  0
  179.3400  179.4290  143.5820 N   0  0  0  0  0  0  0  0  0  0  0  0
  179.4560  179.1060  142.2770 C   0  0  0  0  0  3  0  0  0  0  0  0
  180.7780  178.7730  142.0280 C   0  0  0  0  0  0  0  0  0  0  0  0
  185.8290  179.4710  141.9610 C   0  0  2  0  0  3  0  0  0  0  0  0
  182.6580  178.7650  140.4090 N   0  0  0  0  0  0  0  0  0  0  0  0
  183.5220  178.9840  144.8110 C   0  0  0  0  0  2  0  0  0  0  0  0
  182.8220  178.6310  143.5300 C   0  0  2  0  0  3  0  0  0  0  0  0
  183.7360  178.4890  142.5930 C   0  0  1  0  0  3  0  0  0  0  0  0
  183.6980  178.8120  141.1860 C   0  0  0  0  0  0  0  0  0  0  0  0
  184.9470  179.3750  140.7860 N   0  0  0  0  0  2  0  0  0  0  0  0
  180.5180  179.2940  144.1740 N   0  0  0  0  0  2  0  0  0  0  0  0
  181.4040  178.8830  143.2530 C   0  0  0  0  0  0  0  0  0  0  0  0
  180.6050  177.4050  138.4640 C   0  0  1  0  0  0  0  0  0  0  0  0
  179.5730  177.2580  139.4140 O   0  0  0  0  0  0  0  0  0  0  0  0
  180.4120  178.3900  139.5650 C   0  0  1  0  0  3  0  0  0  0  0  0
  182.4690  175.4830  138.5790 C   0  0  0  0  0  3  0  0  0  0  0  0
  181.6230  176.3430  138.5250 C   0  0  0  0  0  0  0  0  0  0  0  0
  180.1540  177.8570  137.1470 N   0  0  0  0  0  2  0  0  0  0  0  0
  181.2210  178.5740  136.4470 C   0  0  0  0  0  2  0  0  0  0  0  0
  180.1090  180.2220  135.1190 O   0  0  0  0  0  0  0  0  0  0  0  0
  180.8050  179.9780  136.1410 C   0  0  0  0  0  0  0  0  0  0  0  0
  181.1790  181.0130  136.9900 O   0  0  0  0  0  1  0  0  0  0  0  0
  187.0790  178.6340  141.7460 C   0  0  0  0  0  2  0  0  0  0  0  0
  187.1020  177.4880  142.7440 C   0  0  0  0  0  2  0  0  0  0  0  0
  188.4280  176.7530  142.6840 C   0  0  1  0  0  3  0  0  0  0  0  0
  189.3770  177.5350  142.0280 O   0  0  0  0  0  1  0  0  0  0  0  0
  188.8920  176.4680  144.0990 C   0  0  0  0  0  2  0  0  0  0  0  0
  191.3830  176.6860  146.1960 C   0  0  2  0  0  3  0  0  0  0  0  0
  189.9890  178.4380  145.3800 C   0  0  2  0  0  3  0  0  0  0  0  0
  191.2800  177.7110  145.0920 C   0  0  0  0  0  2  0  0  0  0  0  0
  192.0560  175.4380  145.6730 C   0  0  0  0  0  1  0  0  0  0  0  0
  189.3050  177.5280  146.3760 C   0  0  1  0  0  0  0  0  0  0  0  0
  188.6910  177.6950  144.9910 C   0  0  2  0  0  3  0  0  0  0  0  0
  190.0850  176.3760  146.6300 O   0  0  0  0  0  0  0  0  0  0  0  0
  188.7080  178.3050  147.5470 C   0  0  0  0  0  3  0  0  0  0  0  0
  187.9310  177.3900  148.4810 C   0  0  0  0  0  2  0  0  0  0  0  0
  187.1910  178.2540  147.4830 C   0  0  0  0  0  2  0  0  0  0  0  0
  1  9  1  0  0  0  0
  2  1  1  1  0  0  0
  3  8  1  6  0  0  0
  3  6  1  0  0  0  0
  4 14  1  0  0  0  0
  5  4  2  0  0  0  0
  6  5  1  0  0  0  0
  6 15  2  0  0  0  0
  7 26  1  6  0  0  0
  7  2  1  0  0  0  0
  8 12  2  0  0  0  0
 10  9  1  1  0  0  0
 11 12  1  6  0  0  0
 11  2  1  0  0  0  0
 11 10  1  0  0  0  0
 13 12  1  0  0  0  0
 13  7  1  0  0  0  0
 15 10  1  0  0  0  0
 15 14  1  0  0  0  0
 16 20  1  1  0  0  0
 16 17  1  0  0  0  0
 16 18  1  0  0  0  0
 18 17  1  1  0  0  0
 18  3  1  0  0  0  0
 20 19  3  0  0  0  0
 21 16  1  0  0  0  0
 22 21  1  0  0  0  0
 23 24  2  0  0  0  0
 24 22  1  0  0  0  0
 24 25  1  0  0  0  0
 26 27  1  0  0  0  0
 28 29  1  1  0  0  0
 28 27  1  0  0  0  0
 28 30  1  0  0  0  0
 31 34  1  6  0  0  0
 31 37  1  0  0  0  0
 32 33  1  6  0  0  0
 32 35  1  0  0  0  0
 33 31  1  0  0  0  0
 35 37  1  0  0  0  0
 35 38  1  1  0  0  0
 36 30  1  6  0  0  0
 36 32  1  0  0  0  0
 36 35  1  0  0  0  0
 38 39  1  0  0  0  0
 40 38  1  0  0  0  0
 40 39  1  0  0  0  0
M  END
>  <MODEL>
5

>  <REMARK>
 VINA RESULT:      -8.7      3.549      9.268
  Name = 
  11 active torsions:
  status: ('A' for Active; 'I' for Inactive)
    1  A    between atoms: C_2  and  C_20
    2  A    between atoms: C_5  and  C_27
    3  A    between atoms: C_11  and  N_36
    4  A    between atoms: C_11  and  C_40
    5  A    between atoms: C_16  and  C_39
    6  A    between atoms: C_17  and  C_22
    7  A    between atoms: C_17  and  N_36
    8  A    between atoms: C_21  and  C_25
    9  A    between atoms: C_21  and  C_29
   10  A    between atoms: C_25  and  C_31
   11  A    between atoms: C_31  and  C_39
                            x       y       z     vdW  Elec       q    Type
                         _______ _______ _______ _____ _____    ______ ____

>  <TORSDO>
F 11

$$$$
=
 OpenBabel11042413063D

 40 47  0  0  1  0  0  0  0  0999 V2000
  182.8070  179.1410  143.9670 C   0  0  0  0  0  2  0  0  0  0  0  0
  183.7640  178.5980  143.2330 C   0  0  2  0  0  3  0  0  0  0  0  0
  183.1690  178.0760  138.9290 C   0  0  2  0  0  3  0  0  0  0  0  0
  179.9330  179.8240  139.1860 N   0  0  0  0  0  0  0  0  0  0  0  0
  180.9580  179.3570  138.4430 C   0  0  0  0  0  3  0  0  0  0  0  0
  181.9200  178.8500  139.3010 C   0  0  0  0  0  0  0  0  0  0  0  0
  185.2190  178.9480  143.1890 C   0  0  2  0  0  3  0  0  0  0  0  0
  184.3320  178.4580  139.7340 N   0  0  0  0  0  0  0  0  0  0  0  0
  181.5200  179.0270  143.1910 C   0  0  0  0  0  2  0  0  0  0  0  0
  182.0160  178.6270  141.8300 C   0  0  2  0  0  3  0  0  0  0  0  0
  183.2820  178.2850  141.9430 C   0  0  1  0  0  3  0  0  0  0  0  0
  184.3880  178.4640  141.0320 C   0  0  0  0  0  0  0  0  0  0  0  0
  185.5590  178.8350  141.7610 N   0  0  0  0  0  2  0  0  0  0  0  0
  180.1890  179.6150  140.4690 N   0  0  0  0  0  2  0  0  0  0  0  0
  181.3850  179.0120  140.5630 C   0  0  0  0  0  0  0  0  0  0  0  0
  183.8400  176.9900  136.7400 C   0  0  1  0  0  0  0  0  0  0  0  0
  182.5750  177.6020  136.6350 O   0  0  0  0  0  0  0  0  0  0  0  0
  183.5270  178.2600  137.4520 C   0  0  1  0  0  3  0  0  0  0  0  0
  183.8050  174.6090  137.9690 C   0  0  0  0  0  3  0  0  0  0  0  0
  183.8130  175.6810  137.4130 C   0  0  0  0  0  0  0  0  0  0  0  0
  184.6850  177.1410  135.5540 N   0  0  0  0  0  2  0  0  0  0  0  0
  186.0210  176.5910  135.7880 C   0  0  0  0  0  2  0  0  0  0  0  0
  187.2410  178.6280  136.0690 O   0  0  0  0  0  0  0  0  0  0  0  0
  186.8550  177.5440  136.5840 C   0  0  0  0  0  0  0  0  0  0  0  0
  187.1970  177.2380  137.8960 O   0  0  0  0  0  1  0  0  0  0  0  0
  186.0330  177.9550  144.0010 C   0  0  0  0  0  2  0  0  0  0  0  0
  185.7860  178.1860  145.4830 C   0  0  0  0  0  2  0  0  0  0  0  0
  187.1000  178.2550  146.2390 C   0  0  1  0  0  3  0  0  0  0  0  0
  186.9250  177.7930  147.5430 O   0  0  0  0  0  1  0  0  0  0  0  0
  188.1190  177.3880  145.5250 C   0  0  0  0  0  2  0  0  0  0  0  0
  190.1780  177.1540  143.0030 C   0  0  2  0  0  3  0  0  0  0  0  0
  190.4100  178.4710  144.9750 C   0  0  2  0  0  3  0  0  0  0  0  0
  189.8790  178.5240  143.5640 C   0  0  0  0  0  2  0  0  0  0  0  0
  189.0920  176.7530  142.0320 C   0  0  0  0  0  1  0  0  0  0  0  0
  190.6130  176.9900  145.2040 C   0  0  1  0  0  0  0  0  0  0  0  0
  189.5360  177.7160  146.0010 C   0  0  2  0  0  3  0  0  0  0  0  0
  190.2180  176.2430  144.0690 O   0  0  0  0  0  0  0  0  0  0  0  0
  191.9520  176.6890  145.8730 C   0  0  0  0  0  3  0  0  0  0  0  0
  192.0140  175.2530  146.3690 C   0  0  0  0  0  2  0  0  0  0  0  0
  191.7370  176.3770  147.3440 C   0  0  0  0  0  2  0  0  0  0  0  0
  2  1  1  6  0  0  0
  3  6  1  1  0  0  0
  3  8  1  0  0  0  0
  4 14  1  0  0  0  0
  5  4  2  0  0  0  0
  5  6  1  0  0  0  0
  6 15  2  0  0  0  0
  7  2  1  0  0  0  0
  7 26  1  1  0  0  0
  8 12  2  0  0  0  0
  9  1  1  0  0  0  0
 10 11  1  0  0  0  0
 10  9  1  1  0  0  0
 11 12  1  6  0  0  0
 11  2  1  0  0  0  0
 12 13  1  0  0  0  0
 13  7  1  0  0  0  0
 14 15  1  0  0  0  0
 15 10  1  0  0  0  0
 16 20  1  1  0  0  0
 16 18  1  0  0  0  0
 17 16  1  0  0  0  0
 18 17  1  6  0  0  0
 18  3  1  0  0  0  0
 20 19  3  0  0  0  0
 21 22  1  0  0  0  0
 21 16  1  0  0  0  0
 22 24  1  0  0  0  0
 23 24  2  0  0  0  0
 24 25  1  0  0  0  0
 26 27  1  0  0  0  0
 27 28  1  0  0  0  0
 28 29  1  1  0  0  0
 30 28  1  0  0  0  0
 31 34  1  6  0  0  0
 31 33  1  0  0  0  0
 31 37  1  0  0  0  0
 32 33  1  6  0  0  0
 32 35  1  0  0  0  0
 32 36  1  0  0  0  0
 35 38  1  1  0  0  0
 35 36  1  0  0  0  0
 36 30  1  6  0  0  0
 37 35  1  0  0  0  0
 38 39  1  0  0  0  0
 38 40  1  0  0  0  0
 39 40  1  0  0  0  0
M  END
>  <MODEL>
6

>  <REMARK>
 VINA RESULT:      -8.6      3.241      8.605
  Name = 
  11 active torsions:
  status: ('A' for Active; 'I' for Inactive)
    1  A    between atoms: C_2  and  C_20
    2  A    between atoms: C_5  and  C_27
    3  A    between atoms: C_11  and  N_36
    4  A    between atoms: C_11  and  C_40
    5  A    between atoms: C_16  and  C_39
    6  A    between atoms: C_17  and  C_22
    7  A    between atoms: C_17  and  N_36
    8  A    between atoms: C_21  and  C_25
    9  A    between atoms: C_21  and  C_29
   10  A    between atoms: C_25  and  C_31
   11  A    between atoms: C_31  and  C_39
                            x       y       z     vdW  Elec       q    Type
                         _______ _______ _______ _____ _____    ______ ____

>  <TORSDO>
F 11

$$$$
=
 OpenBabel11042413063D

 40 47  0  0  1  0  0  0  0  0999 V2000
  184.7580  179.3030  144.1550 C   0  0  0  0  0  2  0  0  0  0  0  0
  184.9150  178.8790  142.9120 C   0  0  2  0  0  3  0  0  0  0  0  0
  181.4270  178.4670  140.3010 C   0  0  2  0  0  3  0  0  0  0  0  0
  179.3010  179.8980  142.9510 N   0  0  0  0  0  0  0  0  0  0  0  0
  179.4950  179.5560  141.6610 C   0  0  0  0  0  3  0  0  0  0  0  0
  180.7990  179.1080  141.5230 C   0  0  0  0  0  0  0  0  0  0  0  0
  185.8800  179.3640  141.8750 C   0  0  2  0  0  3  0  0  0  0  0  0
  182.7990  178.9240  140.0660 N   0  0  0  0  0  0  0  0  0  0  0  0
  183.3110  179.1000  144.5240 C   0  0  0  0  0  2  0  0  0  0  0  0
  182.6920  178.8000  143.1890 C   0  0  2  0  0  3  0  0  0  0  0  0
  183.6650  178.5720  142.3310 C   0  0  1  0  0  3  0  0  0  0  0  0
  183.7710  178.8860  140.9270 C   0  0  0  0  0  0  0  0  0  0  0  0
  185.0930  179.3360  140.6310 N   0  0  0  0  0  2  0  0  0  0  0  0
  180.4080  179.6660  143.6400 N   0  0  0  0  0  2  0  0  0  0  0  0
  181.3290  179.1720  142.7950 C   0  0  0  0  0  0  0  0  0  0  0  0
  180.0920  177.5100  138.3710 C   0  0  1  0  0  0  0  0  0  0  0  0
  179.2750  178.2890  139.2160 O   0  0  0  0  0  0  0  0  0  0  0  0
  180.6070  178.7390  139.0380 C   0  0  1  0  0  3  0  0  0  0  0  0
  180.5900  175.0460  139.2990 C   0  0  0  0  0  3  0  0  0  0  0  0
  180.3640  176.1590  138.8890 C   0  0  0  0  0  0  0  0  0  0  0  0
  179.8020  177.6600  136.9450 N   0  0  0  0  0  2  0  0  0  0  0  0
  180.5610  176.6910  136.1510 C   0  0  0  0  0  2  0  0  0  0  0  0
  182.4750  176.6840  134.7190 O   0  0  0  0  0  0  0  0  0  0  0  0
  181.6820  177.3630  135.4250 C   0  0  0  0  0  0  0  0  0  0  0  0
  181.8460  178.7400  135.5220 O   0  0  0  0  0  1  0  0  0  0  0  0
  187.0660  178.4200  141.7660 C   0  0  0  0  0  2  0  0  0  0  0  0
  187.1090  177.5130  142.9850 C   0  0  0  0  0  2  0  0  0  0  0  0
  188.2270  176.4950  142.8550 C   0  0  1  0  0  3  0  0  0  0  0  0
  189.0910  176.8650  141.8250 O   0  0  0  0  0  1  0  0  0  0  0  0
  188.9890  176.4390  144.1640 C   0  0  0  0  0  2  0  0  0  0  0  0
  191.3950  176.7620  146.3450 C   0  0  2  0  0  3  0  0  0  0  0  0
  190.0480  178.4720  145.3770 C   0  0  2  0  0  3  0  0  0  0  0  0
  191.3440  177.7240  145.1820 C   0  0  0  0  0  2  0  0  0  0  0  0
  192.0810  175.4840  145.9200 C   0  0  0  0  0  1  0  0  0  0  0  0
  189.3170  177.6220  146.3930 C   0  0  1  0  0  0  0  0  0  0  0  0
  188.7610  177.7140  144.9780 C   0  0  2  0  0  3  0  0  0  0  0  0
  190.0790  176.4830  146.7420 O   0  0  0  0  0  0  0  0  0  0  0  0
  188.6800  178.4660  147.4950 C   0  0  0  0  0  3  0  0  0  0  0  0
  188.0290  177.5920  148.5560 C   0  0  0  0  0  2  0  0  0  0  0  0
  187.1750  178.2590  147.4990 C   0  0  0  0  0  2  0  0  0  0  0  0
  1  9  1  0  0  0  0
  2  1  1  1  0  0  0
  3  8  1  6  0  0  0
  3  6  1  0  0  0  0
  4 14  1  0  0  0  0
  5  4  2  0  0  0  0
  6  5  1  0  0  0  0
  6 15  2  0  0  0  0
  7 26  1  6  0  0  0
  7  2  1  0  0  0  0
  8 12  2  0  0  0  0
 10  9  1  1  0  0  0
 11 12  1  6  0  0  0
 11  2  1  0  0  0  0
 11 10  1  0  0  0  0
 13 12  1  0  0  0  0
 13  7  1  0  0  0  0
 15 10  1  0  0  0  0
 15 14  1  0  0  0  0
 16 20  1  1  0  0  0
 16 18  1  0  0  0  0
 16 17  1  0  0  0  0
 18 17  1  1  0  0  0
 18  3  1  0  0  0  0
 20 19  3  0  0  0  0
 21 16  1  0  0  0  0
 22 21  1  0  0  0  0
 23 24  2  0  0  0  0
 24 25  1  0  0  0  0
 24 22  1  0  0  0  0
 26 27  1  0  0  0  0
 28 29  1  6  0  0  0
 28 27  1  0  0  0  0
 28 30  1  0  0  0  0
 31 34  1  6  0  0  0
 31 37  1  0  0  0  0
 32 33  1  6  0  0  0
 32 35  1  0  0  0  0
 33 31  1  0  0  0  0
 35 37  1  0  0  0  0
 35 38  1  1  0  0  0
 36 30  1  6  0  0  0
 36 32  1  0  0  0  0
 36 35  1  0  0  0  0
 38 40  1  0  0  0  0
 38 39  1  0  0  0  0
 40 39  1  0  0  0  0
M  END
>  <MODEL>
7

>  <REMARK>
 VINA RESULT:      -8.5      3.554      9.294
  Name = 
  11 active torsions:
  status: ('A' for Active; 'I' for Inactive)
    1  A    between atoms: C_2  and  C_20
    2  A    between atoms: C_5  and  C_27
    3  A    between atoms: C_11  and  N_36
    4  A    between atoms: C_11  and  C_40
    5  A    between atoms: C_16  and  C_39
    6  A    between atoms: C_17  and  C_22
    7  A    between atoms: C_17  and  N_36
    8  A    between atoms: C_21  and  C_25
    9  A    between atoms: C_21  and  C_29
   10  A    between atoms: C_25  and  C_31
   11  A    between atoms: C_31  and  C_39
                            x       y       z     vdW  Elec       q    Type
                         _______ _______ _______ _____ _____    ______ ____

>  <TORSDO>
F 11

$$$$
=
 OpenBabel11042413063D

 40 47  0  0  1  0  0  0  0  0999 V2000
  189.0270  177.5080  143.6900 C   0  0  0  0  0  2  0  0  0  0  0  0
  188.3740  177.6250  142.5460 C   0  0  2  0  0  3  0  0  0  0  0  0
  184.0830  178.4860  142.5750 C   0  0  2  0  0  3  0  0  0  0  0  0
  184.1920  178.7990  146.2470 N   0  0  0  0  0  0  0  0  0  0  0  0
  183.5660  179.0090  145.0710 C   0  0  0  0  0  3  0  0  0  0  0  0
  184.4090  178.5970  144.0510 C   0  0  0  0  0  0  0  0  0  0  0  0
  188.7310  178.4480  141.3470 C   0  0  2  0  0  3  0  0  0  0  0  0
  185.1820  178.9340  141.7180 N   0  0  0  0  0  0  0  0  0  0  0  0
  188.0100  177.2400  144.7690 C   0  0  0  0  0  2  0  0  0  0  0  0
  186.7210  177.5430  144.0590 C   0  0  2  0  0  3  0  0  0  0  0  0
  186.9790  177.6430  142.7710 C   0  0  1  0  0  3  0  0  0  0  0  0
  186.4060  178.5010  141.7620 C   0  0  0  0  0  0  0  0  0  0  0  0
  187.4330  178.9710  140.8880 N   0  0  0  0  0  2  0  0  0  0  0  0
  185.3780  178.2530  146.0230 N   0  0  0  0  0  2  0  0  0  0  0  0
  185.5270  178.1070  144.6960 C   0  0  0  0  0  0  0  0  0  0  0  0
  182.0330  178.7040  141.1010 C   0  0  1  0  0  0  0  0  0  0  0  0
  181.6700  178.5160  142.4500 O   0  0  0  0  0  0  0  0  0  0  0  0
  182.8320  179.2900  142.2130 C   0  0  1  0  0  3  0  0  0  0  0  0
  182.7470  176.4510  139.8390 C   0  0  0  0  0  3  0  0  0  0  0  0
  182.4290  177.4630  140.4150 C   0  0  0  0  0  0  0  0  0  0  0  0
  181.1930  179.6590  140.3770 N   0  0  0  0  0  2  0  0  0  0  0  0
  181.5540  179.7020  138.9580 C   0  0  0  0  0  2  0  0  0  0  0  0
  182.3500  181.8940  138.4300 O   0  0  0  0  0  0  0  0  0  0  0  0
  182.6400  180.7020  138.7180 C   0  0  0  0  0  0  0  0  0  0  0  0
  183.9720  180.3170  138.8210 O   0  0  0  0  0  1  0  0  0  0  0  0
  189.3560  177.5780  140.2690 C   0  0  0  0  0  2  0  0  0  0  0  0
  189.2990  178.3030  138.9340 C   0  0  0  0  0  2  0  0  0  0  0  0
  188.1130  177.8250  138.1170 C   0  0  1  0  0  3  0  0  0  0  0  0
  187.6370  178.8610  137.3150 O   0  0  0  0  0  1  0  0  0  0  0  0
  188.5570  176.6670  137.2440 C   0  0  0  0  0  2  0  0  0  0  0  0
  189.9460  173.8250  136.4420 C   0  0  2  0  0  3  0  0  0  0  0  0
  190.3670  175.9800  135.5180 C   0  0  2  0  0  3  0  0  0  0  0  0
  189.5110  174.7520  135.3320 C   0  0  0  0  0  2  0  0  0  0  0  0
  188.7670  173.0070  136.9160 C   0  0  0  0  0  1  0  0  0  0  0  0
  190.9250  175.7950  136.9110 C   0  0  1  0  0  0  0  0  0  0  0  0
  189.9460  176.9340  136.6590 C   0  0  2  0  0  3  0  0  0  0  0  0
  190.4340  174.6060  137.5000 O   0  0  0  0  0  0  0  0  0  0  0  0
  192.4190  176.1050  136.9780 C   0  0  0  0  0  3  0  0  0  0  0  0
  193.2510  174.9350  136.4770 C   0  0  0  0  0  2  0  0  0  0  0  0
  193.0980  175.1700  137.9640 C   0  0  0  0  0  2  0  0  0  0  0  0
  1  9  1  0  0  0  0
  2 11  1  0  0  0  0
  2  1  1  1  0  0  0
  3  8  1  6  0  0  0
  3  6  1  0  0  0  0
  5  4  2  0  0  0  0
  6 15  2  0  0  0  0
  6  5  1  0  0  0  0
  7 26  1  6  0  0  0
  7  2  1  0  0  0  0
  8 12  2  0  0  0  0
 10 15  1  0  0  0  0
 10  9  1  1  0  0  0
 11 12  1  1  0  0  0
 11 10  1  0  0  0  0
 13  7  1  0  0  0  0
 13 12  1  0  0  0  0
 14  4  1  0  0  0  0
 15 14  1  0  0  0  0
 16 20  1  6  0  0  0
 16 18  1  0  0  0  0
 16 17  1  0  0  0  0
 18 17  1  1  0  0  0
 18  3  1  0  0  0  0
 19 20  3  0  0  0  0
 21 16  1  0  0  0  0
 22 21  1  0  0  0  0
 23 24  2  0  0  0  0
 24 25  1  0  0  0  0
 24 22  1  0  0  0  0
 27 26  1  0  0  0  0
 28 29  1  6  0  0  0
 28 27  1  0  0  0  0
 30 28  1  0  0  0  0
 31 34  1  1  0  0  0
 31 37  1  0  0  0  0
 32 33  1  1  0  0  0
 32 36  1  0  0  0  0
 32 35  1  0  0  0  0
 33 31  1  0  0  0  0
 35 38  1  1  0  0  0
 35 37  1  0  0  0  0
 36 35  1  0  0  0  0
 36 30  1  1  0  0  0
 38 40  1  0  0  0  0
 39 38  1  0  0  0  0
 39 40  1  0  0  0  0
M  END
>  <MODEL>
8

>  <REMARK>
 VINA RESULT:      -8.5      2.665      8.228
  Name = 
  11 active torsions:
  status: ('A' for Active; 'I' for Inactive)
    1  A    between atoms: C_2  and  C_20
    2  A    between atoms: C_5  and  C_27
    3  A    between atoms: C_11  and  N_36
    4  A    between atoms: C_11  and  C_40
    5  A    between atoms: C_16  and  C_39
    6  A    between atoms: C_17  and  C_22
    7  A    between atoms: C_17  and  N_36
    8  A    between atoms: C_21  and  C_25
    9  A    between atoms: C_21  and  C_29
   10  A    between atoms: C_25  and  C_31
   11  A    between atoms: C_31  and  C_39
                            x       y       z     vdW  Elec       q    Type
                         _______ _______ _______ _____ _____    ______ ____

>  <TORSDO>
F 11

$$$$
=
 OpenBabel11042413063D

 40 47  0  0  1  0  0  0  0  0999 V2000
  182.0450  179.2130  144.3530 C   0  0  0  0  0  2  0  0  0  0  0  0
  183.1800  178.7520  143.8530 C   0  0  2  0  0  3  0  0  0  0  0  0
  183.6180  178.2940  139.5230 C   0  0  2  0  0  3  0  0  0  0  0  0
  180.2930  179.8150  139.0470 N   0  0  0  0  0  0  0  0  0  0  0  0
  181.4900  179.4350  138.5540 C   0  0  0  0  0  3  0  0  0  0  0  0
  182.2650  178.9740  139.6060 C   0  0  0  0  0  0  0  0  0  0  0  0
  184.5790  179.2000  144.1460 C   0  0  2  0  0  3  0  0  0  0  0  0
  184.5370  178.7330  140.5750 N   0  0  0  0  0  0  0  0  0  0  0  0
  180.9800  179.0320  143.3020 C   0  0  0  0  0  2  0  0  0  0  0  0
  181.7990  178.6980  142.0880 C   0  0  2  0  0  3  0  0  0  0  0  0
  183.0270  178.4390  142.4840 C   0  0  1  0  0  3  0  0  0  0  0  0
  184.2960  178.7120  141.8520 C   0  0  0  0  0  0  0  0  0  0  0  0
  185.2410  179.1440  142.8320 N   0  0  0  0  0  2  0  0  0  0  0  0
  180.2650  179.5940  140.3530 N   0  0  0  0  0  2  0  0  0  0  0  0
  181.4480  179.0690  140.7130 C   0  0  0  0  0  0  0  0  0  0  0  0
  184.4340  177.3100  137.3350 C   0  0  1  0  0  0  0  0  0  0  0  0
  183.3880  178.2300  137.1180 O   0  0  0  0  0  0  0  0  0  0  0  0
  184.2880  178.5360  138.1680 C   0  0  1  0  0  3  0  0  0  0  0  0
  183.6110  174.8950  138.1540 C   0  0  0  0  0  3  0  0  0  0  0  0
  183.9770  175.9870  137.7910 C   0  0  0  0  0  0  0  0  0  0  0  0
  185.5050  177.3670  136.3380 N   0  0  0  0  0  2  0  0  0  0  0  0
  186.7350  176.7670  136.8570 C   0  0  0  0  0  2  0  0  0  0  0  0
  187.5800  178.9690  137.2480 O   0  0  0  0  0  1  0  0  0  0  0  0
  187.8340  177.7790  136.9200 C   0  0  0  0  0  0  0  0  0  0  0  0
  189.1400  177.4040  136.6240 O   0  0  0  0  0  0  0  0  0  0  0  0
  185.2540  178.2450  145.1150 C   0  0  0  0  0  2  0  0  0  0  0  0
  186.5920  177.8040  144.5450 C   0  0  0  0  0  2  0  0  0  0  0  0
  187.6910  177.9600  145.5800 C   0  0  1  0  0  3  0  0  0  0  0  0
  187.2340  177.5410  146.8280 O   0  0  0  0  0  1  0  0  0  0  0  0
  188.8780  177.1140  145.1610 C   0  0  0  0  0  2  0  0  0  0  0  0
  191.3090  177.9760  143.1620 C   0  0  2  0  0  3  0  0  0  0  0  0
  189.9180  176.0450  143.0390 C   0  0  2  0  0  3  0  0  0  0  0  0
  191.2240  176.5370  143.6130 C   0  0  0  0  0  2  0  0  0  0  0  0
  192.0110  178.8000  144.2170 C   0  0  0  0  0  1  0  0  0  0  0  0
  189.2180  177.3280  142.6480 C   0  0  1  0  0  0  0  0  0  0  0  0
  188.6390  176.4920  143.7830 C   0  0  2  0  0  3  0  0  0  0  0  0
  190.0040  178.4560  142.9780 O   0  0  0  0  0  0  0  0  0  0  0  0
  188.5810  177.2350  141.2630 C   0  0  0  0  0  3  0  0  0  0  0  0
  189.4820  177.8370  140.1960 C   0  0  0  0  0  2  0  0  0  0  0  0
  188.3050  178.6280  140.7250 C   0  0  0  0  0  2  0  0  0  0  0  0
  2  7  1  0  0  0  0
  2  1  1  6  0  0  0
  3  6  1  6  0  0  0
  3  8  1  0  0  0  0
  4 14  1  0  0  0  0
  5  4  2  0  0  0  0
  5  6  1  0  0  0  0
  6 15  2  0  0  0  0
  7 26  1  1  0  0  0
  8 12  2  0  0  0  0
  9  1  1  0  0  0  0
 10 11  1  0  0  0  0
 10  9  1  1  0  0  0
 11 12  1  6  0  0  0
 11  2  1  0  0  0  0
 12 13  1  0  0  0  0
 13  7  1  0  0  0  0
 14 15  1  0  0  0  0
 15 10  1  0  0  0  0
 16 20  1  1  0  0  0
 16 18  1  0  0  0  0
 17 16  1  0  0  0  0
 18 17  1  6  0  0  0
 18  3  1  0  0  0  0
 20 19  3  0  0  0  0
 21 22  1  0  0  0  0
 21 16  1  0  0  0  0
 22 24  1  0  0  0  0
 24 23  1  0  0  0  0
 25 24  2  0  0  0  0
 27 26  1  0  0  0  0
 27 28  1  0  0  0  0
 28 29  1  1  0  0  0
 30 28  1  0  0  0  0
 31 33  1  0  0  0  0
 31 34  1  1  0  0  0
 32 33  1  1  0  0  0
 32 36  1  0  0  0  0
 35 38  1  6  0  0  0
 35 37  1  0  0  0  0
 35 32  1  0  0  0  0
 35 36  1  0  0  0  0
 36 30  1  1  0  0  0
 37 31  1  0  0  0  0
 39 40  1  0  0  0  0
 39 38  1  0  0  0  0
 40 38  1  0  0  0  0
M  END
>  <MODEL>
9

>  <REMARK>
 VINA RESULT:      -8.5      3.020      7.792
  Name = 
  11 active torsions:
  status: ('A' for Active; 'I' for Inactive)
    1  A    between atoms: C_2  and  C_20
    2  A    between atoms: C_5  and  C_27
    3  A    between atoms: C_11  and  N_36
    4  A    between atoms: C_11  and  C_40
    5  A    between atoms: C_16  and  C_39
    6  A    between atoms: C_17  and  C_22
    7  A    between atoms: C_17  and  N_36
    8  A    between atoms: C_21  and  C_25
    9  A    between atoms: C_21  and  C_29
   10  A    between atoms: C_25  and  C_31
   11  A    between atoms: C_31  and  C_39
                            x       y       z     vdW  Elec       q    Type
                         _______ _______ _______ _____ _____    ______ ____

>  <TORSDO>
F 11

$$$$
