=
 OpenBabel11032419103D

 42 47  0  0  1  0  0  0  0  0999 V2000
  182.5410  178.4100  140.8810 C   0  0  2  0  0  3  0  0  0  0  0  0
  182.0180  176.2490  139.6030 C   0  0  0  0  0  0  0  0  0  0  0  0
  180.9860  176.0130  140.2880 O   0  0  0  0  0  0  0  0  0  0  0  0
  181.2140  174.6740  137.8230 C   0  0  0  0  0  1  0  0  0  0  0  0
  184.1990  176.9530  137.8950 C   0  0  0  0  0  0  0  0  0  0  0  0
  183.5320  175.6110  137.7070 C   0  0  0  0  0  2  0  0  0  0  0  0
  182.2240  175.5730  138.3550 N   0  0  0  0  0  0  0  0  0  0  0  0
  183.9790  177.6670  139.0090 C   0  0  0  0  0  3  0  0  0  0  0  0
  183.0830  177.1890  140.1200 C   0  0  1  0  0  3  0  0  0  0  0  0
  185.1490  177.5210  136.8750 C   0  0  0  0  0  2  0  0  0  0  0  0
  186.3560  178.2330  137.4750 C   0  0  0  0  0  2  0  0  0  0  0  0
  187.4230  177.2820  137.7390 N   0  0  0  0  0  2  0  0  0  0  0  0
  188.4620  177.9880  138.4750 C   0  0  0  0  0  2  0  0  0  0  0  0
  188.8670  177.2200  139.7340 C   0  0  2  0  0  3  0  0  0  0  0  0
  188.5600  177.2270  142.2410 N   0  0  0  0  0  0  0  0  0  0  0  0
  188.4120  177.1640  143.6950 N   0  0  0  0  0  2  0  0  0  0  0  0
  188.8930  176.0770  143.0620 C   0  0  0  0  0  2  0  0  0  0  0  0
  188.4540  177.9110  140.9970 C   0  0  0  0  0  0  0  0  0  0  0  0
  188.0130  179.0910  140.9720 O   0  0  0  0  0  0  0  0  0  0  0  0
  190.3160  176.8460  139.7390 C   0  0  0  0  0  0  0  0  0  0  0  0
  191.1410  177.5570  140.3700 O   0  0  0  0  0  1  0  0  0  0  0  0
  190.7620  175.7230  139.0530 O   0  0  0  0  0  0  0  0  0  0  0  0
  183.1670  178.5520  142.2330 C   0  0  0  0  0  0  0  0  0  0  0  0
  185.1130  178.5700  143.6850 C   0  0  0  0  0  3  0  0  0  0  0  0
  182.9140  178.9970  144.6050 C   0  0  0  0  0  3  0  0  0  0  0  0
  184.8650  179.0140  146.0730 N   0  0  0  0  0  1  0  0  0  0  0  0
  184.5520  178.4190  142.4140 C   0  0  0  0  0  3  0  0  0  0  0  0
  184.2940  178.8590  144.7810 C   0  0  0  0  0  0  0  0  0  0  0  0
  182.3520  178.8450  143.3330 C   0  0  0  0  0  3  0  0  0  0  0  0
  181.1390  178.4060  140.9640 O   0  0  0  0  0  0  0  0  0  0  0  0
  179.6250  180.2740  141.1720 C   0  0  0  0  0  2  0  0  0  0  0  0
  180.7300  179.6090  140.3820 C   0  0  1  0  0  0  0  0  0  0  0  0
  180.3630  179.4310  138.9200 C   0  0  1  0  0  3  0  0  0  0  0  0
  179.2720  179.4270  139.9710 C   0  0  2  0  0  3  0  0  0  0  0  0
  181.7140  181.4370  138.4700 C   0  0  0  0  0  3  0  0  0  0  0  0
  180.2220  180.5570  136.7310 C   0  0  0  0  0  3  0  0  0  0  0  0
  181.2860  184.9230  137.1700 C   0  0  0  0  0  1  0  0  0  0  0  0
  180.1780  181.5320  135.8750 N   0  0  0  0  0  0  0  0  0  0  0  0
  182.0130  182.6480  138.0030 C   0  0  0  0  0  3  0  0  0  0  0  0
  180.3700  182.9320  136.1460 C   0  0  0  0  0  3  0  0  0  0  0  0
  180.4090  180.7690  138.1980 C   0  0  1  0  0  3  0  0  0  0  0  0
  181.1520  183.4450  137.1080 C   0  0  0  0  0  0  0  0  0  0  0  0
  1 30  1  1  0  0  0
  1 23  1  0  0  0  0
  2  9  1  0  0  0  0
  2  3  2  0  0  0  0
  4  7  1  0  0  0  0
  5  8  2  0  0  0  0
  6  5  1  0  0  0  0
  6  7  1  0  0  0  0
  7  2  1  0  0  0  0
  8  9  1  0  0  0  0
  9  1  1  6  0  0  0
 10 11  1  0  0  0  0
 10  5  1  0  0  0  0
 11 12  1  0  0  0  0
 12 13  1  0  0  0  0
 14 13  1  6  0  0  0
 14 20  1  0  0  0  0
 14 18  1  0  0  0  0
 15 17  1  0  0  0  0
 15 16  1  0  0  0  0
 17 16  1  0  0  0  0
 18 15  1  0  0  0  0
 19 18  2  0  0  0  0
 20 21  1  0  0  0  0
 22 20  2  0  0  0  0
 23 27  2  0  0  0  0
 23 29  1  0  0  0  0
 24 28  2  0  0  0  0
 25 28  1  0  0  0  0
 27 24  1  0  0  0  0
 28 26  1  0  0  0  0
 29 25  2  0  0  0  0
 32 30  1  1  0  0  0
 32 31  1  0  0  0  0
 33 41  1  6  0  0  0
 33 34  1  0  0  0  0
 33 32  1  0  0  0  0
 34 32  1  0  0  0  0
 34 31  1  6  0  0  0
 38 40  1  0  0  0  0
 38 36  2  0  0  0  0
 39 35  2  0  0  0  0
 40 42  2  0  0  0  0
 41 36  1  6  0  0  0
 41 35  1  0  0  0  0
 42 37  1  0  0  0  0
 42 39  1  0  0  0  0
M  END
>  <MODEL>
1

>  <REMARK>
 VINA RESULT:      -7.8      0.000      0.000
  Name = 
  12 active torsions:
  status: ('A' for Active; 'I' for Inactive)
    1  A    between atoms: C_3  and  C_8
    2  A    between atoms: C_6  and  C_32
    3  A    between atoms: C_8  and  O_11
    4  A    between atoms: C_8  and  C_39
    5  A    between atoms: O_11  and  C_12
    6  A    between atoms: N_19  and  C_27
    7  A    between atoms: N_19  and  C_29
    8  A    between atoms: C_20  and  C_41
    9  A    between atoms: C_24  and  C_38
   10  A    between atoms: C_27  and  C_32
   11  A    between atoms: C_29  and  C_38
   12  A    between atoms: C_32  and  C_35
                            x       y       z     vdW  Elec       q    Type
                         _______ _______ _______ _____ _____    ______ ____

>  <TORSDO>
F 12

$$$$
=
 OpenBabel11032419103D

 42 47  0  0  1  0  0  0  0  0999 V2000
  187.8560  176.7140  137.6610 C   0  0  2  0  0  3  0  0  0  0  0  0
  187.0400  178.2990  139.5040 C   0  0  0  0  0  0  0  0  0  0  0  0
  185.9820  178.5890  138.8800 O   0  0  0  0  0  0  0  0  0  0  0  0
  186.0280  179.1410  141.6400 C   0  0  0  0  0  1  0  0  0  0  0  0
  189.3030  177.4120  141.0080 C   0  0  0  0  0  0  0  0  0  0  0  0
  188.4550  178.5330  141.5630 C   0  0  0  0  0  2  0  0  0  0  0  0
  187.1530  178.5880  140.9040 N   0  0  0  0  0  0  0  0  0  0  0  0
  189.1820  177.0440  139.7250 C   0  0  0  0  0  3  0  0  0  0  0  0
  188.2250  177.7090  138.7720 C   0  0  1  0  0  3  0  0  0  0  0  0
  190.3260  176.6960  141.8490 C   0  0  0  0  0  2  0  0  0  0  0  0
  191.4910  177.5740  142.2940 C   0  0  0  0  0  2  0  0  0  0  0  0
  191.3340  177.9510  143.6890 N   0  0  0  0  0  2  0  0  0  0  0  0
  190.4710  176.9590  144.3130 C   0  0  0  0  0  2  0  0  0  0  0  0
  189.5740  177.5960  145.3750 C   0  0  2  0  0  3  0  0  0  0  0  0
  191.0580  176.3580  146.9990 N   0  0  0  0  0  0  0  0  0  0  0  0
  191.9660  175.6290  147.8850 N   0  0  0  0  0  2  0  0  0  0  0  0
  192.2850  175.7030  146.5790 C   0  0  0  0  0  2  0  0  0  0  0  0
  189.8810  177.1200  146.7610 C   0  0  0  0  0  0  0  0  0  0  0  0
  189.1090  177.3870  147.7200 O   0  0  0  0  0  0  0  0  0  0  0  0
  188.1180  177.4800  145.0430 C   0  0  0  0  0  0  0  0  0  0  0  0
  187.3010  178.3020  145.5320 O   0  0  0  0  0  1  0  0  0  0  0  0
  187.6600  176.4750  144.2010 O   0  0  0  0  0  0  0  0  0  0  0  0
  189.0600  176.0080  137.1180 C   0  0  0  0  0  0  0  0  0  0  0  0
  190.3730  173.9940  136.7810 C   0  0  0  0  0  3  0  0  0  0  0  0
  191.1300  176.1000  135.8570 C   0  0  0  0  0  3  0  0  0  0  0  0
  192.4590  174.0800  135.5150 N   0  0  0  0  0  1  0  0  0  0  0  0
  189.2470  174.6310  137.3100 C   0  0  0  0  0  3  0  0  0  0  0  0
  191.3150  174.7280  136.0540 C   0  0  0  0  0  0  0  0  0  0  0  0
  190.0040  176.7380  136.3860 C   0  0  0  0  0  3  0  0  0  0  0  0
  187.1080  177.3130  136.6350 O   0  0  0  0  0  0  0  0  0  0  0  0
  186.1020  176.3920  134.6440 C   0  0  0  0  0  2  0  0  0  0  0  0
  186.2760  176.3030  136.1440 C   0  0  1  0  0  0  0  0  0  0  0  0
  184.9470  176.2620  136.8750 C   0  0  1  0  0  3  0  0  0  0  0  0
  185.0500  176.9900  135.5500 C   0  0  2  0  0  3  0  0  0  0  0  0
  185.0410  173.8750  137.4610 C   0  0  0  0  0  3  0  0  0  0  0  0
  182.8670  174.9690  137.1520 C   0  0  0  0  0  3  0  0  0  0  0  0
  183.6380  170.6020  136.3020 C   0  0  0  0  0  1  0  0  0  0  0  0
  182.0510  173.9620  137.0750 N   0  0  0  0  0  0  0  0  0  0  0  0
  184.7150  172.5840  137.4470 C   0  0  0  0  0  3  0  0  0  0  0  0
  182.3600  172.6300  136.6270 C   0  0  0  0  0  3  0  0  0  0  0  0
  184.2860  174.9040  136.6920 C   0  0  1  0  0  3  0  0  0  0  0  0
  183.5460  172.0150  136.7510 C   0  0  0  0  0  0  0  0  0  0  0  0
  1 30  1  6  0  0  0
  2  7  1  0  0  0  0
  3  2  2  0  0  0  0
  5  6  1  0  0  0  0
  5 10  1  0  0  0  0
  7  6  1  0  0  0  0
  7  4  1  0  0  0  0
  8  5  2  0  0  0  0
  9  1  1  6  0  0  0
  9  2  1  0  0  0  0
  9  8  1  0  0  0  0
 10 11  1  0  0  0  0
 11 12  1  0  0  0  0
 12 13  1  0  0  0  0
 14 13  1  6  0  0  0
 14 18  1  0  0  0  0
 15 16  1  0  0  0  0
 17 15  1  0  0  0  0
 17 16  1  0  0  0  0
 18 15  1  0  0  0  0
 18 19  2  0  0  0  0
 20 14  1  0  0  0  0
 20 21  1  0  0  0  0
 22 20  2  0  0  0  0
 23 27  1  0  0  0  0
 23  1  1  0  0  0  0
 24 27  2  0  0  0  0
 25 28  2  0  0  0  0
 25 29  1  0  0  0  0
 26 28  1  0  0  0  0
 28 24  1  0  0  0  0
 29 23  2  0  0  0  0
 31 32  1  0  0  0  0
 32 30  1  1  0  0  0
 32 33  1  0  0  0  0
 33 41  1  6  0  0  0
 34 31  1  6  0  0  0
 34 32  1  0  0  0  0
 34 33  1  0  0  0  0
 37 42  1  0  0  0  0
 38 36  2  0  0  0  0
 39 35  2  0  0  0  0
 40 42  2  0  0  0  0
 40 38  1  0  0  0  0
 41 36  1  1  0  0  0
 41 35  1  0  0  0  0
 42 39  1  0  0  0  0
M  END
>  <MODEL>
2

>  <REMARK>
 VINA RESULT:      -7.6      4.529      8.127
  Name = 
  12 active torsions:
  status: ('A' for Active; 'I' for Inactive)
    1  A    between atoms: C_3  and  C_8
    2  A    between atoms: C_6  and  C_32
    3  A    between atoms: C_8  and  O_11
    4  A    between atoms: C_8  and  C_39
    5  A    between atoms: O_11  and  C_12
    6  A    between atoms: N_19  and  C_27
    7  A    between atoms: N_19  and  C_29
    8  A    between atoms: C_20  and  C_41
    9  A    between atoms: C_24  and  C_38
   10  A    between atoms: C_27  and  C_32
   11  A    between atoms: C_29  and  C_38
   12  A    between atoms: C_32  and  C_35
                            x       y       z     vdW  Elec       q    Type
                         _______ _______ _______ _____ _____    ______ ____

>  <TORSDO>
F 12

$$$$
=
 OpenBabel11032419103D

 42 47  0  0  1  0  0  0  0  0999 V2000
  188.2470  176.6260  137.7510 C   0  0  2  0  0  3  0  0  0  0  0  0
  187.3260  178.2210  139.5350 C   0  0  0  0  0  0  0  0  0  0  0  0
  186.3090  178.5120  138.8470 O   0  0  0  0  0  0  0  0  0  0  0  0
  186.1890  179.0770  141.6020 C   0  0  0  0  0  1  0  0  0  0  0  0
  189.4910  177.3340  141.1770 C   0  0  0  0  0  0  0  0  0  0  0  0
  188.6150  178.4610  141.6740 C   0  0  0  0  0  2  0  0  0  0  0  0
  187.3550  178.5170  140.9380 N   0  0  0  0  0  0  0  0  0  0  0  0
  189.4470  176.9610  139.8900 C   0  0  0  0  0  3  0  0  0  0  0  0
  188.5510  177.6250  138.8780 C   0  0  1  0  0  3  0  0  0  0  0  0
  190.4590  176.6190  142.0820 C   0  0  0  0  0  2  0  0  0  0  0  0
  189.9470  176.4120  143.5030 C   0  0  0  0  0  2  0  0  0  0  0  0
  190.6210  177.3170  144.4190 N   0  0  0  0  0  2  0  0  0  0  0  0
  189.5980  178.1300  145.0590 C   0  0  0  0  0  2  0  0  0  0  0  0
  188.5860  177.2600  145.8050 C   0  0  2  0  0  3  0  0  0  0  0  0
  186.3430  178.3680  146.1530 N   0  0  0  0  0  0  0  0  0  0  0  0
  185.0720  179.0440  146.4130 N   0  0  0  0  0  2  0  0  0  0  0  0
  186.0830  179.2460  147.2800 C   0  0  0  0  0  2  0  0  0  0  0  0
  187.1720  177.5110  145.3770 C   0  0  0  0  0  0  0  0  0  0  0  0
  186.7100  176.9720  144.3370 O   0  0  0  0  0  0  0  0  0  0  0  0
  188.7510  177.3310  147.2910 C   0  0  0  0  0  0  0  0  0  0  0  0
  189.4250  178.2640  147.7980 O   0  0  0  0  0  0  0  0  0  0  0  0
  188.1680  176.3770  148.1170 O   0  0  0  0  0  1  0  0  0  0  0  0
  189.4750  175.8940  137.3040 C   0  0  0  0  0  0  0  0  0  0  0  0
  190.7010  173.8350  136.9140 C   0  0  0  0  0  3  0  0  0  0  0  0
  191.7140  175.9680  136.3720 C   0  0  0  0  0  3  0  0  0  0  0  0
  192.9560  173.9020  135.9800 N   0  0  0  0  0  1  0  0  0  0  0  0
  189.5490  174.4940  137.3510 C   0  0  0  0  0  3  0  0  0  0  0  0
  191.7840  174.5720  136.4240 C   0  0  0  0  0  0  0  0  0  0  0  0
  190.5610  176.6270  136.8100 C   0  0  0  0  0  3  0  0  0  0  0  0
  187.5870  177.2280  136.6680 O   0  0  0  0  0  0  0  0  0  0  0  0
  186.8090  176.2190  134.6190 C   0  0  0  0  0  2  0  0  0  0  0  0
  186.7690  176.2300  136.1310 C   0  0  1  0  0  0  0  0  0  0  0  0
  185.3520  176.3130  136.6680 C   0  0  1  0  0  3  0  0  0  0  0  0
  185.6810  176.9370  135.3270 C   0  0  2  0  0  3  0  0  0  0  0  0
  185.1610  173.9950  137.4690 C   0  0  0  0  0  3  0  0  0  0  0  0
  183.1670  175.1720  136.6540 C   0  0  0  0  0  3  0  0  0  0  0  0
  183.7610  170.7060  136.3550 C   0  0  0  0  0  1  0  0  0  0  0  0
  182.3090  174.2080  136.5110 N   0  0  0  0  0  0  0  0  0  0  0  0
  184.7490  172.7290  137.5060 C   0  0  0  0  0  3  0  0  0  0  0  0
  182.5970  172.8230  136.2480 C   0  0  0  0  0  3  0  0  0  0  0  0
  184.6390  174.9830  136.4810 C   0  0  1  0  0  3  0  0  0  0  0  0
  183.6910  172.1590  136.6520 C   0  0  0  0  0  0  0  0  0  0  0  0
  1 30  1  6  0  0  0
  2  7  1  0  0  0  0
  3  2  2  0  0  0  0
  5  6  1  0  0  0  0
  5 10  1  0  0  0  0
  7  4  1  0  0  0  0
  7  6  1  0  0  0  0
  8  5  2  0  0  0  0
  9  1  1  6  0  0  0
  9  2  1  0  0  0  0
  9  8  1  0  0  0  0
 10 11  1  0  0  0  0
 11 12  1  0  0  0  0
 12 13  1  0  0  0  0
 14 13  1  6  0  0  0
 14 20  1  0  0  0  0
 15 16  1  0  0  0  0
 15 17  1  0  0  0  0
 16 17  1  0  0  0  0
 18 14  1  0  0  0  0
 18 15  1  0  0  0  0
 19 18  2  0  0  0  0
 20 21  2  0  0  0  0
 20 22  1  0  0  0  0
 23 27  1  0  0  0  0
 23  1  1  0  0  0  0
 24 27  2  0  0  0  0
 25 28  2  0  0  0  0
 25 29  1  0  0  0  0
 26 28  1  0  0  0  0
 28 24  1  0  0  0  0
 29 23  2  0  0  0  0
 31 32  1  0  0  0  0
 32 30  1  1  0  0  0
 32 33  1  0  0  0  0
 33 41  1  6  0  0  0
 34 31  1  6  0  0  0
 34 32  1  0  0  0  0
 34 33  1  0  0  0  0
 35 39  2  0  0  0  0
 37 42  1  0  0  0  0
 38 36  2  0  0  0  0
 40 38  1  0  0  0  0
 40 42  2  0  0  0  0
 41 36  1  1  0  0  0
 41 35  1  0  0  0  0
 42 39  1  0  0  0  0
M  END
>  <MODEL>
3

>  <REMARK>
 VINA RESULT:      -7.5      4.518      8.312
  Name = 
  12 active torsions:
  status: ('A' for Active; 'I' for Inactive)
    1  A    between atoms: C_3  and  C_8
    2  A    between atoms: C_6  and  C_32
    3  A    between atoms: C_8  and  O_11
    4  A    between atoms: C_8  and  C_39
    5  A    between atoms: O_11  and  C_12
    6  A    between atoms: N_19  and  C_27
    7  A    between atoms: N_19  and  C_29
    8  A    between atoms: C_20  and  C_41
    9  A    between atoms: C_24  and  C_38
   10  A    between atoms: C_27  and  C_32
   11  A    between atoms: C_29  and  C_38
   12  A    between atoms: C_32  and  C_35
                            x       y       z     vdW  Elec       q    Type
                         _______ _______ _______ _____ _____    ______ ____

>  <TORSDO>
F 12

$$$$
=
 OpenBabel11032419103D

 42 47  0  0  1  0  0  0  0  0999 V2000
  188.0340  176.7160  137.7530 C   0  0  2  0  0  3  0  0  0  0  0  0
  187.2140  178.2420  139.6440 C   0  0  0  0  0  0  0  0  0  0  0  0
  186.1310  178.5040  139.0530 O   0  0  0  0  0  0  0  0  0  0  0  0
  186.2320  179.0160  141.8200 C   0  0  0  0  0  1  0  0  0  0  0  0
  189.5470  177.4120  141.0720 C   0  0  0  0  0  0  0  0  0  0  0  0
  188.6760  178.4940  141.6670 C   0  0  0  0  0  2  0  0  0  0  0  0
  187.3550  178.5140  141.0450 N   0  0  0  0  0  0  0  0  0  0  0  0
  189.4040  177.0600  139.7860 C   0  0  0  0  0  3  0  0  0  0  0  0
  188.3980  177.7060  138.8710 C   0  0  1  0  0  3  0  0  0  0  0  0
  190.6170  176.7190  141.8740 C   0  0  0  0  0  2  0  0  0  0  0  0
  191.2470  177.5900  142.9550 C   0  0  0  0  0  2  0  0  0  0  0  0
  191.2390  176.8950  144.2310 N   0  0  0  0  0  2  0  0  0  0  0  0
  190.4890  177.7160  145.1690 C   0  0  0  0  0  2  0  0  0  0  0  0
  189.9260  176.8740  146.3150 C   0  0  2  0  0  3  0  0  0  0  0  0
  187.5590  177.7400  146.4760 N   0  0  0  0  0  0  0  0  0  0  0  0
  186.1750  178.2120  146.5030 N   0  0  0  0  0  2  0  0  0  0  0  0
  186.6050  177.5850  145.3920 C   0  0  0  0  0  2  0  0  0  0  0  0
  188.8400  177.5730  147.0730 C   0  0  0  0  0  0  0  0  0  0  0  0
  189.0460  178.0140  148.2350 O   0  0  0  0  0  0  0  0  0  0  0  0
  190.9950  176.3390  147.2150 C   0  0  0  0  0  0  0  0  0  0  0  0
  190.8950  175.1720  147.6750 O   0  0  0  0  0  1  0  0  0  0  0  0
  192.0970  177.1170  147.5500 O   0  0  0  0  0  0  0  0  0  0  0  0
  189.2390  176.0100  137.2150 C   0  0  0  0  0  0  0  0  0  0  0  0
  191.4270  176.0360  136.1610 C   0  0  0  0  0  3  0  0  0  0  0  0
  190.4280  173.9310  136.8220 C   0  0  0  0  0  3  0  0  0  0  0  0
  192.6270  173.9480  135.7600 N   0  0  0  0  0  1  0  0  0  0  0  0
  190.3070  176.7190  136.6440 C   0  0  0  0  0  3  0  0  0  0  0  0
  191.4880  174.6430  136.2500 C   0  0  0  0  0  0  0  0  0  0  0  0
  189.3070  174.6140  137.3040 C   0  0  0  0  0  3  0  0  0  0  0  0
  187.2920  177.3200  136.7260 O   0  0  0  0  0  0  0  0  0  0  0  0
  186.3050  176.3710  134.7380 C   0  0  0  0  0  2  0  0  0  0  0  0
  186.4430  176.3210  136.2440 C   0  0  1  0  0  0  0  0  0  0  0  0
  185.0970  176.3390  136.9450 C   0  0  1  0  0  3  0  0  0  0  0  0
  185.2510  177.0260  135.6030 C   0  0  2  0  0  3  0  0  0  0  0  0
  185.1770  173.9440  137.5000 C   0  0  0  0  0  3  0  0  0  0  0  0
  183.0100  175.0830  137.3230 C   0  0  0  0  0  3  0  0  0  0  0  0
  183.6490  170.7120  136.3880 C   0  0  0  0  0  1  0  0  0  0  0  0
  182.1720  174.0920  137.2810 N   0  0  0  0  0  0  0  0  0  0  0  0
  184.8260  172.6600  137.4910 C   0  0  0  0  0  3  0  0  0  0  0  0
  182.4300  172.7590  136.8030 C   0  0  0  0  0  3  0  0  0  0  0  0
  184.4000  174.9960  136.7850 C   0  0  1  0  0  3  0  0  0  0  0  0
  183.6090  172.1210  136.8560 C   0  0  0  0  0  0  0  0  0  0  0  0
  1 30  1  6  0  0  0
  2  7  1  0  0  0  0
  3  2  2  0  0  0  0
  5  6  1  0  0  0  0
  5 10  1  0  0  0  0
  7  6  1  0  0  0  0
  7  4  1  0  0  0  0
  8  5  2  0  0  0  0
  9  1  1  6  0  0  0
  9  2  1  0  0  0  0
  9  8  1  0  0  0  0
 10 11  1  0  0  0  0
 11 12  1  0  0  0  0
 12 13  1  0  0  0  0
 14 13  1  6  0  0  0
 14 18  1  0  0  0  0
 14 20  1  0  0  0  0
 15 16  1  0  0  0  0
 15 18  1  0  0  0  0
 17 15  1  0  0  0  0
 17 16  1  0  0  0  0
 18 19  2  0  0  0  0
 20 22  2  0  0  0  0
 20 21  1  0  0  0  0
 23 29  1  0  0  0  0
 23  1  1  0  0  0  0
 24 28  2  0  0  0  0
 24 27  1  0  0  0  0
 25 29  2  0  0  0  0
 26 28  1  0  0  0  0
 27 23  2  0  0  0  0
 28 25  1  0  0  0  0
 31 32  1  0  0  0  0
 32 30  1  1  0  0  0
 32 33  1  0  0  0  0
 33 41  1  6  0  0  0
 34 31  1  6  0  0  0
 34 32  1  0  0  0  0
 34 33  1  0  0  0  0
 37 42  1  0  0  0  0
 38 36  2  0  0  0  0
 39 35  2  0  0  0  0
 40 42  2  0  0  0  0
 40 38  1  0  0  0  0
 41 36  1  1  0  0  0
 41 35  1  0  0  0  0
 42 39  1  0  0  0  0
M  END
>  <MODEL>
4

>  <REMARK>
 VINA RESULT:      -7.4      4.470      8.258
  Name = 
  12 active torsions:
  status: ('A' for Active; 'I' for Inactive)
    1  A    between atoms: C_3  and  C_8
    2  A    between atoms: C_6  and  C_32
    3  A    between atoms: C_8  and  O_11
    4  A    between atoms: C_8  and  C_39
    5  A    between atoms: O_11  and  C_12
    6  A    between atoms: N_19  and  C_27
    7  A    between atoms: N_19  and  C_29
    8  A    between atoms: C_20  and  C_41
    9  A    between atoms: C_24  and  C_38
   10  A    between atoms: C_27  and  C_32
   11  A    between atoms: C_29  and  C_38
   12  A    between atoms: C_32  and  C_35
                            x       y       z     vdW  Elec       q    Type
                         _______ _______ _______ _____ _____    ______ ____

>  <TORSDO>
F 12

$$$$
=
 OpenBabel11032419103D

 42 47  0  0  1  0  0  0  0  0999 V2000
  185.2890  177.6330  138.1220 C   0  0  2  0  0  3  0  0  0  0  0  0
  184.2740  178.7060  140.2170 C   0  0  0  0  0  0  0  0  0  0  0  0
  183.0970  178.6330  139.7670 O   0  0  0  0  0  0  0  0  0  0  0  0
  183.3800  179.0010  142.5440 C   0  0  0  0  0  1  0  0  0  0  0  0
  186.9100  178.6050  141.3180 C   0  0  0  0  0  0  0  0  0  0  0  0
  185.8240  179.3120  142.0950 C   0  0  0  0  0  2  0  0  0  0  0  0
  184.4970  178.9340  141.6160 N   0  0  0  0  0  0  0  0  0  0  0  0
  186.7240  178.2950  140.0270 C   0  0  0  0  0  3  0  0  0  0  0  0
  185.4590  178.6270  139.2810 C   0  0  1  0  0  3  0  0  0  0  0  0
  188.2360  178.2570  141.9390 C   0  0  0  0  0  2  0  0  0  0  0  0
  188.2710  176.8860  142.6050 C   0  0  0  0  0  2  0  0  0  0  0  0
  187.8350  176.9850  143.9880 N   0  0  0  0  0  2  0  0  0  0  0  0
  188.8130  177.8010  144.6940 C   0  0  0  0  0  2  0  0  0  0  0  0
  189.9180  176.9370  145.3030 C   0  0  2  0  0  3  0  0  0  0  0  0
  188.9270  177.5370  147.5470 N   0  0  0  0  0  0  0  0  0  0  0  0
  188.2890  177.8920  148.8150 N   0  0  0  0  0  2  0  0  0  0  0  0
  187.5370  177.9300  147.6980 C   0  0  0  0  0  2  0  0  0  0  0  0
  190.0540  177.1230  146.7830 C   0  0  0  0  0  0  0  0  0  0  0  0
  191.1540  176.9150  147.3600 O   0  0  0  0  0  0  0  0  0  0  0  0
  191.2240  177.0860  144.5890 C   0  0  0  0  0  0  0  0  0  0  0  0
  191.8270  176.0630  144.1740 O   0  0  0  0  0  0  0  0  0  0  0  0
  191.7800  178.3420  144.3780 O   0  0  0  0  0  1  0  0  0  0  0  0
  186.5710  177.4110  137.3810 C   0  0  0  0  0  0  0  0  0  0  0  0
  188.4500  178.2370  136.0840 C   0  0  0  0  0  3  0  0  0  0  0  0
  188.3180  175.8880  136.6600 C   0  0  0  0  0  3  0  0  0  0  0  0
  190.2090  176.7090  135.3520 N   0  0  0  0  0  1  0  0  0  0  0  0
  187.2470  178.4690  136.7570 C   0  0  0  0  0  3  0  0  0  0  0  0
  188.9850  176.9460  136.0360 C   0  0  0  0  0  0  0  0  0  0  0  0
  187.1140  176.1200  137.3330 C   0  0  0  0  0  3  0  0  0  0  0  0
  184.2520  178.0020  137.2510 O   0  0  0  0  0  0  0  0  0  0  0  0
  183.3640  177.0750  135.2060 C   0  0  0  0  0  2  0  0  0  0  0  0
  183.8660  176.8210  136.6110 C   0  0  1  0  0  0  0  0  0  0  0  0
  182.8730  176.0290  137.4410 C   0  0  1  0  0  3  0  0  0  0  0  0
  182.3690  176.9360  136.3370 C   0  0  2  0  0  3  0  0  0  0  0  0
  184.0640  173.8780  137.5120 C   0  0  0  0  0  3  0  0  0  0  0  0
  181.6100  173.9130  137.4930 C   0  0  0  0  0  3  0  0  0  0  0  0
  184.1010  170.5850  135.7290 C   0  0  0  0  0  1  0  0  0  0  0  0
  181.3120  172.6770  137.2270 N   0  0  0  0  0  0  0  0  0  0  0  0
  184.3330  172.6030  137.2360 C   0  0  0  0  0  3  0  0  0  0  0  0
  182.1150  171.7290  136.5020 C   0  0  0  0  0  3  0  0  0  0  0  0
  182.8520  174.5750  136.9940 C   0  0  1  0  0  3  0  0  0  0  0  0
  183.4560  171.7020  136.4660 C   0  0  0  0  0  0  0  0  0  0  0  0
  1 30  1  6  0  0  0
  2  7  1  0  0  0  0
  3  2  2  0  0  0  0
  5 10  1  0  0  0  0
  5  6  1  0  0  0  0
  7  6  1  0  0  0  0
  7  4  1  0  0  0  0
  8  5  2  0  0  0  0
  9  1  1  6  0  0  0
  9  8  1  0  0  0  0
  9  2  1  0  0  0  0
 10 11  1  0  0  0  0
 11 12  1  0  0  0  0
 12 13  1  0  0  0  0
 14 13  1  6  0  0  0
 14 18  1  0  0  0  0
 15 17  1  0  0  0  0
 15 16  1  0  0  0  0
 17 16  1  0  0  0  0
 18 19  2  0  0  0  0
 18 15  1  0  0  0  0
 20 14  1  0  0  0  0
 21 20  2  0  0  0  0
 22 20  1  0  0  0  0
 23  1  1  0  0  0  0
 24 27  1  0  0  0  0
 25 29  2  0  0  0  0
 26 28  1  0  0  0  0
 27 23  2  0  0  0  0
 28 24  2  0  0  0  0
 28 25  1  0  0  0  0
 29 23  1  0  0  0  0
 31 32  1  0  0  0  0
 32 30  1  1  0  0  0
 32 33  1  0  0  0  0
 33 41  1  6  0  0  0
 34 31  1  6  0  0  0
 34 32  1  0  0  0  0
 34 33  1  0  0  0  0
 37 42  1  0  0  0  0
 38 36  2  0  0  0  0
 39 35  2  0  0  0  0
 40 38  1  0  0  0  0
 41 36  1  1  0  0  0
 41 35  1  0  0  0  0
 42 40  2  0  0  0  0
 42 39  1  0  0  0  0
M  END
>  <MODEL>
5

>  <REMARK>
 VINA RESULT:      -7.2      3.603      7.203
  Name = 
  12 active torsions:
  status: ('A' for Active; 'I' for Inactive)
    1  A    between atoms: C_3  and  C_8
    2  A    between atoms: C_6  and  C_32
    3  A    between atoms: C_8  and  O_11
    4  A    between atoms: C_8  and  C_39
    5  A    between atoms: O_11  and  C_12
    6  A    between atoms: N_19  and  C_27
    7  A    between atoms: N_19  and  C_29
    8  A    between atoms: C_20  and  C_41
    9  A    between atoms: C_24  and  C_38
   10  A    between atoms: C_27  and  C_32
   11  A    between atoms: C_29  and  C_38
   12  A    between atoms: C_32  and  C_35
                            x       y       z     vdW  Elec       q    Type
                         _______ _______ _______ _____ _____    ______ ____

>  <TORSDO>
F 12

$$$$
=
 OpenBabel11032419103D

 42 47  0  0  1  0  0  0  0  0999 V2000
  187.9940  177.8400  142.6680 C   0  0  2  0  0  3  0  0  0  0  0  0
  186.6210  178.6270  140.6490 C   0  0  0  0  0  0  0  0  0  0  0  0
  187.5720  178.4340  139.8430 O   0  0  0  0  0  0  0  0  0  0  0  0
  184.9890  178.6430  138.7440 C   0  0  0  0  0  1  0  0  0  0  0  0
  184.4100  178.7890  142.4540 C   0  0  0  0  0  0  0  0  0  0  0  0
  184.2350  179.2950  141.0410 C   0  0  0  0  0  2  0  0  0  0  0  0
  185.2820  178.7840  140.1610 N   0  0  0  0  0  0  0  0  0  0  0  0
  185.6370  178.5480  142.9380 C   0  0  0  0  0  3  0  0  0  0  0  0
  186.8900  178.7650  142.1310 C   0  0  1  0  0  3  0  0  0  0  0  0
  183.2390  178.5720  143.3730 C   0  0  0  0  0  2  0  0  0  0  0  0
  181.9960  179.3720  142.9990 C   0  0  0  0  0  2  0  0  0  0  0  0
  180.9350  178.4810  142.5610 N   0  0  0  0  0  2  0  0  0  0  0  0
  180.7670  178.6780  141.1280 C   0  0  0  0  0  2  0  0  0  0  0  0
  181.0560  177.3900  140.3550 C   0  0  2  0  0  3  0  0  0  0  0  0
  182.1350  176.7450  138.1660 N   0  0  0  0  0  0  0  0  0  0  0  0
  182.7880  176.3120  136.9300 N   0  0  0  0  0  2  0  0  0  0  0  0
  183.0110  175.5930  138.0470 C   0  0  0  0  0  2  0  0  0  0  0  0
  181.2880  177.6260  138.8950 C   0  0  0  0  0  0  0  0  0  0  0  0
  180.7420  178.5950  138.3040 O   0  0  0  0  0  0  0  0  0  0  0  0
  180.0310  176.3280  140.6040 C   0  0  0  0  0  0  0  0  0  0  0  0
  178.9320  176.6350  141.1330 O   0  0  0  0  0  1  0  0  0  0  0  0
  180.2810  175.0050  140.2590 O   0  0  0  0  0  0  0  0  0  0  0  0
  187.9510  177.7220  144.1600 C   0  0  0  0  0  0  0  0  0  0  0  0
  186.7980  177.1420  146.2160 C   0  0  0  0  0  3  0  0  0  0  0  0
  189.0790  177.9530  146.2950 C   0  0  0  0  0  3  0  0  0  0  0  0
  187.9270  177.3750  148.3690 N   0  0  0  0  0  1  0  0  0  0  0  0
  186.8070  177.2550  144.8230 C   0  0  0  0  0  3  0  0  0  0  0  0
  187.9350  177.4900  146.9530 C   0  0  0  0  0  0  0  0  0  0  0  0
  189.0880  178.0660  144.9020 C   0  0  0  0  0  3  0  0  0  0  0  0
  189.2700  178.2160  142.2200 O   0  0  0  0  0  0  0  0  0  0  0  0
  190.3800  176.0870  142.4600 C   0  0  0  0  0  2  0  0  0  0  0  0
  189.7630  177.1070  141.5280 C   0  0  1  0  0  0  0  0  0  0  0  0
  190.7090  177.5130  140.4130 C   0  0  1  0  0  3  0  0  0  0  0  0
  191.2720  177.0830  141.7520 C   0  0  2  0  0  3  0  0  0  0  0  0
  189.7610  176.5320  138.3660 C   0  0  0  0  0  3  0  0  0  0  0  0
  192.1830  176.4400  138.7540 C   0  0  0  0  0  3  0  0  0  0  0  0
  189.8790  173.3320  136.4250 C   0  0  0  0  0  1  0  0  0  0  0  0
  192.5780  175.5750  137.8700 N   0  0  0  0  0  0  0  0  0  0  0  0
  189.5980  175.6600  137.3730 C   0  0  0  0  0  3  0  0  0  0  0  0
  191.8060  174.5010  137.3030 C   0  0  0  0  0  3  0  0  0  0  0  0
  190.8330  176.3920  139.3930 C   0  0  1  0  0  3  0  0  0  0  0  0
  190.4790  174.5080  137.1080 C   0  0  0  0  0  0  0  0  0  0  0  0
  1 30  1  1  0  0  0
  1 23  1  0  0  0  0
  2  9  1  0  0  0  0
  3  2  2  0  0  0  0
  4  7  1  0  0  0  0
  5  8  2  0  0  0  0
  5 10  1  0  0  0  0
  6  5  1  0  0  0  0
  7  2  1  0  0  0  0
  7  6  1  0  0  0  0
  9  1  1  1  0  0  0
  9  8  1  0  0  0  0
 11 10  1  0  0  0  0
 12 11  1  0  0  0  0
 13 12  1  0  0  0  0
 14 20  1  0  0  0  0
 14 13  1  6  0  0  0
 15 18  1  0  0  0  0
 16 17  1  0  0  0  0
 16 15  1  0  0  0  0
 17 15  1  0  0  0  0
 18 14  1  0  0  0  0
 19 18  2  0  0  0  0
 20 21  1  0  0  0  0
 22 20  2  0  0  0  0
 23 27  2  0  0  0  0
 23 29  1  0  0  0  0
 24 28  2  0  0  0  0
 25 28  1  0  0  0  0
 27 24  1  0  0  0  0
 28 26  1  0  0  0  0
 29 25  2  0  0  0  0
 32 34  1  0  0  0  0
 32 30  1  1  0  0  0
 32 31  1  0  0  0  0
 33 41  1  6  0  0  0
 33 32  1  0  0  0  0
 33 34  1  0  0  0  0
 34 31  1  6  0  0  0
 36 41  1  0  0  0  0
 37 42  1  0  0  0  0
 38 36  2  0  0  0  0
 39 35  2  0  0  0  0
 40 38  1  0  0  0  0
 41 35  1  6  0  0  0
 42 40  2  0  0  0  0
 42 39  1  0  0  0  0
M  END
>  <MODEL>
6

>  <REMARK>
 VINA RESULT:      -7.0      3.072      8.762
  Name = 
  12 active torsions:
  status: ('A' for Active; 'I' for Inactive)
    1  A    between atoms: C_3  and  C_8
    2  A    between atoms: C_6  and  C_32
    3  A    between atoms: C_8  and  O_11
    4  A    between atoms: C_8  and  C_39
    5  A    between atoms: O_11  and  C_12
    6  A    between atoms: N_19  and  C_27
    7  A    between atoms: N_19  and  C_29
    8  A    between atoms: C_20  and  C_41
    9  A    between atoms: C_24  and  C_38
   10  A    between atoms: C_27  and  C_32
   11  A    between atoms: C_29  and  C_38
   12  A    between atoms: C_32  and  C_35
                            x       y       z     vdW  Elec       q    Type
                         _______ _______ _______ _____ _____    ______ ____

>  <TORSDO>
F 12

$$$$
=
 OpenBabel11032419103D

 42 47  0  0  1  0  0  0  0  0999 V2000
  184.8320  177.5360  137.9120 C   0  0  2  0  0  3  0  0  0  0  0  0
  183.4400  178.5260  139.8240 C   0  0  0  0  0  0  0  0  0  0  0  0
  182.3520  178.3670  139.2050 O   0  0  0  0  0  0  0  0  0  0  0  0
  182.1920  178.7490  141.9900 C   0  0  0  0  0  1  0  0  0  0  0  0
  185.8840  178.6200  141.3040 C   0  0  0  0  0  0  0  0  0  0  0  0
  184.6450  179.2420  141.9060 C   0  0  0  0  0  2  0  0  0  0  0  0
  183.4360  178.7670  141.2380 N   0  0  0  0  0  0  0  0  0  0  0  0
  185.9150  178.3000  140.0030 C   0  0  0  0  0  3  0  0  0  0  0  0
  184.7540  178.5380  139.0750 C   0  0  1  0  0  3  0  0  0  0  0  0
  187.1250  178.3700  142.1180 C   0  0  0  0  0  2  0  0  0  0  0  0
  186.8970  177.5070  143.3540 C   0  0  0  0  0  2  0  0  0  0  0  0
  187.4180  178.1720  144.5360 N   0  0  0  0  0  2  0  0  0  0  0  0
  188.3590  177.2580  145.1690 C   0  0  0  0  0  2  0  0  0  0  0  0
  189.7000  177.9430  145.4380 C   0  0  2  0  0  3  0  0  0  0  0  0
  190.5910  177.3310  143.1560 N   0  0  0  0  0  0  0  0  0  0  0  0
  191.0750  176.9110  141.8410 N   0  0  0  0  0  2  0  0  0  0  0  0
  190.4060  176.0090  142.5840 C   0  0  0  0  0  2  0  0  0  0  0  0
  190.4330  178.3030  144.1820 C   0  0  0  0  0  0  0  0  0  0  0  0
  190.9110  179.4570  144.0250 O   0  0  0  0  0  0  0  0  0  0  0  0
  190.5560  177.1760  146.3960 C   0  0  0  0  0  0  0  0  0  0  0  0
  190.0210  176.5690  147.3600 O   0  0  0  0  0  1  0  0  0  0  0  0
  191.9350  177.1250  146.2340 O   0  0  0  0  0  0  0  0  0  0  0  0
  186.2360  177.3520  137.4250 C   0  0  0  0  0  0  0  0  0  0  0  0
  188.2990  178.2320  136.4970 C   0  0  0  0  0  3  0  0  0  0  0  0
  188.1280  175.8800  137.0480 C   0  0  0  0  0  3  0  0  0  0  0  0
  190.2060  176.7570  136.1120 N   0  0  0  0  0  1  0  0  0  0  0  0
  186.9860  178.4300  136.9320 C   0  0  0  0  0  3  0  0  0  0  0  0
  188.8710  176.9580  136.5550 C   0  0  0  0  0  0  0  0  0  0  0  0
  186.8140  176.0780  137.4840 C   0  0  0  0  0  3  0  0  0  0  0  0
  183.9650  177.8720  136.8600 O   0  0  0  0  0  0  0  0  0  0  0  0
  182.8880  176.8470  134.9590 C   0  0  0  0  0  2  0  0  0  0  0  0
  183.5910  176.6550  136.2850 C   0  0  1  0  0  0  0  0  0  0  0  0
  182.7830  175.8020  137.2450 C   0  0  1  0  0  3  0  0  0  0  0  0
  182.0670  176.6500  136.2130 C   0  0  2  0  0  3  0  0  0  0  0  0
  183.9790  173.6620  137.4510 C   0  0  0  0  0  3  0  0  0  0  0  0
  181.5380  173.6750  137.1970 C   0  0  0  0  0  3  0  0  0  0  0  0
  184.2130  170.3540  135.7130 C   0  0  0  0  0  1  0  0  0  0  0  0
  181.2760  172.4350  136.9170 N   0  0  0  0  0  0  0  0  0  0  0  0
  184.2830  172.3880  137.2150 C   0  0  0  0  0  3  0  0  0  0  0  0
  182.1530  171.4870  136.2810 C   0  0  0  0  0  3  0  0  0  0  0  0
  182.8160  174.3440  136.8130 C   0  0  1  0  0  3  0  0  0  0  0  0
  183.4910  171.4720  136.3740 C   0  0  0  0  0  0  0  0  0  0  0  0
  1 30  1  6  0  0  0
  2  7  1  0  0  0  0
  3  2  2  0  0  0  0
  5  6  1  0  0  0  0
  5 10  1  0  0  0  0
  7  6  1  0  0  0  0
  7  4  1  0  0  0  0
  8  5  2  0  0  0  0
  9  1  1  6  0  0  0
  9  2  1  0  0  0  0
  9  8  1  0  0  0  0
 10 11  1  0  0  0  0
 11 12  1  0  0  0  0
 12 13  1  0  0  0  0
 14 13  1  6  0  0  0
 14 20  1  0  0  0  0
 15 18  1  0  0  0  0
 16 17  1  0  0  0  0
 16 15  1  0  0  0  0
 17 15  1  0  0  0  0
 18 14  1  0  0  0  0
 19 18  2  0  0  0  0
 20 21  1  0  0  0  0
 22 20  2  0  0  0  0
 23 29  1  0  0  0  0
 23  1  1  0  0  0  0
 24 28  2  0  0  0  0
 24 27  1  0  0  0  0
 25 29  2  0  0  0  0
 26 28  1  0  0  0  0
 27 23  2  0  0  0  0
 28 25  1  0  0  0  0
 31 32  1  0  0  0  0
 32 30  1  1  0  0  0
 32 33  1  0  0  0  0
 33 41  1  6  0  0  0
 34 31  1  6  0  0  0
 34 32  1  0  0  0  0
 34 33  1  0  0  0  0
 37 42  1  0  0  0  0
 38 36  2  0  0  0  0
 39 35  2  0  0  0  0
 40 42  2  0  0  0  0
 40 38  1  0  0  0  0
 41 36  1  1  0  0  0
 41 35  1  0  0  0  0
 42 39  1  0  0  0  0
M  END
>  <MODEL>
7

>  <REMARK>
 VINA RESULT:      -7.0      3.397      7.057
  Name = 
  12 active torsions:
  status: ('A' for Active; 'I' for Inactive)
    1  A    between atoms: C_3  and  C_8
    2  A    between atoms: C_6  and  C_32
    3  A    between atoms: C_8  and  O_11
    4  A    between atoms: C_8  and  C_39
    5  A    between atoms: O_11  and  C_12
    6  A    between atoms: N_19  and  C_27
    7  A    between atoms: N_19  and  C_29
    8  A    between atoms: C_20  and  C_41
    9  A    between atoms: C_24  and  C_38
   10  A    between atoms: C_27  and  C_32
   11  A    between atoms: C_29  and  C_38
   12  A    between atoms: C_32  and  C_35
                            x       y       z     vdW  Elec       q    Type
                         _______ _______ _______ _____ _____    ______ ____

>  <TORSDO>
F 12

$$$$
=
 OpenBabel11032419103D

 42 47  0  0  1  0  0  0  0  0999 V2000
  187.7740  178.0300  142.0870 C   0  0  2  0  0  3  0  0  0  0  0  0
  187.8330  178.2250  139.5310 C   0  0  0  0  0  0  0  0  0  0  0  0
  186.6820  178.7380  139.4760 O   0  0  0  0  0  0  0  0  0  0  0  0
  188.3340  179.0670  137.2210 C   0  0  0  0  0  1  0  0  0  0  0  0
  190.5380  177.3200  139.7120 C   0  0  0  0  0  0  0  0  0  0  0  0
  189.9170  177.4860  138.3440 C   0  0  0  0  0  2  0  0  0  0  0  0
  188.7170  178.3160  138.4050 N   0  0  0  0  0  0  0  0  0  0  0  0
  189.7670  177.3080  140.8080 C   0  0  0  0  0  3  0  0  0  0  0  0
  188.2690  177.4480  140.7530 C   0  0  1  0  0  3  0  0  0  0  0  0
  192.0200  177.1290  139.8950 C   0  0  0  0  0  2  0  0  0  0  0  0
  192.7580  176.7240  138.6240 C   0  0  0  0  0  2  0  0  0  0  0  0
  194.0130  176.0710  138.9560 N   0  0  0  0  0  2  0  0  0  0  0  0
  194.2330  175.0240  137.9680 C   0  0  0  0  0  2  0  0  0  0  0  0
  195.1710  173.9430  138.5060 C   0  0  2  0  0  3  0  0  0  0  0  0
  197.3770  174.5510  137.4400 N   0  0  0  0  0  0  0  0  0  0  0  0
  198.6250  174.8940  136.7570 N   0  0  0  0  0  2  0  0  0  0  0  0
  197.5830  174.4920  136.0040 C   0  0  0  0  0  2  0  0  0  0  0  0
  196.5910  174.4040  138.6170 C   0  0  0  0  0  0  0  0  0  0  0  0
  197.0990  174.6640  139.7400 O   0  0  0  0  0  0  0  0  0  0  0  0
  195.0490  172.6510  137.7600 C   0  0  0  0  0  0  0  0  0  0  0  0
  194.5860  172.6500  136.5900 O   0  0  0  0  0  0  0  0  0  0  0  0
  195.4410  171.4530  138.3440 O   0  0  0  0  0  1  0  0  0  0  0  0
  188.7970  177.8940  143.1720 C   0  0  0  0  0  0  0  0  0  0  0  0
  190.8900  178.5430  144.2170 C   0  0  0  0  0  3  0  0  0  0  0  0
  189.5070  176.8360  145.2370 C   0  0  0  0  0  3  0  0  0  0  0  0
  191.6120  177.4810  146.2940 N   0  0  0  0  0  1  0  0  0  0  0  0
  189.9580  178.6810  143.1850 C   0  0  0  0  0  3  0  0  0  0  0  0
  190.6650  177.6210  145.2440 C   0  0  0  0  0  0  0  0  0  0  0  0
  188.5750  176.9740  144.2040 C   0  0  0  0  0  3  0  0  0  0  0  0
  186.5380  177.4920  142.4780 O   0  0  0  0  0  0  0  0  0  0  0  0
  185.6880  179.6930  142.9880 C   0  0  0  0  0  2  0  0  0  0  0  0
  185.5870  178.4530  142.1260 C   0  0  1  0  0  0  0  0  0  0  0  0
  184.1830  177.8770  142.1110 C   0  0  1  0  0  3  0  0  0  0  0  0
  184.6700  178.6290  143.3330 C   0  0  2  0  0  3  0  0  0  0  0  0
  183.3520  178.3410  139.8430 C   0  0  0  0  0  3  0  0  0  0  0  0
  181.8600  178.6280  141.7700 C   0  0  0  0  0  3  0  0  0  0  0  0
  181.5610  181.0400  137.9640 C   0  0  0  0  0  1  0  0  0  0  0  0
  180.8680  179.2960  141.2630 N   0  0  0  0  0  0  0  0  0  0  0  0
  182.6880  178.9660  138.8720 C   0  0  0  0  0  3  0  0  0  0  0  0
  180.9100  180.1830  140.1310 C   0  0  0  0  0  3  0  0  0  0  0  0
  183.2630  178.7520  141.2730 C   0  0  1  0  0  3  0  0  0  0  0  0
  181.7340  180.0720  139.0780 C   0  0  0  0  0  0  0  0  0  0  0  0
  1 30  1  1  0  0  0
  1 23  1  0  0  0  0
  2  9  1  0  0  0  0
  3  2  2  0  0  0  0
  4  7  1  0  0  0  0
  5 10  1  0  0  0  0
  5  8  2  0  0  0  0
  6  7  1  0  0  0  0
  6  5  1  0  0  0  0
  7  2  1  0  0  0  0
  9  8  1  0  0  0  0
  9  1  1  1  0  0  0
 11 12  1  0  0  0  0
 11 10  1  0  0  0  0
 13 12  1  0  0  0  0
 14 13  1  6  0  0  0
 14 18  1  0  0  0  0
 15 18  1  0  0  0  0
 16 15  1  0  0  0  0
 17 16  1  0  0  0  0
 17 15  1  0  0  0  0
 18 19  2  0  0  0  0
 20 22  1  0  0  0  0
 20 14  1  0  0  0  0
 21 20  2  0  0  0  0
 23 27  2  0  0  0  0
 23 29  1  0  0  0  0
 24 28  2  0  0  0  0
 25 28  1  0  0  0  0
 27 24  1  0  0  0  0
 28 26  1  0  0  0  0
 29 25  2  0  0  0  0
 32 30  1  1  0  0  0
 32 31  1  0  0  0  0
 32 34  1  0  0  0  0
 33 41  1  6  0  0  0
 33 32  1  0  0  0  0
 33 34  1  0  0  0  0
 34 31  1  6  0  0  0
 37 42  1  0  0  0  0
 38 36  2  0  0  0  0
 39 42  1  0  0  0  0
 39 35  2  0  0  0  0
 40 38  1  0  0  0  0
 41 35  1  6  0  0  0
 41 36  1  0  0  0  0
 42 40  2  0  0  0  0
M  END
>  <MODEL>
8

>  <REMARK>
 VINA RESULT:      -7.0      4.204      6.826
  Name = 
  12 active torsions:
  status: ('A' for Active; 'I' for Inactive)
    1  A    between atoms: C_3  and  C_8
    2  A    between atoms: C_6  and  C_32
    3  A    between atoms: C_8  and  O_11
    4  A    between atoms: C_8  and  C_39
    5  A    between atoms: O_11  and  C_12
    6  A    between atoms: N_19  and  C_27
    7  A    between atoms: N_19  and  C_29
    8  A    between atoms: C_20  and  C_41
    9  A    between atoms: C_24  and  C_38
   10  A    between atoms: C_27  and  C_32
   11  A    between atoms: C_29  and  C_38
   12  A    between atoms: C_32  and  C_35
                            x       y       z     vdW  Elec       q    Type
                         _______ _______ _______ _____ _____    ______ ____

>  <TORSDO>
F 12

$$$$
=
 OpenBabel11032419103D

 42 47  0  0  1  0  0  0  0  0999 V2000
  187.9030  177.8520  142.6660 C   0  0  2  0  0  3  0  0  0  0  0  0
  186.3970  178.6280  140.7410 C   0  0  0  0  0  0  0  0  0  0  0  0
  187.2900  178.4290  139.8720 O   0  0  0  0  0  0  0  0  0  0  0  0
  184.6380  178.6350  138.9510 C   0  0  0  0  0  1  0  0  0  0  0  0
  184.3140  178.8050  142.6900 C   0  0  0  0  0  0  0  0  0  0  0  0
  184.0430  179.3020  141.2890 C   0  0  0  0  0  2  0  0  0  0  0  0
  185.0280  178.7840  140.3430 N   0  0  0  0  0  0  0  0  0  0  0  0
  185.5710  178.5640  143.0910 C   0  0  0  0  0  3  0  0  0  0  0  0
  186.7660  178.7750  142.2000 C   0  0  1  0  0  3  0  0  0  0  0  0
  183.2080  178.5940  143.6890 C   0  0  0  0  0  2  0  0  0  0  0  0
  181.8870  179.2500  143.3020 C   0  0  0  0  0  2  0  0  0  0  0  0
  181.3490  178.6330  142.1010 N   0  0  0  0  0  2  0  0  0  0  0  0
  180.2380  179.4570  141.6490 C   0  0  0  0  0  2  0  0  0  0  0  0
  180.4410  179.9140  140.2040 C   0  0  2  0  0  3  0  0  0  0  0  0
  180.1400  181.9320  138.7170 N   0  0  0  0  0  0  0  0  0  0  0  0
  180.0090  183.0700  137.8060 N   0  0  0  0  0  2  0  0  0  0  0  0
  180.8370  182.0690  137.4500 C   0  0  0  0  0  2  0  0  0  0  0  0
  179.8140  181.2440  139.9190 C   0  0  0  0  0  0  0  0  0  0  0  0
  179.0020  181.7610  140.7300 O   0  0  0  0  0  0  0  0  0  0  0  0
  180.0380  178.8710  139.2080 C   0  0  0  0  0  0  0  0  0  0  0  0
  178.9310  178.2870  139.3320 O   0  0  0  0  0  1  0  0  0  0  0  0
  180.8750  178.5390  138.1490 O   0  0  0  0  0  0  0  0  0  0  0  0
  187.9480  177.7260  144.1570 C   0  0  0  0  0  0  0  0  0  0  0  0
  189.0830  178.0210  146.2830 C   0  0  0  0  0  3  0  0  0  0  0  0
  186.8460  177.0940  146.2240 C   0  0  0  0  0  3  0  0  0  0  0  0
  187.9810  177.3840  148.3670 N   0  0  0  0  0  1  0  0  0  0  0  0
  189.0720  178.1360  144.8910 C   0  0  0  0  0  3  0  0  0  0  0  0
  187.9700  177.5000  146.9500 C   0  0  0  0  0  0  0  0  0  0  0  0
  186.8350  177.2080  144.8300 C   0  0  0  0  0  3  0  0  0  0  0  0
  189.1490  178.2360  142.1460 O   0  0  0  0  0  0  0  0  0  0  0  0
  190.3070  176.1300  142.3740 C   0  0  0  0  0  2  0  0  0  0  0  0
  189.6230  177.1190  141.4540 C   0  0  1  0  0  0  0  0  0  0  0  0
  190.5010  177.5130  140.2810 C   0  0  1  0  0  3  0  0  0  0  0  0
  191.1430  177.1230  141.5970 C   0  0  2  0  0  3  0  0  0  0  0  0
  189.5060  176.5120  138.2660 C   0  0  0  0  0  3  0  0  0  0  0  0
  191.9310  176.3800  138.6230 C   0  0  0  0  0  3  0  0  0  0  0  0
  189.5350  173.2740  136.3860 C   0  0  0  0  0  1  0  0  0  0  0  0
  192.2970  175.4910  137.7500 N   0  0  0  0  0  0  0  0  0  0  0  0
  189.3130  175.6240  137.2930 C   0  0  0  0  0  3  0  0  0  0  0  0
  191.4970  174.4210  137.2150 C   0  0  0  0  0  3  0  0  0  0  0  0
  190.5900  176.3710  139.2800 C   0  0  1  0  0  3  0  0  0  0  0  0
  190.1670  174.4500  137.0370 C   0  0  0  0  0  0  0  0  0  0  0  0
  1 30  1  1  0  0  0
  1 23  1  0  0  0  0
  2  9  1  0  0  0  0
  3  2  2  0  0  0  0
  4  7  1  0  0  0  0
  5  8  2  0  0  0  0
  5 10  1  0  0  0  0
  6  5  1  0  0  0  0
  7  2  1  0  0  0  0
  7  6  1  0  0  0  0
  9  1  1  1  0  0  0
  9  8  1  0  0  0  0
 11 10  1  0  0  0  0
 12 11  1  0  0  0  0
 13 12  1  0  0  0  0
 14 13  1  1  0  0  0
 15 18  1  0  0  0  0
 16 15  1  0  0  0  0
 17 16  1  0  0  0  0
 17 15  1  0  0  0  0
 18 14  1  0  0  0  0
 18 19  2  0  0  0  0
 20 21  1  0  0  0  0
 20 14  1  0  0  0  0
 22 20  2  0  0  0  0
 23 29  2  0  0  0  0
 23 27  1  0  0  0  0
 24 28  1  0  0  0  0
 25 28  2  0  0  0  0
 27 24  2  0  0  0  0
 28 26  1  0  0  0  0
 29 25  1  0  0  0  0
 32 34  1  0  0  0  0
 32 30  1  1  0  0  0
 32 31  1  0  0  0  0
 33 41  1  6  0  0  0
 33 32  1  0  0  0  0
 33 34  1  0  0  0  0
 34 31  1  6  0  0  0
 36 41  1  0  0  0  0
 37 42  1  0  0  0  0
 38 36  2  0  0  0  0
 39 35  2  0  0  0  0
 40 38  1  0  0  0  0
 41 35  1  6  0  0  0
 42 40  2  0  0  0  0
 42 39  1  0  0  0  0
M  END
>  <MODEL>
9

>  <REMARK>
 VINA RESULT:      -6.9      2.667      9.018
  Name = 
  12 active torsions:
  status: ('A' for Active; 'I' for Inactive)
    1  A    between atoms: C_3  and  C_8
    2  A    between atoms: C_6  and  C_32
    3  A    between atoms: C_8  and  O_11
    4  A    between atoms: C_8  and  C_39
    5  A    between atoms: O_11  and  C_12
    6  A    between atoms: N_19  and  C_27
    7  A    between atoms: N_19  and  C_29
    8  A    between atoms: C_20  and  C_41
    9  A    between atoms: C_24  and  C_38
   10  A    between atoms: C_27  and  C_32
   11  A    between atoms: C_29  and  C_38
   12  A    between atoms: C_32  and  C_35
                            x       y       z     vdW  Elec       q    Type
                         _______ _______ _______ _____ _____    ______ ____

>  <TORSDO>
F 12

$$$$
