=
 OpenBabel11032420093D

 28 32  0  0  1  0  0  0  0  0999 V2000
  188.7700  178.9600  139.8580 C   0  0  0  0  0  2  0  0  0  0  0  0
  183.9980  179.3030  140.2340 N   0  0  0  0  0  2  0  0  0  0  0  0
  188.8000  177.8100  145.9150 C   0  0  0  0  0  3  0  0  0  0  0  0
  187.4870  178.2250  140.2950 C   0  0  2  0  0  3  0  0  0  0  0  0
  185.2510  178.6820  140.5300 C   0  0  0  0  0  0  0  0  0  0  0  0
  188.0950  176.9650  142.3400 N   0  0  0  0  0  2  0  0  0  0  0  0
  191.7750  177.2830  141.6440 S   0  0  0  0  0  0  0  0  0  0  0  0
  190.9070  175.9970  142.6510 C   0  0  0  0  0  2  0  0  0  0  0  0
  185.5370  177.8970  142.1210 S   0  0  0  0  0  0  0  0  0  0  0  0
  189.9230  178.0870  140.0800 N   0  0  0  0  0  0  0  0  0  0  0  0
  188.7680  177.0450  143.6120 C   0  0  0  0  0  0  0  0  0  0  0  0
  190.2680  178.0730  141.4010 O   0  0  0  0  0  0  0  0  0  0  0  0
  190.1010  177.3110  146.0510 C   0  0  0  0  0  3  0  0  0  0  0  0
  190.7050  176.7010  144.9980 N   0  0  0  0  0  0  0  0  0  0  0  0
  190.0990  176.5840  143.7820 C   0  0  0  0  0  0  0  0  0  0  0  0
  188.1390  177.6710  144.6930 C   0  0  0  0  0  3  0  0  0  0  0  0
  186.2950  178.8690  139.7880 N   0  0  0  0  0  0  0  0  0  0  0  0
  187.3280  178.0990  141.8190 C   0  0  2  0  0  3  0  0  0  0  0  0
  191.0970  176.4120  138.7840 C   0  0  0  0  0  3  0  0  0  0  0  0
  189.8780  174.5300  137.6420 O   0  0  0  0  0  0  0  0  0  0  0  0
  192.3350  174.4770  137.6810 C   0  0  0  0  0  2  0  0  0  0  0  0
  191.0680  175.2870  137.7900 C   0  0  0  0  0  0  0  0  0  0  0  0
  188.8370  175.4550  137.4690 C   0  0  0  0  0  2  0  0  0  0  0  0
  188.6390  176.2530  138.7800 C   0  0  0  0  0  2  0  0  0  0  0  0
  189.9320  176.9000  139.2410 C   0  0  0  0  0  0  0  0  0  0  0  0
  191.9240  175.4140  136.5330 C   0  0  0  0  0  2  0  0  0  0  0  0
  183.7710  180.0740  139.0480 C   0  0  0  0  0  3  0  0  0  0  0  0
  182.5290  180.3620  138.6820 C   0  0  0  0  0  2  0  0  0  0  0  0
  1 10  1  0  0  0  0
  2  5  1  0  0  0  0
  3 13  1  0  0  0  0
  4  1  1  1  0  0  0
  4 18  1  0  0  0  0
  5  9  1  0  0  0  0
  6 11  1  0  0  0  0
  7  8  1  0  0  0  0
  8 15  1  0  0  0  0
 10 12  1  0  0  0  0
 11 15  2  0  0  0  0
 11 16  1  0  0  0  0
 12  7  1  0  0  0  0
 14 13  2  0  0  0  0
 15 14  1  0  0  0  0
 16  3  2  0  0  0  0
 17  4  1  0  0  0  0
 17  5  2  0  0  0  0
 18  9  1  6  0  0  0
 18  6  1  0  0  0  0
 19 25  2  0  0  0  0
 20 22  1  0  0  0  0
 21 22  1  0  0  0  0
 22 19  1  0  0  0  0
 23 20  1  0  0  0  0
 23 24  1  0  0  0  0
 24 25  1  0  0  0  0
 25 10  1  0  0  0  0
 26 21  1  0  0  0  0
 26 22  1  0  0  0  0
 27  2  1  0  0  0  0
 28 27  2  0  0  0  0
M  END
>  <MODEL>
1

>  <REMARK>
 VINA RESULT:      -6.6      0.000      0.000
  Name = 
  2 active torsions:
  status: ('A' for Active; 'I' for Inactive)
    1  A    between atoms: N_2  and  C_7
    2  A    between atoms: N_16  and  C_24
                            x       y       z     vdW  Elec       q    Type
                         _______ _______ _______ _____ _____    ______ ____

>  <TORSDO>
F 2

$$$$
=
 OpenBabel11032420093D

 28 32  0  0  1  0  0  0  0  0999 V2000
  188.3050  178.5810  139.1560 C   0  0  0  0  0  2  0  0  0  0  0  0
  189.3530  177.3750  143.6800 N   0  0  0  0  0  2  0  0  0  0  0  0
  193.8520  176.3450  137.6590 C   0  0  0  0  0  3  0  0  0  0  0  0
  188.7110  177.4210  140.0850 C   0  0  2  0  0  3  0  0  0  0  0  0
  189.3300  177.1200  142.2740 C   0  0  0  0  0  0  0  0  0  0  0  0
  190.2970  176.0350  138.7820 N   0  0  0  0  0  2  0  0  0  0  0  0
  189.2390  177.5870  135.5260 S   0  0  0  0  0  0  0  0  0  0  0  0
  190.0070  175.9280  135.8070 C   0  0  0  0  0  2  0  0  0  0  0  0
  190.6350  176.1660  141.4880 S   0  0  0  0  0  0  0  0  0  0  0  0
  188.1620  178.0760  137.7900 N   0  0  0  0  0  0  0  0  0  0  0  0
  191.4560  176.0670  137.9240 C   0  0  0  0  0  0  0  0  0  0  0  0
  189.3860  177.9110  137.2080 O   0  0  0  0  0  0  0  0  0  0  0  0
  193.6970  176.2490  136.2700 C   0  0  0  0  0  3  0  0  0  0  0  0
  192.4610  176.0690  135.7370 N   0  0  0  0  0  0  0  0  0  0  0  0
  191.3400  176.0110  136.5110 C   0  0  0  0  0  0  0  0  0  0  0  0
  192.7260  176.2510  138.4790 C   0  0  0  0  0  3  0  0  0  0  0  0
  188.5290  177.7560  141.4810 N   0  0  0  0  0  0  0  0  0  0  0  0
  190.1660  176.9590  139.9100 C   0  0  2  0  0  3  0  0  0  0  0  0
  187.3290  175.8380  137.3830 C   0  0  0  0  0  3  0  0  0  0  0  0
  184.8640  175.3290  137.3640 O   0  0  0  0  0  0  0  0  0  0  0  0
  186.4470  173.4510  137.2650 C   0  0  0  0  0  2  0  0  0  0  0  0
  186.1870  174.9210  137.0540 C   0  0  0  0  0  0  0  0  0  0  0  0
  184.7130  176.6210  136.8360 C   0  0  0  0  0  2  0  0  0  0  0  0
  185.6230  177.6010  137.6130 C   0  0  0  0  0  2  0  0  0  0  0  0
  187.0670  177.1340  137.6230 C   0  0  0  0  0  0  0  0  0  0  0  0
  186.3230  174.0090  135.8370 C   0  0  0  0  0  2  0  0  0  0  0  0
  188.4260  178.2540  144.3290 C   0  0  0  0  0  3  0  0  0  0  0  0
  187.5490  177.7590  145.1920 C   0  0  0  0  0  2  0  0  0  0  0  0
  2 27  1  0  0  0  0
  3 16  1  0  0  0  0
  4  1  1  6  0  0  0
  4 17  1  0  0  0  0
  5  2  1  0  0  0  0
  7  8  1  0  0  0  0
  7 12  1  0  0  0  0
  8 15  1  0  0  0  0
  9  5  1  0  0  0  0
 10  1  1  0  0  0  0
 11 16  2  0  0  0  0
 11  6  1  0  0  0  0
 12 10  1  0  0  0  0
 13  3  2  0  0  0  0
 14 13  1  0  0  0  0
 14 15  2  0  0  0  0
 15 11  1  0  0  0  0
 17  5  2  0  0  0  0
 18  6  1  6  0  0  0
 18  4  1  0  0  0  0
 18  9  1  0  0  0  0
 19 25  2  0  0  0  0
 22 21  1  0  0  0  0
 22 20  1  0  0  0  0
 22 19  1  0  0  0  0
 23 20  1  0  0  0  0
 23 24  1  0  0  0  0
 24 25  1  0  0  0  0
 25 10  1  0  0  0  0
 26 22  1  0  0  0  0
 26 21  1  0  0  0  0
 27 28  2  0  0  0  0
M  END
>  <MODEL>
2

>  <REMARK>
 VINA RESULT:      -6.3      2.808      6.021
  Name = 
  2 active torsions:
  status: ('A' for Active; 'I' for Inactive)
    1  A    between atoms: N_2  and  C_7
    2  A    between atoms: N_16  and  C_24
                            x       y       z     vdW  Elec       q    Type
                         _______ _______ _______ _____ _____    ______ ____

>  <TORSDO>
F 2

$$$$
=
 OpenBabel11032420093D

 28 32  0  0  1  0  0  0  0  0999 V2000
  187.3850  178.3730  137.3040 C   0  0  0  0  0  2  0  0  0  0  0  0
  187.0450  178.6990  142.0790 N   0  0  0  0  0  2  0  0  0  0  0  0
  193.2700  176.7710  138.1950 C   0  0  0  0  0  3  0  0  0  0  0  0
  187.5630  177.6100  138.6320 C   0  0  2  0  0  3  0  0  0  0  0  0
  187.4840  178.0550  140.8810 C   0  0  0  0  0  0  0  0  0  0  0  0
  189.5770  176.1990  138.3350 N   0  0  0  0  0  2  0  0  0  0  0  0
  189.4820  176.5580  134.5940 S   0  0  0  0  0  0  0  0  0  0  0  0
  190.2440  175.2020  135.5950 C   0  0  0  0  0  2  0  0  0  0  0  0
  189.0360  177.1510  140.8370 S   0  0  0  0  0  0  0  0  0  0  0  0
  187.7150  177.4820  136.1910 N   0  0  0  0  0  0  0  0  0  0  0  0
  190.9400  176.1810  137.8660 C   0  0  0  0  0  0  0  0  0  0  0  0
  189.0690  177.3680  136.0530 O   0  0  0  0  0  0  0  0  0  0  0  0
  193.5670  176.2590  136.9260 C   0  0  0  0  0  3  0  0  0  0  0  0
  192.5780  175.7280  136.1620 N   0  0  0  0  0  0  0  0  0  0  0  0
  191.2780  175.7050  136.5730 C   0  0  0  0  0  0  0  0  0  0  0  0
  191.9550  176.7260  138.6590 C   0  0  0  0  0  3  0  0  0  0  0  0
  186.9270  178.2940  139.7380 N   0  0  0  0  0  0  0  0  0  0  0  0
  189.0300  177.3700  139.0230 C   0  0  2  0  0  3  0  0  0  0  0  0
  186.9870  175.2450  136.7680 C   0  0  0  0  0  3  0  0  0  0  0  0
  184.9310  174.2190  135.7410 O   0  0  0  0  0  0  0  0  0  0  0  0
  186.0350  173.0280  137.5850 C   0  0  0  0  0  2  0  0  0  0  0  0
  186.1300  174.0460  136.4780 C   0  0  0  0  0  0  0  0  0  0  0  0
  185.2710  174.9520  134.5940 C   0  0  0  0  0  2  0  0  0  0  0  0
  185.6930  176.3830  135.0070 C   0  0  0  0  0  2  0  0  0  0  0  0
  186.8010  176.3620  136.0430 C   0  0  0  0  0  0  0  0  0  0  0  0
  186.8170  172.6960  136.3040 C   0  0  0  0  0  2  0  0  0  0  0  0
  185.8990  179.5570  142.1280 C   0  0  0  0  0  3  0  0  0  0  0  0
  184.7780  179.1220  142.6880 C   0  0  0  0  0  2  0  0  0  0  0  0
  2 27  1  0  0  0  0
  3 16  1  0  0  0  0
  4  1  1  6  0  0  0
  4 18  1  0  0  0  0
  4 17  1  0  0  0  0
  5  2  1  0  0  0  0
  7  8  1  0  0  0  0
  7 12  1  0  0  0  0
  8 15  1  0  0  0  0
  9  5  1  0  0  0  0
 10  1  1  0  0  0  0
 11  6  1  0  0  0  0
 11 16  2  0  0  0  0
 12 10  1  0  0  0  0
 13  3  2  0  0  0  0
 14 15  2  0  0  0  0
 14 13  1  0  0  0  0
 15 11  1  0  0  0  0
 17  5  2  0  0  0  0
 18  6  1  6  0  0  0
 18  9  1  0  0  0  0
 20 22  1  0  0  0  0
 22 19  1  0  0  0  0
 22 21  1  0  0  0  0
 23 24  1  0  0  0  0
 23 20  1  0  0  0  0
 24 25  1  0  0  0  0
 25 10  1  0  0  0  0
 25 19  2  0  0  0  0
 26 22  1  0  0  0  0
 26 21  1  0  0  0  0
 27 28  2  0  0  0  0
M  END
>  <MODEL>
3

>  <REMARK>
 VINA RESULT:      -6.3      3.216      5.644
  Name = 
  2 active torsions:
  status: ('A' for Active; 'I' for Inactive)
    1  A    between atoms: N_2  and  C_7
    2  A    between atoms: N_16  and  C_24
                            x       y       z     vdW  Elec       q    Type
                         _______ _______ _______ _____ _____    ______ ____

>  <TORSDO>
F 2

$$$$
=
 OpenBabel11032420093D

 28 32  0  0  1  0  0  0  0  0999 V2000
  182.5050  177.5040  137.9990 C   0  0  0  0  0  2  0  0  0  0  0  0
  187.0880  178.2790  139.1890 N   0  0  0  0  0  2  0  0  0  0  0  0
  181.1870  178.3900  143.9550 C   0  0  0  0  0  3  0  0  0  0  0  0
  183.4840  178.5040  138.6460 C   0  0  2  0  0  3  0  0  0  0  0  0
  185.6920  178.5760  139.2640 C   0  0  0  0  0  0  0  0  0  0  0  0
  182.2600  179.5090  140.5510 N   0  0  0  0  0  2  0  0  0  0  0  0
  178.9310  178.3610  139.2360 S   0  0  0  0  0  0  0  0  0  0  0  0
  179.2870  179.7770  140.3710 C   0  0  0  0  0  2  0  0  0  0  0  0
  184.9660  179.2130  140.7780 S   0  0  0  0  0  0  0  0  0  0  0  0
  181.1570  178.0730  138.0160 N   0  0  0  0  0  0  0  0  0  0  0  0
  181.4220  179.2260  141.6900 C   0  0  0  0  0  0  0  0  0  0  0  0
  180.6020  177.9570  139.2580 O   0  0  0  0  0  0  0  0  0  0  0  0
  179.8010  178.5640  143.8640 C   0  0  0  0  0  3  0  0  0  0  0  0
  179.2540  179.0530  142.7210 N   0  0  0  0  0  0  0  0  0  0  0  0
  180.0100  179.3540  141.6270 C   0  0  0  0  0  0  0  0  0  0  0  0
  181.9910  178.7250  142.8650 C   0  0  0  0  0  3  0  0  0  0  0  0
  184.8630  178.1770  138.3540 N   0  0  0  0  0  0  0  0  0  0  0  0
  183.3510  178.6070  140.1740 C   0  0  2  0  0  3  0  0  0  0  0  0
  180.9860  180.4750  137.7480 C   0  0  0  0  0  3  0  0  0  0  0  0
  180.7670  181.5390  135.4770 O   0  0  0  0  0  0  0  0  0  0  0  0
  181.1160  182.9980  137.4240 C   0  0  0  0  0  2  0  0  0  0  0  0
  180.6680  181.6630  136.8860 C   0  0  0  0  0  0  0  0  0  0  0  0
  180.0440  180.3860  135.1280 C   0  0  0  0  0  2  0  0  0  0  0  0
  180.7690  179.1390  135.6890 C   0  0  0  0  0  2  0  0  0  0  0  0
  181.0070  179.2550  137.1830 C   0  0  0  0  0  0  0  0  0  0  0  0
  179.6180  182.6520  137.3850 C   0  0  0  0  0  2  0  0  0  0  0  0
  187.6880  177.6280  138.0630 C   0  0  0  0  0  3  0  0  0  0  0  0
  188.4800  178.3170  137.2530 C   0  0  0  0  0  2  0  0  0  0  0  0
  1 10  1  0  0  0  0
  2  5  1  0  0  0  0
  4  1  1  1  0  0  0
  4 18  1  0  0  0  0
  5  9  1  0  0  0  0
  6 11  1  0  0  0  0
  7 12  1  0  0  0  0
  7  8  1  0  0  0  0
  8 15  1  0  0  0  0
 10 12  1  0  0  0  0
 11 16  1  0  0  0  0
 13  3  1  0  0  0  0
 14 13  2  0  0  0  0
 15 11  2  0  0  0  0
 15 14  1  0  0  0  0
 16  3  2  0  0  0  0
 17  4  1  0  0  0  0
 17  5  2  0  0  0  0
 18  6  1  6  0  0  0
 18  9  1  0  0  0  0
 20 22  1  0  0  0  0
 22 26  1  0  0  0  0
 22 21  1  0  0  0  0
 22 19  1  0  0  0  0
 23 20  1  0  0  0  0
 23 24  1  0  0  0  0
 24 25  1  0  0  0  0
 25 19  2  0  0  0  0
 25 10  1  0  0  0  0
 26 21  1  0  0  0  0
 27  2  1  0  0  0  0
 28 27  2  0  0  0  0
M  END
>  <MODEL>
4

>  <REMARK>
 VINA RESULT:      -6.0      5.053      9.139
  Name = 
  2 active torsions:
  status: ('A' for Active; 'I' for Inactive)
    1  A    between atoms: N_2  and  C_7
    2  A    between atoms: N_16  and  C_24
                            x       y       z     vdW  Elec       q    Type
                         _______ _______ _______ _____ _____    ______ ____

>  <TORSDO>
F 2

$$$$
=
 OpenBabel11032420093D

 28 32  0  0  1  0  0  0  0  0999 V2000
  187.4010  178.6610  137.4220 C   0  0  0  0  0  2  0  0  0  0  0  0
  187.0410  178.6740  142.2070 N   0  0  0  0  0  2  0  0  0  0  0  0
  193.2090  176.7570  138.2270 C   0  0  0  0  0  3  0  0  0  0  0  0
  187.5380  177.8030  138.6950 C   0  0  2  0  0  3  0  0  0  0  0  0
  187.4620  178.0950  140.9700 C   0  0  0  0  0  0  0  0  0  0  0  0
  189.4930  176.3310  138.3110 N   0  0  0  0  0  2  0  0  0  0  0  0
  189.4410  176.9490  134.6030 S   0  0  0  0  0  0  0  0  0  0  0  0
  190.1380  175.4970  135.5130 C   0  0  0  0  0  2  0  0  0  0  0  0
  188.9750  177.1320  140.8700 S   0  0  0  0  0  0  0  0  0  0  0  0
  187.7020  177.8350  136.2520 N   0  0  0  0  0  0  0  0  0  0  0  0
  190.8580  176.2880  137.8480 C   0  0  0  0  0  0  0  0  0  0  0  0
  189.0510  177.6740  136.1130 O   0  0  0  0  0  0  0  0  0  0  0  0
  193.4930  176.3210  136.9270 C   0  0  0  0  0  3  0  0  0  0  0  0
  192.4880  175.8850  136.1240 N   0  0  0  0  0  0  0  0  0  0  0  0
  191.1860  175.8890  136.5260 C   0  0  0  0  0  0  0  0  0  0  0  0
  191.8890  176.7350  138.6810 C   0  0  0  0  0  3  0  0  0  0  0  0
  186.9230  178.4350  139.8430 N   0  0  0  0  0  0  0  0  0  0  0  0
  188.9910  177.4750  139.0750 C   0  0  2  0  0  3  0  0  0  0  0  0
  185.5070  177.0590  135.5840 C   0  0  0  0  0  3  0  0  0  0  0  0
  184.9290  174.6100  135.5400 O   0  0  0  0  0  0  0  0  0  0  0  0
  183.3190  176.2090  134.5960 C   0  0  0  0  0  2  0  0  0  0  0  0
  184.4890  175.9580  135.5120 C   0  0  0  0  0  0  0  0  0  0  0  0
  185.7960  174.4980  136.6380 C   0  0  0  0  0  2  0  0  0  0  0  0
  187.0740  175.3270  136.3680 C   0  0  0  0  0  2  0  0  0  0  0  0
  186.7440  176.7670  136.0230 C   0  0  0  0  0  0  0  0  0  0  0  0
  183.1120  176.2110  136.1200 C   0  0  0  0  0  2  0  0  0  0  0  0
  185.9310  179.5740  142.3100 C   0  0  0  0  0  3  0  0  0  0  0  0
  184.9530  179.3130  143.1660 C   0  0  0  0  0  2  0  0  0  0  0  0
  2 27  1  0  0  0  0
  3 16  1  0  0  0  0
  4  1  1  6  0  0  0
  4 18  1  0  0  0  0
  4 17  1  0  0  0  0
  5  2  1  0  0  0  0
  7  8  1  0  0  0  0
  7 12  1  0  0  0  0
  8 15  1  0  0  0  0
  9  5  1  0  0  0  0
 10  1  1  0  0  0  0
 11  6  1  0  0  0  0
 11 16  2  0  0  0  0
 12 10  1  0  0  0  0
 13  3  2  0  0  0  0
 14 15  2  0  0  0  0
 14 13  1  0  0  0  0
 15 11  1  0  0  0  0
 17  5  2  0  0  0  0
 18  6  1  6  0  0  0
 18  9  1  0  0  0  0
 19 25  2  0  0  0  0
 20 23  1  0  0  0  0
 21 22  1  0  0  0  0
 21 26  1  0  0  0  0
 22 20  1  0  0  0  0
 22 19  1  0  0  0  0
 22 26  1  0  0  0  0
 24 23  1  0  0  0  0
 25 10  1  0  0  0  0
 25 24  1  0  0  0  0
 27 28  2  0  0  0  0
M  END
>  <MODEL>
5

>  <REMARK>
 VINA RESULT:      -6.0      3.382      5.995
  Name = 
  2 active torsions:
  status: ('A' for Active; 'I' for Inactive)
    1  A    between atoms: N_2  and  C_7
    2  A    between atoms: N_16  and  C_24
                            x       y       z     vdW  Elec       q    Type
                         _______ _______ _______ _____ _____    ______ ____

>  <TORSDO>
F 2

$$$$
=
 OpenBabel11032420093D

 28 32  0  0  1  0  0  0  0  0999 V2000
  188.6820  178.8990  138.9460 C   0  0  0  0  0  2  0  0  0  0  0  0
  184.0980  179.3780  140.2830 N   0  0  0  0  0  2  0  0  0  0  0  0
  190.0030  178.4190  144.9480 C   0  0  0  0  0  3  0  0  0  0  0  0
  187.5240  178.2430  139.7240 C   0  0  2  0  0  3  0  0  0  0  0  0
  185.3880  178.7680  140.3750 C   0  0  0  0  0  0  0  0  0  0  0  0
  188.5570  177.2020  141.7200 N   0  0  0  0  0  2  0  0  0  0  0  0
  192.0040  177.3670  140.2310 S   0  0  0  0  0  0  0  0  0  0  0  0
  191.3740  176.2170  141.5350 C   0  0  0  0  0  2  0  0  0  0  0  0
  186.0080  178.1550  141.9460 S   0  0  0  0  0  0  0  0  0  0  0  0
  189.8590  178.0320  139.0140 N   0  0  0  0  0  0  0  0  0  0  0  0
  189.4850  177.4070  142.8040 C   0  0  0  0  0  0  0  0  0  0  0  0
  190.4770  178.1560  140.2260 O   0  0  0  0  0  0  0  0  0  0  0  0
  191.3050  177.9110  144.8600 C   0  0  0  0  0  3  0  0  0  0  0  0
  191.6740  177.1770  143.7790 N   0  0  0  0  0  0  0  0  0  0  0  0
  190.8240  176.9410  142.7390 C   0  0  0  0  0  0  0  0  0  0  0  0
  189.0990  178.1600  143.9180 C   0  0  0  0  0  3  0  0  0  0  0  0
  186.2490  178.8510  139.4120 N   0  0  0  0  0  0  0  0  0  0  0  0
  187.6930  178.2870  141.2510 C   0  0  2  0  0  3  0  0  0  0  0  0
  190.7730  176.0780  137.9140 C   0  0  0  0  0  3  0  0  0  0  0  0
  189.2940  174.2390  137.0410 O   0  0  0  0  0  0  0  0  0  0  0  0
  191.7260  173.8840  137.0370 C   0  0  0  0  0  2  0  0  0  0  0  0
  190.5720  174.8530  137.0690 C   0  0  0  0  0  0  0  0  0  0  0  0
  188.3680  175.2600  136.7740 C   0  0  0  0  0  2  0  0  0  0  0  0
  188.3150  176.2300  137.9790 C   0  0  0  0  0  2  0  0  0  0  0  0
  189.6930  176.7610  138.3300 C   0  0  0  0  0  0  0  0  0  0  0  0
  191.3920  174.7190  135.7890 C   0  0  0  0  0  2  0  0  0  0  0  0
  183.6210  180.0180  139.0930 C   0  0  0  0  0  3  0  0  0  0  0  0
  182.3220  180.0240  138.8290 C   0  0  0  0  0  2  0  0  0  0  0  0
  1 10  1  0  0  0  0
  2  5  1  0  0  0  0
  4  1  1  6  0  0  0
  4 18  1  0  0  0  0
  5  9  1  0  0  0  0
  6 11  1  0  0  0  0
  7  8  1  0  0  0  0
  8 15  1  0  0  0  0
 10 12  1  0  0  0  0
 11 16  1  0  0  0  0
 12  7  1  0  0  0  0
 13  3  1  0  0  0  0
 14 13  2  0  0  0  0
 15 11  2  0  0  0  0
 15 14  1  0  0  0  0
 16  3  2  0  0  0  0
 17  4  1  0  0  0  0
 17  5  2  0  0  0  0
 18  6  1  1  0  0  0
 18  9  1  0  0  0  0
 19 25  2  0  0  0  0
 20 22  1  0  0  0  0
 21 22  1  0  0  0  0
 22 19  1  0  0  0  0
 23 20  1  0  0  0  0
 23 24  1  0  0  0  0
 24 25  1  0  0  0  0
 25 10  1  0  0  0  0
 26 21  1  0  0  0  0
 26 22  1  0  0  0  0
 27  2  1  0  0  0  0
 28 27  2  0  0  0  0
M  END
>  <MODEL>
6

>  <REMARK>
 VINA RESULT:      -6.0      1.011      1.039
  Name = 
  2 active torsions:
  status: ('A' for Active; 'I' for Inactive)
    1  A    between atoms: N_2  and  C_7
    2  A    between atoms: N_16  and  C_24
                            x       y       z     vdW  Elec       q    Type
                         _______ _______ _______ _____ _____    ______ ____

>  <TORSDO>
F 2

$$$$
=
 OpenBabel11032420093D

 28 32  0  0  1  0  0  0  0  0999 V2000
  182.7730  176.0320  138.5420 C   0  0  0  0  0  2  0  0  0  0  0  0
  186.8230  178.6040  138.6440 N   0  0  0  0  0  2  0  0  0  0  0  0
  181.4160  178.6280  143.9660 C   0  0  0  0  0  3  0  0  0  0  0  0
  183.3560  177.4550  138.6430 C   0  0  2  0  0  3  0  0  0  0  0  0
  185.4150  178.4490  138.8360 C   0  0  0  0  0  0  0  0  0  0  0  0
  181.9170  178.6600  140.2590 N   0  0  0  0  0  2  0  0  0  0  0  0
  179.1680  176.1130  139.9680 S   0  0  0  0  0  0  0  0  0  0  0  0
  179.0370  177.8850  140.4780 C   0  0  0  0  0  2  0  0  0  0  0  0
  184.5580  179.3440  140.1370 S   0  0  0  0  0  0  0  0  0  0  0  0
  181.3130  176.1070  138.5800 N   0  0  0  0  0  0  0  0  0  0  0  0
  181.2680  178.5770  141.5440 C   0  0  0  0  0  0  0  0  0  0  0  0
  180.8740  176.2980  139.8590 O   0  0  0  0  0  0  0  0  0  0  0  0
  180.0550  178.3070  144.0440 C   0  0  0  0  0  3  0  0  0  0  0  0
  179.3350  178.1300  142.9060 N   0  0  0  0  0  0  0  0  0  0  0  0
  179.9010  178.2190  141.6690 C   0  0  0  0  0  0  0  0  0  0  0  0
  182.0140  178.7640  142.7130 C   0  0  0  0  0  3  0  0  0  0  0  0
  184.7520  177.4970  138.2630 N   0  0  0  0  0  0  0  0  0  0  0  0
  183.2430  178.0780  140.0440 C   0  0  2  0  0  3  0  0  0  0  0  0
  180.7160  178.1170  137.3680 C   0  0  0  0  0  3  0  0  0  0  0  0
  179.6150  178.0200  135.1070 O   0  0  0  0  0  0  0  0  0  0  0  0
  180.3630  180.2040  135.9500 C   0  0  0  0  0  2  0  0  0  0  0  0
  179.9640  178.7820  136.2510 C   0  0  0  0  0  0  0  0  0  0  0  0
  178.9950  176.8530  135.5800 C   0  0  0  0  0  2  0  0  0  0  0  0
  180.0360  175.9890  136.3300 C   0  0  0  0  0  2  0  0  0  0  0  0
  180.7290  176.7750  137.4280 C   0  0  0  0  0  0  0  0  0  0  0  0
  179.0020  179.9130  136.6030 C   0  0  0  0  0  2  0  0  0  0  0  0
  187.5780  177.8030  137.7280 C   0  0  0  0  0  3  0  0  0  0  0  0
  188.4570  178.3830  136.9220 C   0  0  0  0  0  2  0  0  0  0  0  0
  1 10  1  0  0  0  0
  2  5  1  0  0  0  0
  3 13  1  0  0  0  0
  4  1  1  1  0  0  0
  4 18  1  0  0  0  0
  5  9  1  0  0  0  0
  6 11  1  0  0  0  0
  7  8  1  0  0  0  0
  8 15  1  0  0  0  0
 10 12  1  0  0  0  0
 11 15  2  0  0  0  0
 11 16  1  0  0  0  0
 12  7  1  0  0  0  0
 14 13  2  0  0  0  0
 15 14  1  0  0  0  0
 16  3  2  0  0  0  0
 17  4  1  0  0  0  0
 17  5  2  0  0  0  0
 18  9  1  6  0  0  0
 18  6  1  0  0  0  0
 19 25  2  0  0  0  0
 20 23  1  0  0  0  0
 20 22  1  0  0  0  0
 21 22  1  0  0  0  0
 21 26  1  0  0  0  0
 22 26  1  0  0  0  0
 22 19  1  0  0  0  0
 23 24  1  0  0  0  0
 24 25  1  0  0  0  0
 25 10  1  0  0  0  0
 27  2  1  0  0  0  0
 28 27  2  0  0  0  0
M  END
>  <MODEL>
7

>  <REMARK>
 VINA RESULT:      -5.9      5.291      8.940
  Name = 
  2 active torsions:
  status: ('A' for Active; 'I' for Inactive)
    1  A    between atoms: N_2  and  C_7
    2  A    between atoms: N_16  and  C_24
                            x       y       z     vdW  Elec       q    Type
                         _______ _______ _______ _____ _____    ______ ____

>  <TORSDO>
F 2

$$$$
=
 OpenBabel11032420093D

 28 32  0  0  1  0  0  0  0  0999 V2000
  187.7730  176.3000  143.0760 C   0  0  0  0  0  2  0  0  0  0  0  0
  184.0160  179.1680  143.9020 N   0  0  0  0  0  2  0  0  0  0  0  0
  187.5960  178.3460  137.2640 C   0  0  0  0  0  3  0  0  0  0  0  0
  187.2620  177.7530  143.0090 C   0  0  2  0  0  3  0  0  0  0  0  0
  185.2940  178.8880  143.3260 C   0  0  0  0  0  0  0  0  0  0  0  0
  188.2190  178.7100  140.9340 N   0  0  0  0  0  2  0  0  0  0  0  0
  190.7920  175.9830  140.6640 S   0  0  0  0  0  0  0  0  0  0  0  0
  190.8600  177.6950  139.9660 C   0  0  0  0  0  2  0  0  0  0  0  0
  185.7720  179.6080  141.7510 S   0  0  0  0  0  0  0  0  0  0  0  0
  189.1590  176.2560  142.6090 N   0  0  0  0  0  0  0  0  0  0  0  0
  188.4510  178.4750  139.5310 C   0  0  0  0  0  0  0  0  0  0  0  0
  189.2080  176.3110  141.2450 O   0  0  0  0  0  0  0  0  0  0  0  0
  188.8530  177.9130  136.8260 C   0  0  0  0  0  3  0  0  0  0  0  0
  189.8680  177.7700  137.7170 N   0  0  0  0  0  0  0  0  0  0  0  0
  189.7000  178.0000  139.0510 C   0  0  0  0  0  0  0  0  0  0  0  0
  187.4040  178.6270  138.6170 C   0  0  0  0  0  3  0  0  0  0  0  0
  186.0460  177.9350  143.7730 N   0  0  0  0  0  0  0  0  0  0  0  0
  186.9870  178.2530  141.5820 C   0  0  2  0  0  3  0  0  0  0  0  0
  190.4570  176.4280  144.6470 C   0  0  0  0  0  3  0  0  0  0  0  0
  191.9760  178.3860  145.0850 O   0  0  0  0  0  0  0  0  0  0  0  0
  192.0550  176.4770  146.6300 C   0  0  0  0  0  2  0  0  0  0  0  0
  191.2910  177.2510  145.5870 C   0  0  0  0  0  0  0  0  0  0  0  0
  191.0290  179.1400  144.3730 C   0  0  0  0  0  2  0  0  0  0  0  0
  190.5900  178.3530  143.1150 C   0  0  0  0  0  2  0  0  0  0  0  0
  190.0920  176.9650  143.4700 C   0  0  0  0  0  0  0  0  0  0  0  0
  190.8530  177.3410  147.0460 C   0  0  0  0  0  2  0  0  0  0  0  0
  183.5260  178.5040  145.0730 C   0  0  0  0  0  3  0  0  0  0  0  0
  184.1810  178.6280  146.2190 C   0  0  0  0  0  2  0  0  0  0  0  0
  2 27  1  0  0  0  0
  3 16  1  0  0  0  0
  4  1  1  6  0  0  0
  4 17  1  0  0  0  0
  5 17  2  0  0  0  0
  5  2  1  0  0  0  0
  7 12  1  0  0  0  0
  8  7  1  0  0  0  0
  9  5  1  0  0  0  0
 10  1  1  0  0  0  0
 10 25  1  0  0  0  0
 11  6  1  0  0  0  0
 12 10  1  0  0  0  0
 13  3  2  0  0  0  0
 13 14  1  0  0  0  0
 14 15  2  0  0  0  0
 15 11  1  0  0  0  0
 15  8  1  0  0  0  0
 16 11  2  0  0  0  0
 18  6  1  1  0  0  0
 18  9  1  0  0  0  0
 18  4  1  0  0  0  0
 19 22  1  0  0  0  0
 20 22  1  0  0  0  0
 21 26  1  0  0  0  0
 22 21  1  0  0  0  0
 22 26  1  0  0  0  0
 23 20  1  0  0  0  0
 24 25  1  0  0  0  0
 24 23  1  0  0  0  0
 25 19  2  0  0  0  0
 27 28  2  0  0  0  0
M  END
>  <MODEL>
8

>  <REMARK>
 VINA RESULT:      -5.8      2.558      5.937
  Name = 
  2 active torsions:
  status: ('A' for Active; 'I' for Inactive)
    1  A    between atoms: N_2  and  C_7
    2  A    between atoms: N_16  and  C_24
                            x       y       z     vdW  Elec       q    Type
                         _______ _______ _______ _____ _____    ______ ____

>  <TORSDO>
F 2

$$$$
=
 OpenBabel11032420093D

 28 32  0  0  1  0  0  0  0  0999 V2000
  186.8240  176.2000  143.9060 C   0  0  0  0  0  2  0  0  0  0  0  0
  183.1670  179.1770  143.0210 N   0  0  0  0  0  2  0  0  0  0  0  0
  188.9330  177.7110  138.3150 C   0  0  0  0  0  3  0  0  0  0  0  0
  186.4420  177.6460  143.5360 C   0  0  2  0  0  3  0  0  0  0  0  0
  184.5530  178.8300  142.9950 C   0  0  0  0  0  0  0  0  0  0  0  0
  188.1500  178.3990  141.9070 N   0  0  0  0  0  2  0  0  0  0  0  0
  190.5100  175.6280  142.8470 S   0  0  0  0  0  0  0  0  0  0  0  0
  190.9120  177.2680  142.0920 C   0  0  0  0  0  2  0  0  0  0  0  0
  185.6200  179.3970  141.6650 S   0  0  0  0  0  0  0  0  0  0  0  0
  188.2800  176.0970  144.0020 N   0  0  0  0  0  0  0  0  0  0  0  0
  188.8810  178.0350  140.7190 C   0  0  0  0  0  0  0  0  0  0  0  0
  188.8400  176.0260  142.7580 O   0  0  0  0  0  0  0  0  0  0  0  0
  190.2420  177.2250  138.4200 C   0  0  0  0  0  3  0  0  0  0  0  0
  190.8410  177.1500  139.6370 N   0  0  0  0  0  0  0  0  0  0  0  0
  190.1950  177.5030  140.7850 C   0  0  0  0  0  0  0  0  0  0  0  0
  188.2610  178.1160  139.4680 C   0  0  0  0  0  3  0  0  0  0  0  0
  185.0390  177.9120  143.7670 N   0  0  0  0  0  0  0  0  0  0  0  0
  186.7460  178.0180  142.0760 C   0  0  2  0  0  3  0  0  0  0  0  0
  188.2220  176.9260  146.2770 C   0  0  0  0  0  3  0  0  0  0  0  0
  190.0700  178.3590  147.2090 O   0  0  0  0  0  0  0  0  0  0  0  0
  188.3310  177.5490  148.7450 C   0  0  0  0  0  2  0  0  0  0  0  0
  188.7480  177.8590  147.3300 C   0  0  0  0  0  0  0  0  0  0  0  0
  190.1840  178.8680  145.9050 C   0  0  0  0  0  2  0  0  0  0  0  0
  190.1070  177.7010  144.8920 C   0  0  0  0  0  2  0  0  0  0  0  0
  188.8540  176.8690  145.0920 C   0  0  0  0  0  0  0  0  0  0  0  0
  187.7590  178.7850  148.0310 C   0  0  0  0  0  2  0  0  0  0  0  0
  182.2430  178.6280  143.9690 C   0  0  0  0  0  3  0  0  0  0  0  0
  180.9460  178.6320  143.6960 C   0  0  0  0  0  2  0  0  0  0  0  0
  1 10  1  0  0  0  0
  2 27  1  0  0  0  0
  3 13  2  0  0  0  0
  3 16  1  0  0  0  0
  4 17  1  0  0  0  0
  4  1  1  6  0  0  0
  5  2  1  0  0  0  0
  5 17  2  0  0  0  0
  6 18  1  0  0  0  0
  8  7  1  0  0  0  0
  9  5  1  0  0  0  0
 10 25  1  0  0  0  0
 11 15  1  0  0  0  0
 11  6  1  0  0  0  0
 12  7  1  0  0  0  0
 12 10  1  0  0  0  0
 13 14  1  0  0  0  0
 14 15  2  0  0  0  0
 15  8  1  0  0  0  0
 16 11  2  0  0  0  0
 18  9  1  1  0  0  0
 18  4  1  0  0  0  0
 19 22  1  0  0  0  0
 20 22  1  0  0  0  0
 22 26  1  0  0  0  0
 22 21  1  0  0  0  0
 23 20  1  0  0  0  0
 24 25  1  0  0  0  0
 24 23  1  0  0  0  0
 25 19  2  0  0  0  0
 26 21  1  0  0  0  0
 28 27  2  0  0  0  0
M  END
>  <MODEL>
9

>  <REMARK>
 VINA RESULT:      -5.8      2.519      6.300
  Name = 
  2 active torsions:
  status: ('A' for Active; 'I' for Inactive)
    1  A    between atoms: N_2  and  C_7
    2  A    between atoms: N_16  and  C_24
                            x       y       z     vdW  Elec       q    Type
                         _______ _______ _______ _____ _____    ______ ____

>  <TORSDO>
F 2

$$$$
