=
 OpenBabel11032420363D

 27 31  0  0  1  0  0  0  0  0999 V2000
  185.2510  178.7340  140.9500 C   0  0  0  0  0  3  0  0  0  0  0  0
  183.9310  178.7490  141.4040 C   0  0  0  0  0  3  0  0  0  0  0  0
  183.6510  178.4810  142.7460 C   0  0  0  0  0  3  0  0  0  0  0  0
  186.3030  178.4610  141.8340 C   0  0  0  0  0  0  0  0  0  0  0  0
  184.6930  178.2070  143.6370 C   0  0  0  0  0  3  0  0  0  0  0  0
  186.0240  178.2040  143.1950 C   0  0  0  0  0  0  0  0  0  0  0  0
  188.0430  178.0710  148.8480 O   0  0  0  0  0  0  0  0  0  0  0  0
  187.9350  177.8370  146.4500 C   0  0  0  0  0  0  0  0  0  0  0  0
  186.0790  178.6070  147.6290 N   0  0  0  0  0  0  0  0  0  0  0  0
  187.0930  177.9130  144.1690 C   0  0  0  0  0  0  0  0  0  0  0  0
  189.1480  177.3350  146.0010 C   0  0  0  0  0  0  0  0  0  0  0  0
  188.3320  177.3970  143.7140 C   0  0  0  0  0  3  0  0  0  0  0  0
  191.1880  176.5270  145.7610 C   0  0  0  0  0  3  0  0  0  0  0  0
  185.8360  178.5490  146.2130 C   0  0  0  0  0  3  0  0  0  0  0  0
  190.3500  176.9490  146.7120 C   0  0  0  0  0  2  0  0  0  0  0  0
  189.3370  177.1200  144.6560 C   0  0  0  0  0  0  0  0  0  0  0  0
  187.4220  178.1570  147.7560 C   0  0  0  0  0  0  0  0  0  0  0  0
  190.5420  176.6310  144.4360 C   0  0  0  0  0  3  0  0  0  0  0  0
  186.9180  178.1120  145.5590 C   0  0  0  0  0  0  0  0  0  0  0  0
  188.9970  178.9680  141.1400 C   0  0  0  0  0  2  0  0  0  0  0  0
  188.7320  177.7560  140.5280 C   0  0  1  0  0  3  0  0  0  0  0  0
  187.6330  178.3900  141.3200 N   0  0  0  0  0  0  0  0  0  0  0  0
  188.9200  178.9980  138.3550 N   0  0  0  0  0  1  0  0  0  0  0  0
  188.3700  177.8280  139.0330 C   0  0  1  0  0  3  0  0  0  0  0  0
  188.0730  176.0330  137.4810 O   0  0  0  0  0  0  0  0  0  0  0  0
  190.0750  176.0080  138.6570 N   0  0  0  0  0  1  0  0  0  0  0  0
  188.8140  176.5850  138.3370 C   0  0  0  0  0  0  0  0  0  0  0  0
  1  2  2  0  0  0  0
  1  4  1  0  0  0  0
  2  3  1  0  0  0  0
  3  5  2  0  0  0  0
  4  6  2  0  0  0  0
  6  5  1  0  0  0  0
  6 10  1  0  0  0  0
  8 17  1  0  0  0  0
  9 17  1  0  0  0  0
 10 19  1  0  0  0  0
 11  8  1  0  0  0  0
 11 15  1  0  0  0  0
 12 10  2  0  0  0  0
 12 16  1  0  0  0  0
 13 15  1  0  0  0  0
 14  9  2  0  0  0  0
 16 11  2  0  0  0  0
 17  7  2  0  0  0  0
 18 16  1  0  0  0  0
 18 13  2  0  0  0  0
 19 14  1  0  0  0  0
 19  8  2  0  0  0  0
 20 22  1  0  0  0  0
 21 24  1  6  0  0  0
 21 20  1  0  0  0  0
 21 22  1  0  0  0  0
 22  4  1  0  0  0  0
 24 23  1  6  0  0  0
 25 27  2  0  0  0  0
 27 26  1  0  0  0  0
 27 24  1  0  0  0  0
M  END
>  <MODEL>
1

>  <REMARK>
 VINA RESULT:      -9.7      0.000      0.000
  Name = 
  4 active torsions:
  status: ('A' for Active; 'I' for Inactive)
    1  A    between atoms: C_6  and  C_22
    2  A    between atoms: C_9  and  C_12
    3  A    between atoms: C_12  and  C_25
    4  A    between atoms: N_13  and  C_20
                            x       y       z     vdW  Elec       q    Type
                         _______ _______ _______ _____ _____    ______ ____

>  <TORSDO>
F 4

$$$$
=
 OpenBabel11032420363D

 27 31  0  0  1  0  0  0  0  0999 V2000
  187.8650  177.6120  146.5200 C   0  0  0  0  0  3  0  0  0  0  0  0
  187.2760  178.2450  147.6170 C   0  0  0  0  0  3  0  0  0  0  0  0
  186.0920  178.9680  147.4530 C   0  0  0  0  0  3  0  0  0  0  0  0
  187.2710  177.6880  145.2540 C   0  0  0  0  0  0  0  0  0  0  0  0
  185.4910  179.0510  146.1930 C   0  0  0  0  0  3  0  0  0  0  0  0
  186.0650  178.4070  145.0880 C   0  0  0  0  0  0  0  0  0  0  0  0
  181.0640  178.9110  141.8050 O   0  0  0  0  0  0  0  0  0  0  0  0
  183.3890  178.7320  142.4210 C   0  0  0  0  0  0  0  0  0  0  0  0
  181.7480  178.8100  144.0750 N   0  0  0  0  0  2  0  0  0  0  0  0
  185.3970  178.5170  143.7780 C   0  0  0  0  0  0  0  0  0  0  0  0
  184.1540  178.7370  141.2640 C   0  0  0  0  0  0  0  0  0  0  0  0
  186.1750  178.5250  142.5940 C   0  0  0  0  0  3  0  0  0  0  0  0
  184.9400  178.8050  139.2030 C   0  0  0  0  0  3  0  0  0  0  0  0
  183.0700  178.6860  144.6280 C   0  0  0  0  0  3  0  0  0  0  0  0
  183.7820  178.8470  139.8680 C   0  0  0  0  0  3  0  0  0  0  0  0
  185.5210  178.6370  141.3550 C   0  0  0  0  0  0  0  0  0  0  0  0
  181.9750  178.8300  142.6700 C   0  0  0  0  0  0  0  0  0  0  0  0
  186.0640  178.6740  140.1530 C   0  0  0  0  0  3  0  0  0  0  0  0
  183.9910  178.6360  143.6590 C   0  0  0  0  0  0  0  0  0  0  0  0
  188.1420  175.9370  143.2120 C   0  0  0  0  0  2  0  0  0  0  0  0
  188.9630  177.0400  143.0590 C   0  0  1  0  0  3  0  0  0  0  0  0
  187.9350  177.0830  144.1450 N   0  0  0  0  0  0  0  0  0  0  0  0
  190.9680  175.6110  143.5480 N   0  0  0  0  0  1  0  0  0  0  0  0
  190.3580  176.9280  143.7020 C   0  0  1  0  0  3  0  0  0  0  0  0
  191.7080  177.8750  141.9690 O   0  0  0  0  0  0  0  0  0  0  0  0
  191.6480  179.0810  143.9520 N   0  0  0  0  0  1  0  0  0  0  0  0
  191.2650  177.9740  143.1440 C   0  0  0  0  0  0  0  0  0  0  0  0
  1  2  1  0  0  0  0
  3  2  2  0  0  0  0
  4  1  2  0  0  0  0
  5  3  1  0  0  0  0
  6  4  1  0  0  0  0
  6  5  2  0  0  0  0
  7 17  2  0  0  0  0
  8 17  1  0  0  0  0
  8 19  1  0  0  0  0
  9 14  1  0  0  0  0
 10  6  1  0  0  0  0
 11 16  1  0  0  0  0
 11  8  2  0  0  0  0
 12 10  2  0  0  0  0
 13 15  2  0  0  0  0
 13 18  1  0  0  0  0
 15 11  1  0  0  0  0
 16 12  1  0  0  0  0
 17  9  1  0  0  0  0
 18 16  2  0  0  0  0
 19 10  1  0  0  0  0
 19 14  2  0  0  0  0
 20 22  1  0  0  0  0
 21 20  1  0  0  0  0
 21 24  1  1  0  0  0
 21 22  1  0  0  0  0
 22  4  1  0  0  0  0
 24 23  1  6  0  0  0
 25 27  2  0  0  0  0
 27 24  1  0  0  0  0
 27 26  1  0  0  0  0
M  END
>  <MODEL>
2

>  <REMARK>
 VINA RESULT:      -9.6      3.024      5.799
  Name = 
  4 active torsions:
  status: ('A' for Active; 'I' for Inactive)
    1  A    between atoms: C_6  and  C_22
    2  A    between atoms: C_9  and  C_12
    3  A    between atoms: C_12  and  C_25
    4  A    between atoms: N_13  and  C_20
                            x       y       z     vdW  Elec       q    Type
                         _______ _______ _______ _____ _____    ______ ____

>  <TORSDO>
F 4

$$$$
=
 OpenBabel11032420363D

 27 31  0  0  1  0  0  0  0  0999 V2000
  184.0870  178.9770  144.2250 C   0  0  0  0  0  3  0  0  0  0  0  0
  183.5870  178.8860  145.5260 C   0  0  0  0  0  3  0  0  0  0  0  0
  184.3920  178.3790  146.5500 C   0  0  0  0  0  3  0  0  0  0  0  0
  185.3960  178.5720  143.9380 C   0  0  0  0  0  0  0  0  0  0  0  0
  185.7010  177.9720  146.2740 C   0  0  0  0  0  3  0  0  0  0  0  0
  186.2180  178.0730  144.9750 C   0  0  0  0  0  0  0  0  0  0  0  0
  191.7450  176.8580  146.9820 O   0  0  0  0  0  0  0  0  0  0  0  0
  189.8500  177.1240  145.5130 C   0  0  0  0  0  0  0  0  0  0  0  0
  189.6230  177.5440  147.7940 N   0  0  0  0  0  2  0  0  0  0  0  0
  187.6050  177.6350  144.7280 C   0  0  0  0  0  0  0  0  0  0  0  0
  190.2390  176.7850  144.2250 C   0  0  0  0  0  0  0  0  0  0  0  0
  188.0050  177.2840  143.4140 C   0  0  0  0  0  3  0  0  0  0  0  0
  191.2830  176.1410  142.3910 C   0  0  0  0  0  3  0  0  0  0  0  0
  188.3980  177.7720  147.0760 C   0  0  0  0  0  3  0  0  0  0  0  0
  191.5030  176.3150  143.6970 C   0  0  0  0  0  3  0  0  0  0  0  0
  189.3280  176.8640  143.1990 C   0  0  0  0  0  0  0  0  0  0  0  0
  190.5340  177.1400  146.7790 C   0  0  0  0  0  0  0  0  0  0  0  0
  189.8850  176.4880  142.0640 C   0  0  0  0  0  3  0  0  0  0  0  0
  188.5570  177.5320  145.7700 C   0  0  0  0  0  0  0  0  0  0  0  0
  186.8100  179.0920  141.5450 C   0  0  0  0  0  2  0  0  0  0  0  0
  185.7470  178.3100  141.1250 C   0  0  1  0  0  3  0  0  0  0  0  0
  185.8500  178.6200  142.5860 N   0  0  0  0  0  0  0  0  0  0  0  0
  184.8340  179.7340  139.2710 N   0  0  0  0  0  1  0  0  0  0  0  0
  184.5450  179.0760  140.5410 C   0  0  1  0  0  3  0  0  0  0  0  0
  183.4270  177.2010  139.5650 O   0  0  0  0  0  0  0  0  0  0  0  0
  182.2000  178.3760  141.1470 N   0  0  0  0  0  1  0  0  0  0  0  0
  183.3800  178.1580  140.3830 C   0  0  0  0  0  0  0  0  0  0  0  0
  1  2  1  0  0  0  0
  2  3  2  0  0  0  0
  4  1  2  0  0  0  0
  4  6  1  0  0  0  0
  5  3  1  0  0  0  0
  6  5  2  0  0  0  0
  8 19  1  0  0  0  0
  8 17  1  0  0  0  0
 10  6  1  0  0  0  0
 10 19  1  0  0  0  0
 11  8  2  0  0  0  0
 12 10  2  0  0  0  0
 13 15  2  0  0  0  0
 14  9  1  0  0  0  0
 15 11  1  0  0  0  0
 16 12  1  0  0  0  0
 16 11  1  0  0  0  0
 17  7  2  0  0  0  0
 17  9  1  0  0  0  0
 18 13  1  0  0  0  0
 18 16  2  0  0  0  0
 19 14  2  0  0  0  0
 20 22  1  0  0  0  0
 21 24  1  6  0  0  0
 21 20  1  0  0  0  0
 21 22  1  0  0  0  0
 22  4  1  0  0  0  0
 24 23  1  6  0  0  0
 25 27  2  0  0  0  0
 27 24  1  0  0  0  0
 27 26  1  0  0  0  0
M  END
>  <MODEL>
3

>  <REMARK>
 VINA RESULT:      -9.4      2.531      3.601
  Name = 
  4 active torsions:
  status: ('A' for Active; 'I' for Inactive)
    1  A    between atoms: C_6  and  C_22
    2  A    between atoms: C_9  and  C_12
    3  A    between atoms: C_12  and  C_25
    4  A    between atoms: N_13  and  C_20
                            x       y       z     vdW  Elec       q    Type
                         _______ _______ _______ _____ _____    ______ ____

>  <TORSDO>
F 4

$$$$
=
 OpenBabel11032420363D

 27 31  0  0  1  0  0  0  0  0999 V2000
  185.1760  178.6150  139.1630 C   0  0  0  0  0  3  0  0  0  0  0  0
  183.7800  178.5920  139.1460 C   0  0  0  0  0  3  0  0  0  0  0  0
  183.0700  178.3960  140.3330 C   0  0  0  0  0  3  0  0  0  0  0  0
  185.8740  178.4530  140.3670 C   0  0  0  0  0  0  0  0  0  0  0  0
  183.7570  178.2330  141.5400 C   0  0  0  0  0  3  0  0  0  0  0  0
  185.1580  178.2700  141.5720 C   0  0  0  0  0  0  0  0  0  0  0  0
  185.2000  178.7350  147.5580 O   0  0  0  0  0  0  0  0  0  0  0  0
  185.8850  178.2630  145.2940 C   0  0  0  0  0  0  0  0  0  0  0  0
  183.7550  179.1110  145.7130 N   0  0  0  0  0  0  0  0  0  0  0  0
  185.8420  178.0970  142.8670 C   0  0  0  0  0  0  0  0  0  0  0  0
  187.1710  177.7430  145.3210 C   0  0  0  0  0  0  0  0  0  0  0  0
  187.1540  177.5630  142.8990 C   0  0  0  0  0  3  0  0  0  0  0  0
  189.1630  176.9550  145.8490 C   0  0  0  0  0  3  0  0  0  0  0  0
  183.9910  178.9080  144.3090 C   0  0  0  0  0  3  0  0  0  0  0  0
  188.0650  177.4530  146.4230 C   0  0  0  0  0  2  0  0  0  0  0  0
  187.7880  177.4000  144.1430 C   0  0  0  0  0  0  0  0  0  0  0  0
  184.9750  178.7010  146.3190 C   0  0  0  0  0  0  0  0  0  0  0  0
  188.9920  176.9150  144.3820 C   0  0  0  0  0  3  0  0  0  0  0  0
  185.2220  178.4300  144.0950 C   0  0  0  0  0  0  0  0  0  0  0  0
  188.6300  179.0240  140.6410 C   0  0  0  0  0  2  0  0  0  0  0  0
  188.6190  177.8220  139.9560 C   0  0  1  0  0  3  0  0  0  0  0  0
  187.3010  178.4180  140.3360 N   0  0  0  0  0  0  0  0  0  0  0  0
  188.8970  179.2950  137.9430 N   0  0  0  0  0  1  0  0  0  0  0  0
  188.7850  177.9230  138.4280 C   0  0  1  0  0  3  0  0  0  0  0  0
  190.8240  176.7370  138.8280 O   0  0  0  0  0  0  0  0  0  0  0  0
  190.1530  176.8380  136.6080 N   0  0  0  0  0  1  0  0  0  0  0  0
  189.9710  177.1320  137.9880 C   0  0  0  0  0  0  0  0  0  0  0  0
  1  4  1  0  0  0  0
  2  1  2  0  0  0  0
  2  3  1  0  0  0  0
  3  5  2  0  0  0  0
  4  6  2  0  0  0  0
  5  6  1  0  0  0  0
  6 10  1  0  0  0  0
  8 11  1  0  0  0  0
  8 17  1  0  0  0  0
  9 17  1  0  0  0  0
 10 12  2  0  0  0  0
 10 19  1  0  0  0  0
 11 15  1  0  0  0  0
 12 16  1  0  0  0  0
 13 15  1  0  0  0  0
 14  9  2  0  0  0  0
 16 18  1  0  0  0  0
 16 11  2  0  0  0  0
 17  7  2  0  0  0  0
 18 13  2  0  0  0  0
 19 14  1  0  0  0  0
 19  8  2  0  0  0  0
 21 24  1  6  0  0  0
 21 22  1  0  0  0  0
 21 20  1  0  0  0  0
 22  4  1  0  0  0  0
 22 20  1  0  0  0  0
 24 23  1  1  0  0  0
 26 27  1  0  0  0  0
 27 24  1  0  0  0  0
 27 25  2  0  0  0  0
M  END
>  <MODEL>
4

>  <REMARK>
 VINA RESULT:      -9.2      1.461      2.069
  Name = 
  4 active torsions:
  status: ('A' for Active; 'I' for Inactive)
    1  A    between atoms: C_6  and  C_22
    2  A    between atoms: C_9  and  C_12
    3  A    between atoms: C_12  and  C_25
    4  A    between atoms: N_13  and  C_20
                            x       y       z     vdW  Elec       q    Type
                         _______ _______ _______ _____ _____    ______ ____

>  <TORSDO>
F 4

$$$$
=
 OpenBabel11032420363D

 27 31  0  0  1  0  0  0  0  0999 V2000
  190.1640  176.7600  146.2180 C   0  0  0  0  0  3  0  0  0  0  0  0
  190.0100  177.2230  147.5260 C   0  0  0  0  0  3  0  0  0  0  0  0
  188.8840  177.9730  147.8750 C   0  0  0  0  0  3  0  0  0  0  0  0
  189.1890  177.0340  145.2500 C   0  0  0  0  0  0  0  0  0  0  0  0
  187.9060  178.2520  146.9160 C   0  0  0  0  0  3  0  0  0  0  0  0
  188.0410  177.7790  145.6030 C   0  0  0  0  0  0  0  0  0  0  0  0
  182.3120  179.0480  144.3330 O   0  0  0  0  0  0  0  0  0  0  0  0
  184.6720  178.6210  144.0790 C   0  0  0  0  0  0  0  0  0  0  0  0
  183.7120  178.6280  146.2020 N   0  0  0  0  0  2  0  0  0  0  0  0
  186.9840  178.0940  144.6240 C   0  0  0  0  0  0  0  0  0  0  0  0
  184.9930  178.7040  142.7320 C   0  0  0  0  0  0  0  0  0  0  0  0
  187.3090  178.1830  143.2480 C   0  0  0  0  0  3  0  0  0  0  0  0
  185.0330  178.9550  140.5400 C   0  0  0  0  0  3  0  0  0  0  0  0
  185.1200  178.3390  146.2450 C   0  0  0  0  0  3  0  0  0  0  0  0
  184.1830  179.0060  141.5700 C   0  0  0  0  0  3  0  0  0  0  0  0
  186.2900  178.4900  142.3300 C   0  0  0  0  0  0  0  0  0  0  0  0
  183.4480  178.7960  144.8150 C   0  0  0  0  0  0  0  0  0  0  0  0
  186.3910  178.6270  141.0220 C   0  0  0  0  0  3  0  0  0  0  0  0
  185.6440  178.3330  145.0150 C   0  0  0  0  0  0  0  0  0  0  0  0
  189.6710  175.5220  142.9090 C   0  0  0  0  0  2  0  0  0  0  0  0
  189.6160  176.8240  142.4430 C   0  0  1  0  0  3  0  0  0  0  0  0
  189.4110  176.6000  143.9080 N   0  0  0  0  0  0  0  0  0  0  0  0
  192.0550  176.9320  143.0230 N   0  0  0  0  0  1  0  0  0  0  0  0
  190.9750  177.5170  142.2340 C   0  0  1  0  0  3  0  0  0  0  0  0
  192.5490  177.5470  140.4330 O   0  0  0  0  0  0  0  0  0  0  0  0
  190.3170  177.4590  139.8000 N   0  0  0  0  0  1  0  0  0  0  0  0
  191.3410  177.5030  140.7880 C   0  0  0  0  0  0  0  0  0  0  0  0
  1  2  1  0  0  0  0
  2  3  2  0  0  0  0
  4  6  1  0  0  0  0
  4  1  2  0  0  0  0
  5  3  1  0  0  0  0
  6  5  2  0  0  0  0
  7 17  2  0  0  0  0
  8 17  1  0  0  0  0
  8 19  1  0  0  0  0
  9 14  1  0  0  0  0
 10 19  1  0  0  0  0
 10  6  1  0  0  0  0
 11  8  2  0  0  0  0
 12 10  2  0  0  0  0
 13 18  1  0  0  0  0
 13 15  2  0  0  0  0
 15 11  1  0  0  0  0
 16 11  1  0  0  0  0
 16 12  1  0  0  0  0
 17  9  1  0  0  0  0
 18 16  2  0  0  0  0
 19 14  2  0  0  0  0
 20 22  1  0  0  0  0
 21 24  1  1  0  0  0
 21 20  1  0  0  0  0
 21 22  1  0  0  0  0
 22  4  1  0  0  0  0
 24 23  1  1  0  0  0
 25 27  2  0  0  0  0
 26 27  1  0  0  0  0
 27 24  1  0  0  0  0
M  END
>  <MODEL>
5

>  <REMARK>
 VINA RESULT:      -9.1      2.496      5.097
  Name = 
  4 active torsions:
  status: ('A' for Active; 'I' for Inactive)
    1  A    between atoms: C_6  and  C_22
    2  A    between atoms: C_9  and  C_12
    3  A    between atoms: C_12  and  C_25
    4  A    between atoms: N_13  and  C_20
                            x       y       z     vdW  Elec       q    Type
                         _______ _______ _______ _____ _____    ______ ____

>  <TORSDO>
F 4

$$$$
=
 OpenBabel11032420363D

 27 31  0  0  1  0  0  0  0  0999 V2000
  180.8910  178.3560  137.0830 C   0  0  0  0  0  3  0  0  0  0  0  0
  180.6690  179.6550  136.6220 C   0  0  0  0  0  3  0  0  0  0  0  0
  181.1190  180.7480  137.3670 C   0  0  0  0  0  3  0  0  0  0  0  0
  181.5740  178.1380  138.2860 C   0  0  0  0  0  0  0  0  0  0  0  0
  181.8020  180.5410  138.5690 C   0  0  0  0  0  3  0  0  0  0  0  0
  182.0450  179.2410  139.0340 C   0  0  0  0  0  0  0  0  0  0  0  0
  187.1730  178.4230  142.0480 O   0  0  0  0  0  0  0  0  0  0  0  0
  184.8340  178.7470  141.5560 C   0  0  0  0  0  0  0  0  0  0  0  0
  186.3960  178.7250  139.8260 N   0  0  0  0  0  0  0  0  0  0  0  0
  182.7710  179.0670  140.3060 C   0  0  0  0  0  0  0  0  0  0  0  0
  184.1280  178.7510  142.7500 C   0  0  0  0  0  0  0  0  0  0  0  0
  182.0540  179.0730  141.5280 C   0  0  0  0  0  3  0  0  0  0  0  0
  183.4480  178.7100  144.8490 C   0  0  0  0  0  3  0  0  0  0  0  0
  185.0540  178.9120  139.3430 C   0  0  0  0  0  3  0  0  0  0  0  0
  184.5670  178.6200  144.1240 C   0  0  0  0  0  2  0  0  0  0  0  0
  182.7640  178.9130  142.7300 C   0  0  0  0  0  0  0  0  0  0  0  0
  186.2310  178.6160  141.2350 C   0  0  0  0  0  0  0  0  0  0  0  0
  182.2840  178.9010  143.9600 C   0  0  0  0  0  3  0  0  0  0  0  0
  184.1780  178.9130  140.3530 C   0  0  0  0  0  0  0  0  0  0  0  0
  182.2530  175.4110  138.6040 C   0  0  0  0  0  2  0  0  0  0  0  0
  181.4710  175.6780  139.7150 C   0  0  1  0  0  3  0  0  0  0  0  0
  181.7260  176.7990  138.7570 N   0  0  0  0  0  0  0  0  0  0  0  0
  179.8060  173.8770  139.1820 N   0  0  0  0  0  1  0  0  0  0  0  0
  179.9920  175.2610  139.6050 C   0  0  1  0  0  3  0  0  0  0  0  0
  179.0380  176.6610  141.2940 O   0  0  0  0  0  0  0  0  0  0  0  0
  178.9410  174.3810  141.7230 N   0  0  0  0  0  1  0  0  0  0  0  0
  179.2970  175.4910  140.9050 C   0  0  0  0  0  0  0  0  0  0  0  0
  1  4  1  0  0  0  0
  2  1  2  0  0  0  0
  2  3  1  0  0  0  0
  3  5  2  0  0  0  0
  4 22  1  0  0  0  0
  4  6  2  0  0  0  0
  5  6  1  0  0  0  0
  6 10  1  0  0  0  0
  8 11  1  0  0  0  0
  9 17  1  0  0  0  0
 10 19  1  0  0  0  0
 10 12  2  0  0  0  0
 11 15  1  0  0  0  0
 12 16  1  0  0  0  0
 14  9  2  0  0  0  0
 14 19  1  0  0  0  0
 15 13  1  0  0  0  0
 16 11  2  0  0  0  0
 16 18  1  0  0  0  0
 17  8  1  0  0  0  0
 17  7  2  0  0  0  0
 18 13  2  0  0  0  0
 19  8  2  0  0  0  0
 20 22  1  0  0  0  0
 20 21  1  0  0  0  0
 21 24  1  6  0  0  0
 22 21  1  0  0  0  0
 24 23  1  1  0  0  0
 24 27  1  0  0  0  0
 27 25  2  0  0  0  0
 27 26  1  0  0  0  0
M  END
>  <MODEL>
6

>  <REMARK>
 VINA RESULT:      -9.1      4.727      7.512
  Name = 
  4 active torsions:
  status: ('A' for Active; 'I' for Inactive)
    1  A    between atoms: C_6  and  C_22
    2  A    between atoms: C_9  and  C_12
    3  A    between atoms: C_12  and  C_25
    4  A    between atoms: N_13  and  C_20
                            x       y       z     vdW  Elec       q    Type
                         _______ _______ _______ _____ _____    ______ ____

>  <TORSDO>
F 4

$$$$
=
 OpenBabel11032420363D

 27 31  0  0  1  0  0  0  0  0999 V2000
  187.7030  178.1290  146.8590 C   0  0  0  0  0  3  0  0  0  0  0  0
  186.3480  178.0920  147.1960 C   0  0  0  0  0  3  0  0  0  0  0  0
  185.3810  177.9980  146.1920 C   0  0  0  0  0  3  0  0  0  0  0  0
  188.1030  178.0630  145.5190 C   0  0  0  0  0  0  0  0  0  0  0  0
  185.7690  177.9310  144.8510 C   0  0  0  0  0  3  0  0  0  0  0  0
  187.1270  177.9520  144.5020 C   0  0  0  0  0  0  0  0  0  0  0  0
  185.8670  179.0030  138.7260 O   0  0  0  0  0  0  0  0  0  0  0  0
  187.0150  178.2990  140.7270 C   0  0  0  0  0  0  0  0  0  0  0  0
  184.9470  179.3620  140.8850 N   0  0  0  0  0  0  0  0  0  0  0  0
  187.4930  177.8770  143.0750 C   0  0  0  0  0  0  0  0  0  0  0  0
  188.2260  177.7280  140.3630 C   0  0  0  0  0  0  0  0  0  0  0  0
  188.7300  177.2970  142.7000 C   0  0  0  0  0  3  0  0  0  0  0  0
  190.0130  176.9440  139.3330 C   0  0  0  0  0  3  0  0  0  0  0  0
  185.4710  179.0000  142.1740 C   0  0  0  0  0  3  0  0  0  0  0  0
  188.8450  177.5350  139.0680 C   0  0  0  0  0  3  0  0  0  0  0  0
  189.0650  177.2390  141.3360 C   0  0  0  0  0  0  0  0  0  0  0  0
  185.9430  178.9000  139.9790 C   0  0  0  0  0  0  0  0  0  0  0  0
  190.1630  176.7530  140.7910 C   0  0  0  0  0  3  0  0  0  0  0  0
  186.6530  178.3860  142.0560 C   0  0  1  0  0  3  0  0  0  0  0  0
  190.6010  178.5760  144.2980 C   0  0  0  0  0  2  0  0  0  0  0  0
  190.9460  177.9350  145.4750 C   0  0  1  0  0  3  0  0  0  0  0  0
  189.4920  178.1680  145.2090 N   0  0  0  0  0  0  0  0  0  0  0  0
  191.9110  176.0600  144.1140 N   0  0  0  0  0  1  0  0  0  0  0  0
  191.2350  176.4270  145.3540 C   0  0  1  0  0  3  0  0  0  0  0  0
  192.6860  174.8850  146.4670 O   0  0  0  0  0  0  0  0  0  0  0  0
  192.0560  176.7360  147.7190 N   0  0  0  0  0  1  0  0  0  0  0  0
  192.0370  175.9640  146.5230 C   0  0  0  0  0  0  0  0  0  0  0  0
  1  2  1  0  0  0  0
  3  2  2  0  0  0  0
  4  1  2  0  0  0  0
  5  3  1  0  0  0  0
  6  5  2  0  0  0  0
  6  4  1  0  0  0  0
  7 17  2  0  0  0  0
  8 19  1  0  0  0  0
  9 14  2  0  0  0  0
 10  6  1  0  0  0  0
 11  8  2  0  0  0  0
 11 16  1  0  0  0  0
 12 10  2  0  0  0  0
 13 18  1  0  0  0  0
 15 13  2  0  0  0  0
 15 11  1  0  0  0  0
 16 12  1  0  0  0  0
 17  8  1  0  0  0  0
 17  9  1  0  0  0  0
 18 16  2  0  0  0  0
 19 14  1  1  0  0  0
 19 10  1  0  0  0  0
 20 22  1  0  0  0  0
 20 21  1  0  0  0  0
 21 24  1  6  0  0  0
 22 21  1  0  0  0  0
 22  4  1  0  0  0  0
 24 23  1  6  0  0  0
 24 27  1  0  0  0  0
 25 27  2  0  0  0  0
 27 26  1  0  0  0  0
M  END
>  <MODEL>
7

>  <REMARK>
 VINA RESULT:      -8.9      2.558      6.066
  Name = 
  4 active torsions:
  status: ('A' for Active; 'I' for Inactive)
    1  A    between atoms: C_6  and  C_22
    2  A    between atoms: C_9  and  C_12
    3  A    between atoms: C_12  and  C_25
    4  A    between atoms: N_13  and  C_20
                            x       y       z     vdW  Elec       q    Type
                         _______ _______ _______ _____ _____    ______ ____

>  <TORSDO>
F 4

$$$$
=
 OpenBabel11032420363D

 27 31  0  0  1  0  0  0  0  0999 V2000
  191.4040  177.5010  141.1210 C   0  0  0  0  0  3  0  0  0  0  0  0
  191.1120  177.0580  139.8290 C   0  0  0  0  0  3  0  0  0  0  0  0
  189.7840  176.8610  139.4420 C   0  0  0  0  0  3  0  0  0  0  0  0
  190.3730  177.7610  142.0320 C   0  0  0  0  0  0  0  0  0  0  0  0
  188.7470  177.1170  140.3440 C   0  0  0  0  0  3  0  0  0  0  0  0
  189.0280  177.5780  141.6380 C   0  0  0  0  0  0  0  0  0  0  0  0
  183.4410  179.5420  142.6270 O   0  0  0  0  0  0  0  0  0  0  0  0
  185.6390  178.6170  142.9870 C   0  0  0  0  0  0  0  0  0  0  0  0
  184.9700  179.2260  140.8400 N   0  0  0  0  0  0  0  0  0  0  0  0
  187.9040  177.8380  142.5570 C   0  0  0  0  0  0  0  0  0  0  0  0
  185.7750  178.3120  144.3340 C   0  0  0  0  0  0  0  0  0  0  0  0
  188.0370  177.5260  143.9330 C   0  0  0  0  0  3  0  0  0  0  0  0
  185.5270  177.9800  146.5010 C   0  0  0  0  0  3  0  0  0  0  0  0
  186.3130  178.7110  140.8630 C   0  0  0  0  0  3  0  0  0  0  0  0
  184.8540  178.4420  145.4440 C   0  0  0  0  0  2  0  0  0  0  0  0
  186.9540  177.7750  144.7920 C   0  0  0  0  0  0  0  0  0  0  0  0
  184.5640  179.1630  142.2020 C   0  0  0  0  0  0  0  0  0  0  0  0
  186.8780  177.5460  146.0890 C   0  0  0  0  0  3  0  0  0  0  0  0
  186.6750  178.3770  142.1070 C   0  0  0  0  0  0  0  0  0  0  0  0
  191.6160  178.8350  144.3340 C   0  0  0  0  0  2  0  0  0  0  0  0
  190.5110  178.1760  144.8450 C   0  0  1  0  0  3  0  0  0  0  0  0
  190.7130  178.1520  143.3630 N   0  0  0  0  0  0  0  0  0  0  0  0
  191.9450  176.1160  144.8220 N   0  0  0  0  0  1  0  0  0  0  0  0
  190.7740  176.7650  145.4030 C   0  0  1  0  0  3  0  0  0  0  0  0
  189.9560  177.2240  147.6030 O   0  0  0  0  0  0  0  0  0  0  0  0
  192.1330  176.4260  147.5000 N   0  0  0  0  0  1  0  0  0  0  0  0
  190.9100  176.8180  146.8880 C   0  0  0  0  0  0  0  0  0  0  0  0
  1  4  1  0  0  0  0
  2  1  2  0  0  0  0
  3  2  1  0  0  0  0
  3  5  2  0  0  0  0
  4 22  1  0  0  0  0
  5  6  1  0  0  0  0
  6  4  2  0  0  0  0
  6 10  1  0  0  0  0
  8 11  1  0  0  0  0
  9 14  2  0  0  0  0
  9 17  1  0  0  0  0
 10 12  2  0  0  0  0
 11 16  2  0  0  0  0
 11 15  1  0  0  0  0
 12 16  1  0  0  0  0
 14 19  1  0  0  0  0
 15 13  1  0  0  0  0
 16 18  1  0  0  0  0
 17  7  2  0  0  0  0
 17  8  1  0  0  0  0
 18 13  2  0  0  0  0
 19 10  1  0  0  0  0
 19  8  2  0  0  0  0
 20 21  1  0  0  0  0
 21 24  1  1  0  0  0
 22 20  1  0  0  0  0
 22 21  1  0  0  0  0
 24 23  1  6  0  0  0
 24 27  1  0  0  0  0
 27 26  1  0  0  0  0
 27 25  2  0  0  0  0
M  END
>  <MODEL>
8

>  <REMARK>
 VINA RESULT:      -8.9      2.763      5.935
  Name = 
  4 active torsions:
  status: ('A' for Active; 'I' for Inactive)
    1  A    between atoms: C_6  and  C_22
    2  A    between atoms: C_9  and  C_12
    3  A    between atoms: C_12  and  C_25
    4  A    between atoms: N_13  and  C_20
                            x       y       z     vdW  Elec       q    Type
                         _______ _______ _______ _____ _____    ______ ____

>  <TORSDO>
F 4

$$$$
=
 OpenBabel11032420363D

 27 31  0  0  1  0  0  0  0  0999 V2000
  191.0940  177.0530  142.0780 C   0  0  0  0  0  3  0  0  0  0  0  0
  191.8340  176.5520  143.1510 C   0  0  0  0  0  3  0  0  0  0  0  0
  191.2390  176.4190  144.4080 C   0  0  0  0  0  3  0  0  0  0  0  0
  189.7520  177.4150  142.2490 C   0  0  0  0  0  0  0  0  0  0  0  0
  189.9000  176.7780  144.5900 C   0  0  0  0  0  3  0  0  0  0  0  0
  189.1430  177.2670  143.5170 C   0  0  0  0  0  0  0  0  0  0  0  0
  184.6760  178.7010  147.2630 O   0  0  0  0  0  0  0  0  0  0  0  0
  185.9060  178.2260  145.2430 C   0  0  0  0  0  0  0  0  0  0  0  0
  186.9960  178.2020  147.3030 N   0  0  0  0  0  2  0  0  0  0  0  0
  187.7330  177.6310  143.7510 C   0  0  0  0  0  0  0  0  0  0  0  0
  185.0410  178.3360  144.1640 C   0  0  0  0  0  0  0  0  0  0  0  0
  186.8480  177.7480  142.6510 C   0  0  0  0  0  3  0  0  0  0  0  0
  183.3430  178.6410  142.7890 C   0  0  0  0  0  3  0  0  0  0  0  0
  187.8810  177.8790  146.2170 C   0  0  0  0  0  3  0  0  0  0  0  0
  183.6380  178.6850  144.0910 C   0  0  0  0  0  3  0  0  0  0  0  0
  185.5100  178.1010  142.8940 C   0  0  0  0  0  0  0  0  0  0  0  0
  185.7430  178.4110  146.6610 C   0  0  0  0  0  0  0  0  0  0  0  0
  184.5430  178.2690  142.0110 C   0  0  0  0  0  3  0  0  0  0  0  0
  187.2300  177.8920  145.0490 C   0  0  0  0  0  0  0  0  0  0  0  0
  187.8440  178.6520  140.5680 C   0  0  0  0  0  2  0  0  0  0  0  0
  188.8760  178.3350  139.7020 C   0  0  1  0  0  3  0  0  0  0  0  0
  189.0470  177.9830  141.1460 N   0  0  0  0  0  0  0  0  0  0  0  0
  187.5980  177.0950  137.9340 N   0  0  0  0  0  1  0  0  0  0  0  0
  188.6950  177.0360  138.8940 C   0  0  1  0  0  3  0  0  0  0  0  0
  190.3520  177.3630  137.2010 O   0  0  0  0  0  0  0  0  0  0  0  0
  190.7340  175.5750  138.6320 N   0  0  0  0  0  1  0  0  0  0  0  0
  189.9650  176.6890  138.1920 C   0  0  0  0  0  0  0  0  0  0  0  0
  1  4  2  0  0  0  0
  1  2  1  0  0  0  0
  2  3  2  0  0  0  0
  3  5  1  0  0  0  0
  4  6  1  0  0  0  0
  6 10  1  0  0  0  0
  6  5  2  0  0  0  0
  8 17  1  0  0  0  0
 10 19  1  0  0  0  0
 11  8  2  0  0  0  0
 12 16  1  0  0  0  0
 12 10  2  0  0  0  0
 13 15  2  0  0  0  0
 14  9  1  0  0  0  0
 15 11  1  0  0  0  0
 16 11  1  0  0  0  0
 17  7  2  0  0  0  0
 17  9  1  0  0  0  0
 18 13  1  0  0  0  0
 18 16  2  0  0  0  0
 19  8  1  0  0  0  0
 19 14  2  0  0  0  0
 20 22  1  0  0  0  0
 21 24  1  6  0  0  0
 21 20  1  0  0  0  0
 21 22  1  0  0  0  0
 22  4  1  0  0  0  0
 24 23  1  6  0  0  0
 25 27  2  0  0  0  0
 27 26  1  0  0  0  0
 27 24  1  0  0  0  0
M  END
>  <MODEL>
9

>  <REMARK>
 VINA RESULT:      -8.8      1.455      4.286
  Name = 
  4 active torsions:
  status: ('A' for Active; 'I' for Inactive)
    1  A    between atoms: C_6  and  C_22
    2  A    between atoms: C_9  and  C_12
    3  A    between atoms: C_12  and  C_25
    4  A    between atoms: N_13  and  C_20
                            x       y       z     vdW  Elec       q    Type
                         _______ _______ _______ _____ _____    ______ ____

>  <TORSDO>
F 4

$$$$
