=
 OpenBabel11032419303D

 31 34  0  0  1  0  0  0  0  0999 V2000
  184.2690  179.2060  139.2660 P   0  0  2  0  0  0  0  0  0  0  0  0
  186.7860  177.8610  143.2140 C   0  0  0  0  0  0  0  0  0  0  0  0
  185.4870  178.1940  142.8000 C   0  0  0  0  0  3  0  0  0  0  0  0
  187.8510  177.8810  142.2940 C   0  0  0  0  0  3  0  0  0  0  0  0
  185.9490  178.9100  139.2610 O   0  0  0  0  0  0  0  0  0  0  0  0
  186.3290  178.5490  140.5500 C   0  0  0  0  0  0  0  0  0  0  0  0
  185.2750  178.5320  141.4660 C   0  0  0  0  0  0  0  0  0  0  0  0
  187.6350  178.2260  140.9510 C   0  0  0  0  0  0  0  0  0  0  0  0
  183.5250  178.2240  138.3910 O   0  0  0  0  0  0  0  0  0  0  0  0
  183.9030  180.8110  138.8800 O   0  0  0  0  0  1  0  0  0  0  0  0
  184.0420  178.8750  140.9240 O   0  0  0  0  0  0  0  0  0  0  0  0
  188.6700  179.2090  139.0280 O   0  0  0  0  0  1  0  0  0  0  0  0
  188.7970  178.2100  139.9950 C   0  0  2  0  0  3  0  0  0  0  0  0
  189.0470  176.8470  139.3380 C   0  0  1  0  0  3  0  0  0  0  0  0
  188.4160  176.7820  137.9600 C   0  0  0  0  0  1  0  0  0  0  0  0
  190.4690  176.5420  139.2460 N   0  0  0  0  0  2  0  0  0  0  0  0
  190.8580  176.6850  137.8510 C   0  0  0  0  0  2  0  0  0  0  0  0
  191.8820  175.6230  137.4920 C   0  0  0  0  0  2  0  0  0  0  0  0
  193.2540  176.2090  137.4850 C   0  0  0  0  0  0  0  0  0  0  0  0
  194.1430  175.9980  136.3090 C   0  0  0  0  0  1  0  0  0  0  0  0
  193.6430  176.8780  138.4290 O   0  0  0  0  0  0  0  0  0  0  0  0
  187.0460  177.5210  144.6400 C   0  0  0  0  0  2  0  0  0  0  0  0
  191.7730  176.3830  145.2790 N   0  0  0  0  0  0  0  0  0  0  0  0
  189.3560  176.6610  144.8600 C   0  0  1  0  0  3  0  0  0  0  0  0
  191.8270  176.2820  146.5680 C   0  0  0  0  0  3  0  0  0  0  0  0
  188.4720  177.8860  145.0110 C   0  0  2  0  0  3  0  0  0  0  0  0
  190.7760  177.1200  144.5300 C   0  0  2  0  0  3  0  0  0  0  0  0
  188.8840  177.1110  146.2460 C   0  0  2  0  0  3  0  0  0  0  0  0
  191.0330  176.9510  143.0460 C   0  0  0  0  0  1  0  0  0  0  0  0
  189.9320  177.8330  146.9620 N   0  0  0  0  0  2  0  0  0  0  0  0
  190.8120  176.8320  147.5490 C   0  0  0  0  0  2  0  0  0  0  0  0
  1  9  2  6  0  0  0
  1 11  1  0  0  0  0
  2 22  1  0  0  0  0
  3  2  1  0  0  0  0
  4  2  2  0  0  0  0
  5  1  1  0  0  0  0
  5  6  1  0  0  0  0
  6  8  2  0  0  0  0
  6  7  1  0  0  0  0
  7  3  2  0  0  0  0
  8  4  1  0  0  0  0
 10  1  1  0  0  0  0
 11  7  1  0  0  0  0
 13 12  1  6  0  0  0
 13  8  1  0  0  0  0
 14 15  1  6  0  0  0
 14 13  1  0  0  0  0
 16 14  1  0  0  0  0
 17 16  1  0  0  0  0
 18 17  1  0  0  0  0
 19 18  1  0  0  0  0
 19 21  2  0  0  0  0
 20 19  1  0  0  0  0
 22 26  1  0  0  0  0
 23 25  2  0  0  0  0
 24 26  1  0  0  0  0
 24 28  1  0  0  0  0
 25 31  1  0  0  0  0
 26 28  1  0  0  0  0
 27 24  1  0  0  0  0
 27 23  1  0  0  0  0
 28 30  1  0  0  0  0
 29 27  1  0  0  0  0
 30 31  1  0  0  0  0
M  END
>  <MODEL>
1

>  <REMARK>
 VINA RESULT:      -8.3      0.000      0.000
  Name = 
  8 active torsions:
  status: ('A' for Active; 'I' for Inactive)
    1  A    between atoms: C_3  and  C_16
    2  A    between atoms: N_5  and  C_8
    3  A    between atoms: N_5  and  C_24
    4  A    between atoms: C_6  and  C_8
    5  A    between atoms: C_6  and  C_25
    6  A    between atoms: C_12  and  C_13
    7  A    between atoms: C_12  and  C_19
    8  A    between atoms: C_16  and  C_24
                            x       y       z     vdW  Elec       q    Type
                         _______ _______ _______ _____ _____    ______ ____

>  <TORSDO>
F 8

$$$$
=
 OpenBabel11032419303D

 31 34  0  0  1  0  0  0  0  0999 V2000
  188.3090  177.4710  147.5280 P   0  0  2  0  0  0  0  0  0  0  0  0
  184.6930  178.9670  144.6260 C   0  0  0  0  0  0  0  0  0  0  0  0
  185.0870  178.9540  145.9740 C   0  0  0  0  0  3  0  0  0  0  0  0
  185.5090  178.3780  143.6430 C   0  0  0  0  0  3  0  0  0  0  0  0
  188.2860  177.2230  145.8400 O   0  0  0  0  0  0  0  0  0  0  0  0
  187.1130  177.7760  145.3370 C   0  0  0  0  0  0  0  0  0  0  0  0
  186.3000  178.3580  146.3110 C   0  0  0  0  0  0  0  0  0  0  0  0
  186.7290  177.7750  143.9870 C   0  0  0  0  0  0  0  0  0  0  0  0
  189.4520  178.3670  147.9460 O   0  0  0  0  0  0  0  0  0  0  0  0
  188.2900  176.0150  148.3870 O   0  0  0  0  0  1  0  0  0  0  0  0
  186.8100  178.2810  147.6020 O   0  0  0  0  0  0  0  0  0  0  0  0
  187.9800  175.8800  143.2240 O   0  0  0  0  0  1  0  0  0  0  0  0
  187.5830  177.1790  142.9000 C   0  0  2  0  0  3  0  0  0  0  0  0
  188.7940  178.0380  142.5170 C   0  0  1  0  0  3  0  0  0  0  0  0
  190.0730  177.2200  142.5480 C   0  0  0  0  0  1  0  0  0  0  0  0
  188.6320  178.6500  141.2040 N   0  0  0  0  0  2  0  0  0  0  0  0
  188.8600  177.6160  140.2070 C   0  0  0  0  0  2  0  0  0  0  0  0
  188.0310  177.9050  138.9680 C   0  0  0  0  0  2  0  0  0  0  0  0
  188.8940  178.4600  137.8860 C   0  0  0  0  0  0  0  0  0  0  0  0
  189.7140  177.5410  137.0490 C   0  0  0  0  0  1  0  0  0  0  0  0
  188.9160  179.6610  137.6690 O   0  0  0  0  0  0  0  0  0  0  0  0
  183.3890  179.5740  144.2410 C   0  0  0  0  0  2  0  0  0  0  0  0
  181.0060  178.1100  140.2130 N   0  0  0  0  0  0  0  0  0  0  0  0
  182.2900  179.0990  142.0750 C   0  0  1  0  0  3  0  0  0  0  0  0
  179.7810  178.3530  140.5530 C   0  0  0  0  0  3  0  0  0  0  0  0
  182.5530  178.5670  143.4730 C   0  0  2  0  0  3  0  0  0  0  0  0
  182.1140  177.9140  141.1260 C   0  0  2  0  0  3  0  0  0  0  0  0
  181.2030  179.1750  143.1520 C   0  0  2  0  0  3  0  0  0  0  0  0
  183.3890  177.7030  140.3350 C   0  0  0  0  0  1  0  0  0  0  0  0
  180.2070  178.1210  142.9850 N   0  0  0  0  0  2  0  0  0  0  0  0
  179.2740  178.5760  141.9630 C   0  0  0  0  0  2  0  0  0  0  0  0
  1 11  1  0  0  0  0
  1  9  2  1  0  0  0
  1 10  1  0  0  0  0
  2  3  1  0  0  0  0
  3  7  2  0  0  0  0
  4  8  1  0  0  0  0
  4  2  2  0  0  0  0
  5  1  1  0  0  0  0
  6  5  1  0  0  0  0
  6  7  1  0  0  0  0
  7 11  1  0  0  0  0
  8  6  2  0  0  0  0
 13 12  1  1  0  0  0
 13  8  1  0  0  0  0
 14 15  1  6  0  0  0
 14 13  1  0  0  0  0
 16 14  1  0  0  0  0
 17 16  1  0  0  0  0
 18 17  1  0  0  0  0
 19 18  1  0  0  0  0
 20 19  1  0  0  0  0
 21 19  2  0  0  0  0
 22  2  1  0  0  0  0
 23 25  2  0  0  0  0
 23 27  1  0  0  0  0
 24 28  1  0  0  0  0
 24 26  1  0  0  0  0
 25 31  1  0  0  0  0
 26 22  1  0  0  0  0
 27 24  1  0  0  0  0
 28 26  1  0  0  0  0
 29 27  1  0  0  0  0
 30 28  1  0  0  0  0
 31 30  1  0  0  0  0
M  END
>  <MODEL>
2

>  <REMARK>
 VINA RESULT:      -8.2      4.923      7.377
  Name = 
  8 active torsions:
  status: ('A' for Active; 'I' for Inactive)
    1  A    between atoms: C_3  and  C_16
    2  A    between atoms: N_5  and  C_8
    3  A    between atoms: N_5  and  C_24
    4  A    between atoms: C_6  and  C_8
    5  A    between atoms: C_6  and  C_25
    6  A    between atoms: C_12  and  C_13
    7  A    between atoms: C_12  and  C_19
    8  A    between atoms: C_16  and  C_24
                            x       y       z     vdW  Elec       q    Type
                         _______ _______ _______ _____ _____    ______ ____

>  <TORSDO>
F 8

$$$$
=
 OpenBabel11032419303D

 31 34  0  0  1  0  0  0  0  0999 V2000
  188.3610  177.4050  147.4170 P   0  0  2  0  0  0  0  0  0  0  0  0
  184.8430  178.9540  144.4250 C   0  0  0  0  0  0  0  0  0  0  0  0
  185.2390  178.9990  145.7710 C   0  0  0  0  0  3  0  0  0  0  0  0
  185.6140  178.2510  143.4810 C   0  0  0  0  0  3  0  0  0  0  0  0
  188.3150  177.0520  145.7490 O   0  0  0  0  0  0  0  0  0  0  0  0
  187.1790  177.6510  145.2100 C   0  0  0  0  0  0  0  0  0  0  0  0
  186.4110  178.3460  146.1460 C   0  0  0  0  0  0  0  0  0  0  0  0
  186.7920  177.5900  143.8630 C   0  0  0  0  0  0  0  0  0  0  0  0
  189.5620  178.2460  147.7790 O   0  0  0  0  0  0  0  0  0  0  0  0
  188.2470  176.0100  148.3670 O   0  0  0  0  0  1  0  0  0  0  0  0
  186.9200  178.3160  147.4390 O   0  0  0  0  0  0  0  0  0  0  0  0
  188.1700  175.7040  143.3310 O   0  0  0  0  0  1  0  0  0  0  0  0
  187.6000  176.8710  142.8170 C   0  0  2  0  0  3  0  0  0  0  0  0
  188.6640  177.7440  142.1410 C   0  0  1  0  0  3  0  0  0  0  0  0
  188.0610  178.5640  141.0150 C   0  0  0  0  0  1  0  0  0  0  0  0
  189.3280  178.6250  143.0930 N   0  0  0  0  0  2  0  0  0  0  0  0
  190.7420  178.2850  143.0920 C   0  0  0  0  0  2  0  0  0  0  0  0
  191.2780  178.3120  144.5130 C   0  0  0  0  0  2  0  0  0  0  0  0
  191.6330  176.9320  144.9570 C   0  0  0  0  0  0  0  0  0  0  0  0
  191.5880  175.8070  143.9830 C   0  0  0  0  0  1  0  0  0  0  0  0
  191.9790  176.7250  146.1090 O   0  0  0  0  0  0  0  0  0  0  0  0
  183.5810  179.6220  144.0010 C   0  0  0  0  0  2  0  0  0  0  0  0
  180.8420  178.0780  140.2380 N   0  0  0  0  0  0  0  0  0  0  0  0
  182.3000  179.0960  141.9500 C   0  0  1  0  0  3  0  0  0  0  0  0
  179.6570  178.3810  140.6600 C   0  0  0  0  0  3  0  0  0  0  0  0
  182.6540  178.6160  143.3460 C   0  0  2  0  0  3  0  0  0  0  0  0
  182.0110  177.8800  141.0710 C   0  0  2  0  0  3  0  0  0  0  0  0
  181.3040  179.2590  143.1020 C   0  0  2  0  0  3  0  0  0  0  0  0
  183.2120  177.5880  140.1960 C   0  0  0  0  0  1  0  0  0  0  0  0
  180.2630  178.2370  143.0600 N   0  0  0  0  0  2  0  0  0  0  0  0
  179.2690  178.6820  142.0930 C   0  0  0  0  0  2  0  0  0  0  0  0
  1 11  1  0  0  0  0
  1  9  2  1  0  0  0
  1 10  1  0  0  0  0
  2  3  1  0  0  0  0
  3  7  2  0  0  0  0
  4  8  1  0  0  0  0
  4  2  2  0  0  0  0
  5  1  1  0  0  0  0
  6  5  1  0  0  0  0
  6  7  1  0  0  0  0
  7 11  1  0  0  0  0
  8  6  2  0  0  0  0
 13 12  1  1  0  0  0
 13  8  1  0  0  0  0
 14 15  1  6  0  0  0
 14 13  1  0  0  0  0
 14 16  1  0  0  0  0
 17 16  1  0  0  0  0
 17 18  1  0  0  0  0
 18 19  1  0  0  0  0
 19 21  2  0  0  0  0
 20 19  1  0  0  0  0
 22  2  1  0  0  0  0
 23 25  2  0  0  0  0
 23 27  1  0  0  0  0
 24 28  1  0  0  0  0
 24 26  1  0  0  0  0
 25 31  1  0  0  0  0
 26 22  1  0  0  0  0
 27 24  1  0  0  0  0
 28 26  1  0  0  0  0
 29 27  1  0  0  0  0
 30 28  1  0  0  0  0
 31 30  1  0  0  0  0
M  END
>  <MODEL>
3

>  <REMARK>
 VINA RESULT:      -8.2      5.111      7.706
  Name = 
  8 active torsions:
  status: ('A' for Active; 'I' for Inactive)
    1  A    between atoms: C_3  and  C_16
    2  A    between atoms: N_5  and  C_8
    3  A    between atoms: N_5  and  C_24
    4  A    between atoms: C_6  and  C_8
    5  A    between atoms: C_6  and  C_25
    6  A    between atoms: C_12  and  C_13
    7  A    between atoms: C_12  and  C_19
    8  A    between atoms: C_16  and  C_24
                            x       y       z     vdW  Elec       q    Type
                         _______ _______ _______ _____ _____    ______ ____

>  <TORSDO>
F 8

$$$$
=
 OpenBabel11032419303D

 31 34  0  0  1  0  0  0  0  0999 V2000
  188.3900  177.4160  147.1720 P   0  0  2  0  0  0  0  0  0  0  0  0
  185.3990  178.4580  143.4700 C   0  0  0  0  0  0  0  0  0  0  0  0
  185.4910  178.5520  144.8680 C   0  0  0  0  0  3  0  0  0  0  0  0
  186.4440  177.8800  142.7270 C   0  0  0  0  0  3  0  0  0  0  0  0
  188.7480  177.0720  145.5400 O   0  0  0  0  0  0  0  0  0  0  0  0
  187.6780  177.5020  144.7610 C   0  0  0  0  0  0  0  0  0  0  0  0
  186.6380  178.0730  145.4960 C   0  0  0  0  0  0  0  0  0  0  0  0
  187.5970  177.3950  143.3640 C   0  0  0  0  0  0  0  0  0  0  0  0
  189.3540  178.4210  147.7570 O   0  0  0  0  0  0  0  0  0  0  0  0
  188.2790  176.0130  148.1100 O   0  0  0  0  0  1  0  0  0  0  0  0
  186.8610  178.1090  146.8680 O   0  0  0  0  0  0  0  0  0  0  0  0
  189.3080  175.7280  143.1770 O   0  0  0  0  0  1  0  0  0  0  0  0
  188.7020  176.8070  142.5280 C   0  0  2  0  0  3  0  0  0  0  0  0
  189.7530  177.8280  142.0750 C   0  0  1  0  0  3  0  0  0  0  0  0
  190.9170  177.8790  143.0470 C   0  0  0  0  0  1  0  0  0  0  0  0
  190.2430  177.5430  140.7330 N   0  0  0  0  0  2  0  0  0  0  0  0
  189.2320  178.0000  139.7910 C   0  0  0  0  0  2  0  0  0  0  0  0
  189.5890  177.5370  138.3890 C   0  0  0  0  0  2  0  0  0  0  0  0
  189.0180  178.4700  137.3760 C   0  0  0  0  0  0  0  0  0  0  0  0
  188.4490  177.9300  136.1100 C   0  0  0  0  0  1  0  0  0  0  0  0
  188.9950  179.6720  137.5880 O   0  0  0  0  0  0  0  0  0  0  0  0
  184.1730  178.9390  142.7750 C   0  0  0  0  0  2  0  0  0  0  0  0
  183.3210  178.3290  137.9840 N   0  0  0  0  0  0  0  0  0  0  0  0
  183.7870  178.9390  140.3300 C   0  0  1  0  0  3  0  0  0  0  0  0
  182.0380  178.1600  137.9850 C   0  0  0  0  0  3  0  0  0  0  0  0
  183.8830  178.0650  141.5680 C   0  0  2  0  0  3  0  0  0  0  0  0
  184.2020  178.1130  139.1130 C   0  0  2  0  0  3  0  0  0  0  0  0
  182.5180  178.4140  141.0110 C   0  0  2  0  0  3  0  0  0  0  0  0
  185.6220  178.4660  138.7210 C   0  0  0  0  0  1  0  0  0  0  0  0
  181.9620  177.2690  140.2970 N   0  0  0  0  0  2  0  0  0  0  0  0
  181.1860  177.7970  139.1830 C   0  0  0  0  0  2  0  0  0  0  0  0
  1  9  2  1  0  0  0
  1 10  1  0  0  0  0
  2  3  1  0  0  0  0
  3  7  2  0  0  0  0
  4  8  1  0  0  0  0
  4  2  2  0  0  0  0
  5  1  1  0  0  0  0
  6  7  1  0  0  0  0
  6  5  1  0  0  0  0
  7 11  1  0  0  0  0
  8  6  2  0  0  0  0
 11  1  1  0  0  0  0
 13 12  1  1  0  0  0
 13  8  1  0  0  0  0
 14 13  1  0  0  0  0
 14 15  1  1  0  0  0
 16 14  1  0  0  0  0
 17 16  1  0  0  0  0
 18 17  1  0  0  0  0
 19 21  2  0  0  0  0
 19 18  1  0  0  0  0
 20 19  1  0  0  0  0
 22  2  1  0  0  0  0
 23 25  2  0  0  0  0
 23 27  1  0  0  0  0
 24 28  1  0  0  0  0
 24 26  1  0  0  0  0
 25 31  1  0  0  0  0
 26 22  1  0  0  0  0
 27 24  1  0  0  0  0
 28 26  1  0  0  0  0
 29 27  1  0  0  0  0
 30 28  1  0  0  0  0
 31 30  1  0  0  0  0
M  END
>  <MODEL>
4

>  <REMARK>
 VINA RESULT:      -8.1      4.350      7.052
  Name = 
  8 active torsions:
  status: ('A' for Active; 'I' for Inactive)
    1  A    between atoms: C_3  and  C_16
    2  A    between atoms: N_5  and  C_8
    3  A    between atoms: N_5  and  C_24
    4  A    between atoms: C_6  and  C_8
    5  A    between atoms: C_6  and  C_25
    6  A    between atoms: C_12  and  C_13
    7  A    between atoms: C_12  and  C_19
    8  A    between atoms: C_16  and  C_24
                            x       y       z     vdW  Elec       q    Type
                         _______ _______ _______ _____ _____    ______ ____

>  <TORSDO>
F 8

$$$$
=
 OpenBabel11032419303D

 31 34  0  0  1  0  0  0  0  0999 V2000
  184.7940  178.7610  139.4460 P   0  0  2  0  0  0  0  0  0  0  0  0
  188.8620  178.0930  142.0400 C   0  0  0  0  0  0  0  0  0  0  0  0
  187.4810  178.2860  142.1940 C   0  0  0  0  0  3  0  0  0  0  0  0
  189.4360  178.0640  140.7560 C   0  0  0  0  0  3  0  0  0  0  0  0
  186.3400  178.5750  138.7500 O   0  0  0  0  0  0  0  0  0  0  0  0
  187.2610  178.4060  139.7790 C   0  0  0  0  0  0  0  0  0  0  0  0
  186.6950  178.4380  141.0540 C   0  0  0  0  0  0  0  0  0  0  0  0
  188.6420  178.2200  139.6090 C   0  0  0  0  0  0  0  0  0  0  0  0
  183.8680  177.6300  139.0630 O   0  0  0  0  0  0  0  0  0  0  0  0
  184.1230  180.2780  139.1150 O   0  0  0  0  0  1  0  0  0  0  0  0
  185.3180  178.6300  141.0640 O   0  0  0  0  0  0  0  0  0  0  0  0
  189.0320  179.3140  137.5140 O   0  0  0  0  0  1  0  0  0  0  0  0
  189.2930  178.1580  138.2540 C   0  0  2  0  0  3  0  0  0  0  0  0
  188.9350  176.9040  137.4470 C   0  0  1  0  0  3  0  0  0  0  0  0
  189.0670  177.1590  135.9560 C   0  0  0  0  0  1  0  0  0  0  0  0
  189.7570  175.7620  137.8270 N   0  0  0  0  0  2  0  0  0  0  0  0
  190.9230  175.7510  136.9570 C   0  0  0  0  0  2  0  0  0  0  0  0
  192.1410  175.2860  137.7360 C   0  0  0  0  0  2  0  0  0  0  0  0
  192.9710  176.4560  138.1450 C   0  0  0  0  0  0  0  0  0  0  0  0
  192.7640  177.0790  139.4820 C   0  0  0  0  0  1  0  0  0  0  0  0
  193.8320  176.8920  137.3980 O   0  0  0  0  0  0  0  0  0  0  0  0
  189.7300  177.9540  143.2430 C   0  0  0  0  0  2  0  0  0  0  0  0
  186.9090  178.1090  147.2510 N   0  0  0  0  0  0  0  0  0  0  0  0
  188.3050  178.3420  145.2280 C   0  0  1  0  0  3  0  0  0  0  0  0
  187.7860  177.8770  148.1740 C   0  0  0  0  0  3  0  0  0  0  0  0
  188.9610  177.2800  144.3650 C   0  0  2  0  0  3  0  0  0  0  0  0
  187.0400  177.7540  145.8530 C   0  0  2  0  0  3  0  0  0  0  0  0
  189.5880  177.6460  145.6940 C   0  0  2  0  0  3  0  0  0  0  0  0
  185.8240  178.2410  145.0920 C   0  0  0  0  0  1  0  0  0  0  0  0
  189.3070  176.6090  146.6820 N   0  0  0  0  0  2  0  0  0  0  0  0
  189.1600  177.2750  147.9690 C   0  0  0  0  0  2  0  0  0  0  0  0
  1  9  2  6  0  0  0
  1 11  1  0  0  0  0
  2  3  1  0  0  0  0
  2 22  1  0  0  0  0
  4  2  2  0  0  0  0
  5  1  1  0  0  0  0
  5  6  1  0  0  0  0
  6  7  1  0  0  0  0
  7 11  1  0  0  0  0
  7  3  2  0  0  0  0
  8  6  2  0  0  0  0
  8  4  1  0  0  0  0
 10  1  1  0  0  0  0
 13 12  1  6  0  0  0
 13  8  1  0  0  0  0
 14 15  1  6  0  0  0
 14 16  1  0  0  0  0
 14 13  1  0  0  0  0
 17 18  1  0  0  0  0
 17 16  1  0  0  0  0
 18 19  1  0  0  0  0
 19 20  1  0  0  0  0
 21 19  2  0  0  0  0
 22 26  1  0  0  0  0
 23 25  2  0  0  0  0
 24 28  1  0  0  0  0
 24 27  1  0  0  0  0
 26 24  1  0  0  0  0
 26 28  1  0  0  0  0
 27 23  1  0  0  0  0
 28 30  1  0  0  0  0
 29 27  1  0  0  0  0
 30 31  1  0  0  0  0
 31 25  1  0  0  0  0
M  END
>  <MODEL>
5

>  <REMARK>
 VINA RESULT:      -8.0      1.405      2.416
  Name = 
  8 active torsions:
  status: ('A' for Active; 'I' for Inactive)
    1  A    between atoms: C_3  and  C_16
    2  A    between atoms: N_5  and  C_8
    3  A    between atoms: N_5  and  C_24
    4  A    between atoms: C_6  and  C_8
    5  A    between atoms: C_6  and  C_25
    6  A    between atoms: C_12  and  C_13
    7  A    between atoms: C_12  and  C_19
    8  A    between atoms: C_16  and  C_24
                            x       y       z     vdW  Elec       q    Type
                         _______ _______ _______ _____ _____    ______ ____

>  <TORSDO>
F 8

$$$$
=
 OpenBabel11032419303D

 31 34  0  0  1  0  0  0  0  0999 V2000
  189.8540  176.9640  142.7990 P   0  0  2  0  0  0  0  0  0  0  0  0
  185.2300  178.4960  142.8420 C   0  0  0  0  0  0  0  0  0  0  0  0
  186.3160  178.3070  141.9740 C   0  0  0  0  0  3  0  0  0  0  0  0
  185.3540  178.1960  144.2100 C   0  0  0  0  0  3  0  0  0  0  0  0
  188.8890  177.0210  144.2050 O   0  0  0  0  0  0  0  0  0  0  0  0
  187.6340  177.5060  143.8500 C   0  0  0  0  0  0  0  0  0  0  0  0
  187.5090  177.8080  142.4930 C   0  0  0  0  0  0  0  0  0  0  0  0
  186.5590  177.6970  144.7310 C   0  0  0  0  0  0  0  0  0  0  0  0
  190.2480  175.5490  142.4480 O   0  0  0  0  0  0  0  0  0  0  0  0
  191.1920  177.9940  142.9010 O   0  0  0  0  0  1  0  0  0  0  0  0
  188.6570  177.5680  141.7460 O   0  0  0  0  0  0  0  0  0  0  0  0
  185.5250  177.8440  146.8870 O   0  0  0  0  0  1  0  0  0  0  0  0
  186.6410  177.3660  146.1970 C   0  0  2  0  0  3  0  0  0  0  0  0
  187.9380  177.8330  146.8700 C   0  0  1  0  0  3  0  0  0  0  0  0
  187.6420  178.7300  148.0580 C   0  0  0  0  0  1  0  0  0  0  0  0
  188.7640  176.7100  147.2930 N   0  0  0  0  0  2  0  0  0  0  0  0
  190.0420  177.2470  147.7330 C   0  0  0  0  0  2  0  0  0  0  0  0
  190.9960  177.3360  146.5540 C   0  0  0  0  0  2  0  0  0  0  0  0
  191.8980  176.1480  146.5290 C   0  0  0  0  0  0  0  0  0  0  0  0
  192.5330  175.6740  147.7910 C   0  0  0  0  0  1  0  0  0  0  0  0
  192.1020  175.5500  145.4850 O   0  0  0  0  0  0  0  0  0  0  0  0
  183.9510  179.0530  142.3190 C   0  0  0  0  0  2  0  0  0  0  0  0
  182.6860  178.3700  137.6300 N   0  0  0  0  0  0  0  0  0  0  0  0
  183.4080  179.0020  139.9050 C   0  0  1  0  0  3  0  0  0  0  0  0
  181.3970  178.4350  137.7150 C   0  0  0  0  0  3  0  0  0  0  0  0
  183.4320  178.1870  141.1850 C   0  0  2  0  0  3  0  0  0  0  0  0
  183.5900  178.0560  138.7180 C   0  0  2  0  0  3  0  0  0  0  0  0
  182.1160  178.7470  140.6870 C   0  0  2  0  0  3  0  0  0  0  0  0
  185.0200  178.1300  138.2240 C   0  0  0  0  0  1  0  0  0  0  0  0
  181.3200  177.6860  140.0770 N   0  0  0  0  0  2  0  0  0  0  0  0
  180.5770  178.2890  138.9790 C   0  0  0  0  0  2  0  0  0  0  0  0
  1  9  2  6  0  0  0
  1 10  1  0  0  0  0
  1  5  1  0  0  0  0
  2  4  1  0  0  0  0
  3  7  1  0  0  0  0
  3  2  2  0  0  0  0
  4  8  2  0  0  0  0
  6  5  1  0  0  0  0
  6  8  1  0  0  0  0
  7  6  2  0  0  0  0
  8 13  1  0  0  0  0
 11  7  1  0  0  0  0
 11  1  1  0  0  0  0
 13 14  1  0  0  0  0
 13 12  1  1  0  0  0
 14 16  1  0  0  0  0
 14 15  1  1  0  0  0
 16 17  1  0  0  0  0
 18 17  1  0  0  0  0
 19 18  1  0  0  0  0
 19 20  1  0  0  0  0
 21 19  2  0  0  0  0
 22  2  1  0  0  0  0
 23 25  2  0  0  0  0
 23 27  1  0  0  0  0
 24 28  1  0  0  0  0
 24 26  1  0  0  0  0
 25 31  1  0  0  0  0
 26 22  1  0  0  0  0
 27 24  1  0  0  0  0
 28 26  1  0  0  0  0
 29 27  1  0  0  0  0
 30 28  1  0  0  0  0
 31 30  1  0  0  0  0
M  END
>  <MODEL>
6

>  <REMARK>
 VINA RESULT:      -8.0      4.342      8.231
  Name = 
  8 active torsions:
  status: ('A' for Active; 'I' for Inactive)
    1  A    between atoms: C_3  and  C_16
    2  A    between atoms: N_5  and  C_8
    3  A    between atoms: N_5  and  C_24
    4  A    between atoms: C_6  and  C_8
    5  A    between atoms: C_6  and  C_25
    6  A    between atoms: C_12  and  C_13
    7  A    between atoms: C_12  and  C_19
    8  A    between atoms: C_16  and  C_24
                            x       y       z     vdW  Elec       q    Type
                         _______ _______ _______ _____ _____    ______ ____

>  <TORSDO>
F 8

$$$$
=
 OpenBabel11032419303D

 31 34  0  0  1  0  0  0  0  0999 V2000
  187.4060  177.8790  137.7170 P   0  0  2  0  0  0  0  0  0  0  0  0
  190.9910  177.5130  140.9940 C   0  0  0  0  0  0  0  0  0  0  0  0
  189.6750  177.9790  140.8530 C   0  0  0  0  0  3  0  0  0  0  0  0
  191.6580  176.9280  139.9020 C   0  0  0  0  0  3  0  0  0  0  0  0
  188.9320  177.1970  137.3760 O   0  0  0  0  0  0  0  0  0  0  0  0
  189.7020  177.2570  138.5350 C   0  0  0  0  0  0  0  0  0  0  0  0
  189.0440  177.8400  139.6200 C   0  0  0  0  0  0  0  0  0  0  0  0
  191.0200  176.7930  138.6580 C   0  0  0  0  0  0  0  0  0  0  0  0
  186.2980  176.8600  137.5930 O   0  0  0  0  0  1  0  0  0  0  0  0
  187.1070  179.2650  136.7940 O   0  0  0  0  0  0  0  0  0  0  0  0
  187.7440  178.2520  139.3460 O   0  0  0  0  0  0  0  0  0  0  0  0
  191.2700  174.8550  137.2720 O   0  0  0  0  0  1  0  0  0  0  0  0
  191.7610  176.1380  137.5230 C   0  0  2  0  0  3  0  0  0  0  0  0
  193.2830  176.1120  137.7050 C   0  0  1  0  0  3  0  0  0  0  0  0
  193.7740  174.7030  137.9850 C   0  0  0  0  0  1  0  0  0  0  0  0
  193.9780  176.6550  136.5450 N   0  0  0  0  0  2  0  0  0  0  0  0
  194.8330  175.6040  136.0140 C   0  0  0  0  0  2  0  0  0  0  0  0
  195.9400  176.2180  135.1750 C   0  0  0  0  0  2  0  0  0  0  0  0
  197.2680  175.6970  135.6120 C   0  0  0  0  0  0  0  0  0  0  0  0
  198.2620  175.2570  134.5940 C   0  0  0  0  0  1  0  0  0  0  0  0
  197.5520  175.6500  136.7980 O   0  0  0  0  0  0  0  0  0  0  0  0
  191.6990  177.6720  142.2950 C   0  0  0  0  0  2  0  0  0  0  0  0
  188.8270  177.3500  146.2560 N   0  0  0  0  0  0  0  0  0  0  0  0
  190.2150  177.8190  144.2700 C   0  0  1  0  0  3  0  0  0  0  0  0
  189.7110  177.1710  147.1840 C   0  0  0  0  0  3  0  0  0  0  0  0
  190.9920  176.8720  143.3730 C   0  0  2  0  0  3  0  0  0  0  0  0
  189.0130  177.0730  144.8460 C   0  0  2  0  0  3  0  0  0  0  0  0
  191.5590  177.2430  144.7280 C   0  0  2  0  0  3  0  0  0  0  0  0
  187.7620  177.4610  144.0860 C   0  0  0  0  0  1  0  0  0  0  0  0
  191.3780  176.1390  145.6650 N   0  0  0  0  0  2  0  0  0  0  0  0
  191.1450  176.7280  146.9770 C   0  0  0  0  0  2  0  0  0  0  0  0
  1 10  2  6  0  0  0
  1 11  1  0  0  0  0
  2 22  1  0  0  0  0
  3  2  1  0  0  0  0
  4  2  2  0  0  0  0
  5  1  1  0  0  0  0
  5  6  1  0  0  0  0
  6  8  2  0  0  0  0
  6  7  1  0  0  0  0
  7  3  2  0  0  0  0
  8  4  1  0  0  0  0
  9  1  1  0  0  0  0
 11  7  1  0  0  0  0
 13 12  1  1  0  0  0
 13 14  1  0  0  0  0
 13  8  1  0  0  0  0
 14 15  1  6  0  0  0
 16 14  1  0  0  0  0
 17 16  1  0  0  0  0
 18 19  1  0  0  0  0
 18 17  1  0  0  0  0
 19 21  2  0  0  0  0
 20 19  1  0  0  0  0
 22 26  1  0  0  0  0
 23 25  2  0  0  0  0
 24 28  1  0  0  0  0
 24 27  1  0  0  0  0
 26 24  1  0  0  0  0
 26 28  1  0  0  0  0
 27 23  1  0  0  0  0
 28 30  1  0  0  0  0
 29 27  1  0  0  0  0
 30 31  1  0  0  0  0
 31 25  1  0  0  0  0
M  END
>  <MODEL>
7

>  <REMARK>
 VINA RESULT:      -7.8      2.188      4.033
  Name = 
  8 active torsions:
  status: ('A' for Active; 'I' for Inactive)
    1  A    between atoms: C_3  and  C_16
    2  A    between atoms: N_5  and  C_8
    3  A    between atoms: N_5  and  C_24
    4  A    between atoms: C_6  and  C_8
    5  A    between atoms: C_6  and  C_25
    6  A    between atoms: C_12  and  C_13
    7  A    between atoms: C_12  and  C_19
    8  A    between atoms: C_16  and  C_24
                            x       y       z     vdW  Elec       q    Type
                         _______ _______ _______ _____ _____    ______ ____

>  <TORSDO>
F 8

$$$$
=
 OpenBabel11032419303D

 31 34  0  0  1  0  0  0  0  0999 V2000
  188.3020  178.1820  138.7990 P   0  0  2  0  0  0  0  0  0  0  0  0
  185.5530  178.4060  142.8150 C   0  0  0  0  0  0  0  0  0  0  0  0
  186.8660  178.1410  142.3960 C   0  0  0  0  0  3  0  0  0  0  0  0
  184.5580  178.7250  141.8730 C   0  0  0  0  0  3  0  0  0  0  0  0
  186.6380  178.5600  138.7870 O   0  0  0  0  0  0  0  0  0  0  0  0
  186.1780  178.5340  140.1000 C   0  0  0  0  0  0  0  0  0  0  0  0
  187.1620  178.2130  141.0370 C   0  0  0  0  0  0  0  0  0  0  0  0
  184.8590  178.7930  140.5030 C   0  0  0  0  0  0  0  0  0  0  0  0
  189.1420  179.3400  138.3120 O   0  0  0  0  0  1  0  0  0  0  0  0
  188.6370  176.7520  137.9620 O   0  0  0  0  0  0  0  0  0  0  0  0
  188.4190  177.9810  140.4880 O   0  0  0  0  0  0  0  0  0  0  0  0
  183.9480  180.4600  139.0440 O   0  0  0  0  0  1  0  0  0  0  0  0
  183.7710  179.1630  139.5320 C   0  0  2  0  0  3  0  0  0  0  0  0
  182.3520  178.9800  140.0860 C   0  0  1  0  0  3  0  0  0  0  0  0
  181.3890  179.9680  139.4540 C   0  0  0  0  0  1  0  0  0  0  0  0
  181.8650  177.6210  139.8900 N   0  0  0  0  0  2  0  0  0  0  0  0
  180.6030  177.5000  140.6040 C   0  0  0  0  0  2  0  0  0  0  0  0
  179.6040  176.7320  139.7560 C   0  0  0  0  0  2  0  0  0  0  0  0
  179.8430  175.2640  139.8790 C   0  0  0  0  0  0  0  0  0  0  0  0
  179.3520  174.5330  141.0800 C   0  0  0  0  0  1  0  0  0  0  0  0
  180.4200  174.6570  138.9910 O   0  0  0  0  0  0  0  0  0  0  0  0
  185.2030  178.3110  144.2590 C   0  0  0  0  0  2  0  0  0  0  0  0
  189.1610  176.9650  146.8220 N   0  0  0  0  0  0  0  0  0  0  0  0
  187.1350  177.3400  145.4630 C   0  0  1  0  0  3  0  0  0  0  0  0
  188.7120  177.0640  148.0310 C   0  0  0  0  0  3  0  0  0  0  0  0
  186.4170  178.6300  145.1120 C   0  0  2  0  0  3  0  0  0  0  0  0
  188.6190  177.6430  145.6620 C   0  0  2  0  0  3  0  0  0  0  0  0
  186.2350  178.0320  146.4910 C   0  0  2  0  0  3  0  0  0  0  0  0
  189.3930  177.2270  144.4270 C   0  0  0  0  0  1  0  0  0  0  0  0
  187.0160  178.7830  147.4690 N   0  0  0  0  0  2  0  0  0  0  0  0
  187.4800  177.8280  148.4660 C   0  0  0  0  0  2  0  0  0  0  0  0
  1 10  2  6  0  0  0
  1 11  1  0  0  0  0
  2 22  1  0  0  0  0
  3  2  1  0  0  0  0
  4  2  2  0  0  0  0
  5  1  1  0  0  0  0
  5  6  1  0  0  0  0
  6  8  2  0  0  0  0
  6  7  1  0  0  0  0
  7  3  2  0  0  0  0
  8  4  1  0  0  0  0
  9  1  1  0  0  0  0
 11  7  1  0  0  0  0
 13 12  1  1  0  0  0
 13 14  1  0  0  0  0
 13  8  1  0  0  0  0
 14 15  1  6  0  0  0
 16 14  1  0  0  0  0
 16 17  1  0  0  0  0
 18 19  1  0  0  0  0
 18 17  1  0  0  0  0
 19 20  1  0  0  0  0
 21 19  2  0  0  0  0
 22 26  1  0  0  0  0
 23 25  2  0  0  0  0
 24 27  1  0  0  0  0
 24 28  1  0  0  0  0
 25 31  1  0  0  0  0
 26 24  1  0  0  0  0
 26 28  1  0  0  0  0
 27 23  1  0  0  0  0
 28 30  1  0  0  0  0
 29 27  1  0  0  0  0
 30 31  1  0  0  0  0
M  END
>  <MODEL>
8

>  <REMARK>
 VINA RESULT:      -7.7      3.486      6.564
  Name = 
  8 active torsions:
  status: ('A' for Active; 'I' for Inactive)
    1  A    between atoms: C_3  and  C_16
    2  A    between atoms: N_5  and  C_8
    3  A    between atoms: N_5  and  C_24
    4  A    between atoms: C_6  and  C_8
    5  A    between atoms: C_6  and  C_25
    6  A    between atoms: C_12  and  C_13
    7  A    between atoms: C_12  and  C_19
    8  A    between atoms: C_16  and  C_24
                            x       y       z     vdW  Elec       q    Type
                         _______ _______ _______ _____ _____    ______ ____

>  <TORSDO>
F 8

$$$$
=
 OpenBabel11032419303D

 31 34  0  0  1  0  0  0  0  0999 V2000
  184.9720  178.7280  139.5150 P   0  0  2  0  0  0  0  0  0  0  0  0
  189.6740  177.6950  138.7740 C   0  0  0  0  0  0  0  0  0  0  0  0
  188.4750  177.9120  138.0790 C   0  0  0  0  0  3  0  0  0  0  0  0
  189.7000  177.7510  140.1800 C   0  0  0  0  0  3  0  0  0  0  0  0
  186.1080  178.5400  140.7730 O   0  0  0  0  0  0  0  0  0  0  0  0
  187.3440  178.2520  140.2010 C   0  0  0  0  0  0  0  0  0  0  0  0
  187.3210  178.1930  138.8070 C   0  0  0  0  0  0  0  0  0  0  0  0
  188.5340  178.0300  140.9100 C   0  0  0  0  0  0  0  0  0  0  0  0
  184.4210  180.1340  139.4640 O   0  0  0  0  0  0  0  0  0  0  0  0
  183.7470  177.5630  139.5810 O   0  0  0  0  0  1  0  0  0  0  0  0
  186.0710  178.4330  138.2450 O   0  0  0  0  0  0  0  0  0  0  0  0
  189.8360  178.6310  142.8300 O   0  0  0  0  0  1  0  0  0  0  0  0
  188.6120  178.1050  142.4120 C   0  0  2  0  0  3  0  0  0  0  0  0
  188.3220  176.7740  143.1180 C   0  0  1  0  0  3  0  0  0  0  0  0
  189.5730  175.9200  143.2050 C   0  0  0  0  0  1  0  0  0  0  0  0
  187.7690  176.9770  144.4510 N   0  0  0  0  0  2  0  0  0  0  0  0
  186.4270  177.5160  144.2920 C   0  0  0  0  0  2  0  0  0  0  0  0
  186.1760  178.5860  145.3410 C   0  0  0  0  0  2  0  0  0  0  0  0
  184.7110  178.8090  145.5110 C   0  0  0  0  0  0  0  0  0  0  0  0
  183.8870  179.2320  144.3450 C   0  0  0  0  0  1  0  0  0  0  0  0
  184.1810  178.6260  146.5950 O   0  0  0  0  0  0  0  0  0  0  0  0
  190.9180  177.3680  138.0230 C   0  0  0  0  0  2  0  0  0  0  0  0
  193.1720  173.2880  136.5000 N   0  0  0  0  0  0  0  0  0  0  0  0
  192.1960  175.4890  137.0410 C   0  0  1  0  0  3  0  0  0  0  0  0
  192.2070  172.6970  135.8720 C   0  0  0  0  0  3  0  0  0  0  0  0
  191.2170  175.8840  138.1330 C   0  0  2  0  0  3  0  0  0  0  0  0
  193.0180  174.2970  137.5280 C   0  0  2  0  0  3  0  0  0  0  0  0
  190.7030  175.1740  136.8980 C   0  0  2  0  0  3  0  0  0  0  0  0
  194.3850  174.7720  137.9770 C   0  0  0  0  0  1  0  0  0  0  0  0
  190.4180  173.7760  137.2070 N   0  0  0  0  0  2  0  0  0  0  0  0
  190.7310  173.0040  136.0120 C   0  0  0  0  0  2  0  0  0  0  0  0
  1  9  2  6  0  0  0
  1 10  1  0  0  0  0
  1  5  1  0  0  0  0
  2  4  1  0  0  0  0
  3  2  2  0  0  0  0
  3  7  1  0  0  0  0
  4  8  2  0  0  0  0
  6  5  1  0  0  0  0
  6  8  1  0  0  0  0
  7  6  2  0  0  0  0
  8 13  1  0  0  0  0
 11  7  1  0  0  0  0
 11  1  1  0  0  0  0
 13 12  1  6  0  0  0
 13 14  1  0  0  0  0
 14 15  1  1  0  0  0
 14 16  1  0  0  0  0
 17 16  1  0  0  0  0
 17 18  1  0  0  0  0
 18 19  1  0  0  0  0
 19 21  2  0  0  0  0
 20 19  1  0  0  0  0
 22 26  1  0  0  0  0
 22  2  1  0  0  0  0
 23 27  1  0  0  0  0
 24 27  1  0  0  0  0
 24 26  1  0  0  0  0
 25 31  1  0  0  0  0
 25 23  2  0  0  0  0
 27 29  1  0  0  0  0
 28 24  1  0  0  0  0
 28 30  1  0  0  0  0
 28 26  1  0  0  0  0
 31 30  1  0  0  0  0
M  END
>  <MODEL>
9

>  <REMARK>
 VINA RESULT:      -7.7      2.427      7.456
  Name = 
  8 active torsions:
  status: ('A' for Active; 'I' for Inactive)
    1  A    between atoms: C_3  and  C_16
    2  A    between atoms: N_5  and  C_8
    3  A    between atoms: N_5  and  C_24
    4  A    between atoms: C_6  and  C_8
    5  A    between atoms: C_6  and  C_25
    6  A    between atoms: C_12  and  C_13
    7  A    between atoms: C_12  and  C_19
    8  A    between atoms: C_16  and  C_24
                            x       y       z     vdW  Elec       q    Type
                         _______ _______ _______ _____ _____    ______ ____

>  <TORSDO>
F 8

$$$$
