=
 OpenBabel11042413273D

 56 58  0  0  1  0  0  0  0  0999 V2000
  186.8710  175.8750  135.9350 C   0  0  1  0  0  3  0  0  0  0  0  0
  186.5080  173.6720  134.8840 N   0  0  0  0  0  2  0  0  0  0  0  0
  189.3300  175.6460  135.9330 C   0  0  0  0  0  0  0  0  0  0  0  0
  188.7410  172.9290  135.0010 O   0  0  0  0  0  0  0  0  0  0  0  0
  188.1440  175.0950  135.8810 C   0  0  0  0  0  0  0  0  0  0  0  0
  187.8740  173.8150  135.2330 C   0  0  0  0  0  0  0  0  0  0  0  0
  185.9160  174.9020  135.3000 C   0  0  0  0  0  0  0  0  0  0  0  0
  184.6920  175.1480  135.1230 O   0  0  0  0  0  0  0  0  0  0  0  0
  190.5190  176.1920  135.9830 C   0  0  0  0  0  3  0  0  0  0  0  0
  193.2050  176.7400  138.6630 C   0  0  0  0  0  1  0  0  0  0  0  0
  192.5140  176.3360  137.3920 C   0  0  0  0  0  0  0  0  0  0  0  0
  191.1870  176.5410  137.2540 C   0  0  0  0  0  0  0  0  0  0  0  0
  193.2670  175.8090  136.2850 N   0  0  0  0  0  0  0  0  0  0  0  0
  193.7770  174.6140  136.1690 C   0  0  0  0  0  3  0  0  0  0  0  0
  193.6010  173.5160  137.1720 C   0  0  0  0  0  2  0  0  0  0  0  0
  194.9340  173.1500  137.8070 C   0  0  0  0  0  2  0  0  0  0  0  0
  196.0190  174.1390  137.4180 C   0  0  0  0  0  2  0  0  0  0  0  0
  196.7200  174.6090  138.5990 N   0  0  0  0  0  2  0  0  0  0  0  0
  198.1300  174.7110  138.2590 C   0  0  0  0  0  2  0  0  0  0  0  0
  198.5560  173.5010  137.4480 C   0  0  0  0  0  1  0  0  0  0  0  0
  190.3780  177.1570  138.3660 C   0  0  0  0  0  2  0  0  0  0  0  0
  190.5140  176.3560  139.5750 N   0  0  0  0  0  2  0  0  0  0  0  0
  189.4980  176.8080  140.5140 C   0  0  0  0  0  2  0  0  0  0  0  0
  190.1180  177.7100  141.5770 C   0  0  2  0  0  3  0  0  0  0  0  0
  191.5490  177.2620  141.8350 C   0  0  0  0  0  1  0  0  0  0  0  0
  189.2930  177.6560  142.8570 C   0  0  1  0  0  3  0  0  0  0  0  0
  188.9890  176.3270  143.1770 O   0  0  0  0  0  1  0  0  0  0  0  0
  190.0630  178.2840  144.0080 C   0  0  0  0  0  2  0  0  0  0  0  0
  189.9390  177.4300  145.2620 C   0  0  0  0  0  2  0  0  0  0  0  0
  191.8450  175.9890  145.0920 O   0  0  0  0  0  1  0  0  0  0  0  0
  191.3190  177.0760  145.8000 C   0  0  2  0  0  3  0  0  0  0  0  0
  189.9620  176.3410  147.6500 O   0  0  0  0  0  1  0  0  0  0  0  0
  192.2580  175.6950  147.6600 C   0  0  0  0  0  1  0  0  0  0  0  0
  191.2460  176.7670  147.2920 C   0  0  1  0  0  3  0  0  0  0  0  0
  186.4930  176.0920  137.3260 N   0  0  0  0  0  2  0  0  0  0  0  0
  186.7710  178.5820  136.4160 O   0  0  0  0  0  0  0  0  0  0  0  0
  186.2000  177.7860  137.5610 S   0  0  0  0  0  0  0  0  0  0  0  0
  186.8390  178.2340  138.8430 O   0  0  0  0  0  0  0  0  0  0  0  0
  184.4380  178.0350  137.6550 C   0  0  0  0  0  2  0  0  0  0  0  0
  183.7680  177.0070  138.5740 C   0  0  1  0  0  3  0  0  0  0  0  0
  182.9160  179.0130  141.7760 C   0  0  2  0  0  3  0  0  0  0  0  0
  180.8080  177.8210  140.8530 C   0  0  0  0  0  3  0  0  0  0  0  0
  181.5550  177.2220  139.9270 C   0  0  0  0  0  3  0  0  0  0  0  0
  180.6590  179.5310  142.4740 O   0  0  0  0  0  0  0  0  0  0  0  0
  182.9790  177.5850  139.7230 C   0  0  0  0  0  0  0  0  0  0  0  0
  181.4020  178.8390  141.7290 C   0  0  0  0  0  0  0  0  0  0  0  0
  183.5930  178.4430  140.5540 C   0  0  0  0  0  3  0  0  0  0  0  0
  183.5250  178.4600  143.0010 N   0  0  0  0  0  0  0  0  0  0  0  0
  186.0550  178.5880  143.2850 C   0  0  0  0  0  2  0  0  0  0  0  0
  186.2350  178.1370  144.7290 C   0  0  0  0  0  2  0  0  0  0  0  0
  185.3840  178.9710  145.6800 C   0  0  0  0  0  2  0  0  0  0  0  0
  184.8430  177.8880  142.6610 C   0  0  0  0  0  2  0  0  0  0  0  0
  183.8940  178.7850  145.4230 C   0  0  0  0  0  2  0  0  0  0  0  0
  183.5150  179.4410  144.1010 C   0  0  0  0  0  2  0  0  0  0  0  0
  182.4110  176.5980  136.7690 C   0  0  0  0  0  1  0  0  0  0  0  0
  183.0650  176.0060  137.8620 O   0  0  0  0  0  0  0  0  0  0  0  0
  1 35  1  1  0  0  0
  2  6  1  0  0  0  0
  2  7  1  0  0  0  0
  3  9  2  0  0  0  0
  4  6  2  0  0  0  0
  5  3  2  0  0  0  0
  5  1  1  0  0  0  0
  6  5  1  0  0  0  0
  7  1  1  0  0  0  0
  8  7  2  0  0  0  0
  9 12  1  0  0  0  0
 11 10  1  0  0  0  0
 12 11  2  0  0  0  0
 12 21  1  0  0  0  0
 13 11  1  0  0  0  0
 14 13  2  0  0  0  0
 14 15  1  0  0  0  0
 15 16  1  0  0  0  0
 17 16  1  0  0  0  0
 17 18  1  0  0  0  0
 19 18  1  0  0  0  0
 20 19  1  0  0  0  0
 21 22  1  0  0  0  0
 22 23  1  0  0  0  0
 23 24  1  0  0  0  0
 24 25  1  1  0  0  0
 24 26  1  0  0  0  0
 26 27  1  1  0  0  0
 26 28  1  0  0  0  0
 28 29  1  0  0  0  0
 29 31  1  0  0  0  0
 31 30  1  6  0  0  0
 31 34  1  0  0  0  0
 34 32  1  0  0  0  0
 34 33  1  6  0  0  0
 35 37  1  0  0  0  0
 36 37  2  0  0  0  0
 37 39  1  0  0  0  0
 37 38  2  0  0  0  0
 40 39  1  6  0  0  0
 40 45  1  0  0  0  0
 41 47  1  6  0  0  0
 41 48  1  0  0  0  0
 42 46  1  0  0  0  0
 43 42  2  0  0  0  0
 45 43  1  0  0  0  0
 45 47  2  0  0  0  0
 46 41  1  0  0  0  0
 46 44  2  0  0  0  0
 48 54  1  0  0  0  0
 49 50  1  0  0  0  0
 50 51  1  0  0  0  0
 52 48  1  0  0  0  0
 52 49  1  0  0  0  0
 53 51  1  0  0  0  0
 54 53  1  0  0  0  0
 55 56  1  0  0  0  0
 56 40  1  0  0  0  0
M  END
>  <MODEL>
1

>  <REMARK>
 VINA RESULT:      -7.1      0.000      0.000
  Name = 
  23 active torsions:
  status: ('A' for Active; 'I' for Inactive)
    1  A    between atoms: C_1  and  C_8
    2  A    between atoms: C_1  and  C_31
    3  A    between atoms: C_2  and  N_46
    4  A    between atoms: C_4  and  C_7
    5  A    between atoms: C_4  and  C_36
    6  A    between atoms: N_6  and  C_43
    7  A    between atoms: C_7  and  C_20
    8  A    between atoms: C_8  and  C_42
    9  A    between atoms: C_9  and  N_14
   10  A    between atoms: C_11  and  N_21
   11  A    between atoms: C_20  and  C_23
   12  A    between atoms: N_21  and  C_31
   13  A    between atoms: C_22  and  C_26
   14  A    between atoms: C_22  and  O_28
   15  A    between atoms: C_22  and  C_38
   16  A    between atoms: C_23  and  N_51
   17  A    between atoms: C_26  and  S_39
   18  A    between atoms: C_32  and  N_51
   19  A    between atoms: C_32  and  C_54
   20  A    between atoms: C_36  and  C_56
   21  A    between atoms: S_39  and  N_46
   22  A    between atoms: C_41  and  C_54
   23  A    between atoms: C_53  and  C_56
                            x       y       z     vdW  Elec       q    Type
                         _______ _______ _______ _____ _____    ______ ____

>  <TORSDO>
F 23

$$$$
=
 OpenBabel11042413273D

 56 58  0  0  1  0  0  0  0  0999 V2000
  188.7610  178.0300  139.4240 C   0  0  1  0  0  3  0  0  0  0  0  0
  190.6510  177.0890  140.7000 N   0  0  0  0  0  2  0  0  0  0  0  0
  187.4900  178.6390  141.4520 C   0  0  0  0  0  0  0  0  0  0  0  0
  189.6410  177.1950  142.8260 O   0  0  0  0  0  0  0  0  0  0  0  0
  188.4230  177.9250  140.8760 C   0  0  0  0  0  0  0  0  0  0  0  0
  189.5810  177.3840  141.5800 C   0  0  0  0  0  0  0  0  0  0  0  0
  190.1610  177.4790  139.4180 C   0  0  0  0  0  0  0  0  0  0  0  0
  190.8630  177.3830  138.3760 O   0  0  0  0  0  0  0  0  0  0  0  0
  186.5600  179.3520  142.0350 C   0  0  0  0  0  3  0  0  0  0  0  0
  182.9020  178.8760  143.0810 C   0  0  0  0  0  1  0  0  0  0  0  0
  184.3650  179.2160  143.1080 C   0  0  0  0  0  0  0  0  0  0  0  0
  185.1330  178.9670  142.0260 C   0  0  0  0  0  0  0  0  0  0  0  0
  184.9410  179.8840  144.2450 N   0  0  0  0  0  0  0  0  0  0  0  0
  185.3550  179.3420  145.3570 C   0  0  0  0  0  3  0  0  0  0  0  0
  185.3750  177.8690  145.6270 C   0  0  0  0  0  2  0  0  0  0  0  0
  186.6890  177.2570  145.1670 C   0  0  0  0  0  2  0  0  0  0  0  0
  187.8340  177.6610  146.0810 C   0  0  0  0  0  2  0  0  0  0  0  0
  187.4910  177.3970  147.4660 N   0  0  0  0  0  2  0  0  0  0  0  0
  188.6040  177.8460  148.2860 C   0  0  0  0  0  2  0  0  0  0  0  0
  189.9180  177.4720  147.6260 C   0  0  0  0  0  1  0  0  0  0  0  0
  184.5490  178.3350  140.7890 C   0  0  0  0  0  2  0  0  0  0  0  0
  184.1960  179.3710  139.8270 N   0  0  0  0  0  2  0  0  0  0  0  0
  182.9770  178.9460  139.1560 C   0  0  0  0  0  2  0  0  0  0  0  0
  181.8470  179.9340  139.4320 C   0  0  2  0  0  3  0  0  0  0  0  0
  180.7320  179.2160  140.1780 C   0  0  0  0  0  1  0  0  0  0  0  0
  181.3330  180.5210  138.1230 C   0  0  1  0  0  3  0  0  0  0  0  0
  180.2640  179.7560  137.6390 O   0  0  0  0  0  1  0  0  0  0  0  0
  180.8670  181.9530  138.3330 C   0  0  0  0  0  2  0  0  0  0  0  0
  179.6290  182.2410  137.4970 C   0  0  0  0  0  2  0  0  0  0  0  0
  180.6520  182.8240  135.4100 O   0  0  0  0  0  1  0  0  0  0  0  0
  179.9170  183.3410  136.4850 C   0  0  2  0  0  3  0  0  0  0  0  0
  181.4460  185.1830  136.2140 O   0  0  0  0  0  1  0  0  0  0  0  0
  179.6820  185.4560  137.7960 C   0  0  0  0  0  1  0  0  0  0  0  0
  180.6640  184.4940  137.1480 C   0  0  1  0  0  3  0  0  0  0  0  0
  187.8870  177.1500  138.6560 N   0  0  0  0  0  2  0  0  0  0  0  0
  188.1080  179.3000  137.0970 O   0  0  0  0  0  0  0  0  0  0  0  0
  187.3770  177.9900  137.2270 S   0  0  0  0  0  0  0  0  0  0  0  0
  185.9000  178.2500  137.2960 O   0  0  0  0  0  0  0  0  0  0  0  0
  187.7320  176.9550  135.8200 C   0  0  0  0  0  2  0  0  0  0  0  0
  188.1300  175.5360  136.2460 C   0  0  1  0  0  3  0  0  0  0  0  0
  185.0070  173.6410  134.9560 C   0  0  2  0  0  3  0  0  0  0  0  0
  186.0490  172.4160  136.9890 C   0  0  0  0  0  3  0  0  0  0  0  0
  186.9200  173.4120  137.1390 C   0  0  0  0  0  3  0  0  0  0  0  0
  184.4570  171.3730  135.5910 O   0  0  0  0  0  0  0  0  0  0  0  0
  187.0380  174.5000  136.1380 C   0  0  0  0  0  0  0  0  0  0  0  0
  185.1470  172.3990  135.8290 C   0  0  0  0  0  0  0  0  0  0  0  0
  186.1790  174.5800  135.1090 C   0  0  0  0  0  3  0  0  0  0  0  0
  183.7410  174.3660  135.1780 N   0  0  0  0  0  0  0  0  0  0  0  0
  183.4040  175.6100  137.3780 C   0  0  0  0  0  2  0  0  0  0  0  0
  182.1180  176.3830  137.1110 C   0  0  0  0  0  2  0  0  0  0  0  0
  182.2300  177.2240  135.8430 C   0  0  0  0  0  2  0  0  0  0  0  0
  183.3910  174.2840  136.6110 C   0  0  0  0  0  2  0  0  0  0  0  0
  182.4010  176.3600  134.6010 C   0  0  0  0  0  2  0  0  0  0  0  0
  183.7850  175.7220  134.6050 C   0  0  0  0  0  2  0  0  0  0  0  0
  190.1770  174.6050  136.7020 C   0  0  0  0  0  1  0  0  0  0  0  0
  189.3570  175.1150  135.6820 O   0  0  0  0  0  0  0  0  0  0  0  0
  1 35  1  6  0  0  0
  1  5  1  0  0  0  0
  2  6  1  0  0  0  0
  3  9  2  0  0  0  0
  5  3  2  0  0  0  0
  5  6  1  0  0  0  0
  6  4  2  0  0  0  0
  7  1  1  0  0  0  0
  7  2  1  0  0  0  0
  8  7  2  0  0  0  0
 10 11  1  0  0  0  0
 11 13  1  0  0  0  0
 12  9  1  0  0  0  0
 12 11  2  0  0  0  0
 13 14  2  0  0  0  0
 14 15  1  0  0  0  0
 16 15  1  0  0  0  0
 16 17  1  0  0  0  0
 17 18  1  0  0  0  0
 18 19  1  0  0  0  0
 20 19  1  0  0  0  0
 21 12  1  0  0  0  0
 22 21  1  0  0  0  0
 23 24  1  0  0  0  0
 23 22  1  0  0  0  0
 24 25  1  6  0  0  0
 26 27  1  1  0  0  0
 26 28  1  0  0  0  0
 26 24  1  0  0  0  0
 29 28  1  0  0  0  0
 31 30  1  6  0  0  0
 31 34  1  0  0  0  0
 31 29  1  0  0  0  0
 32 34  1  0  0  0  0
 34 33  1  6  0  0  0
 36 37  2  0  0  0  0
 37 38  2  0  0  0  0
 37 35  1  0  0  0  0
 39 37  1  0  0  0  0
 40 39  1  6  0  0  0
 41 47  1  1  0  0  0
 41 48  1  0  0  0  0
 41 46  1  0  0  0  0
 42 43  2  0  0  0  0
 44 46  2  0  0  0  0
 45 40  1  0  0  0  0
 45 43  1  0  0  0  0
 46 42  1  0  0  0  0
 47 45  2  0  0  0  0
 48 52  1  0  0  0  0
 50 49  1  0  0  0  0
 51 50  1  0  0  0  0
 52 49  1  0  0  0  0
 53 54  1  0  0  0  0
 53 51  1  0  0  0  0
 54 48  1  0  0  0  0
 56 40  1  0  0  0  0
 56 55  1  0  0  0  0
M  END
>  <MODEL>
2

>  <REMARK>
 VINA RESULT:      -7.0      3.267     10.067
  Name = 
  23 active torsions:
  status: ('A' for Active; 'I' for Inactive)
    1  A    between atoms: C_1  and  C_8
    2  A    between atoms: C_1  and  C_31
    3  A    between atoms: C_2  and  N_46
    4  A    between atoms: C_4  and  C_7
    5  A    between atoms: C_4  and  C_36
    6  A    between atoms: N_6  and  C_43
    7  A    between atoms: C_7  and  C_20
    8  A    between atoms: C_8  and  C_42
    9  A    between atoms: C_9  and  N_14
   10  A    between atoms: C_11  and  N_21
   11  A    between atoms: C_20  and  C_23
   12  A    between atoms: N_21  and  C_31
   13  A    between atoms: C_22  and  C_26
   14  A    between atoms: C_22  and  O_28
   15  A    between atoms: C_22  and  C_38
   16  A    between atoms: C_23  and  N_51
   17  A    between atoms: C_26  and  S_39
   18  A    between atoms: C_32  and  N_51
   19  A    between atoms: C_32  and  C_54
   20  A    between atoms: C_36  and  C_56
   21  A    between atoms: S_39  and  N_46
   22  A    between atoms: C_41  and  C_54
   23  A    between atoms: C_53  and  C_56
                            x       y       z     vdW  Elec       q    Type
                         _______ _______ _______ _____ _____    ______ ____

>  <TORSDO>
F 23

$$$$
=
 OpenBabel11042413273D

 56 58  0  0  1  0  0  0  0  0999 V2000
  184.4570  178.4540  142.7900 C   0  0  1  0  0  3  0  0  0  0  0  0
  183.2630  179.1180  144.8440 N   0  0  0  0  0  2  0  0  0  0  0  0
  186.3620  177.4800  144.0230 C   0  0  0  0  0  0  0  0  0  0  0  0
  184.9990  178.6170  146.3570 O   0  0  0  0  0  0  0  0  0  0  0  0
  185.3290  178.2830  143.9900 C   0  0  0  0  0  0  0  0  0  0  0  0
  184.5670  178.6700  145.1730 C   0  0  0  0  0  0  0  0  0  0  0  0
  183.2000  178.9840  143.4260 C   0  0  0  0  0  0  0  0  0  0  0  0
  182.1610  179.2700  142.7720 O   0  0  0  0  0  0  0  0  0  0  0  0
  187.3950  176.6780  144.0610 C   0  0  0  0  0  3  0  0  0  0  0  0
  190.8380  178.3420  143.7840 C   0  0  0  0  0  1  0  0  0  0  0  0
  189.4570  177.9820  144.2520 C   0  0  0  0  0  0  0  0  0  0  0  0
  188.7320  177.0700  143.5690 C   0  0  0  0  0  0  0  0  0  0  0  0
  188.9280  178.5370  145.4690 N   0  0  0  0  0  0  0  0  0  0  0  0
  188.9470  178.0020  146.6590 C   0  0  0  0  0  3  0  0  0  0  0  0
  189.6120  176.7030  146.9940 C   0  0  0  0  0  2  0  0  0  0  0  0
  191.0080  176.9420  147.5480 C   0  0  0  0  0  2  0  0  0  0  0  0
  192.0710  176.3470  146.6390 C   0  0  0  0  0  2  0  0  0  0  0  0
  191.9440  174.9020  146.5940 N   0  0  0  0  0  2  0  0  0  0  0  0
  192.5920  174.4450  145.3760 C   0  0  0  0  0  2  0  0  0  0  0  0
  191.9090  175.0550  144.1650 C   0  0  0  0  0  1  0  0  0  0  0  0
  189.2820  176.4130  142.3290 C   0  0  0  0  0  2  0  0  0  0  0  0
  189.0420  177.2680  141.1730 N   0  0  0  0  0  2  0  0  0  0  0  0
  189.5790  176.5840  140.0060 C   0  0  0  0  0  2  0  0  0  0  0  0
  189.8820  177.5850  138.8960 C   0  0  2  0  0  3  0  0  0  0  0  0
  189.2040  178.9080  139.2210 C   0  0  0  0  0  1  0  0  0  0  0  0
  189.4000  177.0430  137.5560 C   0  0  1  0  0  3  0  0  0  0  0  0
  188.6280  178.0090  136.8970 O   0  0  0  0  0  1  0  0  0  0  0  0
  190.5850  176.6690  136.6800 C   0  0  0  0  0  2  0  0  0  0  0  0
  190.9460  175.2020  136.8670 C   0  0  0  0  0  2  0  0  0  0  0  0
  192.9130  174.1050  137.6850 O   0  0  0  0  0  1  0  0  0  0  0  0
  192.4480  175.0030  136.7150 C   0  0  2  0  0  3  0  0  0  0  0  0
  193.6860  176.5290  138.1080 O   0  0  0  0  0  1  0  0  0  0  0  0
  194.3110  176.4010  135.8100 C   0  0  0  0  0  1  0  0  0  0  0  0
  193.1770  176.3390  136.8190 C   0  0  1  0  0  3  0  0  0  0  0  0
  185.0260  179.4720  141.9140 N   0  0  0  0  0  2  0  0  0  0  0  0
  186.1520  178.4660  139.7180 O   0  0  0  0  0  0  0  0  0  0  0  0
  184.8380  178.9540  140.2700 S   0  0  0  0  0  0  0  0  0  0  0  0
  184.3440  180.1000  139.4350 O   0  0  0  0  0  0  0  0  0  0  0  0
  183.6390  177.6360  140.2380 C   0  0  0  0  0  2  0  0  0  0  0  0
  182.5320  177.9000  139.2100 C   0  0  1  0  0  3  0  0  0  0  0  0
  182.6120  174.3680  137.6220 C   0  0  2  0  0  3  0  0  0  0  0  0
  180.8910  175.8800  136.4100 C   0  0  0  0  0  3  0  0  0  0  0  0
  181.2820  176.9150  137.1510 C   0  0  0  0  0  3  0  0  0  0  0  0
  180.9160  173.5380  136.1100 O   0  0  0  0  0  0  0  0  0  0  0  0
  182.2180  176.7460  138.2900 C   0  0  0  0  0  0  0  0  0  0  0  0
  181.4200  174.5380  136.6860 C   0  0  0  0  0  0  0  0  0  0  0  0
  182.7990  175.5600  138.5280 C   0  0  0  0  0  3  0  0  0  0  0  0
  183.8690  174.0670  136.9090 N   0  0  0  0  0  0  0  0  0  0  0  0
  185.6590  175.8760  136.7530 C   0  0  0  0  0  2  0  0  0  0  0  0
  186.8370  175.1060  136.1680 C   0  0  0  0  0  2  0  0  0  0  0  0
  187.1630  173.8730  137.0020 C   0  0  0  0  0  2  0  0  0  0  0  0
  184.3390  175.2950  136.2350 C   0  0  0  0  0  2  0  0  0  0  0  0
  186.0240  172.8610  136.9920 C   0  0  0  0  0  2  0  0  0  0  0  0
  184.8460  173.4040  137.7910 C   0  0  0  0  0  2  0  0  0  0  0  0
  180.6130  177.4890  140.3990 C   0  0  0  0  0  1  0  0  0  0  0  0
  181.3800  178.4900  139.7800 O   0  0  0  0  0  0  0  0  0  0  0  0
  1 35  1  6  0  0  0
  1  7  1  0  0  0  0
  1  5  1  0  0  0  0
  2  6  1  0  0  0  0
  3  9  2  0  0  0  0
  5  3  2  0  0  0  0
  5  6  1  0  0  0  0
  6  4  2  0  0  0  0
  7  2  1  0  0  0  0
  8  7  2  0  0  0  0
 10 11  1  0  0  0  0
 11 13  1  0  0  0  0
 12  9  1  0  0  0  0
 12 11  2  0  0  0  0
 13 14  2  0  0  0  0
 14 15  1  0  0  0  0
 15 16  1  0  0  0  0
 17 16  1  0  0  0  0
 18 17  1  0  0  0  0
 19 18  1  0  0  0  0
 20 19  1  0  0  0  0
 21 12  1  0  0  0  0
 22 21  1  0  0  0  0
 23 22  1  0  0  0  0
 24 25  1  1  0  0  0
 24 23  1  0  0  0  0
 26 27  1  6  0  0  0
 26 24  1  0  0  0  0
 28 29  1  0  0  0  0
 28 26  1  0  0  0  0
 31 34  1  0  0  0  0
 31 29  1  0  0  0  0
 31 30  1  1  0  0  0
 34 33  1  6  0  0  0
 34 32  1  0  0  0  0
 36 37  2  0  0  0  0
 37 35  1  0  0  0  0
 38 37  2  0  0  0  0
 39 37  1  0  0  0  0
 40 56  1  0  0  0  0
 40 39  1  1  0  0  0
 41 48  1  6  0  0  0
 41 47  1  0  0  0  0
 42 46  1  0  0  0  0
 42 43  2  0  0  0  0
 43 45  1  0  0  0  0
 44 46  2  0  0  0  0
 45 47  2  0  0  0  0
 45 40  1  0  0  0  0
 46 41  1  0  0  0  0
 48 54  1  0  0  0  0
 50 49  1  0  0  0  0
 50 51  1  0  0  0  0
 52 49  1  0  0  0  0
 52 48  1  0  0  0  0
 53 51  1  0  0  0  0
 53 54  1  0  0  0  0
 56 55  1  0  0  0  0
M  END
>  <MODEL>
3

>  <REMARK>
 VINA RESULT:      -6.8      2.895      7.939
  Name = 
  23 active torsions:
  status: ('A' for Active; 'I' for Inactive)
    1  A    between atoms: C_1  and  C_8
    2  A    between atoms: C_1  and  C_31
    3  A    between atoms: C_2  and  N_46
    4  A    between atoms: C_4  and  C_7
    5  A    between atoms: C_4  and  C_36
    6  A    between atoms: N_6  and  C_43
    7  A    between atoms: C_7  and  C_20
    8  A    between atoms: C_8  and  C_42
    9  A    between atoms: C_9  and  N_14
   10  A    between atoms: C_11  and  N_21
   11  A    between atoms: C_20  and  C_23
   12  A    between atoms: N_21  and  C_31
   13  A    between atoms: C_22  and  C_26
   14  A    between atoms: C_22  and  O_28
   15  A    between atoms: C_22  and  C_38
   16  A    between atoms: C_23  and  N_51
   17  A    between atoms: C_26  and  S_39
   18  A    between atoms: C_32  and  N_51
   19  A    between atoms: C_32  and  C_54
   20  A    between atoms: C_36  and  C_56
   21  A    between atoms: S_39  and  N_46
   22  A    between atoms: C_41  and  C_54
   23  A    between atoms: C_53  and  C_56
                            x       y       z     vdW  Elec       q    Type
                         _______ _______ _______ _____ _____    ______ ____

>  <TORSDO>
F 23

$$$$
=
 OpenBabel11042413273D

 56 58  0  0  1  0  0  0  0  0999 V2000
  186.6660  172.9070  135.3490 C   0  0  1  0  0  3  0  0  0  0  0  0
  186.1930  170.4920  135.1760 N   0  0  0  0  0  2  0  0  0  0  0  0
  189.1140  172.5840  135.4110 C   0  0  0  0  0  0  0  0  0  0  0  0
  188.3980  169.7430  135.5380 O   0  0  0  0  0  0  0  0  0  0  0  0
  187.9070  172.1050  135.5720 C   0  0  0  0  0  0  0  0  0  0  0  0
  187.5720  170.6910  135.4380 C   0  0  0  0  0  0  0  0  0  0  0  0
  185.6590  171.8130  135.1190 C   0  0  0  0  0  0  0  0  0  0  0  0
  184.4420  172.0330  134.8750 O   0  0  0  0  0  0  0  0  0  0  0  0
  190.3230  173.0580  135.2490 C   0  0  0  0  0  3  0  0  0  0  0  0
  193.0920  174.7780  137.2670 C   0  0  0  0  0  1  0  0  0  0  0  0
  192.3740  173.9640  136.2290 C   0  0  0  0  0  0  0  0  0  0  0  0
  191.0340  173.8150  136.3000 C   0  0  0  0  0  0  0  0  0  0  0  0
  193.0890  173.4090  135.1100 N   0  0  0  0  0  0  0  0  0  0  0  0
  193.7410  172.2800  135.0660 C   0  0  0  0  0  3  0  0  0  0  0  0
  193.8020  171.2920  136.1900 C   0  0  0  0  0  2  0  0  0  0  0  0
  195.2460  170.9630  136.5380 C   0  0  0  0  0  2  0  0  0  0  0  0
  195.4500  170.9000  138.0420 C   0  0  0  0  0  2  0  0  0  0  0  0
  195.2620  172.2130  138.6330 N   0  0  0  0  0  2  0  0  0  0  0  0
  196.3470  173.0600  138.1680 C   0  0  0  0  0  2  0  0  0  0  0  0
  196.4310  174.3110  139.0240 C   0  0  0  0  0  1  0  0  0  0  0  0
  190.2420  174.4420  137.4180 C   0  0  0  0  0  2  0  0  0  0  0  0
  189.7090  175.7260  136.9820 N   0  0  0  0  0  2  0  0  0  0  0  0
  190.3330  176.7570  137.7990 C   0  0  0  0  0  2  0  0  0  0  0  0
  189.4500  177.0910  138.9990 C   0  0  2  0  0  3  0  0  0  0  0  0
  189.2100  178.5930  139.0350 C   0  0  0  0  0  1  0  0  0  0  0  0
  190.1130  176.6170  140.2860 C   0  0  1  0  0  3  0  0  0  0  0  0
  191.4140  177.1310  140.3740 O   0  0  0  0  0  1  0  0  0  0  0  0
  189.3120  177.0760  141.4940 C   0  0  0  0  0  2  0  0  0  0  0  0
  190.1890  177.1060  142.7370 C   0  0  0  0  0  2  0  0  0  0  0  0
  188.0240  177.1790  143.7600 O   0  0  0  0  0  1  0  0  0  0  0  0
  189.3580  176.8130  143.9790 C   0  0  2  0  0  3  0  0  0  0  0  0
  189.7320  176.8040  146.3590 O   0  0  0  0  0  1  0  0  0  0  0  0
  191.4150  177.8040  144.9960 C   0  0  0  0  0  1  0  0  0  0  0  0
  189.9300  177.5460  145.1880 C   0  0  1  0  0  3  0  0  0  0  0  0
  186.3290  173.6330  136.5680 N   0  0  0  0  0  2  0  0  0  0  0  0
  184.5550  175.3500  135.5650 O   0  0  0  0  0  0  0  0  0  0  0  0
  185.9420  175.2700  136.1480 S   0  0  0  0  0  0  0  0  0  0  0  0
  186.9330  175.7790  135.1420 O   0  0  0  0  0  0  0  0  0  0  0  0
  186.0360  176.2590  137.6270 C   0  0  0  0  0  2  0  0  0  0  0  0
  185.3820  177.6320  137.4340 C   0  0  1  0  0  3  0  0  0  0  0  0
  182.8500  178.9610  140.0470 C   0  0  2  0  0  3  0  0  0  0  0  0
  181.6880  177.3540  138.3780 C   0  0  0  0  0  3  0  0  0  0  0  0
  182.8670  177.0870  137.8180 C   0  0  0  0  0  3  0  0  0  0  0  0
  180.4500  178.7670  139.8080 O   0  0  0  0  0  0  0  0  0  0  0  0
  184.0900  177.8430  138.1840 C   0  0  0  0  0  0  0  0  0  0  0  0
  181.5860  178.3900  139.4140 C   0  0  0  0  0  0  0  0  0  0  0  0
  184.0690  178.7360  139.1860 C   0  0  0  0  0  3  0  0  0  0  0  0
  183.0900  178.4600  141.4130 N   0  0  0  0  0  0  0  0  0  0  0  0
  185.1290  179.3020  142.6930 C   0  0  0  0  0  2  0  0  0  0  0  0
  184.8810  178.7400  144.0880 C   0  0  0  0  0  2  0  0  0  0  0  0
  183.5100  179.1470  144.6150 C   0  0  0  0  0  2  0  0  0  0  0  0
  184.5480  178.3600  141.6330 C   0  0  0  0  0  2  0  0  0  0  0  0
  182.3810  178.5580  143.7790 C   0  0  0  0  0  2  0  0  0  0  0  0
  182.3410  179.2380  142.4160 C   0  0  0  0  0  2  0  0  0  0  0  0
  187.0010  178.8710  136.3810 C   0  0  0  0  0  1  0  0  0  0  0  0
  186.2950  178.7030  137.5830 O   0  0  0  0  0  0  0  0  0  0  0  0
  1  5  1  0  0  0  0
  1 35  1  1  0  0  0
  2  6  1  0  0  0  0
  3  5  2  0  0  0  0
  6  4  2  0  0  0  0
  6  5  1  0  0  0  0
  7  2  1  0  0  0  0
  7  1  1  0  0  0  0
  8  7  2  0  0  0  0
  9  3  2  0  0  0  0
  9 12  1  0  0  0  0
 11 12  2  0  0  0  0
 11 10  1  0  0  0  0
 12 21  1  0  0  0  0
 13 11  1  0  0  0  0
 14 13  2  0  0  0  0
 14 15  1  0  0  0  0
 15 16  1  0  0  0  0
 16 17  1  0  0  0  0
 17 18  1  0  0  0  0
 19 18  1  0  0  0  0
 19 20  1  0  0  0  0
 22 21  1  0  0  0  0
 22 23  1  0  0  0  0
 23 24  1  0  0  0  0
 24 25  1  1  0  0  0
 24 26  1  0  0  0  0
 26 27  1  1  0  0  0
 26 28  1  0  0  0  0
 28 29  1  0  0  0  0
 29 31  1  0  0  0  0
 31 30  1  6  0  0  0
 31 34  1  0  0  0  0
 34 33  1  6  0  0  0
 34 32  1  0  0  0  0
 36 37  2  0  0  0  0
 37 35  1  0  0  0  0
 37 39  1  0  0  0  0
 38 37  2  0  0  0  0
 40 56  1  0  0  0  0
 40 39  1  1  0  0  0
 40 45  1  0  0  0  0
 41 47  1  6  0  0  0
 41 48  1  0  0  0  0
 42 46  1  0  0  0  0
 43 45  1  0  0  0  0
 43 42  2  0  0  0  0
 45 47  2  0  0  0  0
 46 44  2  0  0  0  0
 46 41  1  0  0  0  0
 48 52  1  0  0  0  0
 48 54  1  0  0  0  0
 49 50  1  0  0  0  0
 50 51  1  0  0  0  0
 52 49  1  0  0  0  0
 53 51  1  0  0  0  0
 54 53  1  0  0  0  0
 55 56  1  0  0  0  0
M  END
>  <MODEL>
4

>  <REMARK>
 VINA RESULT:      -6.1      1.984      2.872
  Name = 
  23 active torsions:
  status: ('A' for Active; 'I' for Inactive)
    1  A    between atoms: C_1  and  C_8
    2  A    between atoms: C_1  and  C_31
    3  A    between atoms: C_2  and  N_46
    4  A    between atoms: C_4  and  C_7
    5  A    between atoms: C_4  and  C_36
    6  A    between atoms: N_6  and  C_43
    7  A    between atoms: C_7  and  C_20
    8  A    between atoms: C_8  and  C_42
    9  A    between atoms: C_9  and  N_14
   10  A    between atoms: C_11  and  N_21
   11  A    between atoms: C_20  and  C_23
   12  A    between atoms: N_21  and  C_31
   13  A    between atoms: C_22  and  C_26
   14  A    between atoms: C_22  and  O_28
   15  A    between atoms: C_22  and  C_38
   16  A    between atoms: C_23  and  N_51
   17  A    between atoms: C_26  and  S_39
   18  A    between atoms: C_32  and  N_51
   19  A    between atoms: C_32  and  C_54
   20  A    between atoms: C_36  and  C_56
   21  A    between atoms: S_39  and  N_46
   22  A    between atoms: C_41  and  C_54
   23  A    between atoms: C_53  and  C_56
                            x       y       z     vdW  Elec       q    Type
                         _______ _______ _______ _____ _____    ______ ____

>  <TORSDO>
F 23

$$$$
=
 OpenBabel11042413273D

 56 58  0  0  1  0  0  0  0  0999 V2000
  188.2180  177.7890  138.9780 C   0  0  1  0  0  3  0  0  0  0  0  0
  185.9210  178.4620  138.3770 N   0  0  0  0  0  2  0  0  0  0  0  0
  188.7560  177.0160  136.6950 C   0  0  0  0  0  0  0  0  0  0  0  0
  185.9150  177.5470  136.2060 O   0  0  0  0  0  0  0  0  0  0  0  0
  187.8650  177.3130  137.6060 C   0  0  0  0  0  0  0  0  0  0  0  0
  186.5090  177.7560  137.2980 C   0  0  0  0  0  0  0  0  0  0  0  0
  186.9430  178.4830  139.3730 C   0  0  0  0  0  0  0  0  0  0  0  0
  186.7840  179.0590  140.4830 O   0  0  0  0  0  0  0  0  0  0  0  0
  189.6430  176.7190  135.7790 C   0  0  0  0  0  3  0  0  0  0  0  0
  190.3280  173.0260  135.0060 C   0  0  0  0  0  1  0  0  0  0  0  0
  189.6440  174.3570  135.1390 C   0  0  0  0  0  0  0  0  0  0  0  0
  190.2990  175.3970  135.6990 C   0  0  0  0  0  0  0  0  0  0  0  0
  188.3260  174.5600  134.5980 N   0  0  0  0  0  0  0  0  0  0  0  0
  187.2060  174.0420  135.0210 C   0  0  0  0  0  3  0  0  0  0  0  0
  187.0800  173.1720  136.2340 C   0  0  0  0  0  2  0  0  0  0  0  0
  186.4260  173.9350  137.3760 C   0  0  0  0  0  2  0  0  0  0  0  0
  184.9430  173.6190  137.4720 C   0  0  0  0  0  2  0  0  0  0  0  0
  184.1670  174.6180  136.7600 N   0  0  0  0  0  2  0  0  0  0  0  0
  183.0620  175.0080  137.6200 C   0  0  0  0  0  2  0  0  0  0  0  0
  181.8900  174.0650  137.4160 C   0  0  0  0  0  1  0  0  0  0  0  0
  191.7070  175.2410  136.2110 C   0  0  0  0  0  2  0  0  0  0  0  0
  192.6540  175.5860  135.1590 N   0  0  0  0  0  2  0  0  0  0  0  0
  193.8690  174.8200  135.3970 C   0  0  0  0  0  2  0  0  0  0  0  0
  194.9330  175.6990  136.0470 C   0  0  2  0  0  3  0  0  0  0  0  0
  195.4740  176.6730  135.0110 C   0  0  0  0  0  1  0  0  0  0  0  0
  196.0510  174.8350  136.6160 C   0  0  1  0  0  3  0  0  0  0  0  0
  195.9910  174.8320  138.0160 O   0  0  0  0  0  1  0  0  0  0  0  0
  195.9270  173.4080  136.1080 C   0  0  0  0  0  2  0  0  0  0  0  0
  197.3040  172.8010  135.8780 C   0  0  0  0  0  2  0  0  0  0  0  0
  199.1280  171.8600  137.1140 O   0  0  0  0  0  1  0  0  0  0  0  0
  197.7330  171.9870  137.0910 C   0  0  2  0  0  3  0  0  0  0  0  0
  197.9250  169.6370  137.5860 O   0  0  0  0  0  1  0  0  0  0  0  0
  195.7860  170.6450  137.9000 C   0  0  0  0  0  1  0  0  0  0  0  0
  197.0630  170.6160  137.0780 C   0  0  1  0  0  3  0  0  0  0  0  0
  188.4390  176.6410  139.8500 N   0  0  0  0  0  2  0  0  0  0  0  0
  190.3410  178.2920  140.7200 O   0  0  0  0  0  0  0  0  0  0  0  0
  189.9710  176.8340  140.6390 S   0  0  0  0  0  0  0  0  0  0  0  0
  191.0290  176.0950  139.8730 O   0  0  0  0  0  0  0  0  0  0  0  0
  189.8390  176.1500  142.2790 C   0  0  0  0  0  2  0  0  0  0  0  0
  190.3820  177.1140  143.3420 C   0  0  1  0  0  3  0  0  0  0  0  0
  187.2000  177.1970  145.5500 C   0  0  2  0  0  3  0  0  0  0  0  0
  189.2580  178.0490  146.8750 C   0  0  0  0  0  3  0  0  0  0  0  0
  190.0000  177.9640  145.7710 C   0  0  0  0  0  3  0  0  0  0  0  0
  187.2420  177.4610  147.9530 O   0  0  0  0  0  0  0  0  0  0  0  0
  189.4810  177.3370  144.5320 C   0  0  0  0  0  0  0  0  0  0  0  0
  187.8770  177.5490  146.8690 C   0  0  0  0  0  0  0  0  0  0  0  0
  188.1990  176.9470  144.4460 C   0  0  0  0  0  3  0  0  0  0  0  0
  186.2070  178.2010  145.1210 N   0  0  0  0  0  0  0  0  0  0  0  0
  184.9220  177.8150  142.9530 C   0  0  0  0  0  2  0  0  0  0  0  0
  183.8770  178.9230  143.0030 C   0  0  0  0  0  2  0  0  0  0  0  0
  183.0820  178.8770  144.3040 C   0  0  0  0  0  2  0  0  0  0  0  0
  186.2100  178.2730  143.6460 C   0  0  0  0  0  2  0  0  0  0  0  0
  183.9600  179.1490  145.5180 C   0  0  0  0  0  2  0  0  0  0  0  0
  184.8950  177.9690  145.7510 C   0  0  0  0  0  2  0  0  0  0  0  0
  191.8380  175.4850  144.0420 C   0  0  0  0  0  1  0  0  0  0  0  0
  191.7230  176.8420  143.6990 O   0  0  0  0  0  0  0  0  0  0  0  0
  1  7  1  0  0  0  0
  1 35  1  1  0  0  0
  2  7  1  0  0  0  0
  3  5  2  0  0  0  0
  4  6  2  0  0  0  0
  5  1  1  0  0  0  0
  6  5  1  0  0  0  0
  6  2  1  0  0  0  0
  7  8  2  0  0  0  0
  9  3  2  0  0  0  0
 10 11  1  0  0  0  0
 11 12  2  0  0  0  0
 12  9  1  0  0  0  0
 12 21  1  0  0  0  0
 13 14  2  0  0  0  0
 13 11  1  0  0  0  0
 14 15  1  0  0  0  0
 15 16  1  0  0  0  0
 16 17  1  0  0  0  0
 18 17  1  0  0  0  0
 18 19  1  0  0  0  0
 20 19  1  0  0  0  0
 22 23  1  0  0  0  0
 22 21  1  0  0  0  0
 23 24  1  0  0  0  0
 24 25  1  6  0  0  0
 24 26  1  0  0  0  0
 26 27  1  1  0  0  0
 28 26  1  0  0  0  0
 29 28  1  0  0  0  0
 29 31  1  0  0  0  0
 31 30  1  6  0  0  0
 34 31  1  0  0  0  0
 34 32  1  0  0  0  0
 34 33  1  1  0  0  0
 35 37  1  0  0  0  0
 37 36  2  0  0  0  0
 37 39  1  0  0  0  0
 38 37  2  0  0  0  0
 40 39  1  1  0  0  0
 40 56  1  0  0  0  0
 40 45  1  0  0  0  0
 41 47  1  6  0  0  0
 41 46  1  0  0  0  0
 43 42  2  0  0  0  0
 45 43  1  0  0  0  0
 46 42  1  0  0  0  0
 46 44  2  0  0  0  0
 47 45  2  0  0  0  0
 48 41  1  0  0  0  0
 48 54  1  0  0  0  0
 49 50  1  0  0  0  0
 49 52  1  0  0  0  0
 50 51  1  0  0  0  0
 51 53  1  0  0  0  0
 52 48  1  0  0  0  0
 53 54  1  0  0  0  0
 56 55  1  0  0  0  0
M  END
>  <MODEL>
5

>  <REMARK>
 VINA RESULT:      -5.9      3.063      8.116
  Name = 
  23 active torsions:
  status: ('A' for Active; 'I' for Inactive)
    1  A    between atoms: C_1  and  C_8
    2  A    between atoms: C_1  and  C_31
    3  A    between atoms: C_2  and  N_46
    4  A    between atoms: C_4  and  C_7
    5  A    between atoms: C_4  and  C_36
    6  A    between atoms: N_6  and  C_43
    7  A    between atoms: C_7  and  C_20
    8  A    between atoms: C_8  and  C_42
    9  A    between atoms: C_9  and  N_14
   10  A    between atoms: C_11  and  N_21
   11  A    between atoms: C_20  and  C_23
   12  A    between atoms: N_21  and  C_31
   13  A    between atoms: C_22  and  C_26
   14  A    between atoms: C_22  and  O_28
   15  A    between atoms: C_22  and  C_38
   16  A    between atoms: C_23  and  N_51
   17  A    between atoms: C_26  and  S_39
   18  A    between atoms: C_32  and  N_51
   19  A    between atoms: C_32  and  C_54
   20  A    between atoms: C_36  and  C_56
   21  A    between atoms: S_39  and  N_46
   22  A    between atoms: C_41  and  C_54
   23  A    between atoms: C_53  and  C_56
                            x       y       z     vdW  Elec       q    Type
                         _______ _______ _______ _____ _____    ______ ____

>  <TORSDO>
F 23

$$$$
=
 OpenBabel11042413273D

 56 58  0  0  1  0  0  0  0  0999 V2000
  187.7050  177.7510  141.8790 C   0  0  1  0  0  3  0  0  0  0  0  0
  189.4950  177.9540  143.5650 N   0  0  0  0  0  2  0  0  0  0  0  0
  189.2590  177.0780  140.0810 C   0  0  0  0  0  0  0  0  0  0  0  0
  191.3100  177.6800  142.0880 O   0  0  0  0  0  0  0  0  0  0  0  0
  189.0520  177.6500  141.2400 C   0  0  0  0  0  0  0  0  0  0  0  0
  190.0670  177.7550  142.2830 C   0  0  0  0  0  0  0  0  0  0  0  0
  188.0900  177.9460  143.3210 C   0  0  0  0  0  0  0  0  0  0  0  0
  187.2480  178.0720  144.2500 O   0  0  0  0  0  0  0  0  0  0  0  0
  189.4720  176.5060  138.9230 C   0  0  0  0  0  3  0  0  0  0  0  0
  189.4760  177.3200  135.1760 C   0  0  0  0  0  1  0  0  0  0  0  0
  189.7060  176.6300  136.4900 C   0  0  0  0  0  0  0  0  0  0  0  0
  189.2920  177.2110  137.6370 C   0  0  0  0  0  0  0  0  0  0  0  0
  190.2890  175.3150  136.5350 N   0  0  0  0  0  0  0  0  0  0  0  0
  191.5540  175.0050  136.4630 C   0  0  0  0  0  3  0  0  0  0  0  0
  192.6690  176.0020  136.3950 C   0  0  0  0  0  2  0  0  0  0  0  0
  193.5330  175.9270  137.6440 C   0  0  0  0  0  2  0  0  0  0  0  0
  194.6980  174.9700  137.4510 C   0  0  0  0  0  2  0  0  0  0  0  0
  195.4620  174.8500  138.6800 N   0  0  0  0  0  2  0  0  0  0  0  0
  196.5440  173.9120  138.4320 C   0  0  0  0  0  2  0  0  0  0  0  0
  197.8780  174.6360  138.4820 C   0  0  0  0  0  1  0  0  0  0  0  0
  188.6130  178.5560  137.6230 C   0  0  0  0  0  2  0  0  0  0  0  0
  187.2160  178.4050  138.0090 N   0  0  0  0  0  2  0  0  0  0  0  0
  186.4710  178.0350  136.8150 C   0  0  0  0  0  2  0  0  0  0  0  0
  185.5450  176.8590  137.1080 C   0  0  2  0  0  3  0  0  0  0  0  0
  186.3190  175.5610  136.9340 C   0  0  0  0  0  1  0  0  0  0  0  0
  184.3360  176.8990  136.1810 C   0  0  1  0  0  3  0  0  0  0  0  0
  184.4160  175.8610  135.2440 O   0  0  0  0  0  1  0  0  0  0  0  0
  183.0510  176.7530  136.9800 C   0  0  0  0  0  2  0  0  0  0  0  0
  182.8020  175.2930  137.3300 C   0  0  0  0  0  2  0  0  0  0  0  0
  181.0060  174.9310  138.8730 O   0  0  0  0  0  1  0  0  0  0  0  0
  181.3120  175.0390  137.5110 C   0  0  2  0  0  3  0  0  0  0  0  0
  181.5960  172.6640  137.2220 O   0  0  0  0  0  1  0  0  0  0  0  0
  179.3990  173.5420  136.9210 C   0  0  0  0  0  1  0  0  0  0  0  0
  180.8910  173.7800  136.7590 C   0  0  1  0  0  3  0  0  0  0  0  0
  187.0220  178.9430  141.3900 N   0  0  0  0  0  2  0  0  0  0  0  0
  185.0000  179.9300  142.8180 O   0  0  0  0  0  0  0  0  0  0  0  0
  185.3490  178.8420  141.8350 S   0  0  0  0  0  0  0  0  0  0  0  0
  185.0730  177.5050  142.4570 O   0  0  0  0  0  0  0  0  0  0  0  0
  184.3710  179.0240  140.3570 C   0  0  0  0  0  2  0  0  0  0  0  0
  182.8860  179.2290  140.6810 C   0  0  1  0  0  3  0  0  0  0  0  0
  181.3790  180.2990  137.2760 C   0  0  2  0  0  3  0  0  0  0  0  0
  180.0050  178.3660  138.3210 C   0  0  0  0  0  3  0  0  0  0  0  0
  180.7540  178.4300  139.4200 C   0  0  0  0  0  3  0  0  0  0  0  0
  179.7550  178.9860  136.0570 O   0  0  0  0  0  0  0  0  0  0  0  0
  181.9670  179.2830  139.4850 C   0  0  0  0  0  0  0  0  0  0  0  0
  180.3490  179.1820  137.1500 C   0  0  0  0  0  0  0  0  0  0  0  0
  182.2740  180.1140  138.4770 C   0  0  0  0  0  3  0  0  0  0  0  0
  180.7750  181.6450  137.2930 N   0  0  0  0  0  0  0  0  0  0  0  0
  182.2820  183.6670  137.6700 C   0  0  0  0  0  2  0  0  0  0  0  0
  181.3330  184.8260  137.3880 C   0  0  0  0  0  2  0  0  0  0  0  0
  180.6810  184.6880  136.0170 C   0  0  0  0  0  2  0  0  0  0  0  0
  181.5090  182.4840  138.2620 C   0  0  0  0  0  2  0  0  0  0  0  0
  179.7880  183.4570  135.9320 C   0  0  0  0  0  2  0  0  0  0  0  0
  180.6470  182.1980  135.9320 C   0  0  0  0  0  2  0  0  0  0  0  0
  181.6740  179.1230  142.6260 C   0  0  0  0  0  1  0  0  0  0  0  0
  182.4210  178.3720  141.7050 O   0  0  0  0  0  0  0  0  0  0  0  0
  1 35  1  6  0  0  0
  1  7  1  0  0  0  0
  3  5  2  0  0  0  0
  4  6  2  0  0  0  0
  5  1  1  0  0  0  0
  5  6  1  0  0  0  0
  6  2  1  0  0  0  0
  7  2  1  0  0  0  0
  7  8  2  0  0  0  0
  9  3  2  0  0  0  0
 10 11  1  0  0  0  0
 11 13  1  0  0  0  0
 11 12  2  0  0  0  0
 12  9  1  0  0  0  0
 14 13  2  0  0  0  0
 15 14  1  0  0  0  0
 15 16  1  0  0  0  0
 17 16  1  0  0  0  0
 17 18  1  0  0  0  0
 19 20  1  0  0  0  0
 19 18  1  0  0  0  0
 21 12  1  0  0  0  0
 21 22  1  0  0  0  0
 23 24  1  0  0  0  0
 23 22  1  0  0  0  0
 24 25  1  6  0  0  0
 26 27  1  6  0  0  0
 26 28  1  0  0  0  0
 26 24  1  0  0  0  0
 28 29  1  0  0  0  0
 29 31  1  0  0  0  0
 31 30  1  1  0  0  0
 34 33  1  1  0  0  0
 34 32  1  0  0  0  0
 34 31  1  0  0  0  0
 35 37  1  0  0  0  0
 37 38  2  0  0  0  0
 37 36  2  0  0  0  0
 39 37  1  0  0  0  0
 40 39  1  6  0  0  0
 40 56  1  0  0  0  0
 41 48  1  1  0  0  0
 41 47  1  0  0  0  0
 42 43  2  0  0  0  0
 43 45  1  0  0  0  0
 44 46  2  0  0  0  0
 45 40  1  0  0  0  0
 46 41  1  0  0  0  0
 46 42  1  0  0  0  0
 47 45  2  0  0  0  0
 48 52  1  0  0  0  0
 49 52  1  0  0  0  0
 50 49  1  0  0  0  0
 51 50  1  0  0  0  0
 53 51  1  0  0  0  0
 54 53  1  0  0  0  0
 54 48  1  0  0  0  0
 56 55  1  0  0  0  0
M  END
>  <MODEL>
6

>  <REMARK>
 VINA RESULT:      -5.7      3.316      7.465
  Name = 
  23 active torsions:
  status: ('A' for Active; 'I' for Inactive)
    1  A    between atoms: C_1  and  C_8
    2  A    between atoms: C_1  and  C_31
    3  A    between atoms: C_2  and  N_46
    4  A    between atoms: C_4  and  C_7
    5  A    between atoms: C_4  and  C_36
    6  A    between atoms: N_6  and  C_43
    7  A    between atoms: C_7  and  C_20
    8  A    between atoms: C_8  and  C_42
    9  A    between atoms: C_9  and  N_14
   10  A    between atoms: C_11  and  N_21
   11  A    between atoms: C_20  and  C_23
   12  A    between atoms: N_21  and  C_31
   13  A    between atoms: C_22  and  C_26
   14  A    between atoms: C_22  and  O_28
   15  A    between atoms: C_22  and  C_38
   16  A    between atoms: C_23  and  N_51
   17  A    between atoms: C_26  and  S_39
   18  A    between atoms: C_32  and  N_51
   19  A    between atoms: C_32  and  C_54
   20  A    between atoms: C_36  and  C_56
   21  A    between atoms: S_39  and  N_46
   22  A    between atoms: C_41  and  C_54
   23  A    between atoms: C_53  and  C_56
                            x       y       z     vdW  Elec       q    Type
                         _______ _______ _______ _____ _____    ______ ____

>  <TORSDO>
F 23

$$$$
=
 OpenBabel11042413273D

 56 58  0  0  1  0  0  0  0  0999 V2000
  185.2520  177.9240  138.4390 C   0  0  1  0  0  3  0  0  0  0  0  0
  186.4600  177.8280  136.2890 N   0  0  0  0  0  2  0  0  0  0  0  0
  183.3530  176.5790  137.6100 C   0  0  0  0  0  0  0  0  0  0  0  0
  184.7340  176.8290  135.0360 O   0  0  0  0  0  0  0  0  0  0  0  0
  184.3870  177.3440  137.3670 C   0  0  0  0  0  0  0  0  0  0  0  0
  185.1580  177.2930  136.1290 C   0  0  0  0  0  0  0  0  0  0  0  0
  186.5140  178.1980  137.6660 C   0  0  0  0  0  0  0  0  0  0  0  0
  187.5490  178.6960  138.1860 O   0  0  0  0  0  0  0  0  0  0  0  0
  182.3190  175.8130  137.8480 C   0  0  0  0  0  3  0  0  0  0  0  0
  179.1300  177.9410  137.7690 C   0  0  0  0  0  1  0  0  0  0  0  0
  180.5130  177.4250  137.4890 C   0  0  0  0  0  0  0  0  0  0  0  0
  180.9790  176.3520  138.1630 C   0  0  0  0  0  0  0  0  0  0  0  0
  181.3160  178.0110  136.4490 N   0  0  0  0  0  0  0  0  0  0  0  0
  181.1460  179.1680  135.8710 C   0  0  0  0  0  3  0  0  0  0  0  0
  180.0900  180.1580  136.2520 C   0  0  0  0  0  2  0  0  0  0  0  0
  180.6040  181.1020  137.3300 C   0  0  0  0  0  2  0  0  0  0  0  0
  180.4700  182.5530  136.9000 C   0  0  0  0  0  2  0  0  0  0  0  0
  180.0070  183.3670  138.0090 N   0  0  0  0  0  2  0  0  0  0  0  0
  179.7840  184.7110  137.5020 C   0  0  0  0  0  2  0  0  0  0  0  0
  180.6830  184.9690  136.3060 C   0  0  0  0  0  1  0  0  0  0  0  0
  180.1380  175.6670  139.2090 C   0  0  0  0  0  2  0  0  0  0  0  0
  180.2220  174.2230  139.0390 N   0  0  0  0  0  2  0  0  0  0  0  0
  179.3310  173.8590  137.9480 C   0  0  0  0  0  2  0  0  0  0  0  0
  180.1350  173.4900  136.7050 C   0  0  2  0  0  3  0  0  0  0  0  0
  179.2130  173.5060  135.4950 C   0  0  0  0  0  1  0  0  0  0  0  0
  180.7760  172.1190  136.8810 C   0  0  1  0  0  3  0  0  0  0  0  0
  179.7870  171.1540  137.1150 O   0  0  0  0  0  1  0  0  0  0  0  0
  181.5620  171.7390  135.6370 C   0  0  0  0  0  2  0  0  0  0  0  0
  182.8880  172.4840  135.5940 C   0  0  0  0  0  2  0  0  0  0  0  0
  183.6360  170.3610  136.4150 O   0  0  0  0  0  1  0  0  0  0  0  0
  184.0490  171.5070  135.7250 C   0  0  2  0  0  3  0  0  0  0  0  0
  186.4420  171.7350  135.8890 O   0  0  0  0  0  1  0  0  0  0  0  0
  185.1310  173.6820  136.3120 C   0  0  0  0  0  1  0  0  0  0  0  0
  185.2270  172.1700  136.4310 C   0  0  1  0  0  3  0  0  0  0  0  0
  184.6780  179.1830  138.8990 N   0  0  0  0  0  2  0  0  0  0  0  0
  183.8580  177.4510  140.7520 O   0  0  0  0  0  0  0  0  0  0  0  0
  183.9610  178.9250  140.4570 S   0  0  0  0  0  0  0  0  0  0  0  0
  182.5890  179.5330  140.4860 O   0  0  0  0  0  0  0  0  0  0  0  0
  184.9880  179.7180  141.6780 C   0  0  0  0  0  2  0  0  0  0  0  0
  185.3640  178.7580  142.8130 C   0  0  1  0  0  3  0  0  0  0  0  0
  188.5350  176.7240  143.7140 C   0  0  2  0  0  3  0  0  0  0  0  0
  188.7120  177.6820  141.3120 C   0  0  0  0  0  3  0  0  0  0  0  0
  187.5670  178.3400  141.4930 C   0  0  0  0  0  3  0  0  0  0  0  0
  190.1660  175.9910  142.0840 O   0  0  0  0  0  0  0  0  0  0  0  0
  186.7260  178.1200  142.6950 C   0  0  0  0  0  0  0  0  0  0  0  0
  189.1870  176.7430  142.3360 C   0  0  0  0  0  0  0  0  0  0  0  0
  187.1580  177.3410  143.7000 C   0  0  0  0  0  3  0  0  0  0  0  0
  189.3670  177.3540  144.7570 N   0  0  0  0  0  0  0  0  0  0  0  0
  188.6150  177.2050  147.1890 C   0  0  0  0  0  2  0  0  0  0  0  0
  189.8270  177.7560  147.9290 C   0  0  0  0  0  2  0  0  0  0  0  0
  191.0990  177.0090  147.5450 C   0  0  0  0  0  2  0  0  0  0  0  0
  188.4830  177.8780  145.8180 C   0  0  0  0  0  2  0  0  0  0  0  0
  191.4510  177.2010  146.0760 C   0  0  0  0  0  2  0  0  0  0  0  0
  190.4470  176.4560  145.2050 C   0  0  0  0  0  2  0  0  0  0  0  0
  183.8170  179.8470  144.1120 C   0  0  0  0  0  1  0  0  0  0  0  0
  185.1080  179.2950  144.0970 O   0  0  0  0  0  0  0  0  0  0  0  0
  1 35  1  6  0  0  0
  2  7  1  0  0  0  0
  3  9  2  0  0  0  0
  4  6  2  0  0  0  0
  5  3  2  0  0  0  0
  5  1  1  0  0  0  0
  6  2  1  0  0  0  0
  6  5  1  0  0  0  0
  7  8  2  0  0  0  0
  7  1  1  0  0  0  0
  9 12  1  0  0  0  0
 11 10  1  0  0  0  0
 11 12  2  0  0  0  0
 12 21  1  0  0  0  0
 13 11  1  0  0  0  0
 14 15  1  0  0  0  0
 14 13  2  0  0  0  0
 15 16  1  0  0  0  0
 17 16  1  0  0  0  0
 17 18  1  0  0  0  0
 19 18  1  0  0  0  0
 20 19  1  0  0  0  0
 22 21  1  0  0  0  0
 23 22  1  0  0  0  0
 24 25  1  6  0  0  0
 24 26  1  0  0  0  0
 24 23  1  0  0  0  0
 26 27  1  6  0  0  0
 28 26  1  0  0  0  0
 29 28  1  0  0  0  0
 29 31  1  0  0  0  0
 31 30  1  1  0  0  0
 31 34  1  0  0  0  0
 32 34  1  0  0  0  0
 34 33  1  6  0  0  0
 35 37  1  0  0  0  0
 37 38  2  0  0  0  0
 37 36  2  0  0  0  0
 37 39  1  0  0  0  0
 40 39  1  6  0  0  0
 40 56  1  0  0  0  0
 41 47  1  6  0  0  0
 41 48  1  0  0  0  0
 42 43  2  0  0  0  0
 42 46  1  0  0  0  0
 43 45  1  0  0  0  0
 44 46  2  0  0  0  0
 45 40  1  0  0  0  0
 45 47  2  0  0  0  0
 46 41  1  0  0  0  0
 48 54  1  0  0  0  0
 48 52  1  0  0  0  0
 49 50  1  0  0  0  0
 51 50  1  0  0  0  0
 52 49  1  0  0  0  0
 53 51  1  0  0  0  0
 54 53  1  0  0  0  0
 56 55  1  0  0  0  0
M  END
>  <MODEL>
7

>  <REMARK>
 VINA RESULT:      -5.5      4.312     10.506
  Name = 
  23 active torsions:
  status: ('A' for Active; 'I' for Inactive)
    1  A    between atoms: C_1  and  C_8
    2  A    between atoms: C_1  and  C_31
    3  A    between atoms: C_2  and  N_46
    4  A    between atoms: C_4  and  C_7
    5  A    between atoms: C_4  and  C_36
    6  A    between atoms: N_6  and  C_43
    7  A    between atoms: C_7  and  C_20
    8  A    between atoms: C_8  and  C_42
    9  A    between atoms: C_9  and  N_14
   10  A    between atoms: C_11  and  N_21
   11  A    between atoms: C_20  and  C_23
   12  A    between atoms: N_21  and  C_31
   13  A    between atoms: C_22  and  C_26
   14  A    between atoms: C_22  and  O_28
   15  A    between atoms: C_22  and  C_38
   16  A    between atoms: C_23  and  N_51
   17  A    between atoms: C_26  and  S_39
   18  A    between atoms: C_32  and  N_51
   19  A    between atoms: C_32  and  C_54
   20  A    between atoms: C_36  and  C_56
   21  A    between atoms: S_39  and  N_46
   22  A    between atoms: C_41  and  C_54
   23  A    between atoms: C_53  and  C_56
                            x       y       z     vdW  Elec       q    Type
                         _______ _______ _______ _____ _____    ______ ____

>  <TORSDO>
F 23

$$$$
=
 OpenBabel11042413273D

 56 58  0  0  1  0  0  0  0  0999 V2000
  180.8950  179.7680  140.3870 C   0  0  1  0  0  3  0  0  0  0  0  0
  178.9330  180.7680  139.2760 N   0  0  0  0  0  2  0  0  0  0  0  0
  181.7980  178.8240  138.2910 C   0  0  0  0  0  0  0  0  0  0  0  0
  179.2630  179.7750  137.1650 O   0  0  0  0  0  0  0  0  0  0  0  0
  180.7860  179.2960  138.9740 C   0  0  0  0  0  0  0  0  0  0  0  0
  179.6240  179.9340  138.3630 C   0  0  0  0  0  0  0  0  0  0  0  0
  179.6950  180.6700  140.4780 C   0  0  0  0  0  0  0  0  0  0  0  0
  179.3870  181.3100  141.5190 O   0  0  0  0  0  0  0  0  0  0  0  0
  182.8070  178.3530  137.6030 C   0  0  0  0  0  3  0  0  0  0  0  0
  182.7540  174.5210  137.7160 C   0  0  0  0  0  1  0  0  0  0  0  0
  182.3160  175.9570  137.6920 C   0  0  0  0  0  0  0  0  0  0  0  0
  183.2400  176.9420  137.6810 C   0  0  0  0  0  0  0  0  0  0  0  0
  180.9210  176.2960  137.5960 N   0  0  0  0  0  0  0  0  0  0  0  0
  180.0380  175.7980  136.7740 C   0  0  0  0  0  3  0  0  0  0  0  0
  180.3140  174.6940  135.8010 C   0  0  0  0  0  2  0  0  0  0  0  0
  179.9870  173.3420  136.4170 C   0  0  0  0  0  2  0  0  0  0  0  0
  180.0990  172.2270  135.3900 C   0  0  0  0  0  2  0  0  0  0  0  0
  181.4930  171.9750  135.0700 N   0  0  0  0  0  2  0  0  0  0  0  0
  181.7350  170.5540  135.2620 C   0  0  0  0  0  2  0  0  0  0  0  0
  183.2050  170.3140  135.5510 C   0  0  0  0  0  1  0  0  0  0  0  0
  184.7120  176.6240  137.7080 C   0  0  0  0  0  2  0  0  0  0  0  0
  185.4500  177.6480  136.9800 N   0  0  0  0  0  2  0  0  0  0  0  0
  186.4880  178.1520  137.8670 C   0  0  0  0  0  2  0  0  0  0  0  0
  187.8650  177.9580  137.2390 C   0  0  2  0  0  3  0  0  0  0  0  0
  187.7220  177.9490  135.7250 C   0  0  0  0  0  1  0  0  0  0  0  0
  188.4880  176.6590  137.7340 C   0  0  1  0  0  3  0  0  0  0  0  0
  188.0900  175.5930  136.9170 O   0  0  0  0  0  1  0  0  0  0  0  0
  190.0050  176.7610  137.7170 C   0  0  0  0  0  2  0  0  0  0  0  0
  190.5760  176.0440  136.5020 C   0  0  0  0  0  2  0  0  0  0  0  0
  190.8160  174.1510  137.9500 O   0  0  0  0  0  1  0  0  0  0  0  0
  191.4530  174.8780  136.9380 C   0  0  2  0  0  3  0  0  0  0  0  0
  193.7040  174.3160  137.5870 O   0  0  0  0  0  1  0  0  0  0  0  0
  193.3920  176.3600  136.3980 C   0  0  0  0  0  1  0  0  0  0  0  0
  192.8150  175.3820  137.4070 C   0  0  1  0  0  3  0  0  0  0  0  0
  180.7250  178.6370  141.2920 N   0  0  0  0  0  2  0  0  0  0  0  0
  181.5300  177.7970  143.6900 O   0  0  0  0  0  0  0  0  0  0  0  0
  181.8010  178.8410  142.6380 S   0  0  0  0  0  0  0  0  0  0  0  0
  181.6110  180.2050  143.2320 O   0  0  0  0  0  0  0  0  0  0  0  0
  183.4720  178.6800  142.0400 C   0  0  0  0  0  2  0  0  0  0  0  0
  184.4740  178.5260  143.1910 C   0  0  1  0  0  3  0  0  0  0  0  0
  188.0530  177.0430  143.1950 C   0  0  2  0  0  3  0  0  0  0  0  0
  187.7030  178.5880  141.1440 C   0  0  0  0  0  3  0  0  0  0  0  0
  186.4990  178.9240  141.6060 C   0  0  0  0  0  3  0  0  0  0  0  0
  189.5310  177.1010  141.2820 O   0  0  0  0  0  0  0  0  0  0  0  0
  185.8950  178.2380  142.7740 C   0  0  0  0  0  0  0  0  0  0  0  0
  188.4820  177.5440  141.8210 C   0  0  0  0  0  0  0  0  0  0  0  0
  186.6010  177.3410  143.4810 C   0  0  0  0  0  3  0  0  0  0  0  0
  188.9030  177.5520  144.2890 N   0  0  0  0  0  0  0  0  0  0  0  0
  188.2410  177.0490  146.6990 C   0  0  0  0  0  2  0  0  0  0  0  0
  189.4640  177.5330  147.4700 C   0  0  0  0  0  2  0  0  0  0  0  0
  190.7410  176.8860  146.9480 C   0  0  0  0  0  2  0  0  0  0  0  0
  188.0430  177.8980  145.4390 C   0  0  0  0  0  2  0  0  0  0  0  0
  191.0360  177.2870  145.5090 C   0  0  0  0  0  2  0  0  0  0  0  0
  190.0220  176.6360  144.5760 C   0  0  0  0  0  2  0  0  0  0  0  0
  184.2670  178.9820  145.4300 C   0  0  0  0  0  1  0  0  0  0  0  0
  184.3710  179.5570  144.1530 O   0  0  0  0  0  0  0  0  0  0  0  0
  1  7  1  0  0  0  0
  1 35  1  1  0  0  0
  2  7  1  0  0  0  0
  3  5  2  0  0  0  0
  4  6  2  0  0  0  0
  5  1  1  0  0  0  0
  6  5  1  0  0  0  0
  6  2  1  0  0  0  0
  7  8  2  0  0  0  0
  9 12  1  0  0  0  0
  9  3  2  0  0  0  0
 11 10  1  0  0  0  0
 12 11  2  0  0  0  0
 12 21  1  0  0  0  0
 13 11  1  0  0  0  0
 14 13  2  0  0  0  0
 15 16  1  0  0  0  0
 15 14  1  0  0  0  0
 17 16  1  0  0  0  0
 18 19  1  0  0  0  0
 18 17  1  0  0  0  0
 19 20  1  0  0  0  0
 22 21  1  0  0  0  0
 22 23  1  0  0  0  0
 24 25  1  6  0  0  0
 24 26  1  0  0  0  0
 24 23  1  0  0  0  0
 26 27  1  6  0  0  0
 28 26  1  0  0  0  0
 29 31  1  0  0  0  0
 29 28  1  0  0  0  0
 31 34  1  0  0  0  0
 31 30  1  1  0  0  0
 34 33  1  6  0  0  0
 34 32  1  0  0  0  0
 35 37  1  0  0  0  0
 37 38  2  0  0  0  0
 37 36  2  0  0  0  0
 39 37  1  0  0  0  0
 40 39  1  6  0  0  0
 40 56  1  0  0  0  0
 41 47  1  1  0  0  0
 41 48  1  0  0  0  0
 42 43  2  0  0  0  0
 42 46  1  0  0  0  0
 43 45  1  0  0  0  0
 44 46  2  0  0  0  0
 45 40  1  0  0  0  0
 45 47  2  0  0  0  0
 46 41  1  0  0  0  0
 48 54  1  0  0  0  0
 48 52  1  0  0  0  0
 49 50  1  0  0  0  0
 51 50  1  0  0  0  0
 52 49  1  0  0  0  0
 53 51  1  0  0  0  0
 54 53  1  0  0  0  0
 56 55  1  0  0  0  0
M  END
>  <MODEL>
8

>  <REMARK>
 VINA RESULT:      -5.5      3.314      9.197
  Name = 
  23 active torsions:
  status: ('A' for Active; 'I' for Inactive)
    1  A    between atoms: C_1  and  C_8
    2  A    between atoms: C_1  and  C_31
    3  A    between atoms: C_2  and  N_46
    4  A    between atoms: C_4  and  C_7
    5  A    between atoms: C_4  and  C_36
    6  A    between atoms: N_6  and  C_43
    7  A    between atoms: C_7  and  C_20
    8  A    between atoms: C_8  and  C_42
    9  A    between atoms: C_9  and  N_14
   10  A    between atoms: C_11  and  N_21
   11  A    between atoms: C_20  and  C_23
   12  A    between atoms: N_21  and  C_31
   13  A    between atoms: C_22  and  C_26
   14  A    between atoms: C_22  and  O_28
   15  A    between atoms: C_22  and  C_38
   16  A    between atoms: C_23  and  N_51
   17  A    between atoms: C_26  and  S_39
   18  A    between atoms: C_32  and  N_51
   19  A    between atoms: C_32  and  C_54
   20  A    between atoms: C_36  and  C_56
   21  A    between atoms: S_39  and  N_46
   22  A    between atoms: C_41  and  C_54
   23  A    between atoms: C_53  and  C_56
                            x       y       z     vdW  Elec       q    Type
                         _______ _______ _______ _____ _____    ______ ____

>  <TORSDO>
F 23

$$$$
=
 OpenBabel11042413273D

 56 58  0  0  1  0  0  0  0  0999 V2000
  185.2230  178.2060  144.5330 C   0  0  1  0  0  3  0  0  0  0  0  0
  186.1530  178.5280  146.7960 N   0  0  0  0  0  2  0  0  0  0  0  0
  187.3830  177.4860  143.5770 C   0  0  0  0  0  0  0  0  0  0  0  0
  188.4180  178.2270  146.2180 O   0  0  0  0  0  0  0  0  0  0  0  0
  186.7140  178.1060  144.5150 C   0  0  0  0  0  0  0  0  0  0  0  0
  187.2050  178.2830  145.8770 C   0  0  0  0  0  0  0  0  0  0  0  0
  184.9760  178.4770  145.9930 C   0  0  0  0  0  0  0  0  0  0  0  0
  183.8240  178.6280  146.4830 O   0  0  0  0  0  0  0  0  0  0  0  0
  188.0570  176.8660  142.6420 C   0  0  0  0  0  3  0  0  0  0  0  0
  190.0550  178.0090  139.5750 C   0  0  0  0  0  1  0  0  0  0  0  0
  189.6910  177.4050  140.9020 C   0  0  0  0  0  0  0  0  0  0  0  0
  188.4260  177.5060  141.3620 C   0  0  0  0  0  0  0  0  0  0  0  0
  190.6570  176.6470  141.6510 N   0  0  0  0  0  0  0  0  0  0  0  0
  191.4170  177.0690  142.6240 C   0  0  0  0  0  3  0  0  0  0  0  0
  191.3630  178.4490  143.2030 C   0  0  0  0  0  2  0  0  0  0  0  0
  191.6860  178.4190  144.6890 C   0  0  0  0  0  2  0  0  0  0  0  0
  191.6420  177.0020  145.2350 C   0  0  0  0  0  2  0  0  0  0  0  0
  191.1370  177.0000  146.5960 N   0  0  0  0  0  2  0  0  0  0  0  0
  191.8760  175.9910  147.3350 C   0  0  0  0  0  2  0  0  0  0  0  0
  192.4290  174.9490  146.3790 C   0  0  0  0  0  1  0  0  0  0  0  0
  187.3680  178.2320  140.5710 C   0  0  0  0  0  2  0  0  0  0  0  0
  186.9700  177.4240  139.4260 N   0  0  0  0  0  2  0  0  0  0  0  0
  186.9040  178.3060  138.2700 C   0  0  0  0  0  2  0  0  0  0  0  0
  187.4770  177.6130  137.0380 C   0  0  2  0  0  3  0  0  0  0  0  0
  187.2490  178.4960  135.8200 C   0  0  0  0  0  1  0  0  0  0  0  0
  186.8220  176.2500  136.8510 C   0  0  1  0  0  3  0  0  0  0  0  0
  186.2330  176.1700  135.5820 O   0  0  0  0  0  1  0  0  0  0  0  0
  187.8550  175.1430  136.9920 C   0  0  0  0  0  2  0  0  0  0  0  0
  189.1420  175.5180  136.2720 C   0  0  0  0  0  2  0  0  0  0  0  0
  189.6620  173.3820  137.2240 O   0  0  0  0  0  1  0  0  0  0  0  0
  190.1870  174.4250  136.4510 C   0  0  2  0  0  3  0  0  0  0  0  0
  191.2580  175.2060  138.4630 O   0  0  0  0  0  1  0  0  0  0  0  0
  192.6200  174.0490  136.8840 C   0  0  0  0  0  1  0  0  0  0  0  0
  191.4490  174.9940  137.0930 C   0  0  1  0  0  3  0  0  0  0  0  0
  184.8020  179.3590  143.7450 N   0  0  0  0  0  2  0  0  0  0  0  0
  182.3430  180.3790  143.6350 O   0  0  0  0  0  0  0  0  0  0  0  0
  183.1400  179.1450  143.2990 S   0  0  0  0  0  0  0  0  0  0  0  0
  182.5680  177.9690  144.0350 O   0  0  0  0  0  0  0  0  0  0  0  0
  183.0730  178.8380  141.5450 C   0  0  0  0  0  2  0  0  0  0  0  0
  181.6610  179.0500  140.9850 C   0  0  1  0  0  3  0  0  0  0  0  0
  181.1890  177.6750  137.3950 C   0  0  2  0  0  3  0  0  0  0  0  0
  181.5410  180.2420  137.3550 C   0  0  0  0  0  3  0  0  0  0  0  0
  181.7630  180.2300  138.6680 C   0  0  0  0  0  3  0  0  0  0  0  0
  180.7270  179.0700  135.4740 O   0  0  0  0  0  0  0  0  0  0  0  0
  181.5490  179.0070  139.4810 C   0  0  0  0  0  0  0  0  0  0  0  0
  181.1120  179.0140  136.6720 C   0  0  0  0  0  0  0  0  0  0  0  0
  181.2450  177.8390  138.8940 C   0  0  0  0  0  3  0  0  0  0  0  0
  182.3080  176.8310  136.9320 N   0  0  0  0  0  0  0  0  0  0  0  0
  183.0580  174.8750  138.3850 C   0  0  0  0  0  2  0  0  0  0  0  0
  184.0390  174.1560  137.4670 C   0  0  0  0  0  2  0  0  0  0  0  0
  183.3970  173.8220  136.1240 C   0  0  0  0  0  2  0  0  0  0  0  0
  183.0830  176.3820  138.1070 C   0  0  0  0  0  2  0  0  0  0  0  0
  183.0200  175.0750  135.3450 C   0  0  0  0  0  2  0  0  0  0  0  0
  181.8440  175.7670  136.0230 C   0  0  0  0  0  2  0  0  0  0  0  0
  179.5440  179.0480  141.8720 C   0  0  0  0  0  1  0  0  0  0  0  0
  180.6850  178.2620  141.6400 O   0  0  0  0  0  0  0  0  0  0  0  0
  1 35  1  6  0  0  0
  1  7  1  0  0  0  0
  3  5  2  0  0  0  0
  5  1  1  0  0  0  0
  5  6  1  0  0  0  0
  6  4  2  0  0  0  0
  6  2  1  0  0  0  0
  7  8  2  0  0  0  0
  7  2  1  0  0  0  0
  9  3  2  0  0  0  0
 10 11  1  0  0  0  0
 11 12  2  0  0  0  0
 11 13  1  0  0  0  0
 12  9  1  0  0  0  0
 13 14  2  0  0  0  0
 14 15  1  0  0  0  0
 15 16  1  0  0  0  0
 16 17  1  0  0  0  0
 17 18  1  0  0  0  0
 18 19  1  0  0  0  0
 20 19  1  0  0  0  0
 21 12  1  0  0  0  0
 22 21  1  0  0  0  0
 23 22  1  0  0  0  0
 24 25  1  6  0  0  0
 24 23  1  0  0  0  0
 26 27  1  6  0  0  0
 26 28  1  0  0  0  0
 26 24  1  0  0  0  0
 29 31  1  0  0  0  0
 29 28  1  0  0  0  0
 31 34  1  0  0  0  0
 31 30  1  1  0  0  0
 34 33  1  1  0  0  0
 34 32  1  0  0  0  0
 37 36  2  0  0  0  0
 37 35  1  0  0  0  0
 37 38  2  0  0  0  0
 39 37  1  0  0  0  0
 40 39  1  6  0  0  0
 40 56  1  0  0  0  0
 41 48  1  6  0  0  0
 41 47  1  0  0  0  0
 42 43  2  0  0  0  0
 43 45  1  0  0  0  0
 44 46  2  0  0  0  0
 45 40  1  0  0  0  0
 46 42  1  0  0  0  0
 46 41  1  0  0  0  0
 47 45  2  0  0  0  0
 48 52  1  0  0  0  0
 50 49  1  0  0  0  0
 51 50  1  0  0  0  0
 52 49  1  0  0  0  0
 53 54  1  0  0  0  0
 53 51  1  0  0  0  0
 54 48  1  0  0  0  0
 56 55  1  0  0  0  0
M  END
>  <MODEL>
9

>  <REMARK>
 VINA RESULT:      -5.5      2.766      7.986
  Name = 
  23 active torsions:
  status: ('A' for Active; 'I' for Inactive)
    1  A    between atoms: C_1  and  C_8
    2  A    between atoms: C_1  and  C_31
    3  A    between atoms: C_2  and  N_46
    4  A    between atoms: C_4  and  C_7
    5  A    between atoms: C_4  and  C_36
    6  A    between atoms: N_6  and  C_43
    7  A    between atoms: C_7  and  C_20
    8  A    between atoms: C_8  and  C_42
    9  A    between atoms: C_9  and  N_14
   10  A    between atoms: C_11  and  N_21
   11  A    between atoms: C_20  and  C_23
   12  A    between atoms: N_21  and  C_31
   13  A    between atoms: C_22  and  C_26
   14  A    between atoms: C_22  and  O_28
   15  A    between atoms: C_22  and  C_38
   16  A    between atoms: C_23  and  N_51
   17  A    between atoms: C_26  and  S_39
   18  A    between atoms: C_32  and  N_51
   19  A    between atoms: C_32  and  C_54
   20  A    between atoms: C_36  and  C_56
   21  A    between atoms: S_39  and  N_46
   22  A    between atoms: C_41  and  C_54
   23  A    between atoms: C_53  and  C_56
                            x       y       z     vdW  Elec       q    Type
                         _______ _______ _______ _____ _____    ______ ____

>  <TORSDO>
F 23

$$$$
