=
 OpenBabel11042411213D

 25 26  0  0  1  0  0  0  0  0999 V2000
  188.1870  177.6400  146.1750 C   0  0  0  0  0  3  0  0  0  0  0  0
  187.2130  177.8910  142.3120 C   0  0  0  0  0  0  0  0  0  0  0  0
  185.9610  177.8990  142.1660 O   0  0  0  0  0  0  0  0  0  0  0  0
  188.2040  177.9050  141.2570 C   0  0  0  0  0  0  0  0  0  0  0  0
  190.2970  176.7440  145.1400 C   0  0  1  0  0  3  0  0  0  0  0  0
  189.3920  177.8680  141.7580 N   0  0  0  0  0  0  0  0  0  0  0  0
  186.0890  178.1400  145.0680 C   0  0  0  0  0  3  0  0  0  0  0  0
  187.3920  177.8670  144.9410 C   0  0  0  0  0  0  0  0  0  0  0  0
  189.4310  177.1750  146.2820 C   0  0  0  0  0  3  0  0  0  0  0  0
  187.9610  177.8500  143.5640 C   0  0  0  0  0  0  0  0  0  0  0  0
  189.2460  177.8410  143.1830 C   0  0  0  0  0  0  0  0  0  0  0  0
  190.4380  177.8320  144.0820 C   0  0  1  0  0  3  0  0  0  0  0  0
  190.6420  179.0970  144.6470 O   0  0  0  0  0  0  0  0  0  0  0  0
  191.8200  179.5660  144.0630 C   0  0  0  0  0  2  0  0  0  0  0  0
  192.3150  178.6060  143.1800 O   0  0  0  0  0  1  0  0  0  0  0  0
  191.6740  176.3430  145.6480 C   0  0  0  0  0  2  0  0  0  0  0  0
  191.9530  177.2070  147.9700 O   0  0  0  0  0  1  0  0  0  0  0  0
  191.3980  175.0130  147.6060 O   0  0  0  0  0  0  0  0  0  0  0  0
  191.6560  176.1460  147.1250 C   0  0  0  0  0  0  0  0  0  0  0  0
  185.3720  178.2150  146.3810 C   0  0  0  0  0  2  0  0  0  0  0  0
  183.6870  179.0120  144.7230 C   0  0  0  0  0  1  0  0  0  0  0  0
  183.9300  178.6410  146.1740 C   0  0  0  0  0  2  0  0  0  0  0  0
  187.9290  177.8950  139.7900 C   0  0  0  0  0  2  0  0  0  0  0  0
  188.9880  179.2950  138.1340 N   0  0  0  0  0  2  0  0  0  0  0  0
  189.1170  178.3840  139.0260 C   0  0  0  0  0  3  0  0  0  0  0  0
  1  9  2  0  0  0  0
  2 10  1  0  0  0  0
  3  2  2  0  0  0  0
  4  6  2  0  0  0  0
  4  2  1  0  0  0  0
  5 16  1  1  0  0  0
  5  9  1  0  0  0  0
  6 11  1  0  0  0  0
  7 20  1  0  0  0  0
  8  7  2  0  0  0  0
  8  1  1  0  0  0  0
 10  8  1  0  0  0  0
 11 10  2  0  0  0  0
 11 12  1  0  0  0  0
 12 13  1  1  0  0  0
 12  5  1  0  0  0  0
 14 13  1  0  0  0  0
 15 14  1  0  0  0  0
 16 19  1  0  0  0  0
 19 18  2  0  0  0  0
 19 17  1  0  0  0  0
 21 22  1  0  0  0  0
 22 20  1  0  0  0  0
 23  4  1  0  0  0  0
 24 25  2  0  0  0  0
 25 23  1  0  0  0  0
M  END
>  <MODEL>
1

>  <REMARK>
 VINA RESULT:      -7.3      0.000      0.000
  Name = 
  8 active torsions:
  status: ('A' for Active; 'I' for Inactive)
    1  A    between atoms: O_1  and  C_6
    2  A    between atoms: O_1  and  C_25
    3  A    between atoms: C_4  and  C_19
    4  A    between atoms: C_10  and  C_20
    5  A    between atoms: C_11  and  C_12
    6  A    between atoms: C_11  and  C_24
    7  A    between atoms: C_14  and  C_19
    8  A    between atoms: C_16  and  C_20
                            x       y       z     vdW  Elec       q    Type
                         _______ _______ _______ _____ _____    ______ ____

>  <TORSDO>
F 8

$$$$
=
 OpenBabel11042411213D

 25 26  0  0  1  0  0  0  0  0999 V2000
  187.1720  177.8710  144.4520 C   0  0  0  0  0  3  0  0  0  0  0  0
  189.0440  177.3630  140.9630 C   0  0  0  0  0  0  0  0  0  0  0  0
  188.2140  177.2890  140.0170 O   0  0  0  0  0  0  0  0  0  0  0  0
  190.4810  177.2270  140.8620 C   0  0  0  0  0  0  0  0  0  0  0  0
  189.3430  176.8940  145.2660 C   0  0  1  0  0  3  0  0  0  0  0  0
  191.0250  177.3350  142.0270 N   0  0  0  0  0  0  0  0  0  0  0  0
  186.4000  178.0650  142.1630 C   0  0  0  0  0  3  0  0  0  0  0  0
  187.4250  177.8320  142.9890 C   0  0  0  0  0  0  0  0  0  0  0  0
  187.9810  177.4890  145.4410 C   0  0  0  0  0  3  0  0  0  0  0  0
  188.7610  177.5870  142.3770 C   0  0  0  0  0  0  0  0  0  0  0  0
  189.9660  177.5640  142.9640 C   0  0  0  0  0  0  0  0  0  0  0  0
  190.2500  177.7740  144.4150 C   0  0  1  0  0  3  0  0  0  0  0  0
  190.1410  179.1290  144.7510 O   0  0  0  0  0  0  0  0  0  0  0  0
  191.2120  179.7480  144.1040 C   0  0  0  0  0  2  0  0  0  0  0  0
  192.4090  179.1880  144.5480 O   0  0  0  0  0  1  0  0  0  0  0  0
  189.9890  176.6540  146.6230 C   0  0  0  0  0  2  0  0  0  0  0  0
  192.3300  176.7310  147.4800 O   0  0  0  0  0  1  0  0  0  0  0  0
  191.8750  175.8290  145.4220 O   0  0  0  0  0  0  0  0  0  0  0  0
  191.4440  176.3710  146.4730 C   0  0  0  0  0  0  0  0  0  0  0  0
  185.0020  178.3490  142.6200 C   0  0  0  0  0  2  0  0  0  0  0  0
  184.7790  178.9560  140.2110 C   0  0  0  0  0  1  0  0  0  0  0  0
  184.0590  178.4150  141.4320 C   0  0  0  0  0  2  0  0  0  0  0  0
  191.2530  176.9350  139.6180 C   0  0  0  0  0  2  0  0  0  0  0  0
  193.5500  176.9890  138.8810 N   0  0  0  0  0  2  0  0  0  0  0  0
  192.7150  177.1590  139.8370 C   0  0  0  0  0  3  0  0  0  0  0  0
  1  9  2  0  0  0  0
  2 10  1  0  0  0  0
  3  2  2  0  0  0  0
  4  2  1  0  0  0  0
  4  6  2  0  0  0  0
  5  9  1  0  0  0  0
  5 16  1  1  0  0  0
  6 11  1  0  0  0  0
  7 20  1  0  0  0  0
  7  8  2  0  0  0  0
  8  1  1  0  0  0  0
 10 11  2  0  0  0  0
 10  8  1  0  0  0  0
 11 12  1  0  0  0  0
 12 13  1  1  0  0  0
 12  5  1  0  0  0  0
 14 15  1  0  0  0  0
 14 13  1  0  0  0  0
 18 19  2  0  0  0  0
 19 16  1  0  0  0  0
 19 17  1  0  0  0  0
 21 22  1  0  0  0  0
 22 20  1  0  0  0  0
 23 25  1  0  0  0  0
 23  4  1  0  0  0  0
 24 25  2  0  0  0  0
M  END
>  <MODEL>
2

>  <REMARK>
 VINA RESULT:      -6.7      2.107      2.633
  Name = 
  8 active torsions:
  status: ('A' for Active; 'I' for Inactive)
    1  A    between atoms: O_1  and  C_6
    2  A    between atoms: O_1  and  C_25
    3  A    between atoms: C_4  and  C_19
    4  A    between atoms: C_10  and  C_20
    5  A    between atoms: C_11  and  C_12
    6  A    between atoms: C_11  and  C_24
    7  A    between atoms: C_14  and  C_19
    8  A    between atoms: C_16  and  C_20
                            x       y       z     vdW  Elec       q    Type
                         _______ _______ _______ _____ _____    ______ ____

>  <TORSDO>
F 8

$$$$
=
 OpenBabel11042411213D

 25 26  0  0  1  0  0  0  0  0999 V2000
  190.6520  177.0950  140.6280 C   0  0  0  0  0  3  0  0  0  0  0  0
  187.2290  178.2870  142.3010 C   0  0  0  0  0  0  0  0  0  0  0  0
  187.3010  178.2290  143.5570 O   0  0  0  0  0  0  0  0  0  0  0  0
  186.0700  178.6650  141.5210 C   0  0  0  0  0  0  0  0  0  0  0  0
  189.0720  176.6880  138.7130 C   0  0  1  0  0  3  0  0  0  0  0  0
  186.3360  178.5950  140.2600 N   0  0  0  0  0  0  0  0  0  0  0  0
  190.0930  177.6950  142.9090 C   0  0  0  0  0  3  0  0  0  0  0  0
  189.6800  177.5760  141.6420 C   0  0  0  0  0  0  0  0  0  0  0  0
  190.4160  176.7240  139.3690 C   0  0  0  0  0  3  0  0  0  0  0  0
  188.2770  177.9760  141.3350 C   0  0  0  0  0  0  0  0  0  0  0  0
  187.7010  178.1760  140.1410 C   0  0  0  0  0  0  0  0  0  0  0  0
  188.3500  178.0270  138.8060 C   0  0  1  0  0  3  0  0  0  0  0  0
  189.2030  179.1070  138.5450 O   0  0  0  0  0  0  0  0  0  0  0  0
  188.9730  179.4310  137.2070 C   0  0  0  0  0  2  0  0  0  0  0  0
  187.6010  179.5300  136.9820 O   0  0  0  0  0  1  0  0  0  0  0  0
  189.2110  176.2820  137.2530 C   0  0  0  0  0  2  0  0  0  0  0  0
  187.4260  176.5100  135.5260 O   0  0  0  0  0  0  0  0  0  0  0  0
  187.1810  175.0350  137.2640 O   0  0  0  0  0  1  0  0  0  0  0  0
  187.8900  175.8960  136.6830 C   0  0  0  0  0  0  0  0  0  0  0  0
  191.4750  177.3560  143.3750 C   0  0  0  0  0  2  0  0  0  0  0  0
  190.1910  177.3140  145.5130 C   0  0  0  0  0  1  0  0  0  0  0  0
  191.4410  176.8340  144.8000 C   0  0  0  0  0  2  0  0  0  0  0  0
  184.7250  179.0250  142.0580 C   0  0  0  0  0  2  0  0  0  0  0  0
  182.4130  178.5880  141.5240 N   0  0  0  0  0  2  0  0  0  0  0  0
  183.6460  178.3210  141.3010 C   0  0  0  0  0  3  0  0  0  0  0  0
  1  8  1  0  0  0  0
  2  3  2  0  0  0  0
  4 23  1  0  0  0  0
  4  2  1  0  0  0  0
  5 16  1  6  0  0  0
  5 12  1  0  0  0  0
  5  9  1  0  0  0  0
  6  4  2  0  0  0  0
  7 20  1  0  0  0  0
  8  7  2  0  0  0  0
  9  1  2  0  0  0  0
 10  8  1  0  0  0  0
 10  2  1  0  0  0  0
 11  6  1  0  0  0  0
 11 10  2  0  0  0  0
 12 13  1  1  0  0  0
 12 11  1  0  0  0  0
 14 13  1  0  0  0  0
 15 14  1  0  0  0  0
 17 19  2  0  0  0  0
 19 16  1  0  0  0  0
 19 18  1  0  0  0  0
 20 22  1  0  0  0  0
 22 21  1  0  0  0  0
 25 24  2  0  0  0  0
 25 23  1  0  0  0  0
M  END
>  <MODEL>
3

>  <REMARK>
 VINA RESULT:      -6.5      3.308      6.795
  Name = 
  8 active torsions:
  status: ('A' for Active; 'I' for Inactive)
    1  A    between atoms: O_1  and  C_6
    2  A    between atoms: O_1  and  C_25
    3  A    between atoms: C_4  and  C_19
    4  A    between atoms: C_10  and  C_20
    5  A    between atoms: C_11  and  C_12
    6  A    between atoms: C_11  and  C_24
    7  A    between atoms: C_14  and  C_19
    8  A    between atoms: C_16  and  C_20
                            x       y       z     vdW  Elec       q    Type
                         _______ _______ _______ _____ _____    ______ ____

>  <TORSDO>
F 8

$$$$
=
 OpenBabel11042411213D

 25 26  0  0  1  0  0  0  0  0999 V2000
  183.6320  178.7420  141.8700 C   0  0  0  0  0  3  0  0  0  0  0  0
  187.4550  178.5000  140.7470 C   0  0  0  0  0  0  0  0  0  0  0  0
  188.2210  178.6020  141.7420 O   0  0  0  0  0  0  0  0  0  0  0  0
  187.8540  178.3750  139.3610 C   0  0  0  0  0  0  0  0  0  0  0  0
  183.4160  179.4220  139.4570 C   0  0  1  0  0  3  0  0  0  0  0  0
  186.8150  178.3150  138.5990 N   0  0  0  0  0  0  0  0  0  0  0  0
  185.6690  178.4110  143.1400 C   0  0  0  0  0  3  0  0  0  0  0  0
  185.1040  178.5620  141.9380 C   0  0  0  0  0  0  0  0  0  0  0  0
  182.8900  179.0950  140.8200 C   0  0  0  0  0  3  0  0  0  0  0  0
  185.9960  178.4990  140.7450 C   0  0  0  0  0  0  0  0  0  0  0  0
  185.6650  178.3840  139.4510 C   0  0  0  0  0  0  0  0  0  0  0  0
  184.2830  178.3040  138.8920 C   0  0  1  0  0  3  0  0  0  0  0  0
  183.7290  177.0380  139.1180 O   0  0  0  0  0  0  0  0  0  0  0  0
  183.8200  176.3810  137.8890 C   0  0  0  0  0  2  0  0  0  0  0  0
  183.3240  175.0850  138.0180 O   0  0  0  0  0  1  0  0  0  0  0  0
  182.2640  179.7080  138.5050 C   0  0  0  0  0  2  0  0  0  0  0  0
  180.5510  181.5210  138.4720 O   0  0  0  0  0  0  0  0  0  0  0  0
  182.7800  182.0310  138.6280 O   0  0  0  0  0  1  0  0  0  0  0  0
  181.8870  181.1490  138.5490 C   0  0  0  0  0  0  0  0  0  0  0  0
  184.9100  178.4270  144.4310 C   0  0  0  0  0  2  0  0  0  0  0  0
  187.1280  177.5130  145.1140 C   0  0  0  0  0  1  0  0  0  0  0  0
  185.8430  178.1570  145.5980 C   0  0  0  0  0  2  0  0  0  0  0  0
  189.2540  178.3790  138.8440 C   0  0  0  0  0  2  0  0  0  0  0  0
  190.3010  176.3780  139.6950 N   0  0  0  0  0  2  0  0  0  0  0  0
  189.7690  176.9830  138.6990 C   0  0  0  0  0  3  0  0  0  0  0  0
  1  8  1  0  0  0  0
  2  3  2  0  0  0  0
  4  2  1  0  0  0  0
  5 16  1  6  0  0  0
  5  9  1  0  0  0  0
  6  4  2  0  0  0  0
  6 11  1  0  0  0  0
  7 20  1  0  0  0  0
  8  7  2  0  0  0  0
  9  1  2  0  0  0  0
 10  2  1  0  0  0  0
 10  8  1  0  0  0  0
 11 10  2  0  0  0  0
 12 13  1  1  0  0  0
 12 11  1  0  0  0  0
 12  5  1  0  0  0  0
 14 15  1  0  0  0  0
 14 13  1  0  0  0  0
 16 19  1  0  0  0  0
 17 19  2  0  0  0  0
 19 18  1  0  0  0  0
 20 22  1  0  0  0  0
 21 22  1  0  0  0  0
 23  4  1  0  0  0  0
 25 23  1  0  0  0  0
 25 24  2  0  0  0  0
M  END
>  <MODEL>
4

>  <REMARK>
 VINA RESULT:      -6.2      3.760      7.744
  Name = 
  8 active torsions:
  status: ('A' for Active; 'I' for Inactive)
    1  A    between atoms: O_1  and  C_6
    2  A    between atoms: O_1  and  C_25
    3  A    between atoms: C_4  and  C_19
    4  A    between atoms: C_10  and  C_20
    5  A    between atoms: C_11  and  C_12
    6  A    between atoms: C_11  and  C_24
    7  A    between atoms: C_14  and  C_19
    8  A    between atoms: C_16  and  C_20
                            x       y       z     vdW  Elec       q    Type
                         _______ _______ _______ _____ _____    ______ ____

>  <TORSDO>
F 8

$$$$
=
 OpenBabel11042411213D

 25 26  0  0  1  0  0  0  0  0999 V2000
  187.1280  177.7440  144.6200 C   0  0  0  0  0  3  0  0  0  0  0  0
  187.4270  178.4250  140.6980 C   0  0  0  0  0  0  0  0  0  0  0  0
  186.2870  178.5620  140.1800 O   0  0  0  0  0  0  0  0  0  0  0  0
  188.6970  178.4420  140.0040 C   0  0  0  0  0  0  0  0  0  0  0  0
  189.3990  176.7530  144.1830 C   0  0  1  0  0  3  0  0  0  0  0  0
  189.6650  178.2510  140.8360 N   0  0  0  0  0  0  0  0  0  0  0  0
  185.5150  178.5310  142.9910 C   0  0  0  0  0  3  0  0  0  0  0  0
  186.7740  178.1520  143.2370 C   0  0  0  0  0  0  0  0  0  0  0  0
  188.2470  177.1590  145.0480 C   0  0  0  0  0  3  0  0  0  0  0  0
  187.7430  178.2050  142.1060 C   0  0  0  0  0  0  0  0  0  0  0  0
  189.0800  178.1110  142.1360 C   0  0  0  0  0  0  0  0  0  0  0  0
  189.9280  177.9130  143.3480 C   0  0  1  0  0  3  0  0  0  0  0  0
  190.0210  179.0980  144.0880 O   0  0  0  0  0  0  0  0  0  0  0  0
  191.2780  179.6200  143.7750 C   0  0  0  0  0  2  0  0  0  0  0  0
  192.2370  179.0570  144.6150 O   0  0  0  0  0  1  0  0  0  0  0  0
  190.5220  176.1830  145.0370 C   0  0  0  0  0  2  0  0  0  0  0  0
  192.3120  174.5050  144.5890 O   0  0  0  0  0  1  0  0  0  0  0  0
  191.9110  176.2020  143.1010 O   0  0  0  0  0  0  0  0  0  0  0  0
  191.6100  175.6320  144.1810 C   0  0  0  0  0  0  0  0  0  0  0  0
  184.4310  178.5560  144.0230 C   0  0  0  0  0  2  0  0  0  0  0  0
  183.1940  178.6250  141.8580 C   0  0  0  0  0  1  0  0  0  0  0  0
  183.0770  178.7530  143.3650 C   0  0  0  0  0  2  0  0  0  0  0  0
  188.8950  178.5880  138.5320 C   0  0  0  0  0  2  0  0  0  0  0  0
  189.0440  177.0730  136.6600 N   0  0  0  0  0  2  0  0  0  0  0  0
  189.2370  177.2720  137.9110 C   0  0  0  0  0  3  0  0  0  0  0  0
  1  9  2  0  0  0  0
  2 10  1  0  0  0  0
  3  2  2  0  0  0  0
  4  2  1  0  0  0  0
  4  6  2  0  0  0  0
  5 16  1  1  0  0  0
  5  9  1  0  0  0  0
  6 11  1  0  0  0  0
  7  8  2  0  0  0  0
  7 20  1  0  0  0  0
  8  1  1  0  0  0  0
 10 11  2  0  0  0  0
 10  8  1  0  0  0  0
 11 12  1  0  0  0  0
 12 13  1  1  0  0  0
 12  5  1  0  0  0  0
 14 13  1  0  0  0  0
 14 15  1  0  0  0  0
 18 19  2  0  0  0  0
 19 17  1  0  0  0  0
 19 16  1  0  0  0  0
 21 22  1  0  0  0  0
 22 20  1  0  0  0  0
 23  4  1  0  0  0  0
 24 25  2  0  0  0  0
 25 23  1  0  0  0  0
M  END
>  <MODEL>
5

>  <REMARK>
 VINA RESULT:      -6.1      1.708      2.214
  Name = 
  8 active torsions:
  status: ('A' for Active; 'I' for Inactive)
    1  A    between atoms: O_1  and  C_6
    2  A    between atoms: O_1  and  C_25
    3  A    between atoms: C_4  and  C_19
    4  A    between atoms: C_10  and  C_20
    5  A    between atoms: C_11  and  C_12
    6  A    between atoms: C_11  and  C_24
    7  A    between atoms: C_14  and  C_19
    8  A    between atoms: C_16  and  C_20
                            x       y       z     vdW  Elec       q    Type
                         _______ _______ _______ _____ _____    ______ ____

>  <TORSDO>
F 8

$$$$
=
 OpenBabel11042411213D

 25 26  0  0  1  0  0  0  0  0999 V2000
  181.8920  179.0190  143.5820 C   0  0  0  0  0  3  0  0  0  0  0  0
  184.8050  178.6520  140.8770 C   0  0  0  0  0  0  0  0  0  0  0  0
  185.9370  178.7680  141.4200 O   0  0  0  0  0  0  0  0  0  0  0  0
  184.5410  178.4710  139.4660 C   0  0  0  0  0  0  0  0  0  0  0  0
  180.6220  179.6240  141.4970 C   0  0  1  0  0  3  0  0  0  0  0  0
  183.2690  178.4100  139.2520 N   0  0  0  0  0  0  0  0  0  0  0  0
  184.2810  178.6830  143.8180 C   0  0  0  0  0  3  0  0  0  0  0  0
  183.2380  178.8070  142.9910 C   0  0  0  0  0  0  0  0  0  0  0  0
  180.7610  179.3540  142.9620 C   0  0  0  0  0  3  0  0  0  0  0  0
  183.5000  178.6840  141.5290 C   0  0  0  0  0  0  0  0  0  0  0  0
  182.6240  178.5340  140.5250 C   0  0  0  0  0  0  0  0  0  0  0  0
  181.1380  178.4680  140.6480 C   0  0  1  0  0  3  0  0  0  0  0  0
  180.7360  177.2230  141.1480 O   0  0  0  0  0  0  0  0  0  0  0  0
  180.1910  176.5530  140.0510 C   0  0  0  0  0  2  0  0  0  0  0  0
  178.9340  176.0550  140.3900 O   0  0  0  0  0  1  0  0  0  0  0  0
  179.1670  179.9050  141.1500 C   0  0  0  0  0  2  0  0  0  0  0  0
  178.9620  180.2630  138.6900 O   0  0  0  0  0  0  0  0  0  0  0  0
  179.1140  182.0510  140.1160 O   0  0  0  0  0  1  0  0  0  0  0  0
  179.0700  180.8030  139.9660 C   0  0  0  0  0  0  0  0  0  0  0  0
  184.1820  178.7600  145.3100 C   0  0  0  0  0  2  0  0  0  0  0  0
  186.4490  177.7760  144.9710 C   0  0  0  0  0  1  0  0  0  0  0  0
  185.5340  178.4920  145.9470 C   0  0  0  0  0  2  0  0  0  0  0  0
  185.5600  178.4260  138.3770 C   0  0  0  0  0  2  0  0  0  0  0  0
  185.9000  176.5060  136.9550 N   0  0  0  0  0  2  0  0  0  0  0  0
  185.1410  177.4800  137.2980 C   0  0  0  0  0  3  0  0  0  0  0  0
  2  3  2  0  0  0  0
  2 10  1  0  0  0  0
  4  2  1  0  0  0  0
  5 16  1  1  0  0  0
  5  9  1  0  0  0  0
  6  4  2  0  0  0  0
  6 11  1  0  0  0  0
  7 20  1  0  0  0  0
  8  1  1  0  0  0  0
  8  7  2  0  0  0  0
  9  1  2  0  0  0  0
 10  8  1  0  0  0  0
 11 12  1  0  0  0  0
 11 10  2  0  0  0  0
 12 13  1  1  0  0  0
 12  5  1  0  0  0  0
 14 15  1  0  0  0  0
 14 13  1  0  0  0  0
 17 19  2  0  0  0  0
 19 18  1  0  0  0  0
 19 16  1  0  0  0  0
 20 22  1  0  0  0  0
 21 22  1  0  0  0  0
 23  4  1  0  0  0  0
 24 25  2  0  0  0  0
 25 23  1  0  0  0  0
M  END
>  <MODEL>
6

>  <REMARK>
 VINA RESULT:      -5.9      4.618      8.938
  Name = 
  8 active torsions:
  status: ('A' for Active; 'I' for Inactive)
    1  A    between atoms: O_1  and  C_6
    2  A    between atoms: O_1  and  C_25
    3  A    between atoms: C_4  and  C_19
    4  A    between atoms: C_10  and  C_20
    5  A    between atoms: C_11  and  C_12
    6  A    between atoms: C_11  and  C_24
    7  A    between atoms: C_14  and  C_19
    8  A    between atoms: C_16  and  C_20
                            x       y       z     vdW  Elec       q    Type
                         _______ _______ _______ _____ _____    ______ ____

>  <TORSDO>
F 8

$$$$
=
 OpenBabel11042411213D

 25 26  0  0  1  0  0  0  0  0999 V2000
  189.1090  177.8330  139.3200 C   0  0  0  0  0  3  0  0  0  0  0  0
  185.7340  178.9610  141.1290 C   0  0  0  0  0  0  0  0  0  0  0  0
  184.9010  179.3980  140.2890 O   0  0  0  0  0  0  0  0  0  0  0  0
  185.5650  178.9130  142.5650 C   0  0  0  0  0  0  0  0  0  0  0  0
  189.9820  178.2430  141.6440 C   0  0  1  0  0  3  0  0  0  0  0  0
  186.6210  178.4270  143.1250 N   0  0  0  0  0  0  0  0  0  0  0  0
  186.9080  178.3550  138.4490 C   0  0  0  0  0  3  0  0  0  0  0  0
  187.6890  178.2160  139.5260 C   0  0  0  0  0  0  0  0  0  0  0  0
  190.1000  177.8240  140.2120 C   0  0  0  0  0  3  0  0  0  0  0  0
  187.0620  178.4190  140.8630 C   0  0  0  0  0  0  0  0  0  0  0  0
  187.5460  178.1150  142.0760 C   0  0  0  0  0  0  0  0  0  0  0  0
  188.8710  177.4950  142.3720 C   0  0  1  0  0  3  0  0  0  0  0  0
  188.8610  176.1300  142.0630 O   0  0  0  0  0  0  0  0  0  0  0  0
  189.2610  175.4920  143.2400 C   0  0  0  0  0  2  0  0  0  0  0  0
  190.5680  175.0300  143.0960 O   0  0  0  0  0  1  0  0  0  0  0  0
  191.3040  178.0250  142.3650 C   0  0  0  0  0  2  0  0  0  0  0  0
  191.4940  177.6870  144.8290 O   0  0  0  0  0  1  0  0  0  0  0  0
  190.9130  179.7350  143.9790 O   0  0  0  0  0  0  0  0  0  0  0  0
  191.2340  178.5380  143.7630 C   0  0  0  0  0  0  0  0  0  0  0  0
  187.3800  178.1640  137.0410 C   0  0  0  0  0  2  0  0  0  0  0  0
  187.5010  175.6980  136.6910 C   0  0  0  0  0  1  0  0  0  0  0  0
  186.7040  176.9590  136.4140 C   0  0  0  0  0  2  0  0  0  0  0  0
  184.3820  179.4060  143.3300 C   0  0  0  0  0  2  0  0  0  0  0  0
  184.1890  178.9910  145.6990 N   0  0  0  0  0  2  0  0  0  0  0  0
  184.1090  178.5260  144.5080 C   0  0  0  0  0  3  0  0  0  0  0  0
  1  8  1  0  0  0  0
  1  9  2  0  0  0  0
  2  4  1  0  0  0  0
  3  2  2  0  0  0  0
  4  6  2  0  0  0  0
  4 23  1  0  0  0  0
  5 16  1  1  0  0  0
  5 12  1  0  0  0  0
  7  8  2  0  0  0  0
  8 10  1  0  0  0  0
  9  5  1  0  0  0  0
 10  2  1  0  0  0  0
 10 11  2  0  0  0  0
 11 12  1  0  0  0  0
 11  6  1  0  0  0  0
 12 13  1  6  0  0  0
 13 14  1  0  0  0  0
 15 14  1  0  0  0  0
 16 19  1  0  0  0  0
 19 18  2  0  0  0  0
 19 17  1  0  0  0  0
 20  7  1  0  0  0  0
 22 21  1  0  0  0  0
 22 20  1  0  0  0  0
 23 25  1  0  0  0  0
 25 24  2  0  0  0  0
M  END
>  <MODEL>
7

>  <REMARK>
 VINA RESULT:      -5.9      2.567      5.688
  Name = 
  8 active torsions:
  status: ('A' for Active; 'I' for Inactive)
    1  A    between atoms: O_1  and  C_6
    2  A    between atoms: O_1  and  C_25
    3  A    between atoms: C_4  and  C_19
    4  A    between atoms: C_10  and  C_20
    5  A    between atoms: C_11  and  C_12
    6  A    between atoms: C_11  and  C_24
    7  A    between atoms: C_14  and  C_19
    8  A    between atoms: C_16  and  C_20
                            x       y       z     vdW  Elec       q    Type
                         _______ _______ _______ _____ _____    ______ ____

>  <TORSDO>
F 8

$$$$
=
 OpenBabel11042411213D

 25 26  0  0  1  0  0  0  0  0999 V2000
  182.8430  178.7540  142.9800 C   0  0  0  0  0  3  0  0  0  0  0  0
  185.6680  178.5640  140.1650 C   0  0  0  0  0  0  0  0  0  0  0  0
  186.8110  178.7370  140.6670 O   0  0  0  0  0  0  0  0  0  0  0  0
  185.3600  178.3800  138.7630 C   0  0  0  0  0  0  0  0  0  0  0  0
  181.4650  179.3060  140.9490 C   0  0  1  0  0  3  0  0  0  0  0  0
  184.0870  178.2520  138.5960 N   0  0  0  0  0  0  0  0  0  0  0  0
  185.2530  178.5450  143.1240 C   0  0  0  0  0  3  0  0  0  0  0  0
  184.1750  178.6190  142.3370 C   0  0  0  0  0  0  0  0  0  0  0  0
  181.6730  179.0330  142.4050 C   0  0  0  0  0  3  0  0  0  0  0  0
  184.3880  178.5210  140.8650 C   0  0  0  0  0  0  0  0  0  0  0  0
  183.4840  178.3330  139.8930 C   0  0  0  0  0  0  0  0  0  0  0  0
  182.0090  178.1850  140.0700 C   0  0  1  0  0  3  0  0  0  0  0  0
  181.6930  176.9170  140.5740 O   0  0  0  0  0  0  0  0  0  0  0  0
  181.1000  176.2440  139.5040 C   0  0  0  0  0  2  0  0  0  0  0  0
  182.0290  175.3820  138.9250 O   0  0  0  0  0  1  0  0  0  0  0  0
  179.9850  179.5110  140.6590 C   0  0  0  0  0  2  0  0  0  0  0  0
  180.1170  181.6530  139.3890 O   0  0  0  0  0  0  0  0  0  0  0  0
  179.0280  181.5620  141.4040 O   0  0  0  0  0  1  0  0  0  0  0  0
  179.6720  180.9600  140.5070 C   0  0  0  0  0  0  0  0  0  0  0  0
  185.2060  178.6060  144.6190 C   0  0  0  0  0  2  0  0  0  0  0  0
  187.1780  177.1550  144.1420 C   0  0  0  0  0  1  0  0  0  0  0  0
  186.4110  177.9020  145.2170 C   0  0  0  0  0  2  0  0  0  0  0  0
  186.3390  178.3970  137.6370 C   0  0  0  0  0  2  0  0  0  0  0  0
  186.5630  176.0420  137.1610 N   0  0  0  0  0  2  0  0  0  0  0  0
  186.1660  177.1950  136.7660 C   0  0  0  0  0  3  0  0  0  0  0  0
  2  3  2  0  0  0  0
  2 10  1  0  0  0  0
  4  2  1  0  0  0  0
  5 16  1  1  0  0  0
  5  9  1  0  0  0  0
  6  4  2  0  0  0  0
  6 11  1  0  0  0  0
  7 20  1  0  0  0  0
  8  1  1  0  0  0  0
  8  7  2  0  0  0  0
  9  1  2  0  0  0  0
 10  8  1  0  0  0  0
 11 12  1  0  0  0  0
 11 10  2  0  0  0  0
 12 13  1  1  0  0  0
 12  5  1  0  0  0  0
 14 13  1  0  0  0  0
 15 14  1  0  0  0  0
 17 19  2  0  0  0  0
 19 16  1  0  0  0  0
 19 18  1  0  0  0  0
 20 22  1  0  0  0  0
 21 22  1  0  0  0  0
 23  4  1  0  0  0  0
 25 24  2  0  0  0  0
 25 23  1  0  0  0  0
M  END
>  <MODEL>
8

>  <REMARK>
 VINA RESULT:      -5.8      4.305      8.387
  Name = 
  8 active torsions:
  status: ('A' for Active; 'I' for Inactive)
    1  A    between atoms: O_1  and  C_6
    2  A    between atoms: O_1  and  C_25
    3  A    between atoms: C_4  and  C_19
    4  A    between atoms: C_10  and  C_20
    5  A    between atoms: C_11  and  C_12
    6  A    between atoms: C_11  and  C_24
    7  A    between atoms: C_14  and  C_19
    8  A    between atoms: C_16  and  C_20
                            x       y       z     vdW  Elec       q    Type
                         _______ _______ _______ _____ _____    ______ ____

>  <TORSDO>
F 8

$$$$
=
 OpenBabel11042411213D

 25 26  0  0  1  0  0  0  0  0999 V2000
  189.3920  177.7280  139.9830 C   0  0  0  0  0  3  0  0  0  0  0  0
  192.9240  176.6510  138.4660 C   0  0  0  0  0  0  0  0  0  0  0  0
  193.8410  176.8010  139.3180 O   0  0  0  0  0  0  0  0  0  0  0  0
  193.0840  176.2130  137.0960 C   0  0  0  0  0  0  0  0  0  0  0  0
  188.9040  177.9890  137.5290 C   0  0  1  0  0  3  0  0  0  0  0  0
  191.9410  176.1910  136.4960 N   0  0  0  0  0  0  0  0  0  0  0  0
  191.5340  177.2950  141.0310 C   0  0  0  0  0  3  0  0  0  0  0  0
  190.8170  177.3190  139.9030 C   0  0  0  0  0  0  0  0  0  0  0  0
  188.5540  178.0050  138.9840 C   0  0  0  0  0  3  0  0  0  0  0  0
  191.4970  176.8940  138.6460 C   0  0  0  0  0  0  0  0  0  0  0  0
  190.9570  176.6050  137.4530 C   0  0  0  0  0  0  0  0  0  0  0  0
  189.5090  176.6580  137.0980 C   0  0  1  0  0  3  0  0  0  0  0  0
  188.8240  175.5650  137.6420 O   0  0  0  0  0  0  0  0  0  0  0  0
  189.0140  174.5290  136.7250 C   0  0  0  0  0  2  0  0  0  0  0  0
  189.6820  173.4750  137.3470 O   0  0  0  0  0  1  0  0  0  0  0  0
  187.6710  178.2870  136.6890 C   0  0  0  0  0  2  0  0  0  0  0  0
  185.8330  176.7580  137.3980 O   0  0  0  0  0  0  0  0  0  0  0  0
  185.8980  178.9220  138.1500 O   0  0  0  0  0  1  0  0  0  0  0  0
  186.4270  178.0120  137.4610 C   0  0  0  0  0  0  0  0  0  0  0  0
  190.9940  177.6710  142.3760 C   0  0  0  0  0  2  0  0  0  0  0  0
  189.3070  176.0060  143.1520 C   0  0  0  0  0  1  0  0  0  0  0  0
  190.7620  176.4310  143.2200 C   0  0  0  0  0  2  0  0  0  0  0  0
  194.3730  175.8890  136.4190 C   0  0  0  0  0  2  0  0  0  0  0  0
  196.0160  174.6870  137.7150 N   0  0  0  0  0  2  0  0  0  0  0  0
  194.9670  174.6380  136.9810 C   0  0  0  0  0  3  0  0  0  0  0  0
  2 10  1  0  0  0  0
  2  3  2  0  0  0  0
  4  2  1  0  0  0  0
  5 16  1  6  0  0  0
  5  9  1  0  0  0  0
  6  4  2  0  0  0  0
  6 11  1  0  0  0  0
  7 20  1  0  0  0  0
  8  1  1  0  0  0  0
  8  7  2  0  0  0  0
  9  1  2  0  0  0  0
 10  8  1  0  0  0  0
 11 10  2  0  0  0  0
 12 11  1  0  0  0  0
 12  5  1  0  0  0  0
 12 13  1  1  0  0  0
 14 15  1  0  0  0  0
 14 13  1  0  0  0  0
 16 19  1  0  0  0  0
 17 19  2  0  0  0  0
 19 18  1  0  0  0  0
 20 22  1  0  0  0  0
 21 22  1  0  0  0  0
 23 25  1  0  0  0  0
 23  4  1  0  0  0  0
 25 24  2  0  0  0  0
M  END
>  <MODEL>
9

>  <REMARK>
 VINA RESULT:      -5.8      4.591      8.066
  Name = 
  8 active torsions:
  status: ('A' for Active; 'I' for Inactive)
    1  A    between atoms: O_1  and  C_6
    2  A    between atoms: O_1  and  C_25
    3  A    between atoms: C_4  and  C_19
    4  A    between atoms: C_10  and  C_20
    5  A    between atoms: C_11  and  C_12
    6  A    between atoms: C_11  and  C_24
    7  A    between atoms: C_14  and  C_19
    8  A    between atoms: C_16  and  C_20
                            x       y       z     vdW  Elec       q    Type
                         _______ _______ _______ _____ _____    ______ ____

>  <TORSDO>
F 8

$$$$
