=
 OpenBabel11042412293D

 27 30  0  0  1  0  0  0  0  0999 V2000
  191.0370  178.9240  143.1110 C   0  0  0  0  0  3  0  0  0  0  0  0
  187.2150  177.6600  143.3940 C   0  0  1  0  0  3  0  0  0  0  0  0
  184.3430  178.6220  146.0680 N   0  0  0  0  0  0  0  0  0  0  0  0
  184.1050  178.9970  144.7730 C   0  0  0  0  0  0  0  0  0  0  0  0
  189.8140  178.3940  142.9430 N   0  0  0  0  0  0  0  0  0  0  0  0
  187.5510  178.3200  142.1640 N   0  0  0  0  0  2  0  0  0  0  0  0
  188.2480  176.9970  144.2580 C   0  0  2  0  0  3  0  0  0  0  0  0
  186.1750  177.9860  144.1360 C   0  0  0  0  0  0  0  0  0  0  0  0
  191.5220  178.6420  144.3430 N   0  0  0  0  0  0  0  0  0  0  0  0
  187.6110  177.1120  145.6180 C   0  0  0  0  0  2  0  0  0  0  0  0
  185.4830  177.9660  146.4330 C   0  0  0  0  0  3  0  0  0  0  0  0
  189.5160  177.7730  144.0940 C   0  0  0  0  0  0  0  0  0  0  0  0
  185.0350  178.6960  143.7650 C   0  0  0  0  0  3  0  0  0  0  0  0
  190.5730  177.9050  144.9670 C   0  0  0  0  0  3  0  0  0  0  0  0
  186.4110  177.6500  145.4460 C   0  0  0  0  0  0  0  0  0  0  0  0
  188.9580  178.4120  141.7500 C   0  0  2  0  0  3  0  0  0  0  0  0
  182.0700  178.9230  143.3900 C   0  0  0  0  0  1  0  0  0  0  0  0
  182.8440  179.7110  144.4290 C   0  0  0  0  0  2  0  0  0  0  0  0
  189.3090  177.2400  140.8150 C   0  0  1  0  0  3  0  0  0  0  0  0
  188.6120  177.3170  139.4540 C   0  0  0  0  0  2  0  0  0  0  0  0
  188.4050  178.6430  139.0650 O   0  0  0  0  0  1  0  0  0  0  0  0
  190.8140  176.9820  140.6880 C   0  0  0  0  0  2  0  0  0  0  0  0
  191.2690  176.7380  139.2550 C   0  0  0  0  0  2  0  0  0  0  0  0
  192.6400  176.9680  139.1450 O   0  0  0  0  0  0  0  0  0  0  0  0
  192.5530  174.6310  137.6500 O   0  0  0  0  0  0  0  0  0  0  0  0
  194.1360  176.5540  136.8440 O   0  0  0  0  0  0  0  0  0  0  0  0
  193.1260  176.0180  137.8320 P   0  0  0  0  0  0  0  0  0  0  0  0
  1  9  2  0  0  0  0
  2  6  1  1  0  0  0
  2  8  1  0  0  0  0
  2  7  1  0  0  0  0
  3 11  1  0  0  0  0
  4  3  2  0  0  0  0
  5  1  1  0  0  0  0
  5 12  1  0  0  0  0
  7 10  1  1  0  0  0
  8 15  1  0  0  0  0
  9 14  1  0  0  0  0
 12  7  1  0  0  0  0
 12 14  2  0  0  0  0
 13  8  2  0  0  0  0
 13  4  1  0  0  0  0
 15 10  1  0  0  0  0
 15 11  2  0  0  0  0
 16 19  1  6  0  0  0
 16  6  1  0  0  0  0
 16  5  1  0  0  0  0
 17 18  1  0  0  0  0
 18  4  1  0  0  0  0
 19 20  1  6  0  0  0
 21 20  1  0  0  0  0
 22 19  1  0  0  0  0
 23 22  1  0  0  0  0
 24 23  1  0  0  0  0
 25 27  2  0  0  0  0
 26 27  2  0  0  0  0
 27 24  1  0  0  0  0
M  END
>  <MODEL>
1

>  <REMARK>
 VINA RESULT:      -7.8      0.000      0.000
  Name = 
  7 active torsions:
  status: ('A' for Active; 'I' for Inactive)
    1  A    between atoms: C_1  and  C_26
    2  A    between atoms: C_5  and  C_15
    3  A    between atoms: O_10  and  P_24
    4  A    between atoms: O_10  and  C_27
    5  A    between atoms: C_22  and  C_26
    6  A    between atoms: C_22  and  C_27
    7  A    between atoms: C_25  and  C_26
                            x       y       z     vdW  Elec       q    Type
                         _______ _______ _______ _____ _____    ______ ____

>  <TORSDO>
F 7

$$$$
=
 OpenBabel11042412293D

 27 30  0  0  1  0  0  0  0  0999 V2000
  188.4200  176.1620  143.5330 C   0  0  0  0  0  3  0  0  0  0  0  0
  185.3290  178.5610  142.5450 C   0  0  1  0  0  3  0  0  0  0  0  0
  182.9930  178.5780  139.2490 N   0  0  0  0  0  0  0  0  0  0  0  0
  182.3630  178.2800  140.4270 C   0  0  0  0  0  0  0  0  0  0  0  0
  187.4100  177.0450  143.4790 N   0  0  0  0  0  0  0  0  0  0  0  0
  185.1590  177.8150  143.7590 N   0  0  0  0  0  2  0  0  0  0  0  0
  186.6830  178.8780  141.9800 C   0  0  2  0  0  3  0  0  0  0  0  0
  184.4380  178.5860  141.5730 C   0  0  0  0  0  0  0  0  0  0  0  0
  189.2360  176.2930  142.4620 N   0  0  0  0  0  0  0  0  0  0  0  0
  186.3710  178.9840  140.5110 C   0  0  0  0  0  2  0  0  0  0  0  0
  184.3290  178.8480  139.1910 C   0  0  0  0  0  3  0  0  0  0  0  0
  187.5850  177.7420  142.3470 C   0  0  0  0  0  0  0  0  0  0  0  0
  183.0840  178.2640  141.6330 C   0  0  0  0  0  3  0  0  0  0  0  0
  188.7230  177.2970  141.7120 C   0  0  0  0  0  3  0  0  0  0  0  0
  185.0590  178.8470  140.3760 C   0  0  0  0  0  0  0  0  0  0  0  0
  186.3390  177.2820  144.4560 C   0  0  2  0  0  3  0  0  0  0  0  0
  180.3210  178.2980  141.8000 C   0  0  0  0  0  1  0  0  0  0  0  0
  180.9020  177.9920  140.4340 C   0  0  0  0  0  2  0  0  0  0  0  0
  186.8030  178.2740  145.5380 C   0  0  1  0  0  3  0  0  0  0  0  0
  185.7200  179.2730  145.9540 C   0  0  0  0  0  2  0  0  0  0  0  0
  185.6910  179.4410  147.3400 O   0  0  0  0  0  1  0  0  0  0  0  0
  187.4750  177.6040  146.7420 C   0  0  0  0  0  2  0  0  0  0  0  0
  188.9900  177.7600  146.7560 C   0  0  0  0  0  2  0  0  0  0  0  0
  189.5800  176.6300  147.3200 O   0  0  0  0  0  0  0  0  0  0  0  0
  192.3000  176.3450  147.7930 O   0  0  0  0  0  0  0  0  0  0  0  0
  191.5360  177.1300  145.4160 O   0  0  0  0  0  0  0  0  0  0  0  0
  191.1960  176.7030  146.8250 P   0  0  0  0  0  0  0  0  0  0  0  0
  2  8  1  6  0  0  0
  2  6  1  0  0  0  0
  3  4  1  0  0  0  0
  4 18  1  0  0  0  0
  4 13  2  0  0  0  0
  5  1  1  0  0  0  0
  5 16  1  0  0  0  0
  6 16  1  0  0  0  0
  7 10  1  6  0  0  0
  7 12  1  0  0  0  0
  7  2  1  0  0  0  0
  8 13  1  0  0  0  0
  9  1  2  0  0  0  0
 11  3  2  0  0  0  0
 11 15  1  0  0  0  0
 12  5  1  0  0  0  0
 14 12  2  0  0  0  0
 14  9  1  0  0  0  0
 15 10  1  0  0  0  0
 15  8  2  0  0  0  0
 16 19  1  1  0  0  0
 18 17  1  0  0  0  0
 19 20  1  1  0  0  0
 19 22  1  0  0  0  0
 20 21  1  0  0  0  0
 22 23  1  0  0  0  0
 23 24  1  0  0  0  0
 26 27  2  0  0  0  0
 27 24  1  0  0  0  0
 27 25  2  0  0  0  0
M  END
>  <MODEL>
2

>  <REMARK>
 VINA RESULT:      -7.5      4.257      5.931
  Name = 
  7 active torsions:
  status: ('A' for Active; 'I' for Inactive)
    1  A    between atoms: C_1  and  C_26
    2  A    between atoms: C_5  and  C_15
    3  A    between atoms: O_10  and  P_24
    4  A    between atoms: O_10  and  C_27
    5  A    between atoms: C_22  and  C_26
    6  A    between atoms: C_22  and  C_27
    7  A    between atoms: C_25  and  C_26
                            x       y       z     vdW  Elec       q    Type
                         _______ _______ _______ _____ _____    ______ ____

>  <TORSDO>
F 7

$$$$
=
 OpenBabel11042412293D

 27 30  0  0  1  0  0  0  0  0999 V2000
  191.1910  178.9710  143.8350 C   0  0  0  0  0  3  0  0  0  0  0  0
  187.3780  177.6510  143.8460 C   0  0  1  0  0  3  0  0  0  0  0  0
  184.2090  178.8550  146.0450 N   0  0  0  0  0  0  0  0  0  0  0  0
  184.1150  179.0640  144.6950 C   0  0  0  0  0  0  0  0  0  0  0  0
  190.0020  178.3930  143.5980 N   0  0  0  0  0  0  0  0  0  0  0  0
  187.8430  178.1650  142.5890 N   0  0  0  0  0  2  0  0  0  0  0  0
  188.3140  177.1260  144.8940 C   0  0  2  0  0  3  0  0  0  0  0  0
  186.2560  178.0370  144.4220 C   0  0  0  0  0  0  0  0  0  0  0  0
  191.5370  178.8540  145.1370 N   0  0  0  0  0  0  0  0  0  0  0  0
  187.5260  177.3890  146.1500 C   0  0  0  0  0  2  0  0  0  0  0  0
  185.3080  178.2800  146.6120 C   0  0  0  0  0  3  0  0  0  0  0  0
  189.5830  177.9090  144.7770 C   0  0  0  0  0  0  0  0  0  0  0  0
  185.1570  178.6660  143.8410 C   0  0  0  0  0  3  0  0  0  0  0  0
  190.5320  178.1740  145.7390 C   0  0  0  0  0  3  0  0  0  0  0  0
  186.3470  177.8700  145.7820 C   0  0  0  0  0  0  0  0  0  0  0  0
  189.2860  178.2430  142.3240 C   0  0  2  0  0  3  0  0  0  0  0  0
  181.7980  178.6600  143.9690 C   0  0  0  0  0  1  0  0  0  0  0  0
  182.8920  179.6970  144.1260 C   0  0  0  0  0  2  0  0  0  0  0  0
  189.7550  176.9760  141.5870 C   0  0  1  0  0  3  0  0  0  0  0  0
  189.5430  175.6900  142.3900 C   0  0  0  0  0  2  0  0  0  0  0  0
  190.7470  175.2220  142.9240 O   0  0  0  0  0  1  0  0  0  0  0  0
  189.2250  176.8650  140.1530 C   0  0  0  0  0  2  0  0  0  0  0  0
  189.8850  177.8380  139.1850 C   0  0  0  0  0  2  0  0  0  0  0  0
  189.0100  178.8840  138.8910 O   0  0  0  0  0  0  0  0  0  0  0  0
  187.7770  177.1710  137.0890 O   0  0  0  0  0  0  0  0  0  0  0  0
  186.2770  178.4010  138.8460 O   0  0  0  0  0  0  0  0  0  0  0  0
  187.6400  178.1240  138.2540 P   0  0  0  0  0  0  0  0  0  0  0  0
  1  9  2  0  0  0  0
  2  6  1  1  0  0  0
  2  8  1  0  0  0  0
  2  7  1  0  0  0  0
  3 11  1  0  0  0  0
  4  3  2  0  0  0  0
  5  1  1  0  0  0  0
  5 12  1  0  0  0  0
  7 10  1  1  0  0  0
  8 15  1  0  0  0  0
  9 14  1  0  0  0  0
 12  7  1  0  0  0  0
 12 14  2  0  0  0  0
 13  8  2  0  0  0  0
 13  4  1  0  0  0  0
 15 10  1  0  0  0  0
 15 11  2  0  0  0  0
 16 19  1  1  0  0  0
 16  6  1  0  0  0  0
 16  5  1  0  0  0  0
 17 18  1  0  0  0  0
 18  4  1  0  0  0  0
 19 22  1  6  0  0  0
 19 20  1  0  0  0  0
 20 21  1  0  0  0  0
 23 22  1  0  0  0  0
 24 23  1  0  0  0  0
 25 27  2  0  0  0  0
 27 26  2  0  0  0  0
 27 24  1  0  0  0  0
M  END
>  <MODEL>
3

>  <REMARK>
 VINA RESULT:      -7.2      2.194      2.770
  Name = 
  7 active torsions:
  status: ('A' for Active; 'I' for Inactive)
    1  A    between atoms: C_1  and  C_26
    2  A    between atoms: C_5  and  C_15
    3  A    between atoms: O_10  and  P_24
    4  A    between atoms: O_10  and  C_27
    5  A    between atoms: C_22  and  C_26
    6  A    between atoms: C_22  and  C_27
    7  A    between atoms: C_25  and  C_26
                            x       y       z     vdW  Elec       q    Type
                         _______ _______ _______ _____ _____    ______ ____

>  <TORSDO>
F 7

$$$$
=
 OpenBabel11042412293D

 27 30  0  0  1  0  0  0  0  0999 V2000
  180.1560  177.6900  141.8290 C   0  0  0  0  0  3  0  0  0  0  0  0
  183.9300  178.8750  142.6270 C   0  0  1  0  0  3  0  0  0  0  0  0
  186.4500  177.7390  145.5730 N   0  0  0  0  0  0  0  0  0  0  0  0
  186.8380  177.4210  144.2990 C   0  0  0  0  0  0  0  0  0  0  0  0
  181.3960  178.2070  141.8330 N   0  0  0  0  0  0  0  0  0  0  0  0
  183.7370  178.2800  141.3350 N   0  0  0  0  0  2  0  0  0  0  0  0
  182.8090  179.5140  143.3930 C   0  0  2  0  0  3  0  0  0  0  0  0
  184.8700  178.4970  143.4700 C   0  0  0  0  0  0  0  0  0  0  0  0
  179.5300  177.9220  143.0060 N   0  0  0  0  0  0  0  0  0  0  0  0
  183.2760  179.3240  144.8110 C   0  0  0  0  0  2  0  0  0  0  0  0
  185.2830  178.3960  145.8320 C   0  0  0  0  0  3  0  0  0  0  0  0
  181.5600  178.7670  143.0410 C   0  0  0  0  0  0  0  0  0  0  0  0
  186.0390  177.7860  143.2030 C   0  0  0  0  0  3  0  0  0  0  0  0
  180.4060  178.6130  143.7740 C   0  0  0  0  0  3  0  0  0  0  0  0
  184.4820  178.7750  144.7580 C   0  0  0  0  0  0  0  0  0  0  0  0
  182.3890  178.2310  140.7510 C   0  0  2  0  0  3  0  0  0  0  0  0
  189.1280  177.0930  145.1380 C   0  0  0  0  0  1  0  0  0  0  0  0
  188.1230  176.7030  144.0730 C   0  0  0  0  0  2  0  0  0  0  0  0
  182.1650  179.4510  139.8400 C   0  0  1  0  0  3  0  0  0  0  0  0
  183.1980  179.5690  138.7160 C   0  0  0  0  0  2  0  0  0  0  0  0
  184.1260  180.5780  138.9840 O   0  0  0  0  0  1  0  0  0  0  0  0
  180.7260  179.5840  139.3300 C   0  0  0  0  0  2  0  0  0  0  0  0
  180.5640  180.6330  138.2370 C   0  0  0  0  0  2  0  0  0  0  0  0
  180.6830  181.9110  138.7820 O   0  0  0  0  0  0  0  0  0  0  0  0
  181.6930  184.1290  137.4540 O   0  0  0  0  0  0  0  0  0  0  0  0
  179.8930  182.6720  136.2330 O   0  0  0  0  0  0  0  0  0  0  0  0
  180.7600  182.9390  137.4410 P   0  0  0  0  0  0  0  0  0  0  0  0
  1  5  1  0  0  0  0
  1  9  2  0  0  0  0
  2  6  1  1  0  0  0
  2  7  1  0  0  0  0
  2  8  1  0  0  0  0
  3 11  1  0  0  0  0
  4  3  2  0  0  0  0
  5 12  1  0  0  0  0
  7 10  1  1  0  0  0
  8 15  1  0  0  0  0
  9 14  1  0  0  0  0
 12  7  1  0  0  0  0
 12 14  2  0  0  0  0
 13  8  2  0  0  0  0
 13  4  1  0  0  0  0
 15 10  1  0  0  0  0
 15 11  2  0  0  0  0
 16 19  1  6  0  0  0
 16  6  1  0  0  0  0
 16  5  1  0  0  0  0
 18  4  1  0  0  0  0
 18 17  1  0  0  0  0
 19 20  1  6  0  0  0
 20 21  1  0  0  0  0
 22 19  1  0  0  0  0
 23 24  1  0  0  0  0
 23 22  1  0  0  0  0
 26 27  2  0  0  0  0
 27 25  2  0  0  0  0
 27 24  1  0  0  0  0
M  END
>  <MODEL>
4

>  <REMARK>
 VINA RESULT:      -7.1      5.166      8.467
  Name = 
  7 active torsions:
  status: ('A' for Active; 'I' for Inactive)
    1  A    between atoms: C_1  and  C_26
    2  A    between atoms: C_5  and  C_15
    3  A    between atoms: O_10  and  P_24
    4  A    between atoms: O_10  and  C_27
    5  A    between atoms: C_22  and  C_26
    6  A    between atoms: C_22  and  C_27
    7  A    between atoms: C_25  and  C_26
                            x       y       z     vdW  Elec       q    Type
                         _______ _______ _______ _____ _____    ______ ____

>  <TORSDO>
F 7

$$$$
=
 OpenBabel11042412293D

 27 30  0  0  1  0  0  0  0  0999 V2000
  187.8190  176.6270  146.7050 C   0  0  0  0  0  3  0  0  0  0  0  0
  188.6550  177.9500  142.9860 C   0  0  1  0  0  3  0  0  0  0  0  0
  191.8040  177.1540  140.5830 N   0  0  0  0  0  0  0  0  0  0  0  0
  190.5850  176.7200  140.1350 C   0  0  0  0  0  0  0  0  0  0  0  0
  187.8240  177.1630  145.4740 N   0  0  0  0  0  0  0  0  0  0  0  0
  187.4210  177.2280  143.1140 N   0  0  0  0  0  2  0  0  0  0  0  0
  189.3050  178.6410  144.1480 C   0  0  2  0  0  3  0  0  0  0  0  0
  189.5710  177.6730  142.0790 C   0  0  0  0  0  0  0  0  0  0  0  0
  188.9390  176.9620  147.3860 N   0  0  0  0  0  0  0  0  0  0  0  0
  190.7550  178.6000  143.7410 C   0  0  0  0  0  2  0  0  0  0  0  0
  191.9460  177.8120  141.7700 C   0  0  0  0  0  3  0  0  0  0  0  0
  188.9760  177.8420  145.3700 C   0  0  0  0  0  0  0  0  0  0  0  0
  189.4250  176.9610  140.8900 C   0  0  0  0  0  3  0  0  0  0  0  0
  189.6720  177.7400  146.5540 C   0  0  0  0  0  3  0  0  0  0  0  0
  190.8070  178.0690  142.5270 C   0  0  0  0  0  0  0  0  0  0  0  0
  186.7880  177.0980  144.4350 C   0  0  2  0  0  3  0  0  0  0  0  0
  190.8840  176.9340  137.7020 C   0  0  0  0  0  1  0  0  0  0  0  0
  190.4850  176.0050  138.8330 C   0  0  0  0  0  2  0  0  0  0  0  0
  185.7520  178.2190  144.6340 C   0  0  1  0  0  3  0  0  0  0  0  0
  185.9420  178.9990  145.9370 C   0  0  0  0  0  2  0  0  0  0  0  0
  184.9640  178.6630  146.8760 O   0  0  0  0  0  1  0  0  0  0  0  0
  185.5980  179.1390  143.4180 C   0  0  0  0  0  2  0  0  0  0  0  0
  184.2880  178.9380  142.6670 C   0  0  0  0  0  2  0  0  0  0  0  0
  184.4570  177.9930  141.6570 O   0  0  0  0  0  0  0  0  0  0  0  0
  184.2990  179.8690  139.6190 O   0  0  0  0  0  0  0  0  0  0  0  0
  186.5740  178.6240  139.9760 O   0  0  0  0  0  0  0  0  0  0  0  0
  185.1340  178.8600  140.3730 P   0  0  0  0  0  0  0  0  0  0  0  0
  1  9  2  0  0  0  0
  2  8  1  1  0  0  0
  2  6  1  0  0  0  0
  2  7  1  0  0  0  0
  3 11  1  0  0  0  0
  4  3  2  0  0  0  0
  4 13  1  0  0  0  0
  5  1  1  0  0  0  0
  6 16  1  0  0  0  0
  7 10  1  6  0  0  0
  7 12  1  0  0  0  0
  8 15  1  0  0  0  0
 11 15  2  0  0  0  0
 12  5  1  0  0  0  0
 12 14  2  0  0  0  0
 13  8  2  0  0  0  0
 14  9  1  0  0  0  0
 15 10  1  0  0  0  0
 16 19  1  1  0  0  0
 16  5  1  0  0  0  0
 17 18  1  0  0  0  0
 18  4  1  0  0  0  0
 19 22  1  6  0  0  0
 19 20  1  0  0  0  0
 20 21  1  0  0  0  0
 23 22  1  0  0  0  0
 24 23  1  0  0  0  0
 25 27  2  0  0  0  0
 26 27  2  0  0  0  0
 27 24  1  0  0  0  0
M  END
>  <MODEL>
5

>  <REMARK>
 VINA RESULT:      -6.9      3.466      6.653
  Name = 
  7 active torsions:
  status: ('A' for Active; 'I' for Inactive)
    1  A    between atoms: C_1  and  C_26
    2  A    between atoms: C_5  and  C_15
    3  A    between atoms: O_10  and  P_24
    4  A    between atoms: O_10  and  C_27
    5  A    between atoms: C_22  and  C_26
    6  A    between atoms: C_22  and  C_27
    7  A    between atoms: C_25  and  C_26
                            x       y       z     vdW  Elec       q    Type
                         _______ _______ _______ _____ _____    ______ ____

>  <TORSDO>
F 7

$$$$
=
 OpenBabel11042412293D

 27 30  0  0  1  0  0  0  0  0999 V2000
  180.2220  176.5900  140.2010 C   0  0  0  0  0  3  0  0  0  0  0  0
  183.3410  178.6300  141.7480 C   0  0  1  0  0  3  0  0  0  0  0  0
  184.9340  178.5350  145.4590 N   0  0  0  0  0  0  0  0  0  0  0  0
  185.7460  178.0950  144.4480 C   0  0  0  0  0  0  0  0  0  0  0  0
  181.3100  177.3400  140.4400 N   0  0  0  0  0  0  0  0  0  0  0  0
  183.6530  177.8020  140.6180 N   0  0  0  0  0  2  0  0  0  0  0  0
  181.9560  179.1470  142.0070 C   0  0  2  0  0  3  0  0  0  0  0  0
  184.0090  178.5960  142.8840 C   0  0  0  0  0  0  0  0  0  0  0  0
  179.2290  176.8820  141.0730 N   0  0  0  0  0  0  0  0  0  0  0  0
  181.9730  179.2940  143.5060 C   0  0  0  0  0  2  0  0  0  0  0  0
  183.6640  178.9750  145.2280 C   0  0  0  0  0  3  0  0  0  0  0  0
  181.0030  178.1150  141.4910 C   0  0  0  0  0  0  0  0  0  0  0  0
  185.2910  178.1030  143.1190 C   0  0  0  0  0  3  0  0  0  0  0  0
  179.7100  177.8540  141.8850 C   0  0  0  0  0  3  0  0  0  0  0  0
  183.1990  178.9990  143.9160 C   0  0  0  0  0  0  0  0  0  0  0  0
  182.5800  177.3850  139.7040 C   0  0  2  0  0  3  0  0  0  0  0  0
  187.4550  177.9040  146.2100 C   0  0  0  0  0  1  0  0  0  0  0  0
  187.1250  177.6240  144.7560 C   0  0  0  0  0  2  0  0  0  0  0  0
  182.4850  178.3660  138.5210 C   0  0  1  0  0  3  0  0  0  0  0  0
  183.3110  179.6400  138.7190 C   0  0  0  0  0  2  0  0  0  0  0  0
  182.4980  180.7760  138.7150 O   0  0  0  0  0  1  0  0  0  0  0  0
  182.7330  177.7130  137.1570 C   0  0  0  0  0  2  0  0  0  0  0  0
  183.8700  176.6990  137.1670 C   0  0  0  0  0  2  0  0  0  0  0  0
  184.8630  177.0890  136.2700 O   0  0  0  0  0  0  0  0  0  0  0  0
  187.1700  176.1220  137.4710 O   0  0  0  0  0  0  0  0  0  0  0  0
  186.5480  178.6370  137.8420 O   0  0  0  0  0  0  0  0  0  0  0  0
  186.2440  177.2900  137.2270 P   0  0  0  0  0  0  0  0  0  0  0  0
  1  5  1  0  0  0  0
  1  9  2  0  0  0  0
  2  6  1  1  0  0  0
  2  7  1  0  0  0  0
  2  8  1  0  0  0  0
  4 18  1  0  0  0  0
  4  3  2  0  0  0  0
  5 12  1  0  0  0  0
  7 10  1  1  0  0  0
  8 13  2  0  0  0  0
  8 15  1  0  0  0  0
  9 14  1  0  0  0  0
 10 15  1  0  0  0  0
 11  3  1  0  0  0  0
 12 14  2  0  0  0  0
 12  7  1  0  0  0  0
 13  4  1  0  0  0  0
 15 11  2  0  0  0  0
 16 19  1  6  0  0  0
 16  5  1  0  0  0  0
 16  6  1  0  0  0  0
 18 17  1  0  0  0  0
 19 22  1  6  0  0  0
 19 20  1  0  0  0  0
 21 20  1  0  0  0  0
 22 23  1  0  0  0  0
 24 23  1  0  0  0  0
 24 27  1  0  0  0  0
 27 25  2  0  0  0  0
 27 26  2  0  0  0  0
M  END
>  <MODEL>
6

>  <REMARK>
 VINA RESULT:      -6.7      4.074      7.003
  Name = 
  7 active torsions:
  status: ('A' for Active; 'I' for Inactive)
    1  A    between atoms: C_1  and  C_26
    2  A    between atoms: C_5  and  C_15
    3  A    between atoms: O_10  and  P_24
    4  A    between atoms: O_10  and  C_27
    5  A    between atoms: C_22  and  C_26
    6  A    between atoms: C_22  and  C_27
    7  A    between atoms: C_25  and  C_26
                            x       y       z     vdW  Elec       q    Type
                         _______ _______ _______ _____ _____    ______ ____

>  <TORSDO>
F 7

$$$$
=
 OpenBabel11042412293D

 27 30  0  0  1  0  0  0  0  0999 V2000
  188.9190  174.7000  136.5140 C   0  0  0  0  0  3  0  0  0  0  0  0
  190.0000  177.1170  139.5580 C   0  0  1  0  0  3  0  0  0  0  0  0
  188.0260  178.0780  142.9500 N   0  0  0  0  0  0  0  0  0  0  0  0
  189.1920  177.3800  143.1140 C   0  0  0  0  0  0  0  0  0  0  0  0
  189.5380  175.4960  137.4000 N   0  0  0  0  0  0  0  0  0  0  0  0
  190.8790  176.0090  139.3170 N   0  0  0  0  0  2  0  0  0  0  0  0
  189.1000  177.6750  138.4950 C   0  0  2  0  0  3  0  0  0  0  0  0
  189.5010  177.4080  140.7440 C   0  0  0  0  0  0  0  0  0  0  0  0
  187.7220  175.2170  136.1500 N   0  0  0  0  0  0  0  0  0  0  0  0
  187.9760  178.2360  139.3260 C   0  0  0  0  0  2  0  0  0  0  0  0
  187.5580  178.4260  141.7160 C   0  0  0  0  0  3  0  0  0  0  0  0
  188.7120  176.5320  137.6100 C   0  0  0  0  0  0  0  0  0  0  0  0
  189.9620  177.0110  141.9980 C   0  0  0  0  0  3  0  0  0  0  0  0
  187.5880  176.3810  136.8290 C   0  0  0  0  0  3  0  0  0  0  0  0
  188.3110  178.0780  140.5990 C   0  0  0  0  0  0  0  0  0  0  0  0
  190.8670  175.3430  138.0070 C   0  0  2  0  0  3  0  0  0  0  0  0
  188.6470  177.4950  145.5110 C   0  0  0  0  0  1  0  0  0  0  0  0
  189.6580  177.0260  144.4830 C   0  0  0  0  0  2  0  0  0  0  0  0
  191.9490  175.9530  137.0970 C   0  0  1  0  0  3  0  0  0  0  0  0
  193.0090  176.7500  137.8620 C   0  0  0  0  0  2  0  0  0  0  0  0
  194.0650  177.1200  137.0260 O   0  0  0  0  0  1  0  0  0  0  0  0
  192.5660  174.9510  136.1150 C   0  0  0  0  0  2  0  0  0  0  0  0
  193.2490  173.7730  136.7980 C   0  0  0  0  0  2  0  0  0  0  0  0
  194.6250  173.8290  136.5790 O   0  0  0  0  0  0  0  0  0  0  0  0
  195.4340  172.2620  138.7220 O   0  0  0  0  0  0  0  0  0  0  0  0
  195.7860  174.8510  138.8840 O   0  0  0  0  0  0  0  0  0  0  0  0
  195.3070  173.6410  138.1160 P   0  0  0  0  0  0  0  0  0  0  0  0
  1  5  1  0  0  0  0
  2  6  1  6  0  0  0
  2  8  1  0  0  0  0
  3  4  1  0  0  0  0
  4 18  1  0  0  0  0
  5 12  1  0  0  0  0
  5 16  1  0  0  0  0
  7 10  1  1  0  0  0
  7  2  1  0  0  0  0
  8 13  1  0  0  0  0
  9  1  2  0  0  0  0
  9 14  1  0  0  0  0
 10 15  1  0  0  0  0
 11  3  2  0  0  0  0
 12  7  1  0  0  0  0
 13  4  2  0  0  0  0
 14 12  2  0  0  0  0
 15  8  2  0  0  0  0
 15 11  1  0  0  0  0
 16 19  1  6  0  0  0
 16  6  1  0  0  0  0
 18 17  1  0  0  0  0
 19 22  1  1  0  0  0
 19 20  1  0  0  0  0
 21 20  1  0  0  0  0
 22 23  1  0  0  0  0
 24 23  1  0  0  0  0
 24 27  1  0  0  0  0
 27 25  2  0  0  0  0
 27 26  2  0  0  0  0
M  END
>  <MODEL>
7

>  <REMARK>
 VINA RESULT:      -6.7      3.025      5.840
  Name = 
  7 active torsions:
  status: ('A' for Active; 'I' for Inactive)
    1  A    between atoms: C_1  and  C_26
    2  A    between atoms: C_5  and  C_15
    3  A    between atoms: O_10  and  P_24
    4  A    between atoms: O_10  and  C_27
    5  A    between atoms: C_22  and  C_26
    6  A    between atoms: C_22  and  C_27
    7  A    between atoms: C_25  and  C_26
                            x       y       z     vdW  Elec       q    Type
                         _______ _______ _______ _____ _____    ______ ____

>  <TORSDO>
F 7

$$$$
=
 OpenBabel11042412293D

 27 30  0  0  1  0  0  0  0  0999 V2000
  180.3050  177.5040  141.4760 C   0  0  0  0  0  3  0  0  0  0  0  0
  183.9860  178.7960  142.5080 C   0  0  1  0  0  3  0  0  0  0  0  0
  186.2470  177.9150  145.7380 N   0  0  0  0  0  0  0  0  0  0  0  0
  186.7470  177.5100  144.5290 C   0  0  0  0  0  0  0  0  0  0  0  0
  181.5360  178.0360  141.5490 N   0  0  0  0  0  0  0  0  0  0  0  0
  183.9110  178.1050  141.2520 N   0  0  0  0  0  2  0  0  0  0  0  0
  182.7970  179.4740  143.1240 C   0  0  2  0  0  3  0  0  0  0  0  0
  184.8520  178.4940  143.4560 C   0  0  0  0  0  0  0  0  0  0  0  0
  179.5770  177.8120  142.5740 N   0  0  0  0  0  0  0  0  0  0  0  0
  183.1400  179.3950  144.5880 C   0  0  0  0  0  2  0  0  0  0  0  0
  185.0560  178.5720  145.8450 C   0  0  0  0  0  3  0  0  0  0  0  0
  181.5900  178.6860  142.7210 C   0  0  0  0  0  0  0  0  0  0  0  0
  186.0450  177.7820  143.3440 C   0  0  0  0  0  3  0  0  0  0  0  0
  180.3770  178.5690  143.3610 C   0  0  0  0  0  3  0  0  0  0  0  0
  184.3500  178.8600  144.6800 C   0  0  0  0  0  0  0  0  0  0  0  0
  182.6200  177.9950  140.5590 C   0  0  2  0  0  3  0  0  0  0  0  0
  189.0430  177.4460  145.4140 C   0  0  0  0  0  1  0  0  0  0  0  0
  188.0520  176.7950  144.4690 C   0  0  0  0  0  2  0  0  0  0  0  0
  182.4680  179.1420  139.5430 C   0  0  1  0  0  3  0  0  0  0  0  0
  183.8030  179.7440  139.1010 C   0  0  0  0  0  2  0  0  0  0  0  0
  183.6550  181.0800  138.7200 O   0  0  0  0  0  1  0  0  0  0  0  0
  181.5580  178.8000  138.3580 C   0  0  0  0  0  2  0  0  0  0  0  0
  182.2840  178.0900  137.2220 C   0  0  0  0  0  2  0  0  0  0  0  0
  182.0680  176.7150  137.3050 O   0  0  0  0  0  0  0  0  0  0  0  0
  184.8320  176.9080  137.1460 O   0  0  0  0  0  0  0  0  0  0  0  0
  183.7910  174.5920  137.7840 O   0  0  0  0  0  0  0  0  0  0  0  0
  183.6190  176.0480  137.4170 P   0  0  0  0  0  0  0  0  0  0  0  0
  1  5  1  0  0  0  0
  1  9  2  0  0  0  0
  2  6  1  1  0  0  0
  2  7  1  0  0  0  0
  2  8  1  0  0  0  0
  3 11  1  0  0  0  0
  4  3  2  0  0  0  0
  5 12  1  0  0  0  0
  7 10  1  1  0  0  0
  8 15  1  0  0  0  0
  9 14  1  0  0  0  0
 10 15  1  0  0  0  0
 12  7  1  0  0  0  0
 12 14  2  0  0  0  0
 13  8  2  0  0  0  0
 13  4  1  0  0  0  0
 15 11  2  0  0  0  0
 16 19  1  6  0  0  0
 16  6  1  0  0  0  0
 16  5  1  0  0  0  0
 18  4  1  0  0  0  0
 18 17  1  0  0  0  0
 19 22  1  6  0  0  0
 20 19  1  0  0  0  0
 21 20  1  0  0  0  0
 23 24  1  0  0  0  0
 23 22  1  0  0  0  0
 24 27  1  0  0  0  0
 25 27  2  0  0  0  0
 27 26  2  0  0  0  0
M  END
>  <MODEL>
8

>  <REMARK>
 VINA RESULT:      -6.7      4.417      7.279
  Name = 
  7 active torsions:
  status: ('A' for Active; 'I' for Inactive)
    1  A    between atoms: C_1  and  C_26
    2  A    between atoms: C_5  and  C_15
    3  A    between atoms: O_10  and  P_24
    4  A    between atoms: O_10  and  C_27
    5  A    between atoms: C_22  and  C_26
    6  A    between atoms: C_22  and  C_27
    7  A    between atoms: C_25  and  C_26
                            x       y       z     vdW  Elec       q    Type
                         _______ _______ _______ _____ _____    ______ ____

>  <TORSDO>
F 7

$$$$
=
 OpenBabel11042412293D

 27 30  0  0  1  0  0  0  0  0999 V2000
  188.3790  175.8970  143.5970 C   0  0  0  0  0  3  0  0  0  0  0  0
  185.4490  178.6210  144.1200 C   0  0  1  0  0  3  0  0  0  0  0  0
  182.0300  179.2020  142.0470 N   0  0  0  0  0  0  0  0  0  0  0  0
  181.8790  178.8160  143.3520 C   0  0  0  0  0  0  0  0  0  0  0  0
  187.5380  176.8540  144.0220 N   0  0  0  0  0  0  0  0  0  0  0  0
  185.6810  177.7530  145.2380 N   0  0  0  0  0  2  0  0  0  0  0  0
  186.5010  178.9000  143.0870 C   0  0  2  0  0  3  0  0  0  0  0  0
  184.2580  178.8270  143.5910 C   0  0  0  0  0  0  0  0  0  0  0  0
  188.7210  176.0910  142.3020 N   0  0  0  0  0  0  0  0  0  0  0  0
  185.6540  179.2020  141.8790 C   0  0  0  0  0  2  0  0  0  0  0  0
  183.2580  179.3760  141.4800 C   0  0  0  0  0  3  0  0  0  0  0  0
  187.3360  177.6640  142.9720 C   0  0  0  0  0  0  0  0  0  0  0  0
  183.0070  178.6040  144.1630 C   0  0  0  0  0  3  0  0  0  0  0  0
  188.0760  177.2130  141.9020 C   0  0  0  0  0  3  0  0  0  0  0  0
  184.3870  179.1800  142.2710 C   0  0  0  0  0  0  0  0  0  0  0  0
  186.9680  177.0540  145.3610 C   0  0  2  0  0  3  0  0  0  0  0  0
  179.5330  178.3030  142.8150 C   0  0  0  0  0  1  0  0  0  0  0  0
  180.5150  178.6400  143.9210 C   0  0  0  0  0  2  0  0  0  0  0  0
  187.9300  177.8740  146.2400 C   0  0  1  0  0  3  0  0  0  0  0  0
  187.2600  178.4760  147.4780 C   0  0  0  0  0  2  0  0  0  0  0  0
  187.7540  177.9010  148.6510 O   0  0  0  0  0  1  0  0  0  0  0  0
  189.2330  177.1410  146.5770 C   0  0  0  0  0  2  0  0  0  0  0  0
  190.4780  177.8460  146.0540 C   0  0  0  0  0  2  0  0  0  0  0  0
  191.1970  176.9890  145.2220 O   0  0  0  0  0  0  0  0  0  0  0  0
  191.5650  179.4390  143.9730 O   0  0  0  0  0  0  0  0  0  0  0  0
  191.9330  177.2660  142.5600 O   0  0  0  0  0  0  0  0  0  0  0  0
  191.5800  177.9310  143.8710 P   0  0  0  0  0  0  0  0  0  0  0  0
  1  5  1  0  0  0  0
  2  8  1  6  0  0  0
  2  6  1  0  0  0  0
  3  4  1  0  0  0  0
  4 18  1  0  0  0  0
  4 13  2  0  0  0  0
  5 16  1  0  0  0  0
  6 16  1  0  0  0  0
  7 10  1  6  0  0  0
  7  2  1  0  0  0  0
  8 13  1  0  0  0  0
  9  1  2  0  0  0  0
 10 15  1  0  0  0  0
 11  3  2  0  0  0  0
 11 15  1  0  0  0  0
 12  7  1  0  0  0  0
 12  5  1  0  0  0  0
 14  9  1  0  0  0  0
 14 12  2  0  0  0  0
 15  8  2  0  0  0  0
 16 19  1  1  0  0  0
 17 18  1  0  0  0  0
 19 22  1  1  0  0  0
 19 20  1  0  0  0  0
 20 21  1  0  0  0  0
 23 22  1  0  0  0  0
 24 23  1  0  0  0  0
 26 27  2  0  0  0  0
 27 25  2  0  0  0  0
 27 24  1  0  0  0  0
M  END
>  <MODEL>
9

>  <REMARK>
 VINA RESULT:      -6.5      3.310      5.068
  Name = 
  7 active torsions:
  status: ('A' for Active; 'I' for Inactive)
    1  A    between atoms: C_1  and  C_26
    2  A    between atoms: C_5  and  C_15
    3  A    between atoms: O_10  and  P_24
    4  A    between atoms: O_10  and  C_27
    5  A    between atoms: C_22  and  C_26
    6  A    between atoms: C_22  and  C_27
    7  A    between atoms: C_25  and  C_26
                            x       y       z     vdW  Elec       q    Type
                         _______ _______ _______ _____ _____    ______ ____

>  <TORSDO>
F 7

$$$$
