=
 OpenBabel11042413153D

 61 65  0  0  1  0  0  0  0  0999 V2000
  186.2720  177.6380  144.8820 C   0  0  0  0  0  2  0  0  0  0  0  0
  187.0700  178.9560  141.2920 C   0  0  1  0  0  3  0  0  0  0  0  0
  186.9790  178.0800  143.6180 C   0  0  0  0  0  0  0  0  0  0  0  0
  188.1460  176.9400  138.5430 O   0  0  0  0  0  0  0  0  0  0  0  0
  187.4840  178.0980  138.9640 C   0  0  2  0  0  3  0  0  0  0  0  0
  191.7230  176.9160  140.0310 N   0  0  0  0  0  2  0  0  0  0  0  0
  190.4070  177.5920  141.9710 C   0  0  0  0  0  0  0  0  0  0  0  0
  186.7800  177.8360  140.2920 C   0  0  0  0  0  2  0  0  0  0  0  0
  189.0150  176.6750  144.4060 C   0  0  0  0  0  1  0  0  0  0  0  0
  185.2910  178.6600  145.4330 C   0  0  0  0  0  2  0  0  0  0  0  0
  186.3430  178.7180  142.5900 C   0  0  0  0  0  0  0  0  0  0  0  0
  189.0930  178.1050  142.3840 C   0  0  0  0  0  0  0  0  0  0  0  0
  191.4190  177.2800  142.8790 O   0  0  0  0  0  1  0  0  0  0  0  0
  191.6730  176.5850  138.6380 C   0  0  0  0  0  0  0  0  0  0  0  0
  183.9160  178.4830  144.8060 C   0  0  0  0  0  2  0  0  0  0  0  0
  188.4680  179.0150  141.5260 O   0  0  0  0  0  0  0  0  0  0  0  0
  189.3660  177.3720  138.0020 C   0  0  0  0  0  2  0  0  0  0  0  0
  188.4050  177.6570  143.4490 C   0  0  0  0  0  0  0  0  0  0  0  0
  190.5510  177.4050  140.6660 C   0  0  0  0  0  3  0  0  0  0  0  0
  192.7500  176.5730  137.9840 O   0  0  0  0  0  0  0  0  0  0  0  0
  184.9520  179.2860  142.6710 C   0  0  0  0  0  2  0  0  0  0  0  0
  190.3570  176.2080  137.9670 C   0  0  1  0  0  3  0  0  0  0  0  0
  183.9560  178.3200  143.2850 C   0  0  0  0  0  2  0  0  0  0  0  0
  186.5340  178.4740  138.0070 O   0  0  0  0  0  0  0  0  0  0  0  0
  186.3130  177.3230  137.2400 C   0  0  2  0  0  3  0  0  0  0  0  0
  186.4370  177.6360  135.8820 O   0  0  0  0  0  1  0  0  0  0  0  0
  185.0290  176.8430  137.4920 O   0  0  0  0  0  0  0  0  0  0  0  0
  184.4030  176.8220  136.2430 C   0  0  0  0  0  2  0  0  0  0  0  0
  184.0330  174.5560  136.9640 O   0  0  0  0  0  1  0  0  0  0  0  0
  183.6250  175.5280  136.0450 C   0  0  1  0  0  3  0  0  0  0  0  0
  181.5520  174.9320  137.0750 O   0  0  0  0  0  1  0  0  0  0  0  0
  182.1130  175.7480  136.0910 C   0  0  1  0  0  3  0  0  0  0  0  0
  181.7480  177.1980  136.3650 C   0  0  0  0  0  2  0  0  0  0  0  0
  180.6800  177.2560  137.2730 O   0  0  0  0  0  0  0  0  0  0  0  0
  180.9890  178.2440  138.2260 C   0  0  1  0  0  0  0  0  0  0  0  0
  180.5320  178.0290  139.6450 C   0  0  2  0  0  0  0  0  0  0  0  0
  181.6350  178.5590  140.5440 C   0  0  2  0  0  3  0  0  0  0  0  0
  181.0970  179.4050  141.5150 O   0  0  0  0  0  1  0  0  0  0  0  0
  179.8630  176.6980  139.9460 C   0  0  0  0  0  1  0  0  0  0  0  0
  182.3230  178.9760  138.2150 C   0  0  0  0  0  2  0  0  0  0  0  0
  179.7820  179.0070  138.7450 C   0  0  0  0  0  2  0  0  0  0  0  0
  182.6200  179.3320  139.6670 C   0  0  0  0  0  2  0  0  0  0  0  0
  190.5310  175.6960  136.5200 C   0  0  2  0  0  3  0  0  0  0  0  0
  189.9610  176.8840  134.6410 C   0  0  0  0  0  1  0  0  0  0  0  0
  189.4670  176.0490  135.6570 O   0  0  0  0  0  0  0  0  0  0  0  0
  190.9270  174.2120  136.4280 C   0  0  0  0  0  2  0  0  0  0  0  0
  192.0610  174.0450  135.4330 C   0  0  0  0  0  2  0  0  0  0  0  0
  194.2650  173.0120  135.8360 C   0  0  0  0  0  0  0  0  0  0  0  0
  194.0170  172.1000  134.8110 O   0  0  0  0  0  1  0  0  0  0  0  0
  193.3560  173.9300  136.1630 C   0  0  0  0  0  3  0  0  0  0  0  0
  195.5630  172.9750  136.5790 C   0  0  2  0  0  3  0  0  0  0  0  0
  195.4250  172.3300  137.9290 C   0  0  0  0  0  0  0  0  0  0  0  0
  195.4330  173.0040  138.9490 O   0  0  0  0  0  0  0  0  0  0  0  0
  195.2600  170.8530  138.0190 C   0  0  0  0  0  1  0  0  0  0  0  0
  195.5320  175.3110  136.9460 O   0  0  0  0  0  0  0  0  0  0  0  0
  196.2140  174.3330  136.6540 C   0  0  0  0  0  0  0  0  0  0  0  0
  198.1110  173.5640  135.4760 F   0  0  0  0  0  0  0  0  0  0  0  0
  197.8880  175.7820  135.8440 F   0  0  0  0  0  0  0  0  0  0  0  0
  197.6910  174.5230  136.3860 C   0  0  0  0  0  0  0  0  0  0  0  0
  198.5320  174.3970  137.6570 C   0  0  0  0  0  2  0  0  0  0  0  0
  198.2350  175.4360  138.5460 O   0  0  0  0  0  1  0  0  0  0  0  0
  1 10  1  0  0  0  0
  2  8  1  6  0  0  0
  2 16  1  0  0  0  0
  2 11  1  0  0  0  0
  3  1  1  0  0  0  0
  4  5  1  0  0  0  0
  5 24  1  6  0  0  0
  5  8  1  0  0  0  0
  6 19  1  0  0  0  0
  7 12  1  0  0  0  0
  7 13  1  0  0  0  0
 11 21  1  0  0  0  0
 11  3  2  0  0  0  0
 12 18  2  0  0  0  0
 14  6  1  0  0  0  0
 15 10  1  0  0  0  0
 16 12  1  0  0  0  0
 17  4  1  0  0  0  0
 18  3  1  0  0  0  0
 18  9  1  0  0  0  0
 19  7  2  0  0  0  0
 20 14  2  0  0  0  0
 21 23  1  0  0  0  0
 22 43  1  6  0  0  0
 22 17  1  0  0  0  0
 22 14  1  0  0  0  0
 23 15  1  0  0  0  0
 25 26  1  6  0  0  0
 25 27  1  0  0  0  0
 25 24  1  0  0  0  0
 28 27  1  0  0  0  0
 30 32  1  0  0  0  0
 30 28  1  0  0  0  0
 30 29  1  1  0  0  0
 32 33  1  0  0  0  0
 32 31  1  1  0  0  0
 33 34  1  0  0  0  0
 35 34  1  6  0  0  0
 35 41  1  0  0  0  0
 35 36  1  0  0  0  0
 36 39  1  1  0  0  0
 36 37  1  0  0  0  0
 37 38  1  1  0  0  0
 40 35  1  0  0  0  0
 40 42  1  0  0  0  0
 41 36  1  0  0  0  0
 42 37  1  0  0  0  0
 43 46  1  1  0  0  0
 44 45  1  0  0  0  0
 45 43  1  0  0  0  0
 47 50  1  0  0  0  0
 47 46  1  0  0  0  0
 48 50  2  0  0  0  0
 49 48  1  0  0  0  0
 51 48  1  1  0  0  0
 51 56  1  0  0  0  0
 51 52  1  0  0  0  0
 52 54  1  0  0  0  0
 52 53  2  0  0  0  0
 56 55  2  0  0  0  0
 57 59  1  0  0  0  0
 58 59  1  0  0  0  0
 59 56  1  0  0  0  0
 59 60  1  0  0  0  0
 60 61  1  0  0  0  0
M  END
>  <MODEL>
1

>  <REMARK>
 VINA RESULT:      -7.4      0.000      0.000
  Name = 
  19 active torsions:
  status: ('A' for Active; 'I' for Inactive)
    1  A    between atoms: C_1  and  C_59
    2  A    between atoms: C_5  and  O_6
    3  A    between atoms: O_6  and  C_53
    4  A    between atoms: C_13  and  O_43
    5  A    between atoms: C_22  and  C_27
    6  A    between atoms: C_22  and  C_61
    7  A    between atoms: C_28  and  O_52
    8  A    between atoms: C_28  and  C_54
    9  A    between atoms: C_30  and  C_59
   10  A    between atoms: O_31  and  C_57
   11  A    between atoms: C_40  and  C_41
   12  A    between atoms: C_40  and  C_57
   13  A    between atoms: C_41  and  C_56
   14  A    between atoms: O_43  and  C_48
   15  A    between atoms: C_44  and  C_53
   16  A    between atoms: C_44  and  C_54
   17  A    between atoms: C_48  and  O_52
   18  A    between atoms: C_51  and  C_57
   19  A    between atoms: C_59  and  C_61
                            x       y       z     vdW  Elec       q    Type
                         _______ _______ _______ _____ _____    ______ ____

>  <TORSDO>
F 19

$$$$
=
 OpenBabel11042413153D

 61 65  0  0  1  0  0  0  0  0999 V2000
  186.3590  177.4680  144.2490 C   0  0  0  0  0  2  0  0  0  0  0  0
  187.5520  178.9370  140.8310 C   0  0  1  0  0  3  0  0  0  0  0  0
  187.2020  177.9470  143.0860 C   0  0  0  0  0  0  0  0  0  0  0  0
  188.8340  177.0260  138.0950 O   0  0  0  0  0  0  0  0  0  0  0  0
  188.1700  178.1850  138.5110 C   0  0  2  0  0  3  0  0  0  0  0  0
  192.2420  176.7950  139.9220 N   0  0  0  0  0  0  0  0  0  0  0  0
  190.7610  177.4190  141.7580 C   0  0  1  0  0  3  0  0  0  0  0  0
  187.3290  177.8820  139.7480 C   0  0  0  0  0  2  0  0  0  0  0  0
  189.1050  176.4300  143.9920 C   0  0  0  0  0  1  0  0  0  0  0  0
  185.3610  178.4960  144.7550 C   0  0  0  0  0  2  0  0  0  0  0  0
  186.6920  178.6600  142.0370 C   0  0  0  0  0  0  0  0  0  0  0  0
  189.4280  177.9590  142.0680 C   0  0  0  0  0  0  0  0  0  0  0  0
  191.6670  177.0240  142.7430 O   0  0  0  0  0  1  0  0  0  0  0  0
  192.3210  176.5380  138.5150 C   0  0  0  0  0  0  0  0  0  0  0  0
  184.0500  178.4010  143.9880 C   0  0  0  0  0  2  0  0  0  0  0  0
  188.9220  178.9330  141.2040 O   0  0  0  0  0  0  0  0  0  0  0  0
  190.1140  177.4400  137.7000 C   0  0  0  0  0  2  0  0  0  0  0  0
  188.6240  177.4820  143.0350 C   0  0  0  0  0  0  0  0  0  0  0  0
  191.0280  177.2940  140.4660 C   0  0  0  0  0  3  0  0  0  0  0  0
  193.4570  176.5200  137.9700 O   0  0  0  0  0  0  0  0  0  0  0  0
  185.3190  179.2740  142.0110 C   0  0  0  0  0  2  0  0  0  0  0  0
  191.0670  176.2440  137.6990 C   0  0  1  0  0  3  0  0  0  0  0  0
  184.2370  178.3150  142.4720 C   0  0  0  0  0  2  0  0  0  0  0  0
  187.3320  178.6440  137.4880 O   0  0  0  0  0  0  0  0  0  0  0  0
  186.8530  177.4860  136.8610 C   0  0  2  0  0  3  0  0  0  0  0  0
  187.0710  177.5770  135.4830 O   0  0  0  0  0  1  0  0  0  0  0  0
  185.4870  177.3620  137.1100 O   0  0  0  0  0  0  0  0  0  0  0  0
  185.2360  175.9890  137.0500 C   0  0  0  0  0  2  0  0  0  0  0  0
  184.2770  175.0910  135.0340 O   0  0  0  0  0  1  0  0  0  0  0  0
  183.9700  175.7010  136.2540 C   0  0  1  0  0  3  0  0  0  0  0  0
  183.5050  173.6400  137.3720 O   0  0  0  0  0  1  0  0  0  0  0  0
  182.9560  174.8830  137.0550 C   0  0  1  0  0  3  0  0  0  0  0  0
  182.5220  175.5870  138.3300 C   0  0  0  0  0  2  0  0  0  0  0  0
  181.3940  176.3800  138.0740 O   0  0  0  0  0  0  0  0  0  0  0  0
  181.5170  177.5510  138.8460 C   0  0  1  0  0  0  0  0  0  0  0  0
  181.0280  178.8460  138.2530 C   0  0  2  0  0  0  0  0  0  0  0  0
  180.3980  179.6360  139.3870 C   0  0  2  0  0  3  0  0  0  0  0  0
  180.8940  180.9400  139.3970 O   0  0  0  0  0  1  0  0  0  0  0  0
  180.3400  178.7550  136.9010 C   0  0  0  0  0  1  0  0  0  0  0  0
  181.2810  177.5460  140.3490 C   0  0  0  0  0  2  0  0  0  0  0  0
  182.5240  178.5500  138.3040 C   0  0  0  0  0  2  0  0  0  0  0  0
  180.7530  178.9330  140.6980 C   0  0  0  0  0  2  0  0  0  0  0  0
  191.3680  175.8010  136.2500 C   0  0  2  0  0  3  0  0  0  0  0  0
  189.4280  174.7260  135.6640 C   0  0  0  0  0  1  0  0  0  0  0  0
  190.8010  174.5530  135.9040 O   0  0  0  0  0  0  0  0  0  0  0  0
  192.8500  175.9300  135.8560 C   0  0  0  0  0  2  0  0  0  0  0  0
  193.2230  174.8150  134.8950 C   0  0  0  0  0  2  0  0  0  0  0  0
  194.6210  173.4320  136.3850 C   0  0  0  0  0  0  0  0  0  0  0  0
  193.5080  173.1820  137.1860 O   0  0  0  0  0  1  0  0  0  0  0  0
  194.5220  174.2110  135.3080 C   0  0  0  0  0  3  0  0  0  0  0  0
  195.9450  172.8210  136.7230 C   0  0  2  0  0  3  0  0  0  0  0  0
  195.8470  171.3370  136.9320 C   0  0  0  0  0  0  0  0  0  0  0  0
  194.7980  170.7430  136.7260 O   0  0  0  0  0  0  0  0  0  0  0  0
  197.0500  170.5810  137.3800 C   0  0  0  0  0  1  0  0  0  0  0  0
  196.0520  173.5560  138.9690 O   0  0  0  0  0  0  0  0  0  0  0  0
  196.6150  173.5220  137.8790 C   0  0  0  0  0  0  0  0  0  0  0  0
  198.1600  175.0600  138.7860 F   0  0  0  0  0  0  0  0  0  0  0  0
  198.9480  173.1980  137.7780 F   0  0  0  0  0  0  0  0  0  0  0  0
  197.9700  174.1790  137.7330 C   0  0  0  0  0  0  0  0  0  0  0  0
  198.1030  174.9470  136.4180 C   0  0  0  0  0  2  0  0  0  0  0  0
  197.2960  176.0900  136.4350 O   0  0  0  0  0  1  0  0  0  0  0  0
  1 10  1  0  0  0  0
  2  8  1  6  0  0  0
  2 16  1  0  0  0  0
  2 11  1  0  0  0  0
  3  1  1  0  0  0  0
  4  5  1  0  0  0  0
  5 24  1  6  0  0  0
  5  8  1  0  0  0  0
  6 19  2  0  0  0  0
  7 12  1  0  0  0  0
  7 13  1  1  0  0  0
 11  3  2  0  0  0  0
 12 18  2  0  0  0  0
 14  6  1  0  0  0  0
 15 10  1  0  0  0  0
 16 12  1  0  0  0  0
 17  4  1  0  0  0  0
 18  3  1  0  0  0  0
 18  9  1  0  0  0  0
 19  7  1  0  0  0  0
 20 14  2  0  0  0  0
 21 11  1  0  0  0  0
 21 23  1  0  0  0  0
 22 43  1  6  0  0  0
 22 17  1  0  0  0  0
 22 14  1  0  0  0  0
 23 15  1  0  0  0  0
 25 26  1  6  0  0  0
 25 27  1  0  0  0  0
 25 24  1  0  0  0  0
 28 27  1  0  0  0  0
 30 29  1  6  0  0  0
 30 28  1  0  0  0  0
 30 32  1  0  0  0  0
 32 31  1  1  0  0  0
 32 33  1  0  0  0  0
 34 33  1  0  0  0  0
 35 34  1  6  0  0  0
 35 40  1  0  0  0  0
 36 39  1  6  0  0  0
 36 41  1  0  0  0  0
 36 35  1  0  0  0  0
 36 37  1  0  0  0  0
 37 38  1  1  0  0  0
 37 42  1  0  0  0  0
 40 42  1  0  0  0  0
 41 35  1  0  0  0  0
 43 46  1  1  0  0  0
 44 45  1  0  0  0  0
 45 43  1  0  0  0  0
 47 50  1  0  0  0  0
 47 46  1  0  0  0  0
 48 49  1  0  0  0  0
 50 48  2  0  0  0  0
 51 48  1  1  0  0  0
 51 52  1  0  0  0  0
 51 56  1  0  0  0  0
 52 54  1  0  0  0  0
 53 52  2  0  0  0  0
 56 55  2  0  0  0  0
 59 58  1  0  0  0  0
 59 56  1  0  0  0  0
 59 57  1  0  0  0  0
 60 61  1  0  0  0  0
 60 59  1  0  0  0  0
M  END
>  <MODEL>
2

>  <REMARK>
 VINA RESULT:      -6.9      1.293      1.697
  Name = 
  19 active torsions:
  status: ('A' for Active; 'I' for Inactive)
    1  A    between atoms: C_1  and  C_59
    2  A    between atoms: C_5  and  O_6
    3  A    between atoms: O_6  and  C_53
    4  A    between atoms: C_13  and  O_43
    5  A    between atoms: C_22  and  C_27
    6  A    between atoms: C_22  and  C_61
    7  A    between atoms: C_28  and  O_52
    8  A    between atoms: C_28  and  C_54
    9  A    between atoms: C_30  and  C_59
   10  A    between atoms: O_31  and  C_57
   11  A    between atoms: C_40  and  C_41
   12  A    between atoms: C_40  and  C_57
   13  A    between atoms: C_41  and  C_56
   14  A    between atoms: O_43  and  C_48
   15  A    between atoms: C_44  and  C_53
   16  A    between atoms: C_44  and  C_54
   17  A    between atoms: C_48  and  O_52
   18  A    between atoms: C_51  and  C_57
   19  A    between atoms: C_59  and  C_61
                            x       y       z     vdW  Elec       q    Type
                         _______ _______ _______ _____ _____    ______ ____

>  <TORSDO>
F 19

$$$$
=
 OpenBabel11042413153D

 61 65  0  0  1  0  0  0  0  0999 V2000
  179.3610  175.6800  137.0080 C   0  0  0  0  0  2  0  0  0  0  0  0
  181.8770  178.5100  137.9680 C   0  0  1  0  0  3  0  0  0  0  0  0
  180.1000  176.7860  137.7310 C   0  0  0  0  0  0  0  0  0  0  0  0
  184.5100  178.2080  140.3670 O   0  0  0  0  0  0  0  0  0  0  0  0
  184.0400  178.8370  139.2090 C   0  0  2  0  0  3  0  0  0  0  0  0
  181.9090  178.6700  143.2000 N   0  0  0  0  0  2  0  0  0  0  0  0
  180.4670  178.0700  141.3260 C   0  0  0  0  0  0  0  0  0  0  0  0
  183.1920  177.8610  138.4000 C   0  0  0  0  0  2  0  0  0  0  0  0
  179.0730  175.8720  139.9340 C   0  0  0  0  0  1  0  0  0  0  0  0
  178.9310  176.0410  135.5970 C   0  0  0  0  0  2  0  0  0  0  0  0
  181.0560  177.5590  137.1350 C   0  0  0  0  0  0  0  0  0  0  0  0
  180.4250  177.9470  139.8610 C   0  0  0  0  0  0  0  0  0  0  0  0
  179.3870  177.7400  142.1450 O   0  0  0  0  0  1  0  0  0  0  0  0
  183.2580  178.9330  143.6040 C   0  0  0  0  0  0  0  0  0  0  0  0
  180.0330  175.7250  134.5970 C   0  0  0  0  0  2  0  0  0  0  0  0
  181.1480  178.8910  139.1250 O   0  0  0  0  0  0  0  0  0  0  0  0
  184.4260  179.1700  141.3850 C   0  0  0  0  0  2  0  0  0  0  0  0
  179.8580  176.9210  139.2030 C   0  0  0  0  0  0  0  0  0  0  0  0
  181.6260  178.4800  141.8220 C   0  0  0  0  0  3  0  0  0  0  0  0
  183.4530  179.5130  144.7060 O   0  0  0  0  0  0  0  0  0  0  0  0
  181.3220  177.5960  135.6550 C   0  0  0  0  0  2  0  0  0  0  0  0
  184.4360  178.4800  142.7500 C   0  0  1  0  0  3  0  0  0  0  0  0
  181.4150  176.2120  135.0390 C   0  0  0  0  0  2  0  0  0  0  0  0
  185.1230  179.2610  138.4290 O   0  0  0  0  0  0  0  0  0  0  0  0
  185.8800  178.1050  138.1970 C   0  0  2  0  0  3  0  0  0  0  0  0
  187.1980  178.3190  138.6150 O   0  0  0  0  0  1  0  0  0  0  0  0
  185.8660  177.8130  136.8340 O   0  0  0  0  0  0  0  0  0  0  0  0
  186.7490  176.7400  136.6890 C   0  0  0  0  0  2  0  0  0  0  0  0
  185.3300  175.1300  135.6000 O   0  0  0  0  0  1  0  0  0  0  0  0
  186.0110  175.4110  136.7880 C   0  0  1  0  0  3  0  0  0  0  0  0
  186.4690  173.0690  136.6430 O   0  0  0  0  0  1  0  0  0  0  0  0
  186.9370  174.2640  137.1920 C   0  0  1  0  0  3  0  0  0  0  0  0
  188.3740  174.4970  136.7520 C   0  0  0  0  0  2  0  0  0  0  0  0
  189.0150  175.3560  137.6570 O   0  0  0  0  0  0  0  0  0  0  0  0
  190.3710  175.4220  137.2880 C   0  0  1  0  0  0  0  0  0  0  0  0
  191.2010  176.5540  137.8360 C   0  0  2  0  0  0  0  0  0  0  0  0
  192.5780  175.9830  138.1280 C   0  0  2  0  0  3  0  0  0  0  0  0
  193.5630  176.8030  137.5750 O   0  0  0  0  0  1  0  0  0  0  0  0
  190.5180  177.4720  138.8350 C   0  0  0  0  0  1  0  0  0  0  0  0
  191.2240  174.1700  137.1530 C   0  0  0  0  0  2  0  0  0  0  0  0
  190.7140  176.5980  136.3900 C   0  0  0  0  0  2  0  0  0  0  0  0
  192.6470  174.5890  137.5040 C   0  0  0  0  0  2  0  0  0  0  0  0
  185.8040  178.6760  143.4380 C   0  0  2  0  0  3  0  0  0  0  0  0
  187.5880  178.2630  142.0560 C   0  0  0  0  0  1  0  0  0  0  0  0
  186.7760  177.7190  143.0640 O   0  0  0  0  0  0  0  0  0  0  0  0
  185.7110  178.8900  144.9590 C   0  0  0  0  0  2  0  0  0  0  0  0
  186.1070  177.6150  145.6820 C   0  0  0  0  0  2  0  0  0  0  0  0
  188.3670  177.0510  146.4950 C   0  0  0  0  0  0  0  0  0  0  0  0
  187.8770  176.9990  147.7990 O   0  0  0  0  0  1  0  0  0  0  0  0
  187.5610  177.3550  145.4780 C   0  0  0  0  0  3  0  0  0  0  0  0
  189.8090  176.7590  146.2200 C   0  0  2  0  0  3  0  0  0  0  0  0
  190.6820  177.0470  147.4080 C   0  0  0  0  0  0  0  0  0  0  0  0
  190.2800  177.7470  148.3260 O   0  0  0  0  0  0  0  0  0  0  0  0
  192.0470  176.4560  147.4710 C   0  0  0  0  0  1  0  0  0  0  0  0
  190.1510  178.6540  144.8470 O   0  0  0  0  0  0  0  0  0  0  0  0
  190.2980  177.4410  144.9670 C   0  0  0  0  0  0  0  0  0  0  0  0
  191.7800  177.5380  143.1310 F   0  0  0  0  0  0  0  0  0  0  0  0
  191.7620  175.6790  144.4140 F   0  0  0  0  0  0  0  0  0  0  0  0
  190.9740  176.6710  143.8550 C   0  0  0  0  0  0  0  0  0  0  0  0
  189.9680  176.0240  142.9020 C   0  0  0  0  0  2  0  0  0  0  0  0
  190.5360  175.8480  141.6360 O   0  0  0  0  0  1  0  0  0  0  0  0
  1  3  1  0  0  0  0
  2  8  1  1  0  0  0
  2 16  1  0  0  0  0
  3 18  1  0  0  0  0
  4 17  1  0  0  0  0
  5 24  1  6  0  0  0
  5  4  1  0  0  0  0
  6 14  1  0  0  0  0
  7 19  2  0  0  0  0
  7 13  1  0  0  0  0
  8  5  1  0  0  0  0
 10  1  1  0  0  0  0
 11  3  2  0  0  0  0
 11  2  1  0  0  0  0
 12  7  1  0  0  0  0
 14 20  2  0  0  0  0
 15 23  1  0  0  0  0
 15 10  1  0  0  0  0
 16 12  1  0  0  0  0
 17 22  1  0  0  0  0
 18 12  2  0  0  0  0
 18  9  1  0  0  0  0
 19  6  1  0  0  0  0
 21 11  1  0  0  0  0
 22 43  1  1  0  0  0
 22 14  1  0  0  0  0
 23 21  1  0  0  0  0
 25 24  1  0  0  0  0
 25 26  1  6  0  0  0
 27 25  1  0  0  0  0
 28 30  1  0  0  0  0
 28 27  1  0  0  0  0
 30 29  1  6  0  0  0
 30 32  1  0  0  0  0
 32 31  1  6  0  0  0
 33 32  1  0  0  0  0
 33 34  1  0  0  0  0
 35 34  1  1  0  0  0
 35 36  1  0  0  0  0
 36 37  1  0  0  0  0
 36 39  1  1  0  0  0
 37 38  1  6  0  0  0
 40 35  1  0  0  0  0
 40 42  1  0  0  0  0
 41 35  1  0  0  0  0
 41 36  1  0  0  0  0
 42 37  1  0  0  0  0
 43 46  1  1  0  0  0
 44 45  1  0  0  0  0
 45 43  1  0  0  0  0
 46 47  1  0  0  0  0
 48 49  1  0  0  0  0
 50 47  1  0  0  0  0
 50 48  2  0  0  0  0
 51 56  1  6  0  0  0
 51 48  1  0  0  0  0
 51 52  1  0  0  0  0
 52 54  1  0  0  0  0
 52 53  2  0  0  0  0
 55 56  2  0  0  0  0
 57 59  1  0  0  0  0
 59 58  1  0  0  0  0
 59 56  1  0  0  0  0
 60 59  1  0  0  0  0
 61 60  1  0  0  0  0
M  END
>  <MODEL>
3

>  <REMARK>
 VINA RESULT:      -6.9      3.272      9.386
  Name = 
  19 active torsions:
  status: ('A' for Active; 'I' for Inactive)
    1  A    between atoms: C_1  and  C_59
    2  A    between atoms: C_5  and  O_6
    3  A    between atoms: O_6  and  C_53
    4  A    between atoms: C_13  and  O_43
    5  A    between atoms: C_22  and  C_27
    6  A    between atoms: C_22  and  C_61
    7  A    between atoms: C_28  and  O_52
    8  A    between atoms: C_28  and  C_54
    9  A    between atoms: C_30  and  C_59
   10  A    between atoms: O_31  and  C_57
   11  A    between atoms: C_40  and  C_41
   12  A    between atoms: C_40  and  C_57
   13  A    between atoms: C_41  and  C_56
   14  A    between atoms: O_43  and  C_48
   15  A    between atoms: C_44  and  C_53
   16  A    between atoms: C_44  and  C_54
   17  A    between atoms: C_48  and  O_52
   18  A    between atoms: C_51  and  C_57
   19  A    between atoms: C_59  and  C_61
                            x       y       z     vdW  Elec       q    Type
                         _______ _______ _______ _____ _____    ______ ____

>  <TORSDO>
F 19

$$$$
=
 OpenBabel11042413153D

 61 65  0  0  1  0  0  0  0  0999 V2000
  186.4380  177.4750  144.5720 C   0  0  0  0  0  2  0  0  0  0  0  0
  187.6010  179.0020  141.1690 C   0  0  1  0  0  3  0  0  0  0  0  0
  187.2710  177.9810  143.4140 C   0  0  0  0  0  0  0  0  0  0  0  0
  188.9090  177.1450  138.4100 O   0  0  0  0  0  0  0  0  0  0  0  0
  188.2270  178.2880  138.8410 C   0  0  2  0  0  3  0  0  0  0  0  0
  192.3240  176.9490  140.2290 N   0  0  0  0  0  2  0  0  0  0  0  0
  190.8360  177.5280  142.0740 C   0  0  0  0  0  0  0  0  0  0  0  0
  187.3930  177.9560  140.0750 C   0  0  0  0  0  2  0  0  0  0  0  0
  189.2000  176.4860  144.2990 C   0  0  0  0  0  1  0  0  0  0  0  0
  185.4240  178.4800  145.0920 C   0  0  0  0  0  2  0  0  0  0  0  0
  186.7480  178.6970  142.3740 C   0  0  0  0  0  0  0  0  0  0  0  0
  189.4950  178.0410  142.3930 C   0  0  0  0  0  0  0  0  0  0  0  0
  191.7500  177.1370  143.0530 O   0  0  0  0  0  1  0  0  0  0  0  0
  192.4040  176.7100  138.8190 C   0  0  0  0  0  0  0  0  0  0  0  0
  184.1140  178.3720  144.3260 C   0  0  0  0  0  2  0  0  0  0  0  0
  188.9710  179.0170  141.5400 O   0  0  0  0  0  0  0  0  0  0  0  0
  190.1820  177.5850  138.0180 C   0  0  0  0  0  2  0  0  0  0  0  0
  188.7010  177.5400  143.3550 C   0  0  0  0  0  0  0  0  0  0  0  0
  191.1030  177.4220  140.7800 C   0  0  0  0  0  3  0  0  0  0  0  0
  193.5400  176.7170  138.2720 O   0  0  0  0  0  0  0  0  0  0  0  0
  185.3640  179.2890  142.3580 C   0  0  0  0  0  2  0  0  0  0  0  0
  191.1540  176.4040  138.0020 C   0  0  1  0  0  3  0  0  0  0  0  0
  184.2990  178.3060  142.8090 C   0  0  0  0  0  2  0  0  0  0  0  0
  187.3800  178.7440  137.8240 O   0  0  0  0  0  0  0  0  0  0  0  0
  186.5950  177.6370  137.4780 C   0  0  2  0  0  3  0  0  0  0  0  0
  186.8930  177.2440  136.1690 O   0  0  0  0  0  1  0  0  0  0  0  0
  185.2470  177.9850  137.5630 O   0  0  0  0  0  0  0  0  0  0  0  0
  184.5550  176.7940  137.3330 C   0  0  0  0  0  2  0  0  0  0  0  0
  182.3080  177.5270  136.8790 O   0  0  0  0  0  1  0  0  0  0  0  0
  183.1180  176.8950  137.8270 C   0  0  1  0  0  3  0  0  0  0  0  0
  181.5230  175.7200  139.1660 O   0  0  0  0  0  1  0  0  0  0  0  0
  182.5500  175.5370  138.2380 C   0  0  1  0  0  3  0  0  0  0  0  0
  182.0270  174.7450  137.0500 C   0  0  0  0  0  2  0  0  0  0  0  0
  182.3480  173.3890  137.2040 O   0  0  0  0  0  0  0  0  0  0  0  0
  183.6120  173.1860  136.6200 C   0  0  1  0  0  0  0  0  0  0  0  0
  184.1270  171.7740  136.5140 C   0  0  2  0  0  0  0  0  0  0  0  0
  184.8600  171.6750  135.1880 C   0  0  2  0  0  3  0  0  0  0  0  0
  186.1160  171.0970  135.3770 O   0  0  0  0  0  1  0  0  0  0  0  0
  183.1770  170.6730  136.9540 C   0  0  0  0  0  1  0  0  0  0  0  0
  184.0800  174.0010  135.4240 C   0  0  0  0  0  2  0  0  0  0  0  0
  184.6760  172.7040  137.5920 C   0  0  0  0  0  2  0  0  0  0  0  0
  185.0160  173.0920  134.6350 C   0  0  0  0  0  2  0  0  0  0  0  0
  191.4600  175.9830  136.5470 C   0  0  2  0  0  3  0  0  0  0  0  0
  189.7220  174.9090  135.5050 C   0  0  0  0  0  1  0  0  0  0  0  0
  190.9310  174.7210  136.1940 O   0  0  0  0  0  0  0  0  0  0  0  0
  192.9350  176.1630  136.1450 C   0  0  0  0  0  2  0  0  0  0  0  0
  193.3610  175.0210  135.2400 C   0  0  0  0  0  2  0  0  0  0  0  0
  194.5720  173.3060  136.5360 C   0  0  0  0  0  0  0  0  0  0  0  0
  193.3560  172.7260  136.8920 O   0  0  0  0  0  1  0  0  0  0  0  0
  194.6070  174.3980  135.7730 C   0  0  0  0  0  3  0  0  0  0  0  0
  195.8600  172.7040  137.0050 C   0  0  2  0  0  3  0  0  0  0  0  0
  195.7060  171.2560  137.3740 C   0  0  0  0  0  0  0  0  0  0  0  0
  195.3950  170.9290  138.5110 O   0  0  0  0  0  0  0  0  0  0  0  0
  195.9220  170.2100  136.3360 C   0  0  0  0  0  1  0  0  0  0  0  0
  195.9390  173.5960  139.1940 O   0  0  0  0  0  0  0  0  0  0  0  0
  196.4990  173.5140  138.1050 C   0  0  0  0  0  0  0  0  0  0  0  0
  197.6500  175.2400  136.9760 F   0  0  0  0  0  0  0  0  0  0  0  0
  198.2200  174.7720  139.1110 F   0  0  0  0  0  0  0  0  0  0  0  0
  197.8200  174.2230  137.9040 C   0  0  0  0  0  0  0  0  0  0  0  0
  198.9150  173.2800  137.4050 C   0  0  0  0  0  2  0  0  0  0  0  0
  199.1760  173.5050  136.0500 O   0  0  0  0  0  1  0  0  0  0  0  0
  1 10  1  0  0  0  0
  2  8  1  6  0  0  0
  2 16  1  0  0  0  0
  2 11  1  0  0  0  0
  3  1  1  0  0  0  0
  4  5  1  0  0  0  0
  5 24  1  6  0  0  0
  5  8  1  0  0  0  0
  6 19  1  0  0  0  0
  7 12  1  0  0  0  0
  7 13  1  0  0  0  0
 11  3  2  0  0  0  0
 12 18  2  0  0  0  0
 14  6  1  0  0  0  0
 15 10  1  0  0  0  0
 16 12  1  0  0  0  0
 17  4  1  0  0  0  0
 18  3  1  0  0  0  0
 18  9  1  0  0  0  0
 19  7  2  0  0  0  0
 20 14  2  0  0  0  0
 21 11  1  0  0  0  0
 21 23  1  0  0  0  0
 22 43  1  6  0  0  0
 22 17  1  0  0  0  0
 22 14  1  0  0  0  0
 23 15  1  0  0  0  0
 25 26  1  6  0  0  0
 25 27  1  0  0  0  0
 25 24  1  0  0  0  0
 28 27  1  0  0  0  0
 28 30  1  0  0  0  0
 30 29  1  6  0  0  0
 30 32  1  0  0  0  0
 32 31  1  1  0  0  0
 33 34  1  0  0  0  0
 33 32  1  0  0  0  0
 35 34  1  1  0  0  0
 35 41  1  0  0  0  0
 36 35  1  0  0  0  0
 36 39  1  1  0  0  0
 36 41  1  0  0  0  0
 37 38  1  1  0  0  0
 37 36  1  0  0  0  0
 40 35  1  0  0  0  0
 42 37  1  0  0  0  0
 42 40  1  0  0  0  0
 43 46  1  1  0  0  0
 44 45  1  0  0  0  0
 45 43  1  0  0  0  0
 47 50  1  0  0  0  0
 47 46  1  0  0  0  0
 48 49  1  0  0  0  0
 50 48  2  0  0  0  0
 51 48  1  1  0  0  0
 51 52  1  0  0  0  0
 51 56  1  0  0  0  0
 52 53  2  0  0  0  0
 54 52  1  0  0  0  0
 56 55  2  0  0  0  0
 57 59  1  0  0  0  0
 59 56  1  0  0  0  0
 59 58  1  0  0  0  0
 60 59  1  0  0  0  0
 61 60  1  0  0  0  0
M  END
>  <MODEL>
4

>  <REMARK>
 VINA RESULT:      -6.7      1.812      3.355
  Name = 
  19 active torsions:
  status: ('A' for Active; 'I' for Inactive)
    1  A    between atoms: C_1  and  C_59
    2  A    between atoms: C_5  and  O_6
    3  A    between atoms: O_6  and  C_53
    4  A    between atoms: C_13  and  O_43
    5  A    between atoms: C_22  and  C_27
    6  A    between atoms: C_22  and  C_61
    7  A    between atoms: C_28  and  O_52
    8  A    between atoms: C_28  and  C_54
    9  A    between atoms: C_30  and  C_59
   10  A    between atoms: O_31  and  C_57
   11  A    between atoms: C_40  and  C_41
   12  A    between atoms: C_40  and  C_57
   13  A    between atoms: C_41  and  C_56
   14  A    between atoms: O_43  and  C_48
   15  A    between atoms: C_44  and  C_53
   16  A    between atoms: C_44  and  C_54
   17  A    between atoms: C_48  and  O_52
   18  A    between atoms: C_51  and  C_57
   19  A    between atoms: C_59  and  C_61
                            x       y       z     vdW  Elec       q    Type
                         _______ _______ _______ _____ _____    ______ ____

>  <TORSDO>
F 19

$$$$
=
 OpenBabel11042413153D

 61 65  0  0  1  0  0  0  0  0999 V2000
  184.2990  170.4350  135.9560 C   0  0  0  0  0  2  0  0  0  0  0  0
  184.4520  174.3240  135.6190 C   0  0  1  0  0  3  0  0  0  0  0  0
  183.9530  171.9090  135.9420 C   0  0  0  0  0  0  0  0  0  0  0  0
  184.5110  176.6350  138.3460 O   0  0  0  0  0  0  0  0  0  0  0  0
  184.8650  176.3730  137.0170 C   0  0  2  0  0  3  0  0  0  0  0  0
  180.6860  176.1720  138.7490 N   0  0  0  0  0  2  0  0  0  0  0  0
  181.2650  174.2030  137.4310 C   0  0  0  0  0  0  0  0  0  0  0  0
  185.1670  174.8870  136.8470 C   0  0  0  0  0  2  0  0  0  0  0  0
  181.9680  171.3380  137.5160 C   0  0  0  0  0  1  0  0  0  0  0  0
  184.9330  169.9350  134.6690 C   0  0  0  0  0  2  0  0  0  0  0  0
  184.7810  172.8660  135.4270 C   0  0  0  0  0  0  0  0  0  0  0  0
  182.3200  173.6110  136.5940 C   0  0  0  0  0  0  0  0  0  0  0  0
  180.0760  173.5400  137.7330 O   0  0  0  0  0  1  0  0  0  0  0  0
  181.1920  177.3690  139.3530 C   0  0  0  0  0  0  0  0  0  0  0  0
  186.4430  170.1140  134.7040 C   0  0  0  0  0  2  0  0  0  0  0  0
  183.0520  174.4850  135.7850 O   0  0  0  0  0  0  0  0  0  0  0  0
  183.4650  177.5670  138.2860 C   0  0  0  0  0  2  0  0  0  0  0  0
  182.7080  172.3260  136.6620 C   0  0  0  0  0  0  0  0  0  0  0  0
  181.5430  175.4050  137.9160 C   0  0  0  0  0  3  0  0  0  0  0  0
  180.3710  178.2540  139.7150 O   0  0  0  0  0  0  0  0  0  0  0  0
  186.0010  172.5780  134.5940 C   0  0  0  0  0  2  0  0  0  0  0  0
  182.6850  177.5530  139.6010 C   0  0  1  0  0  3  0  0  0  0  0  0
  186.8810  171.4970  135.1930 C   0  0  0  0  0  2  0  0  0  0  0  0
  186.0020  177.1150  136.6770 O   0  0  0  0  0  0  0  0  0  0  0  0
  187.0880  176.3230  137.0730 C   0  0  2  0  0  3  0  0  0  0  0  0
  187.6550  176.8560  138.2350 O   0  0  0  0  0  1  0  0  0  0  0  0
  188.0400  176.3060  136.0540 O   0  0  0  0  0  0  0  0  0  0  0  0
  188.8770  175.2320  136.3660 C   0  0  0  0  0  2  0  0  0  0  0  0
  190.5350  176.9620  136.5990 O   0  0  0  0  0  1  0  0  0  0  0  0
  190.3420  175.6270  136.2300 C   0  0  1  0  0  3  0  0  0  0  0  0
  190.5100  173.7260  137.6690 O   0  0  0  0  0  1  0  0  0  0  0  0
  191.2690  174.6890  137.0020 C   0  0  1  0  0  3  0  0  0  0  0  0
  192.2810  174.0020  136.0980 C   0  0  0  0  0  2  0  0  0  0  0  0
  193.3240  173.4710  136.8700 O   0  0  0  0  0  0  0  0  0  0  0  0
  194.3620  174.4210  136.8890 C   0  0  1  0  0  0  0  0  0  0  0  0
  195.6950  174.0050  137.4530 C   0  0  2  0  0  0  0  0  0  0  0  0
  196.7580  174.6730  136.5990 C   0  0  2  0  0  3  0  0  0  0  0  0
  197.6950  175.3120  137.4120 O   0  0  0  0  0  1  0  0  0  0  0  0
  195.8340  172.5470  137.8580 C   0  0  0  0  0  1  0  0  0  0  0  0
  194.5650  175.4050  135.7470 C   0  0  0  0  0  2  0  0  0  0  0  0
  194.7590  174.8810  138.2820 C   0  0  0  0  0  2  0  0  0  0  0  0
  196.0610  175.6970  135.7030 C   0  0  0  0  0  2  0  0  0  0  0  0
  183.0180  178.8110  140.4340 C   0  0  2  0  0  3  0  0  0  0  0  0
  183.1330  180.5460  138.9370 C   0  0  0  0  0  1  0  0  0  0  0  0
  183.8880  179.7150  139.7810 O   0  0  0  0  0  0  0  0  0  0  0  0
  183.4300  178.5050  141.8840 C   0  0  0  0  0  2  0  0  0  0  0  0
  184.6380  179.3440  142.2620 C   0  0  0  0  0  2  0  0  0  0  0  0
  186.7150  178.1310  142.8110 C   0  0  0  0  0  0  0  0  0  0  0  0
  187.1790  178.3520  141.5150 O   0  0  0  0  0  1  0  0  0  0  0  0
  185.5150  178.5720  143.1880 C   0  0  0  0  0  3  0  0  0  0  0  0
  187.5660  177.3990  143.8010 C   0  0  2  0  0  3  0  0  0  0  0  0
  187.2010  177.7330  145.2190 C   0  0  0  0  0  0  0  0  0  0  0  0
  186.1490  178.3000  145.4780 O   0  0  0  0  0  0  0  0  0  0  0  0
  188.1280  177.3540  146.3210 C   0  0  0  0  0  1  0  0  0  0  0  0
  189.5490  178.6830  143.6890 O   0  0  0  0  0  0  0  0  0  0  0  0
  189.0380  177.5790  143.5270 C   0  0  0  0  0  0  0  0  0  0  0  0
  190.9280  176.2390  143.9840 F   0  0  0  0  0  0  0  0  0  0  0  0
  189.1330  175.2830  143.0010 F   0  0  0  0  0  0  0  0  0  0  0  0
  189.9070  176.4300  143.0650 C   0  0  0  0  0  0  0  0  0  0  0  0
  190.5250  176.6860  141.6900 C   0  0  0  0  0  2  0  0  0  0  0  0
  191.8250  177.1850  141.8220 O   0  0  0  0  0  1  0  0  0  0  0  0
  2 16  1  0  0  0  0
  2  8  1  1  0  0  0
  3  1  1  0  0  0  0
  3 18  1  0  0  0  0
  5 24  1  1  0  0  0
  5  4  1  0  0  0  0
  6 14  1  0  0  0  0
  7 13  1  0  0  0  0
  7 19  2  0  0  0  0
  8  5  1  0  0  0  0
 10 15  1  0  0  0  0
 10  1  1  0  0  0  0
 11  2  1  0  0  0  0
 11  3  2  0  0  0  0
 12 18  2  0  0  0  0
 12  7  1  0  0  0  0
 14 22  1  0  0  0  0
 14 20  2  0  0  0  0
 15 23  1  0  0  0  0
 16 12  1  0  0  0  0
 17  4  1  0  0  0  0
 17 22  1  0  0  0  0
 18  9  1  0  0  0  0
 19  6  1  0  0  0  0
 21 23  1  0  0  0  0
 21 11  1  0  0  0  0
 22 43  1  6  0  0  0
 24 25  1  0  0  0  0
 25 26  1  1  0  0  0
 27 28  1  0  0  0  0
 27 25  1  0  0  0  0
 30 28  1  0  0  0  0
 30 29  1  1  0  0  0
 30 32  1  0  0  0  0
 32 31  1  6  0  0  0
 33 34  1  0  0  0  0
 33 32  1  0  0  0  0
 35 34  1  6  0  0  0
 35 36  1  0  0  0  0
 35 41  1  0  0  0  0
 36 39  1  1  0  0  0
 36 41  1  0  0  0  0
 37 38  1  1  0  0  0
 37 36  1  0  0  0  0
 40 35  1  0  0  0  0
 42 40  1  0  0  0  0
 42 37  1  0  0  0  0
 43 46  1  1  0  0  0
 44 45  1  0  0  0  0
 45 43  1  0  0  0  0
 46 47  1  0  0  0  0
 47 50  1  0  0  0  0
 48 50  2  0  0  0  0
 49 48  1  0  0  0  0
 51 48  1  6  0  0  0
 51 52  1  0  0  0  0
 52 53  2  0  0  0  0
 52 54  1  0  0  0  0
 56 55  2  0  0  0  0
 56 51  1  0  0  0  0
 58 59  1  0  0  0  0
 59 56  1  0  0  0  0
 59 57  1  0  0  0  0
 60 61  1  0  0  0  0
 60 59  1  0  0  0  0
M  END
>  <MODEL>
5

>  <REMARK>
 VINA RESULT:      -6.6      3.414     10.719
  Name = 
  19 active torsions:
  status: ('A' for Active; 'I' for Inactive)
    1  A    between atoms: C_1  and  C_59
    2  A    between atoms: C_5  and  O_6
    3  A    between atoms: O_6  and  C_53
    4  A    between atoms: C_13  and  O_43
    5  A    between atoms: C_22  and  C_27
    6  A    between atoms: C_22  and  C_61
    7  A    between atoms: C_28  and  O_52
    8  A    between atoms: C_28  and  C_54
    9  A    between atoms: C_30  and  C_59
   10  A    between atoms: O_31  and  C_57
   11  A    between atoms: C_40  and  C_41
   12  A    between atoms: C_40  and  C_57
   13  A    between atoms: C_41  and  C_56
   14  A    between atoms: O_43  and  C_48
   15  A    between atoms: C_44  and  C_53
   16  A    between atoms: C_44  and  C_54
   17  A    between atoms: C_48  and  O_52
   18  A    between atoms: C_51  and  C_57
   19  A    between atoms: C_59  and  C_61
                            x       y       z     vdW  Elec       q    Type
                         _______ _______ _______ _____ _____    ______ ____

>  <TORSDO>
F 19

$$$$
=
 OpenBabel11042413153D

 61 65  0  0  1  0  0  0  0  0999 V2000
  179.5500  176.1230  137.3350 C   0  0  0  0  0  2  0  0  0  0  0  0
  182.1660  178.7670  138.5320 C   0  0  1  0  0  3  0  0  0  0  0  0
  180.3160  177.1500  138.1420 C   0  0  0  0  0  0  0  0  0  0  0  0
  184.6940  178.2040  140.9970 O   0  0  0  0  0  0  0  0  0  0  0  0
  184.2970  178.9170  139.8590 C   0  0  2  0  0  3  0  0  0  0  0  0
  182.0180  178.6470  143.7630 N   0  0  0  0  0  2  0  0  0  0  0  0
  180.6160  178.2220  141.8120 C   0  0  0  0  0  0  0  0  0  0  0  0
  183.4310  178.0290  138.9700 C   0  0  0  0  0  2  0  0  0  0  0  0
  179.1670  176.1740  140.2560 C   0  0  0  0  0  1  0  0  0  0  0  0
  179.1890  176.5800  135.9320 C   0  0  0  0  0  2  0  0  0  0  0  0
  181.3300  177.9040  137.6210 C   0  0  0  0  0  0  0  0  0  0  0  0
  180.6210  178.1790  140.3420 C   0  0  0  0  0  0  0  0  0  0  0  0
  179.4930  177.9040  142.5750 O   0  0  0  0  0  1  0  0  0  0  0  0
  183.3630  178.8190  144.2250 C   0  0  0  0  0  0  0  0  0  0  0  0
  180.3100  176.2620  134.9540 C   0  0  0  0  0  2  0  0  0  0  0  0
  181.4160  179.1220  139.6830 O   0  0  0  0  0  0  0  0  0  0  0  0
  184.6200  179.1130  142.0620 C   0  0  0  0  0  2  0  0  0  0  0  0
  180.0290  177.2200  139.6100 C   0  0  0  0  0  0  0  0  0  0  0  0
  181.7760  178.5450  142.3670 C   0  0  0  0  0  3  0  0  0  0  0  0
  183.5470  179.3290  145.3630 O   0  0  0  0  0  0  0  0  0  0  0  0
  181.6500  178.0060  136.1540 C   0  0  0  0  0  2  0  0  0  0  0  0
  184.5470  178.3520  143.3870 C   0  0  1  0  0  3  0  0  0  0  0  0
  181.6970  176.6530  135.4680 C   0  0  0  0  0  2  0  0  0  0  0  0
  185.4260  179.3250  139.1400 O   0  0  0  0  0  0  0  0  0  0  0  0
  186.0660  178.1390  138.7600 C   0  0  2  0  0  3  0  0  0  0  0  0
  187.1030  177.8590  139.6560 O   0  0  0  0  0  1  0  0  0  0  0  0
  186.5890  178.2910  137.4760 O   0  0  0  0  0  0  0  0  0  0  0  0
  187.8110  177.6150  137.5060 C   0  0  0  0  0  2  0  0  0  0  0  0
  188.8890  178.3260  135.4750 O   0  0  0  0  0  1  0  0  0  0  0  0
  188.2620  177.2430  136.0990 C   0  0  1  0  0  3  0  0  0  0  0  0
  189.4950  175.6550  137.3930 O   0  0  0  0  0  1  0  0  0  0  0  0
  189.1450  175.9950  136.0850 C   0  0  1  0  0  3  0  0  0  0  0  0
  188.4630  174.8120  135.4180 C   0  0  0  0  0  2  0  0  0  0  0  0
  187.0720  174.9920  135.4370 O   0  0  0  0  0  0  0  0  0  0  0  0
  186.5000  173.8070  135.9370 C   0  0  1  0  0  0  0  0  0  0  0  0
  185.2390  173.9180  136.7530 C   0  0  2  0  0  0  0  0  0  0  0  0
  184.3730  172.7260  136.3830 C   0  0  2  0  0  3  0  0  0  0  0  0
  183.9200  172.0860  137.5370 O   0  0  0  0  0  1  0  0  0  0  0  0
  184.6310  175.3050  136.8750 C   0  0  0  0  0  1  0  0  0  0  0  0
  186.4790  172.5240  135.1210 C   0  0  0  0  0  2  0  0  0  0  0  0
  186.5750  173.6690  137.4480 C   0  0  0  0  0  2  0  0  0  0  0  0
  185.2290  171.7670  135.5540 C   0  0  0  0  0  2  0  0  0  0  0  0
  185.8980  178.4420  144.1300 C   0  0  2  0  0  3  0  0  0  0  0  0
  187.4840  177.4750  142.7830 C   0  0  0  0  0  1  0  0  0  0  0  0
  186.7250  177.3080  143.9530 O   0  0  0  0  0  0  0  0  0  0  0  0
  185.7720  178.8840  145.5980 C   0  0  0  0  0  2  0  0  0  0  0  0
  186.3790  177.8270  146.5050 C   0  0  0  0  0  2  0  0  0  0  0  0
  188.7530  177.2640  146.8710 C   0  0  0  0  0  0  0  0  0  0  0  0
  188.5630  177.3900  148.2470 O   0  0  0  0  0  1  0  0  0  0  0  0
  187.7470  177.4800  146.0240 C   0  0  0  0  0  3  0  0  0  0  0  0
  190.0930  176.8770  146.3280 C   0  0  2  0  0  3  0  0  0  0  0  0
  191.1470  176.8380  147.3970 C   0  0  0  0  0  0  0  0  0  0  0  0
  191.4540  177.8490  148.0110 O   0  0  0  0  0  0  0  0  0  0  0  0
  191.8140  175.5460  147.7190 C   0  0  0  0  0  1  0  0  0  0  0  0
  190.2490  178.9310  145.1670 O   0  0  0  0  0  0  0  0  0  0  0  0
  190.4960  177.7290  145.1510 C   0  0  0  0  0  0  0  0  0  0  0  0
  191.9950  178.1240  143.3700 F   0  0  0  0  0  0  0  0  0  0  0  0
  192.0170  176.1030  144.3780 F   0  0  0  0  0  0  0  0  0  0  0  0
  191.2070  177.1430  143.9510 C   0  0  0  0  0  0  0  0  0  0  0  0
  190.2310  176.6090  142.9020 C   0  0  0  0  0  2  0  0  0  0  0  0
  190.4730  175.2540  142.6530 O   0  0  0  0  0  1  0  0  0  0  0  0
  1  3  1  0  0  0  0
  2  8  1  1  0  0  0
  2 16  1  0  0  0  0
  3 18  1  0  0  0  0
  4 17  1  0  0  0  0
  5 24  1  6  0  0  0
  5  4  1  0  0  0  0
  6 14  1  0  0  0  0
  7 19  2  0  0  0  0
  7 13  1  0  0  0  0
  8  5  1  0  0  0  0
 10  1  1  0  0  0  0
 11  3  2  0  0  0  0
 11  2  1  0  0  0  0
 12  7  1  0  0  0  0
 14 20  2  0  0  0  0
 15 23  1  0  0  0  0
 15 10  1  0  0  0  0
 16 12  1  0  0  0  0
 17 22  1  0  0  0  0
 18  9  1  0  0  0  0
 18 12  2  0  0  0  0
 19  6  1  0  0  0  0
 21 11  1  0  0  0  0
 22 43  1  1  0  0  0
 22 14  1  0  0  0  0
 23 21  1  0  0  0  0
 25 24  1  0  0  0  0
 25 26  1  1  0  0  0
 27 28  1  0  0  0  0
 27 25  1  0  0  0  0
 30 29  1  1  0  0  0
 30 28  1  0  0  0  0
 32 30  1  0  0  0  0
 32 31  1  1  0  0  0
 33 34  1  0  0  0  0
 33 32  1  0  0  0  0
 35 34  1  6  0  0  0
 35 36  1  0  0  0  0
 35 41  1  0  0  0  0
 36 39  1  1  0  0  0
 36 41  1  0  0  0  0
 37 36  1  0  0  0  0
 37 38  1  1  0  0  0
 40 42  1  0  0  0  0
 40 35  1  0  0  0  0
 42 37  1  0  0  0  0
 43 46  1  1  0  0  0
 44 45  1  0  0  0  0
 45 43  1  0  0  0  0
 46 47  1  0  0  0  0
 48 49  1  0  0  0  0
 50 47  1  0  0  0  0
 50 48  2  0  0  0  0
 51 56  1  6  0  0  0
 51 48  1  0  0  0  0
 51 52  1  0  0  0  0
 52 54  1  0  0  0  0
 52 53  2  0  0  0  0
 56 55  2  0  0  0  0
 57 59  1  0  0  0  0
 59 58  1  0  0  0  0
 59 56  1  0  0  0  0
 60 59  1  0  0  0  0
 61 60  1  0  0  0  0
M  END
>  <MODEL>
6

>  <REMARK>
 VINA RESULT:      -6.4      4.335      9.017
  Name = 
  19 active torsions:
  status: ('A' for Active; 'I' for Inactive)
    1  A    between atoms: C_1  and  C_59
    2  A    between atoms: C_5  and  O_6
    3  A    between atoms: O_6  and  C_53
    4  A    between atoms: C_13  and  O_43
    5  A    between atoms: C_22  and  C_27
    6  A    between atoms: C_22  and  C_61
    7  A    between atoms: C_28  and  O_52
    8  A    between atoms: C_28  and  C_54
    9  A    between atoms: C_30  and  C_59
   10  A    between atoms: O_31  and  C_57
   11  A    between atoms: C_40  and  C_41
   12  A    between atoms: C_40  and  C_57
   13  A    between atoms: C_41  and  C_56
   14  A    between atoms: O_43  and  C_48
   15  A    between atoms: C_44  and  C_53
   16  A    between atoms: C_44  and  C_54
   17  A    between atoms: C_48  and  O_52
   18  A    between atoms: C_51  and  C_57
   19  A    between atoms: C_59  and  C_61
                            x       y       z     vdW  Elec       q    Type
                         _______ _______ _______ _____ _____    ______ ____

>  <TORSDO>
F 19

$$$$
=
 OpenBabel11042413153D

 61 65  0  0  1  0  0  0  0  0999 V2000
  189.2730  178.1880  146.3390 C   0  0  0  0  0  2  0  0  0  0  0  0
  187.9790  176.9080  142.8820 C   0  0  1  0  0  3  0  0  0  0  0  0
  188.3970  177.7320  145.1920 C   0  0  0  0  0  0  0  0  0  0  0  0
  186.3490  178.9140  140.4130 O   0  0  0  0  0  0  0  0  0  0  0  0
  187.1390  177.7910  140.6820 C   0  0  2  0  0  3  0  0  0  0  0  0
  183.0690  178.6710  142.4600 N   0  0  0  0  0  2  0  0  0  0  0  0
  184.7220  178.0360  144.1370 C   0  0  0  0  0  0  0  0  0  0  0  0
  188.0340  178.0660  141.8870 C   0  0  0  0  0  2  0  0  0  0  0  0
  186.4360  178.9830  146.3460 C   0  0  0  0  0  1  0  0  0  0  0  0
  190.3900  177.2200  146.6890 C   0  0  0  0  0  2  0  0  0  0  0  0
  188.8930  177.1610  144.0530 C   0  0  0  0  0  0  0  0  0  0  0  0
  186.1150  177.5990  144.3160 C   0  0  0  0  0  0  0  0  0  0  0  0
  183.8560  178.2600  145.2080 O   0  0  0  0  0  1  0  0  0  0  0  0
  182.8700  179.0370  141.0890 C   0  0  0  0  0  0  0  0  0  0  0  0
  191.6310  177.5000  145.8540 C   0  0  0  0  0  2  0  0  0  0  0  0
  186.6440  176.7520  143.3370 O   0  0  0  0  0  0  0  0  0  0  0  0
  185.0850  178.4170  140.0620 C   0  0  0  0  0  2  0  0  0  0  0  0
  186.9390  178.0660  145.2700 C   0  0  0  0  0  0  0  0  0  0  0  0
  184.3560  178.2440  142.8810 C   0  0  0  0  0  3  0  0  0  0  0  0
  181.7020  178.9950  140.6190 O   0  0  0  0  0  0  0  0  0  0  0  0
  190.3100  176.6820  143.8880 C   0  0  0  0  0  2  0  0  0  0  0  0
  184.0330  179.5150  140.2270 C   0  0  1  0  0  3  0  0  0  0  0  0
  191.3330  177.6960  144.3660 C   0  0  0  0  0  2  0  0  0  0  0  0
  187.9400  177.5000  139.5720 O   0  0  0  0  0  0  0  0  0  0  0  0
  189.0420  178.3580  139.6820 C   0  0  2  0  0  3  0  0  0  0  0  0
  189.0520  179.2450  138.6000 O   0  0  0  0  0  1  0  0  0  0  0  0
  190.2140  177.6030  139.6750 O   0  0  0  0  0  0  0  0  0  0  0  0
  190.1920  176.9200  138.4570 C   0  0  0  0  0  2  0  0  0  0  0  0
  192.4990  176.7000  139.1060 O   0  0  0  0  0  1  0  0  0  0  0  0
  191.5820  176.4180  138.0890 C   0  0  1  0  0  3  0  0  0  0  0  0
  190.2700  174.4750  137.6240 O   0  0  0  0  0  1  0  0  0  0  0  0
  191.5850  174.9340  137.7230 C   0  0  1  0  0  3  0  0  0  0  0  0
  192.3190  174.6600  136.4200 C   0  0  0  0  0  2  0  0  0  0  0  0
  193.6910  174.8940  136.5900 O   0  0  0  0  0  0  0  0  0  0  0  0
  194.3510  173.6600  136.4410 C   0  0  1  0  0  0  0  0  0  0  0  0
  195.3640  173.2660  137.4840 C   0  0  2  0  0  0  0  0  0  0  0  0
  195.2190  171.7690  137.6910 C   0  0  2  0  0  3  0  0  0  0  0  0
  196.4700  171.1530  137.6270 O   0  0  0  0  0  1  0  0  0  0  0  0
  195.5060  174.1990  138.6760 C   0  0  0  0  0  1  0  0  0  0  0  0
  193.6290  172.4240  135.9260 C   0  0  0  0  0  2  0  0  0  0  0  0
  195.8320  173.7810  136.1260 C   0  0  0  0  0  2  0  0  0  0  0  0
  194.3150  171.2310  136.5810 C   0  0  0  0  0  2  0  0  0  0  0  0
  183.5950  180.0480  138.8460 C   0  0  2  0  0  3  0  0  0  0  0  0
  181.8090  181.3570  138.2450 C   0  0  0  0  0  1  0  0  0  0  0  0
  183.0620  181.3570  138.8810 O   0  0  0  0  0  0  0  0  0  0  0  0
  182.7340  179.0580  138.0420 C   0  0  0  0  0  2  0  0  0  0  0  0
  183.6320  178.1240  137.2500 C   0  0  0  0  0  2  0  0  0  0  0  0
  182.5110  176.1030  136.3860 C   0  0  0  0  0  0  0  0  0  0  0  0
  182.2610  176.7640  135.1840 O   0  0  0  0  0  1  0  0  0  0  0  0
  183.1400  176.7220  137.3840 C   0  0  0  0  0  3  0  0  0  0  0  0
  182.0790  174.6820  136.5670 C   0  0  2  0  0  3  0  0  0  0  0  0
  180.7910  174.5740  137.3330 C   0  0  0  0  0  0  0  0  0  0  0  0
  180.6130  173.6690  138.1350 O   0  0  0  0  0  0  0  0  0  0  0  0
  179.7280  175.5960  137.1220 C   0  0  0  0  0  1  0  0  0  0  0  0
  183.7270  174.1880  138.1900 O   0  0  0  0  0  0  0  0  0  0  0  0
  183.1730  173.8260  137.1560 C   0  0  0  0  0  0  0  0  0  0  0  0
  183.9370  171.6190  137.5030 F   0  0  0  0  0  0  0  0  0  0  0  0
  182.5400  172.0240  135.7750 F   0  0  0  0  0  0  0  0  0  0  0  0
  183.6000  172.5270  136.5100 C   0  0  0  0  0  0  0  0  0  0  0  0
  184.8020  172.7090  135.5820 C   0  0  0  0  0  2  0  0  0  0  0  0
  185.5410  173.8370  135.9530 O   0  0  0  0  0  1  0  0  0  0  0  0
  1 10  1  0  0  0  0
  2  8  1  6  0  0  0
  2 16  1  0  0  0  0
  2 11  1  0  0  0  0
  3 18  1  0  0  0  0
  3  1  1  0  0  0  0
  4  5  1  0  0  0  0
  5 24  1  6  0  0  0
  5  8  1  0  0  0  0
  6 19  1  0  0  0  0
  7 12  1  0  0  0  0
  7 13  1  0  0  0  0
 11  3  2  0  0  0  0
 12 18  2  0  0  0  0
 14  6  1  0  0  0  0
 15 10  1  0  0  0  0
 16 12  1  0  0  0  0
 17 22  1  0  0  0  0
 17  4  1  0  0  0  0
 18  9  1  0  0  0  0
 19  7  2  0  0  0  0
 20 14  2  0  0  0  0
 21 11  1  0  0  0  0
 21 23  1  0  0  0  0
 22 43  1  6  0  0  0
 22 14  1  0  0  0  0
 23 15  1  0  0  0  0
 24 25  1  0  0  0  0
 25 26  1  6  0  0  0
 27 25  1  0  0  0  0
 28 27  1  0  0  0  0
 30 28  1  0  0  0  0
 30 29  1  1  0  0  0
 32 31  1  6  0  0  0
 32 30  1  0  0  0  0
 33 34  1  0  0  0  0
 33 32  1  0  0  0  0
 35 34  1  1  0  0  0
 35 36  1  0  0  0  0
 36 37  1  0  0  0  0
 36 39  1  1  0  0  0
 37 38  1  6  0  0  0
 40 35  1  0  0  0  0
 40 42  1  0  0  0  0
 41 35  1  0  0  0  0
 41 36  1  0  0  0  0
 42 37  1  0  0  0  0
 43 46  1  1  0  0  0
 43 45  1  0  0  0  0
 44 45  1  0  0  0  0
 47 50  1  0  0  0  0
 47 46  1  0  0  0  0
 48 50  2  0  0  0  0
 49 48  1  0  0  0  0
 51 48  1  1  0  0  0
 51 56  1  0  0  0  0
 51 52  1  0  0  0  0
 52 53  2  0  0  0  0
 54 52  1  0  0  0  0
 56 55  2  0  0  0  0
 58 59  1  0  0  0  0
 59 56  1  0  0  0  0
 59 57  1  0  0  0  0
 60 61  1  0  0  0  0
 60 59  1  0  0  0  0
M  END
>  <MODEL>
7

>  <REMARK>
 VINA RESULT:      -6.4      3.532     10.372
  Name = 
  19 active torsions:
  status: ('A' for Active; 'I' for Inactive)
    1  A    between atoms: C_1  and  C_59
    2  A    between atoms: C_5  and  O_6
    3  A    between atoms: O_6  and  C_53
    4  A    between atoms: C_13  and  O_43
    5  A    between atoms: C_22  and  C_27
    6  A    between atoms: C_22  and  C_61
    7  A    between atoms: C_28  and  O_52
    8  A    between atoms: C_28  and  C_54
    9  A    between atoms: C_30  and  C_59
   10  A    between atoms: O_31  and  C_57
   11  A    between atoms: C_40  and  C_41
   12  A    between atoms: C_40  and  C_57
   13  A    between atoms: C_41  and  C_56
   14  A    between atoms: O_43  and  C_48
   15  A    between atoms: C_44  and  C_53
   16  A    between atoms: C_44  and  C_54
   17  A    between atoms: C_48  and  O_52
   18  A    between atoms: C_51  and  C_57
   19  A    between atoms: C_59  and  C_61
                            x       y       z     vdW  Elec       q    Type
                         _______ _______ _______ _____ _____    ______ ____

>  <TORSDO>
F 19

$$$$
=
 OpenBabel11042413153D

 61 65  0  0  1  0  0  0  0  0999 V2000
  186.4620  177.5080  144.7180 C   0  0  0  0  0  2  0  0  0  0  0  0
  187.4150  178.9540  141.2150 C   0  0  1  0  0  3  0  0  0  0  0  0
  187.2230  177.9920  143.5010 C   0  0  0  0  0  0  0  0  0  0  0  0
  188.5940  177.0360  138.4390 O   0  0  0  0  0  0  0  0  0  0  0  0
  187.9210  178.1820  138.8760 C   0  0  2  0  0  3  0  0  0  0  0  0
  192.1060  176.9330  140.0710 N   0  0  0  0  0  0  0  0  0  0  0  0
  190.7140  177.5450  141.9790 C   0  0  1  0  0  3  0  0  0  0  0  0
  187.1610  177.8750  140.1630 C   0  0  0  0  0  2  0  0  0  0  0  0
  189.2180  176.5460  144.3190 C   0  0  0  0  0  1  0  0  0  0  0  0
  185.4640  178.5150  145.2650 C   0  0  0  0  0  2  0  0  0  0  0  0
  186.6330  178.6730  142.4730 C   0  0  0  0  0  0  0  0  0  0  0  0
  189.3860  178.0510  142.3580 C   0  0  0  0  0  0  0  0  0  0  0  0
  191.6860  177.1930  142.9160 O   0  0  0  0  0  1  0  0  0  0  0  0
  192.1120  176.6560  138.6660 C   0  0  0  0  0  0  0  0  0  0  0  0
  184.1150  178.3700  144.5760 C   0  0  0  0  0  2  0  0  0  0  0  0
  188.8030  178.9960  141.5090 O   0  0  0  0  0  0  0  0  0  0  0  0
  189.8370  177.4800  137.9650 C   0  0  0  0  0  2  0  0  0  0  0  0
  188.6530  177.5670  143.3750 C   0  0  0  0  0  0  0  0  0  0  0  0
  190.9110  177.4060  140.6760 C   0  0  0  0  0  3  0  0  0  0  0  0
  193.2160  176.6610  138.0570 O   0  0  0  0  0  0  0  0  0  0  0  0
  185.2430  179.2460  142.5170 C   0  0  0  0  0  2  0  0  0  0  0  0
  190.8240  176.3120  137.9270 C   0  0  1  0  0  3  0  0  0  0  0  0
  184.2180  178.2640  143.0530 C   0  0  0  0  0  2  0  0  0  0  0  0
  187.0130  178.5990  137.8950 O   0  0  0  0  0  0  0  0  0  0  0  0
  185.9870  177.6470  137.9180 C   0  0  2  0  0  3  0  0  0  0  0  0
  186.2090  176.6970  136.9160 O   0  0  0  0  0  1  0  0  0  0  0  0
  184.7660  178.2830  137.6950 O   0  0  0  0  0  0  0  0  0  0  0  0
  184.3260  178.6650  138.9650 C   0  0  0  0  0  2  0  0  0  0  0  0
  182.3170  178.8780  137.6570 O   0  0  0  0  0  1  0  0  0  0  0  0
  182.8500  179.0430  138.9380 C   0  0  1  0  0  3  0  0  0  0  0  0
  181.3210  179.1930  140.7690 O   0  0  0  0  0  1  0  0  0  0  0  0
  182.0390  178.2850  139.9890 C   0  0  1  0  0  3  0  0  0  0  0  0
  181.0820  177.2810  139.3670 C   0  0  0  0  0  2  0  0  0  0  0  0
  181.6120  175.9870  139.4810 O   0  0  0  0  0  0  0  0  0  0  0  0
  180.9190  175.1660  138.5720 C   0  0  1  0  0  0  0  0  0  0  0  0
  181.7020  174.5220  137.4580 C   0  0  2  0  0  0  0  0  0  0  0  0
  181.1210  173.1330  137.2620 C   0  0  2  0  0  3  0  0  0  0  0  0
  180.8560  172.9110  135.9090 O   0  0  0  0  0  1  0  0  0  0  0  0
  183.2060  174.7340  137.4780 C   0  0  0  0  0  1  0  0  0  0  0  0
  179.8020  174.2380  139.0250 C   0  0  0  0  0  2  0  0  0  0  0  0
  180.8230  175.7360  137.1670 C   0  0  0  0  0  2  0  0  0  0  0  0
  179.8240  173.0510  138.0680 C   0  0  0  0  0  2  0  0  0  0  0  0
  191.0550  175.8540  136.4710 C   0  0  2  0  0  3  0  0  0  0  0  0
  189.6890  174.1750  137.2310 C   0  0  0  0  0  1  0  0  0  0  0  0
  190.5470  174.5650  136.1890 O   0  0  0  0  0  0  0  0  0  0  0  0
  192.4950  176.0660  135.9730 C   0  0  0  0  0  2  0  0  0  0  0  0
  192.9470  174.8530  135.1790 C   0  0  0  0  0  2  0  0  0  0  0  0
  194.9370  174.1250  136.4430 C   0  0  0  0  0  0  0  0  0  0  0  0
  195.6360  175.2340  135.9680 O   0  0  0  0  0  1  0  0  0  0  0  0
  193.6740  173.9090  136.0760 C   0  0  0  0  0  3  0  0  0  0  0  0
  195.5980  173.1620  137.3790 C   0  0  2  0  0  3  0  0  0  0  0  0
  196.5310  173.8510  138.3330 C   0  0  0  0  0  0  0  0  0  0  0  0
  196.1250  174.2930  139.3980 O   0  0  0  0  0  0  0  0  0  0  0  0
  197.9730  173.9800  137.9800 C   0  0  0  0  0  1  0  0  0  0  0  0
  196.9710  172.2630  135.6760 O   0  0  0  0  0  0  0  0  0  0  0  0
  196.2600  172.0220  136.6470 C   0  0  0  0  0  0  0  0  0  0  0  0
  197.3240  169.9780  137.1640 F   0  0  0  0  0  0  0  0  0  0  0  0
  195.4860  170.5710  138.3360 F   0  0  0  0  0  0  0  0  0  0  0  0
  196.0790  170.5850  137.0840 C   0  0  0  0  0  0  0  0  0  0  0  0
  195.2050  169.7890  136.1150 C   0  0  0  0  0  2  0  0  0  0  0  0
  193.8800  170.2340  136.1730 O   0  0  0  0  0  1  0  0  0  0  0  0
  1 10  1  0  0  0  0
  2  8  1  6  0  0  0
  2 16  1  0  0  0  0
  2 11  1  0  0  0  0
  3  1  1  0  0  0  0
  4  5  1  0  0  0  0
  5 24  1  6  0  0  0
  5  8  1  0  0  0  0
  6 19  2  0  0  0  0
  7 12  1  0  0  0  0
  7 13  1  1  0  0  0
 11 21  1  0  0  0  0
 11  3  2  0  0  0  0
 12 18  2  0  0  0  0
 14  6  1  0  0  0  0
 15 10  1  0  0  0  0
 16 12  1  0  0  0  0
 17  4  1  0  0  0  0
 18  3  1  0  0  0  0
 18  9  1  0  0  0  0
 19  7  1  0  0  0  0
 20 14  2  0  0  0  0
 21 23  1  0  0  0  0
 22 43  1  6  0  0  0
 22 17  1  0  0  0  0
 22 14  1  0  0  0  0
 23 15  1  0  0  0  0
 24 25  1  0  0  0  0
 25 26  1  6  0  0  0
 27 25  1  0  0  0  0
 27 28  1  0  0  0  0
 30 29  1  6  0  0  0
 30 28  1  0  0  0  0
 30 32  1  0  0  0  0
 32 31  1  6  0  0  0
 33 34  1  0  0  0  0
 33 32  1  0  0  0  0
 35 40  1  0  0  0  0
 35 34  1  1  0  0  0
 36 39  1  6  0  0  0
 36 35  1  0  0  0  0
 37 38  1  6  0  0  0
 37 36  1  0  0  0  0
 37 42  1  0  0  0  0
 41 36  1  0  0  0  0
 41 35  1  0  0  0  0
 42 40  1  0  0  0  0
 43 46  1  1  0  0  0
 45 43  1  0  0  0  0
 45 44  1  0  0  0  0
 47 46  1  0  0  0  0
 47 50  1  0  0  0  0
 49 48  1  0  0  0  0
 50 48  2  0  0  0  0
 51 48  1  6  0  0  0
 51 52  1  0  0  0  0
 52 53  2  0  0  0  0
 54 52  1  0  0  0  0
 55 56  2  0  0  0  0
 56 59  1  0  0  0  0
 56 51  1  0  0  0  0
 59 57  1  0  0  0  0
 59 58  1  0  0  0  0
 60 61  1  0  0  0  0
 60 59  1  0  0  0  0
M  END
>  <MODEL>
8

>  <REMARK>
 VINA RESULT:      -6.3      1.642      3.223
  Name = 
  19 active torsions:
  status: ('A' for Active; 'I' for Inactive)
    1  A    between atoms: C_1  and  C_59
    2  A    between atoms: C_5  and  O_6
    3  A    between atoms: O_6  and  C_53
    4  A    between atoms: C_13  and  O_43
    5  A    between atoms: C_22  and  C_27
    6  A    between atoms: C_22  and  C_61
    7  A    between atoms: C_28  and  O_52
    8  A    between atoms: C_28  and  C_54
    9  A    between atoms: C_30  and  C_59
   10  A    between atoms: O_31  and  C_57
   11  A    between atoms: C_40  and  C_41
   12  A    between atoms: C_40  and  C_57
   13  A    between atoms: C_41  and  C_56
   14  A    between atoms: O_43  and  C_48
   15  A    between atoms: C_44  and  C_53
   16  A    between atoms: C_44  and  C_54
   17  A    between atoms: C_48  and  O_52
   18  A    between atoms: C_51  and  C_57
   19  A    between atoms: C_59  and  C_61
                            x       y       z     vdW  Elec       q    Type
                         _______ _______ _______ _____ _____    ______ ____

>  <TORSDO>
F 19

$$$$
=
 OpenBabel11042413153D

 61 65  0  0  1  0  0  0  0  0999 V2000
  186.7600  171.1190  135.7510 C   0  0  0  0  0  2  0  0  0  0  0  0
  186.1620  174.9660  135.4130 C   0  0  1  0  0  3  0  0  0  0  0  0
  186.1250  172.4910  135.6670 C   0  0  0  0  0  0  0  0  0  0  0  0
  185.2880  177.1650  138.0920 O   0  0  0  0  0  0  0  0  0  0  0  0
  185.9050  177.0170  136.8450 C   0  0  2  0  0  3  0  0  0  0  0  0
  181.6280  175.9190  137.8500 N   0  0  0  0  0  2  0  0  0  0  0  0
  182.8120  174.1460  136.6630 C   0  0  0  0  0  0  0  0  0  0  0  0
  186.5300  175.6290  136.7390 C   0  0  0  0  0  2  0  0  0  0  0  0
  184.0670  171.4840  136.8890 C   0  0  0  0  0  1  0  0  0  0  0  0
  187.6890  170.7940  134.5940 C   0  0  0  0  0  2  0  0  0  0  0  0
  186.8120  173.6110  135.2910 C   0  0  0  0  0  0  0  0  0  0  0  0
  184.0900  173.8050  136.0210 C   0  0  0  0  0  0  0  0  0  0  0  0
  181.7520  173.2450  136.7660 O   0  0  0  0  0  1  0  0  0  0  0  0
  181.7680  177.1770  138.5200 C   0  0  0  0  0  0  0  0  0  0  0  0
  189.1030  171.2790  134.8810 C   0  0  0  0  0  2  0  0  0  0  0  0
  184.7510  174.8320  135.3390 O   0  0  0  0  0  0  0  0  0  0  0  0
  184.0970  177.8640  137.8500 C   0  0  0  0  0  2  0  0  0  0  0  0
  184.7180  172.6250  136.1630 C   0  0  0  0  0  0  0  0  0  0  0  0
  182.7510  175.3660  137.1790 C   0  0  0  0  0  3  0  0  0  0  0  0
  180.7340  177.8640  138.7320 O   0  0  0  0  0  0  0  0  0  0  0  0
  188.1860  173.6020  134.6780 C   0  0  0  0  0  2  0  0  0  0  0  0
  183.1290  177.6560  139.0150 C   0  0  1  0  0  3  0  0  0  0  0  0
  189.1580  172.7080  135.4260 C   0  0  0  0  0  2  0  0  0  0  0  0
  186.9050  177.9850  136.6950 O   0  0  0  0  0  0  0  0  0  0  0  0
  187.8940  177.6350  137.6230 C   0  0  2  0  0  3  0  0  0  0  0  0
  188.0460  178.6680  138.5540 O   0  0  0  0  0  1  0  0  0  0  0  0
  189.1000  177.4300  136.9540 O   0  0  0  0  0  0  0  0  0  0  0  0
  189.7260  176.3960  137.6540 C   0  0  0  0  0  2  0  0  0  0  0  0
  191.6060  176.8640  139.0810 O   0  0  0  0  0  1  0  0  0  0  0  0
  191.2260  176.6370  137.7550 C   0  0  1  0  0  3  0  0  0  0  0  0
  192.0040  175.6300  135.7310 O   0  0  0  0  0  1  0  0  0  0  0  0
  192.0380  175.5070  137.1210 C   0  0  1  0  0  3  0  0  0  0  0  0
  193.4820  175.4970  137.5950 C   0  0  0  0  0  2  0  0  0  0  0  0
  193.9360  174.1740  137.7060 O   0  0  0  0  0  0  0  0  0  0  0  0
  195.3010  174.1660  137.3610 C   0  0  1  0  0  0  0  0  0  0  0  0
  195.9630  172.8350  137.1170 C   0  0  2  0  0  0  0  0  0  0  0  0
  196.9350  173.0360  135.9670 C   0  0  2  0  0  3  0  0  0  0  0  0
  198.1860  172.5130  136.3010 O   0  0  0  0  0  1  0  0  0  0  0  0
  195.0610  171.6120  137.1600 C   0  0  0  0  0  1  0  0  0  0  0  0
  195.8990  175.2200  136.4420 C   0  0  0  0  0  2  0  0  0  0  0  0
  196.2080  173.5770  138.4270 C   0  0  0  0  0  2  0  0  0  0  0  0
  197.0500  174.5390  135.7110 C   0  0  0  0  0  2  0  0  0  0  0  0
  183.0520  178.9320  139.8810 C   0  0  2  0  0  3  0  0  0  0  0  0
  182.4230  180.8860  138.8570 C   0  0  0  0  0  1  0  0  0  0  0  0
  183.5230  180.0950  139.2290 O   0  0  0  0  0  0  0  0  0  0  0  0
  183.6190  178.7550  141.3010 C   0  0  0  0  0  2  0  0  0  0  0  0
  185.0890  178.3840  141.2230 C   0  0  0  0  0  2  0  0  0  0  0  0
  186.9360  178.2420  142.8520 C   0  0  0  0  0  0  0  0  0  0  0  0
  187.8510  178.4650  141.8240 O   0  0  0  0  0  1  0  0  0  0  0  0
  185.6290  178.1820  142.5980 C   0  0  0  0  0  3  0  0  0  0  0  0
  187.4130  178.0740  144.2610 C   0  0  2  0  0  3  0  0  0  0  0  0
  188.5360  177.0830  144.3640 C   0  0  0  0  0  0  0  0  0  0  0  0
  189.0390  176.8160  145.4470 O   0  0  0  0  0  0  0  0  0  0  0  0
  189.0300  176.4070  143.1320 C   0  0  0  0  0  1  0  0  0  0  0  0
  185.9690  176.5940  145.4100 O   0  0  0  0  0  0  0  0  0  0  0  0
  186.2820  177.7640  145.2100 C   0  0  0  0  0  0  0  0  0  0  0  0
  185.4060  179.9530  145.0880 F   0  0  0  0  0  0  0  0  0  0  0  0
  184.2620  178.3910  146.2510 F   0  0  0  0  0  0  0  0  0  0  0  0
  185.5260  178.8580  145.9300 C   0  0  0  0  0  0  0  0  0  0  0  0
  186.2280  179.3000  147.2140 C   0  0  0  0  0  2  0  0  0  0  0  0
  187.0420  178.2730  147.7050 O   0  0  0  0  0  1  0  0  0  0  0  0
  2  8  1  1  0  0  0
  3  1  1  0  0  0  0
  3 18  1  0  0  0  0
  5 24  1  1  0  0  0
  5  4  1  0  0  0  0
  6 14  1  0  0  0  0
  7 13  1  0  0  0  0
  7 19  2  0  0  0  0
  8  5  1  0  0  0  0
 10 15  1  0  0  0  0
 10  1  1  0  0  0  0
 11  2  1  0  0  0  0
 11  3  2  0  0  0  0
 12 18  2  0  0  0  0
 12  7  1  0  0  0  0
 14 20  2  0  0  0  0
 14 22  1  0  0  0  0
 15 23  1  0  0  0  0
 16  2  1  0  0  0  0
 16 12  1  0  0  0  0
 17  4  1  0  0  0  0
 17 22  1  0  0  0  0
 18  9  1  0  0  0  0
 19  6  1  0  0  0  0
 21 11  1  0  0  0  0
 21 23  1  0  0  0  0
 22 43  1  6  0  0  0
 24 25  1  0  0  0  0
 25 26  1  1  0  0  0
 27 25  1  0  0  0  0
 27 28  1  0  0  0  0
 28 30  1  0  0  0  0
 30 29  1  1  0  0  0
 32 31  1  6  0  0  0
 32 33  1  0  0  0  0
 32 30  1  0  0  0  0
 33 34  1  0  0  0  0
 35 34  1  1  0  0  0
 35 41  1  0  0  0  0
 36 39  1  1  0  0  0
 36 35  1  0  0  0  0
 36 41  1  0  0  0  0
 37 38  1  1  0  0  0
 37 36  1  0  0  0  0
 40 35  1  0  0  0  0
 42 37  1  0  0  0  0
 42 40  1  0  0  0  0
 43 46  1  1  0  0  0
 44 45  1  0  0  0  0
 45 43  1  0  0  0  0
 47 46  1  0  0  0  0
 47 50  1  0  0  0  0
 49 48  1  0  0  0  0
 50 48  2  0  0  0  0
 51 48  1  6  0  0  0
 51 52  1  0  0  0  0
 51 56  1  0  0  0  0
 52 53  2  0  0  0  0
 54 52  1  0  0  0  0
 56 55  2  0  0  0  0
 56 59  1  0  0  0  0
 57 59  1  0  0  0  0
 59 58  1  0  0  0  0
 59 60  1  0  0  0  0
 60 61  1  0  0  0  0
M  END
>  <MODEL>
9

>  <REMARK>
 VINA RESULT:      -6.3      4.073     11.400
  Name = 
  19 active torsions:
  status: ('A' for Active; 'I' for Inactive)
    1  A    between atoms: C_1  and  C_59
    2  A    between atoms: C_5  and  O_6
    3  A    between atoms: O_6  and  C_53
    4  A    between atoms: C_13  and  O_43
    5  A    between atoms: C_22  and  C_27
    6  A    between atoms: C_22  and  C_61
    7  A    between atoms: C_28  and  O_52
    8  A    between atoms: C_28  and  C_54
    9  A    between atoms: C_30  and  C_59
   10  A    between atoms: O_31  and  C_57
   11  A    between atoms: C_40  and  C_41
   12  A    between atoms: C_40  and  C_57
   13  A    between atoms: C_41  and  C_56
   14  A    between atoms: O_43  and  C_48
   15  A    between atoms: C_44  and  C_53
   16  A    between atoms: C_44  and  C_54
   17  A    between atoms: C_48  and  O_52
   18  A    between atoms: C_51  and  C_57
   19  A    between atoms: C_59  and  C_61
                            x       y       z     vdW  Elec       q    Type
                         _______ _______ _______ _____ _____    ______ ____

>  <TORSDO>
F 19

$$$$
