=
 OpenBabel11042410013D

 38 42  0  0  1  0  0  0  0  0999 V2000
  190.3280  177.4800  141.1960 C   0  0  2  0  0  3  0  0  0  0  0  0
  189.3170  177.0390  142.2430 C   0  0  0  0  0  2  0  0  0  0  0  0
  188.2130  177.9280  142.2460 O   0  0  0  0  0  0  0  0  0  0  0  0
  184.3250  178.8010  144.7140 C   0  0  0  0  0  0  0  0  0  0  0  0
  185.9330  178.1670  142.9510 C   0  0  0  0  0  2  0  0  0  0  0  0
  187.6000  178.0580  146.7370 C   0  0  0  0  0  3  0  0  0  0  0  0
  183.5340  179.5980  143.8390 N   0  0  0  0  0  1  0  0  0  0  0  0
  184.3520  179.1170  146.1210 N   0  0  0  0  0  0  0  0  0  0  0  0
  186.1850  177.5820  146.5750 C   0  0  0  0  0  0  0  0  0  0  0  0
  187.1990  177.8440  143.1980 C   0  0  1  0  0  3  0  0  0  0  0  0
  185.2300  177.9560  144.2200 C   0  0  0  0  0  0  0  0  0  0  0  0
  187.3480  177.3910  144.5840 C   0  0  1  0  0  3  0  0  0  0  0  0
  185.1920  178.6040  146.9420 N   0  0  0  0  0  0  0  0  0  0  0  0
  188.2700  177.9180  145.5890 C   0  0  0  0  0  3  0  0  0  0  0  0
  186.1630  177.3170  145.1190 C   0  0  0  0  0  0  0  0  0  0  0  0
  190.2110  176.6640  139.9030 C   0  0  0  0  0  2  0  0  0  0  0  0
  190.1050  177.5020  138.6250 C   0  0  2  0  0  3  0  0  0  0  0  0
  188.9670  179.3640  137.6500 O   0  0  0  0  0  1  0  0  0  0  0  0
  189.0750  178.6010  138.8130 C   0  0  0  0  0  2  0  0  0  0  0  0
  189.7920  176.6860  137.4490 N   0  0  0  0  0  2  0  0  0  0  0  0
  193.2500  175.7770  137.1670 C   0  0  0  0  0  0  0  0  0  0  0  0
  194.1040  176.8710  137.1440 O   0  0  0  0  0  1  0  0  0  0  0  0
  190.7380  176.1170  136.5340 C   0  0  0  0  0  3  0  0  0  0  0  0
  191.9940  175.9480  136.8450 C   0  0  0  0  0  0  0  0  0  0  0  0
  193.7980  174.4390  137.5870 C   0  0  2  0  0  3  0  0  0  0  0  0
  195.8560  173.3400  138.1410 N   0  0  0  0  0  0  0  0  0  0  0  0
  197.2180  173.8070  137.9640 C   0  0  0  0  0  1  0  0  0  0  0  0
  195.0460  174.5090  138.4460 C   0  0  0  0  0  2  0  0  0  0  0  0
  194.2150  173.6390  136.3850 C   0  0  0  0  0  2  0  0  0  0  0  0
  195.4070  172.8290  136.8480 C   0  0  0  0  0  2  0  0  0  0  0  0
  191.7400  177.4570  141.7600 C   0  0  0  0  0  2  0  0  0  0  0  0
  191.7040  177.0610  143.1590 N   0  0  0  0  0  2  0  0  0  0  0  0
  191.7820  178.0120  144.2230 C   0  0  0  0  0  0  0  0  0  0  0  0
  191.6950  177.5860  145.5810 N   0  0  0  0  0  2  0  0  0  0  0  0
  191.9400  179.2360  143.9700 O   0  0  0  0  0  0  0  0  0  0  0  0
  191.4630  176.1970  145.9400 C   0  0  0  0  0  3  0  0  0  0  0  0
  192.3090  175.8470  147.1500 C   0  0  0  0  0  2  0  0  0  0  0  0
  190.8300  176.1330  147.3140 C   0  0  0  0  0  2  0  0  0  0  0  0
  1 16  1  6  0  0  0
  1 31  1  0  0  0  0
  1  2  1  0  0  0  0
  2  3  1  0  0  0  0
  4  8  1  0  0  0  0
  5 10  1  0  0  0  0
  5 11  1  0  0  0  0
  7  4  1  0  0  0  0
  8 13  2  0  0  0  0
  9  6  1  0  0  0  0
  9 13  1  0  0  0  0
 10  3  1  6  0  0  0
 10 12  1  0  0  0  0
 11  4  2  0  0  0  0
 11 15  1  0  0  0  0
 12 15  1  0  0  0  0
 12 14  1  1  0  0  0
 14  6  2  0  0  0  0
 15  9  2  0  0  0  0
 17 19  1  1  0  0  0
 17 16  1  0  0  0  0
 18 19  1  0  0  0  0
 20 17  1  0  0  0  0
 22 21  1  0  0  0  0
 23 24  2  0  0  0  0
 23 20  1  0  0  0  0
 24 21  2  0  0  0  0
 25 21  1  6  0  0  0
 25 28  1  0  0  0  0
 26 28  1  0  0  0  0
 27 26  1  0  0  0  0
 29 30  1  0  0  0  0
 29 25  1  0  0  0  0
 30 26  1  0  0  0  0
 31 32  1  0  0  0  0
 32 33  1  0  0  0  0
 33 34  1  0  0  0  0
 34 36  1  0  0  0  0
 35 33  2  0  0  0  0
 36 37  1  0  0  0  0
 36 38  1  0  0  0  0
 37 38  1  0  0  0  0
M  END
>  <MODEL>
1

>  <REMARK>
 VINA RESULT:      -9.0      0.000      0.000
  Name = 
  12 active torsions:
  status: ('A' for Active; 'I' for Inactive)
    1  A    between atoms: C_2  and  N_23
    2  A    between atoms: N_3  and  C_36
    3  A    between atoms: C_4  and  C_14
    4  A    between atoms: C_4  and  O_15
    5  A    between atoms: N_8  and  CA_19
    6  A    between atoms: N_8  and  C_37
    7  A    between atoms: C_11  and  C_21
    8  A    between atoms: C_14  and  C_32
    9  A    between atoms: C_14  and  C_36
   10  A    between atoms: O_15  and  C_18
   11  A    between atoms: CA_19  and  C_26
   12  A    between atoms: CA_19  and  C_32
                            x       y       z     vdW  Elec       q    Type
                         _______ _______ _______ _____ _____    ______ ____

>  <TORSDO>
F 12

$$$$
=
 OpenBabel11042410013D

 38 42  0  0  1  0  0  0  0  0999 V2000
  188.8550  177.2430  140.4190 C   0  0  2  0  0  3  0  0  0  0  0  0
  190.2460  177.1350  141.0240 C   0  0  0  0  0  2  0  0  0  0  0  0
  190.2190  176.2490  142.1310 O   0  0  0  0  0  0  0  0  0  0  0  0
  191.3350  176.5190  146.6760 C   0  0  0  0  0  0  0  0  0  0  0  0
  191.3990  176.4620  144.2080 C   0  0  0  0  0  2  0  0  0  0  0  0
  187.6560  177.4370  145.6780 C   0  0  0  0  0  3  0  0  0  0  0  0
  192.4120  175.6000  146.8190 N   0  0  0  0  0  1  0  0  0  0  0  0
  190.3410  176.6030  147.7160 N   0  0  0  0  0  0  0  0  0  0  0  0
  188.8580  177.9990  146.3810 C   0  0  0  0  0  0  0  0  0  0  0  0
  190.3390  176.7030  143.4430 C   0  0  1  0  0  3  0  0  0  0  0  0
  191.0920  177.0910  145.4960 C   0  0  0  0  0  0  0  0  0  0  0  0
  189.3530  177.5040  144.1760 C   0  0  1  0  0  3  0  0  0  0  0  0
  189.2310  177.2310  147.5810 N   0  0  0  0  0  0  0  0  0  0  0  0
  187.9450  177.1800  144.3990 C   0  0  0  0  0  3  0  0  0  0  0  0
  189.8770  177.8500  145.3170 C   0  0  0  0  0  0  0  0  0  0  0  0
  188.8180  176.7480  138.9690 C   0  0  0  0  0  2  0  0  0  0  0  0
  190.1880  176.6530  138.2900 C   0  0  2  0  0  3  0  0  0  0  0  0
  189.2120  178.2580  136.8120 O   0  0  0  0  0  1  0  0  0  0  0  0
  190.0970  177.1810  136.8700 C   0  0  0  0  0  2  0  0  0  0  0  0
  190.7260  175.2900  138.3090 N   0  0  0  0  0  2  0  0  0  0  0  0
  194.1340  175.2340  137.1920 C   0  0  0  0  0  0  0  0  0  0  0  0
  194.5430  176.4310  136.6210 O   0  0  0  0  0  1  0  0  0  0  0  0
  191.5790  174.7000  137.3200 C   0  0  0  0  0  3  0  0  0  0  0  0
  192.8550  174.9660  137.2510 C   0  0  0  0  0  0  0  0  0  0  0  0
  195.1770  174.2990  137.7450 C   0  0  2  0  0  3  0  0  0  0  0  0
  196.8590  174.1560  139.4490 N   0  0  0  0  0  0  0  0  0  0  0  0
  197.3960  175.2050  140.2940 C   0  0  0  0  0  1  0  0  0  0  0  0
  195.4560  174.4700  139.2260 C   0  0  0  0  0  2  0  0  0  0  0  0
  196.5050  174.5410  137.0840 C   0  0  0  0  0  2  0  0  0  0  0  0
  197.5340  174.2580  138.1570 C   0  0  0  0  0  2  0  0  0  0  0  0
  188.3110  178.6560  140.5550 C   0  0  0  0  0  2  0  0  0  0  0  0
  187.1380  178.6510  141.4150 N   0  0  0  0  0  2  0  0  0  0  0  0
  185.8190  178.8620  140.9070 C   0  0  0  0  0  0  0  0  0  0  0  0
  184.6910  178.8020  141.7770 N   0  0  0  0  0  2  0  0  0  0  0  0
  185.6420  179.1150  139.6850 O   0  0  0  0  0  0  0  0  0  0  0  0
  184.8200  178.4660  143.1850 C   0  0  0  0  0  3  0  0  0  0  0  0
  184.5870  179.7110  144.0180 C   0  0  0  0  0  2  0  0  0  0  0  0
  183.4900  178.6770  143.8750 C   0  0  0  0  0  2  0  0  0  0  0  0
  1 16  1  6  0  0  0
  1 31  1  0  0  0  0
  1  2  1  0  0  0  0
  2  3  1  0  0  0  0
  4  7  1  0  0  0  0
  4  8  1  0  0  0  0
  5 11  1  0  0  0  0
  6  9  1  0  0  0  0
  9 13  1  0  0  0  0
 10  3  1  6  0  0  0
 10 12  1  0  0  0  0
 10  5  1  0  0  0  0
 11  4  2  0  0  0  0
 12 14  1  1  0  0  0
 12 15  1  0  0  0  0
 13  8  2  0  0  0  0
 14  6  2  0  0  0  0
 15 11  1  0  0  0  0
 15  9  2  0  0  0  0
 17 19  1  6  0  0  0
 17 20  1  0  0  0  0
 17 16  1  0  0  0  0
 18 19  1  0  0  0  0
 21 24  2  0  0  0  0
 22 21  1  0  0  0  0
 23 20  1  0  0  0  0
 24 23  2  0  0  0  0
 25 21  1  6  0  0  0
 25 28  1  0  0  0  0
 26 27  1  0  0  0  0
 28 26  1  0  0  0  0
 29 25  1  0  0  0  0
 29 30  1  0  0  0  0
 30 26  1  0  0  0  0
 31 32  1  0  0  0  0
 33 32  1  0  0  0  0
 33 34  1  0  0  0  0
 34 36  1  0  0  0  0
 35 33  2  0  0  0  0
 36 38  1  0  0  0  0
 36 37  1  0  0  0  0
 38 37  1  0  0  0  0
M  END
>  <MODEL>
2

>  <REMARK>
 VINA RESULT:      -8.9      1.931      4.659
  Name = 
  12 active torsions:
  status: ('A' for Active; 'I' for Inactive)
    1  A    between atoms: C_2  and  N_23
    2  A    between atoms: N_3  and  C_36
    3  A    between atoms: C_4  and  C_14
    4  A    between atoms: C_4  and  O_15
    5  A    between atoms: N_8  and  CA_19
    6  A    between atoms: N_8  and  C_37
    7  A    between atoms: C_11  and  C_21
    8  A    between atoms: C_14  and  C_32
    9  A    between atoms: C_14  and  C_36
   10  A    between atoms: O_15  and  C_18
   11  A    between atoms: CA_19  and  C_26
   12  A    between atoms: CA_19  and  C_32
                            x       y       z     vdW  Elec       q    Type
                         _______ _______ _______ _____ _____    ______ ____

>  <TORSDO>
F 12

$$$$
=
 OpenBabel11042410013D

 38 42  0  0  1  0  0  0  0  0999 V2000
  190.2470  177.7800  141.3690 C   0  0  2  0  0  3  0  0  0  0  0  0
  189.1360  176.9460  141.9870 C   0  0  0  0  0  2  0  0  0  0  0  0
  187.9100  177.6560  141.9150 O   0  0  0  0  0  0  0  0  0  0  0  0
  184.4040  178.9140  144.7620 C   0  0  0  0  0  0  0  0  0  0  0  0
  185.7490  178.0890  142.8630 C   0  0  0  0  0  2  0  0  0  0  0  0
  187.8380  178.0310  146.4340 C   0  0  0  0  0  3  0  0  0  0  0  0
  183.5710  179.7260  143.9410 N   0  0  0  0  0  1  0  0  0  0  0  0
  184.6170  179.2910  146.1370 N   0  0  0  0  0  0  0  0  0  0  0  0
  186.3860  177.6500  146.4600 C   0  0  0  0  0  0  0  0  0  0  0  0
  187.0110  177.6870  142.9800 C   0  0  1  0  0  3  0  0  0  0  0  0
  185.1880  177.9850  144.2130 C   0  0  0  0  0  0  0  0  0  0  0  0
  187.2920  177.2880  144.3630 C   0  0  1  0  0  3  0  0  0  0  0  0
  185.5120  178.7570  146.8830 N   0  0  0  0  0  0  0  0  0  0  0  0
  188.3590  177.7930  145.2260 C   0  0  0  0  0  3  0  0  0  0  0  0
  186.1750  177.3230  145.0320 C   0  0  0  0  0  0  0  0  0  0  0  0
  190.0870  177.9170  139.8500 C   0  0  0  0  0  2  0  0  0  0  0  0
  189.8270  176.5990  139.1130 C   0  0  2  0  0  3  0  0  0  0  0  0
  191.3040  174.8990  138.3120 O   0  0  0  0  0  1  0  0  0  0  0  0
  191.0130  176.2610  138.2280 C   0  0  0  0  0  2  0  0  0  0  0  0
  188.5850  176.6320  138.3360 N   0  0  0  0  0  2  0  0  0  0  0  0
  185.2620  177.6300  137.4270 C   0  0  0  0  0  0  0  0  0  0  0  0
  184.9070  177.2460  136.1410 O   0  0  0  0  0  1  0  0  0  0  0  0
  187.7960  177.7930  138.0460 C   0  0  0  0  0  3  0  0  0  0  0  0
  186.5310  177.7160  137.7340 C   0  0  0  0  0  0  0  0  0  0  0  0
  184.1720  177.9090  138.4280 C   0  0  2  0  0  3  0  0  0  0  0  0
  181.9710  178.8460  138.5970 N   0  0  0  0  0  0  0  0  0  0  0  0
  181.2290  179.6190  137.6200 C   0  0  0  0  0  1  0  0  0  0  0  0
  182.7670  177.8820  137.8550 C   0  0  0  0  0  2  0  0  0  0  0  0
  184.3180  179.2920  138.9950 C   0  0  0  0  0  2  0  0  0  0  0  0
  182.9020  179.7620  139.2520 C   0  0  0  0  0  2  0  0  0  0  0  0
  191.6130  177.2350  141.7530 C   0  0  0  0  0  2  0  0  0  0  0  0
  191.6260  176.8910  143.1660 N   0  0  0  0  0  2  0  0  0  0  0  0
  191.7960  177.8740  144.1890 C   0  0  0  0  0  0  0  0  0  0  0  0
  191.7550  177.5000  145.5650 N   0  0  0  0  0  2  0  0  0  0  0  0
  191.9970  179.0790  143.8840 O   0  0  0  0  0  0  0  0  0  0  0  0
  191.4780  176.1380  145.9850 C   0  0  0  0  0  3  0  0  0  0  0  0
  192.3450  175.7990  147.1830 C   0  0  0  0  0  2  0  0  0  0  0  0
  190.8850  176.1530  147.3780 C   0  0  0  0  0  2  0  0  0  0  0  0
  1 16  1  6  0  0  0
  1 31  1  0  0  0  0
  1  2  1  0  0  0  0
  3  2  1  0  0  0  0
  4  8  1  0  0  0  0
  5 10  1  0  0  0  0
  5 11  1  0  0  0  0
  6  9  1  0  0  0  0
  7  4  1  0  0  0  0
  8 13  2  0  0  0  0
  9 13  1  0  0  0  0
 10  3  1  6  0  0  0
 10 12  1  0  0  0  0
 11  4  2  0  0  0  0
 11 15  1  0  0  0  0
 12 15  1  0  0  0  0
 12 14  1  1  0  0  0
 14  6  2  0  0  0  0
 15  9  2  0  0  0  0
 17 19  1  6  0  0  0
 17 16  1  0  0  0  0
 19 18  1  0  0  0  0
 20 17  1  0  0  0  0
 21 24  2  0  0  0  0
 22 21  1  0  0  0  0
 23 20  1  0  0  0  0
 24 23  2  0  0  0  0
 25 21  1  6  0  0  0
 25 29  1  0  0  0  0
 26 30  1  0  0  0  0
 27 26  1  0  0  0  0
 28 25  1  0  0  0  0
 28 26  1  0  0  0  0
 29 30  1  0  0  0  0
 31 32  1  0  0  0  0
 32 33  1  0  0  0  0
 33 34  1  0  0  0  0
 34 36  1  0  0  0  0
 35 33  2  0  0  0  0
 36 37  1  0  0  0  0
 36 38  1  0  0  0  0
 37 38  1  0  0  0  0
M  END
>  <MODEL>
3

>  <REMARK>
 VINA RESULT:      -8.8      2.623      6.005
  Name = 
  12 active torsions:
  status: ('A' for Active; 'I' for Inactive)
    1  A    between atoms: C_2  and  N_23
    2  A    between atoms: N_3  and  C_36
    3  A    between atoms: C_4  and  C_14
    4  A    between atoms: C_4  and  O_15
    5  A    between atoms: N_8  and  CA_19
    6  A    between atoms: N_8  and  C_37
    7  A    between atoms: C_11  and  C_21
    8  A    between atoms: C_14  and  C_32
    9  A    between atoms: C_14  and  C_36
   10  A    between atoms: O_15  and  C_18
   11  A    between atoms: CA_19  and  C_26
   12  A    between atoms: CA_19  and  C_32
                            x       y       z     vdW  Elec       q    Type
                         _______ _______ _______ _____ _____    ______ ____

>  <TORSDO>
F 12

$$$$
=
 OpenBabel11042410013D

 38 42  0  0  1  0  0  0  0  0999 V2000
  190.0520  177.2800  141.3750 C   0  0  2  0  0  3  0  0  0  0  0  0
  189.7790  176.3460  142.5440 C   0  0  0  0  0  2  0  0  0  0  0  0
  189.8380  177.0730  143.7600 O   0  0  0  0  0  0  0  0  0  0  0  0
  185.7440  178.6050  145.4530 C   0  0  0  0  0  0  0  0  0  0  0  0
  187.5080  177.5280  144.1020 C   0  0  0  0  0  2  0  0  0  0  0  0
  188.7250  178.2990  147.9820 C   0  0  0  0  0  3  0  0  0  0  0  0
  185.1020  179.1850  144.3230 N   0  0  0  0  0  1  0  0  0  0  0  0
  185.6270  179.2520  146.7360 N   0  0  0  0  0  0  0  0  0  0  0  0
  187.3150  177.8310  147.7650 C   0  0  0  0  0  0  0  0  0  0  0  0
  188.7190  177.2450  144.5730 C   0  0  1  0  0  3  0  0  0  0  0  0
  186.6560  177.6450  145.2890 C   0  0  0  0  0  0  0  0  0  0  0  0
  188.6860  177.1370  146.0350 C   0  0  1  0  0  3  0  0  0  0  0  0
  186.3400  178.9340  147.7530 N   0  0  0  0  0  0  0  0  0  0  0  0
  189.5130  177.8710  146.9910 C   0  0  0  0  0  3  0  0  0  0  0  0
  187.4450  177.2220  146.4210 C   0  0  0  0  0  0  0  0  0  0  0  0
  189.3180  176.8390  140.1030 C   0  0  0  0  0  2  0  0  0  0  0  0
  188.3400  177.8740  139.5370 C   0  0  2  0  0  3  0  0  0  0  0  0
  188.0820  179.2290  137.5850 O   0  0  0  0  0  1  0  0  0  0  0  0
  189.0270  178.6970  138.4630 C   0  0  0  0  0  2  0  0  0  0  0  0
  187.7760  178.7360  140.5790 N   0  0  0  0  0  2  0  0  0  0  0  0
  184.4050  179.1100  139.4130 C   0  0  0  0  0  0  0  0  0  0  0  0
  184.1110  180.3990  138.9920 O   0  0  0  0  0  1  0  0  0  0  0  0
  186.4180  178.7370  141.0370 C   0  0  0  0  0  3  0  0  0  0  0  0
  185.4100  178.9260  140.2300 C   0  0  0  0  0  0  0  0  0  0  0  0
  183.5700  177.9690  138.8950 C   0  0  2  0  0  3  0  0  0  0  0  0
  181.3170  177.4100  138.2940 N   0  0  0  0  0  0  0  0  0  0  0  0
  180.0950  178.1520  138.5380 C   0  0  0  0  0  1  0  0  0  0  0  0
  182.3680  178.3900  138.0710 C   0  0  0  0  0  2  0  0  0  0  0  0
  182.9870  177.1820  140.0340 C   0  0  0  0  0  2  0  0  0  0  0  0
  181.6430  176.7020  139.5300 C   0  0  0  0  0  2  0  0  0  0  0  0
  191.5460  177.4410  141.1450 C   0  0  0  0  0  2  0  0  0  0  0  0
  191.8760  177.0710  139.7780 N   0  0  0  0  0  2  0  0  0  0  0  0
  193.2260  176.9200  139.3330 C   0  0  0  0  0  0  0  0  0  0  0  0
  193.5060  176.5080  137.9970 N   0  0  0  0  0  2  0  0  0  0  0  0
  194.1830  177.1610  140.1170 O   0  0  0  0  0  0  0  0  0  0  0  0
  192.4500  176.1670  137.0590 C   0  0  0  0  0  3  0  0  0  0  0  0
  192.9830  175.1680  136.0500 C   0  0  0  0  0  2  0  0  0  0  0  0
  192.1110  174.6980  137.1970 C   0  0  0  0  0  2  0  0  0  0  0  0
  1 16  1  6  0  0  0
  1  2  1  0  0  0  0
  2  3  1  0  0  0  0
  4  8  1  0  0  0  0
  5 10  1  0  0  0  0
  5 11  1  0  0  0  0
  7  4  1  0  0  0  0
  8 13  2  0  0  0  0
  9  6  1  0  0  0  0
 10  3  1  6  0  0  0
 10 12  1  0  0  0  0
 11  4  2  0  0  0  0
 11 15  1  0  0  0  0
 12 15  1  0  0  0  0
 12 14  1  1  0  0  0
 13  9  1  0  0  0  0
 14  6  2  0  0  0  0
 15  9  2  0  0  0  0
 17 19  1  6  0  0  0
 17 16  1  0  0  0  0
 17 20  1  0  0  0  0
 18 19  1  0  0  0  0
 20 23  1  0  0  0  0
 21 24  2  0  0  0  0
 22 21  1  0  0  0  0
 24 23  2  0  0  0  0
 25 21  1  1  0  0  0
 25 29  1  0  0  0  0
 26 27  1  0  0  0  0
 26 30  1  0  0  0  0
 28 26  1  0  0  0  0
 28 25  1  0  0  0  0
 30 29  1  0  0  0  0
 31  1  1  0  0  0  0
 32 31  1  0  0  0  0
 33 32  1  0  0  0  0
 33 35  2  0  0  0  0
 34 33  1  0  0  0  0
 36 38  1  0  0  0  0
 36 34  1  0  0  0  0
 37 36  1  0  0  0  0
 37 38  1  0  0  0  0
M  END
>  <MODEL>
4

>  <REMARK>
 VINA RESULT:      -8.7      3.027      7.295
  Name = 
  12 active torsions:
  status: ('A' for Active; 'I' for Inactive)
    1  A    between atoms: C_2  and  N_23
    2  A    between atoms: N_3  and  C_36
    3  A    between atoms: C_4  and  C_14
    4  A    between atoms: C_4  and  O_15
    5  A    between atoms: N_8  and  CA_19
    6  A    between atoms: N_8  and  C_37
    7  A    between atoms: C_11  and  C_21
    8  A    between atoms: C_14  and  C_32
    9  A    between atoms: C_14  and  C_36
   10  A    between atoms: O_15  and  C_18
   11  A    between atoms: CA_19  and  C_26
   12  A    between atoms: CA_19  and  C_32
                            x       y       z     vdW  Elec       q    Type
                         _______ _______ _______ _____ _____    ______ ____

>  <TORSDO>
F 12

$$$$
=
 OpenBabel11042410013D

 38 42  0  0  1  0  0  0  0  0999 V2000
  188.8830  177.2680  140.3740 C   0  0  2  0  0  3  0  0  0  0  0  0
  190.2570  177.0900  141.0000 C   0  0  0  0  0  2  0  0  0  0  0  0
  190.1650  176.2170  142.1140 O   0  0  0  0  0  0  0  0  0  0  0  0
  191.3590  176.4930  146.6380 C   0  0  0  0  0  0  0  0  0  0  0  0
  191.3810  176.4330  144.1700 C   0  0  0  0  0  2  0  0  0  0  0  0
  187.6630  177.4070  145.7030 C   0  0  0  0  0  3  0  0  0  0  0  0
  192.4390  175.5750  146.7650 N   0  0  0  0  0  1  0  0  0  0  0  0
  190.3830  176.5780  147.6960 N   0  0  0  0  0  0  0  0  0  0  0  0
  188.8760  177.9710  146.3840 C   0  0  0  0  0  0  0  0  0  0  0  0
  190.3070  176.6720  143.4230 C   0  0  1  0  0  3  0  0  0  0  0  0
  191.0960  177.0640  145.4620 C   0  0  0  0  0  0  0  0  0  0  0  0
  189.3340  177.4730  144.1720 C   0  0  1  0  0  3  0  0  0  0  0  0
  189.2700  177.2050  147.5780 N   0  0  0  0  0  0  0  0  0  0  0  0
  187.9300  177.1480  144.4190 C   0  0  0  0  0  3  0  0  0  0  0  0
  189.8770  177.8210  145.3040 C   0  0  0  0  0  0  0  0  0  0  0  0
  188.8710  176.8750  138.8920 C   0  0  0  0  0  2  0  0  0  0  0  0
  189.8640  177.6470  138.0160 C   0  0  2  0  0  3  0  0  0  0  0  0
  188.7440  179.6290  137.2890 O   0  0  0  0  0  1  0  0  0  0  0  0
  189.1230  178.3470  136.8920 C   0  0  0  0  0  2  0  0  0  0  0  0
  190.9270  176.7870  137.4890 N   0  0  0  0  0  2  0  0  0  0  0  0
  191.4700  173.4570  136.2710 C   0  0  0  0  0  0  0  0  0  0  0  0
  190.3190  172.8600  135.7770 O   0  0  0  0  0  1  0  0  0  0  0  0
  191.2450  175.4610  137.9330 C   0  0  0  0  0  3  0  0  0  0  0  0
  191.3550  174.4570  137.1070 C   0  0  0  0  0  0  0  0  0  0  0  0
  192.8080  172.9470  135.8060 C   0  0  2  0  0  3  0  0  0  0  0  0
  194.1940  170.9900  135.8530 N   0  0  0  0  0  0  0  0  0  0  0  0
  194.0400  169.7800  136.6370 C   0  0  0  0  0  1  0  0  0  0  0  0
  192.8550  171.4560  135.5300 C   0  0  0  0  0  2  0  0  0  0  0  0
  193.8530  173.1640  136.8640 C   0  0  0  0  0  2  0  0  0  0  0  0
  194.8010  171.9930  136.7250 C   0  0  0  0  0  2  0  0  0  0  0  0
  188.3640  178.6800  140.5940 C   0  0  0  0  0  2  0  0  0  0  0  0
  187.1600  178.6390  141.4090 N   0  0  0  0  0  2  0  0  0  0  0  0
  185.8550  178.8030  140.8490 C   0  0  0  0  0  0  0  0  0  0  0  0
  184.6970  178.7090  141.6750 N   0  0  0  0  0  2  0  0  0  0  0  0
  185.7170  179.0450  139.6200 O   0  0  0  0  0  0  0  0  0  0  0  0
  184.7830  178.3840  143.0890 C   0  0  0  0  0  3  0  0  0  0  0  0
  184.6750  179.6590  143.9020 C   0  0  0  0  0  2  0  0  0  0  0  0
  183.4770  178.7420  143.7660 C   0  0  0  0  0  2  0  0  0  0  0  0
  1 16  1  6  0  0  0
  1 31  1  0  0  0  0
  1  2  1  0  0  0  0
  2  3  1  0  0  0  0
  4  7  1  0  0  0  0
  4  8  1  0  0  0  0
  5 11  1  0  0  0  0
  6  9  1  0  0  0  0
  9 13  1  0  0  0  0
 10  3  1  6  0  0  0
 10  5  1  0  0  0  0
 10 12  1  0  0  0  0
 11  4  2  0  0  0  0
 12 14  1  1  0  0  0
 12 15  1  0  0  0  0
 13  8  2  0  0  0  0
 14  6  2  0  0  0  0
 15 11  1  0  0  0  0
 15  9  2  0  0  0  0
 17 19  1  6  0  0  0
 17 16  1  0  0  0  0
 19 18  1  0  0  0  0
 20 23  1  0  0  0  0
 20 17  1  0  0  0  0
 21 24  2  0  0  0  0
 22 21  1  0  0  0  0
 24 23  2  0  0  0  0
 25 21  1  1  0  0  0
 25 29  1  0  0  0  0
 26 27  1  0  0  0  0
 26 30  1  0  0  0  0
 28 25  1  0  0  0  0
 28 26  1  0  0  0  0
 30 29  1  0  0  0  0
 31 32  1  0  0  0  0
 33 32  1  0  0  0  0
 33 34  1  0  0  0  0
 34 36  1  0  0  0  0
 35 33  2  0  0  0  0
 36 38  1  0  0  0  0
 36 37  1  0  0  0  0
 38 37  1  0  0  0  0
M  END
>  <MODEL>
5

>  <REMARK>
 VINA RESULT:      -8.6      2.279      4.875
  Name = 
  12 active torsions:
  status: ('A' for Active; 'I' for Inactive)
    1  A    between atoms: C_2  and  N_23
    2  A    between atoms: N_3  and  C_36
    3  A    between atoms: C_4  and  C_14
    4  A    between atoms: C_4  and  O_15
    5  A    between atoms: N_8  and  CA_19
    6  A    between atoms: N_8  and  C_37
    7  A    between atoms: C_11  and  C_21
    8  A    between atoms: C_14  and  C_32
    9  A    between atoms: C_14  and  C_36
   10  A    between atoms: O_15  and  C_18
   11  A    between atoms: CA_19  and  C_26
   12  A    between atoms: CA_19  and  C_32
                            x       y       z     vdW  Elec       q    Type
                         _______ _______ _______ _____ _____    ______ ____

>  <TORSDO>
F 12

$$$$
=
 OpenBabel11042410013D

 38 42  0  0  1  0  0  0  0  0999 V2000
  189.8070  177.8130  141.5050 C   0  0  2  0  0  3  0  0  0  0  0  0
  188.8760  176.7470  142.0610 C   0  0  0  0  0  2  0  0  0  0  0  0
  187.5350  177.2040  142.0000 O   0  0  0  0  0  0  0  0  0  0  0  0
  186.0360  178.2790  146.3090 C   0  0  0  0  0  0  0  0  0  0  0  0
  187.4150  177.8510  144.3060 C   0  0  0  0  0  2  0  0  0  0  0  0
  183.4640  178.6550  143.3740 C   0  0  0  0  0  3  0  0  0  0  0  0
  186.8700  177.5070  147.1650 N   0  0  0  0  0  1  0  0  0  0  0  0
  184.6380  178.4210  146.6330 N   0  0  0  0  0  0  0  0  0  0  0  0
  184.0990  179.4370  144.4870 C   0  0  0  0  0  0  0  0  0  0  0  0
  186.9300  177.8630  143.0680 C   0  0  1  0  0  3  0  0  0  0  0  0
  186.4620  178.6360  145.0970 C   0  0  0  0  0  0  0  0  0  0  0  0
  185.7020  178.6630  143.0100 C   0  0  1  0  0  3  0  0  0  0  0  0
  183.7720  178.9040  145.8200 N   0  0  0  0  0  0  0  0  0  0  0  0
  184.3960  178.2350  142.5120 C   0  0  0  0  0  3  0  0  0  0  0  0
  185.5300  179.2310  144.1690 C   0  0  0  0  0  0  0  0  0  0  0  0
  189.5980  178.0320  140.0020 C   0  0  0  0  0  2  0  0  0  0  0  0
  189.3600  176.7510  139.1950 C   0  0  2  0  0  3  0  0  0  0  0  0
  191.0990  175.2490  138.5380 O   0  0  0  0  0  1  0  0  0  0  0  0
  190.5390  176.4980  138.2720 C   0  0  0  0  0  2  0  0  0  0  0  0
  188.1040  176.7920  138.4420 N   0  0  0  0  0  2  0  0  0  0  0  0
  184.7620  177.7650  137.5770 C   0  0  0  0  0  0  0  0  0  0  0  0
  184.4170  177.4410  136.2720 O   0  0  0  0  0  1  0  0  0  0  0  0
  187.2900  177.9490  138.2110 C   0  0  0  0  0  3  0  0  0  0  0  0
  186.0280  177.8610  137.8910 C   0  0  0  0  0  0  0  0  0  0  0  0
  183.6640  177.9680  138.5870 C   0  0  2  0  0  3  0  0  0  0  0  0
  181.3830  178.6870  138.7660 N   0  0  0  0  0  0  0  0  0  0  0  0
  180.5530  179.3490  137.7780 C   0  0  0  0  0  1  0  0  0  0  0  0
  182.2610  177.7820  138.0420 C   0  0  0  0  0  2  0  0  0  0  0  0
  183.6800  179.3780  139.1070 C   0  0  0  0  0  2  0  0  0  0  0  0
  182.2280  179.7130  139.3740 C   0  0  0  0  0  2  0  0  0  0  0  0
  191.2560  177.4980  141.8400 C   0  0  0  0  0  2  0  0  0  0  0  0
  191.3680  177.1280  143.2410 N   0  0  0  0  0  2  0  0  0  0  0  0
  191.6360  178.0890  144.2650 C   0  0  0  0  0  0  0  0  0  0  0  0
  191.6900  177.6910  145.6340 N   0  0  0  0  0  2  0  0  0  0  0  0
  191.8390  179.2950  143.9650 O   0  0  0  0  0  0  0  0  0  0  0  0
  191.4160  176.3270  146.0510 C   0  0  0  0  0  3  0  0  0  0  0  0
  192.1070  176.0620  147.3750 C   0  0  0  0  0  2  0  0  0  0  0  0
  190.6200  176.3470  147.3380 C   0  0  0  0  0  2  0  0  0  0  0  0
  1 16  1  6  0  0  0
  1 31  1  0  0  0  0
  1  2  1  0  0  0  0
  3  2  1  0  0  0  0
  4  8  1  0  0  0  0
  4  7  1  0  0  0  0
  5 11  1  0  0  0  0
  6  9  1  0  0  0  0
  9 13  1  0  0  0  0
 10  3  1  6  0  0  0
 10  5  1  0  0  0  0
 11  4  2  0  0  0  0
 12 14  1  1  0  0  0
 12 10  1  0  0  0  0
 12 15  1  0  0  0  0
 13  8  2  0  0  0  0
 14  6  2  0  0  0  0
 15  9  2  0  0  0  0
 15 11  1  0  0  0  0
 17 19  1  6  0  0  0
 17 16  1  0  0  0  0
 19 18  1  0  0  0  0
 20 17  1  0  0  0  0
 21 24  2  0  0  0  0
 22 21  1  0  0  0  0
 23 20  1  0  0  0  0
 24 23  2  0  0  0  0
 25 21  1  6  0  0  0
 25 29  1  0  0  0  0
 26 30  1  0  0  0  0
 27 26  1  0  0  0  0
 28 25  1  0  0  0  0
 28 26  1  0  0  0  0
 29 30  1  0  0  0  0
 31 32  1  0  0  0  0
 32 33  1  0  0  0  0
 33 34  1  0  0  0  0
 34 36  1  0  0  0  0
 35 33  2  0  0  0  0
 36 38  1  0  0  0  0
 36 37  1  0  0  0  0
 38 37  1  0  0  0  0
M  END
>  <MODEL>
6

>  <REMARK>
 VINA RESULT:      -8.4      2.820      6.500
  Name = 
  12 active torsions:
  status: ('A' for Active; 'I' for Inactive)
    1  A    between atoms: C_2  and  N_23
    2  A    between atoms: N_3  and  C_36
    3  A    between atoms: C_4  and  C_14
    4  A    between atoms: C_4  and  O_15
    5  A    between atoms: N_8  and  CA_19
    6  A    between atoms: N_8  and  C_37
    7  A    between atoms: C_11  and  C_21
    8  A    between atoms: C_14  and  C_32
    9  A    between atoms: C_14  and  C_36
   10  A    between atoms: O_15  and  C_18
   11  A    between atoms: CA_19  and  C_26
   12  A    between atoms: CA_19  and  C_32
                            x       y       z     vdW  Elec       q    Type
                         _______ _______ _______ _____ _____    ______ ____

>  <TORSDO>
F 12

$$$$
=
 OpenBabel11042410013D

 38 42  0  0  1  0  0  0  0  0999 V2000
  188.9210  177.6590  140.1380 C   0  0  2  0  0  3  0  0  0  0  0  0
  190.1730  177.2220  140.8810 C   0  0  0  0  0  2  0  0  0  0  0  0
  189.8140  176.4080  141.9860 O   0  0  0  0  0  0  0  0  0  0  0  0
  191.3060  176.4770  146.4290 C   0  0  0  0  0  0  0  0  0  0  0  0
  191.1640  176.5260  143.9650 C   0  0  0  0  0  2  0  0  0  0  0  0
  187.5640  177.4530  145.7820 C   0  0  0  0  0  3  0  0  0  0  0  0
  192.3840  175.5480  146.4430 N   0  0  0  0  0  1  0  0  0  0  0  0
  190.4020  176.5210  147.5510 N   0  0  0  0  0  0  0  0  0  0  0  0
  188.8250  177.9780  146.4050 C   0  0  0  0  0  0  0  0  0  0  0  0
  190.0460  176.8040  143.3010 C   0  0  1  0  0  3  0  0  0  0  0  0
  190.9700  177.1010  145.2990 C   0  0  0  0  0  0  0  0  0  0  0  0
  189.1310  177.5770  144.1480 C   0  0  1  0  0  3  0  0  0  0  0  0
  189.2900  177.1580  147.5360 N   0  0  0  0  0  0  0  0  0  0  0  0
  187.7430  177.2490  144.4730 C   0  0  0  0  0  3  0  0  0  0  0  0
  189.7500  177.8710  145.2550 C   0  0  0  0  0  0  0  0  0  0  0  0
  189.2520  178.3410  138.8050 C   0  0  0  0  0  2  0  0  0  0  0  0
  188.8310  177.5540  137.5600 C   0  0  2  0  0  3  0  0  0  0  0  0
  187.4900  179.4550  137.0100 O   0  0  0  0  0  1  0  0  0  0  0  0
  187.4910  178.0610  137.0590 C   0  0  0  0  0  2  0  0  0  0  0  0
  188.7890  176.1100  137.8030 N   0  0  0  0  0  2  0  0  0  0  0  0
  191.9560  175.8510  136.1400 C   0  0  0  0  0  0  0  0  0  0  0  0
  191.8840  176.1210  134.7800 O   0  0  0  0  0  1  0  0  0  0  0  0
  189.7810  175.1530  137.4090 C   0  0  0  0  0  3  0  0  0  0  0  0
  190.8670  175.4970  136.7720 C   0  0  0  0  0  0  0  0  0  0  0  0
  193.2810  176.0010  136.8400 C   0  0  2  0  0  3  0  0  0  0  0  0
  195.6010  175.4410  136.6120 N   0  0  0  0  0  0  0  0  0  0  0  0
  196.2350  174.5340  135.6750 C   0  0  0  0  0  1  0  0  0  0  0  0
  194.4810  176.0530  135.9150 C   0  0  0  0  0  2  0  0  0  0  0  0
  193.5440  174.8190  137.7290 C   0  0  0  0  0  2  0  0  0  0  0  0
  195.0450  174.6260  137.6890 C   0  0  0  0  0  2  0  0  0  0  0  0
  188.0390  178.5280  141.0210 C   0  0  0  0  0  2  0  0  0  0  0  0
  186.7500  178.7310  140.3810 N   0  0  0  0  0  2  0  0  0  0  0  0
  185.5780  179.0810  141.1200 C   0  0  0  0  0  0  0  0  0  0  0  0
  184.3430  179.3180  140.4480 N   0  0  0  0  0  2  0  0  0  0  0  0
  185.6240  179.1720  142.3760 O   0  0  0  0  0  0  0  0  0  0  0  0
  184.2330  179.2780  139.0000 C   0  0  0  0  0  3  0  0  0  0  0  0
  183.3530  178.1100  138.5980 C   0  0  0  0  0  2  0  0  0  0  0  0
  182.7930  179.5180  138.5990 C   0  0  0  0  0  2  0  0  0  0  0  0
  1 16  1  6  0  0  0
  1  2  1  0  0  0  0
  1 31  1  0  0  0  0
  2  3  1  0  0  0  0
  4  7  1  0  0  0  0
  4  8  1  0  0  0  0
  5 11  1  0  0  0  0
  6  9  1  0  0  0  0
  9 13  1  0  0  0  0
 10  3  1  6  0  0  0
 10  5  1  0  0  0  0
 10 12  1  0  0  0  0
 11  4  2  0  0  0  0
 12 14  1  1  0  0  0
 12 15  1  0  0  0  0
 13  8  2  0  0  0  0
 14  6  2  0  0  0  0
 15 11  1  0  0  0  0
 15  9  2  0  0  0  0
 17 19  1  1  0  0  0
 17 20  1  0  0  0  0
 17 16  1  0  0  0  0
 18 19  1  0  0  0  0
 21 24  2  0  0  0  0
 22 21  1  0  0  0  0
 23 20  1  0  0  0  0
 24 23  2  0  0  0  0
 25 21  1  6  0  0  0
 25 29  1  0  0  0  0
 26 30  1  0  0  0  0
 27 26  1  0  0  0  0
 28 26  1  0  0  0  0
 28 25  1  0  0  0  0
 30 29  1  0  0  0  0
 32 31  1  0  0  0  0
 32 33  1  0  0  0  0
 33 35  2  0  0  0  0
 34 33  1  0  0  0  0
 36 34  1  0  0  0  0
 37 38  1  0  0  0  0
 37 36  1  0  0  0  0
 38 36  1  0  0  0  0
M  END
>  <MODEL>
7

>  <REMARK>
 VINA RESULT:      -8.4      2.376      5.259
  Name = 
  12 active torsions:
  status: ('A' for Active; 'I' for Inactive)
    1  A    between atoms: C_2  and  N_23
    2  A    between atoms: N_3  and  C_36
    3  A    between atoms: C_4  and  C_14
    4  A    between atoms: C_4  and  O_15
    5  A    between atoms: N_8  and  CA_19
    6  A    between atoms: N_8  and  C_37
    7  A    between atoms: C_11  and  C_21
    8  A    between atoms: C_14  and  C_32
    9  A    between atoms: C_14  and  C_36
   10  A    between atoms: O_15  and  C_18
   11  A    between atoms: CA_19  and  C_26
   12  A    between atoms: CA_19  and  C_32
                            x       y       z     vdW  Elec       q    Type
                         _______ _______ _______ _____ _____    ______ ____

>  <TORSDO>
F 12

$$$$
=
 OpenBabel11042410013D

 38 42  0  0  1  0  0  0  0  0999 V2000
  189.4960  177.8180  139.8460 C   0  0  2  0  0  3  0  0  0  0  0  0
  188.7440  178.3610  141.0510 C   0  0  0  0  0  2  0  0  0  0  0  0
  188.5920  177.3370  142.0200 O   0  0  0  0  0  0  0  0  0  0  0  0
  185.1520  178.8770  144.8080 C   0  0  0  0  0  0  0  0  0  0  0  0
  186.4560  177.9320  142.9370 C   0  0  0  0  0  2  0  0  0  0  0  0
  188.4990  177.7830  146.5320 C   0  0  0  0  0  3  0  0  0  0  0  0
  184.3860  179.7320  143.9670 N   0  0  0  0  0  1  0  0  0  0  0  0
  185.3760  179.2590  146.1800 N   0  0  0  0  0  0  0  0  0  0  0  0
  187.0240  177.5050  146.5470 C   0  0  0  0  0  0  0  0  0  0  0  0
  187.6870  177.4460  143.0740 C   0  0  1  0  0  3  0  0  0  0  0  0
  185.8760  177.8880  144.2820 C   0  0  0  0  0  0  0  0  0  0  0  0
  187.9240  177.0490  144.4650 C   0  0  1  0  0  3  0  0  0  0  0  0
  186.2250  178.6760  146.9440 N   0  0  0  0  0  0  0  0  0  0  0  0
  189.0140  177.4920  145.3340 C   0  0  0  0  0  3  0  0  0  0  0  0
  186.8060  177.1710  145.1220 C   0  0  0  0  0  0  0  0  0  0  0  0
  188.6320  176.8690  139.0080 C   0  0  0  0  0  2  0  0  0  0  0  0
  188.0620  177.4840  137.7260 C   0  0  2  0  0  3  0  0  0  0  0  0
  188.6640  179.7520  137.2710 O   0  0  0  0  0  1  0  0  0  0  0  0
  189.0790  178.4300  137.1130 C   0  0  0  0  0  2  0  0  0  0  0  0
  186.7850  178.1640  137.9550 N   0  0  0  0  0  2  0  0  0  0  0  0
  183.5870  176.5620  138.2180 C   0  0  0  0  0  0  0  0  0  0  0  0
  183.6660  175.1760  138.2070 O   0  0  0  0  0  1  0  0  0  0  0  0
  185.5670  177.9510  137.2290 C   0  0  0  0  0  3  0  0  0  0  0  0
  184.5770  177.2550  137.7180 C   0  0  0  0  0  0  0  0  0  0  0  0
  182.3740  177.2140  138.8260 C   0  0  2  0  0  3  0  0  0  0  0  0
  181.2960  179.3450  139.0450 N   0  0  0  0  0  0  0  0  0  0  0  0
  181.8060  180.6650  138.7250 C   0  0  0  0  0  1  0  0  0  0  0  0
  181.8630  178.4260  138.0710 C   0  0  0  0  0  2  0  0  0  0  0  0
  182.6880  177.7350  140.2000 C   0  0  0  0  0  2  0  0  0  0  0  0
  181.8410  178.9800  140.3500 C   0  0  0  0  0  2  0  0  0  0  0  0
  190.8070  177.1740  140.2680 C   0  0  0  0  0  2  0  0  0  0  0  0
  191.5260  176.7080  139.0940 N   0  0  0  0  0  2  0  0  0  0  0  0
  192.9410  176.8640  138.9530 C   0  0  0  0  0  0  0  0  0  0  0  0
  193.6140  176.3490  137.8070 N   0  0  0  0  0  2  0  0  0  0  0  0
  193.6030  177.4690  139.8380 O   0  0  0  0  0  0  0  0  0  0  0  0
  192.9180  175.5990  136.7760 C   0  0  0  0  0  3  0  0  0  0  0  0
  193.8510  174.5450  136.2100 C   0  0  0  0  0  2  0  0  0  0  0  0
  192.7820  174.1560  137.2110 C   0  0  0  0  0  2  0  0  0  0  0  0
  1 16  1  1  0  0  0
  1 31  1  0  0  0  0
  1  2  1  0  0  0  0
  2  3  1  0  0  0  0
  4  8  1  0  0  0  0
  5 10  1  0  0  0  0
  5 11  1  0  0  0  0
  6  9  1  0  0  0  0
  7  4  1  0  0  0  0
  8 13  2  0  0  0  0
  9 13  1  0  0  0  0
 10  3  1  6  0  0  0
 10 12  1  0  0  0  0
 11  4  2  0  0  0  0
 11 15  1  0  0  0  0
 12 15  1  0  0  0  0
 12 14  1  1  0  0  0
 14  6  2  0  0  0  0
 15  9  2  0  0  0  0
 17 19  1  1  0  0  0
 17 20  1  0  0  0  0
 17 16  1  0  0  0  0
 19 18  1  0  0  0  0
 22 21  1  0  0  0  0
 23 24  2  0  0  0  0
 23 20  1  0  0  0  0
 24 21  2  0  0  0  0
 25 21  1  6  0  0  0
 25 29  1  0  0  0  0
 26 30  1  0  0  0  0
 27 26  1  0  0  0  0
 28 25  1  0  0  0  0
 28 26  1  0  0  0  0
 29 30  1  0  0  0  0
 32 31  1  0  0  0  0
 33 32  1  0  0  0  0
 33 35  2  0  0  0  0
 34 33  1  0  0  0  0
 36 38  1  0  0  0  0
 36 34  1  0  0  0  0
 37 36  1  0  0  0  0
 37 38  1  0  0  0  0
M  END
>  <MODEL>
8

>  <REMARK>
 VINA RESULT:      -8.3      3.105      7.353
  Name = 
  12 active torsions:
  status: ('A' for Active; 'I' for Inactive)
    1  A    between atoms: C_2  and  N_23
    2  A    between atoms: N_3  and  C_36
    3  A    between atoms: C_4  and  C_14
    4  A    between atoms: C_4  and  O_15
    5  A    between atoms: N_8  and  CA_19
    6  A    between atoms: N_8  and  C_37
    7  A    between atoms: C_11  and  C_21
    8  A    between atoms: C_14  and  C_32
    9  A    between atoms: C_14  and  C_36
   10  A    between atoms: O_15  and  C_18
   11  A    between atoms: CA_19  and  C_26
   12  A    between atoms: CA_19  and  C_32
                            x       y       z     vdW  Elec       q    Type
                         _______ _______ _______ _____ _____    ______ ____

>  <TORSDO>
F 12

$$$$
=
 OpenBabel11042410013D

 38 42  0  0  1  0  0  0  0  0999 V2000
  184.2010  178.7990  139.5990 C   0  0  2  0  0  3  0  0  0  0  0  0
  185.1420  178.3660  138.4860 C   0  0  0  0  0  2  0  0  0  0  0  0
  186.4840  178.6280  138.8650 O   0  0  0  0  0  0  0  0  0  0  0  0
  189.0440  175.2150  136.9230 C   0  0  0  0  0  0  0  0  0  0  0  0
  187.4320  177.0390  137.3390 C   0  0  0  0  0  2  0  0  0  0  0  0
  190.5590  177.0300  140.0500 C   0  0  0  0  0  3  0  0  0  0  0  0
  188.0790  174.3800  136.2920 N   0  0  0  0  0  1  0  0  0  0  0  0
  190.1670  174.6090  137.5930 N   0  0  0  0  0  0  0  0  0  0  0  0
  190.8670  176.7030  138.6180 C   0  0  0  0  0  0  0  0  0  0  0  0
  187.5540  177.9090  138.3380 C   0  0  1  0  0  3  0  0  0  0  0  0
  188.7820  176.5060  137.1300 C   0  0  0  0  0  0  0  0  0  0  0  0
  188.9520  177.9930  138.7720 C   0  0  1  0  0  3  0  0  0  0  0  0
  190.9580  175.2550  138.3680 N   0  0  0  0  0  0  0  0  0  0  0  0
  189.4670  177.7970  140.1270 C   0  0  0  0  0  3  0  0  0  0  0  0
  189.6770  177.2830  137.9550 C   0  0  0  0  0  0  0  0  0  0  0  0
  184.9610  179.3220  140.8230 C   0  0  0  0  0  2  0  0  0  0  0  0
  185.0220  178.3470  142.0040 C   0  0  2  0  0  3  0  0  0  0  0  0
  184.7680  179.7820  143.8980 O   0  0  0  0  0  1  0  0  0  0  0  0
  184.1120  178.8300  143.1180 C   0  0  0  0  0  2  0  0  0  0  0  0
  186.3890  178.1490  142.4920 N   0  0  0  0  0  2  0  0  0  0  0  0
  189.3140  176.7370  144.0130 C   0  0  0  0  0  0  0  0  0  0  0  0
  189.9900  175.8520  143.1840 O   0  0  0  0  0  1  0  0  0  0  0  0
  186.7980  177.2530  143.5320 C   0  0  0  0  0  3  0  0  0  0  0  0
  188.0540  176.9900  143.7730 C   0  0  0  0  0  0  0  0  0  0  0  0
  190.0670  177.3910  145.1410 C   0  0  2  0  0  3  0  0  0  0  0  0
  191.6800  176.9140  146.8500 N   0  0  0  0  0  0  0  0  0  0  0  0
  192.1790  175.6300  147.3040 C   0  0  0  0  0  1  0  0  0  0  0  0
  191.4300  176.7900  145.4230 C   0  0  0  0  0  2  0  0  0  0  0  0
  189.3160  177.2380  146.4340 C   0  0  0  0  0  2  0  0  0  0  0  0
  190.3870  177.1250  147.4970 C   0  0  0  0  0  2  0  0  0  0  0  0
  183.2350  177.6820  139.9600 C   0  0  0  0  0  2  0  0  0  0  0  0
  183.4050  176.5690  139.0390 N   0  0  0  0  0  2  0  0  0  0  0  0
  182.3750  175.6040  138.8120 C   0  0  0  0  0  0  0  0  0  0  0  0
  182.5630  174.5550  137.8650 N   0  0  0  0  0  2  0  0  0  0  0  0
  181.2940  175.6650  139.4570 O   0  0  0  0  0  0  0  0  0  0  0  0
  183.7640  174.4560  137.0530 C   0  0  0  0  0  3  0  0  0  0  0  0
  184.6460  173.3500  137.6000 C   0  0  0  0  0  2  0  0  0  0  0  0
  183.7970  173.1050  136.3690 C   0  0  0  0  0  2  0  0  0  0  0  0
  1  2  1  6  0  0  0
  1 31  1  0  0  0  0
  1 16  1  0  0  0  0
  2  3  1  0  0  0  0
  4 11  2  0  0  0  0
  4  8  1  0  0  0  0
  5 10  1  0  0  0  0
  6 14  2  0  0  0  0
  7  4  1  0  0  0  0
  8 13  2  0  0  0  0
  9  6  1  0  0  0  0
 10 12  1  0  0  0  0
 10  3  1  6  0  0  0
 11  5  1  0  0  0  0
 11 15  1  0  0  0  0
 12 14  1  1  0  0  0
 13  9  1  0  0  0  0
 15  9  2  0  0  0  0
 15 12  1  0  0  0  0
 17 16  1  6  0  0  0
 17 20  1  0  0  0  0
 17 19  1  0  0  0  0
 19 18  1  0  0  0  0
 20 23  1  0  0  0  0
 22 21  1  0  0  0  0
 23 24  2  0  0  0  0
 24 21  2  0  0  0  0
 25 21  1  6  0  0  0
 25 28  1  0  0  0  0
 25 29  1  0  0  0  0
 26 27  1  0  0  0  0
 26 30  1  0  0  0  0
 28 26  1  0  0  0  0
 29 30  1  0  0  0  0
 32 31  1  0  0  0  0
 33 32  1  0  0  0  0
 33 35  2  0  0  0  0
 34 33  1  0  0  0  0
 36 37  1  0  0  0  0
 36 34  1  0  0  0  0
 38 36  1  0  0  0  0
 38 37  1  0  0  0  0
M  END
>  <MODEL>
9

>  <REMARK>
 VINA RESULT:      -8.2      3.623      9.055
  Name = 
  12 active torsions:
  status: ('A' for Active; 'I' for Inactive)
    1  A    between atoms: C_2  and  N_23
    2  A    between atoms: N_3  and  C_36
    3  A    between atoms: C_4  and  C_14
    4  A    between atoms: C_4  and  O_15
    5  A    between atoms: N_8  and  CA_19
    6  A    between atoms: N_8  and  C_37
    7  A    between atoms: C_11  and  C_21
    8  A    between atoms: C_14  and  C_32
    9  A    between atoms: C_14  and  C_36
   10  A    between atoms: O_15  and  C_18
   11  A    between atoms: CA_19  and  C_26
   12  A    between atoms: CA_19  and  C_32
                            x       y       z     vdW  Elec       q    Type
                         _______ _______ _______ _____ _____    ______ ____

>  <TORSDO>
F 12

$$$$
