=
 OpenBabel11032420233D

 39 44  0  0  1  0  0  0  0  0999 V2000
  184.7090  178.4910  138.9180 C   0  0  0  0  0  3  0  0  0  0  0  0
  182.2800  178.7500  141.5680 C   0  0  0  0  0  3  0  0  0  0  0  0
  184.6440  178.6410  141.0850 C   0  0  0  0  0  0  0  0  0  0  0  0
  183.3610  178.5510  139.2820 C   0  0  0  0  0  0  0  0  0  0  0  0
  183.9370  178.8350  143.3670 C   0  0  0  0  0  0  0  0  0  0  0  0
  183.3390  178.6480  140.6650 C   0  0  0  0  0  0  0  0  0  0  0  0
  185.4730  178.5400  140.0330 N   0  0  0  0  0  0  0  0  0  0  0  0
  182.5940  178.8450  142.9350 C   0  0  0  0  0  3  0  0  0  0  0  0
  184.9850  178.7360  142.4350 C   0  0  0  0  0  3  0  0  0  0  0  0
  180.0560  178.4680  136.5940 C   0  0  0  0  0  3  0  0  0  0  0  0
  180.5870  179.6970  136.9870 C   0  0  0  0  0  3  0  0  0  0  0  0
  180.5930  177.3120  137.0690 N   0  0  0  0  0  0  0  0  0  0  0  0
  181.6690  179.7220  137.8670 C   0  0  0  0  0  3  0  0  0  0  0  0
  182.2140  178.5250  138.3500 C   0  0  0  0  0  0  0  0  0  0  0  0
  181.6470  177.3150  137.9260 C   0  0  0  0  0  3  0  0  0  0  0  0
  184.3090  178.9630  145.1110 S   0  0  0  0  0  0  0  0  0  0  0  0
  185.8790  178.0670  144.9230 C   0  0  0  0  0  2  0  0  0  0  0  0
  186.7520  178.3520  146.0540 N   0  0  0  0  0  2  0  0  0  0  0  0
  188.5920  177.4600  147.4320 C   0  0  0  0  0  3  0  0  0  0  0  0
  192.0290  176.1820  146.5790 C   0  0  0  0  0  1  0  0  0  0  0  0
  190.6620  176.7490  146.3860 C   0  0  0  0  0  0  0  0  0  0  0  0
  188.8480  177.6320  145.0380 C   0  0  0  0  0  3  0  0  0  0  0  0
  188.0720  177.8150  146.1840 C   0  0  0  0  0  0  0  0  0  0  0  0
  189.8790  176.9320  147.5300 C   0  0  0  0  0  3  0  0  0  0  0  0
  190.1460  177.1010  145.1130 C   0  0  0  0  0  0  0  0  0  0  0  0
  191.5040  178.0190  143.2140 O   0  0  0  0  0  0  0  0  0  0  0  0
  191.0290  175.7930  143.3330 O   0  0  0  0  0  1  0  0  0  0  0  0
  190.9070  176.9370  143.8500 C   0  0  0  0  0  0  0  0  0  0  0  0
  186.9280  178.5470  140.0610 C   0  0  0  0  0  2  0  0  0  0  0  0
  188.8750  177.6040  138.6930 C   0  0  2  0  0  3  0  0  0  0  0  0
  188.5830  178.9450  138.3730 O   0  0  0  0  0  0  0  0  0  0  0  0
  187.4770  178.1350  138.6970 C   0  0  2  0  0  3  0  0  0  0  0  0
  189.5670  177.5510  140.0500 C   0  0  0  0  0  2  0  0  0  0  0  0
  190.6950  176.5390  140.0010 C   0  0  0  0  0  2  0  0  0  0  0  0
  191.1590  176.3820  138.6320 N   0  0  0  0  0  0  0  0  0  0  0  0
  193.2320  175.5990  137.8360 N   0  0  0  0  0  2  0  0  0  0  0  0
  190.9940  175.0310  138.2920 N   0  0  0  0  0  2  0  0  0  0  0  0
  192.1680  174.6680  137.5180 C   0  0  0  0  0  2  0  0  0  0  0  0
  192.5920  176.6180  138.6440 C   0  0  0  0  0  2  0  0  0  0  0  0
  1  4  2  0  0  0  0
  1  7  1  0  0  0  0
  2  8  1  0  0  0  0
  3  9  2  0  0  0  0
  4  6  1  0  0  0  0
  5 16  1  0  0  0  0
  6  3  1  0  0  0  0
  6  2  2  0  0  0  0
  7 29  1  0  0  0  0
  7  3  1  0  0  0  0
  8  5  2  0  0  0  0
  9  5  1  0  0  0  0
 10 11  2  0  0  0  0
 10 12  1  0  0  0  0
 11 13  1  0  0  0  0
 12 15  2  0  0  0  0
 13 14  2  0  0  0  0
 14  4  1  0  0  0  0
 15 14  1  0  0  0  0
 17 16  1  0  0  0  0
 17 18  1  0  0  0  0
 18 23  1  0  0  0  0
 19 24  1  0  0  0  0
 21 20  1  0  0  0  0
 21 24  2  0  0  0  0
 22 25  2  0  0  0  0
 22 23  1  0  0  0  0
 23 19  2  0  0  0  0
 25 21  1  0  0  0  0
 26 28  2  0  0  0  0
 27 28  1  0  0  0  0
 28 25  1  0  0  0  0
 30 32  1  0  0  0  0
 30 33  1  1  0  0  0
 31 30  1  0  0  0  0
 31 32  1  0  0  0  0
 32 29  1  1  0  0  0
 34 33  1  0  0  0  0
 35 39  1  0  0  0  0
 35 34  1  0  0  0  0
 36 39  1  0  0  0  0
 37 35  1  0  0  0  0
 38 36  1  0  0  0  0
 38 37  1  0  0  0  0
M  END
>  <MODEL>
1

>  <REMARK>
 VINA RESULT:      -8.6      0.000      0.000
  Name = 
  11 active torsions:
  status: ('A' for Active; 'I' for Inactive)
    1  A    between atoms: N_1  and  C_11
    2  A    between atoms: N_2  and  C_6
    3  A    between atoms: N_2  and  C_26
    4  A    between atoms: C_6  and  S_16
    5  A    between atoms: C_9  and  C_33
    6  A    between atoms: C_11  and  C_28
    7  A    between atoms: C_12  and  S_16
    8  A    between atoms: C_15  and  C_28
    9  A    between atoms: C_18  and  N_19
   10  A    between atoms: C_18  and  C_39
   11  A    between atoms: C_31  and  C_34
                            x       y       z     vdW  Elec       q    Type
                         _______ _______ _______ _____ _____    ______ ____

>  <TORSDO>
F 11

$$$$
=
 OpenBabel11032420233D

 39 44  0  0  1  0  0  0  0  0999 V2000
  189.3630  177.5300  142.8450 C   0  0  0  0  0  3  0  0  0  0  0  0
  186.6890  177.8740  145.2370 C   0  0  0  0  0  3  0  0  0  0  0  0
  187.2360  177.9720  142.8870 C   0  0  0  0  0  0  0  0  0  0  0  0
  188.9670  177.5000  144.1840 C   0  0  0  0  0  0  0  0  0  0  0  0
  184.9710  178.3700  143.5660 C   0  0  0  0  0  0  0  0  0  0  0  0
  187.6090  177.7820  144.1920 C   0  0  0  0  0  0  0  0  0  0  0  0
  188.2940  177.8270  142.0720 N   0  0  0  0  0  0  0  0  0  0  0  0
  185.3550  178.1710  144.9090 C   0  0  0  0  0  3  0  0  0  0  0  0
  185.9190  178.2660  142.5320 C   0  0  0  0  0  3  0  0  0  0  0  0
  191.5050  176.6620  147.5030 C   0  0  0  0  0  3  0  0  0  0  0  0
  190.1900  177.0700  147.7340 C   0  0  0  0  0  3  0  0  0  0  0  0
  191.9640  176.5350  146.2290 N   0  0  0  0  0  0  0  0  0  0  0  0
  189.3610  177.3440  146.6460 C   0  0  0  0  0  3  0  0  0  0  0  0
  189.8450  177.2100  145.3380 C   0  0  0  0  0  0  0  0  0  0  0  0
  191.1720  176.7970  145.1560 C   0  0  0  0  0  3  0  0  0  0  0  0
  183.2670  178.7410  143.1750 S   0  0  0  0  0  0  0  0  0  0  0  0
  183.5870  178.7140  141.3860 C   0  0  0  0  0  2  0  0  0  0  0  0
  182.3280  178.6580  140.6570 N   0  0  0  0  0  2  0  0  0  0  0  0
  180.5370  176.9870  140.3650 C   0  0  0  0  0  3  0  0  0  0  0  0
  180.2670  173.8800  138.2580 C   0  0  0  0  0  1  0  0  0  0  0  0
  180.8510  175.1170  138.8520 C   0  0  0  0  0  0  0  0  0  0  0  0
  182.6100  176.7630  139.1490 C   0  0  0  0  0  3  0  0  0  0  0  0
  181.8170  177.4610  140.0610 C   0  0  0  0  0  0  0  0  0  0  0  0
  180.0600  175.8230  139.7650 C   0  0  0  0  0  3  0  0  0  0  0  0
  182.1490  175.5890  138.5310 C   0  0  0  0  0  0  0  0  0  0  0  0
  184.0690  174.0620  138.0050 O   0  0  0  0  0  1  0  0  0  0  0  0
  182.8990  175.0760  136.3320 O   0  0  0  0  0  0  0  0  0  0  0  0
  183.0520  174.9040  137.5720 C   0  0  0  0  0  0  0  0  0  0  0  0
  188.2970  177.9040  140.6180 C   0  0  0  0  0  2  0  0  0  0  0  0
  190.0060  177.7240  138.7220 C   0  0  2  0  0  3  0  0  0  0  0  0
  189.2410  176.5510  138.8800 O   0  0  0  0  0  0  0  0  0  0  0  0
  189.5570  177.2430  140.0650 C   0  0  2  0  0  3  0  0  0  0  0  0
  189.1410  178.8040  138.0820 C   0  0  0  0  0  2  0  0  0  0  0  0
  188.9650  178.5010  136.6070 C   0  0  0  0  0  2  0  0  0  0  0  0
  187.5490  178.4100  136.2870 N   0  0  0  0  0  0  0  0  0  0  0  0
  186.0320  176.6580  136.7030 N   0  0  0  0  0  2  0  0  0  0  0  0
  186.8410  178.7370  137.4530 N   0  0  0  0  0  2  0  0  0  0  0  0
  185.7140  177.8230  137.5060 C   0  0  0  0  0  2  0  0  0  0  0  0
  187.2660  177.0090  136.0280 C   0  0  0  0  0  2  0  0  0  0  0  0
  1  4  2  0  0  0  0
  3  6  1  0  0  0  0
  4  6  1  0  0  0  0
  4 14  1  0  0  0  0
  5  8  2  0  0  0  0
  6  2  2  0  0  0  0
  7  1  1  0  0  0  0
  7  3  1  0  0  0  0
  8  2  1  0  0  0  0
  9  3  2  0  0  0  0
  9  5  1  0  0  0  0
 10 11  1  0  0  0  0
 12 10  2  0  0  0  0
 13 11  2  0  0  0  0
 14 13  1  0  0  0  0
 15 14  2  0  0  0  0
 15 12  1  0  0  0  0
 16  5  1  0  0  0  0
 17 16  1  0  0  0  0
 18 17  1  0  0  0  0
 20 21  1  0  0  0  0
 21 24  1  0  0  0  0
 22 23  2  0  0  0  0
 23 19  1  0  0  0  0
 23 18  1  0  0  0  0
 24 19  2  0  0  0  0
 25 21  2  0  0  0  0
 25 22  1  0  0  0  0
 27 28  2  0  0  0  0
 28 26  1  0  0  0  0
 28 25  1  0  0  0  0
 29  7  1  0  0  0  0
 30 33  1  6  0  0  0
 30 31  1  0  0  0  0
 30 32  1  0  0  0  0
 31 32  1  0  0  0  0
 32 29  1  6  0  0  0
 34 33  1  0  0  0  0
 35 34  1  0  0  0  0
 35 37  1  0  0  0  0
 36 38  1  0  0  0  0
 37 38  1  0  0  0  0
 39 35  1  0  0  0  0
 39 36  1  0  0  0  0
M  END
>  <MODEL>
2

>  <REMARK>
 VINA RESULT:      -8.5      2.797      8.477
  Name = 
  11 active torsions:
  status: ('A' for Active; 'I' for Inactive)
    1  A    between atoms: N_1  and  C_11
    2  A    between atoms: N_2  and  C_6
    3  A    between atoms: N_2  and  C_26
    4  A    between atoms: C_6  and  S_16
    5  A    between atoms: C_9  and  C_33
    6  A    between atoms: C_11  and  C_28
    7  A    between atoms: C_12  and  S_16
    8  A    between atoms: C_15  and  C_28
    9  A    between atoms: C_18  and  N_19
   10  A    between atoms: C_18  and  C_39
   11  A    between atoms: C_31  and  C_34
                            x       y       z     vdW  Elec       q    Type
                         _______ _______ _______ _____ _____    ______ ____

>  <TORSDO>
F 11

$$$$
=
 OpenBabel11032420233D

 39 44  0  0  1  0  0  0  0  0999 V2000
  189.3510  177.7710  142.5410 C   0  0  0  0  0  3  0  0  0  0  0  0
  186.4500  177.9250  144.6740 C   0  0  0  0  0  3  0  0  0  0  0  0
  187.2150  178.1450  142.3940 C   0  0  0  0  0  0  0  0  0  0  0  0
  188.8290  177.6700  143.8330 C   0  0  0  0  0  0  0  0  0  0  0  0
  184.8840  178.4420  142.8650 C   0  0  0  0  0  0  0  0  0  0  0  0
  187.4680  177.9090  143.7200 C   0  0  0  0  0  0  0  0  0  0  0  0
  188.3510  178.0690  141.6800 N   0  0  0  0  0  0  0  0  0  0  0  0
  185.1440  178.1960  144.2300 C   0  0  0  0  0  3  0  0  0  0  0  0
  185.9290  178.4140  141.9250 C   0  0  0  0  0  3  0  0  0  0  0  0
  191.0660  176.7660  147.3450 C   0  0  0  0  0  3  0  0  0  0  0  0
  189.6750  176.8450  147.4230 C   0  0  0  0  0  3  0  0  0  0  0  0
  191.6950  176.9760  146.1580 N   0  0  0  0  0  0  0  0  0  0  0  0
  188.9450  177.1420  146.2720 C   0  0  0  0  0  3  0  0  0  0  0  0
  189.6030  177.3560  145.0540 C   0  0  0  0  0  0  0  0  0  0  0  0
  191.0010  177.2650  145.0260 C   0  0  0  0  0  3  0  0  0  0  0  0
  183.2130  178.7770  142.3260 S   0  0  0  0  0  0  0  0  0  0  0  0
  183.6230  178.4500  140.5860 C   0  0  0  0  0  2  0  0  0  0  0  0
  183.5940  179.6930  139.8270 N   0  0  0  0  0  2  0  0  0  0  0  0
  182.1870  178.9650  137.9360 C   0  0  0  0  0  3  0  0  0  0  0  0
  179.7210  180.7800  135.7470 C   0  0  0  0  0  1  0  0  0  0  0  0
  180.7250  180.5510  136.8260 C   0  0  0  0  0  0  0  0  0  0  0  0
  182.1160  181.2590  138.6850 C   0  0  0  0  0  3  0  0  0  0  0  0
  182.6300  179.9670  138.8050 C   0  0  0  0  0  0  0  0  0  0  0  0
  181.2420  179.2580  136.9540 C   0  0  0  0  0  3  0  0  0  0  0  0
  181.1620  181.5760  137.7030 C   0  0  0  0  0  0  0  0  0  0  0  0
  181.4470  184.0020  137.1310 O   0  0  0  0  0  0  0  0  0  0  0  0
  179.5010  183.2440  138.0460 O   0  0  0  0  0  1  0  0  0  0  0  0
  180.6640  182.9720  137.6390 C   0  0  0  0  0  0  0  0  0  0  0  0
  188.4910  178.2110  140.2390 C   0  0  0  0  0  2  0  0  0  0  0  0
  190.0740  177.6000  138.3220 C   0  0  2  0  0  3  0  0  0  0  0  0
  189.2440  176.5280  138.7080 O   0  0  0  0  0  0  0  0  0  0  0  0
  189.6720  177.3790  139.7460 C   0  0  2  0  0  3  0  0  0  0  0  0
  189.2460  178.6230  137.5530 C   0  0  0  0  0  2  0  0  0  0  0  0
  188.8880  178.0590  136.1910 C   0  0  0  0  0  2  0  0  0  0  0  0
  187.4420  178.0400  136.0300 N   0  0  0  0  0  0  0  0  0  0  0  0
  185.8600  176.5320  136.9070 N   0  0  0  0  0  2  0  0  0  0  0  0
  186.8910  178.6300  137.1770 N   0  0  0  0  0  2  0  0  0  0  0  0
  185.7150  177.8440  137.5060 C   0  0  0  0  0  2  0  0  0  0  0  0
  187.0340  176.6460  136.0640 C   0  0  0  0  0  2  0  0  0  0  0  0
  1  4  2  0  0  0  0
  3  6  1  0  0  0  0
  4 14  1  0  0  0  0
  5  8  2  0  0  0  0
  6  4  1  0  0  0  0
  6  2  2  0  0  0  0
  7  3  1  0  0  0  0
  7  1  1  0  0  0  0
  8  2  1  0  0  0  0
  9  3  2  0  0  0  0
  9  5  1  0  0  0  0
 10 11  1  0  0  0  0
 12 10  2  0  0  0  0
 13 11  2  0  0  0  0
 14 13  1  0  0  0  0
 15 14  2  0  0  0  0
 15 12  1  0  0  0  0
 16  5  1  0  0  0  0
 17 16  1  0  0  0  0
 18 17  1  0  0  0  0
 19 23  1  0  0  0  0
 20 21  1  0  0  0  0
 21 24  1  0  0  0  0
 21 25  2  0  0  0  0
 22 23  2  0  0  0  0
 23 18  1  0  0  0  0
 24 19  2  0  0  0  0
 25 22  1  0  0  0  0
 26 28  2  0  0  0  0
 28 25  1  0  0  0  0
 28 27  1  0  0  0  0
 29  7  1  0  0  0  0
 30 33  1  6  0  0  0
 30 31  1  0  0  0  0
 30 32  1  0  0  0  0
 31 32  1  0  0  0  0
 32 29  1  6  0  0  0
 34 33  1  0  0  0  0
 35 39  1  0  0  0  0
 35 34  1  0  0  0  0
 35 37  1  0  0  0  0
 36 38  1  0  0  0  0
 37 38  1  0  0  0  0
 39 36  1  0  0  0  0
M  END
>  <MODEL>
3

>  <REMARK>
 VINA RESULT:      -8.5      3.010      9.126
  Name = 
  11 active torsions:
  status: ('A' for Active; 'I' for Inactive)
    1  A    between atoms: N_1  and  C_11
    2  A    between atoms: N_2  and  C_6
    3  A    between atoms: N_2  and  C_26
    4  A    between atoms: C_6  and  S_16
    5  A    between atoms: C_9  and  C_33
    6  A    between atoms: C_11  and  C_28
    7  A    between atoms: C_12  and  S_16
    8  A    between atoms: C_15  and  C_28
    9  A    between atoms: C_18  and  N_19
   10  A    between atoms: C_18  and  C_39
   11  A    between atoms: C_31  and  C_34
                            x       y       z     vdW  Elec       q    Type
                         _______ _______ _______ _____ _____    ______ ____

>  <TORSDO>
F 11

$$$$
=
 OpenBabel11032420233D

 39 44  0  0  1  0  0  0  0  0999 V2000
  189.4640  177.6630  142.9170 C   0  0  0  0  0  3  0  0  0  0  0  0
  186.7700  177.8510  145.3030 C   0  0  0  0  0  3  0  0  0  0  0  0
  187.3300  178.0680  142.9640 C   0  0  0  0  0  0  0  0  0  0  0  0
  189.0600  177.5640  144.2500 C   0  0  0  0  0  0  0  0  0  0  0  0
  185.0550  178.3970  143.6450 C   0  0  0  0  0  0  0  0  0  0  0  0
  187.6980  177.8230  144.2610 C   0  0  0  0  0  0  0  0  0  0  0  0
  188.3950  177.9790  142.1510 N   0  0  0  0  0  0  0  0  0  0  0  0
  185.4330  178.1420  144.9800 C   0  0  0  0  0  3  0  0  0  0  0  0
  186.0100  178.3580  142.6140 C   0  0  0  0  0  3  0  0  0  0  0  0
  191.5900  176.6100  147.5440 C   0  0  0  0  0  3  0  0  0  0  0  0
  190.3090  177.1090  147.7880 C   0  0  0  0  0  3  0  0  0  0  0  0
  192.0200  176.4340  146.2660 N   0  0  0  0  0  0  0  0  0  0  0  0
  189.4830  177.4200  146.7080 C   0  0  0  0  0  3  0  0  0  0  0  0
  189.9360  177.2340  145.3950 C   0  0  0  0  0  0  0  0  0  0  0  0
  191.2290  176.7310  145.2010 C   0  0  0  0  0  3  0  0  0  0  0  0
  183.3470  178.7590  143.2600 S   0  0  0  0  0  0  0  0  0  0  0  0
  183.6280  178.5790  141.4730 C   0  0  0  0  0  2  0  0  0  0  0  0
  182.3820  178.2290  140.8080 N   0  0  0  0  0  2  0  0  0  0  0  0
  182.0360  178.6730  138.4060 C   0  0  0  0  0  3  0  0  0  0  0  0
  182.1290  176.4570  135.3640 C   0  0  0  0  0  1  0  0  0  0  0  0
  182.2080  176.8660  136.7970 C   0  0  0  0  0  0  0  0  0  0  0  0
  182.5420  176.4370  139.1620 C   0  0  0  0  0  3  0  0  0  0  0  0
  182.3130  177.7840  139.4490 C   0  0  0  0  0  0  0  0  0  0  0  0
  181.9830  178.2150  137.0900 C   0  0  0  0  0  3  0  0  0  0  0  0
  182.4950  175.9540  137.8440 C   0  0  0  0  0  0  0  0  0  0  0  0
  181.7100  173.6150  137.3870 O   0  0  0  0  0  0  0  0  0  0  0  0
  183.9300  174.0690  137.6340 O   0  0  0  0  0  1  0  0  0  0  0  0
  182.7490  174.5090  137.6200 C   0  0  0  0  0  0  0  0  0  0  0  0
  188.4060  178.1250  140.7030 C   0  0  0  0  0  2  0  0  0  0  0  0
  189.9500  177.6710  138.7120 C   0  0  2  0  0  3  0  0  0  0  0  0
  189.0800  176.5960  138.9850 O   0  0  0  0  0  0  0  0  0  0  0  0
  189.5490  177.3070  140.1060 C   0  0  2  0  0  3  0  0  0  0  0  0
  189.1580  178.8050  138.0710 C   0  0  0  0  0  2  0  0  0  0  0  0
  188.8850  178.4700  136.6170 C   0  0  0  0  0  2  0  0  0  0  0  0
  187.4510  178.4300  136.3820 N   0  0  0  0  0  0  0  0  0  0  0  0
  185.8880  176.7640  136.9520 N   0  0  0  0  0  2  0  0  0  0  0  0
  186.8250  178.8320  137.5720 N   0  0  0  0  0  2  0  0  0  0  0  0
  185.6650  177.9710  137.7240 C   0  0  0  0  0  2  0  0  0  0  0  0
  187.0940  177.0350  136.1950 C   0  0  0  0  0  2  0  0  0  0  0  0
  1  4  2  0  0  0  0
  3  6  1  0  0  0  0
  4  6  1  0  0  0  0
  4 14  1  0  0  0  0
  5  8  2  0  0  0  0
  6  2  2  0  0  0  0
  7  1  1  0  0  0  0
  7  3  1  0  0  0  0
  8  2  1  0  0  0  0
  9  3  2  0  0  0  0
  9  5  1  0  0  0  0
 10 11  1  0  0  0  0
 12 10  2  0  0  0  0
 13 11  2  0  0  0  0
 14 13  1  0  0  0  0
 15 14  2  0  0  0  0
 15 12  1  0  0  0  0
 16  5  1  0  0  0  0
 17 16  1  0  0  0  0
 18 17  1  0  0  0  0
 19 23  1  0  0  0  0
 20 21  1  0  0  0  0
 21 24  1  0  0  0  0
 21 25  2  0  0  0  0
 22 23  2  0  0  0  0
 23 18  1  0  0  0  0
 24 19  2  0  0  0  0
 25 22  1  0  0  0  0
 26 28  2  0  0  0  0
 28 27  1  0  0  0  0
 28 25  1  0  0  0  0
 29  7  1  0  0  0  0
 30 33  1  6  0  0  0
 30 31  1  0  0  0  0
 30 32  1  0  0  0  0
 31 32  1  0  0  0  0
 32 29  1  6  0  0  0
 34 33  1  0  0  0  0
 35 34  1  0  0  0  0
 35 37  1  0  0  0  0
 36 38  1  0  0  0  0
 37 38  1  0  0  0  0
 39 35  1  0  0  0  0
 39 36  1  0  0  0  0
M  END
>  <MODEL>
4

>  <REMARK>
 VINA RESULT:      -8.4      2.751      8.631
  Name = 
  11 active torsions:
  status: ('A' for Active; 'I' for Inactive)
    1  A    between atoms: N_1  and  C_11
    2  A    between atoms: N_2  and  C_6
    3  A    between atoms: N_2  and  C_26
    4  A    between atoms: C_6  and  S_16
    5  A    between atoms: C_9  and  C_33
    6  A    between atoms: C_11  and  C_28
    7  A    between atoms: C_12  and  S_16
    8  A    between atoms: C_15  and  C_28
    9  A    between atoms: C_18  and  N_19
   10  A    between atoms: C_18  and  C_39
   11  A    between atoms: C_31  and  C_34
                            x       y       z     vdW  Elec       q    Type
                         _______ _______ _______ _____ _____    ______ ____

>  <TORSDO>
F 11

$$$$
=
 OpenBabel11032420233D

 39 44  0  0  1  0  0  0  0  0999 V2000
  191.0310  176.7850  139.7050 C   0  0  0  0  0  3  0  0  0  0  0  0
  189.2430  176.2600  136.6210 C   0  0  0  0  0  3  0  0  0  0  0  0
  189.0340  177.0540  138.8920 C   0  0  0  0  0  0  0  0  0  0  0  0
  191.0660  176.3360  138.3830 C   0  0  0  0  0  0  0  0  0  0  0  0
  187.1110  177.1200  137.4620 C   0  0  0  0  0  0  0  0  0  0  0  0
  189.7860  176.5170  137.8800 C   0  0  0  0  0  0  0  0  0  0  0  0
  189.7810  177.2110  139.9970 N   0  0  0  0  0  0  0  0  0  0  0  0
  187.8870  176.5690  136.4190 C   0  0  0  0  0  3  0  0  0  0  0  0
  187.6870  177.3730  138.7190 C   0  0  0  0  0  3  0  0  0  0  0  0
  194.4880  174.7810  136.3750 C   0  0  0  0  0  3  0  0  0  0  0  0
  193.4890  173.9050  136.8020 C   0  0  0  0  0  3  0  0  0  0  0  0
  194.3650  176.1160  136.6020 N   0  0  0  0  0  0  0  0  0  0  0  0
  192.3700  174.4160  137.4590 C   0  0  0  0  0  3  0  0  0  0  0  0
  192.2530  175.7940  137.6870 C   0  0  0  0  0  0  0  0  0  0  0  0
  193.2810  176.6340  137.2390 C   0  0  0  0  0  3  0  0  0  0  0  0
  185.3900  177.5100  137.1770 S   0  0  0  0  0  0  0  0  0  0  0  0
  185.3150  178.6020  138.6280 C   0  0  0  0  0  2  0  0  0  0  0  0
  184.0710  178.3820  139.3510 N   0  0  0  0  0  2  0  0  0  0  0  0
  185.0680  178.4770  141.6060 C   0  0  0  0  0  3  0  0  0  0  0  0
  183.5890  179.0020  145.0270 C   0  0  0  0  0  1  0  0  0  0  0  0
  183.6590  178.8490  143.5450 C   0  0  0  0  0  0  0  0  0  0  0  0
  182.6860  178.7490  141.3240 C   0  0  0  0  0  3  0  0  0  0  0  0
  183.9480  178.5320  140.7690 C   0  0  0  0  0  0  0  0  0  0  0  0
  184.9210  178.6340  142.9830 C   0  0  0  0  0  3  0  0  0  0  0  0
  182.5150  178.9110  142.7090 C   0  0  0  0  0  0  0  0  0  0  0  0
  180.4420  180.3040  142.9340 O   0  0  0  0  0  0  0  0  0  0  0  0
  180.5800  178.2590  143.9300 O   0  0  0  0  0  1  0  0  0  0  0  0
  181.1410  179.1390  143.2210 C   0  0  0  0  0  0  0  0  0  0  0  0
  189.3600  177.7920  141.2640 C   0  0  0  0  0  2  0  0  0  0  0  0
  189.7660  177.1060  143.6960 C   0  0  2  0  0  3  0  0  0  0  0  0
  190.2860  178.3810  143.3940 O   0  0  0  0  0  0  0  0  0  0  0  0
  190.3580  177.4270  142.3600 C   0  0  2  0  0  3  0  0  0  0  0  0
  188.2470  177.1920  143.7850 C   0  0  0  0  0  2  0  0  0  0  0  0
  187.8010  176.8080  145.1830 C   0  0  0  0  0  2  0  0  0  0  0  0
  188.1950  177.8420  146.1270 N   0  0  0  0  0  0  0  0  0  0  0  0
  187.3310  178.3220  148.2640 N   0  0  0  0  0  2  0  0  0  0  0  0
  189.0440  177.2390  147.0680 N   0  0  0  0  0  2  0  0  0  0  0  0
  188.6840  177.8090  148.3540 C   0  0  0  0  0  2  0  0  0  0  0  0
  186.9990  178.2220  146.8560 C   0  0  0  0  0  2  0  0  0  0  0  0
  1  7  1  0  0  0  0
  2  6  1  0  0  0  0
  3  7  1  0  0  0  0
  4  1  2  0  0  0  0
  5  9  2  0  0  0  0
  6  4  1  0  0  0  0
  6  3  2  0  0  0  0
  7 29  1  0  0  0  0
  8  2  2  0  0  0  0
  8  5  1  0  0  0  0
  9  3  1  0  0  0  0
 10 12  2  0  0  0  0
 10 11  1  0  0  0  0
 11 13  2  0  0  0  0
 12 15  1  0  0  0  0
 13 14  1  0  0  0  0
 14  4  1  0  0  0  0
 15 14  2  0  0  0  0
 16  5  1  0  0  0  0
 16 17  1  0  0  0  0
 17 18  1  0  0  0  0
 18 23  1  0  0  0  0
 19 24  1  0  0  0  0
 21 20  1  0  0  0  0
 22 25  2  0  0  0  0
 23 22  1  0  0  0  0
 23 19  2  0  0  0  0
 24 21  2  0  0  0  0
 25 28  1  0  0  0  0
 25 21  1  0  0  0  0
 26 28  2  0  0  0  0
 28 27  1  0  0  0  0
 30 33  1  6  0  0  0
 31 30  1  0  0  0  0
 32 29  1  6  0  0  0
 32 31  1  0  0  0  0
 32 30  1  0  0  0  0
 33 34  1  0  0  0  0
 34 35  1  0  0  0  0
 35 39  1  0  0  0  0
 35 37  1  0  0  0  0
 36 38  1  0  0  0  0
 37 38  1  0  0  0  0
 39 36  1  0  0  0  0
M  END
>  <MODEL>
5

>  <REMARK>
 VINA RESULT:      -8.1      2.921      8.807
  Name = 
  11 active torsions:
  status: ('A' for Active; 'I' for Inactive)
    1  A    between atoms: N_1  and  C_11
    2  A    between atoms: N_2  and  C_6
    3  A    between atoms: N_2  and  C_26
    4  A    between atoms: C_6  and  S_16
    5  A    between atoms: C_9  and  C_33
    6  A    between atoms: C_11  and  C_28
    7  A    between atoms: C_12  and  S_16
    8  A    between atoms: C_15  and  C_28
    9  A    between atoms: C_18  and  N_19
   10  A    between atoms: C_18  and  C_39
   11  A    between atoms: C_31  and  C_34
                            x       y       z     vdW  Elec       q    Type
                         _______ _______ _______ _____ _____    ______ ____

>  <TORSDO>
F 11

$$$$
=
 OpenBabel11032420233D

 39 44  0  0  1  0  0  0  0  0999 V2000
  187.8220  177.4320  143.5580 C   0  0  0  0  0  3  0  0  0  0  0  0
  186.5030  178.5380  140.3920 C   0  0  0  0  0  3  0  0  0  0  0  0
  188.4350  177.5800  141.4790 C   0  0  0  0  0  0  0  0  0  0  0  0
  186.7510  177.9910  142.8560 C   0  0  0  0  0  0  0  0  0  0  0  0
  188.5140  177.9740  139.1150 C   0  0  0  0  0  0  0  0  0  0  0  0
  187.1590  178.0760  141.5340 C   0  0  0  0  0  0  0  0  0  0  0  0
  188.8410  177.1970  142.7010 N   0  0  0  0  0  0  0  0  0  0  0  0
  187.1980  178.4810  139.1720 C   0  0  0  0  0  3  0  0  0  0  0  0
  189.1480  177.5100  140.2810 C   0  0  0  0  0  3  0  0  0  0  0  0
  183.0100  179.1370  144.5430 C   0  0  0  0  0  3  0  0  0  0  0  0
  183.0740  178.7960  143.1910 C   0  0  0  0  0  3  0  0  0  0  0  0
  184.1330  179.1020  145.3080 N   0  0  0  0  0  0  0  0  0  0  0  0
  184.3000  178.4210  142.6410 C   0  0  0  0  0  3  0  0  0  0  0  0
  185.4510  178.3890  143.4390 C   0  0  0  0  0  0  0  0  0  0  0  0
  185.3370  178.7390  144.7910 C   0  0  0  0  0  3  0  0  0  0  0  0
  189.3730  177.9070  137.5500 S   0  0  0  0  0  0  0  0  0  0  0  0
  190.6730  176.8280  138.2180 C   0  0  0  0  0  2  0  0  0  0  0  0
  191.1250  175.9000  137.1910 N   0  0  0  0  0  2  0  0  0  0  0  0
  193.0860  175.9380  135.6940 C   0  0  0  0  0  3  0  0  0  0  0  0
  196.6560  174.8330  136.1420 C   0  0  0  0  0  1  0  0  0  0  0  0
  195.2230  175.0910  136.4670 C   0  0  0  0  0  0  0  0  0  0  0  0
  193.2880  175.0540  137.9310 C   0  0  0  0  0  3  0  0  0  0  0  0
  192.5060  175.6280  136.9290 C   0  0  0  0  0  0  0  0  0  0  0  0
  194.4350  175.6700  135.4670 C   0  0  0  0  0  3  0  0  0  0  0  0
  194.6500  174.7760  137.7250 C   0  0  0  0  0  0  0  0  0  0  0  0
  196.2620  174.9200  139.6410 O   0  0  0  0  0  1  0  0  0  0  0  0
  195.2970  172.9320  139.0820 O   0  0  0  0  0  0  0  0  0  0  0  0
  195.4150  174.1640  138.8400 C   0  0  0  0  0  0  0  0  0  0  0  0
  190.1130  176.5790  143.0470 C   0  0  0  0  0  2  0  0  0  0  0  0
  191.5940  177.6770  144.8230 C   0  0  2  0  0  3  0  0  0  0  0  0
  190.5810  178.5350  144.3500 O   0  0  0  0  0  0  0  0  0  0  0  0
  191.1350  177.6560  143.3990 C   0  0  2  0  0  3  0  0  0  0  0  0
  190.9740  176.6230  145.7330 C   0  0  0  0  0  2  0  0  0  0  0  0
  191.0600  177.0880  147.1730 C   0  0  0  0  0  2  0  0  0  0  0  0
  189.7690  176.9220  147.8230 N   0  0  0  0  0  0  0  0  0  0  0  0
  188.0980  178.5230  148.2570 N   0  0  0  0  0  2  0  0  0  0  0  0
  188.8080  176.8100  146.8080 N   0  0  0  0  0  2  0  0  0  0  0  0
  187.6530  177.5640  147.2650 C   0  0  0  0  0  2  0  0  0  0  0  0
  189.4810  178.1700  148.5090 C   0  0  0  0  0  2  0  0  0  0  0  0
  2  6  1  0  0  0  0
  3  6  2  0  0  0  0
  3  7  1  0  0  0  0
  4 14  1  0  0  0  0
  4  1  2  0  0  0  0
  5  8  1  0  0  0  0
  5  9  2  0  0  0  0
  6  4  1  0  0  0  0
  7 29  1  0  0  0  0
  7  1  1  0  0  0  0
  8  2  2  0  0  0  0
  9  3  1  0  0  0  0
 10 12  1  0  0  0  0
 11 10  2  0  0  0  0
 13 11  1  0  0  0  0
 13 14  2  0  0  0  0
 14 15  1  0  0  0  0
 15 12  2  0  0  0  0
 16 17  1  0  0  0  0
 16  5  1  0  0  0  0
 18 17  1  0  0  0  0
 19 23  1  0  0  0  0
 20 21  1  0  0  0  0
 21 25  2  0  0  0  0
 23 18  1  0  0  0  0
 23 22  2  0  0  0  0
 24 19  2  0  0  0  0
 24 21  1  0  0  0  0
 25 22  1  0  0  0  0
 25 28  1  0  0  0  0
 28 27  2  0  0  0  0
 28 26  1  0  0  0  0
 30 33  1  1  0  0  0
 31 30  1  0  0  0  0
 32 29  1  1  0  0  0
 32 31  1  0  0  0  0
 32 30  1  0  0  0  0
 33 34  1  0  0  0  0
 34 35  1  0  0  0  0
 35 39  1  0  0  0  0
 36 39  1  0  0  0  0
 37 38  1  0  0  0  0
 37 35  1  0  0  0  0
 38 36  1  0  0  0  0
M  END
>  <MODEL>
6

>  <REMARK>
 VINA RESULT:      -8.1      3.538      8.137
  Name = 
  11 active torsions:
  status: ('A' for Active; 'I' for Inactive)
    1  A    between atoms: N_1  and  C_11
    2  A    between atoms: N_2  and  C_6
    3  A    between atoms: N_2  and  C_26
    4  A    between atoms: C_6  and  S_16
    5  A    between atoms: C_9  and  C_33
    6  A    between atoms: C_11  and  C_28
    7  A    between atoms: C_12  and  S_16
    8  A    between atoms: C_15  and  C_28
    9  A    between atoms: C_18  and  N_19
   10  A    between atoms: C_18  and  C_39
   11  A    between atoms: C_31  and  C_34
                            x       y       z     vdW  Elec       q    Type
                         _______ _______ _______ _____ _____    ______ ____

>  <TORSDO>
F 11

$$$$
=
 OpenBabel11032420233D

 39 44  0  0  1  0  0  0  0  0999 V2000
  184.8490  178.6400  139.4260 C   0  0  0  0  0  3  0  0  0  0  0  0
  186.7160  178.1060  142.4620 C   0  0  0  0  0  3  0  0  0  0  0  0
  186.8870  178.2310  140.0570 C   0  0  0  0  0  0  0  0  0  0  0  0
  184.8330  178.5440  140.8200 C   0  0  0  0  0  0  0  0  0  0  0  0
  188.8690  177.8050  141.3370 C   0  0  0  0  0  0  0  0  0  0  0  0
  186.1400  178.2850  141.2040 C   0  0  0  0  0  0  0  0  0  0  0  0
  186.1090  178.4380  138.9810 N   0  0  0  0  0  0  0  0  0  0  0  0
  188.0990  177.8630  142.5190 C   0  0  0  0  0  3  0  0  0  0  0  0
  188.2620  177.9940  140.0830 C   0  0  0  0  0  3  0  0  0  0  0  0
  181.3970  179.0070  143.2980 C   0  0  0  0  0  3  0  0  0  0  0  0
  182.6660  179.0050  143.8810 C   0  0  0  0  0  3  0  0  0  0  0  0
  181.2670  178.8620  141.9520 N   0  0  0  0  0  0  0  0  0  0  0  0
  183.7890  178.8530  143.0680 C   0  0  0  0  0  3  0  0  0  0  0  0
  183.6420  178.7050  141.6820 C   0  0  0  0  0  0  0  0  0  0  0  0
  182.3490  178.7140  141.1430 C   0  0  0  0  0  3  0  0  0  0  0  0
  190.6270  177.5010  141.4370 S   0  0  0  0  0  0  0  0  0  0  0  0
  190.4200  176.2690  142.7570 C   0  0  0  0  0  2  0  0  0  0  0  0
  191.0830  176.7250  143.9710 N   0  0  0  0  0  2  0  0  0  0  0  0
  191.0400  176.9740  146.4250 C   0  0  0  0  0  3  0  0  0  0  0  0
  188.3050  177.8750  148.8490 C   0  0  0  0  0  1  0  0  0  0  0  0
  188.9810  177.5860  147.5510 C   0  0  0  0  0  0  0  0  0  0  0  0
  189.0310  177.3350  145.1370 C   0  0  0  0  0  3  0  0  0  0  0  0
  190.3860  177.0070  145.1890 C   0  0  0  0  0  0  0  0  0  0  0  0
  190.3400  177.2600  147.5960 C   0  0  0  0  0  3  0  0  0  0  0  0
  188.3060  177.6290  146.3040 C   0  0  0  0  0  0  0  0  0  0  0  0
  186.3720  179.2070  146.5540 O   0  0  0  0  0  1  0  0  0  0  0  0
  186.0660  177.1240  145.6810 O   0  0  0  0  0  0  0  0  0  0  0  0
  186.8670  177.9680  146.1660 C   0  0  0  0  0  0  0  0  0  0  0  0
  186.5360  178.5040  137.5910 C   0  0  0  0  0  2  0  0  0  0  0  0
  187.3170  176.6950  135.9580 C   0  0  2  0  0  3  0  0  0  0  0  0
  186.1700  177.3790  135.5070 O   0  0  0  0  0  0  0  0  0  0  0  0
  186.2560  177.1730  136.8980 C   0  0  2  0  0  3  0  0  0  0  0  0
  188.5320  177.6040  135.8130 C   0  0  0  0  0  2  0  0  0  0  0  0
  189.7950  176.7670  135.8510 C   0  0  0  0  0  2  0  0  0  0  0  0
  190.0460  176.3140  137.2110 N   0  0  0  0  0  0  0  0  0  0  0  0
  191.3420  174.5000  137.9680 N   0  0  0  0  0  2  0  0  0  0  0  0
  191.2970  176.8230  137.5910 N   0  0  0  0  0  2  0  0  0  0  0  0
  191.9480  175.7630  138.3420 C   0  0  0  0  0  2  0  0  0  0  0  0
  190.2040  174.8720  137.1510 C   0  0  0  0  0  2  0  0  0  0  0  0
  1  4  2  0  0  0  0
  2  8  1  0  0  0  0
  3  9  2  0  0  0  0
  3  6  1  0  0  0  0
  4  6  1  0  0  0  0
  4 14  1  0  0  0  0
  5 16  1  0  0  0  0
  5  8  2  0  0  0  0
  6  2  2  0  0  0  0
  7  1  1  0  0  0  0
  7  3  1  0  0  0  0
  9  5  1  0  0  0  0
 10 11  1  0  0  0  0
 12 10  2  0  0  0  0
 13 11  2  0  0  0  0
 14 13  1  0  0  0  0
 15 14  2  0  0  0  0
 15 12  1  0  0  0  0
 16 17  1  0  0  0  0
 17 18  1  0  0  0  0
 18 23  1  0  0  0  0
 19 24  1  0  0  0  0
 21 24  2  0  0  0  0
 21 20  1  0  0  0  0
 22 23  1  0  0  0  0
 22 25  2  0  0  0  0
 23 19  2  0  0  0  0
 25 21  1  0  0  0  0
 27 28  2  0  0  0  0
 28 25  1  0  0  0  0
 28 26  1  0  0  0  0
 29  7  1  0  0  0  0
 30 33  1  1  0  0  0
 30 32  1  0  0  0  0
 31 30  1  0  0  0  0
 31 32  1  0  0  0  0
 32 29  1  1  0  0  0
 33 34  1  0  0  0  0
 34 35  1  0  0  0  0
 35 37  1  0  0  0  0
 36 38  1  0  0  0  0
 37 38  1  0  0  0  0
 39 35  1  0  0  0  0
 39 36  1  0  0  0  0
M  END
>  <MODEL>
7

>  <REMARK>
 VINA RESULT:      -8.1      2.819      4.098
  Name = 
  11 active torsions:
  status: ('A' for Active; 'I' for Inactive)
    1  A    between atoms: N_1  and  C_11
    2  A    between atoms: N_2  and  C_6
    3  A    between atoms: N_2  and  C_26
    4  A    between atoms: C_6  and  S_16
    5  A    between atoms: C_9  and  C_33
    6  A    between atoms: C_11  and  C_28
    7  A    between atoms: C_12  and  S_16
    8  A    between atoms: C_15  and  C_28
    9  A    between atoms: C_18  and  N_19
   10  A    between atoms: C_18  and  C_39
   11  A    between atoms: C_31  and  C_34
                            x       y       z     vdW  Elec       q    Type
                         _______ _______ _______ _____ _____    ______ ____

>  <TORSDO>
F 11

$$$$
=
 OpenBabel11032420233D

 39 44  0  0  1  0  0  0  0  0999 V2000
  184.9180  178.9470  138.7230 C   0  0  0  0  0  3  0  0  0  0  0  0
  186.5400  178.2540  141.8650 C   0  0  0  0  0  3  0  0  0  0  0  0
  184.4550  178.9220  140.8460 C   0  0  0  0  0  0  0  0  0  0  0  0
  186.0870  178.5750  139.3900 C   0  0  0  0  0  0  0  0  0  0  0  0
  184.5580  178.7010  143.2300 C   0  0  0  0  0  0  0  0  0  0  0  0
  185.7730  178.5620  140.7410 C   0  0  0  0  0  0  0  0  0  0  0  0
  183.9370  179.1620  139.6290 N   0  0  0  0  0  0  0  0  0  0  0  0
  185.9150  178.3270  143.1220 C   0  0  0  0  0  3  0  0  0  0  0  0
  183.8080  179.0000  142.0790 C   0  0  0  0  0  3  0  0  0  0  0  0
  189.8190  177.6480  137.5530 C   0  0  0  0  0  3  0  0  0  0  0  0
  188.7430  178.0420  136.7550 C   0  0  0  0  0  3  0  0  0  0  0  0
  189.6700  177.5620  138.9020 N   0  0  0  0  0  0  0  0  0  0  0  0
  187.5230  178.3450  137.3590 C   0  0  0  0  0  3  0  0  0  0  0  0
  187.3810  178.2530  138.7500 C   0  0  0  0  0  0  0  0  0  0  0  0
  188.4890  177.8540  139.5090 C   0  0  0  0  0  3  0  0  0  0  0  0
  183.7850  178.7800  144.8400 S   0  0  0  0  0  0  0  0  0  0  0  0
  185.3090  179.3770  145.6310 C   0  0  0  0  0  2  0  0  0  0  0  0
  185.8200  178.3690  146.5480 N   0  0  0  0  0  2  0  0  0  0  0  0
  187.8690  177.7880  147.7920 C   0  0  0  0  0  3  0  0  0  0  0  0
  191.3010  176.7040  146.6870 C   0  0  0  0  0  1  0  0  0  0  0  0
  189.8750  177.1330  146.5950 C   0  0  0  0  0  0  0  0  0  0  0  0
  187.8560  177.7110  145.3790 C   0  0  0  0  0  3  0  0  0  0  0  0
  187.1910  177.9580  146.5810 C   0  0  0  0  0  0  0  0  0  0  0  0
  189.2030  177.3790  147.7960 C   0  0  0  0  0  3  0  0  0  0  0  0
  189.1980  177.2970  145.3600 C   0  0  0  0  0  0  0  0  0  0  0  0
  189.4330  176.0070  143.2210 O   0  0  0  0  0  0  0  0  0  0  0  0
  190.7600  177.8130  143.6400 O   0  0  0  0  0  1  0  0  0  0  0  0
  189.8350  177.0550  144.0410 C   0  0  0  0  0  0  0  0  0  0  0  0
  182.5620  179.5210  139.3180 C   0  0  0  0  0  2  0  0  0  0  0  0
  181.1450  179.3220  137.1960 C   0  0  2  0  0  3  0  0  0  0  0  0
  180.6350  178.5600  138.2660 O   0  0  0  0  0  0  0  0  0  0  0  0
  182.0380  178.6430  138.1840 C   0  0  2  0  0  3  0  0  0  0  0  0
  180.8710  180.7990  137.4570 C   0  0  0  0  0  2  0  0  0  0  0  0
  180.3690  181.4510  136.1840 C   0  0  0  0  0  2  0  0  0  0  0  0
  180.0790  182.8550  136.4300 N   0  0  0  0  0  0  0  0  0  0  0  0
  181.5550  184.6260  136.9080 N   0  0  0  0  0  2  0  0  0  0  0  0
  180.3120  183.5420  135.2300 N   0  0  0  0  0  2  0  0  0  0  0  0
  180.9500  184.7930  135.6020 C   0  0  0  0  0  2  0  0  0  0  0  0
  181.0820  183.3340  137.3650 C   0  0  0  0  0  2  0  0  0  0  0  0
  1  4  2  0  0  0  0
  1  7  1  0  0  0  0
  2  8  1  0  0  0  0
  3  9  2  0  0  0  0
  4  6  1  0  0  0  0
  5 16  1  0  0  0  0
  6  3  1  0  0  0  0
  6  2  2  0  0  0  0
  7  3  1  0  0  0  0
  8  5  2  0  0  0  0
  9  5  1  0  0  0  0
 10 12  1  0  0  0  0
 11 13  1  0  0  0  0
 11 10  2  0  0  0  0
 12 15  2  0  0  0  0
 13 14  2  0  0  0  0
 14  4  1  0  0  0  0
 14 15  1  0  0  0  0
 16 17  1  0  0  0  0
 17 18  1  0  0  0  0
 18 23  1  0  0  0  0
 19 24  1  0  0  0  0
 21 20  1  0  0  0  0
 21 24  2  0  0  0  0
 22 23  1  0  0  0  0
 23 19  2  0  0  0  0
 25 22  2  0  0  0  0
 25 21  1  0  0  0  0
 26 28  2  0  0  0  0
 27 28  1  0  0  0  0
 28 25  1  0  0  0  0
 29  7  1  0  0  0  0
 30 33  1  1  0  0  0
 30 32  1  0  0  0  0
 30 31  1  0  0  0  0
 32 31  1  0  0  0  0
 32 29  1  1  0  0  0
 34 35  1  0  0  0  0
 34 33  1  0  0  0  0
 35 39  1  0  0  0  0
 36 39  1  0  0  0  0
 37 38  1  0  0  0  0
 37 35  1  0  0  0  0
 38 36  1  0  0  0  0
M  END
>  <MODEL>
8

>  <REMARK>
 VINA RESULT:      -8.1      2.673      6.888
  Name = 
  11 active torsions:
  status: ('A' for Active; 'I' for Inactive)
    1  A    between atoms: N_1  and  C_11
    2  A    between atoms: N_2  and  C_6
    3  A    between atoms: N_2  and  C_26
    4  A    between atoms: C_6  and  S_16
    5  A    between atoms: C_9  and  C_33
    6  A    between atoms: C_11  and  C_28
    7  A    between atoms: C_12  and  S_16
    8  A    between atoms: C_15  and  C_28
    9  A    between atoms: C_18  and  N_19
   10  A    between atoms: C_18  and  C_39
   11  A    between atoms: C_31  and  C_34
                            x       y       z     vdW  Elec       q    Type
                         _______ _______ _______ _____ _____    ______ ____

>  <TORSDO>
F 11

$$$$
=
 OpenBabel11032420233D

 39 44  0  0  1  0  0  0  0  0999 V2000
  185.6450  178.5980  142.2250 C   0  0  0  0  0  3  0  0  0  0  0  0
  182.7380  178.6290  144.3560 C   0  0  0  0  0  3  0  0  0  0  0  0
  183.4890  178.8250  142.0690 C   0  0  0  0  0  0  0  0  0  0  0  0
  185.1300  178.5040  143.5210 C   0  0  0  0  0  0  0  0  0  0  0  0
  181.1430  178.9820  142.5340 C   0  0  0  0  0  0  0  0  0  0  0  0
  183.7560  178.6490  143.4020 C   0  0  0  0  0  0  0  0  0  0  0  0
  184.6280  178.8010  141.3570 N   0  0  0  0  0  0  0  0  0  0  0  0
  181.4180  178.7980  143.9060 C   0  0  0  0  0  3  0  0  0  0  0  0
  182.1880  178.9930  141.5940 C   0  0  0  0  0  3  0  0  0  0  0  0
  187.4080  177.8700  147.0660 C   0  0  0  0  0  3  0  0  0  0  0  0
  187.8440  177.3100  145.8640 C   0  0  0  0  0  3  0  0  0  0  0  0
  186.2660  178.6080  147.0980 N   0  0  0  0  0  0  0  0  0  0  0  0
  187.0970  177.5200  144.7050 C   0  0  0  0  0  3  0  0  0  0  0  0
  185.9220  178.2820  144.7500 C   0  0  0  0  0  0  0  0  0  0  0  0
  185.5250  178.8240  145.9790 C   0  0  0  0  0  3  0  0  0  0  0  0
  179.4540  179.1890  141.9870 S   0  0  0  0  0  0  0  0  0  0  0  0
  179.8990  180.5490  140.8670 C   0  0  0  0  0  2  0  0  0  0  0  0
  179.1480  180.4350  139.6240 N   0  0  0  0  0  2  0  0  0  0  0  0
  179.5070  180.3100  137.1870 C   0  0  0  0  0  3  0  0  0  0  0  0
  180.8380  182.7790  134.6770 C   0  0  0  0  0  1  0  0  0  0  0  0
  180.4100  182.2170  135.9910 C   0  0  0  0  0  0  0  0  0  0  0  0
  180.0580  182.3300  138.3890 C   0  0  0  0  0  3  0  0  0  0  0  0
  179.5760  181.0200  138.3900 C   0  0  0  0  0  0  0  0  0  0  0  0
  179.9230  180.9070  135.9970 C   0  0  0  0  0  3  0  0  0  0  0  0
  180.4810  182.9510  137.2020 C   0  0  0  0  0  0  0  0  0  0  0  0
  182.3060  184.6270  137.5940 O   0  0  0  0  0  1  0  0  0  0  0  0
  180.1970  185.3090  137.0630 O   0  0  0  0  0  0  0  0  0  0  0  0
  180.9810  184.3460  137.2840 C   0  0  0  0  0  0  0  0  0  0  0  0
  184.7590  178.9060  139.9110 C   0  0  0  0  0  2  0  0  0  0  0  0
  184.3760  177.3180  137.9400 C   0  0  2  0  0  3  0  0  0  0  0  0
  183.4380  178.3690  137.9850 O   0  0  0  0  0  0  0  0  0  0  0  0
  183.8640  177.8720  139.2320 C   0  0  2  0  0  3  0  0  0  0  0  0
  185.7200  177.8660  137.4720 C   0  0  0  0  0  2  0  0  0  0  0  0
  186.6890  176.7170  137.2710 C   0  0  0  0  0  2  0  0  0  0  0  0
  188.0470  177.2290  137.1780 N   0  0  0  0  0  0  0  0  0  0  0  0
  188.8730  179.3780  137.6740 N   0  0  0  0  0  2  0  0  0  0  0  0
  188.5970  177.1800  138.4670 N   0  0  0  0  0  2  0  0  0  0  0  0
  189.3720  178.3990  138.6190 C   0  0  0  0  0  2  0  0  0  0  0  0
  187.9430  178.6390  136.8430 C   0  0  0  0  0  2  0  0  0  0  0  0
  1  4  2  0  0  0  0
  3  6  1  0  0  0  0
  4 14  1  0  0  0  0
  5  8  2  0  0  0  0
  6  4  1  0  0  0  0
  6  2  2  0  0  0  0
  7  3  1  0  0  0  0
  7  1  1  0  0  0  0
  8  2  1  0  0  0  0
  9  3  2  0  0  0  0
  9  5  1  0  0  0  0
 10 12  1  0  0  0  0
 11 10  2  0  0  0  0
 13 14  2  0  0  0  0
 13 11  1  0  0  0  0
 14 15  1  0  0  0  0
 15 12  2  0  0  0  0
 16  5  1  0  0  0  0
 17 16  1  0  0  0  0
 18 17  1  0  0  0  0
 19 23  1  0  0  0  0
 20 21  1  0  0  0  0
 21 24  1  0  0  0  0
 21 25  2  0  0  0  0
 22 23  2  0  0  0  0
 23 18  1  0  0  0  0
 24 19  2  0  0  0  0
 25 28  1  0  0  0  0
 25 22  1  0  0  0  0
 27 28  2  0  0  0  0
 28 26  1  0  0  0  0
 29  7  1  0  0  0  0
 30 33  1  1  0  0  0
 30 31  1  0  0  0  0
 30 32  1  0  0  0  0
 31 32  1  0  0  0  0
 32 29  1  1  0  0  0
 34 33  1  0  0  0  0
 35 34  1  0  0  0  0
 35 37  1  0  0  0  0
 36 38  1  0  0  0  0
 37 38  1  0  0  0  0
 39 35  1  0  0  0  0
 39 36  1  0  0  0  0
M  END
>  <MODEL>
9

>  <REMARK>
 VINA RESULT:      -8.0      3.411      9.085
  Name = 
  11 active torsions:
  status: ('A' for Active; 'I' for Inactive)
    1  A    between atoms: N_1  and  C_11
    2  A    between atoms: N_2  and  C_6
    3  A    between atoms: N_2  and  C_26
    4  A    between atoms: C_6  and  S_16
    5  A    between atoms: C_9  and  C_33
    6  A    between atoms: C_11  and  C_28
    7  A    between atoms: C_12  and  S_16
    8  A    between atoms: C_15  and  C_28
    9  A    between atoms: C_18  and  N_19
   10  A    between atoms: C_18  and  C_39
   11  A    between atoms: C_31  and  C_34
                            x       y       z     vdW  Elec       q    Type
                         _______ _______ _______ _____ _____    ______ ____

>  <TORSDO>
F 11

$$$$
