=
 OpenBabel11032420303D

 33 37  0  0  1  0  0  0  0  0999 V2000
  188.8250  176.8170  139.2440 N   0  0  0  0  0  2  0  0  0  0  0  0
  191.0720  176.6590  138.0240 C   0  0  2  0  0  3  0  0  0  0  0  0
  192.4020  174.7810  137.5460 N   0  0  0  0  0  0  0  0  0  0  0  0
  190.8310  177.0830  140.5310 C   0  0  0  0  0  0  0  0  0  0  0  0
  193.4260  176.3700  138.9620 N   0  0  0  0  0  2  0  0  0  0  0  0
  190.3510  175.8060  136.9770 C   0  0  0  0  0  3  0  0  0  0  0  0
  192.3320  175.8850  138.1990 C   0  0  0  0  0  0  0  0  0  0  0  0
  192.2260  177.4010  140.7170 N   0  0  0  0  0  2  0  0  0  0  0  0
  191.1860  174.5430  136.8010 C   0  0  0  0  0  3  0  0  0  0  0  0
  190.2650  176.8070  139.3170 C   0  0  0  0  0  0  0  0  0  0  0  0
  193.2460  177.5990  139.7010 C   0  0  0  0  0  2  0  0  0  0  0  0
  188.8430  176.4090  143.4540 C   0  0  0  0  0  3  0  0  0  0  0  0
  189.0330  177.8820  143.6090 C   0  0  1  0  0  3  0  0  0  0  0  0
  189.8240  178.1700  144.8710 C   0  0  0  0  0  1  0  0  0  0  0  0
  190.0120  177.1220  141.7700 C   0  0  0  0  0  0  0  0  0  0  0  0
  189.8350  178.2110  142.4420 N   0  0  0  0  0  0  0  0  0  0  0  0
  189.4170  175.9840  142.3800 N   0  0  0  0  0  0  0  0  0  0  0  0
  188.0120  178.2150  137.3860 C   0  0  0  0  0  2  0  0  0  0  0  0
  188.7280  179.1620  138.3410 C   0  0  0  0  0  2  0  0  0  0  0  0
  187.9870  177.9550  138.8750 C   0  0  0  0  0  0  0  0  0  0  0  0
  186.6210  178.1030  139.5740 C   0  0  2  0  0  3  0  0  0  0  0  0
  183.1930  179.4250  138.8400 C   0  0  0  0  0  3  0  0  0  0  0  0
  185.4750  178.4320  138.6090 C   0  0  1  0  0  3  0  0  0  0  0  0
  181.6120  178.8520  137.1660 O   0  0  0  0  0  1  0  0  0  0  0  0
  183.6280  177.5630  137.1910 C   0  0  0  0  0  2  0  0  0  0  0  0
  184.7930  177.1680  138.0880 C   0  0  0  0  0  2  0  0  0  0  0  0
  184.4980  179.4500  139.1530 C   0  0  0  0  0  3  0  0  0  0  0  0
  182.5850  178.3230  138.0110 C   0  0  1  0  0  3  0  0  0  0  0  0
  186.6050  178.8630  140.9090 C   0  0  0  0  0  2  0  0  0  0  0  0
  185.9510  178.0940  141.9560 N   0  0  0  0  0  2  0  0  0  0  0  0
  185.2140  179.0430  142.7750 C   0  0  0  0  0  2  0  0  0  0  0  0
  184.9520  178.4450  144.1450 C   0  0  0  0  0  2  0  0  0  0  0  0
  183.7680  178.9670  144.6700 O   0  0  0  0  0  1  0  0  0  0  0  0
  1 10  1  0  0  0  0
  2  6  1  6  0  0  0
  2  7  1  0  0  0  0
  2 10  1  0  0  0  0
  3  7  2  0  0  0  0
  4  8  1  0  0  0  0
  4 15  1  0  0  0  0
  5 11  1  0  0  0  0
  7  5  1  0  0  0  0
  9  6  2  0  0  0  0
  9  3  1  0  0  0  0
 10  4  2  0  0  0  0
 11  8  1  0  0  0  0
 12 13  1  0  0  0  0
 13 14  1  1  0  0  0
 15 17  1  0  0  0  0
 15 16  2  0  0  0  0
 16 13  1  0  0  0  0
 17 12  2  0  0  0  0
 18 19  1  0  0  0  0
 18 20  1  0  0  0  0
 19 20  1  0  0  0  0
 20  1  1  0  0  0  0
 20 21  1  0  0  0  0
 21 29  1  1  0  0  0
 22 27  2  0  0  0  0
 23 27  1  0  0  0  0
 23 21  1  1  0  0  0
 25 28  1  0  0  0  0
 25 26  1  0  0  0  0
 26 23  1  0  0  0  0
 28 24  1  6  0  0  0
 28 22  1  0  0  0  0
 29 30  1  0  0  0  0
 30 31  1  0  0  0  0
 31 32  1  0  0  0  0
 32 33  1  0  0  0  0
M  END
>  <MODEL>
1

>  <REMARK>
 VINA RESULT:      -5.8      0.000      0.000
  Name = 
  9 active torsions:
  status: ('A' for Active; 'I' for Inactive)
    1  A    between atoms: C_5  and  C_9
    2  A    between atoms: C_6  and  C_8
    3  A    between atoms: C_8  and  N_30
    4  A    between atoms: C_9  and  C_17
    5  A    between atoms: C_9  and  C_32
    6  A    between atoms: C_13  and  C_26
    7  A    between atoms: C_17  and  N_30
    8  A    between atoms: N_24  and  C_27
    9  A    between atoms: N_24  and  C_32
                            x       y       z     vdW  Elec       q    Type
                         _______ _______ _______ _____ _____    ______ ____

>  <TORSDO>
F 9

$$$$
=
 OpenBabel11032420303D

 33 37  0  0  1  0  0  0  0  0999 V2000
  184.0660  177.7450  141.9840 N   0  0  0  0  0  2  0  0  0  0  0  0
  182.0960  179.2790  142.5570 C   0  0  2  0  0  3  0  0  0  0  0  0
  179.9270  178.7430  143.2880 N   0  0  0  0  0  0  0  0  0  0  0  0
  182.5900  178.3990  140.2110 C   0  0  0  0  0  0  0  0  0  0  0  0
  180.0120  179.8410  141.2000 N   0  0  0  0  0  2  0  0  0  0  0  0
  182.1870  178.7270  143.9820 C   0  0  0  0  0  3  0  0  0  0  0  0
  180.6240  179.2550  142.3380 C   0  0  0  0  0  0  0  0  0  0  0  0
  181.6220  179.2580  139.5720 N   0  0  0  0  0  0  0  0  0  0  0  0
  180.7810  178.2740  144.3580 C   0  0  0  0  0  3  0  0  0  0  0  0
  182.8740  178.4290  141.5490 C   0  0  1  0  0  3  0  0  0  0  0  0
  180.8700  180.3550  140.1560 C   0  0  0  0  0  2  0  0  0  0  0  0
  183.7980  175.6790  138.1860 C   0  0  0  0  0  3  0  0  0  0  0  0
  184.7230  176.7620  137.7380 C   0  0  1  0  0  3  0  0  0  0  0  0
  184.5020  177.0530  136.2660 C   0  0  0  0  0  1  0  0  0  0  0  0
  183.3150  177.4850  139.2920 C   0  0  0  0  0  0  0  0  0  0  0  0
  184.2770  177.8950  138.5340 N   0  0  0  0  0  0  0  0  0  0  0  0
  182.9870  176.1160  139.0900 N   0  0  0  0  0  0  0  0  0  0  0  0
  185.2090  179.8270  142.6380 C   0  0  0  0  0  2  0  0  0  0  0  0
  185.8200  179.4140  141.3040 C   0  0  0  0  0  2  0  0  0  0  0  0
  185.3540  178.3630  142.2890 C   0  0  0  0  0  0  0  0  0  0  0  0
  186.3620  177.5550  143.1300 C   0  0  2  0  0  3  0  0  0  0  0  0
  188.2610  177.7000  146.3560 C   0  0  0  0  0  3  0  0  0  0  0  0
  186.6810  178.1990  144.4850 C   0  0  1  0  0  3  0  0  0  0  0  0
  187.6580  178.5170  148.5010 O   0  0  0  0  0  1  0  0  0  0  0  0
  185.9510  178.6040  146.8250 C   0  0  0  0  0  2  0  0  0  0  0  0
  185.5460  178.0010  145.4870 C   0  0  0  0  0  2  0  0  0  0  0  0
  188.0330  177.8080  145.0370 C   0  0  0  0  0  3  0  0  0  0  0  0
  187.1640  177.8560  147.3780 C   0  0  1  0  0  3  0  0  0  0  0  0
  187.5610  176.9510  142.3820 C   0  0  0  0  0  2  0  0  0  0  0  0
  188.4390  177.9840  141.8540 N   0  0  0  0  0  2  0  0  0  0  0  0
  189.2140  177.3710  140.7880 C   0  0  0  0  0  2  0  0  0  0  0  0
  189.0740  178.1860  139.5150 C   0  0  0  0  0  2  0  0  0  0  0  0
  187.8490  177.9060  138.9070 O   0  0  0  0  0  1  0  0  0  0  0  0
  1 20  1  0  0  0  0
  2  6  1  1  0  0  0
  3  9  1  0  0  0  0
  4 10  1  0  0  0  0
  5  7  1  0  0  0  0
  6  9  2  0  0  0  0
  7  2  1  0  0  0  0
  7  3  2  0  0  0  0
  8 11  1  0  0  0  0
  8  4  2  0  0  0  0
 10  1  1  6  0  0  0
 10  2  1  0  0  0  0
 11  5  1  0  0  0  0
 12 17  2  0  0  0  0
 13 14  1  6  0  0  0
 13 12  1  0  0  0  0
 13 16  1  0  0  0  0
 15  4  1  0  0  0  0
 16 15  2  0  0  0  0
 17 15  1  0  0  0  0
 19 20  1  0  0  0  0
 19 18  1  0  0  0  0
 20 18  1  0  0  0  0
 20 21  1  0  0  0  0
 21 29  1  6  0  0  0
 22 28  1  0  0  0  0
 23 21  1  6  0  0  0
 23 27  1  0  0  0  0
 23 26  1  0  0  0  0
 25 28  1  0  0  0  0
 26 25  1  0  0  0  0
 27 22  2  0  0  0  0
 28 24  1  1  0  0  0
 30 29  1  0  0  0  0
 31 30  1  0  0  0  0
 32 31  1  0  0  0  0
 33 32  1  0  0  0  0
M  END
>  <MODEL>
2

>  <REMARK>
 VINA RESULT:      -5.8      3.237      8.865
  Name = 
  9 active torsions:
  status: ('A' for Active; 'I' for Inactive)
    1  A    between atoms: C_5  and  C_9
    2  A    between atoms: C_6  and  C_8
    3  A    between atoms: C_8  and  N_30
    4  A    between atoms: C_9  and  C_17
    5  A    between atoms: C_9  and  C_32
    6  A    between atoms: C_13  and  C_26
    7  A    between atoms: C_17  and  N_30
    8  A    between atoms: N_24  and  C_27
    9  A    between atoms: N_24  and  C_32
                            x       y       z     vdW  Elec       q    Type
                         _______ _______ _______ _____ _____    ______ ____

>  <TORSDO>
F 9

$$$$
=
 OpenBabel11032420303D

 33 37  0  0  1  0  0  0  0  0999 V2000
  183.0280  176.1370  139.0650 N   0  0  0  0  0  2  0  0  0  0  0  0
  180.5680  175.5380  138.6750 C   0  0  2  0  0  3  0  0  0  0  0  0
  179.2170  173.9360  139.7410 N   0  0  0  0  0  0  0  0  0  0  0  0
  182.5170  174.4900  137.3980 C   0  0  0  0  0  0  0  0  0  0  0  0
  179.5440  173.5610  137.4320 N   0  0  0  0  0  2  0  0  0  0  0  0
  180.3130  175.9970  140.1130 C   0  0  0  0  0  3  0  0  0  0  0  0
  179.7670  174.2830  138.6330 C   0  0  0  0  0  0  0  0  0  0  0  0
  181.6680  173.8330  136.4340 N   0  0  0  0  0  0  0  0  0  0  0  0
  179.5490  174.8680  140.7950 C   0  0  0  0  0  3  0  0  0  0  0  0
  182.0560  175.3190  138.3850 C   0  0  1  0  0  3  0  0  0  0  0  0
  180.2370  173.9930  136.2390 C   0  0  0  0  0  2  0  0  0  0  0  0
  185.9210  173.3250  137.4860 C   0  0  0  0  0  3  0  0  0  0  0  0
  186.0220  174.3290  136.3860 C   0  0  1  0  0  3  0  0  0  0  0  0
  186.3840  173.6340  135.0860 C   0  0  0  0  0  1  0  0  0  0  0  0
  183.9710  174.2410  137.2220 C   0  0  0  0  0  0  0  0  0  0  0  0
  184.6630  174.8380  136.3080 N   0  0  0  0  0  0  0  0  0  0  0  0
  184.7220  173.2880  137.9620 N   0  0  0  0  0  0  0  0  0  0  0  0
  183.1630  177.8690  137.3170 C   0  0  0  0  0  2  0  0  0  0  0  0
  184.5540  177.7880  137.9370 C   0  0  0  0  0  2  0  0  0  0  0  0
  183.3240  177.5400  138.7850 C   0  0  0  0  0  0  0  0  0  0  0  0
  182.8170  178.5990  139.7830 C   0  0  2  0  0  3  0  0  0  0  0  0
  182.3050  179.0800  143.4630 C   0  0  0  0  0  3  0  0  0  0  0  0
  183.1010  178.2420  141.2480 C   0  0  1  0  0  3  0  0  0  0  0  0
  183.7540  178.7390  145.3110 O   0  0  0  0  0  1  0  0  0  0  0  0
  184.7000  178.3470  143.1480 C   0  0  0  0  0  2  0  0  0  0  0  0
  184.5050  178.6690  141.6730 C   0  0  0  0  0  2  0  0  0  0  0  0
  182.0260  178.7080  142.2040 C   0  0  0  0  0  3  0  0  0  0  0  0
  183.7160  179.1640  143.9850 C   0  0  1  0  0  3  0  0  0  0  0  0
  181.4350  179.2090  139.5040 C   0  0  0  0  0  2  0  0  0  0  0  0
  181.5360  180.6010  139.0950 N   0  0  0  0  0  2  0  0  0  0  0  0
  180.2210  181.1910  139.2880 C   0  0  0  0  0  2  0  0  0  0  0  0
  179.5080  180.4950  140.4340 C   0  0  0  0  0  2  0  0  0  0  0  0
  179.5880  181.2790  141.5860 O   0  0  0  0  0  1  0  0  0  0  0  0
  2  6  1  1  0  0  0
  3  9  1  0  0  0  0
  4 10  1  0  0  0  0
  5  7  1  0  0  0  0
  6  9  2  0  0  0  0
  7  2  1  0  0  0  0
  7  3  2  0  0  0  0
  8  4  2  0  0  0  0
 10  2  1  0  0  0  0
 10  1  1  6  0  0  0
 11  8  1  0  0  0  0
 11  5  1  0  0  0  0
 12 17  2  0  0  0  0
 13 14  1  6  0  0  0
 13 12  1  0  0  0  0
 15  4  1  0  0  0  0
 15 17  1  0  0  0  0
 16 13  1  0  0  0  0
 16 15  2  0  0  0  0
 18 19  1  0  0  0  0
 18 20  1  0  0  0  0
 19 20  1  0  0  0  0
 20  1  1  0  0  0  0
 20 21  1  0  0  0  0
 21 29  1  1  0  0  0
 22 28  1  0  0  0  0
 23 21  1  6  0  0  0
 23 26  1  0  0  0  0
 23 27  1  0  0  0  0
 25 28  1  0  0  0  0
 26 25  1  0  0  0  0
 27 22  2  0  0  0  0
 28 24  1  1  0  0  0
 30 31  1  0  0  0  0
 30 29  1  0  0  0  0
 31 32  1  0  0  0  0
 32 33  1  0  0  0  0
M  END
>  <MODEL>
3

>  <REMARK>
 VINA RESULT:      -5.7      5.124      8.467
  Name = 
  9 active torsions:
  status: ('A' for Active; 'I' for Inactive)
    1  A    between atoms: C_5  and  C_9
    2  A    between atoms: C_6  and  C_8
    3  A    between atoms: C_8  and  N_30
    4  A    between atoms: C_9  and  C_17
    5  A    between atoms: C_9  and  C_32
    6  A    between atoms: C_13  and  C_26
    7  A    between atoms: C_17  and  N_30
    8  A    between atoms: N_24  and  C_27
    9  A    between atoms: N_24  and  C_32
                            x       y       z     vdW  Elec       q    Type
                         _______ _______ _______ _____ _____    ______ ____

>  <TORSDO>
F 9

$$$$
=
 OpenBabel11032420303D

 33 37  0  0  1  0  0  0  0  0999 V2000
  189.1220  178.1030  144.1170 N   0  0  0  0  0  2  0  0  0  0  0  0
  191.2890  177.2870  145.2130 C   0  0  2  0  0  3  0  0  0  0  0  0
  192.0930  175.1000  145.5260 N   0  0  0  0  0  0  0  0  0  0  0  0
  189.1200  177.7310  146.4860 C   0  0  0  0  0  0  0  0  0  0  0  0
  191.6760  176.2850  147.5250 N   0  0  0  0  0  2  0  0  0  0  0  0
  191.6660  176.7080  143.8470 C   0  0  0  0  0  3  0  0  0  0  0  0
  191.6760  176.1650  146.1110 C   0  0  0  0  0  0  0  0  0  0  0  0
  189.7350  177.6070  147.7850 N   0  0  0  0  0  2  0  0  0  0  0  0
  192.0530  175.2540  144.0880 C   0  0  0  0  0  3  0  0  0  0  0  0
  189.8060  177.6550  145.3040 C   0  0  0  0  0  0  0  0  0  0  0  0
  191.1490  177.5000  148.1040 C   0  0  0  0  0  2  0  0  0  0  0  0
  185.7840  178.9930  146.9700 C   0  0  0  0  0  3  0  0  0  0  0  0
  185.5010  177.8790  146.0180 C   0  0  1  0  0  3  0  0  0  0  0  0
  184.9470  178.4380  144.7210 C   0  0  0  0  0  1  0  0  0  0  0  0
  187.6590  177.9990  146.5100 C   0  0  0  0  0  0  0  0  0  0  0  0
  186.8260  177.3270  145.7880 N   0  0  0  0  0  0  0  0  0  0  0  0
  187.0430  179.0480  147.2470 N   0  0  0  0  0  0  0  0  0  0  0  0
  187.3890  176.7510  143.0020 C   0  0  0  0  0  2  0  0  0  0  0  0
  188.5740  175.8180  143.2200 C   0  0  0  0  0  2  0  0  0  0  0  0
  188.8020  177.2900  142.9460 C   0  0  0  0  0  0  0  0  0  0  0  0
  189.2950  177.7770  141.5700 C   0  0  2  0  0  3  0  0  0  0  0  0
  185.7910  179.0060  141.0690 C   0  0  0  0  0  3  0  0  0  0  0  0
  188.2320  178.5520  140.7810 C   0  0  1  0  0  3  0  0  0  0  0  0
  184.5620  179.4940  139.0980 O   0  0  0  0  0  1  0  0  0  0  0  0
  186.7700  178.6290  138.7720 C   0  0  0  0  0  2  0  0  0  0  0  0
  187.8720  177.8470  139.4740 C   0  0  0  0  0  2  0  0  0  0  0  0
  187.0200  178.9270  141.6040 C   0  0  0  0  0  3  0  0  0  0  0  0
  185.5100  178.6270  139.6380 C   0  0  1  0  0  3  0  0  0  0  0  0
  190.1470  176.7950  140.7510 C   0  0  0  0  0  2  0  0  0  0  0  0
  191.3100  177.4470  140.1720 N   0  0  0  0  0  2  0  0  0  0  0  0
  191.6040  176.7540  138.9290 C   0  0  0  0  0  2  0  0  0  0  0  0
  193.1020  176.7530  138.6810 C   0  0  0  0  0  2  0  0  0  0  0  0
  193.7730  177.1400  139.8430 O   0  0  0  0  0  1  0  0  0  0  0  0
  1 10  1  0  0  0  0
  2  6  1  6  0  0  0
  2 10  1  0  0  0  0
  2  7  1  0  0  0  0
  3  7  2  0  0  0  0
  4 15  1  0  0  0  0
  4  8  1  0  0  0  0
  5 11  1  0  0  0  0
  6  9  2  0  0  0  0
  7  5  1  0  0  0  0
  8 11  1  0  0  0  0
  9  3  1  0  0  0  0
 10  4  2  0  0  0  0
 12 17  2  0  0  0  0
 13 14  1  6  0  0  0
 13 12  1  0  0  0  0
 15 17  1  0  0  0  0
 16 13  1  0  0  0  0
 16 15  2  0  0  0  0
 18 19  1  0  0  0  0
 20 18  1  0  0  0  0
 20 19  1  0  0  0  0
 20  1  1  0  0  0  0
 21 29  1  6  0  0  0
 21 20  1  0  0  0  0
 22 27  2  0  0  0  0
 23 21  1  1  0  0  0
 23 27  1  0  0  0  0
 25 26  1  0  0  0  0
 25 28  1  0  0  0  0
 26 23  1  0  0  0  0
 28 24  1  6  0  0  0
 28 22  1  0  0  0  0
 30 29  1  0  0  0  0
 31 30  1  0  0  0  0
 32 31  1  0  0  0  0
 32 33  1  0  0  0  0
M  END
>  <MODEL>
4

>  <REMARK>
 VINA RESULT:      -5.7      3.262      6.207
  Name = 
  9 active torsions:
  status: ('A' for Active; 'I' for Inactive)
    1  A    between atoms: C_5  and  C_9
    2  A    between atoms: C_6  and  C_8
    3  A    between atoms: C_8  and  N_30
    4  A    between atoms: C_9  and  C_17
    5  A    between atoms: C_9  and  C_32
    6  A    between atoms: C_13  and  C_26
    7  A    between atoms: C_17  and  N_30
    8  A    between atoms: N_24  and  C_27
    9  A    between atoms: N_24  and  C_32
                            x       y       z     vdW  Elec       q    Type
                         _______ _______ _______ _____ _____    ______ ____

>  <TORSDO>
F 9

$$$$
=
 OpenBabel11032420303D

 33 37  0  0  1  0  0  0  0  0999 V2000
  187.6570  176.5680  138.1660 N   0  0  0  0  0  2  0  0  0  0  0  0
  185.6020  177.7550  137.2020 C   0  0  2  0  0  3  0  0  0  0  0  0
  183.3320  177.5500  137.7780 N   0  0  0  0  0  0  0  0  0  0  0  0
  186.5780  175.5900  136.2600 C   0  0  0  0  0  0  0  0  0  0  0  0
  183.8420  176.9070  135.5640 N   0  0  0  0  0  2  0  0  0  0  0  0
  185.3980  178.3570  138.5950 C   0  0  0  0  0  3  0  0  0  0  0  0
  184.2070  177.3660  136.8560 C   0  0  0  0  0  0  0  0  0  0  0  0
  185.7590  175.6150  135.0730 N   0  0  0  0  0  0  0  0  0  0  0  0
  183.9470  178.0820  138.9740 C   0  0  0  0  0  3  0  0  0  0  0  0
  186.5780  176.5750  137.2110 C   0  0  1  0  0  3  0  0  0  0  0  0
  184.8950  176.6830  134.5990 C   0  0  0  0  0  2  0  0  0  0  0  0
  188.1870  172.4390  136.9200 C   0  0  0  0  0  3  0  0  0  0  0  0
  189.1990  173.0590  136.0140 C   0  0  1  0  0  3  0  0  0  0  0  0
  189.3190  172.2430  134.7410 C   0  0  0  0  0  1  0  0  0  0  0  0
  187.4830  174.4180  136.3690 C   0  0  0  0  0  0  0  0  0  0  0  0
  188.5960  174.3480  135.7160 N   0  0  0  0  0  0  0  0  0  0  0  0
  187.1970  173.2430  137.1170 N   0  0  0  0  0  0  0  0  0  0  0  0
  188.8550  178.6810  137.7560 C   0  0  0  0  0  2  0  0  0  0  0  0
  189.2450  177.7500  136.6140 C   0  0  0  0  0  2  0  0  0  0  0  0
  188.9670  177.1920  137.9940 C   0  0  0  0  0  0  0  0  0  0  0  0
  190.1140  176.7290  138.9130 C   0  0  2  0  0  3  0  0  0  0  0  0
  191.6620  177.4390  142.2500 C   0  0  0  0  0  3  0  0  0  0  0  0
  190.2320  177.5500  140.2030 C   0  0  1  0  0  3  0  0  0  0  0  0
  190.7710  178.4160  144.2210 O   0  0  0  0  0  1  0  0  0  0  0  0
  189.2380  178.1280  142.4060 C   0  0  0  0  0  2  0  0  0  0  0  0
  189.0290  177.3390  141.1200 C   0  0  0  0  0  2  0  0  0  0  0  0
  191.5560  177.3740  140.9130 C   0  0  0  0  0  3  0  0  0  0  0  0
  190.4590  177.5840  143.1470 C   0  0  1  0  0  3  0  0  0  0  0  0
  191.4430  176.3660  138.2320 C   0  0  0  0  0  2  0  0  0  0  0  0
  191.6040  174.9260  138.1030 N   0  0  0  0  0  2  0  0  0  0  0  0
  192.5910  174.7060  137.0590 C   0  0  0  0  0  2  0  0  0  0  0  0
  193.8670  174.1510  137.6660 C   0  0  0  0  0  2  0  0  0  0  0  0
  194.5940  175.1810  138.2640 O   0  0  0  0  0  1  0  0  0  0  0  0
  2 10  1  0  0  0  0
  2  6  1  1  0  0  0
  3  9  1  0  0  0  0
  4 15  1  0  0  0  0
  4 10  1  0  0  0  0
  5  7  1  0  0  0  0
  6  9  2  0  0  0  0
  7  2  1  0  0  0  0
  7  3  2  0  0  0  0
  8  4  2  0  0  0  0
 10  1  1  6  0  0  0
 11  8  1  0  0  0  0
 11  5  1  0  0  0  0
 12 17  2  0  0  0  0
 13 14  1  6  0  0  0
 13 12  1  0  0  0  0
 15 17  1  0  0  0  0
 16 13  1  0  0  0  0
 16 15  2  0  0  0  0
 18 20  1  0  0  0  0
 19 18  1  0  0  0  0
 19 20  1  0  0  0  0
 20  1  1  0  0  0  0
 20 21  1  0  0  0  0
 21 29  1  6  0  0  0
 22 28  1  0  0  0  0
 23 21  1  6  0  0  0
 23 27  1  0  0  0  0
 23 26  1  0  0  0  0
 25 28  1  0  0  0  0
 26 25  1  0  0  0  0
 27 22  2  0  0  0  0
 28 24  1  1  0  0  0
 30 29  1  0  0  0  0
 31 32  1  0  0  0  0
 31 30  1  0  0  0  0
 32 33  1  0  0  0  0
M  END
>  <MODEL>
5

>  <REMARK>
 VINA RESULT:      -5.7      3.688      7.917
  Name = 
  9 active torsions:
  status: ('A' for Active; 'I' for Inactive)
    1  A    between atoms: C_5  and  C_9
    2  A    between atoms: C_6  and  C_8
    3  A    between atoms: C_8  and  N_30
    4  A    between atoms: C_9  and  C_17
    5  A    between atoms: C_9  and  C_32
    6  A    between atoms: C_13  and  C_26
    7  A    between atoms: C_17  and  N_30
    8  A    between atoms: N_24  and  C_27
    9  A    between atoms: N_24  and  C_32
                            x       y       z     vdW  Elec       q    Type
                         _______ _______ _______ _____ _____    ______ ____

>  <TORSDO>
F 9

$$$$
=
 OpenBabel11032420303D

 33 37  0  0  1  0  0  0  0  0999 V2000
  183.3670  177.6610  140.9330 N   0  0  0  0  0  2  0  0  0  0  0  0
  181.2690  178.9950  141.5480 C   0  0  2  0  0  3  0  0  0  0  0  0
  179.3710  178.3450  142.7730 N   0  0  0  0  0  0  0  0  0  0  0  0
  181.5410  177.6740  139.3780 C   0  0  0  0  0  0  0  0  0  0  0  0
  178.9320  178.9300  140.5280 N   0  0  0  0  0  2  0  0  0  0  0  0
  181.6770  178.8060  143.0110 C   0  0  0  0  0  3  0  0  0  0  0  0
  179.8080  178.7150  141.6230 C   0  0  0  0  0  0  0  0  0  0  0  0
  180.3480  178.2170  138.7750 N   0  0  0  0  0  0  0  0  0  0  0  0
  180.4500  178.2600  143.7320 C   0  0  0  0  0  3  0  0  0  0  0  0
  182.0190  178.0520  140.6030 C   0  0  1  0  0  3  0  0  0  0  0  0
  179.5120  179.3040  139.2570 C   0  0  0  0  0  2  0  0  0  0  0  0
  183.2150  174.8140  137.9730 C   0  0  0  0  0  3  0  0  0  0  0  0
  183.1900  175.7090  136.7780 C   0  0  1  0  0  3  0  0  0  0  0  0
  182.3490  175.0820  135.6820 C   0  0  0  0  0  1  0  0  0  0  0  0
  182.2650  176.6820  138.5430 C   0  0  0  0  0  0  0  0  0  0  0  0
  182.5210  176.8920  137.2950 N   0  0  0  0  0  0  0  0  0  0  0  0
  182.6750  175.3960  138.9900 N   0  0  0  0  0  0  0  0  0  0  0  0
  184.2850  179.7410  139.9840 C   0  0  0  0  0  2  0  0  0  0  0  0
  184.8130  178.6110  139.1070 C   0  0  0  0  0  2  0  0  0  0  0  0
  184.5860  178.3870  140.5880 C   0  0  0  0  0  0  0  0  0  0  0  0
  185.7690  178.3250  141.5740 C   0  0  2  0  0  3  0  0  0  0  0  0
  184.9010  179.7540  144.9270 C   0  0  0  0  0  3  0  0  0  0  0  0
  185.3340  178.1760  143.0380 C   0  0  1  0  0  3  0  0  0  0  0  0
  185.1300  178.8740  147.1190 O   0  0  0  0  0  1  0  0  0  0  0  0
  185.9720  177.5060  145.3450 C   0  0  0  0  0  2  0  0  0  0  0  0
  186.4400  177.5670  143.8970 C   0  0  0  0  0  2  0  0  0  0  0  0
  184.7560  179.4420  143.6300 C   0  0  0  0  0  3  0  0  0  0  0  0
  185.7380  178.9240  145.8660 C   0  0  1  0  0  3  0  0  0  0  0  0
  186.9330  179.2950  141.3220 C   0  0  0  0  0  2  0  0  0  0  0  0
  188.2180  178.6180  141.3830 N   0  0  0  0  0  2  0  0  0  0  0  0
  188.2870  177.7420  140.2250 C   0  0  0  0  0  2  0  0  0  0  0  0
  189.3250  178.2620  139.2470 C   0  0  0  0  0  2  0  0  0  0  0  0
  188.7070  179.0560  138.2790 O   0  0  0  0  0  1  0  0  0  0  0  0
  2  7  1  0  0  0  0
  2  6  1  1  0  0  0
  3  9  1  0  0  0  0
  4 10  1  0  0  0  0
  5  7  1  0  0  0  0
  6  9  2  0  0  0  0
  7  3  2  0  0  0  0
  8 11  1  0  0  0  0
  8  4  2  0  0  0  0
 10  1  1  6  0  0  0
 10  2  1  0  0  0  0
 11  5  1  0  0  0  0
 12 17  2  0  0  0  0
 13 14  1  6  0  0  0
 13 16  1  0  0  0  0
 13 12  1  0  0  0  0
 15 17  1  0  0  0  0
 15  4  1  0  0  0  0
 16 15  2  0  0  0  0
 18 20  1  0  0  0  0
 19 18  1  0  0  0  0
 19 20  1  0  0  0  0
 20  1  1  0  0  0  0
 20 21  1  0  0  0  0
 21 29  1  1  0  0  0
 22 28  1  0  0  0  0
 23 21  1  6  0  0  0
 23 27  1  0  0  0  0
 23 26  1  0  0  0  0
 25 28  1  0  0  0  0
 26 25  1  0  0  0  0
 27 22  2  0  0  0  0
 28 24  1  1  0  0  0
 29 30  1  0  0  0  0
 31 30  1  0  0  0  0
 32 31  1  0  0  0  0
 33 32  1  0  0  0  0
M  END
>  <MODEL>
6

>  <REMARK>
 VINA RESULT:      -5.7      3.507      8.909
  Name = 
  9 active torsions:
  status: ('A' for Active; 'I' for Inactive)
    1  A    between atoms: C_5  and  C_9
    2  A    between atoms: C_6  and  C_8
    3  A    between atoms: C_8  and  N_30
    4  A    between atoms: C_9  and  C_17
    5  A    between atoms: C_9  and  C_32
    6  A    between atoms: C_13  and  C_26
    7  A    between atoms: C_17  and  N_30
    8  A    between atoms: N_24  and  C_27
    9  A    between atoms: N_24  and  C_32
                            x       y       z     vdW  Elec       q    Type
                         _______ _______ _______ _____ _____    ______ ____

>  <TORSDO>
F 9

$$$$
=
 OpenBabel11032420303D

 33 37  0  0  1  0  0  0  0  0999 V2000
  189.3540  177.7540  141.9760 N   0  0  0  0  0  2  0  0  0  0  0  0
  190.9240  176.6050  140.3100 C   0  0  2  0  0  3  0  0  0  0  0  0
  192.5480  177.5270  138.8820 N   0  0  0  0  0  0  0  0  0  0  0  0
  188.5580  177.3840  139.7440 C   0  0  0  0  0  0  0  0  0  0  0  0
  190.7740  176.4360  137.7700 N   0  0  0  0  0  2  0  0  0  0  0  0
  192.0810  177.1270  141.1640 C   0  0  0  0  0  3  0  0  0  0  0  0
  191.4300  176.8970  138.9400 C   0  0  0  0  0  0  0  0  0  0  0  0
  188.5330  176.7180  138.4640 N   0  0  0  0  0  0  0  0  0  0  0  0
  193.0390  177.8290  140.2080 C   0  0  0  0  0  3  0  0  0  0  0  0
  189.5980  177.3000  140.6290 C   0  0  1  0  0  3  0  0  0  0  0  0
  189.4970  175.7750  137.9220 C   0  0  0  0  0  2  0  0  0  0  0  0
  185.3960  179.1020  139.8030 C   0  0  0  0  0  3  0  0  0  0  0  0
  185.7660  179.1970  141.2460 C   0  0  1  0  0  3  0  0  0  0  0  0
  184.7590  178.4350  142.0870 C   0  0  0  0  0  1  0  0  0  0  0  0
  187.3300  178.1520  140.0720 C   0  0  0  0  0  0  0  0  0  0  0  0
  187.0490  178.5150  141.2790 N   0  0  0  0  0  0  0  0  0  0  0  0
  186.3170  178.4930  139.1350 N   0  0  0  0  0  0  0  0  0  0  0  0
  189.7750  175.5070  142.8960 C   0  0  0  0  0  2  0  0  0  0  0  0
  188.2990  175.7920  143.1440 C   0  0  0  0  0  2  0  0  0  0  0  0
  189.3100  176.9190  143.1740 C   0  0  0  0  0  0  0  0  0  0  0  0
  189.7700  177.5430  144.5060 C   0  0  2  0  0  3  0  0  0  0  0  0
  187.5250  177.8270  147.4920 C   0  0  0  0  0  3  0  0  0  0  0  0
  188.6350  178.2180  145.2880 C   0  0  1  0  0  3  0  0  0  0  0  0
  185.3040  178.6310  147.7190 O   0  0  0  0  0  1  0  0  0  0  0  0
  186.1890  178.6060  145.4960 C   0  0  0  0  0  2  0  0  0  0  0  0
  187.2750  177.9670  144.6400 C   0  0  0  0  0  2  0  0  0  0  0  0
  188.6520  177.9080  146.7680 C   0  0  0  0  0  3  0  0  0  0  0  0
  186.1570  177.9320  146.8680 C   0  0  1  0  0  3  0  0  0  0  0  0
  191.1080  178.2970  144.4920 C   0  0  0  0  0  2  0  0  0  0  0  0
  192.0310  177.7710  145.4850 N   0  0  0  0  0  2  0  0  0  0  0  0
  191.6810  176.3740  145.6830 C   0  0  0  0  0  2  0  0  0  0  0  0
  192.0680  175.9400  147.0860 C   0  0  0  0  0  2  0  0  0  0  0  0
  191.8640  176.9930  147.9790 O   0  0  0  0  0  1  0  0  0  0  0  0
  1 20  1  0  0  0  0
  2 10  1  0  0  0  0
  2  6  1  1  0  0  0
  3  7  2  0  0  0  0
  3  9  1  0  0  0  0
  4 15  1  0  0  0  0
  4 10  1  0  0  0  0
  5 11  1  0  0  0  0
  5  7  1  0  0  0  0
  7  2  1  0  0  0  0
  8  4  2  0  0  0  0
  9  6  2  0  0  0  0
 10  1  1  1  0  0  0
 11  8  1  0  0  0  0
 12 13  1  0  0  0  0
 13 16  1  0  0  0  0
 13 14  1  1  0  0  0
 15 16  2  0  0  0  0
 17 12  2  0  0  0  0
 17 15  1  0  0  0  0
 18 19  1  0  0  0  0
 18 20  1  0  0  0  0
 19 20  1  0  0  0  0
 20 21  1  0  0  0  0
 21 29  1  6  0  0  0
 23 21  1  6  0  0  0
 23 27  1  0  0  0  0
 25 28  1  0  0  0  0
 26 23  1  0  0  0  0
 26 25  1  0  0  0  0
 27 22  2  0  0  0  0
 28 22  1  0  0  0  0
 28 24  1  1  0  0  0
 29 30  1  0  0  0  0
 30 31  1  0  0  0  0
 31 32  1  0  0  0  0
 32 33  1  0  0  0  0
M  END
>  <MODEL>
7

>  <REMARK>
 VINA RESULT:      -5.7      2.642      6.154
  Name = 
  9 active torsions:
  status: ('A' for Active; 'I' for Inactive)
    1  A    between atoms: C_5  and  C_9
    2  A    between atoms: C_6  and  C_8
    3  A    between atoms: C_8  and  N_30
    4  A    between atoms: C_9  and  C_17
    5  A    between atoms: C_9  and  C_32
    6  A    between atoms: C_13  and  C_26
    7  A    between atoms: C_17  and  N_30
    8  A    between atoms: N_24  and  C_27
    9  A    between atoms: N_24  and  C_32
                            x       y       z     vdW  Elec       q    Type
                         _______ _______ _______ _____ _____    ______ ____

>  <TORSDO>
F 9

$$$$
=
 OpenBabel11032420303D

 33 37  0  0  1  0  0  0  0  0999 V2000
  184.8680  177.8950  141.6040 N   0  0  0  0  0  2  0  0  0  0  0  0
  182.6970  179.1860  141.1760 C   0  0  2  0  0  3  0  0  0  0  0  0
  180.6110  178.4210  140.4090 N   0  0  0  0  0  0  0  0  0  0  0  0
  184.5520  178.8910  139.4450 C   0  0  0  0  0  0  0  0  0  0  0  0
  181.6690  179.9750  138.9800 N   0  0  0  0  0  2  0  0  0  0  0  0
  182.0640  178.3230  142.2710 C   0  0  0  0  0  3  0  0  0  0  0  0
  181.6260  179.1630  140.1430 C   0  0  0  0  0  0  0  0  0  0  0  0
  183.9830  179.8400  138.5200 N   0  0  0  0  0  0  0  0  0  0  0  0
  180.7840  177.7470  141.6770 C   0  0  0  0  0  3  0  0  0  0  0  0
  184.0310  178.6200  140.6810 C   0  0  1  0  0  3  0  0  0  0  0  0
  182.8670  180.7460  138.7340 C   0  0  0  0  0  2  0  0  0  0  0  0
  187.1130  176.9510  137.8220 C   0  0  0  0  0  3  0  0  0  0  0  0
  187.9600  177.8060  138.7050 C   0  0  1  0  0  3  0  0  0  0  0  0
  188.8510  178.6960  137.8590 C   0  0  0  0  0  1  0  0  0  0  0  0
  185.8030  178.2390  138.9790 C   0  0  0  0  0  0  0  0  0  0  0  0
  186.9680  178.6160  139.3930 N   0  0  0  0  0  0  0  0  0  0  0  0
  185.8620  177.2150  137.9960 N   0  0  0  0  0  0  0  0  0  0  0  0
  184.9280  179.4400  143.5220 C   0  0  0  0  0  2  0  0  0  0  0  0
  185.9590  179.9640  142.5290 C   0  0  0  0  0  2  0  0  0  0  0  0
  185.7030  178.4760  142.6520 C   0  0  0  0  0  0  0  0  0  0  0  0
  186.7020  177.5530  143.3760 C   0  0  2  0  0  3  0  0  0  0  0  0
  188.9320  177.5470  146.3860 C   0  0  0  0  0  3  0  0  0  0  0  0
  187.0890  178.0490  144.7740 C   0  0  1  0  0  3  0  0  0  0  0  0
  188.4820  177.9660  148.6780 O   0  0  0  0  0  1  0  0  0  0  0  0
  186.5930  178.0190  147.2090 C   0  0  0  0  0  2  0  0  0  0  0  0
  186.1180  177.5480  145.8420 C   0  0  0  0  0  2  0  0  0  0  0  0
  188.5380  177.7960  145.1270 C   0  0  0  0  0  3  0  0  0  0  0  0
  187.9530  177.3960  147.5220 C   0  0  1  0  0  3  0  0  0  0  0  0
  187.8520  176.9800  142.5320 C   0  0  0  0  0  2  0  0  0  0  0  0
  188.7920  178.0150  142.1340 N   0  0  0  0  0  2  0  0  0  0  0  0
  190.0130  177.3390  141.7280 C   0  0  0  0  0  2  0  0  0  0  0  0
  190.1520  176.0300  142.4840 C   0  0  0  0  0  2  0  0  0  0  0  0
  191.2070  176.1190  143.3940 O   0  0  0  0  0  1  0  0  0  0  0  0
  1 20  1  0  0  0  0
  2  6  1  1  0  0  0
  3  9  1  0  0  0  0
  4 10  1  0  0  0  0
  5  7  1  0  0  0  0
  7  3  2  0  0  0  0
  7  2  1  0  0  0  0
  8 11  1  0  0  0  0
  8  4  2  0  0  0  0
  9  6  2  0  0  0  0
 10  2  1  0  0  0  0
 10  1  1  1  0  0  0
 11  5  1  0  0  0  0
 12 17  2  0  0  0  0
 12 13  1  0  0  0  0
 13 14  1  6  0  0  0
 13 16  1  0  0  0  0
 15 16  2  0  0  0  0
 15  4  1  0  0  0  0
 17 15  1  0  0  0  0
 19 20  1  0  0  0  0
 19 18  1  0  0  0  0
 20 21  1  0  0  0  0
 20 18  1  0  0  0  0
 21 29  1  6  0  0  0
 22 28  1  0  0  0  0
 23 21  1  6  0  0  0
 23 27  1  0  0  0  0
 23 26  1  0  0  0  0
 25 28  1  0  0  0  0
 26 25  1  0  0  0  0
 27 22  2  0  0  0  0
 28 24  1  1  0  0  0
 30 29  1  0  0  0  0
 31 30  1  0  0  0  0
 31 32  1  0  0  0  0
 32 33  1  0  0  0  0
M  END
>  <MODEL>
8

>  <REMARK>
 VINA RESULT:      -5.6      3.507      8.132
  Name = 
  9 active torsions:
  status: ('A' for Active; 'I' for Inactive)
    1  A    between atoms: C_5  and  C_9
    2  A    between atoms: C_6  and  C_8
    3  A    between atoms: C_8  and  N_30
    4  A    between atoms: C_9  and  C_17
    5  A    between atoms: C_9  and  C_32
    6  A    between atoms: C_13  and  C_26
    7  A    between atoms: C_17  and  N_30
    8  A    between atoms: N_24  and  C_27
    9  A    between atoms: N_24  and  C_32
                            x       y       z     vdW  Elec       q    Type
                         _______ _______ _______ _____ _____    ______ ____

>  <TORSDO>
F 9

$$$$
=
 OpenBabel11032420303D

 33 37  0  0  1  0  0  0  0  0999 V2000
  189.4640  177.0220  144.0950 N   0  0  0  0  0  2  0  0  0  0  0  0
  191.6370  176.5350  145.3590 C   0  0  2  0  0  3  0  0  0  0  0  0
  192.4610  174.5100  146.2240 N   0  0  0  0  0  0  0  0  0  0  0  0
  189.4640  177.2730  146.4790 C   0  0  0  0  0  0  0  0  0  0  0  0
  192.0320  176.1670  147.8510 N   0  0  0  0  0  2  0  0  0  0  0  0
  192.0200  175.6270  144.1880 C   0  0  0  0  0  3  0  0  0  0  0  0
  192.0340  175.6860  146.5160 C   0  0  0  0  0  0  0  0  0  0  0  0
  190.0790  177.4940  147.7650 N   0  0  0  0  0  2  0  0  0  0  0  0
  192.4200  174.2870  144.7950 C   0  0  0  0  0  3  0  0  0  0  0  0
  190.1510  176.9010  145.3560 C   0  0  0  0  0  0  0  0  0  0  0  0
  191.4940  177.4850  148.0980 C   0  0  0  0  0  2  0  0  0  0  0  0
  186.0540  178.2910  147.0190 C   0  0  0  0  0  3  0  0  0  0  0  0
  185.9140  177.6190  145.6930 C   0  0  1  0  0  3  0  0  0  0  0  0
  185.4850  178.6290  144.6460 C   0  0  0  0  0  1  0  0  0  0  0  0
  188.0010  177.5260  146.4370 C   0  0  0  0  0  0  0  0  0  0  0  0
  187.2740  177.1820  145.4250 N   0  0  0  0  0  0  0  0  0  0  0  0
  187.2730  178.2270  147.4370 N   0  0  0  0  0  0  0  0  0  0  0  0
  191.1150  178.4390  142.9390 C   0  0  0  0  0  2  0  0  0  0  0  0
  190.1630  179.3960  143.6480 C   0  0  0  0  0  2  0  0  0  0  0  0
  189.6560  178.0770  143.1030 C   0  0  0  0  0  0  0  0  0  0  0  0
  188.8150  178.0190  141.8130 C   0  0  2  0  0  3  0  0  0  0  0  0
  189.2020  178.0110  138.0860 C   0  0  0  0  0  3  0  0  0  0  0  0
  189.6610  177.8860  140.5400 C   0  0  1  0  0  3  0  0  0  0  0  0
  190.7110  176.8570  136.6640 O   0  0  0  0  0  1  0  0  0  0  0  0
  190.8880  176.3690  139.0010 C   0  0  0  0  0  2  0  0  0  0  0  0
  190.1120  176.4450  140.3080 C   0  0  0  0  0  2  0  0  0  0  0  0
  189.0200  178.5080  139.3200 C   0  0  0  0  0  3  0  0  0  0  0  0
  189.9680  176.7370  137.8370 C   0  0  1  0  0  3  0  0  0  0  0  0
  187.6210  178.9810  141.7200 C   0  0  0  0  0  2  0  0  0  0  0  0
  186.3880  178.2760  141.4040 N   0  0  0  0  0  2  0  0  0  0  0  0
  185.4200  179.2840  141.0040 C   0  0  0  0  0  2  0  0  0  0  0  0
  184.9400  179.0040  139.5910 C   0  0  0  0  0  2  0  0  0  0  0  0
  184.2500  180.1130  139.0970 O   0  0  0  0  0  1  0  0  0  0  0  0
  1 10  1  0  0  0  0
  2  6  1  6  0  0  0
  2  7  1  0  0  0  0
  3  7  2  0  0  0  0
  4  8  1  0  0  0  0
  5 11  1  0  0  0  0
  6  9  2  0  0  0  0
  7  5  1  0  0  0  0
  8 11  1  0  0  0  0
  9  3  1  0  0  0  0
 10  2  1  0  0  0  0
 10  4  2  0  0  0  0
 12 17  2  0  0  0  0
 13 14  1  6  0  0  0
 13 12  1  0  0  0  0
 15  4  1  0  0  0  0
 15 17  1  0  0  0  0
 16 13  1  0  0  0  0
 16 15  2  0  0  0  0
 18 20  1  0  0  0  0
 18 19  1  0  0  0  0
 20 19  1  0  0  0  0
 20  1  1  0  0  0  0
 21 29  1  6  0  0  0
 21 20  1  0  0  0  0
 22 27  2  0  0  0  0
 23 21  1  1  0  0  0
 25 26  1  0  0  0  0
 26 23  1  0  0  0  0
 27 23  1  0  0  0  0
 28 24  1  6  0  0  0
 28 22  1  0  0  0  0
 28 25  1  0  0  0  0
 30 29  1  0  0  0  0
 31 30  1  0  0  0  0
 32 31  1  0  0  0  0
 33 32  1  0  0  0  0
M  END
>  <MODEL>
9

>  <REMARK>
 VINA RESULT:      -5.6      3.275      6.125
  Name = 
  9 active torsions:
  status: ('A' for Active; 'I' for Inactive)
    1  A    between atoms: C_5  and  C_9
    2  A    between atoms: C_6  and  C_8
    3  A    between atoms: C_8  and  N_30
    4  A    between atoms: C_9  and  C_17
    5  A    between atoms: C_9  and  C_32
    6  A    between atoms: C_13  and  C_26
    7  A    between atoms: C_17  and  N_30
    8  A    between atoms: N_24  and  C_27
    9  A    between atoms: N_24  and  C_32
                            x       y       z     vdW  Elec       q    Type
                         _______ _______ _______ _____ _____    ______ ____

>  <TORSDO>
F 9

$$$$
