=
 OpenBabel11032419143D

 30 35  0  0  1  0  0  0  0  0999 V2000
  190.3110  176.9410  138.6960 C   0  0  1  0  0  3  0  0  0  0  0  0
  190.7430  176.5700  142.2070 C   0  0  0  0  0  0  0  0  0  0  0  0
  191.7550  177.6880  140.6010 N   0  0  0  0  0  0  0  0  0  0  0  0
  190.7170  176.9640  140.1340 C   0  0  0  0  0  0  0  0  0  0  0  0
  190.0690  176.2650  141.0850 N   0  0  0  0  0  0  0  0  0  0  0  0
  191.7750  177.4430  141.9250 C   0  0  0  0  0  2  0  0  0  0  0  0
  188.8100  177.9060  146.0570 C   0  0  0  0  0  3  0  0  0  0  0  0
  189.0560  176.5530  144.0120 C   0  0  0  0  0  0  0  0  0  0  0  0
  187.4230  177.9220  145.7620 C   0  0  0  0  0  3  0  0  0  0  0  0
  191.3100  176.7580  144.8180 S   0  0  0  0  0  0  0  0  0  0  0  0
  186.8860  177.2690  144.6090 C   0  0  0  0  0  3  0  0  0  0  0  0
  189.5910  177.2080  145.1530 C   0  0  0  0  0  0  0  0  0  0  0  0
  190.3710  176.0290  143.5570 C   0  0  2  0  0  3  0  0  0  0  0  0
  187.7070  176.5610  143.7010 C   0  0  0  0  0  3  0  0  0  0  0  0
  189.6050  178.1700  138.3600 N   0  0  0  0  0  2  0  0  0  0  0  0
  189.1810  178.0780  136.9720 C   0  0  0  0  0  2  0  0  0  0  0  0
  187.7300  178.5060  136.8460 C   0  0  1  0  0  0  0  0  0  0  0  0
  187.1290  178.1390  135.5050 C   0  0  0  0  0  2  0  0  0  0  0  0
  186.9060  177.2360  136.7000 C   0  0  2  0  0  3  0  0  0  0  0  0
  186.8820  178.0140  137.9990 C   0  0  2  0  0  3  0  0  0  0  0  0
  185.6700  178.8110  138.0780 N   0  0  0  0  0  2  0  0  0  0  0  0
  183.9080  179.3880  139.5560 C   0  0  2  0  0  3  0  0  0  0  0  0
  185.0070  178.4590  139.3210 C   0  0  2  0  0  3  0  0  0  0  0  0
  185.2130  178.9140  141.6180 C   0  0  0  0  0  1  0  0  0  0  0  0
  185.1940  179.5440  140.3000 N   0  0  0  0  0  0  0  0  0  0  0  0
  181.9680  178.1760  140.8670 N   0  0  0  0  0  0  0  0  0  0  0  0
  182.8230  178.7070  140.2920 C   0  0  0  0  0  0  0  0  0  0  0  0
  191.4470  176.8180  137.8940 O   0  0  0  0  0  0  0  0  0  0  0  0
  190.5420  174.7070  137.2780 C   0  0  0  0  0  1  0  0  0  0  0  0
  191.7220  175.4510  137.8700 C   0  0  0  0  0  2  0  0  0  0  0  0
  1 28  1  6  0  0  0
  1  4  1  0  0  0  0
  3  6  1  0  0  0  0
  4  3  2  0  0  0  0
  4  5  1  0  0  0  0
  5  2  2  0  0  0  0
  6  2  1  0  0  0  0
  8 12  1  0  0  0  0
  9  7  1  0  0  0  0
 10 12  1  0  0  0  0
 11  9  2  0  0  0  0
 12  7  2  0  0  0  0
 13  2  1  6  0  0  0
 13  8  1  0  0  0  0
 13 10  1  0  0  0  0
 14  8  2  0  0  0  0
 14 11  1  0  0  0  0
 15  1  1  0  0  0  0
 16 15  1  0  0  0  0
 17 16  1  1  0  0  0
 17 20  1  0  0  0  0
 18 17  1  0  0  0  0
 19 18  1  6  0  0  0
 19 17  1  0  0  0  0
 19 20  1  0  0  0  0
 20 21  1  6  0  0  0
 22 27  1  1  0  0  0
 22 25  1  0  0  0  0
 23 21  1  6  0  0  0
 23 22  1  0  0  0  0
 23 25  1  0  0  0  0
 25 24  1  0  0  0  0
 27 26  3  0  0  0  0
 29 30  1  0  0  0  0
 30 28  1  0  0  0  0
M  END
>  <MODEL>
1

>  <REMARK>
 VINA RESULT:      -7.5      0.000      0.000
  Name = 
  10 active torsions:
  status: ('A' for Active; 'I' for Inactive)
    1  A    between atoms: C_1  and  C_18
    2  A    between atoms: C_3  and  N_21
    3  A    between atoms: C_7  and  C_24
    4  A    between atoms: C_8  and  C_28
    5  A    between atoms: N_11  and  C_28
    6  A    between atoms: N_11  and  C_29
    7  A    between atoms: C_14  and  C_29
    8  A    between atoms: N_21  and  C_27
    9  A    between atoms: O_23  and  C_29
   10  A    between atoms: O_23  and  C_30
                            x       y       z     vdW  Elec       q    Type
                         _______ _______ _______ _____ _____    ______ ____

>  <TORSDO>
F 10

$$$$
=
 OpenBabel11032419143D

 30 35  0  0  1  0  0  0  0  0999 V2000
  191.0820  176.7120  146.7870 C   0  0  1  0  0  3  0  0  0  0  0  0
  187.6080  177.4710  146.7670 C   0  0  0  0  0  0  0  0  0  0  0  0
  189.3340  178.0060  148.0270 N   0  0  0  0  0  0  0  0  0  0  0  0
  189.6830  177.1850  147.0150 C   0  0  0  0  0  0  0  0  0  0  0  0
  188.6570  176.8340  146.2190 N   0  0  0  0  0  0  0  0  0  0  0  0
  188.0100  178.1950  147.8730 C   0  0  0  0  0  2  0  0  0  0  0  0
  184.8760  179.7200  143.9700 C   0  0  0  0  0  3  0  0  0  0  0  0
  186.1850  177.7930  144.7730 C   0  0  0  0  0  0  0  0  0  0  0  0
  185.3410  179.3730  142.6770 C   0  0  0  0  0  3  0  0  0  0  0  0
  185.2210  178.6870  146.7840 S   0  0  0  0  0  0  0  0  0  0  0  0
  186.2130  178.2610  142.4590 C   0  0  0  0  0  3  0  0  0  0  0  0
  185.3240  178.9010  144.9920 C   0  0  0  0  0  0  0  0  0  0  0  0
  186.2180  177.3930  146.2050 C   0  0  2  0  0  3  0  0  0  0  0  0
  186.6560  177.4390  143.5210 C   0  0  0  0  0  3  0  0  0  0  0  0
  191.6500  177.3810  145.6240 N   0  0  0  0  0  2  0  0  0  0  0  0
  191.4060  176.5440  144.4610 C   0  0  0  0  0  2  0  0  0  0  0  0
  190.5440  177.2920  143.4600 C   0  0  1  0  0  0  0  0  0  0  0  0
  190.6470  178.7950  143.6100 C   0  0  0  0  0  2  0  0  0  0  0  0
  191.4890  178.0850  142.5700 C   0  0  2  0  0  3  0  0  0  0  0  0
  190.7990  176.8470  142.0350 C   0  0  2  0  0  3  0  0  0  0  0  0
  189.6700  177.2270  141.2040 N   0  0  0  0  0  2  0  0  0  0  0  0
  189.2860  176.8170  138.9010 C   0  0  2  0  0  3  0  0  0  0  0  0
  190.1820  177.4470  139.8630 C   0  0  2  0  0  3  0  0  0  0  0  0
  191.6830  176.4370  138.3620 C   0  0  0  0  0  1  0  0  0  0  0  0
  190.5730  176.1560  139.2710 N   0  0  0  0  0  0  0  0  0  0  0  0
  189.3030  178.1640  136.6350 N   0  0  0  0  0  0  0  0  0  0  0  0
  189.2990  177.5730  137.6320 C   0  0  0  0  0  0  0  0  0  0  0  0
  191.8580  176.9910  147.9140 O   0  0  0  0  0  0  0  0  0  0  0  0
  193.4870  176.0170  149.3470 C   0  0  0  0  0  1  0  0  0  0  0  0
  192.6200  175.8400  148.1180 C   0  0  0  0  0  2  0  0  0  0  0  0
  1 15  1  6  0  0  0
  1  4  1  0  0  0  0
  1 28  1  0  0  0  0
  2  6  1  0  0  0  0
  4  3  2  0  0  0  0
  5  2  2  0  0  0  0
  5  4  1  0  0  0  0
  6  3  1  0  0  0  0
  7 12  1  0  0  0  0
  8 12  2  0  0  0  0
  8 13  1  0  0  0  0
  9  7  2  0  0  0  0
 11  9  1  0  0  0  0
 11 14  2  0  0  0  0
 12 10  1  0  0  0  0
 13  2  1  1  0  0  0
 13 10  1  0  0  0  0
 14  8  1  0  0  0  0
 16 15  1  0  0  0  0
 17 18  1  0  0  0  0
 17 16  1  1  0  0  0
 19 17  1  0  0  0  0
 19 18  1  6  0  0  0
 20 21  1  6  0  0  0
 20 19  1  0  0  0  0
 20 17  1  0  0  0  0
 22 27  1  6  0  0  0
 22 25  1  0  0  0  0
 22 23  1  0  0  0  0
 23 21  1  1  0  0  0
 24 25  1  0  0  0  0
 25 23  1  0  0  0  0
 26 27  3  0  0  0  0
 28 30  1  0  0  0  0
 30 29  1  0  0  0  0
M  END
>  <MODEL>
2

>  <REMARK>
 VINA RESULT:      -7.4      3.453      6.962
  Name = 
  10 active torsions:
  status: ('A' for Active; 'I' for Inactive)
    1  A    between atoms: C_1  and  C_18
    2  A    between atoms: C_3  and  N_21
    3  A    between atoms: C_7  and  C_24
    4  A    between atoms: C_8  and  C_28
    5  A    between atoms: N_11  and  C_28
    6  A    between atoms: N_11  and  C_29
    7  A    between atoms: C_14  and  C_29
    8  A    between atoms: N_21  and  C_27
    9  A    between atoms: O_23  and  C_29
   10  A    between atoms: O_23  and  C_30
                            x       y       z     vdW  Elec       q    Type
                         _______ _______ _______ _____ _____    ______ ____

>  <TORSDO>
F 10

$$$$
=
 OpenBabel11032419143D

 30 35  0  0  1  0  0  0  0  0999 V2000
  190.3510  177.3850  142.0720 C   0  0  1  0  0  3  0  0  0  0  0  0
  189.3700  177.7140  138.6700 C   0  0  0  0  0  0  0  0  0  0  0  0
  190.6260  176.3190  139.8240 N   0  0  0  0  0  0  0  0  0  0  0  0
  190.1030  177.2890  140.6020 C   0  0  0  0  0  0  0  0  0  0  0  0
  189.3270  178.1630  139.9350 N   0  0  0  0  0  0  0  0  0  0  0  0
  190.1590  176.5830  138.5890 C   0  0  0  0  0  2  0  0  0  0  0  0
  186.0640  176.8390  135.7300 C   0  0  0  0  0  3  0  0  0  0  0  0
  187.1800  178.0350  137.5720 C   0  0  0  0  0  0  0  0  0  0  0  0
  184.8760  176.9720  136.4930 C   0  0  0  0  0  3  0  0  0  0  0  0
  188.9660  177.6060  136.0230 S   0  0  0  0  0  0  0  0  0  0  0  0
  184.8630  177.6190  137.7670 C   0  0  0  0  0  3  0  0  0  0  0  0
  187.1950  177.3860  136.3090 C   0  0  0  0  0  0  0  0  0  0  0  0
  188.6280  178.3700  137.5420 C   0  0  2  0  0  3  0  0  0  0  0  0
  186.0340  178.1710  138.3370 C   0  0  0  0  0  3  0  0  0  0  0  0
  189.9900  176.1310  142.7210 N   0  0  0  0  0  2  0  0  0  0  0  0
  188.5410  176.0730  142.8090 C   0  0  0  0  0  2  0  0  0  0  0  0
  188.0220  177.2730  143.5810 C   0  0  1  0  0  0  0  0  0  0  0  0
  186.7980  177.8930  142.9400 C   0  0  0  0  0  2  0  0  0  0  0  0
  186.6310  176.9100  144.0790 C   0  0  2  0  0  3  0  0  0  0  0  0
  187.7970  176.9630  145.0450 C   0  0  2  0  0  3  0  0  0  0  0  0
  187.7620  178.2040  145.7990 N   0  0  0  0  0  2  0  0  0  0  0  0
  189.2580  176.8310  147.0230 C   0  0  2  0  0  3  0  0  0  0  0  0
  188.9200  178.2060  146.6740 C   0  0  2  0  0  3  0  0  0  0  0  0
  189.3910  178.3680  148.9720 C   0  0  0  0  0  1  0  0  0  0  0  0
  188.5310  177.6950  148.0010 N   0  0  0  0  0  0  0  0  0  0  0  0
  191.8570  176.6200  147.4090 N   0  0  0  0  0  0  0  0  0  0  0  0
  190.7140  176.7100  147.2380 C   0  0  0  0  0  0  0  0  0  0  0  0
  191.7010  177.6600  142.3000 O   0  0  0  0  0  0  0  0  0  0  0  0
  191.1120  179.2820  143.9370 C   0  0  0  0  0  1  0  0  0  0  0  0
  191.7810  177.9510  143.6620 C   0  0  0  0  0  2  0  0  0  0  0  0
  1 28  1  6  0  0  0
  1 15  1  0  0  0  0
  2  5  2  0  0  0  0
  3  4  2  0  0  0  0
  4  1  1  0  0  0  0
  5  4  1  0  0  0  0
  6  2  1  0  0  0  0
  6  3  1  0  0  0  0
  7 12  2  0  0  0  0
  7  9  1  0  0  0  0
  8 14  2  0  0  0  0
  9 11  2  0  0  0  0
 10 12  1  0  0  0  0
 10 13  1  0  0  0  0
 11 14  1  0  0  0  0
 12  8  1  0  0  0  0
 13  8  1  0  0  0  0
 13  2  1  1  0  0  0
 15 16  1  0  0  0  0
 17 16  1  6  0  0  0
 17 19  1  0  0  0  0
 17 20  1  0  0  0  0
 18 17  1  0  0  0  0
 19 18  1  1  0  0  0
 19 20  1  0  0  0  0
 20 21  1  1  0  0  0
 22 27  1  1  0  0  0
 22 25  1  0  0  0  0
 23 21  1  6  0  0  0
 23 22  1  0  0  0  0
 23 25  1  0  0  0  0
 25 24  1  0  0  0  0
 27 26  3  0  0  0  0
 28 30  1  0  0  0  0
 30 29  1  0  0  0  0
M  END
>  <MODEL>
3

>  <REMARK>
 VINA RESULT:      -7.3      3.099      7.369
  Name = 
  10 active torsions:
  status: ('A' for Active; 'I' for Inactive)
    1  A    between atoms: C_1  and  C_18
    2  A    between atoms: C_3  and  N_21
    3  A    between atoms: C_7  and  C_24
    4  A    between atoms: C_8  and  C_28
    5  A    between atoms: N_11  and  C_28
    6  A    between atoms: N_11  and  C_29
    7  A    between atoms: C_14  and  C_29
    8  A    between atoms: N_21  and  C_27
    9  A    between atoms: O_23  and  C_29
   10  A    between atoms: O_23  and  C_30
                            x       y       z     vdW  Elec       q    Type
                         _______ _______ _______ _____ _____    ______ ____

>  <TORSDO>
F 10

$$$$
=
 OpenBabel11032419143D

 30 35  0  0  1  0  0  0  0  0999 V2000
  186.9880  177.5070  145.5300 C   0  0  1  0  0  3  0  0  0  0  0  0
  184.7710  178.9360  143.1440 C   0  0  0  0  0  0  0  0  0  0  0  0
  184.8030  178.7140  145.3360 N   0  0  0  0  0  0  0  0  0  0  0  0
  185.8940  178.1700  144.7580 C   0  0  0  0  0  0  0  0  0  0  0  0
  185.9150  178.2850  143.4170 N   0  0  0  0  0  0  0  0  0  0  0  0
  184.0830  179.2070  144.3110 C   0  0  0  0  0  2  0  0  0  0  0  0
  182.9570  177.0840  139.4530 C   0  0  0  0  0  3  0  0  0  0  0  0
  183.0890  178.6410  141.3590 C   0  0  0  0  0  0  0  0  0  0  0  0
  181.5770  176.9810  139.7590 C   0  0  0  0  0  3  0  0  0  0  0  0
  185.3530  178.5470  140.5580 S   0  0  0  0  0  0  0  0  0  0  0  0
  180.9860  177.6950  140.8480 C   0  0  0  0  0  3  0  0  0  0  0  0
  183.6770  177.9270  140.2810 C   0  0  0  0  0  0  0  0  0  0  0  0
  184.3560  179.3130  141.7510 C   0  0  2  0  0  3  0  0  0  0  0  0
  181.7450  178.5510  141.6790 C   0  0  0  0  0  3  0  0  0  0  0  0
  188.2840  177.9160  145.0060 N   0  0  0  0  0  2  0  0  0  0  0  0
  188.8270  176.8090  144.2360 C   0  0  0  0  0  2  0  0  0  0  0  0
  190.1890  177.1850  143.6810 C   0  0  1  0  0  0  0  0  0  0  0  0
  191.3160  176.8730  144.6440 C   0  0  0  0  0  2  0  0  0  0  0  0
  190.9800  175.8930  143.5400 C   0  0  2  0  0  3  0  0  0  0  0  0
  190.4360  176.5920  142.3110 C   0  0  2  0  0  3  0  0  0  0  0  0
  191.4970  177.3330  141.6520 N   0  0  0  0  0  2  0  0  0  0  0  0
  189.6620  177.5290  140.1630 C   0  0  2  0  0  3  0  0  0  0  0  0
  191.1160  177.4770  140.2580 C   0  0  2  0  0  3  0  0  0  0  0  0
  190.6820  176.1030  138.4000 C   0  0  0  0  0  1  0  0  0  0  0  0
  190.3910  176.2690  139.8230 N   0  0  0  0  0  0  0  0  0  0  0  0
  188.9500  179.0170  138.1070 N   0  0  0  0  0  0  0  0  0  0  0  0
  189.2630  178.3650  139.0130 C   0  0  0  0  0  0  0  0  0  0  0  0
  186.8910  177.8650  146.8760 O   0  0  0  0  0  0  0  0  0  0  0  0
  188.3780  178.0590  148.7220 C   0  0  0  0  0  1  0  0  0  0  0  0
  187.9990  177.2730  147.4840 C   0  0  0  0  0  2  0  0  0  0  0  0
  1 15  1  6  0  0  0
  1 28  1  0  0  0  0
  2  5  2  0  0  0  0
  2  6  1  0  0  0  0
  4  3  2  0  0  0  0
  4  1  1  0  0  0  0
  5  4  1  0  0  0  0
  6  3  1  0  0  0  0
  7  9  2  0  0  0  0
  7 12  1  0  0  0  0
  8 14  1  0  0  0  0
  8 13  1  0  0  0  0
  9 11  1  0  0  0  0
 10 13  1  0  0  0  0
 11 14  2  0  0  0  0
 12 10  1  0  0  0  0
 12  8  2  0  0  0  0
 13  2  1  1  0  0  0
 16 15  1  0  0  0  0
 17 16  1  1  0  0  0
 17 18  1  0  0  0  0
 19 17  1  0  0  0  0
 19 18  1  6  0  0  0
 20 21  1  6  0  0  0
 20 19  1  0  0  0  0
 20 17  1  0  0  0  0
 22 27  1  6  0  0  0
 22 23  1  0  0  0  0
 23 21  1  1  0  0  0
 24 25  1  0  0  0  0
 25 22  1  0  0  0  0
 25 23  1  0  0  0  0
 26 27  3  0  0  0  0
 28 30  1  0  0  0  0
 30 29  1  0  0  0  0
M  END
>  <MODEL>
4

>  <REMARK>
 VINA RESULT:      -7.2      3.058      7.735
  Name = 
  10 active torsions:
  status: ('A' for Active; 'I' for Inactive)
    1  A    between atoms: C_1  and  C_18
    2  A    between atoms: C_3  and  N_21
    3  A    between atoms: C_7  and  C_24
    4  A    between atoms: C_8  and  C_28
    5  A    between atoms: N_11  and  C_28
    6  A    between atoms: N_11  and  C_29
    7  A    between atoms: C_14  and  C_29
    8  A    between atoms: N_21  and  C_27
    9  A    between atoms: O_23  and  C_29
   10  A    between atoms: O_23  and  C_30
                            x       y       z     vdW  Elec       q    Type
                         _______ _______ _______ _____ _____    ______ ____

>  <TORSDO>
F 10

$$$$
=
 OpenBabel11032419143D

 30 35  0  0  1  0  0  0  0  0999 V2000
  185.4980  178.7980  141.3950 C   0  0  1  0  0  3  0  0  0  0  0  0
  188.5440  178.2480  139.6440 C   0  0  0  0  0  0  0  0  0  0  0  0
  187.9000  178.1870  141.7500 N   0  0  0  0  0  0  0  0  0  0  0  0
  186.8870  178.5180  140.9220 C   0  0  0  0  0  0  0  0  0  0  0  0
  187.2380  178.5650  139.6240 N   0  0  0  0  0  0  0  0  0  0  0  0
  188.9600  178.0110  140.9400 C   0  0  0  0  0  2  0  0  0  0  0  0
  188.7470  175.9460  135.7710 C   0  0  0  0  0  3  0  0  0  0  0  0
  188.5450  177.9490  137.1920 C   0  0  0  0  0  0  0  0  0  0  0  0
  187.7450  176.5380  134.9620 C   0  0  0  0  0  3  0  0  0  0  0  0
  190.2210  176.6400  138.3100 S   0  0  0  0  0  0  0  0  0  0  0  0
  187.1640  177.8040  135.2810 C   0  0  0  0  0  3  0  0  0  0  0  0
  189.1180  176.6870  136.8780 C   0  0  0  0  0  0  0  0  0  0  0  0
  189.3830  178.1540  138.4020 C   0  0  2  0  0  3  0  0  0  0  0  0
  187.5610  178.5430  136.4200 C   0  0  0  0  0  3  0  0  0  0  0  0
  185.5370  179.4500  142.6970 N   0  0  0  0  0  2  0  0  0  0  0  0
  185.2230  178.4530  143.7070 C   0  0  0  0  0  2  0  0  0  0  0  0
  186.1420  178.6230  144.9040 C   0  0  1  0  0  0  0  0  0  0  0  0
  185.3850  178.9200  146.1810 C   0  0  0  0  0  2  0  0  0  0  0  0
  185.8130  177.5000  145.8750 C   0  0  2  0  0  3  0  0  0  0  0  0
  187.0940  177.4580  145.0680 C   0  0  2  0  0  3  0  0  0  0  0  0
  188.2160  177.8680  145.8950 N   0  0  0  0  0  2  0  0  0  0  0  0
  190.5580  177.5640  146.0990 C   0  0  2  0  0  3  0  0  0  0  0  0
  189.3250  176.9860  145.5780 C   0  0  2  0  0  3  0  0  0  0  0  0
  190.8370  176.6210  143.8160 C   0  0  0  0  0  1  0  0  0  0  0  0
  190.2390  177.6670  144.6430 N   0  0  0  0  0  0  0  0  0  0  0  0
  192.2330  175.6400  146.7630 N   0  0  0  0  0  0  0  0  0  0  0  0
  191.4990  176.4880  146.4710 C   0  0  0  0  0  0  0  0  0  0  0  0
  184.8510  179.6270  140.4750 O   0  0  0  0  0  0  0  0  0  0  0  0
  183.1240  179.4110  138.8550 C   0  0  0  0  0  1  0  0  0  0  0  0
  183.6340  178.9950  140.2190 C   0  0  0  0  0  2  0  0  0  0  0  0
  1 28  1  6  0  0  0
  1 15  1  0  0  0  0
  2  6  1  0  0  0  0
  4  1  1  0  0  0  0
  4  3  2  0  0  0  0
  5  2  2  0  0  0  0
  5  4  1  0  0  0  0
  6  3  1  0  0  0  0
  7 12  1  0  0  0  0
  8 13  1  0  0  0  0
  9 11  1  0  0  0  0
  9  7  2  0  0  0  0
 10 13  1  0  0  0  0
 11 14  2  0  0  0  0
 12  8  2  0  0  0  0
 12 10  1  0  0  0  0
 13  2  1  1  0  0  0
 14  8  1  0  0  0  0
 15 16  1  0  0  0  0
 17 16  1  6  0  0  0
 17 20  1  0  0  0  0
 17 19  1  0  0  0  0
 17 18  1  0  0  0  0
 19 18  1  1  0  0  0
 20 19  1  0  0  0  0
 20 21  1  1  0  0  0
 22 27  1  6  0  0  0
 23 21  1  1  0  0  0
 23 22  1  0  0  0  0
 24 25  1  0  0  0  0
 25 23  1  0  0  0  0
 25 22  1  0  0  0  0
 27 26  3  0  0  0  0
 29 30  1  0  0  0  0
 30 28  1  0  0  0  0
M  END
>  <MODEL>
5

>  <REMARK>
 VINA RESULT:      -7.1      2.923      7.930
  Name = 
  10 active torsions:
  status: ('A' for Active; 'I' for Inactive)
    1  A    between atoms: C_1  and  C_18
    2  A    between atoms: C_3  and  N_21
    3  A    between atoms: C_7  and  C_24
    4  A    between atoms: C_8  and  C_28
    5  A    between atoms: N_11  and  C_28
    6  A    between atoms: N_11  and  C_29
    7  A    between atoms: C_14  and  C_29
    8  A    between atoms: N_21  and  C_27
    9  A    between atoms: O_23  and  C_29
   10  A    between atoms: O_23  and  C_30
                            x       y       z     vdW  Elec       q    Type
                         _______ _______ _______ _____ _____    ______ ____

>  <TORSDO>
F 10

$$$$
=
 OpenBabel11032419143D

 30 35  0  0  1  0  0  0  0  0999 V2000
  190.5600  176.9910  140.9310 C   0  0  1  0  0  3  0  0  0  0  0  0
  190.3190  176.9920  144.4790 C   0  0  0  0  0  0  0  0  0  0  0  0
  191.0640  178.3880  142.9470 N   0  0  0  0  0  0  0  0  0  0  0  0
  190.5840  177.2520  142.4020 C   0  0  0  0  0  0  0  0  0  0  0  0
  190.1160  176.3700  143.3050 N   0  0  0  0  0  0  0  0  0  0  0  0
  190.8960  178.2300  144.2730 C   0  0  0  0  0  2  0  0  0  0  0  0
  189.0470  178.2620  148.6160 C   0  0  0  0  0  3  0  0  0  0  0  0
  188.8160  177.1400  146.4340 C   0  0  0  0  0  0  0  0  0  0  0  0
  187.6860  178.6240  148.4650 C   0  0  0  0  0  3  0  0  0  0  0  0
  191.1090  176.7370  147.0260 S   0  0  0  0  0  0  0  0  0  0  0  0
  186.9250  178.2500  147.3130 C   0  0  0  0  0  3  0  0  0  0  0  0
  189.5730  177.5180  147.5740 C   0  0  0  0  0  0  0  0  0  0  0  0
  189.9330  176.3920  145.8010 C   0  0  2  0  0  3  0  0  0  0  0  0
  187.4870  177.4880  146.2620 C   0  0  0  0  0  3  0  0  0  0  0  0
  189.2140  177.1930  140.4120 N   0  0  0  0  0  2  0  0  0  0  0  0
  189.2920  177.2170  138.9610 C   0  0  0  0  0  2  0  0  0  0  0  0
  188.3570  178.2780  138.4110 C   0  0  1  0  0  0  0  0  0  0  0  0
  188.9370  179.0030  137.2150 C   0  0  0  0  0  2  0  0  0  0  0  0
  187.9820  177.8480  137.0000 C   0  0  2  0  0  3  0  0  0  0  0  0
  186.9730  177.7340  138.1250 C   0  0  2  0  0  3  0  0  0  0  0  0
  186.0290  178.8360  138.0590 N   0  0  0  0  0  2  0  0  0  0  0  0
  184.0730  179.6890  139.0930 C   0  0  2  0  0  3  0  0  0  0  0  0
  184.9470  178.5280  138.9770 C   0  0  2  0  0  3  0  0  0  0  0  0
  184.5210  178.6100  141.2880 C   0  0  0  0  0  1  0  0  0  0  0  0
  185.0610  179.3840  140.1720 N   0  0  0  0  0  0  0  0  0  0  0  0
  181.6000  178.9100  139.5660 N   0  0  0  0  0  0  0  0  0  0  0  0
  182.6870  179.2510  139.3550 C   0  0  0  0  0  0  0  0  0  0  0  0
  191.4450  177.8610  140.2900 O   0  0  0  0  0  0  0  0  0  0  0  0
  192.8310  176.7480  138.7100 C   0  0  0  0  0  1  0  0  0  0  0  0
  192.6290  177.1340  140.1610 C   0  0  0  0  0  2  0  0  0  0  0  0
  1 28  1  6  0  0  0
  1  4  1  0  0  0  0
  3  6  1  0  0  0  0
  4  3  2  0  0  0  0
  4  5  1  0  0  0  0
  5  2  2  0  0  0  0
  6  2  1  0  0  0  0
  8 12  1  0  0  0  0
  9  7  1  0  0  0  0
 10 12  1  0  0  0  0
 11  9  2  0  0  0  0
 12  7  2  0  0  0  0
 13  2  1  6  0  0  0
 13  8  1  0  0  0  0
 13 10  1  0  0  0  0
 14  8  2  0  0  0  0
 14 11  1  0  0  0  0
 15  1  1  0  0  0  0
 16 15  1  0  0  0  0
 17 16  1  1  0  0  0
 18 17  1  0  0  0  0
 19 18  1  6  0  0  0
 19 20  1  0  0  0  0
 19 17  1  0  0  0  0
 20 21  1  6  0  0  0
 20 17  1  0  0  0  0
 22 27  1  1  0  0  0
 22 25  1  0  0  0  0
 23 21  1  6  0  0  0
 23 22  1  0  0  0  0
 23 25  1  0  0  0  0
 25 24  1  0  0  0  0
 27 26  3  0  0  0  0
 29 30  1  0  0  0  0
 30 28  1  0  0  0  0
M  END
>  <MODEL>
6

>  <REMARK>
 VINA RESULT:      -7.1      1.546      2.165
  Name = 
  10 active torsions:
  status: ('A' for Active; 'I' for Inactive)
    1  A    between atoms: C_1  and  C_18
    2  A    between atoms: C_3  and  N_21
    3  A    between atoms: C_7  and  C_24
    4  A    between atoms: C_8  and  C_28
    5  A    between atoms: N_11  and  C_28
    6  A    between atoms: N_11  and  C_29
    7  A    between atoms: C_14  and  C_29
    8  A    between atoms: N_21  and  C_27
    9  A    between atoms: O_23  and  C_29
   10  A    between atoms: O_23  and  C_30
                            x       y       z     vdW  Elec       q    Type
                         _______ _______ _______ _____ _____    ______ ____

>  <TORSDO>
F 10

$$$$
=
 OpenBabel11032419143D

 30 35  0  0  1  0  0  0  0  0999 V2000
  185.3220  179.3780  141.6820 C   0  0  1  0  0  3  0  0  0  0  0  0
  188.0970  177.2820  142.4250 C   0  0  0  0  0  0  0  0  0  0  0  0
  187.5920  178.7330  140.8460 N   0  0  0  0  0  0  0  0  0  0  0  0
  186.6010  178.6080  141.7520 C   0  0  0  0  0  0  0  0  0  0  0  0
  186.8700  177.7310  142.7370 N   0  0  0  0  0  0  0  0  0  0  0  0
  188.5520  177.8900  141.2710 C   0  0  0  0  0  2  0  0  0  0  0  0
  191.2690  177.1080  145.6270 C   0  0  0  0  0  3  0  0  0  0  0  0
  189.0330  176.7620  144.6520 C   0  0  0  0  0  0  0  0  0  0  0  0
  190.5870  177.4820  146.8120 C   0  0  0  0  0  3  0  0  0  0  0  0
  190.5190  176.2160  142.8440 S   0  0  0  0  0  0  0  0  0  0  0  0
  189.1600  177.4960  146.8930 C   0  0  0  0  0  3  0  0  0  0  0  0
  190.4510  176.7540  144.5690 C   0  0  0  0  0  0  0  0  0  0  0  0
  188.8380  176.2770  143.2600 C   0  0  2  0  0  3  0  0  0  0  0  0
  188.3460  177.1290  145.7960 C   0  0  0  0  0  3  0  0  0  0  0  0
  184.8200  179.3840  140.3140 N   0  0  0  0  0  2  0  0  0  0  0  0
  183.6330  178.5470  140.2680 C   0  0  0  0  0  2  0  0  0  0  0  0
  183.8340  177.4200  139.2700 C   0  0  1  0  0  0  0  0  0  0  0  0
  182.5420  176.7070  138.9290 C   0  0  0  0  0  2  0  0  0  0  0  0
  183.0600  177.7990  138.0160 C   0  0  2  0  0  3  0  0  0  0  0  0
  184.5730  177.8750  138.0300 C   0  0  2  0  0  3  0  0  0  0  0  0
  185.1350  176.7190  137.3550 N   0  0  0  0  0  2  0  0  0  0  0  0
  186.8040  178.2580  136.6710 C   0  0  2  0  0  3  0  0  0  0  0  0
  186.5660  176.9400  137.2470 C   0  0  2  0  0  3  0  0  0  0  0  0
  188.3040  176.5180  135.7210 C   0  0  0  0  0  1  0  0  0  0  0  0
  186.9400  177.0350  135.8250 N   0  0  0  0  0  0  0  0  0  0  0  0
  189.0550  179.2570  137.6110 N   0  0  0  0  0  0  0  0  0  0  0  0
  188.0670  178.8150  137.1960 C   0  0  0  0  0  0  0  0  0  0  0  0
  184.3770  178.7900  142.5250 O   0  0  0  0  0  0  0  0  0  0  0  0
  183.4230  179.0000  144.6940 C   0  0  0  0  0  1  0  0  0  0  0  0
  184.4490  179.5240  143.7090 C   0  0  0  0  0  2  0  0  0  0  0  0
  1 15  1  6  0  0  0
  1  4  1  0  0  0  0
  1 28  1  0  0  0  0
  2  5  2  0  0  0  0
  3  6  1  0  0  0  0
  3  4  2  0  0  0  0
  4  5  1  0  0  0  0
  6  2  1  0  0  0  0
  7  9  1  0  0  0  0
  8 14  2  0  0  0  0
  9 11  2  0  0  0  0
 10 13  1  0  0  0  0
 10 12  1  0  0  0  0
 12  8  1  0  0  0  0
 12  7  2  0  0  0  0
 13  2  1  6  0  0  0
 13  8  1  0  0  0  0
 14 11  1  0  0  0  0
 16 15  1  0  0  0  0
 17 16  1  1  0  0  0
 18 17  1  0  0  0  0
 19 20  1  0  0  0  0
 19 18  1  6  0  0  0
 19 17  1  0  0  0  0
 20 21  1  6  0  0  0
 20 17  1  0  0  0  0
 22 27  1  1  0  0  0
 22 23  1  0  0  0  0
 23 21  1  6  0  0  0
 24 25  1  0  0  0  0
 25 22  1  0  0  0  0
 25 23  1  0  0  0  0
 27 26  3  0  0  0  0
 28 30  1  0  0  0  0
 30 29  1  0  0  0  0
M  END
>  <MODEL>
7

>  <REMARK>
 VINA RESULT:      -7.0      2.636      5.228
  Name = 
  10 active torsions:
  status: ('A' for Active; 'I' for Inactive)
    1  A    between atoms: C_1  and  C_18
    2  A    between atoms: C_3  and  N_21
    3  A    between atoms: C_7  and  C_24
    4  A    between atoms: C_8  and  C_28
    5  A    between atoms: N_11  and  C_28
    6  A    between atoms: N_11  and  C_29
    7  A    between atoms: C_14  and  C_29
    8  A    between atoms: N_21  and  C_27
    9  A    between atoms: O_23  and  C_29
   10  A    between atoms: O_23  and  C_30
                            x       y       z     vdW  Elec       q    Type
                         _______ _______ _______ _____ _____    ______ ____

>  <TORSDO>
F 10

$$$$
=
 OpenBabel11032419143D

 30 35  0  0  1  0  0  0  0  0999 V2000
  184.3100  179.1150  139.5930 C   0  0  1  0  0  3  0  0  0  0  0  0
  186.6290  177.8540  137.2100 C   0  0  0  0  0  0  0  0  0  0  0  0
  184.5610  177.3820  137.8040 N   0  0  0  0  0  0  0  0  0  0  0  0
  185.0730  178.3990  138.5260 C   0  0  0  0  0  0  0  0  0  0  0  0
  186.3370  178.7210  138.1930 N   0  0  0  0  0  0  0  0  0  0  0  0
  185.5490  177.0300  136.9590 C   0  0  0  0  0  2  0  0  0  0  0  0
  190.9340  176.7180  137.9320 C   0  0  0  0  0  3  0  0  0  0  0  0
  188.7330  176.6170  136.8270 C   0  0  0  0  0  0  0  0  0  0  0  0
  190.9420  175.3050  137.8270 C   0  0  0  0  0  3  0  0  0  0  0  0
  189.0650  178.9680  137.1940 S   0  0  0  0  0  0  0  0  0  0  0  0
  189.8580  174.5820  137.2390 C   0  0  0  0  0  3  0  0  0  0  0  0
  189.8070  177.3350  137.4180 C   0  0  0  0  0  0  0  0  0  0  0  0
  187.9510  177.8380  136.4980 C   0  0  2  0  0  3  0  0  0  0  0  0
  188.7170  175.2370  136.7200 C   0  0  0  0  0  3  0  0  0  0  0  0
  185.1820  179.3930  140.7270 N   0  0  0  0  0  2  0  0  0  0  0  0
  184.8720  178.4350  141.7750 C   0  0  0  0  0  2  0  0  0  0  0  0
  185.5330  178.8610  143.0740 C   0  0  1  0  0  0  0  0  0  0  0  0
  184.6370  179.7360  143.9240 C   0  0  0  0  0  2  0  0  0  0  0  0
  184.7180  178.2500  144.2050 C   0  0  2  0  0  3  0  0  0  0  0  0
  186.0790  177.6850  143.8550 C   0  0  2  0  0  3  0  0  0  0  0  0
  187.0730  178.1570  144.8030 N   0  0  0  0  0  2  0  0  0  0  0  0
  189.4360  178.0320  144.6580 C   0  0  2  0  0  3  0  0  0  0  0  0
  188.2060  177.2520  144.7220 C   0  0  2  0  0  3  0  0  0  0  0  0
  189.4380  176.1160  143.0740 C   0  0  0  0  0  1  0  0  0  0  0  0
  188.8720  177.4190  143.4180 N   0  0  0  0  0  0  0  0  0  0  0  0
  191.4000  176.6920  145.7960 N   0  0  0  0  0  0  0  0  0  0  0  0
  190.5390  177.2830  145.2950 C   0  0  0  0  0  0  0  0  0  0  0  0
  183.8090  180.3150  139.0820 O   0  0  0  0  0  0  0  0  0  0  0  0
  181.7820  181.3470  138.3900 C   0  0  0  0  0  1  0  0  0  0  0  0
  182.4380  180.0990  138.9450 C   0  0  0  0  0  2  0  0  0  0  0  0
  1 28  1  6  0  0  0
  1 15  1  0  0  0  0
  2  5  2  0  0  0  0
  3  4  2  0  0  0  0
  4  1  1  0  0  0  0
  5  4  1  0  0  0  0
  6  2  1  0  0  0  0
  6  3  1  0  0  0  0
  8 12  1  0  0  0  0
  9  7  1  0  0  0  0
 10 12  1  0  0  0  0
 11  9  2  0  0  0  0
 12  7  2  0  0  0  0
 13  8  1  0  0  0  0
 13 10  1  0  0  0  0
 13  2  1  1  0  0  0
 14  8  2  0  0  0  0
 14 11  1  0  0  0  0
 15 16  1  0  0  0  0
 17 16  1  6  0  0  0
 17 20  1  0  0  0  0
 17 18  1  0  0  0  0
 17 19  1  0  0  0  0
 19 18  1  1  0  0  0
 20 19  1  0  0  0  0
 20 21  1  1  0  0  0
 22 23  1  0  0  0  0
 22 27  1  1  0  0  0
 23 21  1  6  0  0  0
 24 25  1  0  0  0  0
 25 22  1  0  0  0  0
 25 23  1  0  0  0  0
 27 26  3  0  0  0  0
 29 30  1  0  0  0  0
 30 28  1  0  0  0  0
M  END
>  <MODEL>
8

>  <REMARK>
 VINA RESULT:      -7.0      2.884      7.712
  Name = 
  10 active torsions:
  status: ('A' for Active; 'I' for Inactive)
    1  A    between atoms: C_1  and  C_18
    2  A    between atoms: C_3  and  N_21
    3  A    between atoms: C_7  and  C_24
    4  A    between atoms: C_8  and  C_28
    5  A    between atoms: N_11  and  C_28
    6  A    between atoms: N_11  and  C_29
    7  A    between atoms: C_14  and  C_29
    8  A    between atoms: N_21  and  C_27
    9  A    between atoms: O_23  and  C_29
   10  A    between atoms: O_23  and  C_30
                            x       y       z     vdW  Elec       q    Type
                         _______ _______ _______ _____ _____    ______ ____

>  <TORSDO>
F 10

$$$$
=
 OpenBabel11032419143D

 30 35  0  0  1  0  0  0  0  0999 V2000
  189.4080  177.3060  143.6520 C   0  0  1  0  0  3  0  0  0  0  0  0
  189.1970  177.6450  140.1180 C   0  0  0  0  0  0  0  0  0  0  0  0
  187.9360  178.2030  141.8360 N   0  0  0  0  0  0  0  0  0  0  0  0
  189.0650  177.5750  142.2220 C   0  0  0  0  0  0  0  0  0  0  0  0
  189.8660  177.2170  141.2020 N   0  0  0  0  0  0  0  0  0  0  0  0
  188.0150  178.2540  140.4930 C   0  0  0  0  0  2  0  0  0  0  0  0
  190.0620  174.4010  137.1060 C   0  0  0  0  0  3  0  0  0  0  0  0
  188.9680  176.4290  137.9800 C   0  0  0  0  0  0  0  0  0  0  0  0
  188.7860  174.0500  136.5980 C   0  0  0  0  0  3  0  0  0  0  0  0
  191.2490  176.6740  138.6950 S   0  0  0  0  0  0  0  0  0  0  0  0
  187.6380  174.8800  136.7920 C   0  0  0  0  0  3  0  0  0  0  0  0
  190.1070  175.6010  137.7920 C   0  0  0  0  0  0  0  0  0  0  0  0
  189.7150  177.4810  138.7180 C   0  0  2  0  0  3  0  0  0  0  0  0
  187.7120  176.1040  137.4970 C   0  0  0  0  0  3  0  0  0  0  0  0
  188.1970  177.0100  144.4060 N   0  0  0  0  0  2  0  0  0  0  0  0
  188.1750  177.8740  145.5750 C   0  0  0  0  0  2  0  0  0  0  0  0
  186.8020  177.8310  146.2230 C   0  0  1  0  0  0  0  0  0  0  0  0
  186.8730  177.7680  147.7340 C   0  0  0  0  0  2  0  0  0  0  0  0
  186.6640  179.1010  147.0480 C   0  0  2  0  0  3  0  0  0  0  0  0
  185.9050  178.9520  145.7450 C   0  0  2  0  0  3  0  0  0  0  0  0
  184.5200  178.6060  146.0140 N   0  0  0  0  0  2  0  0  0  0  0  0
  184.4770  179.2860  143.7430 C   0  0  2  0  0  3  0  0  0  0  0  0
  183.8740  178.3990  144.7300 C   0  0  2  0  0  3  0  0  0  0  0  0
  182.0010  179.1910  143.5520 C   0  0  0  0  0  1  0  0  0  0  0  0
  183.1510  179.6230  144.3430 N   0  0  0  0  0  0  0  0  0  0  0  0
  184.3910  178.1670  141.3580 N   0  0  0  0  0  0  0  0  0  0  0  0
  184.4320  178.6570  142.4070 C   0  0  0  0  0  0  0  0  0  0  0  0
  190.2820  176.2190  143.7250 O   0  0  0  0  0  0  0  0  0  0  0  0
  191.6030  176.4760  145.6850 C   0  0  0  0  0  1  0  0  0  0  0  0
  191.4790  176.7550  144.2020 C   0  0  0  0  0  2  0  0  0  0  0  0
  1 28  1  6  0  0  0
  1 15  1  0  0  0  0
  2  6  1  0  0  0  0
  2  5  2  0  0  0  0
  3  4  2  0  0  0  0
  4  1  1  0  0  0  0
  5  4  1  0  0  0  0
  6  3  1  0  0  0  0
  7 12  1  0  0  0  0
  8 13  1  0  0  0  0
  9 11  1  0  0  0  0
  9  7  2  0  0  0  0
 10 13  1  0  0  0  0
 11 14  2  0  0  0  0
 12  8  2  0  0  0  0
 12 10  1  0  0  0  0
 13  2  1  1  0  0  0
 14  8  1  0  0  0  0
 15 16  1  0  0  0  0
 17 16  1  6  0  0  0
 17 19  1  0  0  0  0
 17 18  1  0  0  0  0
 19 18  1  1  0  0  0
 20 21  1  1  0  0  0
 20 17  1  0  0  0  0
 20 19  1  0  0  0  0
 22 27  1  6  0  0  0
 22 25  1  0  0  0  0
 22 23  1  0  0  0  0
 23 21  1  1  0  0  0
 24 25  1  0  0  0  0
 25 23  1  0  0  0  0
 26 27  3  0  0  0  0
 28 30  1  0  0  0  0
 30 29  1  0  0  0  0
M  END
>  <MODEL>
9

>  <REMARK>
 VINA RESULT:      -6.9      2.774      6.763
  Name = 
  10 active torsions:
  status: ('A' for Active; 'I' for Inactive)
    1  A    between atoms: C_1  and  C_18
    2  A    between atoms: C_3  and  N_21
    3  A    between atoms: C_7  and  C_24
    4  A    between atoms: C_8  and  C_28
    5  A    between atoms: N_11  and  C_28
    6  A    between atoms: N_11  and  C_29
    7  A    between atoms: C_14  and  C_29
    8  A    between atoms: N_21  and  C_27
    9  A    between atoms: O_23  and  C_29
   10  A    between atoms: O_23  and  C_30
                            x       y       z     vdW  Elec       q    Type
                         _______ _______ _______ _____ _____    ______ ____

>  <TORSDO>
F 10

$$$$
