=
 OpenBabel11042411223D

 25 29  0  0  1  0  0  0  0  0999 V2000
  186.7230  177.6750  144.7040 C   0  0  0  0  0  0  0  0  0  0  0  0
  189.1960  176.8370  144.4140 C   0  0  1  0  0  3  0  0  0  0  0  0
  186.6150  177.4110  146.0890 C   0  0  0  0  0  0  0  0  0  0  0  0
  185.6960  178.5140  142.6430 C   0  0  0  0  0  3  0  0  0  0  0  0
  186.7940  178.0730  141.9010 C   0  0  0  0  0  3  0  0  0  0  0  0
  190.3220  177.3350  146.4450 C   0  0  0  0  0  2  0  0  0  0  0  0
  190.3400  175.2310  143.0180 O   0  0  0  0  0  1  0  0  0  0  0  0
  189.1010  176.9960  141.9310 C   0  0  0  0  0  2  0  0  0  0  0  0
  189.9730  176.5730  143.1150 C   0  0  1  0  0  0  0  0  0  0  0  0
  192.0590  177.4840  142.4240 O   0  0  0  0  0  0  0  0  0  0  0  0
  187.8610  177.4830  142.5700 C   0  0  0  0  0  0  0  0  0  0  0  0
  189.8900  177.9000  145.1730 N   0  0  1  0  0  0  0  0  0  0  0  0
  191.1520  177.4410  143.2400 C   0  0  0  0  0  0  0  0  0  0  0  0
  188.2540  176.9540  147.9440 C   0  0  0  0  0  2  0  0  0  0  0  0
  185.5190  177.8960  146.8070 C   0  0  0  0  0  3  0  0  0  0  0  0
  191.1140  178.2640  144.4590 C   0  0  0  0  0  2  0  0  0  0  0  0
  189.4170  177.7970  147.5420 C   0  0  0  0  0  0  0  0  0  0  0  0
  189.6220  178.8630  148.0990 O   0  0  0  0  0  0  0  0  0  0  0  0
  185.6480  178.3350  144.0400 C   0  0  0  0  0  0  0  0  0  0  0  0
  184.5030  178.5990  146.1640 C   0  0  0  0  0  3  0  0  0  0  0  0
  187.5390  176.5450  146.7480 N   0  0  0  0  0  2  0  0  0  0  0  0
  187.8610  177.3230  143.9370 C   0  0  0  0  0  0  0  0  0  0  0  0
  184.5470  178.8070  144.7860 C   0  0  0  0  0  0  0  0  0  0  0  0
  183.4520  179.5120  144.1660 C   0  0  0  0  0  0  0  0  0  0  0  0
  182.5730  180.0780  143.6680 N   0  0  0  0  0  0  0  0  0  0  0  0
  1  3  2  0  0  0  0
  2 22  1  6  0  0  0
  2 12  1  0  0  0  0
  3 21  1  0  0  0  0
  3 15  1  0  0  0  0
  4 19  1  0  0  0  0
  5 11  1  0  0  0  0
  5  4  2  0  0  0  0
  6 17  1  0  0  0  0
  8 11  1  0  0  0  0
  8  9  1  0  0  0  0
  9  7  1  6  0  0  0
  9 13  1  0  0  0  0
  9  2  1  0  0  0  0
 10 13  2  0  0  0  0
 11 22  2  0  0  0  0
 12 16  1  6  0  0  0
 12  6  1  0  0  0  0
 13 16  1  0  0  0  0
 17 14  1  0  0  0  0
 17 18  2  0  0  0  0
 19  1  1  0  0  0  0
 19 23  2  0  0  0  0
 20 15  2  0  0  0  0
 21 14  1  0  0  0  0
 22  1  1  0  0  0  0
 23 20  1  0  0  0  0
 24 23  1  0  0  0  0
 25 24  3  0  0  0  0
M  END
>  <MODEL>
1

>  <REMARK>
 VINA RESULT:      -9.0      0.000      0.000
  Name = 
  1 active torsions:
  status: ('A' for Active; 'I' for Inactive)
    1  A    between atoms: C_4  and  C_25
                            x       y       z     vdW  Elec       q    Type
                         _______ _______ _______ _____ _____    ______ ____

>  <TORSDO>
F 1

$$$$
=
 OpenBabel11042411223D

 25 29  0  0  1  0  0  0  0  0999 V2000
  187.1050  178.4010  142.8620 C   0  0  0  0  0  0  0  0  0  0  0  0
  189.6620  177.8140  142.9820 C   0  0  1  0  0  3  0  0  0  0  0  0
  187.0820  178.7850  141.5010 C   0  0  0  0  0  0  0  0  0  0  0  0
  185.8940  178.0650  144.9660 C   0  0  0  0  0  3  0  0  0  0  0  0
  187.0960  177.8170  145.6320 C   0  0  0  0  0  3  0  0  0  0  0  0
  190.2610  176.9570  140.8490 C   0  0  0  0  0  2  0  0  0  0  0  0
  191.5440  178.4870  144.3400 O   0  0  0  0  0  1  0  0  0  0  0  0
  189.6210  177.5430  145.4560 C   0  0  0  0  0  2  0  0  0  0  0  0
  190.5260  177.5400  144.2230 C   0  0  1  0  0  0  0  0  0  0  0  0
  191.8610  175.6320  144.7080 O   0  0  0  0  0  0  0  0  0  0  0  0
  188.2800  177.8170  144.9020 C   0  0  0  0  0  0  0  0  0  0  0  0
  189.6610  176.6050  142.1290 N   0  0  1  0  0  0  0  0  0  0  0  0
  191.0710  176.1990  143.9700 C   0  0  0  0  0  0  0  0  0  0  0  0
  188.6240  178.4640  139.5380 C   0  0  0  0  0  2  0  0  0  0  0  0
  185.8600  178.9930  140.8560 C   0  0  0  0  0  3  0  0  0  0  0  0
  190.5490  175.6080  142.7280 C   0  0  0  0  0  2  0  0  0  0  0  0
  189.1950  177.1130  139.8120 C   0  0  0  0  0  0  0  0  0  0  0  0
  188.7860  176.1410  139.2010 O   0  0  0  0  0  0  0  0  0  0  0  0
  185.8770  178.3460  143.5850 C   0  0  0  0  0  0  0  0  0  0  0  0
  184.6590  178.8720  141.5520 C   0  0  0  0  0  3  0  0  0  0  0  0
  188.2880  179.0940  140.8020 N   0  0  0  0  0  2  0  0  0  0  0  0
  188.2950  178.0550  143.5470 C   0  0  0  0  0  0  0  0  0  0  0  0
  184.6560  178.5690  142.9140 C   0  0  0  0  0  0  0  0  0  0  0  0
  183.3870  178.4890  143.5930 C   0  0  0  0  0  0  0  0  0  0  0  0
  182.3670  178.4250  144.1380 N   0  0  0  0  0  0  0  0  0  0  0  0
  1 22  2  0  0  0  0
  1 19  1  0  0  0  0
  2 22  1  1  0  0  0
  2  9  1  0  0  0  0
  3  1  1  0  0  0  0
  4  5  1  0  0  0  0
  9  7  1  1  0  0  0
  9  8  1  0  0  0  0
 11  8  1  0  0  0  0
 11  5  2  0  0  0  0
 12  6  1  6  0  0  0
 12 16  1  0  0  0  0
 12  2  1  0  0  0  0
 13  9  1  0  0  0  0
 13 10  2  0  0  0  0
 14 17  1  0  0  0  0
 14 21  1  0  0  0  0
 15  3  2  0  0  0  0
 15 20  1  0  0  0  0
 16 13  1  0  0  0  0
 17  6  1  0  0  0  0
 18 17  2  0  0  0  0
 19  4  2  0  0  0  0
 20 23  2  0  0  0  0
 21  3  1  0  0  0  0
 22 11  1  0  0  0  0
 23 19  1  0  0  0  0
 23 24  1  0  0  0  0
 24 25  3  0  0  0  0
M  END
>  <MODEL>
2

>  <REMARK>
 VINA RESULT:      -8.8      2.058      4.377
  Name = 
  1 active torsions:
  status: ('A' for Active; 'I' for Inactive)
    1  A    between atoms: C_4  and  C_25
                            x       y       z     vdW  Elec       q    Type
                         _______ _______ _______ _____ _____    ______ ____

>  <TORSDO>
F 1

$$$$
=
 OpenBabel11042411223D

 25 29  0  0  1  0  0  0  0  0999 V2000
  186.6010  178.4560  141.3140 C   0  0  0  0  0  0  0  0  0  0  0  0
  187.3270  178.4540  138.7890 C   0  0  1  0  0  3  0  0  0  0  0  0
  185.2800  178.9180  141.1110 C   0  0  0  0  0  0  0  0  0  0  0  0
  188.3470  177.7110  142.8650 C   0  0  0  0  0  3  0  0  0  0  0  0
  189.2800  177.6950  141.8260 C   0  0  0  0  0  3  0  0  0  0  0  0
  185.3910  177.9040  137.5290 C   0  0  0  0  0  2  0  0  0  0  0  0
  189.1070  179.4390  137.4860 O   0  0  0  0  0  1  0  0  0  0  0  0
  189.7140  178.0110  139.3380 C   0  0  0  0  0  2  0  0  0  0  0  0
  188.7360  178.2970  138.1970 C   0  0  1  0  0  0  0  0  0  0  0  0
  189.5040  176.7110  136.5990 O   0  0  0  0  0  0  0  0  0  0  0  0
  188.8570  178.0130  140.5400 C   0  0  0  0  0  0  0  0  0  0  0  0
  186.4830  177.3380  138.3090 N   0  0  1  0  0  0  0  0  0  0  0  0
  188.6040  177.1350  137.3090 C   0  0  0  0  0  0  0  0  0  0  0  0
  183.7430  179.0890  139.1250 C   0  0  0  0  0  2  0  0  0  0  0  0
  184.3620  178.8890  142.1650 C   0  0  0  0  0  3  0  0  0  0  0  0
  187.2660  176.5280  137.3740 C   0  0  0  0  0  2  0  0  0  0  0  0
  184.1290  177.8870  138.3320 C   0  0  0  0  0  0  0  0  0  0  0  0
  183.4250  176.8920  138.3470 O   0  0  0  0  0  0  0  0  0  0  0  0
  187.0060  178.0750  142.6270 C   0  0  0  0  0  0  0  0  0  0  0  0
  184.7460  178.4520  143.4300 C   0  0  0  0  0  3  0  0  0  0  0  0
  184.8970  179.5380  139.8840 N   0  0  0  0  0  2  0  0  0  0  0  0
  187.5480  178.3410  140.2680 C   0  0  0  0  0  0  0  0  0  0  0  0
  186.0630  178.0640  143.6770 C   0  0  0  0  0  0  0  0  0  0  0  0
  186.4150  177.6520  145.0130 C   0  0  0  0  0  0  0  0  0  0  0  0
  186.6970  177.3220  146.0870 N   0  0  0  0  0  0  0  0  0  0  0  0
  1 19  1  0  0  0  0
  2 22  1  1  0  0  0
  3  1  2  0  0  0  0
  3 15  1  0  0  0  0
  5  4  2  0  0  0  0
  6 12  1  0  0  0  0
  6 17  1  0  0  0  0
  8 11  1  0  0  0  0
  9  7  1  6  0  0  0
  9  2  1  0  0  0  0
  9  8  1  0  0  0  0
 10 13  2  0  0  0  0
 11  5  1  0  0  0  0
 12 16  1  6  0  0  0
 12  2  1  0  0  0  0
 13 16  1  0  0  0  0
 13  9  1  0  0  0  0
 14 21  1  0  0  0  0
 15 20  2  0  0  0  0
 17 18  2  0  0  0  0
 17 14  1  0  0  0  0
 19  4  1  0  0  0  0
 19 23  2  0  0  0  0
 20 23  1  0  0  0  0
 21  3  1  0  0  0  0
 22 11  2  0  0  0  0
 22  1  1  0  0  0  0
 23 24  1  0  0  0  0
 24 25  3  0  0  0  0
M  END
>  <MODEL>
3

>  <REMARK>
 VINA RESULT:      -8.4      3.872      6.363
  Name = 
  1 active torsions:
  status: ('A' for Active; 'I' for Inactive)
    1  A    between atoms: C_4  and  C_25
                            x       y       z     vdW  Elec       q    Type
                         _______ _______ _______ _____ _____    ______ ____

>  <TORSDO>
F 1

$$$$
=
 OpenBabel11042411223D

 25 29  0  0  1  0  0  0  0  0999 V2000
  188.4020  177.4250  144.0790 C   0  0  0  0  0  0  0  0  0  0  0  0
  189.1810  176.9290  146.5380 C   0  0  1  0  0  3  0  0  0  0  0  0
  187.0140  177.4600  144.3430 C   0  0  0  0  0  0  0  0  0  0  0  0
  190.2340  177.6230  142.4630 C   0  0  0  0  0  3  0  0  0  0  0  0
  191.1500  177.2010  143.4300 C   0  0  0  0  0  3  0  0  0  0  0  0
  187.6380  178.0280  147.9710 C   0  0  0  0  0  2  0  0  0  0  0  0
  190.5240  175.2480  147.6360 O   0  0  0  0  0  1  0  0  0  0  0  0
  191.5390  176.5210  145.8520 C   0  0  0  0  0  2  0  0  0  0  0  0
  190.5710  176.5070  147.0370 C   0  0  1  0  0  0  0  0  0  0  0  0
  191.9360  177.5490  148.6830 O   0  0  0  0  0  0  0  0  0  0  0  0
  190.6920  176.9420  144.7170 C   0  0  0  0  0  0  0  0  0  0  0  0
  188.8300  178.2270  147.1560 N   0  0  1  0  0  0  0  0  0  0  0  0
  190.9150  177.5500  148.0120 C   0  0  0  0  0  0  0  0  0  0  0  0
  185.6050  177.6780  146.4180 C   0  0  0  0  0  2  0  0  0  0  0  0
  186.1280  177.9190  143.3640 C   0  0  0  0  0  3  0  0  0  0  0  0
  189.8940  178.6060  148.0870 C   0  0  0  0  0  2  0  0  0  0  0  0
  186.4400  178.5780  147.2640 C   0  0  0  0  0  0  0  0  0  0  0  0
  186.1530  179.7590  147.3710 O   0  0  0  0  0  0  0  0  0  0  0  0
  188.8650  177.7520  142.7700 C   0  0  0  0  0  0  0  0  0  0  0  0
  186.5950  178.3000  142.1070 C   0  0  0  0  0  3  0  0  0  0  0  0
  186.4800  176.9120  145.5480 N   0  0  0  0  0  2  0  0  0  0  0  0
  189.3670  177.0900  145.0590 C   0  0  0  0  0  0  0  0  0  0  0  0
  187.9500  178.2040  141.7950 C   0  0  0  0  0  0  0  0  0  0  0  0
  188.3740  178.5800  140.4690 C   0  0  0  0  0  0  0  0  0  0  0  0
  188.7140  178.8830  139.4040 N   0  0  0  0  0  0  0  0  0  0  0  0
  1  3  1  0  0  0  0
  1 22  1  0  0  0  0
  2 22  1  6  0  0  0
  2  9  1  0  0  0  0
  2 12  1  0  0  0  0
  3 21  1  0  0  0  0
  4 19  1  0  0  0  0
  4  5  2  0  0  0  0
  5 11  1  0  0  0  0
  8  9  1  0  0  0  0
  9  7  1  1  0  0  0
  9 13  1  0  0  0  0
 11 22  2  0  0  0  0
 11  8  1  0  0  0  0
 12  6  1  1  0  0  0
 12 16  1  0  0  0  0
 13 16  1  0  0  0  0
 13 10  2  0  0  0  0
 14 17  1  0  0  0  0
 15  3  2  0  0  0  0
 17 18  2  0  0  0  0
 17  6  1  0  0  0  0
 19  1  2  0  0  0  0
 20 15  1  0  0  0  0
 21 14  1  0  0  0  0
 23 20  2  0  0  0  0
 23 19  1  0  0  0  0
 24 23  1  0  0  0  0
 25 24  3  0  0  0  0
M  END
>  <MODEL>
4

>  <REMARK>
 VINA RESULT:      -7.9      2.298      4.096
  Name = 
  1 active torsions:
  status: ('A' for Active; 'I' for Inactive)
    1  A    between atoms: C_4  and  C_25
                            x       y       z     vdW  Elec       q    Type
                         _______ _______ _______ _____ _____    ______ ____

>  <TORSDO>
F 1

$$$$
=
 OpenBabel11042411223D

 25 29  0  0  1  0  0  0  0  0999 V2000
  183.8370  178.9120  142.6710 C   0  0  0  0  0  0  0  0  0  0  0  0
  182.4150  179.0980  140.4700 C   0  0  1  0  0  3  0  0  0  0  0  0
  182.7800  179.1570  143.5780 C   0  0  0  0  0  0  0  0  0  0  0  0
  186.2090  178.4200  142.2990 C   0  0  0  0  0  3  0  0  0  0  0  0
  186.0400  178.5860  140.9230 C   0  0  0  0  0  3  0  0  0  0  0  0
  180.2500  178.2730  140.9920 C   0  0  0  0  0  2  0  0  0  0  0  0
  182.5140  180.3950  138.4350 O   0  0  0  0  0  1  0  0  0  0  0  0
  184.4270  179.0360  139.0060 C   0  0  0  0  0  2  0  0  0  0  0  0
  182.9050  179.1890  139.0170 C   0  0  1  0  0  0  0  0  0  0  0  0
  182.3460  177.7940  137.1730 O   0  0  0  0  0  0  0  0  0  0  0  0
  184.7700  178.8650  140.4320 C   0  0  0  0  0  0  0  0  0  0  0  0
  181.6000  177.8720  140.6190 N   0  0  1  0  0  0  0  0  0  0  0  0
  182.2530  178.0460  138.3650 C   0  0  0  0  0  0  0  0  0  0  0  0
  180.2670  179.1290  143.4290 C   0  0  0  0  0  2  0  0  0  0  0  0
  182.9740  178.9500  144.9470 C   0  0  0  0  0  3  0  0  0  0  0  0
  181.4800  177.2260  139.3120 C   0  0  0  0  0  2  0  0  0  0  0  0
  180.0300  178.0280  142.4510 C   0  0  0  0  0  0  0  0  0  0  0  0
  179.6680  176.9310  142.8410 O   0  0  0  0  0  0  0  0  0  0  0  0
  185.1220  178.5670  143.1850 C   0  0  0  0  0  0  0  0  0  0  0  0
  184.2150  178.5470  145.4360 C   0  0  0  0  0  3  0  0  0  0  0  0
  181.5530  179.7400  143.1390 N   0  0  0  0  0  2  0  0  0  0  0  0
  183.6800  178.9820  141.2650 C   0  0  0  0  0  0  0  0  0  0  0  0
  185.2950  178.3730  144.5710 C   0  0  0  0  0  0  0  0  0  0  0  0
  186.5650  177.9880  145.1340 C   0  0  0  0  0  0  0  0  0  0  0  0
  187.5850  177.6790  145.5880 N   0  0  0  0  0  0  0  0  0  0  0  0
  1 19  1  0  0  0  0
  1  3  2  0  0  0  0
  2 12  1  0  0  0  0
  2 22  1  1  0  0  0
  3 15  1  0  0  0  0
  4 19  1  0  0  0  0
  5  4  2  0  0  0  0
  6 17  1  0  0  0  0
  8  9  1  0  0  0  0
  8 11  1  0  0  0  0
  9  7  1  6  0  0  0
  9  2  1  0  0  0  0
 10 13  2  0  0  0  0
 11  5  1  0  0  0  0
 11 22  2  0  0  0  0
 12 16  1  6  0  0  0
 12  6  1  0  0  0  0
 13  9  1  0  0  0  0
 13 16  1  0  0  0  0
 15 20  2  0  0  0  0
 17 18  2  0  0  0  0
 17 14  1  0  0  0  0
 19 23  2  0  0  0  0
 21 14  1  0  0  0  0
 21  3  1  0  0  0  0
 22  1  1  0  0  0  0
 23 24  1  0  0  0  0
 23 20  1  0  0  0  0
 24 25  3  0  0  0  0
M  END
>  <MODEL>
5

>  <REMARK>
 VINA RESULT:      -7.7      4.614      7.452
  Name = 
  1 active torsions:
  status: ('A' for Active; 'I' for Inactive)
    1  A    between atoms: C_4  and  C_25
                            x       y       z     vdW  Elec       q    Type
                         _______ _______ _______ _____ _____    ______ ____

>  <TORSDO>
F 1

$$$$
=
 OpenBabel11042411223D

 25 29  0  0  1  0  0  0  0  0999 V2000
  184.7110  178.7520  143.2480 C   0  0  0  0  0  0  0  0  0  0  0  0
  183.7830  179.0030  140.8030 C   0  0  1  0  0  3  0  0  0  0  0  0
  183.5370  179.1660  143.9190 C   0  0  0  0  0  0  0  0  0  0  0  0
  187.0270  177.9590  143.3700 C   0  0  0  0  0  3  0  0  0  0  0  0
  187.1540  178.0780  141.9840 C   0  0  0  0  0  3  0  0  0  0  0  0
  181.4700  178.4720  140.8990 C   0  0  0  0  0  2  0  0  0  0  0  0
  184.4440  180.1800  138.8000 O   0  0  0  0  0  1  0  0  0  0  0  0
  186.0180  178.6280  139.7730 C   0  0  0  0  0  2  0  0  0  0  0  0
  184.5560  178.9640  139.4760 C   0  0  1  0  0  0  0  0  0  0  0  0
  184.1950  177.5600  137.5900 O   0  0  0  0  0  0  0  0  0  0  0  0
  186.0500  178.4850  141.2430 C   0  0  0  0  0  0  0  0  0  0  0  0
  182.8040  177.8930  140.8140 N   0  0  1  0  0  0  0  0  0  0  0  0
  183.9040  177.8780  138.7330 C   0  0  0  0  0  0  0  0  0  0  0  0
  181.1200  179.4350  143.2700 C   0  0  0  0  0  2  0  0  0  0  0  0
  183.4300  179.0030  145.3030 C   0  0  0  0  0  3  0  0  0  0  0  0
  182.8620  177.2050  139.5240 C   0  0  0  0  0  2  0  0  0  0  0  0
  180.9390  178.3250  142.2890 C   0  0  0  0  0  0  0  0  0  0  0  0
  180.3700  177.3000  142.6240 O   0  0  0  0  0  0  0  0  0  0  0  0
  185.8150  178.2790  144.0160 C   0  0  0  0  0  0  0  0  0  0  0  0
  184.4900  178.4770  146.0400 C   0  0  0  0  0  3  0  0  0  0  0  0
  182.5050  179.8710  143.2300 N   0  0  0  0  0  2  0  0  0  0  0  0
  184.8430  178.7730  141.8380 C   0  0  0  0  0  0  0  0  0  0  0  0
  185.6870  178.1320  145.4130 C   0  0  0  0  0  0  0  0  0  0  0  0
  186.7620  177.6230  146.2280 C   0  0  0  0  0  0  0  0  0  0  0  0
  187.6260  177.2160  146.8830 N   0  0  0  0  0  0  0  0  0  0  0  0
  1  3  2  0  0  0  0
  1 19  1  0  0  0  0
  2 12  1  0  0  0  0
  2 22  1  1  0  0  0
  3 15  1  0  0  0  0
  4 19  1  0  0  0  0
  5  4  2  0  0  0  0
  6 17  1  0  0  0  0
  8 11  1  0  0  0  0
  9  7  1  6  0  0  0
  9  8  1  0  0  0  0
  9  2  1  0  0  0  0
 10 13  2  0  0  0  0
 11 22  2  0  0  0  0
 11  5  1  0  0  0  0
 12 16  1  6  0  0  0
 12  6  1  0  0  0  0
 13  9  1  0  0  0  0
 13 16  1  0  0  0  0
 15 20  2  0  0  0  0
 17 18  2  0  0  0  0
 17 14  1  0  0  0  0
 19 23  2  0  0  0  0
 21 14  1  0  0  0  0
 21  3  1  0  0  0  0
 22  1  1  0  0  0  0
 23 20  1  0  0  0  0
 23 24  1  0  0  0  0
 24 25  3  0  0  0  0
M  END
>  <MODEL>
6

>  <REMARK>
 VINA RESULT:      -7.7      3.857      6.597
  Name = 
  1 active torsions:
  status: ('A' for Active; 'I' for Inactive)
    1  A    between atoms: C_4  and  C_25
                            x       y       z     vdW  Elec       q    Type
                         _______ _______ _______ _____ _____    ______ ____

>  <TORSDO>
F 1

$$$$
=
 OpenBabel11042411223D

 25 29  0  0  1  0  0  0  0  0999 V2000
  185.7400  178.5340  140.9360 C   0  0  0  0  0  0  0  0  0  0  0  0
  186.1320  178.4090  138.3410 C   0  0  1  0  0  3  0  0  0  0  0  0
  184.3600  178.8410  140.8850 C   0  0  0  0  0  0  0  0  0  0  0  0
  187.7410  178.0940  142.2800 C   0  0  0  0  0  3  0  0  0  0  0  0
  188.5300  178.0930  141.1270 C   0  0  0  0  0  3  0  0  0  0  0  0
  184.1240  177.5670  137.3930 C   0  0  0  0  0  2  0  0  0  0  0  0
  187.6100  179.4650  136.7490 O   0  0  0  0  0  1  0  0  0  0  0  0
  188.6050  178.2560  138.5880 C   0  0  0  0  0  2  0  0  0  0  0  0
  187.4620  178.3500  137.5750 C   0  0  1  0  0  0  0  0  0  0  0  0
  188.1920  176.7310  135.9930 O   0  0  0  0  0  0  0  0  0  0  0  0
  187.9130  178.2640  139.8930 C   0  0  0  0  0  0  0  0  0  0  0  0
  185.3640  177.1780  138.0520 N   0  0  1  0  0  0  0  0  0  0  0  0
  187.3490  177.1150  136.7890 C   0  0  0  0  0  0  0  0  0  0  0  0
  182.5720  178.6990  139.1190 C   0  0  0  0  0  2  0  0  0  0  0  0
  183.5930  178.8010  142.0530 C   0  0  0  0  0  3  0  0  0  0  0  0
  186.1060  176.3810  137.0740 C   0  0  0  0  0  2  0  0  0  0  0  0
  182.9860  177.4840  138.3590 C   0  0  0  0  0  0  0  0  0  0  0  0
  182.4040  176.4260  138.5330 O   0  0  0  0  0  0  0  0  0  0  0  0
  186.3490  178.3000  142.2040 C   0  0  0  0  0  0  0  0  0  0  0  0
  184.1830  178.5060  143.2800 C   0  0  0  0  0  3  0  0  0  0  0  0
  183.7570  179.3210  139.6840 N   0  0  0  0  0  2  0  0  0  0  0  0
  186.5520  178.4350  139.7800 C   0  0  0  0  0  0  0  0  0  0  0  0
  185.5550  178.2750  143.3700 C   0  0  0  0  0  0  0  0  0  0  0  0
  186.1190  178.0070  144.6700 C   0  0  0  0  0  0  0  0  0  0  0  0
  186.5710  177.7900  145.7140 N   0  0  0  0  0  0  0  0  0  0  0  0
  1 19  1  0  0  0  0
  2 22  1  1  0  0  0
  3  1  2  0  0  0  0
  3 15  1  0  0  0  0
  5  4  2  0  0  0  0
  6 12  1  0  0  0  0
  6 17  1  0  0  0  0
  8 11  1  0  0  0  0
  9  7  1  6  0  0  0
  9  2  1  0  0  0  0
  9  8  1  0  0  0  0
 10 13  2  0  0  0  0
 11  5  1  0  0  0  0
 12 16  1  6  0  0  0
 12  2  1  0  0  0  0
 13 16  1  0  0  0  0
 13  9  1  0  0  0  0
 14 21  1  0  0  0  0
 15 20  2  0  0  0  0
 17 18  2  0  0  0  0
 17 14  1  0  0  0  0
 19  4  1  0  0  0  0
 19 23  2  0  0  0  0
 20 23  1  0  0  0  0
 21  3  1  0  0  0  0
 22 11  2  0  0  0  0
 22  1  1  0  0  0  0
 23 24  1  0  0  0  0
 24 25  3  0  0  0  0
M  END
>  <MODEL>
7

>  <REMARK>
 VINA RESULT:      -7.0      4.337      6.869
  Name = 
  1 active torsions:
  status: ('A' for Active; 'I' for Inactive)
    1  A    between atoms: C_4  and  C_25
                            x       y       z     vdW  Elec       q    Type
                         _______ _______ _______ _____ _____    ______ ____

>  <TORSDO>
F 1

$$$$
=
 OpenBabel11042411223D

 25 29  0  0  1  0  0  0  0  0999 V2000
  187.4020  177.4940  144.8460 C   0  0  0  0  0  0  0  0  0  0  0  0
  186.3200  177.6630  142.4580 C   0  0  1  0  0  3  0  0  0  0  0  0
  188.5310  176.7310  144.4680 C   0  0  0  0  0  0  0  0  0  0  0  0
  186.1380  178.6360  146.6080 C   0  0  0  0  0  3  0  0  0  0  0  0
  185.0870  178.8710  145.7190 C   0  0  0  0  0  3  0  0  0  0  0  0
  188.1150  177.7350  140.9050 C   0  0  0  0  0  2  0  0  0  0  0  0
  184.1810  177.1280  141.4720 O   0  0  0  0  0  1  0  0  0  0  0  0
  184.2160  178.6630  143.3360 C   0  0  0  0  0  2  0  0  0  0  0  0
  184.9140  178.1500  142.0750 C   0  0  1  0  0  0  0  0  0  0  0  0
  184.3050  179.8700  140.5490 O   0  0  0  0  0  0  0  0  0  0  0  0
  185.2220  178.4590  144.3980 C   0  0  0  0  0  0  0  0  0  0  0  0
  187.3180  178.5460  141.8160 N   0  0  1  0  0  0  0  0  0  0  0  0
  185.1770  179.2460  141.1330 C   0  0  0  0  0  0  0  0  0  0  0  0
  189.6630  176.1950  142.2840 C   0  0  0  0  0  2  0  0  0  0  0  0
  189.5800  176.5430  145.3720 C   0  0  0  0  0  3  0  0  0  0  0  0
  186.6150  179.5170  140.9770 C   0  0  0  0  0  2  0  0  0  0  0  0
  189.4530  177.4530  141.5110 C   0  0  0  0  0  0  0  0  0  0  0  0
  190.3650  178.2530  141.3840 O   0  0  0  0  0  0  0  0  0  0  0  0
  187.3040  177.9630  146.1890 C   0  0  0  0  0  0  0  0  0  0  0  0
  189.5070  177.0610  146.6630 C   0  0  0  0  0  3  0  0  0  0  0  0
  188.5660  176.0350  143.2220 N   0  0  0  0  0  2  0  0  0  0  0  0
  186.3600  177.8290  143.9470 C   0  0  0  0  0  0  0  0  0  0  0  0
  188.3720  177.7520  147.0860 C   0  0  0  0  0  0  0  0  0  0  0  0
  188.3350  178.2380  148.4430 C   0  0  0  0  0  0  0  0  0  0  0  0
  188.3060  178.6280  149.5330 N   0  0  0  0  0  0  0  0  0  0  0  0
  1 19  1  0  0  0  0
  2 22  1  1  0  0  0
  3  1  2  0  0  0  0
  3 15  1  0  0  0  0
  5  4  2  0  0  0  0
  6 17  1  0  0  0  0
  8 11  1  0  0  0  0
  9  7  1  6  0  0  0
  9  2  1  0  0  0  0
  9  8  1  0  0  0  0
 10 13  2  0  0  0  0
 11  5  1  0  0  0  0
 12  6  1  6  0  0  0
 12  2  1  0  0  0  0
 13  9  1  0  0  0  0
 14 21  1  0  0  0  0
 15 20  2  0  0  0  0
 16 13  1  0  0  0  0
 16 12  1  0  0  0  0
 17 14  1  0  0  0  0
 18 17  2  0  0  0  0
 19  4  1  0  0  0  0
 19 23  2  0  0  0  0
 20 23  1  0  0  0  0
 21  3  1  0  0  0  0
 22 11  2  0  0  0  0
 22  1  1  0  0  0  0
 23 24  1  0  0  0  0
 24 25  3  0  0  0  0
M  END
>  <MODEL>
8

>  <REMARK>
 VINA RESULT:      -6.9      2.653      5.257
  Name = 
  1 active torsions:
  status: ('A' for Active; 'I' for Inactive)
    1  A    between atoms: C_4  and  C_25
                            x       y       z     vdW  Elec       q    Type
                         _______ _______ _______ _____ _____    ______ ____

>  <TORSDO>
F 1

$$$$
=
 OpenBabel11042411223D

 25 29  0  0  1  0  0  0  0  0999 V2000
  189.0500  177.1680  143.8810 C   0  0  0  0  0  0  0  0  0  0  0  0
  187.8820  177.1880  146.2340 C   0  0  1  0  0  3  0  0  0  0  0  0
  187.8690  177.1670  143.1040 C   0  0  0  0  0  0  0  0  0  0  0  0
  191.5000  177.1710  143.9730 C   0  0  0  0  0  3  0  0  0  0  0  0
  191.4610  176.9940  145.3580 C   0  0  0  0  0  3  0  0  0  0  0  0
  185.8790  178.4390  145.9840 C   0  0  0  0  0  2  0  0  0  0  0  0
  187.9540  175.8250  148.2270 O   0  0  0  0  0  1  0  0  0  0  0  0
  190.0210  176.8020  147.4480 C   0  0  0  0  0  2  0  0  0  0  0  0
  188.5070  176.9510  147.6170 C   0  0  1  0  0  0  0  0  0  0  0  0
  188.4530  178.3630  149.5310 O   0  0  0  0  0  0  0  0  0  0  0  0
  190.2250  176.9520  145.9930 C   0  0  0  0  0  0  0  0  0  0  0  0
  187.3160  178.5540  146.1980 N   0  0  1  0  0  0  0  0  0  0  0  0
  188.1760  178.1760  148.3560 C   0  0  0  0  0  0  0  0  0  0  0  0
  185.4460  177.6830  143.5530 C   0  0  0  0  0  2  0  0  0  0  0  0
  187.9420  177.3800  141.7250 C   0  0  0  0  0  3  0  0  0  0  0  0
  187.4780  179.1640  147.5180 C   0  0  0  0  0  2  0  0  0  0  0  0
  185.5460  178.7740  144.5650 C   0  0  0  0  0  0  0  0  0  0  0  0
  185.3680  179.9340  144.2340 O   0  0  0  0  0  0  0  0  0  0  0  0
  190.3110  177.2720  143.2220 C   0  0  0  0  0  0  0  0  0  0  0  0
  189.1730  177.5480  141.0960 C   0  0  0  0  0  3  0  0  0  0  0  0
  186.6090  176.8220  143.6800 N   0  0  0  0  0  2  0  0  0  0  0  0
  189.0450  177.0810  145.2950 C   0  0  0  0  0  0  0  0  0  0  0  0
  190.3590  177.4770  141.8270 C   0  0  0  0  0  0  0  0  0  0  0  0
  191.6070  177.6250  141.1210 C   0  0  0  0  0  0  0  0  0  0  0  0
  192.6100  177.7430  140.5530 N   0  0  0  0  0  0  0  0  0  0  0  0
  1 22  1  0  0  0  0
  2 22  1  6  0  0  0
  2  9  1  0  0  0  0
  3 21  1  0  0  0  0
  3  1  1  0  0  0  0
  4  5  2  0  0  0  0
  5 11  1  0  0  0  0
  8  9  1  0  0  0  0
  9  7  1  1  0  0  0
  9 13  1  0  0  0  0
 11  8  1  0  0  0  0
 12  6  1  1  0  0  0
 12  2  1  0  0  0  0
 12 16  1  0  0  0  0
 13 10  2  0  0  0  0
 14 21  1  0  0  0  0
 14 17  1  0  0  0  0
 15  3  2  0  0  0  0
 16 13  1  0  0  0  0
 17  6  1  0  0  0  0
 18 17  2  0  0  0  0
 19  1  2  0  0  0  0
 19  4  1  0  0  0  0
 20 15  1  0  0  0  0
 20 23  2  0  0  0  0
 22 11  2  0  0  0  0
 23 19  1  0  0  0  0
 24 23  1  0  0  0  0
 25 24  3  0  0  0  0
M  END
>  <MODEL>
9

>  <REMARK>
 VINA RESULT:      -6.8      2.483      5.640
  Name = 
  1 active torsions:
  status: ('A' for Active; 'I' for Inactive)
    1  A    between atoms: C_4  and  C_25
                            x       y       z     vdW  Elec       q    Type
                         _______ _______ _______ _____ _____    ______ ____

>  <TORSDO>
F 1

$$$$
