=
 OpenBabel11032420103D

 36 40  0  0  1  0  0  0  0  0999 V2000
  187.6840  178.1940  137.4050 C   0  0  0  0  0  2  0  0  0  0  0  0
  188.0550  176.8010  137.8020 C   0  0  0  0  0  0  0  0  0  0  0  0
  187.3880  175.7720  137.2730 C   0  0  0  0  0  3  0  0  0  0  0  0
  186.1630  178.3470  137.4150 C   0  0  0  0  0  2  0  0  0  0  0  0
  186.3050  176.0200  136.2630 C   0  0  0  0  0  2  0  0  0  0  0  0
  185.4420  177.2480  136.6080 C   0  0  1  0  0  3  0  0  0  0  0  0
  184.1830  176.8290  137.3020 C   0  0  0  0  0  0  0  0  0  0  0  0
  184.0570  175.6900  137.7280 O   0  0  0  0  0  0  0  0  0  0  0  0
  183.0550  177.8010  137.4380 C   0  0  0  0  0  2  0  0  0  0  0  0
  182.9500  179.3970  145.2180 F   0  0  0  0  0  0  0  0  0  0  0  0
  183.5280  178.5850  141.2090 C   0  0  0  0  0  0  0  0  0  0  0  0
  181.5050  177.8410  139.2400 O   0  0  0  0  0  0  0  0  0  0  0  0
  182.7050  177.9710  138.8770 C   0  0  0  0  0  0  0  0  0  0  0  0
  183.1510  179.1450  143.9010 C   0  0  0  0  0  0  0  0  0  0  0  0
  184.4370  179.1700  143.3660 C   0  0  0  0  0  3  0  0  0  0  0  0
  183.7310  178.3110  139.8180 N   0  0  0  0  0  2  0  0  0  0  0  0
  182.2790  178.5640  141.7550 N   0  0  0  0  0  0  0  0  0  0  0  0
  184.6320  178.8960  142.0100 C   0  0  0  0  0  2  0  0  0  0  0  0
  182.0710  178.8360  143.0710 C   0  0  0  0  0  2  0  0  0  0  0  0
  189.1500  176.6010  138.7060 N   0  0  0  0  0  2  0  0  0  0  0  0
  190.2710  176.6670  140.8060 C   0  0  1  0  0  3  0  0  0  0  0  0
  189.3250  177.3640  139.9350 C   0  0  1  0  0  3  0  0  0  0  0  0
  190.7160  177.8320  140.0240 N   0  0  0  0  0  2  0  0  0  0  0  0
  190.0750  177.0650  142.2010 N   0  0  0  0  0  0  0  0  0  0  0  0
  190.9380  175.3480  143.5900 F   0  0  0  0  0  0  0  0  0  0  0  0
  191.2090  176.5730  142.9950 C   0  0  2  0  0  3  0  0  0  0  0  0
  191.6180  177.5890  144.0460 C   0  0  0  0  0  1  0  0  0  0  0  0
  188.7810  176.5950  142.7400 C   0  0  0  0  0  2  0  0  0  0  0  0
  187.7790  176.8100  144.9710 C   0  0  2  0  0  3  0  0  0  0  0  0
  188.1380  177.5540  143.7420 C   0  0  2  0  0  3  0  0  0  0  0  0
  186.8160  177.1470  144.0020 O   0  0  0  0  0  0  0  0  0  0  0  0
  186.2820  178.2740  146.5230 C   0  0  0  0  0  1  0  0  0  0  0  0
  187.6750  177.7290  146.2160 C   0  0  1  0  0  3  0  0  0  0  0  0
  188.3280  177.2000  147.5080 C   0  0  0  0  0  3  0  0  0  0  0  0
  189.2240  178.2070  148.2130 C   0  0  0  0  0  2  0  0  0  0  0  0
  189.8370  177.1060  147.3640 C   0  0  0  0  0  2  0  0  0  0  0  0
  1  4  1  0  0  0  0
  1  2  1  0  0  0  0
  2 20  1  0  0  0  0
  3  2  2  0  0  0  0
  5  6  1  0  0  0  0
  5  3  1  0  0  0  0
  6  7  1  1  0  0  0
  6  4  1  0  0  0  0
  7  9  1  0  0  0  0
  7  8  2  0  0  0  0
  9 13  1  0  0  0  0
 11 17  2  0  0  0  0
 11 18  1  0  0  0  0
 13 12  2  0  0  0  0
 13 16  1  0  0  0  0
 14 10  1  0  0  0  0
 15 14  2  0  0  0  0
 16 11  1  0  0  0  0
 17 19  1  0  0  0  0
 18 15  1  0  0  0  0
 19 14  1  0  0  0  0
 21 24  1  1  0  0  0
 22 20  1  6  0  0  0
 22 23  1  0  0  0  0
 22 21  1  0  0  0  0
 23 21  1  0  0  0  0
 24 28  1  0  0  0  0
 24 26  1  0  0  0  0
 26 25  1  0  0  0  0
 26 27  1  1  0  0  0
 29 33  1  1  0  0  0
 30 28  1  6  0  0  0
 30 31  1  0  0  0  0
 30 29  1  0  0  0  0
 31 29  1  0  0  0  0
 33 32  1  1  0  0  0
 33 34  1  0  0  0  0
 34 35  1  0  0  0  0
 36 34  1  0  0  0  0
 36 35  1  0  0  0  0
M  END
>  <MODEL>
1

>  <REMARK>
 VINA RESULT:      -7.8      0.000      0.000
  Name = 
  11 active torsions:
  status: ('A' for Active; 'I' for Inactive)
    1  A    between atoms: C_1  and  C_26
    2  A    between atoms: C_7  and  N_27
    3  A    between atoms: C_10  and  N_24
    4  A    between atoms: C_10  and  C_29
    5  A    between atoms: C_12  and  N_24
    6  A    between atoms: C_13  and  N_24
    7  A    between atoms: C_14  and  N_27
    8  A    between atoms: C_15  and  C_22
    9  A    between atoms: C_17  and  C_22
   10  A    between atoms: C_17  and  C_35
   11  A    between atoms: C_25  and  C_26
                            x       y       z     vdW  Elec       q    Type
                         _______ _______ _______ _____ _____    ______ ____

>  <TORSDO>
F 11

$$$$
=
 OpenBabel11032420103D

 36 40  0  0  1  0  0  0  0  0999 V2000
  191.2030  176.3280  142.8950 C   0  0  0  0  0  2  0  0  0  0  0  0
  190.3890  177.5790  142.8030 C   0  0  0  0  0  0  0  0  0  0  0  0
  190.6380  178.5840  143.6460 C   0  0  0  0  0  3  0  0  0  0  0  0
  191.3460  175.9110  144.3590 C   0  0  0  0  0  2  0  0  0  0  0  0
  191.7500  178.4640  144.6480 C   0  0  0  0  0  2  0  0  0  0  0  0
  191.8430  177.0560  145.2650 C   0  0  1  0  0  3  0  0  0  0  0  0
  191.1480  177.0150  146.5910 C   0  0  0  0  0  0  0  0  0  0  0  0
  191.5930  177.6350  147.5460 O   0  0  0  0  0  0  0  0  0  0  0  0
  189.9210  176.1760  146.7570 C   0  0  0  0  0  2  0  0  0  0  0  0
  183.3430  179.8570  144.2510 F   0  0  0  0  0  0  0  0  0  0  0  0
  186.8580  177.8360  145.0480 C   0  0  0  0  0  0  0  0  0  0  0  0
  188.2340  177.6150  147.6130 O   0  0  0  0  0  0  0  0  0  0  0  0
  188.7050  177.0250  146.6050 C   0  0  0  0  0  0  0  0  0  0  0  0
  184.4910  179.1800  144.5030 C   0  0  0  0  0  0  0  0  0  0  0  0
  185.1740  178.5410  143.4700 C   0  0  0  0  0  3  0  0  0  0  0  0
  188.0720  177.1280  145.3230 N   0  0  0  0  0  2  0  0  0  0  0  0
  186.1720  178.4700  146.0420 N   0  0  0  0  0  0  0  0  0  0  0  0
  186.3620  177.8580  143.7400 C   0  0  0  0  0  3  0  0  0  0  0  0
  185.0110  179.1340  145.7980 C   0  0  0  0  0  3  0  0  0  0  0  0
  189.3910  177.6880  141.7780 N   0  0  0  0  0  2  0  0  0  0  0  0
  189.3300  178.0550  139.4270 C   0  0  1  0  0  3  0  0  0  0  0  0
  189.5090  177.0510  140.4740 C   0  0  1  0  0  3  0  0  0  0  0  0
  190.6820  177.5900  139.7710 N   0  0  0  0  0  2  0  0  0  0  0  0
  188.9030  177.4260  138.1760 N   0  0  0  0  0  0  0  0  0  0  0  0
  189.1830  179.6120  137.3020 F   0  0  0  0  0  0  0  0  0  0  0  0
  189.3530  178.2580  137.0520 C   0  0  2  0  0  3  0  0  0  0  0  0
  188.6440  177.8670  135.7680 C   0  0  0  0  0  1  0  0  0  0  0  0
  187.4430  177.1930  138.1370 C   0  0  0  0  0  2  0  0  0  0  0  0
  185.1900  178.1010  138.4910 C   0  0  2  0  0  3  0  0  0  0  0  0
  186.6210  178.2760  138.8330 C   0  0  2  0  0  3  0  0  0  0  0  0
  185.9860  179.0790  137.8670 O   0  0  0  0  0  0  0  0  0  0  0  0
  183.2940  179.8080  139.0260 C   0  0  0  0  0  1  0  0  0  0  0  0
  184.2420  178.7290  139.5460 C   0  0  1  0  0  3  0  0  0  0  0  0
  183.4720  177.7410  140.4420 C   0  0  0  0  0  3  0  0  0  0  0  0
  182.7520  176.6380  139.6820 C   0  0  0  0  0  2  0  0  0  0  0  0
  181.9750  177.8340  140.2050 C   0  0  0  0  0  2  0  0  0  0  0  0
  1  4  1  0  0  0  0
  2  1  1  0  0  0  0
  2  3  2  0  0  0  0
  3  5  1  0  0  0  0
  4  6  1  0  0  0  0
  5  6  1  0  0  0  0
  6  7  1  1  0  0  0
  7  9  1  0  0  0  0
  7  8  2  0  0  0  0
 10 14  1  0  0  0  0
 11 16  1  0  0  0  0
 11 17  2  0  0  0  0
 13  9  1  0  0  0  0
 13 12  2  0  0  0  0
 14 19  2  0  0  0  0
 15 18  2  0  0  0  0
 15 14  1  0  0  0  0
 16 13  1  0  0  0  0
 18 11  1  0  0  0  0
 19 17  1  0  0  0  0
 20  2  1  0  0  0  0
 21 24  1  6  0  0  0
 21 23  1  0  0  0  0
 21 22  1  0  0  0  0
 22 20  1  1  0  0  0
 23 22  1  0  0  0  0
 26 27  1  6  0  0  0
 26 25  1  0  0  0  0
 26 24  1  0  0  0  0
 28 24  1  0  0  0  0
 29 30  1  0  0  0  0
 29 33  1  1  0  0  0
 30 28  1  6  0  0  0
 31 29  1  0  0  0  0
 31 30  1  0  0  0  0
 33 32  1  6  0  0  0
 33 34  1  0  0  0  0
 35 36  1  0  0  0  0
 35 34  1  0  0  0  0
 36 34  1  0  0  0  0
M  END
>  <MODEL>
2

>  <REMARK>
 VINA RESULT:      -7.6      2.629      7.459
  Name = 
  11 active torsions:
  status: ('A' for Active; 'I' for Inactive)
    1  A    between atoms: C_1  and  C_26
    2  A    between atoms: C_7  and  N_27
    3  A    between atoms: C_10  and  N_24
    4  A    between atoms: C_10  and  C_29
    5  A    between atoms: C_12  and  N_24
    6  A    between atoms: C_13  and  N_24
    7  A    between atoms: C_14  and  N_27
    8  A    between atoms: C_15  and  C_22
    9  A    between atoms: C_17  and  C_22
   10  A    between atoms: C_17  and  C_35
   11  A    between atoms: C_25  and  C_26
                            x       y       z     vdW  Elec       q    Type
                         _______ _______ _______ _____ _____    ______ ____

>  <TORSDO>
F 11

$$$$
=
 OpenBabel11032420103D

 36 40  0  0  1  0  0  0  0  0999 V2000
  191.0650  176.3060  142.7570 C   0  0  0  0  0  2  0  0  0  0  0  0
  190.0640  177.4170  142.7500 C   0  0  0  0  0  0  0  0  0  0  0  0
  190.2360  178.4550  143.5710 C   0  0  0  0  0  3  0  0  0  0  0  0
  191.4070  175.9280  144.1980 C   0  0  0  0  0  2  0  0  0  0  0  0
  191.4420  178.5150  144.4630 C   0  0  0  0  0  2  0  0  0  0  0  0
  191.8070  177.1430  145.0600 C   0  0  1  0  0  3  0  0  0  0  0  0
  191.2540  177.0080  146.4460 C   0  0  0  0  0  0  0  0  0  0  0  0
  191.7670  177.6070  147.3810 O   0  0  0  0  0  0  0  0  0  0  0  0
  190.0910  176.1020  146.6920 C   0  0  0  0  0  2  0  0  0  0  0  0
  183.1470  179.5660  144.9910 F   0  0  0  0  0  0  0  0  0  0  0  0
  186.8110  177.6910  145.3580 C   0  0  0  0  0  0  0  0  0  0  0  0
  188.4220  177.4020  147.7760 O   0  0  0  0  0  0  0  0  0  0  0  0
  188.8270  176.8930  146.6970 C   0  0  0  0  0  0  0  0  0  0  0  0
  184.3440  178.9360  145.1020 C   0  0  0  0  0  0  0  0  0  0  0  0
  184.9610  178.3920  143.9770 C   0  0  0  0  0  3  0  0  0  0  0  0
  188.0770  177.0330  145.4840 N   0  0  0  0  0  2  0  0  0  0  0  0
  186.1890  178.2330  146.4440 N   0  0  0  0  0  0  0  0  0  0  0  0
  186.1990  177.7580  144.1020 C   0  0  0  0  0  3  0  0  0  0  0  0
  184.9800  178.8470  146.3420 C   0  0  0  0  0  3  0  0  0  0  0  0
  188.9690  177.3640  141.8250 N   0  0  0  0  0  2  0  0  0  0  0  0
  187.9240  177.7870  139.7280 C   0  0  1  0  0  3  0  0  0  0  0  0
  188.7440  178.3650  140.7910 C   0  0  1  0  0  3  0  0  0  0  0  0
  187.3090  178.6810  140.7230 N   0  0  0  0  0  2  0  0  0  0  0  0
  188.1170  178.5160  138.4730 N   0  0  0  0  0  0  0  0  0  0  0  0
  186.3780  177.0660  137.7710 F   0  0  0  0  0  0  0  0  0  0  0  0
  186.9250  178.3340  137.6340 C   0  0  2  0  0  3  0  0  0  0  0  0
  187.2400  178.6160  136.1760 C   0  0  0  0  0  1  0  0  0  0  0  0
  189.3520  178.1040  137.7720 C   0  0  0  0  0  2  0  0  0  0  0  0
  190.5330  176.1690  136.8280 C   0  0  2  0  0  3  0  0  0  0  0  0
  189.7240  176.6360  137.9780 C   0  0  2  0  0  3  0  0  0  0  0  0
  189.1660  175.8590  136.9460 O   0  0  0  0  0  0  0  0  0  0  0  0
  190.8440  173.5810  136.8250 C   0  0  0  0  0  1  0  0  0  0  0  0
  191.4240  174.9490  137.1790 C   0  0  1  0  0  3  0  0  0  0  0  0
  192.8950  175.0290  136.7280 C   0  0  0  0  0  3  0  0  0  0  0  0
  193.8940  175.1390  137.8700 C   0  0  0  0  0  2  0  0  0  0  0  0
  193.5060  176.3750  137.0760 C   0  0  0  0  0  2  0  0  0  0  0  0
  1  4  1  0  0  0  0
  2  1  1  0  0  0  0
  2  3  2  0  0  0  0
  3  5  1  0  0  0  0
  4  6  1  0  0  0  0
  5  6  1  0  0  0  0
  6  7  1  1  0  0  0
  7  9  1  0  0  0  0
  7  8  2  0  0  0  0
  9 13  1  0  0  0  0
 10 14  1  0  0  0  0
 11 16  1  0  0  0  0
 11 17  2  0  0  0  0
 13 12  2  0  0  0  0
 14 19  2  0  0  0  0
 15 18  2  0  0  0  0
 15 14  1  0  0  0  0
 16 13  1  0  0  0  0
 18 11  1  0  0  0  0
 19 17  1  0  0  0  0
 20  2  1  0  0  0  0
 21 24  1  6  0  0  0
 21 23  1  0  0  0  0
 21 22  1  0  0  0  0
 22 20  1  1  0  0  0
 23 22  1  0  0  0  0
 26 27  1  6  0  0  0
 26 25  1  0  0  0  0
 26 24  1  0  0  0  0
 28 24  1  0  0  0  0
 29 31  1  0  0  0  0
 29 33  1  1  0  0  0
 29 30  1  0  0  0  0
 30 28  1  6  0  0  0
 31 30  1  0  0  0  0
 33 32  1  6  0  0  0
 34 36  1  0  0  0  0
 34 33  1  0  0  0  0
 34 35  1  0  0  0  0
 36 35  1  0  0  0  0
M  END
>  <MODEL>
3

>  <REMARK>
 VINA RESULT:      -7.6      3.154      7.986
  Name = 
  11 active torsions:
  status: ('A' for Active; 'I' for Inactive)
    1  A    between atoms: C_1  and  C_26
    2  A    between atoms: C_7  and  N_27
    3  A    between atoms: C_10  and  N_24
    4  A    between atoms: C_10  and  C_29
    5  A    between atoms: C_12  and  N_24
    6  A    between atoms: C_13  and  N_24
    7  A    between atoms: C_14  and  N_27
    8  A    between atoms: C_15  and  C_22
    9  A    between atoms: C_17  and  C_22
   10  A    between atoms: C_17  and  C_35
   11  A    between atoms: C_25  and  C_26
                            x       y       z     vdW  Elec       q    Type
                         _______ _______ _______ _____ _____    ______ ____

>  <TORSDO>
F 11

$$$$
=
 OpenBabel11032420103D

 36 40  0  0  1  0  0  0  0  0999 V2000
  185.6100  177.1980  135.0330 C   0  0  0  0  0  2  0  0  0  0  0  0
  186.4430  177.0090  136.2590 C   0  0  0  0  0  0  0  0  0  0  0  0
  186.1220  176.0430  137.1240 C   0  0  0  0  0  3  0  0  0  0  0  0
  184.1270  177.1400  135.4000 C   0  0  0  0  0  2  0  0  0  0  0  0
  184.9570  175.1390  136.8400 C   0  0  0  0  0  2  0  0  0  0  0  0
  183.7610  175.8890  136.2250 C   0  0  1  0  0  3  0  0  0  0  0  0
  182.7560  176.2330  137.2810 C   0  0  0  0  0  0  0  0  0  0  0  0
  182.1220  175.3540  137.8470 O   0  0  0  0  0  0  0  0  0  0  0  0
  182.4970  177.6670  137.6160 C   0  0  0  0  0  2  0  0  0  0  0  0
  183.4610  179.1330  145.3630 F   0  0  0  0  0  0  0  0  0  0  0  0
  182.4550  178.4980  141.4070 C   0  0  0  0  0  0  0  0  0  0  0  0
  184.2630  177.9270  139.1870 O   0  0  0  0  0  0  0  0  0  0  0  0
  183.0210  177.9700  138.9790 C   0  0  0  0  0  0  0  0  0  0  0  0
  183.1170  178.9140  144.0700 C   0  0  0  0  0  0  0  0  0  0  0  0
  181.7860  179.0080  143.6680 C   0  0  0  0  0  3  0  0  0  0  0  0
  182.1020  178.2710  140.0370 N   0  0  0  0  0  2  0  0  0  0  0  0
  183.7510  178.4140  141.8230 N   0  0  0  0  0  0  0  0  0  0  0  0
  181.4460  178.7920  142.3310 C   0  0  0  0  0  2  0  0  0  0  0  0
  184.0980  178.6140  143.1230 C   0  0  0  0  0  2  0  0  0  0  0  0
  187.5970  177.8370  136.4540 N   0  0  0  0  0  2  0  0  0  0  0  0
  189.4850  177.9450  137.9000 C   0  0  1  0  0  3  0  0  0  0  0  0
  188.0650  178.2640  137.7660 C   0  0  1  0  0  3  0  0  0  0  0  0
  189.0710  179.3250  137.6030 N   0  0  0  0  0  2  0  0  0  0  0  0
  189.8590  177.8430  139.3120 N   0  0  0  0  0  0  0  0  0  0  0  0
  191.9370  177.3760  140.3530 F   0  0  0  0  0  0  0  0  0  0  0  0
  191.0010  176.9260  139.4330 C   0  0  2  0  0  3  0  0  0  0  0  0
  191.6570  176.6950  138.0840 C   0  0  0  0  0  1  0  0  0  0  0  0
  188.7240  177.4230  140.1620 C   0  0  0  0  0  2  0  0  0  0  0  0
  188.4600  177.1360  142.5870 C   0  0  2  0  0  3  0  0  0  0  0  0
  188.6600  178.1370  141.5120 C   0  0  2  0  0  3  0  0  0  0  0  0
  187.3990  177.9210  142.0990 O   0  0  0  0  0  0  0  0  0  0  0  0
  187.8700  177.7820  145.0420 C   0  0  0  0  0  1  0  0  0  0  0  0
  188.9480  177.6400  143.9700 C   0  0  1  0  0  3  0  0  0  0  0  0
  190.1810  176.9250  144.5570 C   0  0  0  0  0  3  0  0  0  0  0  0
  191.4200  177.8010  144.6610 C   0  0  0  0  0  2  0  0  0  0  0  0
  191.2880  176.8000  143.5250 C   0  0  0  0  0  2  0  0  0  0  0  0
  1  4  1  0  0  0  0
  1  2  1  0  0  0  0
  2 20  1  0  0  0  0
  2  3  2  0  0  0  0
  4  6  1  0  0  0  0
  5  3  1  0  0  0  0
  6  5  1  0  0  0  0
  6  7  1  1  0  0  0
  7  9  1  0  0  0  0
  7  8  2  0  0  0  0
  9 13  1  0  0  0  0
 11 17  2  0  0  0  0
 11 18  1  0  0  0  0
 13 12  2  0  0  0  0
 13 16  1  0  0  0  0
 14 10  1  0  0  0  0
 15 14  2  0  0  0  0
 16 11  1  0  0  0  0
 17 19  1  0  0  0  0
 18 15  1  0  0  0  0
 19 14  1  0  0  0  0
 21 24  1  1  0  0  0
 22 20  1  6  0  0  0
 22 21  1  0  0  0  0
 23 22  1  0  0  0  0
 23 21  1  0  0  0  0
 24 26  1  0  0  0  0
 24 28  1  0  0  0  0
 26 27  1  6  0  0  0
 26 25  1  0  0  0  0
 29 33  1  1  0  0  0
 30 28  1  6  0  0  0
 30 31  1  0  0  0  0
 30 29  1  0  0  0  0
 31 29  1  0  0  0  0
 33 34  1  0  0  0  0
 33 32  1  1  0  0  0
 34 35  1  0  0  0  0
 36 34  1  0  0  0  0
 36 35  1  0  0  0  0
M  END
>  <MODEL>
4

>  <REMARK>
 VINA RESULT:      -7.5      1.702      2.744
  Name = 
  11 active torsions:
  status: ('A' for Active; 'I' for Inactive)
    1  A    between atoms: C_1  and  C_26
    2  A    between atoms: C_7  and  N_27
    3  A    between atoms: C_10  and  N_24
    4  A    between atoms: C_10  and  C_29
    5  A    between atoms: C_12  and  N_24
    6  A    between atoms: C_13  and  N_24
    7  A    between atoms: C_14  and  N_27
    8  A    between atoms: C_15  and  C_22
    9  A    between atoms: C_17  and  C_22
   10  A    between atoms: C_17  and  C_35
   11  A    between atoms: C_25  and  C_26
                            x       y       z     vdW  Elec       q    Type
                         _______ _______ _______ _____ _____    ______ ____

>  <TORSDO>
F 11

$$$$
=
 OpenBabel11032420103D

 36 40  0  0  1  0  0  0  0  0999 V2000
  187.6730  177.4940  145.8750 C   0  0  0  0  0  2  0  0  0  0  0  0
  186.8200  177.5260  144.6470 C   0  0  0  0  0  0  0  0  0  0  0  0
  187.2600  176.9390  143.5310 C   0  0  0  0  0  3  0  0  0  0  0  0
  189.1190  177.8260  145.5090 C   0  0  0  0  0  2  0  0  0  0  0  0
  188.5810  176.2260  143.5300 C   0  0  0  0  0  2  0  0  0  0  0  0
  189.6570  176.9690  144.3440 C   0  0  1  0  0  3  0  0  0  0  0  0
  190.5240  177.7930  143.4430 C   0  0  0  0  0  0  0  0  0  0  0  0
  190.4560  179.0140  143.4590 O   0  0  0  0  0  0  0  0  0  0  0  0
  191.4530  177.1140  142.4870 C   0  0  0  0  0  2  0  0  0  0  0  0
  187.3690  178.7250  135.8680 F   0  0  0  0  0  0  0  0  0  0  0  0
  189.0260  177.8050  139.5390 C   0  0  0  0  0  0  0  0  0  0  0  0
  191.8550  177.4520  140.1690 O   0  0  0  0  0  0  0  0  0  0  0  0
  190.9980  177.3510  141.0870 C   0  0  0  0  0  0  0  0  0  0  0  0
  187.9020  178.4350  137.0800 C   0  0  0  0  0  0  0  0  0  0  0  0
  187.0750  178.2140  138.1800 C   0  0  0  0  0  3  0  0  0  0  0  0
  189.5990  177.4930  140.8140 N   0  0  0  0  0  2  0  0  0  0  0  0
  189.8160  178.0240  138.4480 N   0  0  0  0  0  0  0  0  0  0  0  0
  187.6360  177.9040  139.4210 C   0  0  0  0  0  2  0  0  0  0  0  0
  189.2860  178.3340  137.2340 C   0  0  0  0  0  2  0  0  0  0  0  0
  185.5270  178.1440  144.7110 N   0  0  0  0  0  2  0  0  0  0  0  0
  183.4770  178.8130  143.7030 C   0  0  1  0  0  3  0  0  0  0  0  0
  184.9340  178.8770  143.6000 C   0  0  1  0  0  3  0  0  0  0  0  0
  184.1880  180.0320  144.1210 N   0  0  0  0  0  2  0  0  0  0  0  0
  182.8570  179.0360  142.3950 N   0  0  0  0  0  0  0  0  0  0  0  0
  180.6800  179.8730  141.9750 F   0  0  0  0  0  0  0  0  0  0  0  0
  181.4090  178.8240  142.5170 C   0  0  2  0  0  3  0  0  0  0  0  0
  181.0120  178.6000  143.9650 C   0  0  0  0  0  1  0  0  0  0  0  0
  183.4520  178.1840  141.3430 C   0  0  0  0  0  2  0  0  0  0  0  0
  183.4710  178.2620  138.8880 C   0  0  2  0  0  3  0  0  0  0  0  0
  182.6040  178.0770  140.0760 C   0  0  2  0  0  3  0  0  0  0  0  0
  182.6500  179.2970  139.3740 O   0  0  0  0  0  0  0  0  0  0  0  0
  181.9010  178.4920  136.8200 C   0  0  0  0  0  1  0  0  0  0  0  0
  182.8760  177.6190  137.6090 C   0  0  1  0  0  3  0  0  0  0  0  0
  183.8830  176.9580  136.6480 C   0  0  0  0  0  3  0  0  0  0  0  0
  183.4550  175.5910  136.1370 C   0  0  0  0  0  2  0  0  0  0  0  0
  184.4780  175.6990  137.2550 C   0  0  0  0  0  2  0  0  0  0  0  0
  2 20  1  0  0  0  0
  2  1  1  0  0  0  0
  3  2  2  0  0  0  0
  4  1  1  0  0  0  0
  5  3  1  0  0  0  0
  5  6  1  0  0  0  0
  6  7  1  6  0  0  0
  6  4  1  0  0  0  0
  7  8  2  0  0  0  0
  9  7  1  0  0  0  0
 10 14  1  0  0  0  0
 11 16  1  0  0  0  0
 12 13  2  0  0  0  0
 13  9  1  0  0  0  0
 14 19  1  0  0  0  0
 14 15  2  0  0  0  0
 15 18  1  0  0  0  0
 16 13  1  0  0  0  0
 17 11  2  0  0  0  0
 18 11  1  0  0  0  0
 19 17  1  0  0  0  0
 21 24  1  6  0  0  0
 21 23  1  0  0  0  0
 22 21  1  0  0  0  0
 22 23  1  0  0  0  0
 22 20  1  1  0  0  0
 24 26  1  0  0  0  0
 25 26  1  0  0  0  0
 26 27  1  1  0  0  0
 28 24  1  0  0  0  0
 29 33  1  6  0  0  0
 29 31  1  0  0  0  0
 29 30  1  0  0  0  0
 30 28  1  1  0  0  0
 31 30  1  0  0  0  0
 33 32  1  6  0  0  0
 34 36  1  0  0  0  0
 34 33  1  0  0  0  0
 35 34  1  0  0  0  0
 35 36  1  0  0  0  0
M  END
>  <MODEL>
5

>  <REMARK>
 VINA RESULT:      -7.4      2.529      8.695
  Name = 
  11 active torsions:
  status: ('A' for Active; 'I' for Inactive)
    1  A    between atoms: C_1  and  C_26
    2  A    between atoms: C_7  and  N_27
    3  A    between atoms: C_10  and  N_24
    4  A    between atoms: C_10  and  C_29
    5  A    between atoms: C_12  and  N_24
    6  A    between atoms: C_13  and  N_24
    7  A    between atoms: C_14  and  N_27
    8  A    between atoms: C_15  and  C_22
    9  A    between atoms: C_17  and  C_22
   10  A    between atoms: C_17  and  C_35
   11  A    between atoms: C_25  and  C_26
                            x       y       z     vdW  Elec       q    Type
                         _______ _______ _______ _____ _____    ______ ____

>  <TORSDO>
F 11

$$$$
=
 OpenBabel11032420103D

 36 40  0  0  1  0  0  0  0  0999 V2000
  183.2740  178.2830  141.4260 C   0  0  0  0  0  2  0  0  0  0  0  0
  184.3890  179.0390  140.7780 C   0  0  0  0  0  0  0  0  0  0  0  0
  185.6070  179.0030  141.3250 C   0  0  0  0  0  3  0  0  0  0  0  0
  183.3010  178.5140  142.9360 C   0  0  0  0  0  2  0  0  0  0  0  0
  185.8520  178.1780  142.5550 C   0  0  0  0  0  2  0  0  0  0  0  0
  184.6870  178.2520  143.5600 C   0  0  1  0  0  3  0  0  0  0  0  0
  184.9790  179.2580  144.6320 C   0  0  0  0  0  0  0  0  0  0  0  0
  185.3010  180.4010  144.3410 O   0  0  0  0  0  0  0  0  0  0  0  0
  184.9130  178.8480  146.0680 C   0  0  0  0  0  2  0  0  0  0  0  0
  192.4300  176.3290  146.5680 F   0  0  0  0  0  0  0  0  0  0  0  0
  188.5720  177.5830  145.7880 C   0  0  0  0  0  0  0  0  0  0  0  0
  186.4590  178.1320  147.7270 O   0  0  0  0  0  0  0  0  0  0  0  0
  186.2340  178.3060  146.4990 C   0  0  0  0  0  0  0  0  0  0  0  0
  191.1700  176.7530  146.3000 C   0  0  0  0  0  0  0  0  0  0  0  0
  190.7460  176.9140  144.9830 C   0  0  0  0  0  3  0  0  0  0  0  0
  187.2370  178.0250  145.5150 N   0  0  0  0  0  2  0  0  0  0  0  0
  189.0090  177.4160  147.0690 N   0  0  0  0  0  0  0  0  0  0  0  0
  189.4410  177.3390  144.7200 C   0  0  0  0  0  3  0  0  0  0  0  0
  190.2780  177.0100  147.3430 C   0  0  0  0  0  3  0  0  0  0  0  0
  184.1360  179.7480  139.5570 N   0  0  0  0  0  2  0  0  0  0  0  0
  184.0400  177.7220  138.3100 C   0  0  1  0  0  3  0  0  0  0  0  0
  184.3080  179.1570  138.2370 C   0  0  1  0  0  3  0  0  0  0  0  0
  183.0180  178.6310  137.7660 N   0  0  0  0  0  2  0  0  0  0  0  0
  184.7000  177.0170  137.2100 N   0  0  0  0  0  0  0  0  0  0  0  0
  184.5770  174.8480  136.2610 F   0  0  0  0  0  0  0  0  0  0  0  0
  184.5950  175.5710  137.4460 C   0  0  2  0  0  3  0  0  0  0  0  0
  183.3710  175.2440  138.2810 C   0  0  0  0  0  1  0  0  0  0  0  0
  186.1040  177.4460  137.0330 C   0  0  0  0  0  2  0  0  0  0  0  0
  188.4880  177.0350  137.4520 C   0  0  2  0  0  3  0  0  0  0  0  0
  187.1310  176.4570  137.5860 C   0  0  2  0  0  3  0  0  0  0  0  0
  188.0060  176.0630  136.5570 O   0  0  0  0  0  0  0  0  0  0  0  0
  190.6490  175.6320  137.8460 C   0  0  0  0  0  1  0  0  0  0  0  0
  189.4980  176.4270  138.4600 C   0  0  1  0  0  3  0  0  0  0  0  0
  190.0380  177.3810  139.5430 C   0  0  0  0  0  3  0  0  0  0  0  0
  189.4800  177.1260  140.9340 C   0  0  0  0  0  2  0  0  0  0  0  0
  188.9350  178.2680  140.0930 C   0  0  0  0  0  2  0  0  0  0  0  0
  1  4  1  0  0  0  0
  2  3  2  0  0  0  0
  2  1  1  0  0  0  0
  3  5  1  0  0  0  0
  4  6  1  0  0  0  0
  5  6  1  0  0  0  0
  6  7  1  1  0  0  0
  7  9  1  0  0  0  0
  8  7  2  0  0  0  0
  9 13  1  0  0  0  0
 11 17  2  0  0  0  0
 13 12  2  0  0  0  0
 14 10  1  0  0  0  0
 14 19  2  0  0  0  0
 15 14  1  0  0  0  0
 16 11  1  0  0  0  0
 16 13  1  0  0  0  0
 17 19  1  0  0  0  0
 18 15  2  0  0  0  0
 18 11  1  0  0  0  0
 20  2  1  0  0  0  0
 21 24  1  6  0  0  0
 22 21  1  0  0  0  0
 22 20  1  1  0  0  0
 23 22  1  0  0  0  0
 23 21  1  0  0  0  0
 24 26  1  0  0  0  0
 25 26  1  0  0  0  0
 26 27  1  6  0  0  0
 28 24  1  0  0  0  0
 29 30  1  0  0  0  0
 29 33  1  1  0  0  0
 30 28  1  6  0  0  0
 31 29  1  0  0  0  0
 31 30  1  0  0  0  0
 33 32  1  6  0  0  0
 33 34  1  0  0  0  0
 34 36  1  0  0  0  0
 34 35  1  0  0  0  0
 36 35  1  0  0  0  0
M  END
>  <MODEL>
6

>  <REMARK>
 VINA RESULT:      -7.3      3.025      7.746
  Name = 
  11 active torsions:
  status: ('A' for Active; 'I' for Inactive)
    1  A    between atoms: C_1  and  C_26
    2  A    between atoms: C_7  and  N_27
    3  A    between atoms: C_10  and  N_24
    4  A    between atoms: C_10  and  C_29
    5  A    between atoms: C_12  and  N_24
    6  A    between atoms: C_13  and  N_24
    7  A    between atoms: C_14  and  N_27
    8  A    between atoms: C_15  and  C_22
    9  A    between atoms: C_17  and  C_22
   10  A    between atoms: C_17  and  C_35
   11  A    between atoms: C_25  and  C_26
                            x       y       z     vdW  Elec       q    Type
                         _______ _______ _______ _____ _____    ______ ____

>  <TORSDO>
F 11

$$$$
=
 OpenBabel11032420103D

 36 40  0  0  1  0  0  0  0  0999 V2000
  184.4250  178.8100  141.2370 C   0  0  0  0  0  2  0  0  0  0  0  0
  185.0300  178.8240  139.8700 C   0  0  0  0  0  0  0  0  0  0  0  0
  184.3080  179.2750  138.8410 C   0  0  0  0  0  3  0  0  0  0  0  0
  183.0010  178.2560  141.1660 C   0  0  0  0  0  2  0  0  0  0  0  0
  182.9190  179.7940  139.0700 C   0  0  0  0  0  2  0  0  0  0  0  0
  182.1350  178.9580  140.1000 C   0  0  1  0  0  3  0  0  0  0  0  0
  181.2490  177.9670  139.4100 C   0  0  0  0  0  0  0  0  0  0  0  0
  180.5730  178.3020  138.4470 O   0  0  0  0  0  0  0  0  0  0  0  0
  181.1610  176.5670  139.9270 C   0  0  0  0  0  2  0  0  0  0  0  0
  185.8150  172.3850  135.0340 F   0  0  0  0  0  0  0  0  0  0  0  0
  183.7810  174.9160  137.5880 C   0  0  0  0  0  0  0  0  0  0  0  0
  181.0200  174.6680  138.5050 O   0  0  0  0  0  0  0  0  0  0  0  0
  181.7290  175.6210  138.9240 C   0  0  0  0  0  0  0  0  0  0  0  0
  185.1620  173.2160  135.8830 C   0  0  0  0  0  0  0  0  0  0  0  0
  185.7880  174.3620  136.3690 C   0  0  0  0  0  3  0  0  0  0  0  0
  183.0810  175.7920  138.4790 N   0  0  0  0  0  2  0  0  0  0  0  0
  183.1870  173.7910  137.0970 N   0  0  0  0  0  0  0  0  0  0  0  0
  185.1000  175.2170  137.2330 C   0  0  0  0  0  2  0  0  0  0  0  0
  183.8450  172.9430  136.2610 C   0  0  0  0  0  2  0  0  0  0  0  0
  186.3900  178.3980  139.7040 N   0  0  0  0  0  2  0  0  0  0  0  0
  188.3570  177.5040  140.7030 C   0  0  1  0  0  3  0  0  0  0  0  0
  187.4300  178.6340  140.6960 C   0  0  1  0  0  3  0  0  0  0  0  0
  188.7310  178.7530  140.0200 N   0  0  0  0  0  2  0  0  0  0  0  0
  189.0610  177.4220  141.9850 N   0  0  0  0  0  0  0  0  0  0  0  0
  190.3420  175.5540  142.6850 F   0  0  0  0  0  0  0  0  0  0  0  0
  190.2810  176.6240  141.8030 C   0  0  2  0  0  3  0  0  0  0  0  0
  191.5210  177.4890  141.9380 C   0  0  0  0  0  1  0  0  0  0  0  0
  188.2030  176.8780  143.0590 C   0  0  0  0  0  2  0  0  0  0  0  0
  187.0560  177.2400  145.2000 C   0  0  2  0  0  3  0  0  0  0  0  0
  187.7460  177.9200  144.0790 C   0  0  2  0  0  3  0  0  0  0  0  0
  186.3420  177.8960  144.1800 O   0  0  0  0  0  0  0  0  0  0  0  0
  185.7220  178.6230  146.9610 C   0  0  0  0  0  1  0  0  0  0  0  0
  187.0730  178.0750  146.5060 C   0  0  1  0  0  3  0  0  0  0  0  0
  187.8150  177.4490  147.7030 C   0  0  0  0  0  3  0  0  0  0  0  0
  189.0440  178.2250  148.1520 C   0  0  0  0  0  2  0  0  0  0  0  0
  189.2020  176.9750  147.3040 C   0  0  0  0  0  2  0  0  0  0  0  0
  2  1  1  0  0  0  0
  3  5  1  0  0  0  0
  3  2  2  0  0  0  0
  4  1  1  0  0  0  0
  5  6  1  0  0  0  0
  6  7  1  6  0  0  0
  6  4  1  0  0  0  0
  7  9  1  0  0  0  0
  8  7  2  0  0  0  0
 10 14  1  0  0  0  0
 11 16  1  0  0  0  0
 12 13  2  0  0  0  0
 13  9  1  0  0  0  0
 14 19  1  0  0  0  0
 14 15  2  0  0  0  0
 15 18  1  0  0  0  0
 16 13  1  0  0  0  0
 17 11  2  0  0  0  0
 18 11  1  0  0  0  0
 19 17  1  0  0  0  0
 20  2  1  0  0  0  0
 21 24  1  1  0  0  0
 22 20  1  6  0  0  0
 22 21  1  0  0  0  0
 23 22  1  0  0  0  0
 23 21  1  0  0  0  0
 24 28  1  0  0  0  0
 26 27  1  1  0  0  0
 26 24  1  0  0  0  0
 26 25  1  0  0  0  0
 29 33  1  1  0  0  0
 30 28  1  6  0  0  0
 30 31  1  0  0  0  0
 30 29  1  0  0  0  0
 31 29  1  0  0  0  0
 33 32  1  1  0  0  0
 33 34  1  0  0  0  0
 34 35  1  0  0  0  0
 36 34  1  0  0  0  0
 36 35  1  0  0  0  0
M  END
>  <MODEL>
7

>  <REMARK>
 VINA RESULT:      -7.2      2.643      4.696
  Name = 
  11 active torsions:
  status: ('A' for Active; 'I' for Inactive)
    1  A    between atoms: C_1  and  C_26
    2  A    between atoms: C_7  and  N_27
    3  A    between atoms: C_10  and  N_24
    4  A    between atoms: C_10  and  C_29
    5  A    between atoms: C_12  and  N_24
    6  A    between atoms: C_13  and  N_24
    7  A    between atoms: C_14  and  N_27
    8  A    between atoms: C_15  and  C_22
    9  A    between atoms: C_17  and  C_22
   10  A    between atoms: C_17  and  C_35
   11  A    between atoms: C_25  and  C_26
                            x       y       z     vdW  Elec       q    Type
                         _______ _______ _______ _____ _____    ______ ____

>  <TORSDO>
F 11

$$$$
=
 OpenBabel11032420103D

 36 40  0  0  1  0  0  0  0  0999 V2000
  186.8750  175.8350  136.6450 C   0  0  0  0  0  2  0  0  0  0  0  0
  185.7950  176.7000  137.2090 C   0  0  0  0  0  0  0  0  0  0  0  0
  186.0540  177.9860  137.4630 C   0  0  0  0  0  3  0  0  0  0  0  0
  188.1830  176.0840  137.3960 C   0  0  0  0  0  2  0  0  0  0  0  0
  187.4070  178.5540  137.1490 C   0  0  0  0  0  2  0  0  0  0  0  0
  188.5520  177.5800  137.4810 C   0  0  1  0  0  3  0  0  0  0  0  0
  189.1430  177.8980  138.8200 C   0  0  0  0  0  0  0  0  0  0  0  0
  188.9850  179.0010  139.3230 O   0  0  0  0  0  0  0  0  0  0  0  0
  189.9680  176.8710  139.5270 C   0  0  0  0  0  2  0  0  0  0  0  0
  188.8710  177.9820  147.3160 F   0  0  0  0  0  0  0  0  0  0  0  0
  188.9200  177.3520  143.2330 C   0  0  0  0  0  0  0  0  0  0  0  0
  191.2050  177.5780  141.4300 O   0  0  0  0  0  0  0  0  0  0  0  0
  190.0860  177.2250  140.9710 C   0  0  0  0  0  0  0  0  0  0  0  0
  188.8770  177.7600  145.9780 C   0  0  0  0  0  0  0  0  0  0  0  0
  187.6960  177.4400  145.3110 C   0  0  0  0  0  3  0  0  0  0  0  0
  188.9350  177.1260  141.8180 N   0  0  0  0  0  2  0  0  0  0  0  0
  190.0620  177.6690  143.9070 N   0  0  0  0  0  0  0  0  0  0  0  0
  187.7130  177.2270  143.9300 C   0  0  0  0  0  2  0  0  0  0  0  0
  190.0650  177.8730  145.2510 C   0  0  0  0  0  2  0  0  0  0  0  0
  184.4910  176.1410  137.4180 N   0  0  0  0  0  2  0  0  0  0  0  0
  182.3950  177.2640  137.5470 C   0  0  1  0  0  3  0  0  0  0  0  0
  183.5070  176.7190  138.3240 C   0  0  1  0  0  3  0  0  0  0  0  0
  182.2490  175.9650  138.2230 N   0  0  0  0  0  2  0  0  0  0  0  0
  181.6870  178.2920  138.3120 N   0  0  0  0  0  0  0  0  0  0  0  0
  181.5760  180.5060  137.4720 F   0  0  0  0  0  0  0  0  0  0  0  0
  181.0510  179.2250  137.3720 C   0  0  2  0  0  3  0  0  0  0  0  0
  179.5470  179.2560  137.5710 C   0  0  0  0  0  1  0  0  0  0  0  0
  182.5750  178.9910  139.2650 C   0  0  0  0  0  2  0  0  0  0  0  0
  182.2080  178.3710  141.6120 C   0  0  2  0  0  3  0  0  0  0  0  0
  181.8960  179.3840  140.5770 C   0  0  2  0  0  3  0  0  0  0  0  0
  180.9710  178.3880  140.9430 O   0  0  0  0  0  0  0  0  0  0  0  0
  180.7690  178.6260  143.7700 C   0  0  0  0  0  1  0  0  0  0  0  0
  182.0820  178.9320  143.0520 C   0  0  1  0  0  3  0  0  0  0  0  0
  183.2710  178.6590  143.9950 C   0  0  0  0  0  3  0  0  0  0  0  0
  184.3250  179.7550  144.0040 C   0  0  0  0  0  2  0  0  0  0  0  0
  184.5610  178.4780  143.2150 C   0  0  0  0  0  2  0  0  0  0  0  0
  1  2  1  0  0  0  0
  1  4  1  0  0  0  0
  2 20  1  0  0  0  0
  2  3  2  0  0  0  0
  4  6  1  0  0  0  0
  5  3  1  0  0  0  0
  5  6  1  0  0  0  0
  6  7  1  1  0  0  0
  7  8  2  0  0  0  0
  7  9  1  0  0  0  0
  9 13  1  0  0  0  0
 11 17  2  0  0  0  0
 11 18  1  0  0  0  0
 13 12  2  0  0  0  0
 13 16  1  0  0  0  0
 14 10  1  0  0  0  0
 15 14  2  0  0  0  0
 16 11  1  0  0  0  0
 17 19  1  0  0  0  0
 18 15  1  0  0  0  0
 19 14  1  0  0  0  0
 21 23  1  0  0  0  0
 21 24  1  1  0  0  0
 21 22  1  0  0  0  0
 22 20  1  6  0  0  0
 23 22  1  0  0  0  0
 24 28  1  0  0  0  0
 26 25  1  0  0  0  0
 26 27  1  1  0  0  0
 26 24  1  0  0  0  0
 29 33  1  1  0  0  0
 30 28  1  6  0  0  0
 30 31  1  0  0  0  0
 30 29  1  0  0  0  0
 31 29  1  0  0  0  0
 33 32  1  1  0  0  0
 33 34  1  0  0  0  0
 34 35  1  0  0  0  0
 36 34  1  0  0  0  0
 36 35  1  0  0  0  0
M  END
>  <MODEL>
8

>  <REMARK>
 VINA RESULT:      -7.2      2.504      7.138
  Name = 
  11 active torsions:
  status: ('A' for Active; 'I' for Inactive)
    1  A    between atoms: C_1  and  C_26
    2  A    between atoms: C_7  and  N_27
    3  A    between atoms: C_10  and  N_24
    4  A    between atoms: C_10  and  C_29
    5  A    between atoms: C_12  and  N_24
    6  A    between atoms: C_13  and  N_24
    7  A    between atoms: C_14  and  N_27
    8  A    between atoms: C_15  and  C_22
    9  A    between atoms: C_17  and  C_22
   10  A    between atoms: C_17  and  C_35
   11  A    between atoms: C_25  and  C_26
                            x       y       z     vdW  Elec       q    Type
                         _______ _______ _______ _____ _____    ______ ____

>  <TORSDO>
F 11

$$$$
=
 OpenBabel11032420103D

 36 40  0  0  1  0  0  0  0  0999 V2000
  189.1870  178.9920  138.4670 C   0  0  0  0  0  2  0  0  0  0  0  0
  188.8990  178.3200  139.7700 C   0  0  0  0  0  0  0  0  0  0  0  0
  189.5400  177.1890  140.0770 C   0  0  0  0  0  3  0  0  0  0  0  0
  189.2200  177.9550  137.3450 C   0  0  0  0  0  2  0  0  0  0  0  0
  190.5630  176.6270  139.1330 C   0  0  0  0  0  2  0  0  0  0  0  0
  190.1450  176.7610  137.6570 C   0  0  1  0  0  3  0  0  0  0  0  0
  189.5370  175.4830  137.1640 C   0  0  0  0  0  0  0  0  0  0  0  0
  189.8500  174.4120  137.6640 O   0  0  0  0  0  0  0  0  0  0  0  0
  188.5690  175.5170  136.0250 C   0  0  0  0  0  2  0  0  0  0  0  0
  181.0270  175.5730  138.5160 F   0  0  0  0  0  0  0  0  0  0  0  0
  184.9610  176.0540  137.3480 C   0  0  0  0  0  0  0  0  0  0  0  0
  186.8310  173.9710  136.5180 O   0  0  0  0  0  0  0  0  0  0  0  0
  187.2020  175.1750  136.5130 C   0  0  0  0  0  0  0  0  0  0  0  0
  182.3130  175.7450  138.1230 C   0  0  0  0  0  0  0  0  0  0  0  0
  182.8930  177.0120  138.1410 C   0  0  0  0  0  3  0  0  0  0  0  0
  186.3220  176.2240  136.9360 N   0  0  0  0  0  2  0  0  0  0  0  0
  184.3720  174.8230  137.3410 N   0  0  0  0  0  0  0  0  0  0  0  0
  184.2230  177.1740  137.7450 C   0  0  0  0  0  2  0  0  0  0  0  0
  183.0770  174.6490  137.7160 C   0  0  0  0  0  2  0  0  0  0  0  0
  187.9760  178.9310  140.6820 N   0  0  0  0  0  2  0  0  0  0  0  0
  185.9870  179.2390  141.9530 C   0  0  1  0  0  3  0  0  0  0  0  0
  186.6840  178.3520  141.0230 C   0  0  1  0  0  3  0  0  0  0  0  0
  185.6110  179.2290  140.5310 N   0  0  0  0  0  2  0  0  0  0  0  0
  184.9880  178.4950  142.7240 N   0  0  0  0  0  0  0  0  0  0  0  0
  184.7910  180.5160  143.9470 F   0  0  0  0  0  0  0  0  0  0  0  0
  184.0950  179.4540  143.3880 C   0  0  2  0  0  3  0  0  0  0  0  0
  183.2470  178.7660  144.4430 C   0  0  0  0  0  1  0  0  0  0  0  0
  185.6090  177.5630  143.6900 C   0  0  0  0  0  2  0  0  0  0  0  0
  187.4490  177.2400  145.2830 C   0  0  2  0  0  3  0  0  0  0  0  0
  186.5150  178.2410  144.7160 C   0  0  2  0  0  3  0  0  0  0  0  0
  186.3060  177.6650  145.9830 O   0  0  0  0  0  0  0  0  0  0  0  0
  188.9250  177.7580  147.3680 C   0  0  0  0  0  1  0  0  0  0  0  0
  188.7380  177.8840  145.8570 C   0  0  1  0  0  3  0  0  0  0  0  0
  190.0540  177.5340  145.1340 C   0  0  0  0  0  3  0  0  0  0  0  0
  190.5890  178.6410  144.2400 C   0  0  0  0  0  2  0  0  0  0  0  0
  189.8530  177.4600  143.6310 C   0  0  0  0  0  2  0  0  0  0  0  0
  1  2  1  0  0  0  0
  2  3  2  0  0  0  0
  2 20  1  0  0  0  0
  4  6  1  0  0  0  0
  4  1  1  0  0  0  0
  5  3  1  0  0  0  0
  6  7  1  1  0  0  0
  6  5  1  0  0  0  0
  7  8  2  0  0  0  0
  9 13  1  0  0  0  0
  9  7  1  0  0  0  0
 11 18  1  0  0  0  0
 13 12  2  0  0  0  0
 13 16  1  0  0  0  0
 14 15  2  0  0  0  0
 14 10  1  0  0  0  0
 16 11  1  0  0  0  0
 17 11  2  0  0  0  0
 17 19  1  0  0  0  0
 18 15  1  0  0  0  0
 19 14  1  0  0  0  0
 21 24  1  1  0  0  0
 22 20  1  6  0  0  0
 22 21  1  0  0  0  0
 23 22  1  0  0  0  0
 23 21  1  0  0  0  0
 24 26  1  0  0  0  0
 24 28  1  0  0  0  0
 26 25  1  0  0  0  0
 26 27  1  1  0  0  0
 29 33  1  1  0  0  0
 29 31  1  0  0  0  0
 30 28  1  6  0  0  0
 30 29  1  0  0  0  0
 30 31  1  0  0  0  0
 33 32  1  1  0  0  0
 34 33  1  0  0  0  0
 35 34  1  0  0  0  0
 36 35  1  0  0  0  0
 36 34  1  0  0  0  0
M  END
>  <MODEL>
9

>  <REMARK>
 VINA RESULT:      -7.1      2.566      5.093
  Name = 
  11 active torsions:
  status: ('A' for Active; 'I' for Inactive)
    1  A    between atoms: C_1  and  C_26
    2  A    between atoms: C_7  and  N_27
    3  A    between atoms: C_10  and  N_24
    4  A    between atoms: C_10  and  C_29
    5  A    between atoms: C_12  and  N_24
    6  A    between atoms: C_13  and  N_24
    7  A    between atoms: C_14  and  N_27
    8  A    between atoms: C_15  and  C_22
    9  A    between atoms: C_17  and  C_22
   10  A    between atoms: C_17  and  C_35
   11  A    between atoms: C_25  and  C_26
                            x       y       z     vdW  Elec       q    Type
                         _______ _______ _______ _____ _____    ______ ____

>  <TORSDO>
F 11

$$$$
