=
 OpenBabel11042411353D

 35 39  0  0  1  0  0  0  0  0999 V2000
  191.1320  176.6670  143.7830 C   0  0  0  0  0  0  0  0  0  0  0  0
  191.3400  175.3000  143.6420 O   0  0  0  0  0  1  0  0  0  0  0  0
  190.7110  178.6170  144.6900 O   0  0  0  0  0  0  0  0  0  0  0  0
  190.9040  177.3450  144.9610 C   0  0  0  0  0  0  0  0  0  0  0  0
  190.8240  178.8190  143.3920 C   0  0  0  0  0  3  0  0  0  0  0  0
  191.0930  177.6060  142.7770 C   0  0  0  0  0  0  0  0  0  0  0  0
  192.3430  177.1530  139.3380 N   0  0  0  0  0  0  0  0  0  0  0  0
  188.6600  177.9640  138.8830 C   0  0  0  0  0  0  0  0  0  0  0  0
  190.5110  176.9540  137.8290 N   0  0  0  0  0  0  0  0  0  0  0  0
  187.5920  178.5880  138.4700 O   0  0  0  0  0  0  0  0  0  0  0  0
  190.2700  176.8850  140.3710 C   0  0  2  0  0  3  0  0  0  0  0  0
  189.0810  177.8000  140.1440 C   0  0  0  0  0  3  0  0  0  0  0  0
  191.2910  177.3870  141.3330 C   0  0  0  0  0  0  0  0  0  0  0  0
  192.4680  177.4620  140.7220 C   0  0  0  0  0  3  0  0  0  0  0  0
  189.3250  177.4870  137.7860 C   0  0  0  0  0  0  0  0  0  0  0  0
  187.5820  178.4900  137.1480 C   0  0  0  0  0  3  0  0  0  0  0  0
  191.1140  176.8210  139.1270 C   0  0  0  0  0  0  0  0  0  0  0  0
  188.6580  177.8090  136.6670 N   0  0  0  0  0  0  0  0  0  0  0  0
  190.8170  176.7780  146.3180 C   0  0  0  0  0  0  0  0  0  0  0  0
  189.7370  176.9180  147.1090 C   0  0  0  0  0  3  0  0  0  0  0  0
  186.3840  178.6830  147.2900 C   0  0  0  0  0  3  0  0  0  0  0  0
  187.6050  178.1270  147.6830 C   0  0  0  0  0  3  0  0  0  0  0  0
  188.0160  177.4150  145.4090 C   0  0  0  0  0  3  0  0  0  0  0  0
  185.9790  178.6000  145.9570 C   0  0  0  0  0  3  0  0  0  0  0  0
  186.7950  177.9660  145.0080 C   0  0  0  0  0  0  0  0  0  0  0  0
  188.4190  177.4720  146.7480 C   0  0  0  0  0  0  0  0  0  0  0  0
  186.4080  177.8800  143.6330 N   0  0  0  0  0  2  0  0  0  0  0  0
  185.4790  178.8050  142.9990 C   0  0  1  0  0  3  0  0  0  0  0  0
  185.9270  179.0570  141.5720 C   0  0  0  0  0  1  0  0  0  0  0  0
  184.0780  178.2130  143.0050 C   0  0  0  0  0  2  0  0  0  0  0  0
  183.1030  179.1660  143.6660 C   0  0  0  0  0  1  0  0  0  0  0  0
  191.9670  176.0760  146.8070 N   0  0  0  0  0  2  0  0  0  0  0  0
  192.1830  175.7280  148.2070 C   0  0  0  0  0  2  0  0  0  0  0  0
  193.6130  176.0360  148.6210 C   0  0  0  0  0  2  0  0  0  0  0  0
  193.6290  176.8450  149.9040 C   0  0  0  0  0  1  0  0  0  0  0  0
  1  4  2  0  0  0  0
  2  1  1  0  0  0  0
  3  4  1  0  0  0  0
  4 19  1  0  0  0  0
  5  3  1  0  0  0  0
  6  5  2  0  0  0  0
  6  1  1  0  0  0  0
  7 14  1  0  0  0  0
  8 12  2  0  0  0  0
  9 17  1  0  0  0  0
 10  8  1  0  0  0  0
 11 12  1  6  0  0  0
 11 13  1  0  0  0  0
 13  6  1  0  0  0  0
 14 13  2  0  0  0  0
 15  9  2  0  0  0  0
 15  8  1  0  0  0  0
 16 10  1  0  0  0  0
 17  7  2  0  0  0  0
 17 11  1  0  0  0  0
 18 16  2  0  0  0  0
 18 15  1  0  0  0  0
 19 32  1  0  0  0  0
 19 20  2  0  0  0  0
 21 22  1  0  0  0  0
 23 26  1  0  0  0  0
 24 21  2  0  0  0  0
 25 23  2  0  0  0  0
 25 24  1  0  0  0  0
 26 20  1  0  0  0  0
 26 22  2  0  0  0  0
 27 25  1  0  0  0  0
 28 29  1  6  0  0  0
 28 30  1  0  0  0  0
 28 27  1  0  0  0  0
 30 31  1  0  0  0  0
 32 33  1  0  0  0  0
 33 34  1  0  0  0  0
 34 35  1  0  0  0  0
M  END
>  <MODEL>
1

>  <REMARK>
 VINA RESULT:      -9.1      0.000      0.000
  Name = 
  9 active torsions:
  status: ('A' for Active; 'I' for Inactive)
    1  A    between atoms: C_5  and  C_8
    2  A    between atoms: C_8  and  N_19
    3  A    between atoms: C_10  and  C_23
    4  A    between atoms: N_14  and  C_23
    5  A    between atoms: N_14  and  C_28
    6  A    between atoms: C_15  and  N_19
    7  A    between atoms: C_15  and  C_30
    8  A    between atoms: C_17  and  C_35
    9  A    between atoms: C_25  and  C_31
                            x       y       z     vdW  Elec       q    Type
                         _______ _______ _______ _____ _____    ______ ____

>  <TORSDO>
F 9

$$$$
=
 OpenBabel11042411353D

 35 39  0  0  1  0  0  0  0  0999 V2000
  189.4570  177.8700  143.9450 C   0  0  0  0  0  0  0  0  0  0  0  0
  190.3440  178.9270  144.1110 O   0  0  0  0  0  1  0  0  0  0  0  0
  187.9120  176.3730  144.3680 O   0  0  0  0  0  0  0  0  0  0  0  0
  188.5390  177.4150  144.8680 C   0  0  0  0  0  0  0  0  0  0  0  0
  188.3530  176.1300  143.1490 C   0  0  0  0  0  3  0  0  0  0  0  0
  189.3350  177.0590  142.8400 C   0  0  0  0  0  0  0  0  0  0  0  0
  191.8320  177.3720  140.1450 N   0  0  0  0  0  0  0  0  0  0  0  0
  188.5140  178.0050  138.4080 C   0  0  0  0  0  0  0  0  0  0  0  0
  190.7460  177.3480  138.0260 N   0  0  0  0  0  0  0  0  0  0  0  0
  187.6030  178.6240  137.7100 O   0  0  0  0  0  0  0  0  0  0  0  0
  189.5820  176.7680  140.2240 C   0  0  2  0  0  3  0  0  0  0  0  0
  188.4500  177.6270  139.6910 C   0  0  0  0  0  3  0  0  0  0  0  0
  190.0870  177.1400  141.5750 C   0  0  0  0  0  0  0  0  0  0  0  0
  191.3850  177.4130  141.4960 C   0  0  0  0  0  3  0  0  0  0  0  0
  189.6000  177.7980  137.6020 C   0  0  0  0  0  0  0  0  0  0  0  0
  188.1030  178.7860  136.4920 C   0  0  0  0  0  3  0  0  0  0  0  0
  190.8300  177.0060  139.4190 C   0  0  0  0  0  0  0  0  0  0  0  0
  189.3640  178.2860  136.3740 N   0  0  0  0  0  0  0  0  0  0  0  0
  188.3040  177.9330  146.2270 C   0  0  0  0  0  0  0  0  0  0  0  0
  187.1570  178.5260  146.6030 C   0  0  0  0  0  3  0  0  0  0  0  0
  183.4690  178.6340  145.7180 C   0  0  0  0  0  3  0  0  0  0  0  0
  184.6430  178.4930  146.4630 C   0  0  0  0  0  3  0  0  0  0  0  0
  185.9590  178.9200  144.4800 C   0  0  0  0  0  3  0  0  0  0  0  0
  183.5420  178.9140  144.3520 C   0  0  0  0  0  3  0  0  0  0  0  0
  184.7890  179.0600  143.7260 C   0  0  0  0  0  0  0  0  0  0  0  0
  185.8960  178.6160  145.8440 C   0  0  0  0  0  0  0  0  0  0  0  0
  184.8900  179.3610  142.3310 N   0  0  0  0  0  2  0  0  0  0  0  0
  184.4180  178.4720  141.2790 C   0  0  1  0  0  3  0  0  0  0  0  0
  182.9040  178.5400  141.2130 C   0  0  0  0  0  1  0  0  0  0  0  0
  185.0140  178.8900  139.9440 C   0  0  0  0  0  2  0  0  0  0  0  0
  183.9190  179.0790  138.9120 C   0  0  0  0  0  1  0  0  0  0  0  0
  189.3820  177.8170  147.1640 N   0  0  0  0  0  2  0  0  0  0  0  0
  190.0840  176.5720  147.4580 C   0  0  0  0  0  2  0  0  0  0  0  0
  191.4650  176.5740  146.8230 C   0  0  0  0  0  2  0  0  0  0  0  0
  192.4200  175.7170  147.6320 C   0  0  0  0  0  1  0  0  0  0  0  0
  1  2  1  0  0  0  0
  1  4  2  0  0  0  0
  3  4  1  0  0  0  0
  4 19  1  0  0  0  0
  5  3  1  0  0  0  0
  6  5  2  0  0  0  0
  6  1  1  0  0  0  0
  7 14  1  0  0  0  0
  8 12  2  0  0  0  0
  9 17  1  0  0  0  0
 10  8  1  0  0  0  0
 11 12  1  6  0  0  0
 11 13  1  0  0  0  0
 13  6  1  0  0  0  0
 14 13  2  0  0  0  0
 15  9  2  0  0  0  0
 15  8  1  0  0  0  0
 16 10  1  0  0  0  0
 17  7  2  0  0  0  0
 17 11  1  0  0  0  0
 18 16  2  0  0  0  0
 18 15  1  0  0  0  0
 19 20  2  0  0  0  0
 19 32  1  0  0  0  0
 21 22  1  0  0  0  0
 23 26  1  0  0  0  0
 24 21  2  0  0  0  0
 25 24  1  0  0  0  0
 25 23  2  0  0  0  0
 26 22  2  0  0  0  0
 26 20  1  0  0  0  0
 27 25  1  0  0  0  0
 28 29  1  6  0  0  0
 28 27  1  0  0  0  0
 30 28  1  0  0  0  0
 31 30  1  0  0  0  0
 32 33  1  0  0  0  0
 34 33  1  0  0  0  0
 34 35  1  0  0  0  0
M  END
>  <MODEL>
2

>  <REMARK>
 VINA RESULT:      -8.9      1.565      2.495
  Name = 
  9 active torsions:
  status: ('A' for Active; 'I' for Inactive)
    1  A    between atoms: C_5  and  C_8
    2  A    between atoms: C_8  and  N_19
    3  A    between atoms: C_10  and  C_23
    4  A    between atoms: N_14  and  C_23
    5  A    between atoms: N_14  and  C_28
    6  A    between atoms: C_15  and  N_19
    7  A    between atoms: C_15  and  C_30
    8  A    between atoms: C_17  and  C_35
    9  A    between atoms: C_25  and  C_31
                            x       y       z     vdW  Elec       q    Type
                         _______ _______ _______ _____ _____    ______ ____

>  <TORSDO>
F 9

$$$$
=
 OpenBabel11042411353D

 35 39  0  0  1  0  0  0  0  0999 V2000
  189.7710  177.9720  143.0960 C   0  0  0  0  0  0  0  0  0  0  0  0
  190.1980  179.2950  143.0830 O   0  0  0  0  0  1  0  0  0  0  0  0
  189.3320  175.9420  143.7960 O   0  0  0  0  0  0  0  0  0  0  0  0
  189.7620  177.1230  144.1810 C   0  0  0  0  0  0  0  0  0  0  0  0
  189.0320  175.9750  142.5120 C   0  0  0  0  0  3  0  0  0  0  0  0
  189.2950  177.2470  142.0270 C   0  0  0  0  0  0  0  0  0  0  0  0
  188.1530  178.7170  138.8450 N   0  0  0  0  0  0  0  0  0  0  0  0
  190.6670  176.0720  137.7910 C   0  0  0  0  0  0  0  0  0  0  0  0
  189.6030  178.0500  137.0770 N   0  0  0  0  0  0  0  0  0  0  0  0
  191.1470  175.0160  137.1940 O   0  0  0  0  0  0  0  0  0  0  0  0
  190.1150  177.6740  139.5510 C   0  0  2  0  0  3  0  0  0  0  0  0
  190.5500  176.2890  139.1070 C   0  0  0  0  0  3  0  0  0  0  0  0
  189.0990  177.7070  140.6410 C   0  0  0  0  0  0  0  0  0  0  0  0
  188.0260  178.3660  140.2190 C   0  0  0  0  0  3  0  0  0  0  0  0
  190.2720  176.9620  136.8290 C   0  0  0  0  0  0  0  0  0  0  0  0
  191.0660  175.2480  135.8910 C   0  0  0  0  0  3  0  0  0  0  0  0
  189.3240  178.3380  138.4580 C   0  0  0  0  0  0  0  0  0  0  0  0
  190.5160  176.4610  135.6090 N   0  0  0  0  0  0  0  0  0  0  0  0
  190.2110  177.4200  145.5530 C   0  0  0  0  0  0  0  0  0  0  0  0
  189.3960  177.9030  146.5080 C   0  0  0  0  0  3  0  0  0  0  0  0
  185.7890  178.5550  147.4860 C   0  0  0  0  0  3  0  0  0  0  0  0
  187.1700  178.3680  147.5890 C   0  0  0  0  0  3  0  0  0  0  0  0
  187.2990  177.9740  145.2070 C   0  0  0  0  0  3  0  0  0  0  0  0
  185.1630  178.4470  146.2420 C   0  0  0  0  0  3  0  0  0  0  0  0
  185.9170  178.1570  145.0950 C   0  0  0  0  0  0  0  0  0  0  0  0
  187.9310  178.0560  146.4530 C   0  0  0  0  0  0  0  0  0  0  0  0
  185.3010  178.0550  143.8080 N   0  0  0  0  0  2  0  0  0  0  0  0
  184.3240  179.0100  143.3040 C   0  0  1  0  0  3  0  0  0  0  0  0
  184.1060  178.7620  141.8230 C   0  0  0  0  0  1  0  0  0  0  0  0
  183.0120  178.8490  144.0550 C   0  0  0  0  0  2  0  0  0  0  0  0
  181.8370  179.0540  143.1180 C   0  0  0  0  0  1  0  0  0  0  0  0
  191.5970  177.2050  145.8460 N   0  0  0  0  0  2  0  0  0  0  0  0
  192.1610  175.9220  146.2550 C   0  0  0  0  0  2  0  0  0  0  0  0
  191.8100  175.6200  147.7030 C   0  0  0  0  0  2  0  0  0  0  0  0
  193.0440  175.7270  148.5780 C   0  0  0  0  0  1  0  0  0  0  0  0
  1  4  2  0  0  0  0
  2  1  1  0  0  0  0
  3  4  1  0  0  0  0
  4 19  1  0  0  0  0
  5  3  1  0  0  0  0
  6  5  2  0  0  0  0
  6  1  1  0  0  0  0
  7 14  1  0  0  0  0
  8 12  2  0  0  0  0
  9 17  1  0  0  0  0
 10  8  1  0  0  0  0
 11 12  1  6  0  0  0
 11 13  1  0  0  0  0
 13  6  1  0  0  0  0
 14 13  2  0  0  0  0
 15  9  2  0  0  0  0
 15  8  1  0  0  0  0
 16 10  1  0  0  0  0
 17  7  2  0  0  0  0
 17 11  1  0  0  0  0
 18 16  2  0  0  0  0
 18 15  1  0  0  0  0
 19 32  1  0  0  0  0
 19 20  2  0  0  0  0
 21 22  1  0  0  0  0
 23 26  1  0  0  0  0
 24 21  2  0  0  0  0
 25 23  2  0  0  0  0
 25 24  1  0  0  0  0
 26 20  1  0  0  0  0
 26 22  2  0  0  0  0
 27 25  1  0  0  0  0
 28 29  1  6  0  0  0
 28 27  1  0  0  0  0
 28 30  1  0  0  0  0
 31 30  1  0  0  0  0
 32 33  1  0  0  0  0
 33 34  1  0  0  0  0
 34 35  1  0  0  0  0
M  END
>  <MODEL>
3

>  <REMARK>
 VINA RESULT:      -8.5      1.683      2.455
  Name = 
  9 active torsions:
  status: ('A' for Active; 'I' for Inactive)
    1  A    between atoms: C_5  and  C_8
    2  A    between atoms: C_8  and  N_19
    3  A    between atoms: C_10  and  C_23
    4  A    between atoms: N_14  and  C_23
    5  A    between atoms: N_14  and  C_28
    6  A    between atoms: C_15  and  N_19
    7  A    between atoms: C_15  and  C_30
    8  A    between atoms: C_17  and  C_35
    9  A    between atoms: C_25  and  C_31
                            x       y       z     vdW  Elec       q    Type
                         _______ _______ _______ _____ _____    ______ ____

>  <TORSDO>
F 9

$$$$
=
 OpenBabel11042411353D

 35 39  0  0  1  0  0  0  0  0999 V2000
  187.5620  177.8970  142.2890 C   0  0  0  0  0  0  0  0  0  0  0  0
  187.2420  179.0330  141.5550 O   0  0  0  0  0  1  0  0  0  0  0  0
  187.5250  176.3580  143.8490 O   0  0  0  0  0  0  0  0  0  0  0  0
  186.9080  177.4320  143.4090 C   0  0  0  0  0  0  0  0  0  0  0  0
  188.5430  176.0750  143.0600 C   0  0  0  0  0  3  0  0  0  0  0  0
  188.6020  177.0270  142.0540 C   0  0  0  0  0  0  0  0  0  0  0  0
  191.5540  177.4300  139.8810 N   0  0  0  0  0  0  0  0  0  0  0  0
  188.6370  177.2570  137.4550 C   0  0  0  0  0  0  0  0  0  0  0  0
  190.9690  176.9550  137.6230 N   0  0  0  0  0  0  0  0  0  0  0  0
  187.8200  177.6170  136.5030 O   0  0  0  0  0  0  0  0  0  0  0  0
  189.4510  176.4600  139.6160 C   0  0  2  0  0  3  0  0  0  0  0  0
  188.3510  177.0370  138.7440 C   0  0  0  0  0  3  0  0  0  0  0  0
  189.5920  177.0800  140.9640 C   0  0  0  0  0  0  0  0  0  0  0  0
  190.8230  177.5610  141.0960 C   0  0  0  0  0  3  0  0  0  0  0  0
  189.8910  177.1420  136.9180 C   0  0  0  0  0  0  0  0  0  0  0  0
  188.5450  177.7100  135.3960 C   0  0  0  0  0  3  0  0  0  0  0  0
  190.7960  176.8080  139.0420 C   0  0  0  0  0  0  0  0  0  0  0  0
  189.8590  177.4260  135.6070 N   0  0  0  0  0  0  0  0  0  0  0  0
  185.7440  178.0370  144.0820 C   0  0  0  0  0  0  0  0  0  0  0  0
  185.7000  178.2830  145.4030 C   0  0  0  0  0  3  0  0  0  0  0  0
  187.8130  178.6920  148.5270 C   0  0  0  0  0  3  0  0  0  0  0  0
  186.7710  178.8520  147.6100 C   0  0  0  0  0  3  0  0  0  0  0  0
  187.8680  177.3220  146.0920 C   0  0  0  0  0  3  0  0  0  0  0  0
  188.8840  177.8500  148.2240 C   0  0  0  0  0  3  0  0  0  0  0  0
  188.9170  177.1590  147.0030 C   0  0  0  0  0  0  0  0  0  0  0  0
  186.8030  178.1830  146.3770 C   0  0  0  0  0  0  0  0  0  0  0  0
  189.9960  176.2790  146.6750 N   0  0  0  0  0  2  0  0  0  0  0  0
  191.3640  176.7300  146.4580 C   0  0  1  0  0  3  0  0  0  0  0  0
  192.3210  175.7180  147.0610 C   0  0  0  0  0  1  0  0  0  0  0  0
  191.6300  176.8680  144.9670 C   0  0  0  0  0  2  0  0  0  0  0  0
  191.3240  178.2790  144.5030 C   0  0  0  0  0  1  0  0  0  0  0  0
  184.6030  178.3350  143.2670 N   0  0  0  0  0  2  0  0  0  0  0  0
  183.4700  179.1450  143.7040 C   0  0  0  0  0  2  0  0  0  0  0  0
  182.2800  178.9430  142.7810 C   0  0  0  0  0  2  0  0  0  0  0  0
  181.0050  178.7920  143.5890 C   0  0  0  0  0  1  0  0  0  0  0  0
  1  4  2  0  0  0  0
  2  1  1  0  0  0  0
  4  3  1  0  0  0  0
  4 19  1  0  0  0  0
  5  3  1  0  0  0  0
  6  1  1  0  0  0  0
  6  5  2  0  0  0  0
  7 14  1  0  0  0  0
  8 12  2  0  0  0  0
  9 17  1  0  0  0  0
 10  8  1  0  0  0  0
 11 12  1  6  0  0  0
 11 13  1  0  0  0  0
 13 14  2  0  0  0  0
 13  6  1  0  0  0  0
 15  8  1  0  0  0  0
 15  9  2  0  0  0  0
 16 18  2  0  0  0  0
 16 10  1  0  0  0  0
 17 11  1  0  0  0  0
 17  7  2  0  0  0  0
 18 15  1  0  0  0  0
 19 20  2  0  0  0  0
 20 26  1  0  0  0  0
 22 21  2  0  0  0  0
 23 26  2  0  0  0  0
 23 25  1  0  0  0  0
 24 21  1  0  0  0  0
 25 24  2  0  0  0  0
 26 22  1  0  0  0  0
 27 25  1  0  0  0  0
 28 27  1  0  0  0  0
 28 29  1  6  0  0  0
 30 28  1  0  0  0  0
 31 30  1  0  0  0  0
 32 33  1  0  0  0  0
 32 19  1  0  0  0  0
 34 35  1  0  0  0  0
 34 33  1  0  0  0  0
M  END
>  <MODEL>
4

>  <REMARK>
 VINA RESULT:      -8.2      1.649      5.508
  Name = 
  9 active torsions:
  status: ('A' for Active; 'I' for Inactive)
    1  A    between atoms: C_5  and  C_8
    2  A    between atoms: C_8  and  N_19
    3  A    between atoms: C_10  and  C_23
    4  A    between atoms: N_14  and  C_23
    5  A    between atoms: N_14  and  C_28
    6  A    between atoms: C_15  and  N_19
    7  A    between atoms: C_15  and  C_30
    8  A    between atoms: C_17  and  C_35
    9  A    between atoms: C_25  and  C_31
                            x       y       z     vdW  Elec       q    Type
                         _______ _______ _______ _____ _____    ______ ____

>  <TORSDO>
F 9

$$$$
=
 OpenBabel11042411353D

 35 39  0  0  1  0  0  0  0  0999 V2000
  183.8730  178.6050  143.7020 C   0  0  0  0  0  0  0  0  0  0  0  0
  182.9040  178.7610  144.6860 O   0  0  0  0  0  1  0  0  0  0  0  0
  184.8140  178.4060  141.7330 O   0  0  0  0  0  0  0  0  0  0  0  0
  183.6700  178.6330  142.3390 C   0  0  0  0  0  0  0  0  0  0  0  0
  185.7710  178.2530  142.6280 C   0  0  0  0  0  3  0  0  0  0  0  0
  185.2160  178.3730  143.8930 C   0  0  0  0  0  0  0  0  0  0  0  0
  186.5000  178.6330  147.3400 N   0  0  0  0  0  0  0  0  0  0  0  0
  189.3840  177.1120  145.3910 C   0  0  0  0  0  0  0  0  0  0  0  0
  188.4940  177.3500  147.5610 N   0  0  0  0  0  0  0  0  0  0  0  0
  190.5840  176.9770  144.8970 O   0  0  0  0  0  0  0  0  0  0  0  0
  186.9480  177.2320  145.5310 C   0  0  2  0  0  3  0  0  0  0  0  0
  188.2330  177.2670  144.7250 C   0  0  0  0  0  3  0  0  0  0  0  0
  185.9390  178.2680  145.1730 C   0  0  0  0  0  0  0  0  0  0  0  0
  185.6650  179.0010  146.2470 C   0  0  0  0  0  3  0  0  0  0  0  0
  189.4810  177.0820  146.7560 C   0  0  0  0  0  0  0  0  0  0  0  0
  191.4070  176.8500  145.9290 C   0  0  0  0  0  3  0  0  0  0  0  0
  187.2230  177.6370  146.9530 C   0  0  0  0  0  0  0  0  0  0  0  0
  190.7610  176.9160  147.1250 N   0  0  0  0  0  0  0  0  0  0  0  0
  182.3930  178.8180  141.6270 C   0  0  0  0  0  0  0  0  0  0  0  0
  182.2280  178.5400  140.3220 C   0  0  0  0  0  3  0  0  0  0  0  0
  183.7960  176.0050  137.9750 C   0  0  0  0  0  3  0  0  0  0  0  0
  182.8980  176.5960  138.8680 C   0  0  0  0  0  3  0  0  0  0  0  0
  184.3340  178.5350  139.0320 C   0  0  0  0  0  3  0  0  0  0  0  0
  184.9650  176.6780  137.6140 C   0  0  0  0  0  3  0  0  0  0  0  0
  185.2390  177.9490  138.1410 C   0  0  0  0  0  0  0  0  0  0  0  0
  183.1730  177.8570  139.4180 C   0  0  0  0  0  0  0  0  0  0  0  0
  186.4230  178.6650  137.7770 N   0  0  0  0  0  2  0  0  0  0  0  0
  187.7700  178.1690  138.0170 C   0  0  1  0  0  3  0  0  0  0  0  0
  188.7560  179.0040  137.2200 C   0  0  0  0  0  1  0  0  0  0  0  0
  188.0970  178.2580  139.4990 C   0  0  0  0  0  2  0  0  0  0  0  0
  189.3730  177.4990  139.8070 C   0  0  0  0  0  1  0  0  0  0  0  0
  181.2990  179.3540  142.3810 N   0  0  0  0  0  2  0  0  0  0  0  0
  180.1210  179.9800  141.7880 C   0  0  0  0  0  2  0  0  0  0  0  0
  178.9630  179.9830  142.7730 C   0  0  0  0  0  2  0  0  0  0  0  0
  179.2680  179.0740  143.9490 C   0  0  0  0  0  1  0  0  0  0  0  0
  1  6  1  0  0  0  0
  1  2  1  0  0  0  0
  3  4  1  0  0  0  0
  3  5  1  0  0  0  0
  4  1  2  0  0  0  0
  5  6  2  0  0  0  0
  6 13  1  0  0  0  0
  8 15  1  0  0  0  0
 10  8  1  0  0  0  0
 10 16  1  0  0  0  0
 11 12  1  6  0  0  0
 11 17  1  0  0  0  0
 12  8  2  0  0  0  0
 13 11  1  0  0  0  0
 13 14  2  0  0  0  0
 14  7  1  0  0  0  0
 15 18  1  0  0  0  0
 15  9  2  0  0  0  0
 16 18  2  0  0  0  0
 17  7  2  0  0  0  0
 17  9  1  0  0  0  0
 19  4  1  0  0  0  0
 19 32  1  0  0  0  0
 20 19  2  0  0  0  0
 21 22  1  0  0  0  0
 22 26  2  0  0  0  0
 23 26  1  0  0  0  0
 24 21  2  0  0  0  0
 24 25  1  0  0  0  0
 25 23  2  0  0  0  0
 26 20  1  0  0  0  0
 27 28  1  0  0  0  0
 27 25  1  0  0  0  0
 28 29  1  6  0  0  0
 28 30  1  0  0  0  0
 30 31  1  0  0  0  0
 33 32  1  0  0  0  0
 33 34  1  0  0  0  0
 34 35  1  0  0  0  0
M  END
>  <MODEL>
5

>  <REMARK>
 VINA RESULT:      -8.2      2.959      9.035
  Name = 
  9 active torsions:
  status: ('A' for Active; 'I' for Inactive)
    1  A    between atoms: C_5  and  C_8
    2  A    between atoms: C_8  and  N_19
    3  A    between atoms: C_10  and  C_23
    4  A    between atoms: N_14  and  C_23
    5  A    between atoms: N_14  and  C_28
    6  A    between atoms: C_15  and  N_19
    7  A    between atoms: C_15  and  C_30
    8  A    between atoms: C_17  and  C_35
    9  A    between atoms: C_25  and  C_31
                            x       y       z     vdW  Elec       q    Type
                         _______ _______ _______ _____ _____    ______ ____

>  <TORSDO>
F 9

$$$$
=
 OpenBabel11042411353D

 35 39  0  0  1  0  0  0  0  0999 V2000
  189.2480  177.1510  143.6100 C   0  0  0  0  0  0  0  0  0  0  0  0
  188.5780  176.0030  143.2030 O   0  0  0  0  0  1  0  0  0  0  0  0
  189.8530  178.8840  144.8070 O   0  0  0  0  0  0  0  0  0  0  0  0
  189.0790  177.8210  144.8020 C   0  0  0  0  0  0  0  0  0  0  0  0
  190.5450  178.9370  143.6860 C   0  0  0  0  0  3  0  0  0  0  0  0
  190.1920  177.8540  142.8960 C   0  0  0  0  0  0  0  0  0  0  0  0
  192.2310  177.1200  139.9120 N   0  0  0  0  0  0  0  0  0  0  0  0
  188.8560  178.1360  138.4980 C   0  0  0  0  0  0  0  0  0  0  0  0
  190.8300  176.9500  137.9950 N   0  0  0  0  0  0  0  0  0  0  0  0
  187.9770  178.8030  137.8000 O   0  0  0  0  0  0  0  0  0  0  0  0
  189.9500  177.0460  140.3900 C   0  0  2  0  0  3  0  0  0  0  0  0
  188.9310  178.0210  139.8300 C   0  0  0  0  0  3  0  0  0  0  0  0
  190.7300  177.5380  141.5610 C   0  0  0  0  0  0  0  0  0  0  0  0
  192.0260  177.5020  141.2690 C   0  0  0  0  0  3  0  0  0  0  0  0
  189.7370  177.5540  137.6270 C   0  0  0  0  0  0  0  0  0  0  0  0
  188.2940  178.6280  136.5250 C   0  0  0  0  0  3  0  0  0  0  0  0
  191.0730  176.8560  139.4080 C   0  0  0  0  0  0  0  0  0  0  0  0
  189.4010  177.8520  136.3630 N   0  0  0  0  0  0  0  0  0  0  0  0
  188.1520  177.4830  145.8960 C   0  0  0  0  0  0  0  0  0  0  0  0
  186.8280  177.7170  145.8410 C   0  0  0  0  0  3  0  0  0  0  0  0
  185.8320  178.7780  142.3370 C   0  0  0  0  0  3  0  0  0  0  0  0
  186.6240  178.4060  143.4280 C   0  0  0  0  0  3  0  0  0  0  0  0
  184.6480  178.2540  144.8140 C   0  0  0  0  0  3  0  0  0  0  0  0
  184.4490  178.8910  142.4870 C   0  0  0  0  0  3  0  0  0  0  0  0
  183.8490  178.6280  143.7280 C   0  0  0  0  0  0  0  0  0  0  0  0
  186.0370  178.1620  144.6780 C   0  0  0  0  0  0  0  0  0  0  0  0
  182.4320  178.7230  143.9040 N   0  0  0  0  0  2  0  0  0  0  0  0
  181.5450  179.3770  142.9530 C   0  0  1  0  0  3  0  0  0  0  0  0
  181.4320  178.5160  141.7080 C   0  0  0  0  0  1  0  0  0  0  0  0
  180.1710  179.5680  143.5760 C   0  0  0  0  0  2  0  0  0  0  0  0
  179.7620  178.3270  144.3450 C   0  0  0  0  0  1  0  0  0  0  0  0
  188.7210  176.9080  147.0790 N   0  0  0  0  0  2  0  0  0  0  0  0
  190.1020  177.1090  147.5070 C   0  0  0  0  0  2  0  0  0  0  0  0
  190.9840  175.9710  147.0210 C   0  0  0  0  0  2  0  0  0  0  0  0
  192.3260  176.0050  147.7270 C   0  0  0  0  0  1  0  0  0  0  0  0
  1  4  2  0  0  0  0
  2  1  1  0  0  0  0
  4  3  1  0  0  0  0
  4 19  1  0  0  0  0
  5  3  1  0  0  0  0
  6  1  1  0  0  0  0
  6  5  2  0  0  0  0
  7 14  1  0  0  0  0
  8 12  2  0  0  0  0
  9 17  1  0  0  0  0
 10  8  1  0  0  0  0
 11 12  1  6  0  0  0
 11 13  1  0  0  0  0
 13  6  1  0  0  0  0
 14 13  2  0  0  0  0
 15  9  2  0  0  0  0
 15  8  1  0  0  0  0
 16 10  1  0  0  0  0
 17  7  2  0  0  0  0
 17 11  1  0  0  0  0
 18 16  2  0  0  0  0
 18 15  1  0  0  0  0
 19 32  1  0  0  0  0
 20 19  2  0  0  0  0
 21 24  2  0  0  0  0
 21 22  1  0  0  0  0
 22 26  2  0  0  0  0
 24 25  1  0  0  0  0
 25 27  1  0  0  0  0
 25 23  2  0  0  0  0
 26 23  1  0  0  0  0
 26 20  1  0  0  0  0
 28 29  1  6  0  0  0
 28 30  1  0  0  0  0
 28 27  1  0  0  0  0
 30 31  1  0  0  0  0
 32 33  1  0  0  0  0
 34 33  1  0  0  0  0
 34 35  1  0  0  0  0
M  END
>  <MODEL>
6

>  <REMARK>
 VINA RESULT:      -8.2      1.600      2.672
  Name = 
  9 active torsions:
  status: ('A' for Active; 'I' for Inactive)
    1  A    between atoms: C_5  and  C_8
    2  A    between atoms: C_8  and  N_19
    3  A    between atoms: C_10  and  C_23
    4  A    between atoms: N_14  and  C_23
    5  A    between atoms: N_14  and  C_28
    6  A    between atoms: C_15  and  N_19
    7  A    between atoms: C_15  and  C_30
    8  A    between atoms: C_17  and  C_35
    9  A    between atoms: C_25  and  C_31
                            x       y       z     vdW  Elec       q    Type
                         _______ _______ _______ _____ _____    ______ ____

>  <TORSDO>
F 9

$$$$
=
 OpenBabel11042411353D

 35 39  0  0  1  0  0  0  0  0999 V2000
  183.9890  178.7080  141.5780 C   0  0  0  0  0  0  0  0  0  0  0  0
  182.7400  178.4530  142.1310 O   0  0  0  0  0  1  0  0  0  0  0  0
  185.5640  179.0950  140.1030 O   0  0  0  0  0  0  0  0  0  0  0  0
  184.2670  178.9370  140.2470 C   0  0  0  0  0  0  0  0  0  0  0  0
  186.1570  179.0050  141.2780 C   0  0  0  0  0  3  0  0  0  0  0  0
  185.1930  178.7600  142.2430 C   0  0  0  0  0  0  0  0  0  0  0  0
  185.2070  178.8490  145.9300 N   0  0  0  0  0  0  0  0  0  0  0  0
  188.6080  177.4190  145.0260 C   0  0  0  0  0  0  0  0  0  0  0  0
  187.0210  177.5520  146.7650 N   0  0  0  0  0  0  0  0  0  0  0  0
  189.9070  177.3060  144.9700 O   0  0  0  0  0  0  0  0  0  0  0  0
  186.2710  177.5360  144.3230 C   0  0  2  0  0  3  0  0  0  0  0  0
  187.7550  177.6080  144.0120 C   0  0  0  0  0  3  0  0  0  0  0  0
  185.4320  178.5910  143.6870 C   0  0  0  0  0  0  0  0  0  0  0  0
  184.7940  179.2710  144.6340 C   0  0  0  0  0  3  0  0  0  0  0  0
  188.2290  177.3220  146.3380 C   0  0  0  0  0  0  0  0  0  0  0  0
  190.3260  177.1280  146.2160 C   0  0  0  0  0  3  0  0  0  0  0  0
  186.0340  177.8710  145.7700 C   0  0  0  0  0  0  0  0  0  0  0  0
  189.3060  177.1360  147.1170 N   0  0  0  0  0  0  0  0  0  0  0  0
  183.3140  178.9510  139.1230 C   0  0  0  0  0  0  0  0  0  0  0  0
  183.5000  178.2530  137.9890 C   0  0  0  0  0  3  0  0  0  0  0  0
  185.2290  174.9640  137.2200 C   0  0  0  0  0  3  0  0  0  0  0  0
  184.2240  175.8850  137.5320 C   0  0  0  0  0  3  0  0  0  0  0  0
  185.8570  177.6700  137.5350 C   0  0  0  0  0  3  0  0  0  0  0  0
  186.5480  175.3970  137.0700 C   0  0  0  0  0  3  0  0  0  0  0  0
  186.8680  176.7540  137.2260 C   0  0  0  0  0  0  0  0  0  0  0  0
  184.5360  177.2410  137.7110 C   0  0  0  0  0  0  0  0  0  0  0  0
  188.2090  177.2250  137.0640 N   0  0  0  0  0  2  0  0  0  0  0  0
  189.2890  176.9150  137.9910 C   0  0  1  0  0  3  0  0  0  0  0  0
  190.5810  176.7530  137.2120 C   0  0  0  0  0  1  0  0  0  0  0  0
  189.4340  178.0370  139.0070 C   0  0  0  0  0  2  0  0  0  0  0  0
  189.2560  177.5040  140.4150 C   0  0  0  0  0  1  0  0  0  0  0  0
  182.1560  179.7850  139.2600 N   0  0  0  0  0  2  0  0  0  0  0  0
  180.9760  179.6990  138.4060 C   0  0  0  0  0  2  0  0  0  0  0  0
  180.8040  180.9760  137.6000 C   0  0  0  0  0  2  0  0  0  0  0  0
  181.5460  182.1220  138.2620 C   0  0  0  0  0  1  0  0  0  0  0  0
  1  2  1  0  0  0  0
  1  6  1  0  0  0  0
  3  4  1  0  0  0  0
  3  5  1  0  0  0  0
  4  1  2  0  0  0  0
  5  6  2  0  0  0  0
  6 13  1  0  0  0  0
  8 15  1  0  0  0  0
 10  8  1  0  0  0  0
 10 16  1  0  0  0  0
 11 12  1  6  0  0  0
 11 17  1  0  0  0  0
 12  8  2  0  0  0  0
 13 11  1  0  0  0  0
 13 14  2  0  0  0  0
 14  7  1  0  0  0  0
 15  9  2  0  0  0  0
 15 18  1  0  0  0  0
 16 18  2  0  0  0  0
 17  7  2  0  0  0  0
 17  9  1  0  0  0  0
 19 32  1  0  0  0  0
 19  4  1  0  0  0  0
 20 19  2  0  0  0  0
 21 22  1  0  0  0  0
 22 26  2  0  0  0  0
 23 26  1  0  0  0  0
 24 21  2  0  0  0  0
 24 25  1  0  0  0  0
 25 23  2  0  0  0  0
 26 20  1  0  0  0  0
 27 25  1  0  0  0  0
 27 28  1  0  0  0  0
 28 29  1  6  0  0  0
 28 30  1  0  0  0  0
 30 31  1  0  0  0  0
 33 32  1  0  0  0  0
 34 35  1  0  0  0  0
 34 33  1  0  0  0  0
M  END
>  <MODEL>
7

>  <REMARK>
 VINA RESULT:      -8.0      3.148      9.503
  Name = 
  9 active torsions:
  status: ('A' for Active; 'I' for Inactive)
    1  A    between atoms: C_5  and  C_8
    2  A    between atoms: C_8  and  N_19
    3  A    between atoms: C_10  and  C_23
    4  A    between atoms: N_14  and  C_23
    5  A    between atoms: N_14  and  C_28
    6  A    between atoms: C_15  and  N_19
    7  A    between atoms: C_15  and  C_30
    8  A    between atoms: C_17  and  C_35
    9  A    between atoms: C_25  and  C_31
                            x       y       z     vdW  Elec       q    Type
                         _______ _______ _______ _____ _____    ______ ____

>  <TORSDO>
F 9

$$$$
=
 OpenBabel11042411353D

 35 39  0  0  1  0  0  0  0  0999 V2000
  184.1740  178.3550  141.3790 C   0  0  0  0  0  0  0  0  0  0  0  0
  183.0860  177.5560  141.0490 O   0  0  0  0  0  1  0  0  0  0  0  0
  185.4980  179.6970  142.4970 O   0  0  0  0  0  0  0  0  0  0  0  0
  184.3820  179.0060  142.5750 C   0  0  0  0  0  0  0  0  0  0  0  0
  186.0520  179.5160  141.3140 C   0  0  0  0  0  3  0  0  0  0  0  0
  185.2450  178.6680  140.5720 C   0  0  0  0  0  0  0  0  0  0  0  0
  185.1040  177.4550  137.0930 N   0  0  0  0  0  0  0  0  0  0  0  0
  188.6980  176.8230  138.1480 C   0  0  0  0  0  0  0  0  0  0  0  0
  187.3100  177.1120  136.2640 N   0  0  0  0  0  0  0  0  0  0  0  0
  189.8000  176.1670  138.3890 O   0  0  0  0  0  0  0  0  0  0  0  0
  186.7890  178.3160  138.4560 C   0  0  2  0  0  3  0  0  0  0  0  0
  187.9320  177.4920  139.0190 C   0  0  0  0  0  3  0  0  0  0  0  0
  185.4990  178.2100  139.1950 C   0  0  0  0  0  0  0  0  0  0  0  0
  184.5550  177.7790  138.3660 C   0  0  0  0  0  3  0  0  0  0  0  0
  188.4210  176.7110  136.8120 C   0  0  0  0  0  0  0  0  0  0  0  0
  190.2080  175.6720  137.2290 C   0  0  0  0  0  3  0  0  0  0  0  0
  186.3590  177.7560  137.1280 C   0  0  0  0  0  0  0  0  0  0  0  0
  189.3690  175.9820  136.2030 N   0  0  0  0  0  0  0  0  0  0  0  0
  183.5000  179.0130  143.7560 C   0  0  0  0  0  0  0  0  0  0  0  0
  183.9060  178.6410  144.9830 C   0  0  0  0  0  3  0  0  0  0  0  0
  187.0210  178.3070  147.1220 C   0  0  0  0  0  3  0  0  0  0  0  0
  185.7270  178.6510  146.7220 C   0  0  0  0  0  3  0  0  0  0  0  0
  186.1280  177.6540  144.5560 C   0  0  0  0  0  3  0  0  0  0  0  0
  187.8700  177.6400  146.2360 C   0  0  0  0  0  3  0  0  0  0  0  0
  187.4260  177.3080  144.9470 C   0  0  0  0  0  0  0  0  0  0  0  0
  185.2800  178.3440  145.4280 C   0  0  0  0  0  0  0  0  0  0  0  0
  188.2710  176.6130  144.0260 N   0  0  0  0  0  2  0  0  0  0  0  0
  189.6960  176.8770  143.8830 C   0  0  1  0  0  3  0  0  0  0  0  0
  190.3100  175.8160  142.9900 C   0  0  0  0  0  1  0  0  0  0  0  0
  189.9060  178.2530  143.2710 C   0  0  0  0  0  2  0  0  0  0  0  0
  191.0460  178.9730  143.9650 C   0  0  0  0  0  1  0  0  0  0  0  0
  182.1380  179.4070  143.5490 N   0  0  0  0  0  2  0  0  0  0  0  0
  180.9830  178.5860  143.8980 C   0  0  0  0  0  2  0  0  0  0  0  0
  180.0280  178.4760  142.7200 C   0  0  0  0  0  2  0  0  0  0  0  0
  180.2710  179.6060  141.7380 C   0  0  0  0  0  1  0  0  0  0  0  0
  1  4  2  0  0  0  0
  2  1  1  0  0  0  0
  3  4  1  0  0  0  0
  4 19  1  0  0  0  0
  5  3  1  0  0  0  0
  6  5  2  0  0  0  0
  6  1  1  0  0  0  0
  7 17  2  0  0  0  0
  7 14  1  0  0  0  0
  8 10  1  0  0  0  0
  8 12  2  0  0  0  0
  9 15  2  0  0  0  0
  9 17  1  0  0  0  0
 11 12  1  1  0  0  0
 11 13  1  0  0  0  0
 13  6  1  0  0  0  0
 14 13  2  0  0  0  0
 15  8  1  0  0  0  0
 16 10  1  0  0  0  0
 17 11  1  0  0  0  0
 18 15  1  0  0  0  0
 18 16  2  0  0  0  0
 19 20  2  0  0  0  0
 20 26  1  0  0  0  0
 22 21  1  0  0  0  0
 23 25  2  0  0  0  0
 23 26  1  0  0  0  0
 24 21  2  0  0  0  0
 25 24  1  0  0  0  0
 26 22  2  0  0  0  0
 27 25  1  0  0  0  0
 28 29  1  6  0  0  0
 28 27  1  0  0  0  0
 30 28  1  0  0  0  0
 30 31  1  0  0  0  0
 32 19  1  0  0  0  0
 32 33  1  0  0  0  0
 34 33  1  0  0  0  0
 35 34  1  0  0  0  0
M  END
>  <MODEL>
8

>  <REMARK>
 VINA RESULT:      -8.0      2.941      6.734
  Name = 
  9 active torsions:
  status: ('A' for Active; 'I' for Inactive)
    1  A    between atoms: C_5  and  C_8
    2  A    between atoms: C_8  and  N_19
    3  A    between atoms: C_10  and  C_23
    4  A    between atoms: N_14  and  C_23
    5  A    between atoms: N_14  and  C_28
    6  A    between atoms: C_15  and  N_19
    7  A    between atoms: C_15  and  C_30
    8  A    between atoms: C_17  and  C_35
    9  A    between atoms: C_25  and  C_31
                            x       y       z     vdW  Elec       q    Type
                         _______ _______ _______ _____ _____    ______ ____

>  <TORSDO>
F 9

$$$$
=
 OpenBabel11042411353D

 35 39  0  0  1  0  0  0  0  0999 V2000
  183.7040  179.6040  139.4110 C   0  0  0  0  0  0  0  0  0  0  0  0
  184.1810  180.7210  138.7350 O   0  0  0  0  0  1  0  0  0  0  0  0
  183.6550  177.7610  140.5960 O   0  0  0  0  0  0  0  0  0  0  0  0
  184.4490  178.7070  140.1440 C   0  0  0  0  0  0  0  0  0  0  0  0
  182.4150  178.0020  140.2170 C   0  0  0  0  0  3  0  0  0  0  0  0
  182.4000  179.1640  139.4620 C   0  0  0  0  0  0  0  0  0  0  0  0
  179.2300  179.9820  137.7640 N   0  0  0  0  0  0  0  0  0  0  0  0
  181.1910  183.2340  137.6790 C   0  0  0  0  0  0  0  0  0  0  0  0
  179.0120  182.3430  137.5490 N   0  0  0  0  0  0  0  0  0  0  0  0
  181.7880  184.2850  137.1870 O   0  0  0  0  0  0  0  0  0  0  0  0
  180.7930  181.2080  138.9850 C   0  0  2  0  0  3  0  0  0  0  0  0
  181.7360  182.2300  138.3770 C   0  0  0  0  0  3  0  0  0  0  0  0
  181.2150  179.7860  138.8460 C   0  0  0  0  0  0  0  0  0  0  0  0
  180.2680  179.1100  138.2030 C   0  0  0  0  0  3  0  0  0  0  0  0
  179.8630  183.3080  137.3520 C   0  0  0  0  0  0  0  0  0  0  0  0
  180.8530  185.0030  136.5800 C   0  0  0  0  0  3  0  0  0  0  0  0
  179.5110  181.1640  138.2010 C   0  0  0  0  0  0  0  0  0  0  0  0
  179.6220  184.4260  136.6510 N   0  0  0  0  0  0  0  0  0  0  0  0
  185.9060  178.7220  140.3640 C   0  0  0  0  0  0  0  0  0  0  0  0
  186.4680  178.8520  141.5790 C   0  0  0  0  0  3  0  0  0  0  0  0
  183.8820  179.2350  144.3280 C   0  0  0  0  0  3  0  0  0  0  0  0
  184.5030  179.3280  143.0800 C   0  0  0  0  0  3  0  0  0  0  0  0
  186.4460  178.1870  143.9570 C   0  0  0  0  0  3  0  0  0  0  0  0
  184.5470  178.6210  145.3920 C   0  0  0  0  0  3  0  0  0  0  0  0
  185.8330  178.0920  145.2110 C   0  0  0  0  0  0  0  0  0  0  0  0
  185.7980  178.8220  142.8920 C   0  0  0  0  0  0  0  0  0  0  0  0
  186.5290  177.4460  146.2810 N   0  0  0  0  0  2  0  0  0  0  0  0
  187.8220  177.8870  146.7830 C   0  0  1  0  0  3  0  0  0  0  0  0
  187.8880  177.6310  148.2770 C   0  0  0  0  0  1  0  0  0  0  0  0
  188.9350  177.1270  146.0780 C   0  0  0  0  0  2  0  0  0  0  0  0
  189.7910  178.0770  145.2630 C   0  0  0  0  0  1  0  0  0  0  0  0
  186.7410  178.6260  139.2030 N   0  0  0  0  0  2  0  0  0  0  0  0
  187.5750  177.4720  138.8840 C   0  0  0  0  0  2  0  0  0  0  0  0
  189.0480  177.8210  139.0200 C   0  0  0  0  0  2  0  0  0  0  0  0
  189.5290  177.5380  140.4300 C   0  0  0  0  0  1  0  0  0  0  0  0
  1  6  1  0  0  0  0
  1  4  2  0  0  0  0
  2  1  1  0  0  0  0
  4 19  1  0  0  0  0
  4  3  1  0  0  0  0
  5  3  1  0  0  0  0
  6  5  2  0  0  0  0
  7 17  2  0  0  0  0
  7 14  1  0  0  0  0
  8 12  2  0  0  0  0
  9 17  1  0  0  0  0
 10  8  1  0  0  0  0
 11 12  1  6  0  0  0
 13 11  1  0  0  0  0
 13  6  1  0  0  0  0
 14 13  2  0  0  0  0
 15  9  2  0  0  0  0
 15  8  1  0  0  0  0
 16 18  2  0  0  0  0
 16 10  1  0  0  0  0
 17 11  1  0  0  0  0
 18 15  1  0  0  0  0
 19 20  2  0  0  0  0
 20 26  1  0  0  0  0
 21 24  1  0  0  0  0
 22 21  2  0  0  0  0
 23 25  1  0  0  0  0
 25 24  2  0  0  0  0
 25 27  1  0  0  0  0
 26 22  1  0  0  0  0
 26 23  2  0  0  0  0
 27 28  1  0  0  0  0
 28 29  1  1  0  0  0
 30 28  1  0  0  0  0
 31 30  1  0  0  0  0
 32 19  1  0  0  0  0
 33 34  1  0  0  0  0
 33 32  1  0  0  0  0
 34 35  1  0  0  0  0
M  END
>  <MODEL>
9

>  <REMARK>
 VINA RESULT:      -7.7      5.059      8.806
  Name = 
  9 active torsions:
  status: ('A' for Active; 'I' for Inactive)
    1  A    between atoms: C_5  and  C_8
    2  A    between atoms: C_8  and  N_19
    3  A    between atoms: C_10  and  C_23
    4  A    between atoms: N_14  and  C_23
    5  A    between atoms: N_14  and  C_28
    6  A    between atoms: C_15  and  N_19
    7  A    between atoms: C_15  and  C_30
    8  A    between atoms: C_17  and  C_35
    9  A    between atoms: C_25  and  C_31
                            x       y       z     vdW  Elec       q    Type
                         _______ _______ _______ _____ _____    ______ ____

>  <TORSDO>
F 9

$$$$
