=
 OpenBabel11042412273D

 26 29  0  0  1  0  0  0  0  0999 V2000
  191.6530  176.4170  146.0860 C   0  0  0  0  0  3  0  0  0  0  0  0
  184.8770  178.7090  145.9400 N   0  0  0  0  0  0  0  0  0  0  0  0
  190.8170  176.4870  144.9580 C   0  0  0  0  0  0  0  0  0  0  0  0
  188.5720  177.0930  144.1760 N   0  0  0  0  0  0  0  0  0  0  0  0
  186.3070  177.8580  144.1390 C   0  0  0  0  0  2  0  0  0  0  0  0
  185.6280  178.6820  147.0710 C   0  0  0  0  0  3  0  0  0  0  0  0
  189.8760  177.3180  147.5030 C   0  0  0  0  0  3  0  0  0  0  0  0
  189.0660  177.3690  146.3700 C   0  0  0  0  0  0  0  0  0  0  0  0
  185.1050  178.3690  144.6410 C   0  0  0  0  0  0  0  0  0  0  0  0
  189.5150  176.9660  145.1330 C   0  0  1  0  0  3  0  0  0  0  0  0
  187.4840  177.5930  144.8080 C   0  0  0  0  0  0  0  0  0  0  0  0
  186.9420  178.2650  147.2200 C   0  0  0  0  0  3  0  0  0  0  0  0
  191.1860  176.8330  147.3500 C   0  0  0  0  0  3  0  0  0  0  0  0
  187.7630  177.7850  146.2230 C   0  0  0  0  0  0  0  0  0  0  0  0
  184.0360  178.5540  143.7560 O   0  0  0  0  0  0  0  0  0  0  0  0
  182.7270  178.9220  144.1730 C   0  0  0  0  0  1  0  0  0  0  0  0
  191.3070  176.0230  143.6290 C   0  0  0  0  0  2  0  0  0  0  0  0
  191.7950  177.1480  142.8690 N   0  0  0  0  0  0  0  0  0  0  0  0
  191.2820  177.5060  141.7440 C   0  0  0  0  0  3  0  0  0  0  0  0
  190.6280  176.8880  138.3270 C   0  0  0  0  0  0  0  0  0  0  0  0
  190.1140  177.5170  137.3670 O   0  0  0  0  0  0  0  0  0  0  0  0
  189.2090  177.7040  140.6360 C   0  0  0  0  0  2  0  0  0  0  0  0
  190.1260  176.7910  141.1120 C   0  0  1  0  0  3  0  0  0  0  0  0
  190.1250  177.0680  139.6470 N   0  0  0  0  0  0  0  0  0  0  0  0
  191.7430  175.9330  138.0800 C   0  0  0  0  0  2  0  0  0  0  0  0
  193.0650  176.5820  138.4350 C   0  0  0  0  0  1  0  0  0  0  0  0
  1 13  1  0  0  0  0
  2  6  1  0  0  0  0
  3 10  1  0  0  0  0
  3  1  2  0  0  0  0
  4 11  2  0  0  0  0
  5  9  1  0  0  0  0
  5 11  1  0  0  0  0
  6 12  2  0  0  0  0
  8  7  1  0  0  0  0
  9  2  2  0  0  0  0
 10  4  1  1  0  0  0
 10  8  1  0  0  0  0
 11 14  1  0  0  0  0
 13  7  2  0  0  0  0
 14  8  2  0  0  0  0
 14 12  1  0  0  0  0
 15 16  1  0  0  0  0
 15  9  1  0  0  0  0
 17  3  1  0  0  0  0
 18 17  1  0  0  0  0
 19 18  2  0  0  0  0
 20 24  1  0  0  0  0
 21 20  2  0  0  0  0
 22 23  1  0  0  0  0
 23 19  1  1  0  0  0
 24 22  1  0  0  0  0
 24 23  1  0  0  0  0
 25 20  1  0  0  0  0
 25 26  1  0  0  0  0
M  END
>  <MODEL>
1

>  <REMARK>
 VINA RESULT:      -9.4      0.000      0.000
  Name = 
  5 active torsions:
  status: ('A' for Active; 'I' for Inactive)
    1  A    between atoms: C_2  and  C_6
    2  A    between atoms: C_4  and  C_23
    3  A    between atoms: N_11  and  C_23
    4  A    between atoms: C_12  and  C_20
    5  A    between atoms: C_16  and  O_19
                            x       y       z     vdW  Elec       q    Type
                         _______ _______ _______ _____ _____    ______ ____

>  <TORSDO>
F 5

$$$$
=
 OpenBabel11042412273D

 26 29  0  0  1  0  0  0  0  0999 V2000
  184.3400  178.6870  143.4140 C   0  0  0  0  0  3  0  0  0  0  0  0
  189.2600  177.5700  148.4870 N   0  0  0  0  0  0  0  0  0  0  0  0
  185.6410  178.1920  143.2230 C   0  0  0  0  0  0  0  0  0  0  0  0
  187.7330  177.5960  144.3590 N   0  0  0  0  0  0  0  0  0  0  0  0
  189.3710  177.2290  146.0610 C   0  0  0  0  0  3  0  0  0  0  0  0
  188.0150  178.0420  148.7520 C   0  0  0  0  0  3  0  0  0  0  0  0
  184.7160  178.8470  145.8250 C   0  0  0  0  0  3  0  0  0  0  0  0
  186.0040  178.3600  145.6060 C   0  0  0  0  0  0  0  0  0  0  0  0
  189.9130  177.1990  147.3510 C   0  0  0  0  0  0  0  0  0  0  0  0
  186.4600  178.0430  144.3470 C   0  0  0  0  0  0  0  0  0  0  0  0
  188.1120  177.6230  145.6580 C   0  0  0  0  0  0  0  0  0  0  0  0
  186.9840  178.2950  147.8580 C   0  0  0  0  0  3  0  0  0  0  0  0
  183.8790  179.0100  144.7070 C   0  0  0  0  0  3  0  0  0  0  0  0
  187.0240  178.1090  146.4930 C   0  0  0  0  0  0  0  0  0  0  0  0
  191.2310  176.7540  147.5120 O   0  0  0  0  0  0  0  0  0  0  0  0
  191.9720  176.1110  146.4820 C   0  0  0  0  0  1  0  0  0  0  0  0
  186.1330  177.8760  141.8520 C   0  0  0  0  0  2  0  0  0  0  0  0
  186.9940  178.9360  141.3860 N   0  0  0  0  0  0  0  0  0  0  0  0
  188.1350  178.7170  140.8320 C   0  0  0  0  0  3  0  0  0  0  0  0
  191.3450  177.4400  141.5740 C   0  0  0  0  0  0  0  0  0  0  0  0
  192.4750  177.4300  141.0210 O   0  0  0  0  0  0  0  0  0  0  0  0
  189.4530  177.3100  139.4720 C   0  0  0  0  0  2  0  0  0  0  0  0
  188.6820  177.3380  140.6160 C   0  0  1  0  0  3  0  0  0  0  0  0
  190.1640  177.3720  140.7810 N   0  0  0  0  0  0  0  0  0  0  0  0
  191.2430  177.4920  143.0580 C   0  0  0  0  0  2  0  0  0  0  0  0
  191.2600  178.9330  143.5250 C   0  0  0  0  0  1  0  0  0  0  0  0
  1 13  1  0  0  0  0
  2  6  1  0  0  0  0
  3  1  2  0  0  0  0
  3 10  1  0  0  0  0
  4 11  1  0  0  0  0
  5  9  1  0  0  0  0
  8  7  1  0  0  0  0
  8 14  2  0  0  0  0
  9 15  1  0  0  0  0
  9  2  2  0  0  0  0
 10  4  2  0  0  0  0
 10  8  1  0  0  0  0
 11  5  2  0  0  0  0
 11 14  1  0  0  0  0
 12  6  2  0  0  0  0
 13  7  2  0  0  0  0
 14 12  1  0  0  0  0
 16 15  1  0  0  0  0
 17  3  1  0  0  0  0
 18 17  1  0  0  0  0
 19 18  2  0  0  0  0
 20 25  1  0  0  0  0
 21 20  2  0  0  0  0
 22 23  1  0  0  0  0
 22 24  1  0  0  0  0
 23 24  1  0  0  0  0
 23 19  1  6  0  0  0
 24 20  1  0  0  0  0
 25 26  1  0  0  0  0
M  END
>  <MODEL>
2

>  <REMARK>
 VINA RESULT:      -9.3      2.441      4.968
  Name = 
  5 active torsions:
  status: ('A' for Active; 'I' for Inactive)
    1  A    between atoms: C_2  and  C_6
    2  A    between atoms: C_4  and  C_23
    3  A    between atoms: N_11  and  C_23
    4  A    between atoms: C_12  and  C_20
    5  A    between atoms: C_16  and  O_19
                            x       y       z     vdW  Elec       q    Type
                         _______ _______ _______ _____ _____    ______ ____

>  <TORSDO>
F 5

$$$$
=
 OpenBabel11042412273D

 26 29  0  0  1  0  0  0  0  0999 V2000
  191.4520  176.2910  145.1470 C   0  0  0  0  0  3  0  0  0  0  0  0
  184.9640  178.9090  146.6400 N   0  0  0  0  0  0  0  0  0  0  0  0
  190.3840  176.4450  144.2460 C   0  0  0  0  0  0  0  0  0  0  0  0
  188.0560  177.1900  144.0230 N   0  0  0  0  0  0  0  0  0  0  0  0
  185.8900  178.0630  144.5340 C   0  0  0  0  0  3  0  0  0  0  0  0
  185.9520  178.8010  147.5660 C   0  0  0  0  0  3  0  0  0  0  0  0
  190.1020  177.2180  146.9620 C   0  0  0  0  0  3  0  0  0  0  0  0
  189.0570  177.3540  146.0490 C   0  0  0  0  0  0  0  0  0  0  0  0
  184.8670  178.6110  145.3150 C   0  0  0  0  0  0  0  0  0  0  0  0
  189.1860  176.9790  144.7310 C   0  0  0  0  0  0  0  0  0  0  0  0
  187.1730  177.7150  144.9040 C   0  0  0  0  0  0  0  0  0  0  0  0
  187.2390  178.3150  147.3940 C   0  0  0  0  0  3  0  0  0  0  0  0
  191.3120  176.6770  146.4960 C   0  0  0  0  0  3  0  0  0  0  0  0
  187.7810  177.8370  146.2200 C   0  0  0  0  0  0  0  0  0  0  0  0
  183.6350  178.8820  144.7070 O   0  0  0  0  0  0  0  0  0  0  0  0
  183.4290  178.8400  143.3010 C   0  0  0  0  0  1  0  0  0  0  0  0
  190.5280  176.0120  142.8270 C   0  0  0  0  0  2  0  0  0  0  0  0
  191.1990  177.0400  142.0680 N   0  0  0  0  0  0  0  0  0  0  0  0
  190.6450  177.6540  141.0810 C   0  0  0  0  0  3  0  0  0  0  0  0
  189.1080  178.3840  137.9860 C   0  0  0  0  0  0  0  0  0  0  0  0
  188.5360  179.3740  137.4600 O   0  0  0  0  0  0  0  0  0  0  0  0
  188.4680  178.4940  140.7410 C   0  0  0  0  0  2  0  0  0  0  0  0
  189.2480  177.3630  140.6230 C   0  0  1  0  0  3  0  0  0  0  0  0
  188.9720  178.1430  139.3820 N   0  0  0  0  0  0  0  0  0  0  0  0
  189.9010  177.4480  137.1430 C   0  0  0  0  0  2  0  0  0  0  0  0
  189.2270  176.0920  137.1050 C   0  0  0  0  0  1  0  0  0  0  0  0
  1 13  1  0  0  0  0
  2  6  1  0  0  0  0
  3 10  1  0  0  0  0
  3  1  2  0  0  0  0
  4 10  2  0  0  0  0
  4 11  1  0  0  0  0
  5 11  2  0  0  0  0
  5  9  1  0  0  0  0
  8 14  2  0  0  0  0
  8  7  1  0  0  0  0
  9  2  2  0  0  0  0
 10  8  1  0  0  0  0
 11 14  1  0  0  0  0
 12  6  2  0  0  0  0
 13  7  2  0  0  0  0
 14 12  1  0  0  0  0
 15  9  1  0  0  0  0
 16 15  1  0  0  0  0
 17  3  1  0  0  0  0
 18 17  1  0  0  0  0
 19 18  2  0  0  0  0
 20 24  1  0  0  0  0
 21 20  2  0  0  0  0
 23 22  1  0  0  0  0
 23 19  1  1  0  0  0
 24 23  1  0  0  0  0
 24 22  1  0  0  0  0
 25 20  1  0  0  0  0
 26 25  1  0  0  0  0
M  END
>  <MODEL>
3

>  <REMARK>
 VINA RESULT:      -9.2      1.258      1.388
  Name = 
  5 active torsions:
  status: ('A' for Active; 'I' for Inactive)
    1  A    between atoms: C_2  and  C_6
    2  A    between atoms: C_4  and  C_23
    3  A    between atoms: N_11  and  C_23
    4  A    between atoms: C_12  and  C_20
    5  A    between atoms: C_16  and  O_19
                            x       y       z     vdW  Elec       q    Type
                         _______ _______ _______ _____ _____    ______ ____

>  <TORSDO>
F 5

$$$$
=
 OpenBabel11042412273D

 26 29  0  0  1  0  0  0  0  0999 V2000
  184.0050  178.7890  143.7230 C   0  0  0  0  0  3  0  0  0  0  0  0
  189.7360  177.2810  147.7310 N   0  0  0  0  0  0  0  0  0  0  0  0
  185.2680  178.3850  143.2580 C   0  0  0  0  0  0  0  0  0  0  0  0
  187.5370  177.7520  143.9480 N   0  0  0  0  0  0  0  0  0  0  0  0
  189.4470  177.2540  145.2960 C   0  0  0  0  0  3  0  0  0  0  0  0
  188.5410  177.6560  148.2560 C   0  0  0  0  0  3  0  0  0  0  0  0
  184.7760  178.6620  146.0390 C   0  0  0  0  0  3  0  0  0  0  0  0
  186.0220  178.2690  145.5510 C   0  0  0  0  0  0  0  0  0  0  0  0
  190.1980  177.0880  146.4660 C   0  0  0  0  0  0  0  0  0  0  0  0
  186.2680  178.1350  144.2030 C   0  0  0  0  0  0  0  0  0  0  0  0
  188.1270  177.6340  145.1600 C   0  0  0  0  0  0  0  0  0  0  0  0
  187.3680  177.9680  147.5840 C   0  0  0  0  0  3  0  0  0  0  0  0
  183.7600  178.9240  145.1050 C   0  0  0  0  0  3  0  0  0  0  0  0
  187.1830  177.9590  146.2180 C   0  0  0  0  0  0  0  0  0  0  0  0
  191.5360  176.6910  146.3480 O   0  0  0  0  0  0  0  0  0  0  0  0
  192.1680  175.7910  147.2500 C   0  0  0  0  0  1  0  0  0  0  0  0
  185.5300  178.2680  141.7950 C   0  0  0  0  0  2  0  0  0  0  0  0
  184.9220  179.3770  141.1010 N   0  0  0  0  0  0  0  0  0  0  0  0
  184.3870  179.2630  139.9350 C   0  0  0  0  0  3  0  0  0  0  0  0
  186.6480  177.9860  137.5390 C   0  0  0  0  0  0  0  0  0  0  0  0
  186.8390  178.1160  136.3020 O   0  0  0  0  0  0  0  0  0  0  0  0
  183.8480  178.1730  137.9130 C   0  0  0  0  0  2  0  0  0  0  0  0
  184.3430  177.9660  139.1840 C   0  0  1  0  0  3  0  0  0  0  0  0
  185.3240  178.0220  138.0620 N   0  0  0  0  0  0  0  0  0  0  0  0
  187.8030  177.7640  138.4510 C   0  0  0  0  0  2  0  0  0  0  0  0
  188.9530  178.6670  138.0550 C   0  0  0  0  0  1  0  0  0  0  0  0
  1 13  1  0  0  0  0
  2  6  1  0  0  0  0
  3  1  2  0  0  0  0
  3 10  1  0  0  0  0
  4 10  2  0  0  0  0
  4 11  1  0  0  0  0
  5  9  1  0  0  0  0
  8  7  1  0  0  0  0
  8 14  2  0  0  0  0
  9  2  2  0  0  0  0
 10  8  1  0  0  0  0
 11  5  2  0  0  0  0
 11 14  1  0  0  0  0
 12  6  2  0  0  0  0
 13  7  2  0  0  0  0
 14 12  1  0  0  0  0
 15  9  1  0  0  0  0
 15 16  1  0  0  0  0
 17  3  1  0  0  0  0
 18 17  1  0  0  0  0
 19 18  2  0  0  0  0
 20 24  1  0  0  0  0
 20 25  1  0  0  0  0
 21 20  2  0  0  0  0
 22 24  1  0  0  0  0
 22 23  1  0  0  0  0
 23 19  1  1  0  0  0
 24 23  1  0  0  0  0
 26 25  1  0  0  0  0
M  END
>  <MODEL>
4

>  <REMARK>
 VINA RESULT:      -9.2      3.278      5.574
  Name = 
  5 active torsions:
  status: ('A' for Active; 'I' for Inactive)
    1  A    between atoms: C_2  and  C_6
    2  A    between atoms: C_4  and  C_23
    3  A    between atoms: N_11  and  C_23
    4  A    between atoms: C_12  and  C_20
    5  A    between atoms: C_16  and  O_19
                            x       y       z     vdW  Elec       q    Type
                         _______ _______ _______ _____ _____    ______ ____

>  <TORSDO>
F 5

$$$$
=
 OpenBabel11042412273D

 26 29  0  0  1  0  0  0  0  0999 V2000
  189.5560  177.4910  147.6320 C   0  0  0  0  0  3  0  0  0  0  0  0
  183.6440  178.7160  143.7940 N   0  0  0  0  0  0  0  0  0  0  0  0
  189.4050  177.3070  146.2470 C   0  0  0  0  0  0  0  0  0  0  0  0
  187.8280  177.4790  144.3750 N   0  0  0  0  0  0  0  0  0  0  0  0
  185.8460  177.8880  143.1020 C   0  0  0  0  0  2  0  0  0  0  0  0
  183.7170  178.9300  145.1330 C   0  0  0  0  0  3  0  0  0  0  0  0
  187.2470  178.2720  147.8170 C   0  0  0  0  0  3  0  0  0  0  0  0
  187.1210  178.0730  146.4430 C   0  0  0  0  0  0  0  0  0  0  0  0
  184.5220  178.2680  142.8540 C   0  0  0  0  0  0  0  0  0  0  0  0
  188.1630  177.6030  145.6760 C   0  0  2  0  0  3  0  0  0  0  0  0
  186.5370  177.8790  144.2960 C   0  0  0  0  0  0  0  0  0  0  0  0
  184.8010  178.7330  145.9750 C   0  0  0  0  0  3  0  0  0  0  0  0
  188.4850  177.9730  148.4110 C   0  0  0  0  0  3  0  0  0  0  0  0
  186.0460  178.2700  145.6080 C   0  0  0  0  0  0  0  0  0  0  0  0
  184.0390  178.1890  141.5420 O   0  0  0  0  0  0  0  0  0  0  0  0
  184.4630  179.0570  140.4980 C   0  0  0  0  0  1  0  0  0  0  0  0
  190.5320  176.7730  145.4310 C   0  0  0  0  0  2  0  0  0  0  0  0
  191.0990  177.8310  144.6300 N   0  0  0  0  0  0  0  0  0  0  0  0
  191.2530  177.7370  143.3550 C   0  0  0  0  0  3  0  0  0  0  0  0
  191.2890  177.2040  139.8630 C   0  0  0  0  0  0  0  0  0  0  0  0
  190.5290  177.4550  138.8920 O   0  0  0  0  0  0  0  0  0  0  0  0
  189.5870  176.6780  142.0630 C   0  0  0  0  0  2  0  0  0  0  0  0
  190.8580  176.5190  142.5760 C   0  0  1  0  0  3  0  0  0  0  0  0
  190.7360  176.8830  141.1350 N   0  0  0  0  0  0  0  0  0  0  0  0
  192.7650  177.2150  139.6740 C   0  0  0  0  0  2  0  0  0  0  0  0
  193.1210  176.5470  138.3620 C   0  0  0  0  0  1  0  0  0  0  0  0
  1 13  1  0  0  0  0
  2  6  1  0  0  0  0
  3  1  2  0  0  0  0
  5 11  1  0  0  0  0
  6 12  2  0  0  0  0
  7 13  2  0  0  0  0
  8  7  1  0  0  0  0
  9  5  1  0  0  0  0
  9  2  2  0  0  0  0
 10  4  1  6  0  0  0
 10  3  1  0  0  0  0
 10  8  1  0  0  0  0
 11  4  2  0  0  0  0
 11 14  1  0  0  0  0
 14 12  1  0  0  0  0
 14  8  2  0  0  0  0
 15  9  1  0  0  0  0
 16 15  1  0  0  0  0
 17  3  1  0  0  0  0
 18 17  1  0  0  0  0
 19 18  2  0  0  0  0
 20 24  1  0  0  0  0
 21 20  2  0  0  0  0
 22 23  1  0  0  0  0
 23 19  1  1  0  0  0
 24 22  1  0  0  0  0
 24 23  1  0  0  0  0
 25 20  1  0  0  0  0
 26 25  1  0  0  0  0
M  END
>  <MODEL>
5

>  <REMARK>
 VINA RESULT:      -8.9      1.567      2.139
  Name = 
  5 active torsions:
  status: ('A' for Active; 'I' for Inactive)
    1  A    between atoms: C_2  and  C_6
    2  A    between atoms: C_4  and  C_23
    3  A    between atoms: N_11  and  C_23
    4  A    between atoms: C_12  and  C_20
    5  A    between atoms: C_16  and  O_19
                            x       y       z     vdW  Elec       q    Type
                         _______ _______ _______ _____ _____    ______ ____

>  <TORSDO>
F 5

$$$$
=
 OpenBabel11042412273D

 26 29  0  0  1  0  0  0  0  0999 V2000
  186.5010  178.0460  145.4950 C   0  0  0  0  0  3  0  0  0  0  0  0
  180.7930  179.2620  141.3580 N   0  0  0  0  0  0  0  0  0  0  0  0
  186.4170  177.8470  144.1060 C   0  0  0  0  0  0  0  0  0  0  0  0
  184.9350  178.0080  142.1570 N   0  0  0  0  0  0  0  0  0  0  0  0
  183.0210  178.4150  140.7840 C   0  0  0  0  0  2  0  0  0  0  0  0
  180.8010  179.4900  142.6960 C   0  0  0  0  0  3  0  0  0  0  0  0
  184.1900  178.8410  145.5590 C   0  0  0  0  0  3  0  0  0  0  0  0
  184.1310  178.6280  144.1820 C   0  0  0  0  0  0  0  0  0  0  0  0
  181.7130  178.7990  140.4670 C   0  0  0  0  0  0  0  0  0  0  0  0
  185.2070  178.1440  143.4720 C   0  0  1  0  0  3  0  0  0  0  0  0
  183.6530  178.4150  142.0100 C   0  0  0  0  0  0  0  0  0  0  0  0
  181.8410  179.2950  143.5930 C   0  0  0  0  0  3  0  0  0  0  0  0
  185.3950  178.5420  146.2160 C   0  0  0  0  0  3  0  0  0  0  0  0
  183.1000  178.8220  143.2930 C   0  0  0  0  0  0  0  0  0  0  0  0
  181.2950  178.7100  139.1340 O   0  0  0  0  0  0  0  0  0  0  0  0
  182.1940  178.6300  138.0340 C   0  0  0  0  0  1  0  0  0  0  0  0
  187.5800  177.2990  143.3530 C   0  0  0  0  0  2  0  0  0  0  0  0
  188.6390  178.2770  143.3100 N   0  0  0  0  0  0  0  0  0  0  0  0
  189.8630  177.9940  143.5910 C   0  0  0  0  0  3  0  0  0  0  0  0
  190.7100  176.7560  146.7900 C   0  0  0  0  0  0  0  0  0  0  0  0
  191.7270  176.7530  147.5300 O   0  0  0  0  0  0  0  0  0  0  0  0
  191.6810  176.5920  144.1360 C   0  0  0  0  0  2  0  0  0  0  0  0
  190.3090  176.6190  143.9900 C   0  0  1  0  0  3  0  0  0  0  0  0
  190.8570  176.6700  145.3760 N   0  0  0  0  0  0  0  0  0  0  0  0
  189.3500  176.8170  147.3940 C   0  0  0  0  0  2  0  0  0  0  0  0
  189.1560  178.1490  148.0890 C   0  0  0  0  0  1  0  0  0  0  0  0
  1 13  1  0  0  0  0
  2  6  1  0  0  0  0
  3  1  2  0  0  0  0
  5 11  1  0  0  0  0
  6 12  2  0  0  0  0
  7 13  2  0  0  0  0
  8  7  1  0  0  0  0
  9  5  1  0  0  0  0
  9  2  2  0  0  0  0
 10  4  1  1  0  0  0
 10  3  1  0  0  0  0
 10  8  1  0  0  0  0
 11  4  2  0  0  0  0
 11 14  1  0  0  0  0
 14 12  1  0  0  0  0
 14  8  2  0  0  0  0
 15  9  1  0  0  0  0
 16 15  1  0  0  0  0
 17  3  1  0  0  0  0
 18 17  1  0  0  0  0
 18 19  2  0  0  0  0
 20 25  1  0  0  0  0
 20 21  2  0  0  0  0
 22 24  1  0  0  0  0
 23 19  1  6  0  0  0
 23 22  1  0  0  0  0
 23 24  1  0  0  0  0
 24 20  1  0  0  0  0
 25 26  1  0  0  0  0
M  END
>  <MODEL>
6

>  <REMARK>
 VINA RESULT:      -8.8      3.365      6.108
  Name = 
  5 active torsions:
  status: ('A' for Active; 'I' for Inactive)
    1  A    between atoms: C_2  and  C_6
    2  A    between atoms: C_4  and  C_23
    3  A    between atoms: N_11  and  C_23
    4  A    between atoms: C_12  and  C_20
    5  A    between atoms: C_16  and  O_19
                            x       y       z     vdW  Elec       q    Type
                         _______ _______ _______ _____ _____    ______ ____

>  <TORSDO>
F 5

$$$$
=
 OpenBabel11042412273D

 26 29  0  0  1  0  0  0  0  0999 V2000
  187.1070  178.2330  147.9210 C   0  0  0  0  0  3  0  0  0  0  0  0
  191.1870  176.8060  142.2200 N   0  0  0  0  0  0  0  0  0  0  0  0
  186.6710  178.1080  146.5900 C   0  0  0  0  0  0  0  0  0  0  0  0
  187.4010  177.6810  144.2870 N   0  0  0  0  0  0  0  0  0  0  0  0
  188.7740  177.2070  142.3880 C   0  0  0  0  0  2  0  0  0  0  0  0
  191.6810  176.9000  143.4820 C   0  0  0  0  0  3  0  0  0  0  0  0
  189.4110  177.7730  147.2480 C   0  0  0  0  0  3  0  0  0  0  0  0
  188.9540  177.6610  145.9350 C   0  0  0  0  0  0  0  0  0  0  0  0
  189.9450  176.9260  141.6750 C   0  0  0  0  0  0  0  0  0  0  0  0
  187.6270  177.8250  145.6090 C   0  0  2  0  0  3  0  0  0  0  0  0
  188.6110  177.4160  143.7420 C   0  0  0  0  0  0  0  0  0  0  0  0
  190.9920  177.1680  144.6550 C   0  0  0  0  0  3  0  0  0  0  0  0
  188.4680  178.0640  148.2470 C   0  0  0  0  0  3  0  0  0  0  0  0
  189.6380  177.3950  144.7730 C   0  0  0  0  0  0  0  0  0  0  0  0
  189.8570  176.7520  140.2880 O   0  0  0  0  0  0  0  0  0  0  0  0
  189.2310  177.6870  139.4190 C   0  0  0  0  0  1  0  0  0  0  0  0
  185.2360  178.3130  146.2460 C   0  0  0  0  0  2  0  0  0  0  0  0
  185.0700  179.5830  145.5800 N   0  0  0  0  0  0  0  0  0  0  0  0
  184.3620  179.7250  144.5140 C   0  0  0  0  0  3  0  0  0  0  0  0
  183.9750  179.0000  141.0780 C   0  0  0  0  0  0  0  0  0  0  0  0
  183.2090  179.3610  140.1480 O   0  0  0  0  0  0  0  0  0  0  0  0
  182.3970  179.0030  143.4280 C   0  0  0  0  0  2  0  0  0  0  0  0
  183.6390  178.5870  143.8590 C   0  0  1  0  0  3  0  0  0  0  0  0
  183.4770  178.8860  142.4070 N   0  0  0  0  0  0  0  0  0  0  0  0
  185.3950  178.6620  140.7830 C   0  0  0  0  0  2  0  0  0  0  0  0
  185.6150  178.6280  139.2850 C   0  0  0  0  0  1  0  0  0  0  0  0
  1 13  1  0  0  0  0
  2  6  1  0  0  0  0
  3  1  2  0  0  0  0
  5 11  1  0  0  0  0
  6 12  2  0  0  0  0
  7 13  2  0  0  0  0
  8  7  1  0  0  0  0
  9  2  2  0  0  0  0
  9  5  1  0  0  0  0
 10  4  1  1  0  0  0
 10  8  1  0  0  0  0
 10  3  1  0  0  0  0
 11  4  2  0  0  0  0
 11 14  1  0  0  0  0
 12 14  1  0  0  0  0
 14  8  2  0  0  0  0
 15  9  1  0  0  0  0
 16 15  1  0  0  0  0
 17  3  1  0  0  0  0
 18 17  1  0  0  0  0
 19 18  2  0  0  0  0
 20 24  1  0  0  0  0
 21 20  2  0  0  0  0
 22 23  1  0  0  0  0
 23 19  1  1  0  0  0
 24 22  1  0  0  0  0
 24 23  1  0  0  0  0
 25 20  1  0  0  0  0
 26 25  1  0  0  0  0
M  END
>  <MODEL>
7

>  <REMARK>
 VINA RESULT:      -8.6      1.971      5.983
  Name = 
  5 active torsions:
  status: ('A' for Active; 'I' for Inactive)
    1  A    between atoms: C_2  and  C_6
    2  A    between atoms: C_4  and  C_23
    3  A    between atoms: N_11  and  C_23
    4  A    between atoms: C_12  and  C_20
    5  A    between atoms: C_16  and  O_19
                            x       y       z     vdW  Elec       q    Type
                         _______ _______ _______ _____ _____    ______ ____

>  <TORSDO>
F 5

$$$$
=
 OpenBabel11042412273D

 26 29  0  0  1  0  0  0  0  0999 V2000
  183.4340  179.0120  144.7970 C   0  0  0  0  0  3  0  0  0  0  0  0
  187.1380  178.2980  138.7190 N   0  0  0  0  0  0  0  0  0  0  0  0
  184.8290  178.8880  144.6770 C   0  0  2  0  0  3  0  0  0  0  0  0
  186.6750  178.6160  143.0840 N   0  0  0  0  0  0  0  0  0  0  0  0
  187.9030  178.3740  141.0470 C   0  0  0  0  0  2  0  0  0  0  0  0
  185.7860  178.4250  138.7540 C   0  0  0  0  0  3  0  0  0  0  0  0
  183.1770  178.8900  142.3690 C   0  0  0  0  0  3  0  0  0  0  0  0
  184.5630  178.7610  142.2790 C   0  0  0  0  0  0  0  0  0  0  0  0
  188.1140  178.2670  139.6670 C   0  0  0  0  0  0  0  0  0  0  0  0
  185.3690  178.7570  143.3940 C   0  0  0  0  0  0  0  0  0  0  0  0
  186.7160  178.5280  141.7340 C   0  0  0  0  0  0  0  0  0  0  0  0
  184.9670  178.5710  139.8630 C   0  0  0  0  0  3  0  0  0  0  0  0
  182.6140  179.0160  143.6500 C   0  0  0  0  0  3  0  0  0  0  0  0
  185.3750  178.6170  141.1780 C   0  0  0  0  0  0  0  0  0  0  0  0
  189.4260  178.1160  139.2030 O   0  0  0  0  0  0  0  0  0  0  0  0
  190.3670  177.2250  139.7880 C   0  0  0  0  0  1  0  0  0  0  0  0
  185.6890  178.8590  145.8940 C   0  0  0  0  0  2  0  0  0  0  0  0
  186.1020  177.5030  146.1670 N   0  0  0  0  0  0  0  0  0  0  0  0
  187.2660  177.2070  146.6310 C   0  0  0  0  0  3  0  0  0  0  0  0
  190.7150  177.1980  145.8700 C   0  0  0  0  0  0  0  0  0  0  0  0
  191.7630  176.7210  146.3780 O   0  0  0  0  0  0  0  0  0  0  0  0
  189.0340  177.8680  148.0460 C   0  0  0  0  0  2  0  0  0  0  0  0
  188.3080  178.2410  146.9340 C   0  0  1  0  0  3  0  0  0  0  0  0
  189.6580  177.6490  146.7100 N   0  0  0  0  0  0  0  0  0  0  0  0
  190.5940  177.3190  144.3910 C   0  0  0  0  0  2  0  0  0  0  0  0
  190.8400  178.7530  143.9690 C   0  0  0  0  0  1  0  0  0  0  0  0
  2  6  1  0  0  0  0
  2  9  2  0  0  0  0
  3  1  1  0  0  0  0
  3 17  1  1  0  0  0
  4 10  2  0  0  0  0
  5 11  1  0  0  0  0
  6 12  2  0  0  0  0
  7 13  1  0  0  0  0
  8  7  2  0  0  0  0
  8 10  1  0  0  0  0
  9  5  1  0  0  0  0
 10  3  1  0  0  0  0
 11  4  1  0  0  0  0
 12 14  1  0  0  0  0
 13  1  2  0  0  0  0
 14 11  2  0  0  0  0
 14  8  1  0  0  0  0
 15  9  1  0  0  0  0
 15 16  1  0  0  0  0
 17 18  1  0  0  0  0
 18 19  2  0  0  0  0
 20 21  2  0  0  0  0
 20 24  1  0  0  0  0
 23 19  1  6  0  0  0
 23 22  1  0  0  0  0
 24 23  1  0  0  0  0
 24 22  1  0  0  0  0
 25 20  1  0  0  0  0
 26 25  1  0  0  0  0
M  END
>  <MODEL>
8

>  <REMARK>
 VINA RESULT:      -8.6      2.687      6.947
  Name = 
  5 active torsions:
  status: ('A' for Active; 'I' for Inactive)
    1  A    between atoms: C_2  and  C_6
    2  A    between atoms: C_4  and  C_23
    3  A    between atoms: N_11  and  C_23
    4  A    between atoms: C_12  and  C_20
    5  A    between atoms: C_16  and  O_19
                            x       y       z     vdW  Elec       q    Type
                         _______ _______ _______ _____ _____    ______ ____

>  <TORSDO>
F 5

$$$$
=
 OpenBabel11042412273D

 26 29  0  0  1  0  0  0  0  0999 V2000
  187.3310  178.3050  148.1420 C   0  0  0  0  0  3  0  0  0  0  0  0
  190.6170  176.3460  142.0970 N   0  0  0  0  0  0  0  0  0  0  0  0
  186.8880  178.5520  146.8310 C   0  0  0  0  0  0  0  0  0  0  0  0
  187.4190  178.2360  144.4560 N   0  0  0  0  0  0  0  0  0  0  0  0
  188.5270  177.5800  142.4420 C   0  0  0  0  0  2  0  0  0  0  0  0
  191.1030  176.0600  143.3320 C   0  0  0  0  0  3  0  0  0  0  0  0
  189.3010  177.1330  147.2940 C   0  0  0  0  0  3  0  0  0  0  0  0
  188.8430  177.3970  146.0040 C   0  0  0  0  0  0  0  0  0  0  0  0
  189.5130  176.9970  141.6380 C   0  0  0  0  0  0  0  0  0  0  0  0
  187.6740  178.0860  145.7720 C   0  0  1  0  0  3  0  0  0  0  0  0
  188.4460  177.6280  143.8180 C   0  0  0  0  0  0  0  0  0  0  0  0
  190.5570  176.3840  144.5650 C   0  0  0  0  0  3  0  0  0  0  0  0
  188.5290  177.5980  148.3720 C   0  0  0  0  0  3  0  0  0  0  0  0
  189.3850  177.0750  144.7820 C   0  0  0  0  0  0  0  0  0  0  0  0
  189.3740  177.0780  140.2470 O   0  0  0  0  0  0  0  0  0  0  0  0
  188.4860  177.9800  139.5990 C   0  0  0  0  0  1  0  0  0  0  0  0
  185.6340  179.3220  146.5920 C   0  0  0  0  0  2  0  0  0  0  0  0
  184.5280  178.4120  146.4180 N   0  0  0  0  0  0  0  0  0  0  0  0
  183.7400  178.4560  145.4000 C   0  0  0  0  0  3  0  0  0  0  0  0
  181.7350  178.9530  142.5340 C   0  0  0  0  0  0  0  0  0  0  0  0
  181.6430  178.4500  141.3850 O   0  0  0  0  0  0  0  0  0  0  0  0
  184.4850  178.8640  143.2000 C   0  0  0  0  0  2  0  0  0  0  0  0
  183.8940  179.4580  144.2950 C   0  0  1  0  0  3  0  0  0  0  0  0
  183.0090  179.0680  143.1610 N   0  0  0  0  0  0  0  0  0  0  0  0
  180.5170  179.4560  143.2270 C   0  0  0  0  0  2  0  0  0  0  0  0
  179.9310  178.3630  144.0970 C   0  0  0  0  0  1  0  0  0  0  0  0
  1 13  1  0  0  0  0
  2  6  1  0  0  0  0
  3  1  2  0  0  0  0
  5 11  1  0  0  0  0
  6 12  2  0  0  0  0
  7 13  2  0  0  0  0
  8  7  1  0  0  0  0
  9  2  2  0  0  0  0
  9  5  1  0  0  0  0
 10  4  1  6  0  0  0
 10  8  1  0  0  0  0
 10  3  1  0  0  0  0
 11  4  2  0  0  0  0
 11 14  1  0  0  0  0
 12 14  1  0  0  0  0
 14  8  2  0  0  0  0
 15  9  1  0  0  0  0
 16 15  1  0  0  0  0
 17  3  1  0  0  0  0
 18 17  1  0  0  0  0
 19 18  2  0  0  0  0
 20 24  1  0  0  0  0
 20 25  1  0  0  0  0
 21 20  2  0  0  0  0
 22 23  1  0  0  0  0
 23 19  1  1  0  0  0
 24 22  1  0  0  0  0
 24 23  1  0  0  0  0
 25 26  1  0  0  0  0
M  END
>  <MODEL>
9

>  <REMARK>
 VINA RESULT:      -8.5      2.015      6.916
  Name = 
  5 active torsions:
  status: ('A' for Active; 'I' for Inactive)
    1  A    between atoms: C_2  and  C_6
    2  A    between atoms: C_4  and  C_23
    3  A    between atoms: N_11  and  C_23
    4  A    between atoms: C_12  and  C_20
    5  A    between atoms: C_16  and  O_19
                            x       y       z     vdW  Elec       q    Type
                         _______ _______ _______ _____ _____    ______ ____

>  <TORSDO>
F 5

$$$$
