=
 OpenBabel11042410263D

 29 31  0  0  1  0  0  0  0  0999 V2000
  191.5570  176.7660  146.2780 C   0  0  0  0  0  0  0  0  0  0  0  0
  191.2720  175.6950  143.6740 C   0  0  0  0  0  3  0  0  0  0  0  0
  192.6480  173.9140  144.2790 F   0  0  0  0  0  0  0  0  0  0  0  0
  191.9760  175.0440  144.6070 C   0  0  0  0  0  0  0  0  0  0  0  0
  190.4490  176.9260  144.0180 C   0  0  2  0  0  0  0  0  0  0  0  0
  192.0100  175.5430  145.9930 C   0  0  0  0  0  3  0  0  0  0  0  0
  191.1270  177.6900  145.1700 C   0  0  0  0  0  2  0  0  0  0  0  0
  185.0490  179.1950  145.3200 C   0  0  0  0  0  3  0  0  0  0  0  0
  187.0250  177.8370  145.0240 C   0  0  0  0  0  0  0  0  0  0  0  0
  185.4410  178.0660  143.2060 C   0  0  0  0  0  3  0  0  0  0  0  0
  188.3100  175.8360  143.5630 O   0  0  0  0  0  0  0  0  0  0  0  0
  187.4360  176.6790  142.9590 O   0  0  0  0  0  0  0  0  0  0  0  0
  188.7990  177.5080  146.5780 O   0  0  0  0  0  0  0  0  0  0  0  0
  183.4730  179.4310  143.5050 O   0  0  0  0  0  1  0  0  0  0  0  0
  184.6520  178.8980  144.0090 C   0  0  0  0  0  0  0  0  0  0  0  0
  188.3340  177.3220  145.4210 C   0  0  0  0  0  0  0  0  0  0  0  0
  186.6210  177.5270  143.7230 C   0  0  0  0  0  0  0  0  0  0  0  0
  186.2420  178.6710  145.8300 C   0  0  0  0  0  3  0  0  0  0  0  0
  189.0640  176.5950  144.4160 N   0  0  0  0  0  0  0  0  0  0  0  0
  191.5300  177.5980  148.7330 N   0  0  0  0  0  0  0  0  0  0  0  0
  191.5410  177.2260  147.6370 C   0  0  0  0  0  0  0  0  0  0  0  0
  190.4280  177.8610  142.8040 C   0  0  0  0  0  2  0  0  0  0  0  0
  192.0870  177.7470  141.0210 N   0  0  0  0  0  1  0  0  0  0  0  0
  190.8440  177.1730  141.5080 C   0  0  2  0  0  3  0  0  0  0  0  0
  189.7530  177.3680  140.4700 C   0  0  0  0  0  2  0  0  0  0  0  0
  190.0740  176.6290  139.2570 N   0  0  0  0  0  2  0  0  0  0  0  0
  189.8000  177.5020  138.1250 C   0  0  0  0  0  2  0  0  0  0  0  0
  189.0540  178.7420  138.5860 C   0  0  0  0  0  2  0  0  0  0  0  0
  188.9720  179.6620  137.5410 O   0  0  0  0  0  1  0  0  0  0  0  0
  1 21  1  0  0  0  0
  2  5  1  0  0  0  0
  2  4  2  0  0  0  0
  3  4  1  0  0  0  0
  4  6  1  0  0  0  0
  5 22  1  6  0  0  0
  5 19  1  0  0  0  0
  5  7  1  0  0  0  0
  6  1  2  0  0  0  0
  7  1  1  0  0  0  0
  8 18  1  0  0  0  0
  9 16  1  0  0  0  0
  9 18  2  0  0  0  0
 10 17  2  0  0  0  0
 10 15  1  0  0  0  0
 11 19  1  0  0  0  0
 12 11  1  0  0  0  0
 12 17  1  0  0  0  0
 14 15  1  0  0  0  0
 15  8  2  0  0  0  0
 16 13  2  0  0  0  0
 17  9  1  0  0  0  0
 19 16  1  0  0  0  0
 21 20  3  0  0  0  0
 24 23  1  6  0  0  0
 24 22  1  0  0  0  0
 25 24  1  0  0  0  0
 26 25  1  0  0  0  0
 27 28  1  0  0  0  0
 27 26  1  0  0  0  0
 29 28  1  0  0  0  0
M  END
>  <MODEL>
1

>  <REMARK>
 VINA RESULT:      -7.4      0.000      0.000
  Name = 
  8 active torsions:
  status: ('A' for Active; 'I' for Inactive)
    1  A    between atoms: C_1  and  C_16
    2  A    between atoms: N_9  and  C_27
    3  A    between atoms: N_9  and  C_29
    4  A    between atoms: C_15  and  C_20
    5  A    between atoms: C_15  and  N_24
    6  A    between atoms: C_20  and  C_25
    7  A    between atoms: C_22  and  C_29
    8  A    between atoms: C_25  and  C_27
                            x       y       z     vdW  Elec       q    Type
                         _______ _______ _______ _____ _____    ______ ____

>  <TORSDO>
F 8

$$$$
=
 OpenBabel11042410263D

 29 31  0  0  1  0  0  0  0  0999 V2000
  191.0850  176.4970  144.6900 C   0  0  0  0  0  0  0  0  0  0  0  0
  189.3830  178.7410  144.4110 C   0  0  0  0  0  3  0  0  0  0  0  0
  191.2570  180.1070  144.1860 F   0  0  0  0  0  0  0  0  0  0  0  0
  190.7110  178.8750  144.3140 C   0  0  0  0  0  0  0  0  0  0  0  0
  188.7290  177.3710  144.4850 C   0  0  2  0  0  0  0  0  0  0  0  0
  191.5800  177.6840  144.3310 C   0  0  0  0  0  3  0  0  0  0  0  0
  189.6730  176.3900  145.2020 C   0  0  0  0  0  2  0  0  0  0  0  0
  189.2540  178.2130  138.5680 C   0  0  0  0  0  3  0  0  0  0  0  0
  188.6630  177.5210  140.8060 C   0  0  0  0  0  0  0  0  0  0  0  0
  190.5630  176.5080  139.6960 C   0  0  0  0  0  3  0  0  0  0  0  0
  188.8940  175.5970  142.8140 O   0  0  0  0  0  0  0  0  0  0  0  0
  189.9130  175.8170  141.9480 O   0  0  0  0  0  0  0  0  0  0  0  0
  186.9290  178.4000  142.1800 O   0  0  0  0  0  0  0  0  0  0  0  0
  191.1520  177.2090  137.4630 O   0  0  0  0  0  1  0  0  0  0  0  0
  190.3240  177.3090  138.5740 C   0  0  0  0  0  0  0  0  0  0  0  0
  187.9220  177.6340  142.0610 C   0  0  0  0  0  0  0  0  0  0  0  0
  189.7210  176.6090  140.8060 C   0  0  0  0  0  0  0  0  0  0  0  0
  188.4220  178.3270  139.6880 C   0  0  0  0  0  3  0  0  0  0  0  0
  188.3940  176.8240  143.1530 N   0  0  0  0  0  0  0  0  0  0  0  0
  192.5940  174.3910  144.6180 N   0  0  0  0  0  0  0  0  0  0  0  0
  191.9200  175.3310  144.6520 C   0  0  0  0  0  0  0  0  0  0  0  0
  187.4570  177.4770  145.3340 C   0  0  0  0  0  2  0  0  0  0  0  0
  188.1330  177.0780  147.6420 N   0  0  0  0  0  1  0  0  0  0  0  0
  187.6990  178.1000  146.7050 C   0  0  2  0  0  3  0  0  0  0  0  0
  186.4080  178.7290  147.2000 C   0  0  0  0  0  2  0  0  0  0  0  0
  185.6770  179.3230  146.0890 N   0  0  0  0  0  2  0  0  0  0  0  0
  184.3660  178.6950  146.0400 C   0  0  0  0  0  2  0  0  0  0  0  0
  183.6430  179.0860  144.7630 C   0  0  0  0  0  2  0  0  0  0  0  0
  184.4800  179.8600  143.9620 O   0  0  0  0  0  1  0  0  0  0  0  0
  1  7  1  0  0  0  0
  2  5  1  0  0  0  0
  3  4  1  0  0  0  0
  4  6  1  0  0  0  0
  4  2  2  0  0  0  0
  5  7  1  0  0  0  0
  5 22  1  1  0  0  0
  6  1  2  0  0  0  0
  8 15  2  0  0  0  0
  8 18  1  0  0  0  0
  9 16  1  0  0  0  0
 10 17  2  0  0  0  0
 11 19  1  0  0  0  0
 12 11  1  0  0  0  0
 14 15  1  0  0  0  0
 15 10  1  0  0  0  0
 16 13  2  0  0  0  0
 16 19  1  0  0  0  0
 17  9  1  0  0  0  0
 17 12  1  0  0  0  0
 18  9  2  0  0  0  0
 19  5  1  0  0  0  0
 20 21  3  0  0  0  0
 21  1  1  0  0  0  0
 22 24  1  0  0  0  0
 24 25  1  0  0  0  0
 24 23  1  1  0  0  0
 26 25  1  0  0  0  0
 27 26  1  0  0  0  0
 28 27  1  0  0  0  0
 29 28  1  0  0  0  0
M  END
>  <MODEL>
2

>  <REMARK>
 VINA RESULT:      -7.4      2.402      5.854
  Name = 
  8 active torsions:
  status: ('A' for Active; 'I' for Inactive)
    1  A    between atoms: C_1  and  C_16
    2  A    between atoms: N_9  and  C_27
    3  A    between atoms: N_9  and  C_29
    4  A    between atoms: C_15  and  C_20
    5  A    between atoms: C_15  and  N_24
    6  A    between atoms: C_20  and  C_25
    7  A    between atoms: C_22  and  C_29
    8  A    between atoms: C_25  and  C_27
                            x       y       z     vdW  Elec       q    Type
                         _______ _______ _______ _____ _____    ______ ____

>  <TORSDO>
F 8

$$$$
=
 OpenBabel11042410263D

 29 31  0  0  1  0  0  0  0  0999 V2000
  191.7280  177.6580  142.2730 C   0  0  0  0  0  0  0  0  0  0  0  0
  190.5410  178.3140  144.7570 C   0  0  0  0  0  3  0  0  0  0  0  0
  190.9560  180.5680  144.3350 F   0  0  0  0  0  0  0  0  0  0  0  0
  190.9810  179.2750  143.9350 C   0  0  0  0  0  0  0  0  0  0  0  0
  190.4880  176.8600  144.3180 C   0  0  2  0  0  0  0  0  0  0  0  0
  191.4770  178.9300  142.5910 C   0  0  0  0  0  3  0  0  0  0  0  0
  191.6280  176.5830  143.3220 C   0  0  0  0  0  2  0  0  0  0  0  0
  185.1530  178.9450  142.5310 C   0  0  0  0  0  3  0  0  0  0  0  0
  187.0660  177.6250  143.1910 C   0  0  0  0  0  0  0  0  0  0  0  0
  186.8830  178.4220  140.9110 C   0  0  0  0  0  3  0  0  0  0  0  0
  189.2220  176.0430  142.3950 O   0  0  0  0  0  0  0  0  0  0  0  0
  188.7860  177.0600  141.6120 O   0  0  0  0  0  0  0  0  0  0  0  0
  187.5700  176.7970  145.3650 O   0  0  0  0  0  0  0  0  0  0  0  0
  184.9730  179.7460  140.2600 O   0  0  0  0  0  1  0  0  0  0  0  0
  185.6680  179.0390  141.2320 C   0  0  0  0  0  0  0  0  0  0  0  0
  187.9250  176.9580  144.1670 C   0  0  0  0  0  0  0  0  0  0  0  0
  187.5730  177.7050  141.8910 C   0  0  0  0  0  0  0  0  0  0  0  0
  185.8540  178.2430  143.5180 C   0  0  0  0  0  3  0  0  0  0  0  0
  189.2010  176.5010  143.6830 N   0  0  0  0  0  0  0  0  0  0  0  0
  192.5040  177.0530  139.8750 N   0  0  0  0  0  0  0  0  0  0  0  0
  192.1580  177.3220  140.9460 C   0  0  0  0  0  0  0  0  0  0  0  0
  190.7270  175.9660  145.5400 C   0  0  0  0  0  2  0  0  0  0  0  0
  192.1450  176.2310  147.5060 N   0  0  0  0  0  1  0  0  0  0  0  0
  190.9750  176.7550  146.8220 C   0  0  2  0  0  3  0  0  0  0  0  0
  189.7600  176.6320  147.7250 C   0  0  0  0  0  2  0  0  0  0  0  0
  189.3280  177.9490  148.1720 N   0  0  0  0  0  2  0  0  0  0  0  0
  187.9350  177.8400  148.5780 C   0  0  0  0  0  2  0  0  0  0  0  0
  187.1180  178.9610  147.9580 C   0  0  0  0  0  2  0  0  0  0  0  0
  185.9380  178.4480  147.4230 O   0  0  0  0  0  1  0  0  0  0  0  0
  1  6  2  0  0  0  0
  1  7  1  0  0  0  0
  4  3  1  0  0  0  0
  4  2  2  0  0  0  0
  5  2  1  0  0  0  0
  5 22  1  1  0  0  0
  6  4  1  0  0  0  0
  7  5  1  0  0  0  0
  8 18  1  0  0  0  0
  9 18  2  0  0  0  0
  9 16  1  0  0  0  0
 10 15  1  0  0  0  0
 10 17  2  0  0  0  0
 11 19  1  0  0  0  0
 12 17  1  0  0  0  0
 12 11  1  0  0  0  0
 14 15  1  0  0  0  0
 15  8  2  0  0  0  0
 16 13  2  0  0  0  0
 17  9  1  0  0  0  0
 19 16  1  0  0  0  0
 19  5  1  0  0  0  0
 20 21  3  0  0  0  0
 21  1  1  0  0  0  0
 22 24  1  0  0  0  0
 24 23  1  1  0  0  0
 24 25  1  0  0  0  0
 25 26  1  0  0  0  0
 26 27  1  0  0  0  0
 28 27  1  0  0  0  0
 29 28  1  0  0  0  0
M  END
>  <MODEL>
3

>  <REMARK>
 VINA RESULT:      -7.3      2.389      5.379
  Name = 
  8 active torsions:
  status: ('A' for Active; 'I' for Inactive)
    1  A    between atoms: C_1  and  C_16
    2  A    between atoms: N_9  and  C_27
    3  A    between atoms: N_9  and  C_29
    4  A    between atoms: C_15  and  C_20
    5  A    between atoms: C_15  and  N_24
    6  A    between atoms: C_20  and  C_25
    7  A    between atoms: C_22  and  C_29
    8  A    between atoms: C_25  and  C_27
                            x       y       z     vdW  Elec       q    Type
                         _______ _______ _______ _____ _____    ______ ____

>  <TORSDO>
F 8

$$$$
=
 OpenBabel11042410263D

 29 31  0  0  1  0  0  0  0  0999 V2000
  180.7500  179.5770  140.6930 C   0  0  0  0  0  0  0  0  0  0  0  0
  182.4090  179.0280  138.4670 C   0  0  0  0  0  3  0  0  0  0  0  0
  181.2250  180.6030  137.2230 F   0  0  0  0  0  0  0  0  0  0  0  0
  181.4640  179.9740  138.3980 C   0  0  0  0  0  0  0  0  0  0  0  0
  182.7540  178.3480  139.7820 C   0  0  2  0  0  0  0  0  0  0  0  0
  180.6940  180.3420  139.5990 C   0  0  0  0  0  3  0  0  0  0  0  0
  181.4960  178.2700  140.6650 C   0  0  0  0  0  2  0  0  0  0  0  0
  187.5520  177.6480  143.3170 C   0  0  0  0  0  3  0  0  0  0  0  0
  185.6450  178.4400  142.0620 C   0  0  0  0  0  0  0  0  0  0  0  0
  187.8120  178.2900  140.9900 C   0  0  0  0  0  3  0  0  0  0  0  0
  184.7070  179.8160  139.8230 O   0  0  0  0  0  0  0  0  0  0  0  0
  185.8650  179.1130  139.7660 O   0  0  0  0  0  0  0  0  0  0  0  0
  183.3900  178.5980  142.8070 O   0  0  0  0  0  0  0  0  0  0  0  0
  189.7110  177.4900  142.2470 O   0  0  0  0  0  1  0  0  0  0  0  0
  188.3610  177.8090  142.1840 C   0  0  0  0  0  0  0  0  0  0  0  0
  184.2200  178.6940  141.8630 C   0  0  0  0  0  0  0  0  0  0  0  0
  186.4550  178.6160  140.9370 C   0  0  0  0  0  0  0  0  0  0  0  0
  186.1880  177.9570  143.2580 C   0  0  0  0  0  3  0  0  0  0  0  0
  183.8180  179.0540  140.5290 N   0  0  0  0  0  0  0  0  0  0  0  0
  179.4710  180.2880  142.8330 N   0  0  0  0  0  0  0  0  0  0  0  0
  180.0420  179.9700  141.8780 C   0  0  0  0  0  0  0  0  0  0  0  0
  183.1950  176.9090  139.4930 C   0  0  0  0  0  2  0  0  0  0  0  0
  182.2960  175.4170  137.7870 N   0  0  0  0  0  1  0  0  0  0  0  0
  183.1680  176.5590  138.0090 C   0  0  2  0  0  3  0  0  0  0  0  0
  184.5760  176.2200  137.5520 C   0  0  0  0  0  2  0  0  0  0  0  0
  185.1790  177.3640  136.8830 N   0  0  0  0  0  2  0  0  0  0  0  0
  186.6230  177.2260  136.9900 C   0  0  0  0  0  2  0  0  0  0  0  0
  187.3100  178.4950  136.5150 C   0  0  0  0  0  2  0  0  0  0  0  0
  188.1950  178.9490  137.4920 O   0  0  0  0  0  1  0  0  0  0  0  0
  1 21  1  0  0  0  0
  2  5  1  0  0  0  0
  3  4  1  0  0  0  0
  4  2  2  0  0  0  0
  4  6  1  0  0  0  0
  5 22  1  6  0  0  0
  5 19  1  0  0  0  0
  5  7  1  0  0  0  0
  6  1  2  0  0  0  0
  7  1  1  0  0  0  0
  9 18  2  0  0  0  0
 10 15  1  0  0  0  0
 11 19  1  0  0  0  0
 12 11  1  0  0  0  0
 12 17  1  0  0  0  0
 15 14  1  0  0  0  0
 15  8  2  0  0  0  0
 16  9  1  0  0  0  0
 16 13  2  0  0  0  0
 17 10  2  0  0  0  0
 17  9  1  0  0  0  0
 18  8  1  0  0  0  0
 19 16  1  0  0  0  0
 21 20  3  0  0  0  0
 24 23  1  1  0  0  0
 24 22  1  0  0  0  0
 25 24  1  0  0  0  0
 26 27  1  0  0  0  0
 26 25  1  0  0  0  0
 28 27  1  0  0  0  0
 28 29  1  0  0  0  0
M  END
>  <MODEL>
4

>  <REMARK>
 VINA RESULT:      -7.2      5.390      8.406
  Name = 
  8 active torsions:
  status: ('A' for Active; 'I' for Inactive)
    1  A    between atoms: C_1  and  C_16
    2  A    between atoms: N_9  and  C_27
    3  A    between atoms: N_9  and  C_29
    4  A    between atoms: C_15  and  C_20
    5  A    between atoms: C_15  and  N_24
    6  A    between atoms: C_20  and  C_25
    7  A    between atoms: C_22  and  C_29
    8  A    between atoms: C_25  and  C_27
                            x       y       z     vdW  Elec       q    Type
                         _______ _______ _______ _____ _____    ______ ____

>  <TORSDO>
F 8

$$$$
=
 OpenBabel11042410263D

 29 31  0  0  1  0  0  0  0  0999 V2000
  180.7350  179.6030  140.7100 C   0  0  0  0  0  0  0  0  0  0  0  0
  182.3970  178.9700  138.5080 C   0  0  0  0  0  3  0  0  0  0  0  0
  181.2450  180.5310  137.2170 F   0  0  0  0  0  0  0  0  0  0  0  0
  181.4670  179.9280  138.4090 C   0  0  0  0  0  0  0  0  0  0  0  0
  182.7240  178.3200  139.8420 C   0  0  2  0  0  0  0  0  0  0  0  0
  180.6970  180.3400  139.5960 C   0  0  0  0  0  3  0  0  0  0  0  0
  181.4600  178.2840  140.7200 C   0  0  0  0  0  2  0  0  0  0  0  0
  187.5760  177.6300  143.3040 C   0  0  0  0  0  3  0  0  0  0  0  0
  185.6480  178.4170  142.0810 C   0  0  0  0  0  0  0  0  0  0  0  0
  187.8000  178.2820  140.9760 C   0  0  0  0  0  3  0  0  0  0  0  0
  184.6700  179.7980  139.8610 O   0  0  0  0  0  0  0  0  0  0  0  0
  185.8300  179.1010  139.7850 O   0  0  0  0  0  0  0  0  0  0  0  0
  183.4020  178.5600  142.8580 O   0  0  0  0  0  0  0  0  0  0  0  0
  189.7210  177.4870  142.2020 O   0  0  0  0  0  1  0  0  0  0  0  0
  188.3680  177.7990  142.1610 C   0  0  0  0  0  0  0  0  0  0  0  0
  184.2180  178.6640  141.9030 C   0  0  0  0  0  0  0  0  0  0  0  0
  186.4400  178.6020  140.9450 C   0  0  0  0  0  0  0  0  0  0  0  0
  186.2100  177.9310  143.2660 C   0  0  0  0  0  3  0  0  0  0  0  0
  183.7950  179.0280  140.5770 N   0  0  0  0  0  0  0  0  0  0  0  0
  179.4550  180.3860  142.8240 N   0  0  0  0  0  0  0  0  0  0  0  0
  180.0270  180.0370  141.8800 C   0  0  0  0  0  0  0  0  0  0  0  0
  183.1440  176.8670  139.5930 C   0  0  0  0  0  2  0  0  0  0  0  0
  182.4480  175.2080  137.9470 N   0  0  0  0  0  1  0  0  0  0  0  0
  183.1280  176.4810  138.1180 C   0  0  2  0  0  3  0  0  0  0  0  0
  184.5580  176.3640  137.6190 C   0  0  0  0  0  2  0  0  0  0  0  0
  184.7220  175.1460  136.8390 N   0  0  0  0  0  2  0  0  0  0  0  0
  186.1080  174.7230  136.9710 C   0  0  0  0  0  2  0  0  0  0  0  0
  186.1770  173.2440  137.3100 C   0  0  0  0  0  2  0  0  0  0  0  0
  185.0670  172.8800  138.0710 O   0  0  0  0  0  1  0  0  0  0  0  0
  1  7  1  0  0  0  0
  1 21  1  0  0  0  0
  2  5  1  0  0  0  0
  3  4  1  0  0  0  0
  4  2  2  0  0  0  0
  4  6  1  0  0  0  0
  5 22  1  6  0  0  0
  5 19  1  0  0  0  0
  5  7  1  0  0  0  0
  6  1  2  0  0  0  0
  9 18  2  0  0  0  0
 10 15  1  0  0  0  0
 11 19  1  0  0  0  0
 12 11  1  0  0  0  0
 12 17  1  0  0  0  0
 15 14  1  0  0  0  0
 15  8  2  0  0  0  0
 16  9  1  0  0  0  0
 16 13  2  0  0  0  0
 17 10  2  0  0  0  0
 17  9  1  0  0  0  0
 18  8  1  0  0  0  0
 19 16  1  0  0  0  0
 21 20  3  0  0  0  0
 24 23  1  1  0  0  0
 24 22  1  0  0  0  0
 25 24  1  0  0  0  0
 26 27  1  0  0  0  0
 26 25  1  0  0  0  0
 27 28  1  0  0  0  0
 28 29  1  0  0  0  0
M  END
>  <MODEL>
5

>  <REMARK>
 VINA RESULT:      -7.1      5.642      8.621
  Name = 
  8 active torsions:
  status: ('A' for Active; 'I' for Inactive)
    1  A    between atoms: C_1  and  C_16
    2  A    between atoms: N_9  and  C_27
    3  A    between atoms: N_9  and  C_29
    4  A    between atoms: C_15  and  C_20
    5  A    between atoms: C_15  and  N_24
    6  A    between atoms: C_20  and  C_25
    7  A    between atoms: C_22  and  C_29
    8  A    between atoms: C_25  and  C_27
                            x       y       z     vdW  Elec       q    Type
                         _______ _______ _______ _____ _____    ______ ____

>  <TORSDO>
F 8

$$$$
=
 OpenBabel11042410263D

 29 31  0  0  1  0  0  0  0  0999 V2000
  191.3070  176.5300  144.5140 C   0  0  0  0  0  0  0  0  0  0  0  0
  190.1460  179.0480  143.9440 C   0  0  0  0  0  3  0  0  0  0  0  0
  192.2780  179.9350  143.6310 F   0  0  0  0  0  0  0  0  0  0  0  0
  191.4720  178.8750  143.8740 C   0  0  0  0  0  0  0  0  0  0  0  0
  189.2040  177.8720  144.1450 C   0  0  2  0  0  0  0  0  0  0  0  0
  192.0540  177.5320  144.0440 C   0  0  0  0  0  3  0  0  0  0  0  0
  189.9030  176.7930  144.9910 C   0  0  0  0  0  2  0  0  0  0  0  0
  189.6600  178.1580  138.1690 C   0  0  0  0  0  3  0  0  0  0  0  0
  189.0510  177.7320  140.4680 C   0  0  0  0  0  0  0  0  0  0  0  0
  190.7740  176.3950  139.4120 C   0  0  0  0  0  3  0  0  0  0  0  0
  189.0930  175.9630  142.6260 O   0  0  0  0  0  0  0  0  0  0  0  0
  190.1070  175.9780  141.7250 O   0  0  0  0  0  0  0  0  0  0  0  0
  187.4840  178.9360  141.7950 O   0  0  0  0  0  0  0  0  0  0  0  0
  191.3830  176.8310  137.1180 O   0  0  0  0  0  1  0  0  0  0  0  0
  190.6070  177.1270  138.2320 C   0  0  0  0  0  0  0  0  0  0  0  0
  188.3670  178.0400  141.7220 C   0  0  0  0  0  0  0  0  0  0  0  0
  189.9840  176.6930  140.5260 C   0  0  0  0  0  0  0  0  0  0  0  0
  188.8830  178.4690  139.2910 C   0  0  0  0  0  3  0  0  0  0  0  0
  188.7640  177.2670  142.8700 N   0  0  0  0  0  0  0  0  0  0  0  0
  192.3130  174.1500  144.7180 N   0  0  0  0  0  0  0  0  0  0  0  0
  191.8630  175.2120  144.6260 C   0  0  0  0  0  0  0  0  0  0  0  0
  187.9820  178.3490  144.9390 C   0  0  0  0  0  2  0  0  0  0  0  0
  185.7220  177.7110  144.2840 N   0  0  0  0  0  1  0  0  0  0  0  0
  186.8870  177.2930  145.0460 C   0  0  2  0  0  3  0  0  0  0  0  0
  186.5050  177.1200  146.5060 C   0  0  0  0  0  2  0  0  0  0  0  0
  186.9780  178.2530  147.2890 N   0  0  0  0  0  2  0  0  0  0  0  0
  187.6800  177.7240  148.4480 C   0  0  0  0  0  2  0  0  0  0  0  0
  189.0490  178.3700  148.5740 C   0  0  0  0  0  2  0  0  0  0  0  0
  190.0290  177.5030  148.0940 O   0  0  0  0  0  1  0  0  0  0  0  0
  1 21  1  0  0  0  0
  1  7  1  0  0  0  0
  2  5  1  0  0  0  0
  3  4  1  0  0  0  0
  4  2  2  0  0  0  0
  4  6  1  0  0  0  0
  5 22  1  1  0  0  0
  5  7  1  0  0  0  0
  6  1  2  0  0  0  0
  8 15  2  0  0  0  0
  8 18  1  0  0  0  0
  9 17  1  0  0  0  0
  9 16  1  0  0  0  0
 10 17  2  0  0  0  0
 11 19  1  0  0  0  0
 12 11  1  0  0  0  0
 14 15  1  0  0  0  0
 15 10  1  0  0  0  0
 16 13  2  0  0  0  0
 16 19  1  0  0  0  0
 17 12  1  0  0  0  0
 18  9  2  0  0  0  0
 19  5  1  0  0  0  0
 21 20  3  0  0  0  0
 22 24  1  0  0  0  0
 24 23  1  6  0  0  0
 24 25  1  0  0  0  0
 25 26  1  0  0  0  0
 26 27  1  0  0  0  0
 27 28  1  0  0  0  0
 29 28  1  0  0  0  0
M  END
>  <MODEL>
6

>  <REMARK>
 VINA RESULT:      -6.6      2.542      6.206
  Name = 
  8 active torsions:
  status: ('A' for Active; 'I' for Inactive)
    1  A    between atoms: C_1  and  C_16
    2  A    between atoms: N_9  and  C_27
    3  A    between atoms: N_9  and  C_29
    4  A    between atoms: C_15  and  C_20
    5  A    between atoms: C_15  and  N_24
    6  A    between atoms: C_20  and  C_25
    7  A    between atoms: C_22  and  C_29
    8  A    between atoms: C_25  and  C_27
                            x       y       z     vdW  Elec       q    Type
                         _______ _______ _______ _____ _____    ______ ____

>  <TORSDO>
F 8

$$$$
=
 OpenBabel11042410263D

 29 31  0  0  1  0  0  0  0  0999 V2000
  191.4130  176.4060  137.7810 C   0  0  0  0  0  0  0  0  0  0  0  0
  188.7330  176.2250  138.6720 C   0  0  0  0  0  3  0  0  0  0  0  0
  188.3880  174.4480  137.2040 F   0  0  0  0  0  0  0  0  0  0  0  0
  189.2140  175.3570  137.7740 C   0  0  0  0  0  0  0  0  0  0  0  0
  189.6430  177.2130  139.3840 C   0  0  2  0  0  0  0  0  0  0  0  0
  190.6430  175.3780  137.4140 C   0  0  0  0  0  3  0  0  0  0  0  0
  190.8020  177.6060  138.4520 C   0  0  0  0  0  2  0  0  0  0  0  0
  191.0090  178.4790  145.0880 C   0  0  0  0  0  3  0  0  0  0  0  0
  190.7730  177.5400  142.8750 C   0  0  0  0  0  0  0  0  0  0  0  0
  189.0820  177.1030  144.5530 C   0  0  0  0  0  3  0  0  0  0  0  0
  189.5530  175.6310  141.2440 O   0  0  0  0  0  0  0  0  0  0  0  0
  188.8960  176.1490  142.3120 O   0  0  0  0  0  0  0  0  0  0  0  0
  192.2040  177.8750  141.0020 O   0  0  0  0  0  0  0  0  0  0  0  0
  189.3210  178.0500  146.7600 O   0  0  0  0  0  1  0  0  0  0  0  0
  189.8030  177.8770  145.4690 C   0  0  0  0  0  0  0  0  0  0  0  0
  191.1360  177.3930  141.4670 C   0  0  0  0  0  0  0  0  0  0  0  0
  189.5780  176.9260  143.2590 C   0  0  0  0  0  0  0  0  0  0  0  0
  191.4950  178.3180  143.7850 C   0  0  0  0  0  3  0  0  0  0  0  0
  190.2040  176.6710  140.6410 N   0  0  0  0  0  0  0  0  0  0  0  0
  193.9470  176.3860  137.2320 N   0  0  0  0  0  0  0  0  0  0  0  0
  192.8150  176.3950  137.4760 C   0  0  0  0  0  0  0  0  0  0  0  0
  188.8480  178.4890  139.6830 C   0  0  0  0  0  2  0  0  0  0  0  0
  186.5080  178.6280  139.0090 N   0  0  0  0  0  1  0  0  0  0  0  0
  187.4010  178.2160  140.0800 C   0  0  2  0  0  3  0  0  0  0  0  0
  187.0760  178.9970  141.3420 C   0  0  0  0  0  2  0  0  0  0  0  0
  185.6700  179.3750  141.3530 N   0  0  0  0  0  2  0  0  0  0  0  0
  184.9700  178.4390  142.2190 C   0  0  0  0  0  2  0  0  0  0  0  0
  185.0770  178.8810  143.6680 C   0  0  0  0  0  2  0  0  0  0  0  0
  185.6810  177.8790  144.4260 O   0  0  0  0  0  1  0  0  0  0  0  0
  1  7  1  0  0  0  0
  2  5  1  0  0  0  0
  3  4  1  0  0  0  0
  4  2  2  0  0  0  0
  5 22  1  1  0  0  0
  5 19  1  0  0  0  0
  6  4  1  0  0  0  0
  6  1  2  0  0  0  0
  7  5  1  0  0  0  0
  8 15  1  0  0  0  0
  9 17  2  0  0  0  0
  9 18  1  0  0  0  0
 10 15  2  0  0  0  0
 11 12  1  0  0  0  0
 12 17  1  0  0  0  0
 13 16  2  0  0  0  0
 15 14  1  0  0  0  0
 16  9  1  0  0  0  0
 17 10  1  0  0  0  0
 18  8  2  0  0  0  0
 19 11  1  0  0  0  0
 19 16  1  0  0  0  0
 20 21  3  0  0  0  0
 21  1  1  0  0  0  0
 22 24  1  0  0  0  0
 24 23  1  6  0  0  0
 24 25  1  0  0  0  0
 25 26  1  0  0  0  0
 26 27  1  0  0  0  0
 27 28  1  0  0  0  0
 28 29  1  0  0  0  0
M  END
>  <MODEL>
7

>  <REMARK>
 VINA RESULT:      -6.5      3.012      6.283
  Name = 
  8 active torsions:
  status: ('A' for Active; 'I' for Inactive)
    1  A    between atoms: C_1  and  C_16
    2  A    between atoms: N_9  and  C_27
    3  A    between atoms: N_9  and  C_29
    4  A    between atoms: C_15  and  C_20
    5  A    between atoms: C_15  and  N_24
    6  A    between atoms: C_20  and  C_25
    7  A    between atoms: C_22  and  C_29
    8  A    between atoms: C_25  and  C_27
                            x       y       z     vdW  Elec       q    Type
                         _______ _______ _______ _____ _____    ______ ____

>  <TORSDO>
F 8

$$$$
=
 OpenBabel11042410263D

 29 31  0  0  1  0  0  0  0  0999 V2000
  186.0950  178.6710  141.9260 C   0  0  0  0  0  0  0  0  0  0  0  0
  188.1410  177.5210  143.5090 C   0  0  0  0  0  3  0  0  0  0  0  0
  186.5250  176.7550  145.0020 F   0  0  0  0  0  0  0  0  0  0  0  0
  186.8530  177.3710  143.8420 C   0  0  0  0  0  0  0  0  0  0  0  0
  188.5480  178.1440  142.1830 C   0  0  2  0  0  0  0  0  0  0  0  0
  185.7920  177.8610  142.9440 C   0  0  0  0  0  3  0  0  0  0  0  0
  187.4990  179.1900  141.7650 C   0  0  0  0  0  2  0  0  0  0  0  0
  190.9300  177.0710  136.7820 C   0  0  0  0  0  3  0  0  0  0  0  0
  189.6730  177.0690  138.8450 C   0  0  0  0  0  0  0  0  0  0  0  0
  191.8680  176.0480  138.7740 C   0  0  0  0  0  3  0  0  0  0  0  0
  189.3150  175.9660  141.3830 O   0  0  0  0  0  0  0  0  0  0  0  0
  190.5510  176.0420  140.8310 O   0  0  0  0  0  0  0  0  0  0  0  0
  187.5540  178.0770  139.2460 O   0  0  0  0  0  0  0  0  0  0  0  0
  193.1220  176.0590  136.7110 O   0  0  0  0  0  1  0  0  0  0  0  0
  191.9760  176.3920  137.4210 C   0  0  0  0  0  0  0  0  0  0  0  0
  188.5610  177.4730  139.7030 C   0  0  0  0  0  0  0  0  0  0  0  0
  190.7080  176.3780  139.4790 C   0  0  0  0  0  0  0  0  0  0  0  0
  189.7770  177.4180  137.4940 C   0  0  0  0  0  3  0  0  0  0  0  0
  188.6850  177.1460  141.1000 N   0  0  0  0  0  0  0  0  0  0  0  0
  184.2390  179.4480  140.2920 N   0  0  0  0  0  0  0  0  0  0  0  0
  185.0670  179.1000  141.0220 C   0  0  0  0  0  0  0  0  0  0  0  0
  189.8760  178.8850  142.3730 C   0  0  0  0  0  2  0  0  0  0  0  0
  191.0880  179.7680  144.2950 N   0  0  0  0  0  1  0  0  0  0  0  0
  190.5650  178.5540  143.6920 C   0  0  2  0  0  3  0  0  0  0  0  0
  191.7050  177.5850  143.4290 C   0  0  0  0  0  2  0  0  0  0  0  0
  191.5300  176.3730  144.2170 N   0  0  0  0  0  2  0  0  0  0  0  0
  191.1430  176.7750  145.5610 C   0  0  0  0  0  2  0  0  0  0  0  0
  191.9500  176.0050  146.5920 C   0  0  0  0  0  2  0  0  0  0  0  0
  192.0560  176.7520  147.7650 O   0  0  0  0  0  1  0  0  0  0  0  0
  1  6  2  0  0  0  0
  2  4  2  0  0  0  0
  4  3  1  0  0  0  0
  5 22  1  1  0  0  0
  5  2  1  0  0  0  0
  6  4  1  0  0  0  0
  7  1  1  0  0  0  0
  7  5  1  0  0  0  0
  8 15  2  0  0  0  0
  8 18  1  0  0  0  0
  9 17  1  0  0  0  0
  9 16  1  0  0  0  0
 10 17  2  0  0  0  0
 12 11  1  0  0  0  0
 13 16  2  0  0  0  0
 14 15  1  0  0  0  0
 15 10  1  0  0  0  0
 16 19  1  0  0  0  0
 17 12  1  0  0  0  0
 18  9  2  0  0  0  0
 19 11  1  0  0  0  0
 19  5  1  0  0  0  0
 20 21  3  0  0  0  0
 21  1  1  0  0  0  0
 22 24  1  0  0  0  0
 24 23  1  6  0  0  0
 25 24  1  0  0  0  0
 25 26  1  0  0  0  0
 26 27  1  0  0  0  0
 27 28  1  0  0  0  0
 28 29  1  0  0  0  0
M  END
>  <MODEL>
8

>  <REMARK>
 VINA RESULT:      -6.5      2.850      7.168
  Name = 
  8 active torsions:
  status: ('A' for Active; 'I' for Inactive)
    1  A    between atoms: C_1  and  C_16
    2  A    between atoms: N_9  and  C_27
    3  A    between atoms: N_9  and  C_29
    4  A    between atoms: C_15  and  C_20
    5  A    between atoms: C_15  and  N_24
    6  A    between atoms: C_20  and  C_25
    7  A    between atoms: C_22  and  C_29
    8  A    between atoms: C_25  and  C_27
                            x       y       z     vdW  Elec       q    Type
                         _______ _______ _______ _____ _____    ______ ____

>  <TORSDO>
F 8

$$$$
=
 OpenBabel11042410263D

 29 31  0  0  1  0  0  0  0  0999 V2000
  192.0310  175.7350  136.5190 C   0  0  0  0  0  0  0  0  0  0  0  0
  189.3380  175.2840  137.2670 C   0  0  0  0  0  3  0  0  0  0  0  0
  189.7870  173.0030  137.4250 F   0  0  0  0  0  0  0  0  0  0  0  0
  190.2130  174.2710  137.2180 C   0  0  0  0  0  0  0  0  0  0  0  0
  189.7890  176.7270  137.1090 C   0  0  2  0  0  0  0  0  0  0  0  0
  191.6390  174.5350  136.9550 C   0  0  0  0  0  3  0  0  0  0  0  0
  191.0080  176.7840  136.1720 C   0  0  0  0  0  2  0  0  0  0  0  0
  187.7970  178.1710  142.5820 C   0  0  0  0  0  3  0  0  0  0  0  0
  188.9960  177.9330  140.4980 C   0  0  0  0  0  0  0  0  0  0  0  0
  189.3420  176.3240  142.2750 C   0  0  0  0  0  3  0  0  0  0  0  0
  191.1500  176.7950  139.1370 O   0  0  0  0  0  0  0  0  0  0  0  0
  190.5560  176.1370  140.1630 O   0  0  0  0  0  0  0  0  0  0  0  0
  188.7880  179.2840  138.5490 O   0  0  0  0  0  0  0  0  0  0  0  0
  188.1360  176.5640  144.3520 O   0  0  0  0  0  1  0  0  0  0  0  0
  188.4250  177.0190  143.0720 C   0  0  0  0  0  0  0  0  0  0  0  0
  189.2800  178.2650  139.1030 C   0  0  0  0  0  0  0  0  0  0  0  0
  189.6340  176.7930  140.9910 C   0  0  0  0  0  0  0  0  0  0  0  0
  188.0750  178.6290  141.2890 C   0  0  0  0  0  3  0  0  0  0  0  0
  190.1470  177.3590  138.3970 N   0  0  0  0  0  0  0  0  0  0  0  0
  194.5500  176.2180  136.1520 N   0  0  0  0  0  0  0  0  0  0  0  0
  193.4260  176.0030  136.3170 C   0  0  0  0  0  0  0  0  0  0  0  0
  188.6650  177.5240  136.4390 C   0  0  0  0  0  2  0  0  0  0  0  0
  186.7430  177.0220  135.0240 N   0  0  0  0  0  1  0  0  0  0  0  0
  187.3660  176.7360  136.3060 C   0  0  2  0  0  3  0  0  0  0  0  0
  186.4240  177.1360  137.4290 C   0  0  0  0  0  2  0  0  0  0  0  0
  185.1580  177.6040  136.8830 N   0  0  0  0  0  2  0  0  0  0  0  0
  184.2620  177.8540  138.0030 C   0  0  0  0  0  2  0  0  0  0  0  0
  184.9850  178.6290  139.0910 C   0  0  0  0  0  2  0  0  0  0  0  0
  184.5560  179.9550  139.0940 O   0  0  0  0  0  1  0  0  0  0  0  0
  1  6  2  0  0  0  0
  4  2  2  0  0  0  0
  4  3  1  0  0  0  0
  5 22  1  6  0  0  0
  5  2  1  0  0  0  0
  5 19  1  0  0  0  0
  6  4  1  0  0  0  0
  7  1  1  0  0  0  0
  7  5  1  0  0  0  0
  8 15  1  0  0  0  0
  9 17  2  0  0  0  0
  9 18  1  0  0  0  0
 10 15  2  0  0  0  0
 11 12  1  0  0  0  0
 12 17  1  0  0  0  0
 13 16  2  0  0  0  0
 15 14  1  0  0  0  0
 16  9  1  0  0  0  0
 17 10  1  0  0  0  0
 18  8  2  0  0  0  0
 19 16  1  0  0  0  0
 19 11  1  0  0  0  0
 20 21  3  0  0  0  0
 21  1  1  0  0  0  0
 24 23  1  6  0  0  0
 24 22  1  0  0  0  0
 24 25  1  0  0  0  0
 26 25  1  0  0  0  0
 26 27  1  0  0  0  0
 27 28  1  0  0  0  0
 28 29  1  0  0  0  0
M  END
>  <MODEL>
9

>  <REMARK>
 VINA RESULT:      -6.3      3.839      6.908
  Name = 
  8 active torsions:
  status: ('A' for Active; 'I' for Inactive)
    1  A    between atoms: C_1  and  C_16
    2  A    between atoms: N_9  and  C_27
    3  A    between atoms: N_9  and  C_29
    4  A    between atoms: C_15  and  C_20
    5  A    between atoms: C_15  and  N_24
    6  A    between atoms: C_20  and  C_25
    7  A    between atoms: C_22  and  C_29
    8  A    between atoms: C_25  and  C_27
                            x       y       z     vdW  Elec       q    Type
                         _______ _______ _______ _____ _____    ______ ____

>  <TORSDO>
F 8

$$$$
