=
 OpenBabel11042411003D

 29 30  0  0  1  0  0  0  0  0999 V2000
  191.1560  177.1210  145.0030 N   0  0  0  0  0  0  0  0  0  0  0  0
  192.4280  175.4600  145.9910 O   0  0  0  0  0  0  0  0  0  0  0  0
  191.5860  176.3780  146.1540 C   0  0  0  0  0  0  0  0  0  0  0  0
  189.9940  177.6470  144.7150 C   0  0  0  0  0  0  0  0  0  0  0  0
  188.8490  176.8050  146.8370 C   0  0  0  0  0  2  0  0  0  0  0  0
  188.8220  177.4900  145.5560 N   0  0  0  0  0  0  0  0  0  0  0  0
  189.8860  177.4550  147.7200 C   0  0  0  0  0  2  0  0  0  0  0  0
  191.2130  176.7370  147.5670 C   0  0  0  0  0  2  0  0  0  0  0  0
  186.5900  178.1310  146.3570 C   0  0  0  0  0  2  0  0  0  0  0  0
  186.8820  177.2560  144.0470 C   0  0  0  0  0  0  0  0  0  0  0  0
  187.5570  176.3900  143.4290 O   0  0  0  0  0  0  0  0  0  0  0  0
  185.6790  179.2910  146.1850 C   0  0  0  0  0  3  0  0  0  0  0  0
  187.5200  178.0350  145.1640 C   0  0  2  0  0  3  0  0  0  0  0  0
  184.8110  179.4230  145.1850 C   0  0  0  0  0  3  0  0  0  0  0  0
  183.5260  178.6170  143.4080 O   0  0  0  0  0  0  0  0  0  0  0  0
  185.5350  177.4970  143.6230 N   0  0  0  0  0  2  0  0  0  0  0  0
  184.5980  178.4960  144.0550 C   0  0  0  0  0  0  0  0  0  0  0  0
  189.8640  178.3760  143.5260 O   0  0  0  0  0  0  0  0  0  0  0  0
  190.7270  178.1960  142.4100 C   0  0  0  0  0  2  0  0  0  0  0  0
  189.9890  177.4920  141.2770 C   0  0  1  0  0  3  0  0  0  0  0  0
  189.0900  178.4420  140.4710 C   0  0  2  0  0  3  0  0  0  0  0  0
  187.8010  178.4160  141.0120 O   0  0  0  0  0  1  0  0  0  0  0  0
  189.0440  178.1410  138.9650 C   0  0  2  0  0  3  0  0  0  0  0  0
  189.0510  179.3790  138.2030 N   0  0  0  0  0  1  0  0  0  0  0  0
  187.7930  177.3480  138.6120 C   0  0  0  0  0  2  0  0  0  0  0  0
  186.8770  178.1630  137.2700 S   0  0  0  0  0  0  0  0  0  0  0  0
  185.3510  178.2550  138.2480 C   0  0  0  0  0  1  0  0  0  0  0  0
  190.8980  176.6080  140.4190 C   0  0  0  0  0  2  0  0  0  0  0  0
  192.1290  177.2250  140.1840 O   0  0  0  0  0  1  0  0  0  0  0  0
  1  3  1  0  0  0  0
  2  3  2  0  0  0  0
  3  8  1  0  0  0  0
  4  1  2  0  0  0  0
  4  6  1  0  0  0  0
  5  7  1  0  0  0  0
  6  5  1  0  0  0  0
  8  7  1  0  0  0  0
 10 13  1  0  0  0  0
 11 10  2  0  0  0  0
 12  9  1  0  0  0  0
 13  6  1  1  0  0  0
 13  9  1  0  0  0  0
 14 12  2  0  0  0  0
 15 17  2  0  0  0  0
 16 10  1  0  0  0  0
 16 17  1  0  0  0  0
 17 14  1  0  0  0  0
 18  4  1  0  0  0  0
 19 18  1  0  0  0  0
 20 28  1  6  0  0  0
 20 19  1  0  0  0  0
 21 22  1  1  0  0  0
 21 20  1  0  0  0  0
 23 24  1  6  0  0  0
 23 21  1  0  0  0  0
 25 23  1  0  0  0  0
 26 27  1  0  0  0  0
 26 25  1  0  0  0  0
 29 28  1  0  0  0  0
M  END
>  <MODEL>
1

>  <REMARK>
 VINA RESULT:      -7.2      0.000      0.000
  Name = 
  9 active torsions:
  status: ('A' for Active; 'I' for Inactive)
    1  A    between atoms: C_2  and  C_4
    2  A    between atoms: C_2  and  C_18
    3  A    between atoms: C_4  and  C_17
    4  A    between atoms: C_5  and  C_18
    5  A    between atoms: S_9  and  C_17
    6  A    between atoms: C_10  and  O_12
    7  A    between atoms: O_12  and  C_16
    8  A    between atoms: C_16  and  C_18
    9  A    between atoms: C_19  and  N_22
                            x       y       z     vdW  Elec       q    Type
                         _______ _______ _______ _____ _____    ______ ____

>  <TORSDO>
F 9

$$$$
=
 OpenBabel11042411003D

 29 30  0  0  1  0  0  0  0  0999 V2000
  187.3860  178.1010  139.5180 N   0  0  0  0  0  0  0  0  0  0  0  0
  187.0790  176.9250  137.5480 O   0  0  0  0  0  0  0  0  0  0  0  0
  187.8930  177.4940  138.3200 C   0  0  0  0  0  0  0  0  0  0  0  0
  187.9190  178.2140  140.7060 C   0  0  0  0  0  0  0  0  0  0  0  0
  190.0460  176.9320  140.1050 C   0  0  0  0  0  2  0  0  0  0  0  0
  189.1990  177.6290  141.0600 N   0  0  0  0  0  0  0  0  0  0  0  0
  190.3380  177.8540  138.9460 C   0  0  0  0  0  2  0  0  0  0  0  0
  189.3140  177.6380  137.8480 C   0  0  0  0  0  2  0  0  0  0  0  0
  191.2470  177.7320  142.4120 C   0  0  0  0  0  2  0  0  0  0  0  0
  189.2110  176.6250  143.3150 C   0  0  0  0  0  0  0  0  0  0  0  0
  188.2600  175.8990  142.9200 O   0  0  0  0  0  0  0  0  0  0  0  0
  191.7430  178.5470  143.5500 C   0  0  0  0  0  3  0  0  0  0  0  0
  189.7310  177.7170  142.4220 C   0  0  2  0  0  3  0  0  0  0  0  0
  191.5070  178.2720  144.8310 C   0  0  0  0  0  3  0  0  0  0  0  0
  190.8710  176.8700  146.5880 O   0  0  0  0  0  0  0  0  0  0  0  0
  189.7290  176.4080  144.6330 N   0  0  0  0  0  2  0  0  0  0  0  0
  190.7040  177.1580  145.3750 C   0  0  0  0  0  0  0  0  0  0  0  0
  187.2140  178.9110  141.6950 O   0  0  0  0  0  0  0  0  0  0  0  0
  185.8960  179.4080  141.5000 C   0  0  0  0  0  2  0  0  0  0  0  0
  184.8860  178.5380  142.2400 C   0  0  1  0  0  3  0  0  0  0  0  0
  184.3310  179.2120  143.5030 C   0  0  2  0  0  3  0  0  0  0  0  0
  185.0080  180.4170  143.7100 O   0  0  0  0  0  1  0  0  0  0  0  0
  184.3960  178.3390  144.7650 C   0  0  2  0  0  3  0  0  0  0  0  0
  183.6300  178.9470  145.8400 N   0  0  0  0  0  1  0  0  0  0  0  0
  185.8370  178.1590  145.2230 C   0  0  0  0  0  2  0  0  0  0  0  0
  186.0300  178.6920  146.9500 S   0  0  0  0  0  0  0  0  0  0  0  0
  187.4970  177.6530  147.2000 C   0  0  0  0  0  1  0  0  0  0  0  0
  183.8140  177.9410  141.3230 C   0  0  0  0  0  2  0  0  0  0  0  0
  182.6490  178.7100  141.3390 O   0  0  0  0  0  1  0  0  0  0  0  0
  1  4  2  0  0  0  0
  2  3  2  0  0  0  0
  3  1  1  0  0  0  0
  4  6  1  0  0  0  0
  4 18  1  0  0  0  0
  5  6  1  0  0  0  0
  7  5  1  0  0  0  0
  8  3  1  0  0  0  0
  8  7  1  0  0  0  0
  9 13  1  0  0  0  0
  9 12  1  0  0  0  0
 10 16  1  0  0  0  0
 11 10  2  0  0  0  0
 12 14  2  0  0  0  0
 13  6  1  6  0  0  0
 13 10  1  0  0  0  0
 14 17  1  0  0  0  0
 16 17  1  0  0  0  0
 17 15  2  0  0  0  0
 19 18  1  0  0  0  0
 19 20  1  0  0  0  0
 20 28  1  6  0  0  0
 20 21  1  0  0  0  0
 21 22  1  1  0  0  0
 21 23  1  0  0  0  0
 23 25  1  0  0  0  0
 23 24  1  1  0  0  0
 25 26  1  0  0  0  0
 26 27  1  0  0  0  0
 28 29  1  0  0  0  0
M  END
>  <MODEL>
2

>  <REMARK>
 VINA RESULT:      -7.0      2.656      6.939
  Name = 
  9 active torsions:
  status: ('A' for Active; 'I' for Inactive)
    1  A    between atoms: C_2  and  C_4
    2  A    between atoms: C_2  and  C_18
    3  A    between atoms: C_4  and  C_17
    4  A    between atoms: C_5  and  C_18
    5  A    between atoms: S_9  and  C_17
    6  A    between atoms: C_10  and  O_12
    7  A    between atoms: O_12  and  C_16
    8  A    between atoms: C_16  and  C_18
    9  A    between atoms: C_19  and  N_22
                            x       y       z     vdW  Elec       q    Type
                         _______ _______ _______ _____ _____    ______ ____

>  <TORSDO>
F 9

$$$$
=
 OpenBabel11042411003D

 29 30  0  0  1  0  0  0  0  0999 V2000
  187.7270  177.8890  139.3610 N   0  0  0  0  0  0  0  0  0  0  0  0
  187.5320  176.5680  137.4710 O   0  0  0  0  0  0  0  0  0  0  0  0
  188.3030  177.1690  138.2600 C   0  0  0  0  0  0  0  0  0  0  0  0
  188.1670  178.0810  140.5770 C   0  0  0  0  0  0  0  0  0  0  0  0
  190.2810  176.6820  140.2580 C   0  0  0  0  0  2  0  0  0  0  0  0
  189.3900  177.4820  141.0810 N   0  0  0  0  0  0  0  0  0  0  0  0
  190.7020  177.4960  139.0580 C   0  0  0  0  0  2  0  0  0  0  0  0
  189.7620  177.2260  137.8990 C   0  0  0  0  0  2  0  0  0  0  0  0
  191.3210  177.7820  142.5670 C   0  0  0  0  0  2  0  0  0  0  0  0
  189.3020  176.5760  143.3750 C   0  0  0  0  0  0  0  0  0  0  0  0
  188.4320  175.7710  142.9480 O   0  0  0  0  0  0  0  0  0  0  0  0
  191.6790  178.6760  143.6980 C   0  0  0  0  0  3  0  0  0  0  0  0
  189.8140  177.6630  142.4710 C   0  0  2  0  0  3  0  0  0  0  0  0
  191.3690  178.4380  144.9700 C   0  0  0  0  0  3  0  0  0  0  0  0
  190.6990  177.0690  146.7420 O   0  0  0  0  0  0  0  0  0  0  0  0
  189.7360  176.4500  144.7350 N   0  0  0  0  0  2  0  0  0  0  0  0
  190.6030  177.2950  145.5080 C   0  0  0  0  0  0  0  0  0  0  0  0
  187.4140  178.8800  141.4460 O   0  0  0  0  0  0  0  0  0  0  0  0
  186.3400  178.3720  142.2270 C   0  0  0  0  0  2  0  0  0  0  0  0
  185.0510  179.1200  141.9060 C   0  0  1  0  0  3  0  0  0  0  0  0
  184.5010  178.7880  140.5110 C   0  0  2  0  0  3  0  0  0  0  0  0
  184.7030  179.8860  139.6690 O   0  0  0  0  0  1  0  0  0  0  0  0
  183.0230  178.3700  140.4980 C   0  0  2  0  0  3  0  0  0  0  0  0
  182.8920  176.9910  140.0540 N   0  0  0  0  0  1  0  0  0  0  0  0
  182.2160  179.2690  139.5710 C   0  0  0  0  0  2  0  0  0  0  0  0
  180.4340  179.0280  139.8390 S   0  0  0  0  0  0  0  0  0  0  0  0
  180.5520  179.4560  141.6000 C   0  0  0  0  0  1  0  0  0  0  0  0
  184.0090  179.0430  143.0260 C   0  0  0  0  0  2  0  0  0  0  0  0
  184.4080  179.7840  144.1400 O   0  0  0  0  0  1  0  0  0  0  0  0
  1  4  2  0  0  0  0
  2  3  2  0  0  0  0
  3  1  1  0  0  0  0
  4  6  1  0  0  0  0
  4 18  1  0  0  0  0
  5  6  1  0  0  0  0
  7  5  1  0  0  0  0
  8  3  1  0  0  0  0
  8  7  1  0  0  0  0
  9 12  1  0  0  0  0
 10 16  1  0  0  0  0
 11 10  2  0  0  0  0
 12 14  2  0  0  0  0
 13  6  1  6  0  0  0
 13  9  1  0  0  0  0
 13 10  1  0  0  0  0
 14 17  1  0  0  0  0
 16 17  1  0  0  0  0
 17 15  2  0  0  0  0
 18 19  1  0  0  0  0
 20 19  1  1  0  0  0
 20 28  1  0  0  0  0
 21 22  1  6  0  0  0
 21 20  1  0  0  0  0
 23 24  1  6  0  0  0
 23 21  1  0  0  0  0
 25 26  1  0  0  0  0
 25 23  1  0  0  0  0
 26 27  1  0  0  0  0
 28 29  1  0  0  0  0
M  END
>  <MODEL>
3

>  <REMARK>
 VINA RESULT:      -6.8      2.703      6.385
  Name = 
  9 active torsions:
  status: ('A' for Active; 'I' for Inactive)
    1  A    between atoms: C_2  and  C_4
    2  A    between atoms: C_2  and  C_18
    3  A    between atoms: C_4  and  C_17
    4  A    between atoms: C_5  and  C_18
    5  A    between atoms: S_9  and  C_17
    6  A    between atoms: C_10  and  O_12
    7  A    between atoms: O_12  and  C_16
    8  A    between atoms: C_16  and  C_18
    9  A    between atoms: C_19  and  N_22
                            x       y       z     vdW  Elec       q    Type
                         _______ _______ _______ _____ _____    ______ ____

>  <TORSDO>
F 9

$$$$
=
 OpenBabel11042411003D

 29 30  0  0  1  0  0  0  0  0999 V2000
  185.6250  179.2820  140.2550 N   0  0  0  0  0  0  0  0  0  0  0  0
  183.8960  180.2110  139.0290 O   0  0  0  0  0  0  0  0  0  0  0  0
  184.2350  179.3770  139.9060 C   0  0  0  0  0  0  0  0  0  0  0  0
  186.1990  179.0250  141.4010 C   0  0  0  0  0  0  0  0  0  0  0  0
  184.0070  178.8570  142.7020 C   0  0  0  0  0  2  0  0  0  0  0  0
  185.4590  178.8480  142.6370 N   0  0  0  0  0  0  0  0  0  0  0  0
  183.4670  177.8070  141.7610 C   0  0  0  0  0  2  0  0  0  0  0  0
  183.1820  178.4280  140.4080 C   0  0  0  0  0  2  0  0  0  0  0  0
  186.5610  177.1830  144.0670 C   0  0  0  0  0  2  0  0  0  0  0  0
  185.3190  179.0790  145.0910 C   0  0  0  0  0  0  0  0  0  0  0  0
  184.2740  179.7560  144.8960 O   0  0  0  0  0  0  0  0  0  0  0  0
  187.8150  177.1090  144.8590 C   0  0  0  0  0  3  0  0  0  0  0  0
  186.1420  178.6310  143.9140 C   0  0  2  0  0  3  0  0  0  0  0  0
  187.9360  177.5350  146.1150 C   0  0  0  0  0  3  0  0  0  0  0  0
  187.0940  178.2010  148.1900 O   0  0  0  0  0  0  0  0  0  0  0  0
  185.7090  178.8020  146.4410 N   0  0  0  0  0  2  0  0  0  0  0  0
  186.8990  178.1770  146.9480 C   0  0  0  0  0  0  0  0  0  0  0  0
  187.5960  178.9420  141.4480 O   0  0  0  0  0  0  0  0  0  0  0  0
  188.3180  177.8020  140.9980 C   0  0  0  0  0  2  0  0  0  0  0  0
  189.2930  178.1950  139.8940 C   0  0  1  0  0  3  0  0  0  0  0  0
  190.5530  177.3170  139.8720 C   0  0  2  0  0  3  0  0  0  0  0  0
  190.1960  176.0010  140.1830 O   0  0  0  0  0  1  0  0  0  0  0  0
  191.6760  177.8000  140.8020 C   0  0  2  0  0  3  0  0  0  0  0  0
  192.9760  177.5030  140.2220 N   0  0  0  0  0  1  0  0  0  0  0  0
  191.5750  177.1270  142.1640 C   0  0  0  0  0  2  0  0  0  0  0  0
  191.2380  178.3560  143.4610 S   0  0  0  0  0  0  0  0  0  0  0  0
  191.5090  177.1540  144.7950 C   0  0  0  0  0  1  0  0  0  0  0  0
  188.6240  178.3680  138.5280 C   0  0  0  0  0  2  0  0  0  0  0  0
  189.0560  179.5370  137.8970 O   0  0  0  0  0  1  0  0  0  0  0  0
  1  4  2  0  0  0  0
  2  3  2  0  0  0  0
  3  1  1  0  0  0  0
  3  8  1  0  0  0  0
  4 18  1  0  0  0  0
  4  6  1  0  0  0  0
  6  5  1  0  0  0  0
  7  5  1  0  0  0  0
  8  7  1  0  0  0  0
  9 12  1  0  0  0  0
 10 16  1  0  0  0  0
 11 10  2  0  0  0  0
 12 14  2  0  0  0  0
 13  6  1  6  0  0  0
 13  9  1  0  0  0  0
 13 10  1  0  0  0  0
 14 17  1  0  0  0  0
 16 17  1  0  0  0  0
 17 15  2  0  0  0  0
 19 18  1  0  0  0  0
 20 28  1  6  0  0  0
 20 19  1  0  0  0  0
 21 20  1  0  0  0  0
 21 22  1  1  0  0  0
 21 23  1  0  0  0  0
 23 24  1  6  0  0  0
 23 25  1  0  0  0  0
 25 26  1  0  0  0  0
 26 27  1  0  0  0  0
 29 28  1  0  0  0  0
M  END
>  <MODEL>
4

>  <REMARK>
 VINA RESULT:      -6.8      2.796      5.833
  Name = 
  9 active torsions:
  status: ('A' for Active; 'I' for Inactive)
    1  A    between atoms: C_2  and  C_4
    2  A    between atoms: C_2  and  C_18
    3  A    between atoms: C_4  and  C_17
    4  A    between atoms: C_5  and  C_18
    5  A    between atoms: S_9  and  C_17
    6  A    between atoms: C_10  and  O_12
    7  A    between atoms: O_12  and  C_16
    8  A    between atoms: C_16  and  C_18
    9  A    between atoms: C_19  and  N_22
                            x       y       z     vdW  Elec       q    Type
                         _______ _______ _______ _____ _____    ______ ____

>  <TORSDO>
F 9

$$$$
=
 OpenBabel11042411003D

 29 30  0  0  1  0  0  0  0  0999 V2000
  185.8780  179.1190  140.2950 N   0  0  0  0  0  0  0  0  0  0  0  0
  184.1850  180.1280  139.0820 O   0  0  0  0  0  0  0  0  0  0  0  0
  184.4900  179.2960  139.9730 C   0  0  0  0  0  0  0  0  0  0  0  0
  186.4600  178.8530  141.4350 C   0  0  0  0  0  0  0  0  0  0  0  0
  184.2910  178.8600  142.7850 C   0  0  0  0  0  2  0  0  0  0  0  0
  185.7380  178.7540  142.6900 N   0  0  0  0  0  0  0  0  0  0  0  0
  183.6640  177.8250  141.8840 C   0  0  0  0  0  2  0  0  0  0  0  0
  183.3890  178.4300  140.5210 C   0  0  0  0  0  2  0  0  0  0  0  0
  186.9860  177.1150  144.0260 C   0  0  0  0  0  2  0  0  0  0  0  0
  185.5700  178.8210  145.1520 C   0  0  0  0  0  0  0  0  0  0  0  0
  184.4670  179.4090  144.9900 O   0  0  0  0  0  0  0  0  0  0  0  0
  188.2390  177.1100  144.8240 C   0  0  0  0  0  3  0  0  0  0  0  0
  186.4340  178.5250  143.9580 C   0  0  2  0  0  3  0  0  0  0  0  0
  188.3160  177.4670  146.1040 C   0  0  0  0  0  3  0  0  0  0  0  0
  187.4090  177.9250  148.2080 O   0  0  0  0  0  0  0  0  0  0  0  0
  185.9790  178.5010  146.4870 N   0  0  0  0  0  2  0  0  0  0  0  0
  187.2210  177.9590  146.9650 C   0  0  0  0  0  0  0  0  0  0  0  0
  187.8490  178.6790  141.4550 O   0  0  0  0  0  0  0  0  0  0  0  0
  188.4910  177.5190  140.9410 C   0  0  0  0  0  2  0  0  0  0  0  0
  189.5110  177.9050  139.8760 C   0  0  1  0  0  3  0  0  0  0  0  0
  190.7690  177.0240  139.9090 C   0  0  2  0  0  3  0  0  0  0  0  0
  191.7850  177.7060  140.5840 O   0  0  0  0  0  1  0  0  0  0  0  0
  191.2580  176.5710  138.5250 C   0  0  2  0  0  3  0  0  0  0  0  0
  190.8560  175.1970  138.2710 N   0  0  0  0  0  1  0  0  0  0  0  0
  192.7750  176.6700  138.4300 C   0  0  0  0  0  2  0  0  0  0  0  0
  193.3570  176.0440  136.8250 S   0  0  0  0  0  0  0  0  0  0  0  0
  194.2770  174.6790  137.5910 C   0  0  0  0  0  1  0  0  0  0  0  0
  188.8990  178.0740  138.4830 C   0  0  0  0  0  2  0  0  0  0  0  0
  189.0490  179.3830  138.0200 O   0  0  0  0  0  1  0  0  0  0  0  0
  1  4  2  0  0  0  0
  2  3  2  0  0  0  0
  3  1  1  0  0  0  0
  3  8  1  0  0  0  0
  4 18  1  0  0  0  0
  4  6  1  0  0  0  0
  6  5  1  0  0  0  0
  7  5  1  0  0  0  0
  8  7  1  0  0  0  0
  9 12  1  0  0  0  0
 10 16  1  0  0  0  0
 11 10  2  0  0  0  0
 12 14  2  0  0  0  0
 13  6  1  6  0  0  0
 13  9  1  0  0  0  0
 13 10  1  0  0  0  0
 14 17  1  0  0  0  0
 16 17  1  0  0  0  0
 17 15  2  0  0  0  0
 19 18  1  0  0  0  0
 20 28  1  6  0  0  0
 20 21  1  0  0  0  0
 20 19  1  0  0  0  0
 21 22  1  6  0  0  0
 23 24  1  1  0  0  0
 23 21  1  0  0  0  0
 25 23  1  0  0  0  0
 26 27  1  0  0  0  0
 26 25  1  0  0  0  0
 29 28  1  0  0  0  0
M  END
>  <MODEL>
5

>  <REMARK>
 VINA RESULT:      -6.8      2.802      5.731
  Name = 
  9 active torsions:
  status: ('A' for Active; 'I' for Inactive)
    1  A    between atoms: C_2  and  C_4
    2  A    between atoms: C_2  and  C_18
    3  A    between atoms: C_4  and  C_17
    4  A    between atoms: C_5  and  C_18
    5  A    between atoms: S_9  and  C_17
    6  A    between atoms: C_10  and  O_12
    7  A    between atoms: O_12  and  C_16
    8  A    between atoms: C_16  and  C_18
    9  A    between atoms: C_19  and  N_22
                            x       y       z     vdW  Elec       q    Type
                         _______ _______ _______ _____ _____    ______ ____

>  <TORSDO>
F 9

$$$$
=
 OpenBabel11042411003D

 29 30  0  0  1  0  0  0  0  0999 V2000
  191.9650  176.2800  138.4380 N   0  0  0  0  0  0  0  0  0  0  0  0
  193.9370  176.9020  137.3980 O   0  0  0  0  0  0  0  0  0  0  0  0
  192.8100  176.3590  137.2790 C   0  0  0  0  0  0  0  0  0  0  0  0
  190.6650  176.3510  138.5490 C   0  0  0  0  0  0  0  0  0  0  0  0
  190.2600  176.7460  136.0580 C   0  0  0  0  0  2  0  0  0  0  0  0
  189.7860  176.6160  137.4260 N   0  0  0  0  0  0  0  0  0  0  0  0
  191.0200  175.4970  135.6820 C   0  0  0  0  0  2  0  0  0  0  0  0
  192.4960  175.6870  135.9700 C   0  0  0  0  0  2  0  0  0  0  0  0
  187.5890  176.2130  136.4030 C   0  0  0  0  0  2  0  0  0  0  0  0
  187.9300  178.1760  137.8920 C   0  0  0  0  0  0  0  0  0  0  0  0
  188.8120  179.0350  138.1570 O   0  0  0  0  0  0  0  0  0  0  0  0
  186.2850  175.6540  136.8440 C   0  0  0  0  0  3  0  0  0  0  0  0
  188.3380  176.7580  137.6030 C   0  0  2  0  0  3  0  0  0  0  0  0
  185.3250  176.3630  137.4330 C   0  0  0  0  0  3  0  0  0  0  0  0
  184.2590  178.3550  138.0290 O   0  0  0  0  0  0  0  0  0  0  0  0
  186.5560  178.5810  137.9240 N   0  0  0  0  0  2  0  0  0  0  0  0
  185.3600  177.7950  137.7930 C   0  0  0  0  0  0  0  0  0  0  0  0
  190.0900  176.1890  139.8160 O   0  0  0  0  0  0  0  0  0  0  0  0
  190.2320  177.1460  140.8580 C   0  0  0  0  0  2  0  0  0  0  0  0
  188.9370  177.2580  141.6540 C   0  0  1  0  0  3  0  0  0  0  0  0
  189.0710  176.7230  143.0870 C   0  0  2  0  0  3  0  0  0  0  0  0
  187.9100  176.0180  143.4200 O   0  0  0  0  0  1  0  0  0  0  0  0
  189.3600  177.8040  144.1410 C   0  0  2  0  0  3  0  0  0  0  0  0
  190.7620  177.7760  144.5210 N   0  0  0  0  0  1  0  0  0  0  0  0
  188.5040  177.5890  145.3820 C   0  0  0  0  0  2  0  0  0  0  0  0
  189.5440  177.1440  146.8050 S   0  0  0  0  0  0  0  0  0  0  0  0
  188.3200  177.7490  148.0020 C   0  0  0  0  0  1  0  0  0  0  0  0
  188.2840  178.6400  141.5580 C   0  0  0  0  0  2  0  0  0  0  0  0
  186.9050  178.5360  141.3640 O   0  0  0  0  0  1  0  0  0  0  0  0
  1  4  2  0  0  0  0
  3  2  2  0  0  0  0
  3  1  1  0  0  0  0
  4 18  1  0  0  0  0
  5  6  1  0  0  0  0
  6 13  1  0  0  0  0
  6  4  1  0  0  0  0
  7  8  1  0  0  0  0
  7  5  1  0  0  0  0
  8  3  1  0  0  0  0
  9 12  1  0  0  0  0
 10 16  1  0  0  0  0
 10 11  2  0  0  0  0
 12 14  2  0  0  0  0
 13  9  1  6  0  0  0
 13 10  1  0  0  0  0
 14 17  1  0  0  0  0
 17 16  1  0  0  0  0
 17 15  2  0  0  0  0
 18 19  1  0  0  0  0
 20 19  1  1  0  0  0
 20 21  1  0  0  0  0
 21 22  1  1  0  0  0
 21 23  1  0  0  0  0
 23 24  1  1  0  0  0
 23 25  1  0  0  0  0
 25 26  1  0  0  0  0
 26 27  1  0  0  0  0
 28 20  1  0  0  0  0
 29 28  1  0  0  0  0
M  END
>  <MODEL>
6

>  <REMARK>
 VINA RESULT:      -6.7      3.181      7.522
  Name = 
  9 active torsions:
  status: ('A' for Active; 'I' for Inactive)
    1  A    between atoms: C_2  and  C_4
    2  A    between atoms: C_2  and  C_18
    3  A    between atoms: C_4  and  C_17
    4  A    between atoms: C_5  and  C_18
    5  A    between atoms: S_9  and  C_17
    6  A    between atoms: C_10  and  O_12
    7  A    between atoms: O_12  and  C_16
    8  A    between atoms: C_16  and  C_18
    9  A    between atoms: C_19  and  N_22
                            x       y       z     vdW  Elec       q    Type
                         _______ _______ _______ _____ _____    ______ ____

>  <TORSDO>
F 9

$$$$
=
 OpenBabel11042411003D

 29 30  0  0  1  0  0  0  0  0999 V2000
  191.1160  176.5890  144.3440 N   0  0  0  0  0  0  0  0  0  0  0  0
  192.4260  174.7090  144.6710 O   0  0  0  0  0  0  0  0  0  0  0  0
  191.8340  175.6850  145.1980 C   0  0  0  0  0  0  0  0  0  0  0  0
  190.0130  177.2590  144.5500 C   0  0  0  0  0  0  0  0  0  0  0  0
  189.6240  176.3100  146.8900 C   0  0  0  0  0  2  0  0  0  0  0  0
  189.2220  177.1300  145.7600 N   0  0  0  0  0  0  0  0  0  0  0  0
  190.9910  176.7510  147.3540 C   0  0  0  0  0  2  0  0  0  0  0  0
  192.0590  175.9240  146.6660 C   0  0  0  0  0  2  0  0  0  0  0  0
  187.5570  177.9160  147.3860 C   0  0  0  0  0  2  0  0  0  0  0  0
  186.8460  177.2500  145.0980 C   0  0  0  0  0  0  0  0  0  0  0  0
  187.1200  176.3850  144.2240 O   0  0  0  0  0  0  0  0  0  0  0  0
  186.8120  179.1770  147.6370 C   0  0  0  0  0  3  0  0  0  0  0  0
  187.9520  177.8440  145.9250 C   0  0  2  0  0  3  0  0  0  0  0  0
  185.6590  179.4970  147.0530 C   0  0  0  0  0  3  0  0  0  0  0  0
  183.7090  179.0100  145.8630 O   0  0  0  0  0  0  0  0  0  0  0  0
  185.4840  177.6710  145.2340 N   0  0  0  0  0  2  0  0  0  0  0  0
  184.9180  178.7150  146.0430 C   0  0  0  0  0  0  0  0  0  0  0  0
  189.5540  178.1220  143.5480 O   0  0  0  0  0  0  0  0  0  0  0  0
  190.1420  178.1880  142.2550 C   0  0  0  0  0  2  0  0  0  0  0  0
  189.0610  178.2830  141.1850 C   0  0  1  0  0  3  0  0  0  0  0  0
  189.2910  177.3120  140.0170 C   0  0  2  0  0  3  0  0  0  0  0  0
  190.2360  176.3560  140.4000 O   0  0  0  0  0  1  0  0  0  0  0  0
  189.7190  177.9920  138.7070 C   0  0  2  0  0  3  0  0  0  0  0  0
  188.7350  178.9850  138.3080 N   0  0  0  0  0  1  0  0  0  0  0  0
  189.8680  176.9650  137.5910 C   0  0  0  0  0  2  0  0  0  0  0  0
  189.2040  177.6190  136.0300 S   0  0  0  0  0  0  0  0  0  0  0  0
  188.0030  176.2660  135.8710 C   0  0  0  0  0  1  0  0  0  0  0  0
  187.6390  178.2540  141.7550 C   0  0  0  0  0  2  0  0  0  0  0  0
  186.7670  179.0200  140.9800 O   0  0  0  0  0  1  0  0  0  0  0  0
  1  4  2  0  0  0  0
  1  3  1  0  0  0  0
  2  3  2  0  0  0  0
  3  8  1  0  0  0  0
  4  6  1  0  0  0  0
  5  7  1  0  0  0  0
  6  5  1  0  0  0  0
  8  7  1  0  0  0  0
  9 12  1  0  0  0  0
 10 16  1  0  0  0  0
 10 13  1  0  0  0  0
 11 10  2  0  0  0  0
 13  6  1  1  0  0  0
 13  9  1  0  0  0  0
 14 12  2  0  0  0  0
 15 17  2  0  0  0  0
 16 17  1  0  0  0  0
 17 14  1  0  0  0  0
 18  4  1  0  0  0  0
 19 18  1  0  0  0  0
 20 28  1  1  0  0  0
 20 19  1  0  0  0  0
 21 22  1  1  0  0  0
 21 20  1  0  0  0  0
 23 24  1  6  0  0  0
 23 21  1  0  0  0  0
 25 23  1  0  0  0  0
 26 25  1  0  0  0  0
 27 26  1  0  0  0  0
 29 28  1  0  0  0  0
M  END
>  <MODEL>
7

>  <REMARK>
 VINA RESULT:      -6.7      1.522      2.094
  Name = 
  9 active torsions:
  status: ('A' for Active; 'I' for Inactive)
    1  A    between atoms: C_2  and  C_4
    2  A    between atoms: C_2  and  C_18
    3  A    between atoms: C_4  and  C_17
    4  A    between atoms: C_5  and  C_18
    5  A    between atoms: S_9  and  C_17
    6  A    between atoms: C_10  and  O_12
    7  A    between atoms: O_12  and  C_16
    8  A    between atoms: C_16  and  C_18
    9  A    between atoms: C_19  and  N_22
                            x       y       z     vdW  Elec       q    Type
                         _______ _______ _______ _____ _____    ______ ____

>  <TORSDO>
F 9

$$$$
=
 OpenBabel11042411003D

 29 30  0  0  1  0  0  0  0  0999 V2000
  188.4350  177.3010  146.4070 N   0  0  0  0  0  0  0  0  0  0  0  0
  189.1670  178.0590  148.4670 O   0  0  0  0  0  0  0  0  0  0  0  0
  189.4670  177.4910  147.3870 C   0  0  0  0  0  0  0  0  0  0  0  0
  188.4880  177.3210  145.1010 C   0  0  0  0  0  0  0  0  0  0  0  0
  190.9780  177.8830  144.9990 C   0  0  0  0  0  2  0  0  0  0  0  0
  189.6950  177.6390  144.3610 N   0  0  0  0  0  0  0  0  0  0  0  0
  191.3360  176.6890  145.8510 C   0  0  0  0  0  2  0  0  0  0  0  0
  190.8470  176.9050  147.2700 C   0  0  0  0  0  2  0  0  0  0  0  0
  188.3330  178.1210  142.3750 C   0  0  0  0  0  2  0  0  0  0  0  0
  190.1690  176.4500  142.2500 C   0  0  0  0  0  0  0  0  0  0  0  0
  190.6950  175.5500  142.9580 O   0  0  0  0  0  0  0  0  0  0  0  0
  188.4900  178.9180  141.1310 C   0  0  0  0  0  3  0  0  0  0  0  0
  189.6970  177.7220  142.8980 C   0  0  2  0  0  3  0  0  0  0  0  0
  189.0590  178.4640  140.0160 C   0  0  0  0  0  3  0  0  0  0  0  0
  189.8410  176.7770  138.6010 O   0  0  0  0  0  0  0  0  0  0  0  0
  190.0860  176.2400  140.8350 N   0  0  0  0  0  2  0  0  0  0  0  0
  189.6620  177.1340  139.7940 C   0  0  0  0  0  0  0  0  0  0  0  0
  187.3200  177.0500  144.3770 O   0  0  0  0  0  0  0  0  0  0  0  0
  186.0200  177.1360  144.9470 C   0  0  0  0  0  2  0  0  0  0  0  0
  185.7530  178.5500  145.4500 C   0  0  1  0  0  3  0  0  0  0  0  0
  184.6820  179.2820  144.6280 C   0  0  2  0  0  3  0  0  0  0  0  0
  183.5110  179.3730  145.3850 O   0  0  0  0  0  1  0  0  0  0  0  0
  184.3870  178.6430  143.2620 C   0  0  2  0  0  3  0  0  0  0  0  0
  185.0600  179.3790  142.2040 N   0  0  0  0  0  1  0  0  0  0  0  0
  182.8900  178.6310  142.9850 C   0  0  0  0  0  2  0  0  0  0  0  0
  182.5730  178.5910  141.1950 S   0  0  0  0  0  0  0  0  0  0  0  0
  180.9310  179.3430  141.3790 C   0  0  0  0  0  1  0  0  0  0  0  0
  185.5440  178.6260  146.9650 C   0  0  0  0  0  2  0  0  0  0  0  0
  186.0590  179.8130  147.4890 O   0  0  0  0  0  1  0  0  0  0  0  0
  1  3  1  0  0  0  0
  3  2  2  0  0  0  0
  4  1  2  0  0  0  0
  5  7  1  0  0  0  0
  6  5  1  0  0  0  0
  6  4  1  0  0  0  0
  7  8  1  0  0  0  0
  8  3  1  0  0  0  0
 10 13  1  0  0  0  0
 10 11  2  0  0  0  0
 12  9  1  0  0  0  0
 13  9  1  6  0  0  0
 13  6  1  0  0  0  0
 14 12  2  0  0  0  0
 15 17  2  0  0  0  0
 16 10  1  0  0  0  0
 17 14  1  0  0  0  0
 17 16  1  0  0  0  0
 18 19  1  0  0  0  0
 18  4  1  0  0  0  0
 20 19  1  6  0  0  0
 20 28  1  0  0  0  0
 21 22  1  1  0  0  0
 21 20  1  0  0  0  0
 23 24  1  6  0  0  0
 23 21  1  0  0  0  0
 25 23  1  0  0  0  0
 26 27  1  0  0  0  0
 26 25  1  0  0  0  0
 28 29  1  0  0  0  0
M  END
>  <MODEL>
8

>  <REMARK>
 VINA RESULT:      -6.7      2.467      5.386
  Name = 
  9 active torsions:
  status: ('A' for Active; 'I' for Inactive)
    1  A    between atoms: C_2  and  C_4
    2  A    between atoms: C_2  and  C_18
    3  A    between atoms: C_4  and  C_17
    4  A    between atoms: C_5  and  C_18
    5  A    between atoms: S_9  and  C_17
    6  A    between atoms: C_10  and  O_12
    7  A    between atoms: O_12  and  C_16
    8  A    between atoms: C_16  and  C_18
    9  A    between atoms: C_19  and  N_22
                            x       y       z     vdW  Elec       q    Type
                         _______ _______ _______ _____ _____    ______ ____

>  <TORSDO>
F 9

$$$$
=
 OpenBabel11042411003D

 29 30  0  0  1  0  0  0  0  0999 V2000
  191.7070  177.0260  140.2320 N   0  0  0  0  0  0  0  0  0  0  0  0
  193.8340  177.8360  139.8140 O   0  0  0  0  0  0  0  0  0  0  0  0
  192.9060  177.0740  139.4430 C   0  0  0  0  0  0  0  0  0  0  0  0
  190.4600  176.8620  139.8760 C   0  0  0  0  0  0  0  0  0  0  0  0
  190.9660  176.7570  137.3750 C   0  0  0  0  0  2  0  0  0  0  0  0
  190.0370  176.7650  138.4920 N   0  0  0  0  0  0  0  0  0  0  0  0
  191.9550  175.6330  137.5670 C   0  0  0  0  0  2  0  0  0  0  0  0
  193.1840  176.1480  138.2910 C   0  0  0  0  0  2  0  0  0  0  0  0
  188.4510  175.8650  136.8470 C   0  0  0  0  0  2  0  0  0  0  0  0
  187.9440  177.9920  138.0310 C   0  0  0  0  0  0  0  0  0  0  0  0
  188.5400  179.0210  138.4470 O   0  0  0  0  0  0  0  0  0  0  0  0
  187.1660  175.1190  136.8880 C   0  0  0  0  0  3  0  0  0  0  0  0
  188.6210  176.6530  138.1290 C   0  0  2  0  0  3  0  0  0  0  0  0
  185.9690  175.6930  136.9870 C   0  0  0  0  0  3  0  0  0  0  0  0
  184.4950  177.5000  136.8530 O   0  0  0  0  0  0  0  0  0  0  0  0
  186.6140  178.1370  137.5190 N   0  0  0  0  0  2  0  0  0  0  0  0
  185.6710  177.1350  137.1060 C   0  0  0  0  0  0  0  0  0  0  0  0
  189.4790  176.8030  140.8740 O   0  0  0  0  0  0  0  0  0  0  0  0
  189.4380  177.7050  141.9720 C   0  0  0  0  0  2  0  0  0  0  0  0
  189.4220  176.9370  143.2890 C   0  0  1  0  0  3  0  0  0  0  0  0
  188.0070  176.7650  143.8610 C   0  0  2  0  0  3  0  0  0  0  0  0
  187.0940  177.4020  143.0150 O   0  0  0  0  0  1  0  0  0  0  0  0
  187.8420  177.2710  145.3020 C   0  0  2  0  0  3  0  0  0  0  0  0
  186.7570  178.2360  145.3780 N   0  0  0  0  0  1  0  0  0  0  0  0
  189.1260  177.9270  145.7930 C   0  0  0  0  0  2  0  0  0  0  0  0
  189.8020  177.0210  147.2170 S   0  0  0  0  0  0  0  0  0  0  0  0
  188.7220  177.8840  148.3930 C   0  0  0  0  0  1  0  0  0  0  0  0
  190.2440  175.6460  143.2480 C   0  0  0  0  0  2  0  0  0  0  0  0
  191.5530  175.8650  143.6800 O   0  0  0  0  0  1  0  0  0  0  0  0
  3  2  2  0  0  0  0
  3  1  1  0  0  0  0
  4  1  2  0  0  0  0
  4 18  1  0  0  0  0
  5  7  1  0  0  0  0
  5  6  1  0  0  0  0
  6  4  1  0  0  0  0
  7  8  1  0  0  0  0
  8  3  1  0  0  0  0
  9 12  1  0  0  0  0
 10 13  1  0  0  0  0
 10 11  2  0  0  0  0
 12 14  2  0  0  0  0
 13  9  1  6  0  0  0
 13  6  1  0  0  0  0
 14 17  1  0  0  0  0
 15 17  2  0  0  0  0
 16 10  1  0  0  0  0
 17 16  1  0  0  0  0
 18 19  1  0  0  0  0
 20 19  1  6  0  0  0
 20 21  1  0  0  0  0
 21 22  1  6  0  0  0
 21 23  1  0  0  0  0
 23 24  1  6  0  0  0
 23 25  1  0  0  0  0
 25 26  1  0  0  0  0
 26 27  1  0  0  0  0
 28 20  1  0  0  0  0
 28 29  1  0  0  0  0
M  END
>  <MODEL>
9

>  <REMARK>
 VINA RESULT:      -6.6      3.090      7.124
  Name = 
  9 active torsions:
  status: ('A' for Active; 'I' for Inactive)
    1  A    between atoms: C_2  and  C_4
    2  A    between atoms: C_2  and  C_18
    3  A    between atoms: C_4  and  C_17
    4  A    between atoms: C_5  and  C_18
    5  A    between atoms: S_9  and  C_17
    6  A    between atoms: C_10  and  O_12
    7  A    between atoms: O_12  and  C_16
    8  A    between atoms: C_16  and  C_18
    9  A    between atoms: C_19  and  N_22
                            x       y       z     vdW  Elec       q    Type
                         _______ _______ _______ _____ _____    ______ ____

>  <TORSDO>
F 9

$$$$
