=
 OpenBabel11042410493D

 31 34  0  0  1  0  0  0  0  0999 V2000
  191.2340  178.0620  143.6970 C   0  0  0  0  0  2  0  0  0  0  0  0
  189.4290  176.1940  142.5200 C   0  0  0  0  0  2  0  0  0  0  0  0
  191.2830  177.3940  141.2330 C   0  0  0  0  0  0  0  0  0  0  0  0
  189.9020  176.9800  141.3730 N   0  0  0  0  0  0  0  0  0  0  0  0
  192.0560  176.3070  137.6420 C   0  0  2  0  0  3  0  0  0  0  0  0
  191.2750  176.8750  138.7810 C   0  0  0  0  0  0  0  0  0  0  0  0
  189.8430  176.6920  136.9850 C   0  0  0  0  0  3  0  0  0  0  0  0
  188.8970  177.5790  140.5470 C   0  0  0  0  0  0  0  0  0  0  0  0
  186.8930  178.6100  139.8800 N   0  0  0  0  0  0  0  0  0  0  0  0
  191.1670  176.3360  136.4790 N   0  0  0  0  0  0  0  0  0  0  0  0
  187.6140  178.1130  141.0540 C   0  0  0  0  0  3  0  0  0  0  0  0
  193.3420  177.7920  139.9300 C   0  0  0  0  0  1  0  0  0  0  0  0
  190.6870  176.7510  144.2890 C   0  0  1  0  0  3  0  0  0  0  0  0
  191.9100  177.3580  140.0360 C   0  0  0  0  0  0  0  0  0  0  0  0
  188.9330  177.6100  139.2380 C   0  0  0  0  0  0  0  0  0  0  0  0
  192.0820  177.8170  142.4540 C   0  0  0  0  0  2  0  0  0  0  0  0
  190.4980  175.7560  143.3120 O   0  0  0  0  0  0  0  0  0  0  0  0
  190.0210  177.0570  138.4100 C   0  0  0  0  0  0  0  0  0  0  0  0
  187.6590  178.1670  138.7100 C   0  0  1  0  0  3  0  0  0  0  0  0
  192.4440  174.8600  137.9230 C   0  0  0  0  0  2  0  0  0  0  0  0
  195.0490  174.5720  137.9900 N   0  0  0  0  0  0  0  0  0  0  0  0
  193.9000  174.7000  137.9590 C   0  0  0  0  0  0  0  0  0  0  0  0
  186.8720  177.0930  137.9650 C   0  0  0  0  0  2  0  0  0  0  0  0
  185.8640  177.7150  137.0110 C   0  0  2  0  0  3  0  0  0  0  0  0
  184.4440  177.4030  137.4520 C   0  0  0  0  0  1  0  0  0  0  0  0
  187.0140  177.9670  134.7150 C   0  0  0  0  0  1  0  0  0  0  0  0
  185.5400  176.2090  135.2130 O   0  0  0  0  0  0  0  0  0  0  0  0
  186.0950  177.2200  135.6170 C   0  0  0  0  0  0  0  0  0  0  0  0
  191.5750  176.2320  145.4160 C   0  0  0  0  0  2  0  0  0  0  0  0
  189.6640  176.9340  146.8270 C   0  0  0  0  0  1  0  0  0  0  0  0
  191.1710  176.7940  146.7700 C   0  0  0  0  0  2  0  0  0  0  0  0
  1 13  1  0  0  0  0
  2 17  1  0  0  0  0
  3  4  1  0  0  0  0
  3 16  1  0  0  0  0
  4  2  1  0  0  0  0
  5 20  1  1  0  0  0
  5  6  1  0  0  0  0
  6 14  1  0  0  0  0
  7 18  1  0  0  0  0
  8 11  1  0  0  0  0
  8  4  1  0  0  0  0
  9 11  2  0  0  0  0
 10  7  2  0  0  0  0
 10  5  1  0  0  0  0
 12 14  1  0  0  0  0
 13 29  1  1  0  0  0
 14  3  2  0  0  0  0
 15  8  2  0  0  0  0
 16  1  1  0  0  0  0
 17 13  1  0  0  0  0
 18  6  2  0  0  0  0
 18 15  1  0  0  0  0
 19 23  1  1  0  0  0
 19 15  1  0  0  0  0
 19  9  1  0  0  0  0
 20 22  1  0  0  0  0
 22 21  3  0  0  0  0
 24 25  1  1  0  0  0
 24 23  1  0  0  0  0
 26 28  1  0  0  0  0
 27 28  2  0  0  0  0
 28 24  1  0  0  0  0
 29 31  1  0  0  0  0
 31 30  1  0  0  0  0
M  END
>  <MODEL>
1

>  <REMARK>
 VINA RESULT:      -6.8      0.000      0.000
  Name = 
  7 active torsions:
  status: ('A' for Active; 'I' for Inactive)
    1  A    between atoms: C_2  and  C_13
    2  A    between atoms: C_7  and  C_21
    3  A    between atoms: C_7  and  C_22
    4  A    between atoms: C_9  and  C_13
    5  A    between atoms: C_16  and  C_30
    6  A    between atoms: C_21  and  C_31
    7  A    between atoms: C_24  and  C_30
                            x       y       z     vdW  Elec       q    Type
                         _______ _______ _______ _____ _____    ______ ____

>  <TORSDO>
F 7

$$$$
=
 OpenBabel11042410493D

 31 34  0  0  1  0  0  0  0  0999 V2000
  190.3420  177.9760  143.3100 C   0  0  0  0  0  2  0  0  0  0  0  0
  187.9600  176.4090  143.3470 C   0  0  0  0  0  2  0  0  0  0  0  0
  188.5780  178.0240  141.4640 C   0  0  0  0  0  0  0  0  0  0  0  0
  187.6300  177.5090  142.4310 N   0  0  0  0  0  0  0  0  0  0  0  0
  186.4860  178.0230  138.2540 C   0  0  2  0  0  3  0  0  0  0  0  0
  186.8040  178.2070  139.7020 C   0  0  0  0  0  0  0  0  0  0  0  0
  184.5260  178.4480  139.4610 C   0  0  0  0  0  3  0  0  0  0  0  0
  186.4440  178.2550  142.7240 C   0  0  0  0  0  0  0  0  0  0  0  0
  184.7260  179.3130  143.9300 N   0  0  0  0  0  0  0  0  0  0  0  0
  185.0610  178.3230  138.1060 N   0  0  0  0  0  0  0  0  0  0  0  0
  185.9660  178.5530  144.0930 C   0  0  0  0  0  3  0  0  0  0  0  0
  189.2040  178.8850  139.2370 C   0  0  0  0  0  1  0  0  0  0  0  0
  190.1560  176.5240  143.7810 C   0  0  1  0  0  3  0  0  0  0  0  0
  188.1930  178.3580  140.2120 C   0  0  0  0  0  0  0  0  0  0  0  0
  185.5740  178.6500  141.8280 C   0  0  0  0  0  0  0  0  0  0  0  0
  190.0500  178.1360  141.8210 C   0  0  0  0  0  2  0  0  0  0  0  0
  189.1940  175.8300  143.0230 O   0  0  0  0  0  0  0  0  0  0  0  0
  185.6880  178.4120  140.3780 C   0  0  0  0  0  0  0  0  0  0  0  0
  184.3940  179.2580  142.5020 C   0  0  1  0  0  3  0  0  0  0  0  0
  186.7270  176.5800  137.8280 C   0  0  0  0  0  2  0  0  0  0  0  0
  188.7150  176.4150  136.1270 N   0  0  0  0  0  0  0  0  0  0  0  0
  187.8370  176.4880  136.8760 C   0  0  0  0  0  0  0  0  0  0  0  0
  183.1570  178.3900  142.3010 C   0  0  0  0  0  2  0  0  0  0  0  0
  181.8860  179.1680  142.6110 C   0  0  2  0  0  3  0  0  0  0  0  0
  181.1920  178.5980  143.8360 C   0  0  0  0  0  1  0  0  0  0  0  0
  180.8610  177.9090  140.6050 C   0  0  0  0  0  1  0  0  0  0  0  0
  180.2880  180.1210  141.1470 O   0  0  0  0  0  0  0  0  0  0  0  0
  180.9620  179.1430  141.4330 C   0  0  0  0  0  0  0  0  0  0  0  0
  191.4790  175.7640  143.7900 C   0  0  0  0  0  2  0  0  0  0  0  0
  191.5660  176.5740  146.1290 C   0  0  0  0  0  1  0  0  0  0  0  0
  191.9440  175.4390  145.2000 C   0  0  0  0  0  2  0  0  0  0  0  0
  1 13  1  0  0  0  0
  3 16  1  0  0  0  0
  3  4  1  0  0  0  0
  4  8  1  0  0  0  0
  4  2  1  0  0  0  0
  5 20  1  1  0  0  0
  5  6  1  0  0  0  0
  6 14  1  0  0  0  0
  6 18  2  0  0  0  0
  7 18  1  0  0  0  0
  8 11  1  0  0  0  0
  9 11  2  0  0  0  0
 10  5  1  0  0  0  0
 10  7  2  0  0  0  0
 12 14  1  0  0  0  0
 13 29  1  6  0  0  0
 14  3  2  0  0  0  0
 15 19  1  0  0  0  0
 15  8  2  0  0  0  0
 16  1  1  0  0  0  0
 17  2  1  0  0  0  0
 17 13  1  0  0  0  0
 18 15  1  0  0  0  0
 19 23  1  1  0  0  0
 19  9  1  0  0  0  0
 21 22  3  0  0  0  0
 22 20  1  0  0  0  0
 23 24  1  0  0  0  0
 24 25  1  1  0  0  0
 26 28  1  0  0  0  0
 27 28  2  0  0  0  0
 28 24  1  0  0  0  0
 29 31  1  0  0  0  0
 31 30  1  0  0  0  0
M  END
>  <MODEL>
2

>  <REMARK>
 VINA RESULT:      -6.2      3.341      5.075
  Name = 
  7 active torsions:
  status: ('A' for Active; 'I' for Inactive)
    1  A    between atoms: C_2  and  C_13
    2  A    between atoms: C_7  and  C_21
    3  A    between atoms: C_7  and  C_22
    4  A    between atoms: C_9  and  C_13
    5  A    between atoms: C_16  and  C_30
    6  A    between atoms: C_21  and  C_31
    7  A    between atoms: C_24  and  C_30
                            x       y       z     vdW  Elec       q    Type
                         _______ _______ _______ _____ _____    ______ ____

>  <TORSDO>
F 7

$$$$
=
 OpenBabel11042410493D

 31 34  0  0  1  0  0  0  0  0999 V2000
  191.1540  177.9350  143.2250 C   0  0  0  0  0  2  0  0  0  0  0  0
  188.7830  176.4430  142.6950 C   0  0  0  0  0  2  0  0  0  0  0  0
  190.3870  177.2660  140.8830 C   0  0  0  0  0  0  0  0  0  0  0  0
  189.0500  177.1230  141.4210 N   0  0  0  0  0  0  0  0  0  0  0  0
  189.9080  176.0440  137.2840 C   0  0  2  0  0  3  0  0  0  0  0  0
  189.5960  176.7530  138.5600 C   0  0  0  0  0  0  0  0  0  0  0  0
  187.7090  176.8430  137.2420 C   0  0  0  0  0  3  0  0  0  0  0  0
  187.9800  177.9010  140.8710 C   0  0  0  0  0  0  0  0  0  0  0  0
  186.0920  179.2930  140.7270 N   0  0  0  0  0  0  0  0  0  0  0  0
  188.7490  176.2390  136.4110 N   0  0  0  0  0  0  0  0  0  0  0  0
  187.0110  178.6700  141.6820 C   0  0  0  0  0  3  0  0  0  0  0  0
  192.0340  177.2610  139.0440 C   0  0  0  0  0  1  0  0  0  0  0  0
  190.5670  176.7540  144.0160 C   0  0  1  0  0  3  0  0  0  0  0  0
  190.6340  177.1090  139.5630 C   0  0  0  0  0  0  0  0  0  0  0  0
  187.6520  177.9210  139.6040 C   0  0  0  0  0  0  0  0  0  0  0  0
  191.5600  177.5310  141.8110 C   0  0  0  0  0  2  0  0  0  0  0  0
  189.9330  175.8110  143.1860 O   0  0  0  0  0  0  0  0  0  0  0  0
  188.3430  177.1690  138.5400 C   0  0  0  0  0  0  0  0  0  0  0  0
  186.4040  178.7100  139.4170 C   0  0  1  0  0  3  0  0  0  0  0  0
  190.0890  174.5500  137.5270 C   0  0  0  0  0  2  0  0  0  0  0  0
  192.5160  173.7790  136.9040 N   0  0  0  0  0  0  0  0  0  0  0  0
  191.4450  174.1170  137.1790 C   0  0  0  0  0  0  0  0  0  0  0  0
  185.2580  177.8040  138.9790 C   0  0  0  0  0  2  0  0  0  0  0  0
  183.9100  178.4320  139.2990 C   0  0  2  0  0  3  0  0  0  0  0  0
  183.2140  177.6720  140.4150 C   0  0  0  0  0  1  0  0  0  0  0  0
  181.8380  179.3310  138.0510 C   0  0  0  0  0  1  0  0  0  0  0  0
  183.3260  177.7850  137.0980 O   0  0  0  0  0  0  0  0  0  0  0  0
  183.0470  178.4620  138.0760 C   0  0  0  0  0  0  0  0  0  0  0  0
  191.6260  176.0770  144.8820 C   0  0  0  0  0  2  0  0  0  0  0  0
  190.1160  177.0130  146.6080 C   0  0  0  0  0  1  0  0  0  0  0  0
  191.5050  176.4690  146.3460 C   0  0  0  0  0  2  0  0  0  0  0  0
  1 13  1  0  0  0  0
  2 17  1  0  0  0  0
  3  4  1  0  0  0  0
  3 16  1  0  0  0  0
  4  2  1  0  0  0  0
  5 20  1  1  0  0  0
  5  6  1  0  0  0  0
  6 14  1  0  0  0  0
  7 18  1  0  0  0  0
  8  4  1  0  0  0  0
  8 11  1  0  0  0  0
  9 11  2  0  0  0  0
 10  7  2  0  0  0  0
 10  5  1  0  0  0  0
 12 14  1  0  0  0  0
 13 29  1  6  0  0  0
 14  3  2  0  0  0  0
 15  8  2  0  0  0  0
 16  1  1  0  0  0  0
 17 13  1  0  0  0  0
 18  6  2  0  0  0  0
 18 15  1  0  0  0  0
 19 23  1  1  0  0  0
 19 15  1  0  0  0  0
 19  9  1  0  0  0  0
 21 22  3  0  0  0  0
 22 20  1  0  0  0  0
 23 24  1  0  0  0  0
 24 25  1  1  0  0  0
 26 28  1  0  0  0  0
 27 28  2  0  0  0  0
 28 24  1  0  0  0  0
 29 31  1  0  0  0  0
 31 30  1  0  0  0  0
M  END
>  <MODEL>
3

>  <REMARK>
 VINA RESULT:      -6.2      1.609      2.209
  Name = 
  7 active torsions:
  status: ('A' for Active; 'I' for Inactive)
    1  A    between atoms: C_2  and  C_13
    2  A    between atoms: C_7  and  C_21
    3  A    between atoms: C_7  and  C_22
    4  A    between atoms: C_9  and  C_13
    5  A    between atoms: C_16  and  C_30
    6  A    between atoms: C_21  and  C_31
    7  A    between atoms: C_24  and  C_30
                            x       y       z     vdW  Elec       q    Type
                         _______ _______ _______ _____ _____    ______ ____

>  <TORSDO>
F 7

$$$$
=
 OpenBabel11042410493D

 31 34  0  0  1  0  0  0  0  0999 V2000
  187.0870  175.8040  135.8500 C   0  0  0  0  0  2  0  0  0  0  0  0
  189.0740  174.0320  136.8710 C   0  0  0  0  0  2  0  0  0  0  0  0
  188.6290  176.3690  137.8060 C   0  0  0  0  0  0  0  0  0  0  0  0
  189.5370  175.3540  137.3130 N   0  0  0  0  0  0  0  0  0  0  0  0
  190.3440  177.4250  141.0650 C   0  0  2  0  0  3  0  0  0  0  0  0
  190.2170  177.0180  139.6330 C   0  0  0  0  0  0  0  0  0  0  0  0
  192.4590  176.9920  140.1620 C   0  0  0  0  0  3  0  0  0  0  0  0
  190.8780  175.7150  136.9630 C   0  0  0  0  0  0  0  0  0  0  0  0
  192.8920  175.8830  135.7640 N   0  0  0  0  0  0  0  0  0  0  0  0
  191.7780  177.5400  141.3340 N   0  0  0  0  0  0  0  0  0  0  0  0
  191.5410  175.3230  135.7000 C   0  0  0  0  0  3  0  0  0  0  0  0
  187.9820  178.1840  139.3500 C   0  0  0  0  0  1  0  0  0  0  0  0
  187.0070  174.2800  136.0420 C   0  0  1  0  0  3  0  0  0  0  0  0
  188.9500  177.1440  138.8660 C   0  0  0  0  0  0  0  0  0  0  0  0
  191.7190  176.3190  137.7660 C   0  0  0  0  0  0  0  0  0  0  0  0
  187.2570  176.5380  137.1760 C   0  0  0  0  0  2  0  0  0  0  0  0
  187.7190  173.8400  137.1730 O   0  0  0  0  0  0  0  0  0  0  0  0
  191.4130  176.7440  139.1440 C   0  0  0  0  0  0  0  0  0  0  0  0
  193.0610  176.3950  137.1290 C   0  0  1  0  0  3  0  0  0  0  0  0
  189.7610  176.3570  141.9830 C   0  0  0  0  0  2  0  0  0  0  0  0
  187.5560  177.1910  143.1300 N   0  0  0  0  0  0  0  0  0  0  0  0
  188.5290  176.8250  142.6230 C   0  0  0  0  0  0  0  0  0  0  0  0
  194.0600  175.5190  137.8780 C   0  0  0  0  0  2  0  0  0  0  0  0
  194.7280  174.5250  136.9410 C   0  0  2  0  0  3  0  0  0  0  0  0
  194.4750  173.1000  137.4010 C   0  0  0  0  0  1  0  0  0  0  0  0
  197.1440  173.9200  137.6170 C   0  0  0  0  0  1  0  0  0  0  0  0
  196.6340  175.7120  136.1890 O   0  0  0  0  0  0  0  0  0  0  0  0
  196.2000  174.7910  136.8640 C   0  0  0  0  0  0  0  0  0  0  0  0
  185.5600  173.7980  136.1010 C   0  0  0  0  0  2  0  0  0  0  0  0
  184.0980  172.1010  137.1580 C   0  0  0  0  0  1  0  0  0  0  0  0
  185.2580  173.0470  137.3870 C   0  0  0  0  0  2  0  0  0  0  0  0
  1 13  1  0  0  0  0
  1 16  1  0  0  0  0
  2 17  1  0  0  0  0
  2  4  1  0  0  0  0
  3 14  2  0  0  0  0
  4  3  1  0  0  0  0
  5 10  1  0  0  0  0
  5 20  1  1  0  0  0
  6  5  1  0  0  0  0
  7 10  2  0  0  0  0
  8  4  1  0  0  0  0
  8 15  2  0  0  0  0
  9 19  1  0  0  0  0
 11  9  2  0  0  0  0
 11  8  1  0  0  0  0
 13 29  1  1  0  0  0
 13 17  1  0  0  0  0
 14 12  1  0  0  0  0
 14  6  1  0  0  0  0
 15 18  1  0  0  0  0
 16  3  1  0  0  0  0
 18  6  2  0  0  0  0
 18  7  1  0  0  0  0
 19 15  1  0  0  0  0
 19 23  1  1  0  0  0
 20 22  1  0  0  0  0
 22 21  3  0  0  0  0
 24 25  1  1  0  0  0
 24 23  1  0  0  0  0
 27 28  2  0  0  0  0
 28 24  1  0  0  0  0
 28 26  1  0  0  0  0
 29 31  1  0  0  0  0
 30 31  1  0  0  0  0
M  END
>  <MODEL>
4

>  <REMARK>
 VINA RESULT:      -5.7      2.806      7.700
  Name = 
  7 active torsions:
  status: ('A' for Active; 'I' for Inactive)
    1  A    between atoms: C_2  and  C_13
    2  A    between atoms: C_7  and  C_21
    3  A    between atoms: C_7  and  C_22
    4  A    between atoms: C_9  and  C_13
    5  A    between atoms: C_16  and  C_30
    6  A    between atoms: C_21  and  C_31
    7  A    between atoms: C_24  and  C_30
                            x       y       z     vdW  Elec       q    Type
                         _______ _______ _______ _____ _____    ______ ____

>  <TORSDO>
F 7

$$$$
=
 OpenBabel11042410493D

 31 34  0  0  1  0  0  0  0  0999 V2000
  190.7970  176.6020  135.8550 C   0  0  0  0  0  2  0  0  0  0  0  0
  189.6970  175.1510  138.0490 C   0  0  0  0  0  2  0  0  0  0  0  0
  188.8250  177.4200  137.2560 C   0  0  0  0  0  0  0  0  0  0  0  0
  189.2770  176.5340  138.3100 N   0  0  0  0  0  0  0  0  0  0  0  0
  185.5580  178.7730  138.7320 C   0  0  2  0  0  3  0  0  0  0  0  0
  186.9820  178.3240  138.6960 C   0  0  0  0  0  0  0  0  0  0  0  0
  186.4110  178.6270  140.9070 C   0  0  0  0  0  3  0  0  0  0  0  0
  189.6090  177.0750  139.5940 C   0  0  0  0  0  0  0  0  0  0  0  0
  190.7730  177.5040  141.5900 N   0  0  0  0  0  0  0  0  0  0  0  0
  185.2650  179.0970  140.1290 N   0  0  0  0  0  0  0  0  0  0  0  0
  190.8500  176.7560  140.3340 C   0  0  0  0  0  3  0  0  0  0  0  0
  187.3360  179.1540  136.3250 C   0  0  0  0  0  1  0  0  0  0  0  0
  190.5710  175.0870  135.9860 C   0  0  1  0  0  3  0  0  0  0  0  0
  187.7770  178.2540  137.4410 C   0  0  0  0  0  0  0  0  0  0  0  0
  188.8040  177.8080  140.3220 C   0  0  0  0  0  0  0  0  0  0  0  0
  189.4850  177.3800  135.8890 C   0  0  0  0  0  2  0  0  0  0  0  0
  189.4180  174.7750  136.7290 O   0  0  0  0  0  0  0  0  0  0  0  0
  187.4420  178.2130  139.9290 C   0  0  0  0  0  0  0  0  0  0  0  0
  189.4170  178.0610  141.6540 C   0  0  1  0  0  3  0  0  0  0  0  0
  184.6280  177.6520  138.2860 C   0  0  0  0  0  2  0  0  0  0  0  0
  182.1580  178.5030  138.0720 N   0  0  0  0  0  0  0  0  0  0  0  0
  183.2470  178.1260  138.1650 C   0  0  0  0  0  0  0  0  0  0  0  0
  188.6280  177.3520  142.7500 C   0  0  0  0  0  2  0  0  0  0  0  0
  189.0070  177.8800  144.1260 C   0  0  2  0  0  3  0  0  0  0  0  0
  190.1600  177.0810  144.7100 C   0  0  0  0  0  1  0  0  0  0  0  0
  186.4500  177.8420  144.4730 C   0  0  0  0  0  1  0  0  0  0  0  0
  187.9770  177.7780  146.2560 O   0  0  0  0  0  0  0  0  0  0  0  0
  187.8250  177.8310  145.0440 C   0  0  0  0  0  0  0  0  0  0  0  0
  190.5290  174.4060  134.6210 C   0  0  0  0  0  2  0  0  0  0  0  0
  192.0600  172.7550  135.6550 C   0  0  0  0  0  1  0  0  0  0  0  0
  190.8950  172.9320  134.7040 C   0  0  0  0  0  2  0  0  0  0  0  0
  1 16  1  0  0  0  0
  1 13  1  0  0  0  0
  2  4  1  0  0  0  0
  3 14  2  0  0  0  0
  3  4  1  0  0  0  0
  4  8  1  0  0  0  0
  5 20  1  1  0  0  0
  5 10  1  0  0  0  0
  6  5  1  0  0  0  0
  6 18  2  0  0  0  0
  8 15  2  0  0  0  0
  8 11  1  0  0  0  0
  9 19  1  0  0  0  0
 10  7  2  0  0  0  0
 11  9  2  0  0  0  0
 12 14  1  0  0  0  0
 13 29  1  6  0  0  0
 13 17  1  0  0  0  0
 14  6  1  0  0  0  0
 15 19  1  0  0  0  0
 16  3  1  0  0  0  0
 17  2  1  0  0  0  0
 18 15  1  0  0  0  0
 18  7  1  0  0  0  0
 19 23  1  1  0  0  0
 21 22  3  0  0  0  0
 22 20  1  0  0  0  0
 23 24  1  0  0  0  0
 24 25  1  1  0  0  0
 24 28  1  0  0  0  0
 26 28  1  0  0  0  0
 28 27  2  0  0  0  0
 29 31  1  0  0  0  0
 31 30  1  0  0  0  0
M  END
>  <MODEL>
5

>  <REMARK>
 VINA RESULT:      -5.6      2.369      7.765
  Name = 
  7 active torsions:
  status: ('A' for Active; 'I' for Inactive)
    1  A    between atoms: C_2  and  C_13
    2  A    between atoms: C_7  and  C_21
    3  A    between atoms: C_7  and  C_22
    4  A    between atoms: C_9  and  C_13
    5  A    between atoms: C_16  and  C_30
    6  A    between atoms: C_21  and  C_31
    7  A    between atoms: C_24  and  C_30
                            x       y       z     vdW  Elec       q    Type
                         _______ _______ _______ _____ _____    ______ ____

>  <TORSDO>
F 7

$$$$
=
 OpenBabel11042410493D

 31 34  0  0  1  0  0  0  0  0999 V2000
  191.2930  178.1180  142.6430 C   0  0  0  0  0  2  0  0  0  0  0  0
  189.4680  176.3760  141.3150 C   0  0  0  0  0  2  0  0  0  0  0  0
  191.6820  177.1620  140.3080 C   0  0  0  0  0  0  0  0  0  0  0  0
  190.2520  176.9520  140.2150 N   0  0  0  0  0  0  0  0  0  0  0  0
  192.9120  175.5650  137.0490 C   0  0  2  0  0  3  0  0  0  0  0  0
  192.0340  176.3610  137.9580 C   0  0  0  0  0  0  0  0  0  0  0  0
  190.9350  176.1550  135.9440 C   0  0  0  0  0  3  0  0  0  0  0  0
  189.5130  177.5750  139.1580 C   0  0  0  0  0  0  0  0  0  0  0  0
  187.8380  178.7720  138.0230 N   0  0  0  0  0  0  0  0  0  0  0  0
  192.2600  175.5710  135.7390 N   0  0  0  0  0  0  0  0  0  0  0  0
  188.2550  178.3280  139.3550 C   0  0  0  0  0  3  0  0  0  0  0  0
  193.9770  177.1300  139.3970 C   0  0  0  0  0  1  0  0  0  0  0  0
  190.4590  176.9690  143.2360 C   0  0  1  0  0  3  0  0  0  0  0  0
  192.5000  176.9030  139.2620 C   0  0  0  0  0  0  0  0  0  0  0  0
  189.7860  177.4450  137.8830 C   0  0  0  0  0  0  0  0  0  0  0  0
  192.3040  177.6180  141.6150 C   0  0  0  0  0  2  0  0  0  0  0  0
  190.3000  175.8990  142.3370 O   0  0  0  0  0  0  0  0  0  0  0  0
  190.9080  176.6600  137.3360 C   0  0  0  0  0  0  0  0  0  0  0  0
  188.7250  178.0970  137.0690 C   0  0  1  0  0  3  0  0  0  0  0  0
  193.0210  174.1230  137.5320 C   0  0  0  0  0  2  0  0  0  0  0  0
  195.4440  173.5890  138.3760 N   0  0  0  0  0  0  0  0  0  0  0  0
  194.3760  173.8230  138.0020 C   0  0  0  0  0  0  0  0  0  0  0  0
  187.9320  177.0540  136.2880 C   0  0  0  0  0  2  0  0  0  0  0  0
  187.1580  176.1400  137.2270 C   0  0  2  0  0  3  0  0  0  0  0  0
  187.6760  174.7150  137.1350 C   0  0  0  0  0  1  0  0  0  0  0  0
  184.9340  177.4430  137.1190 C   0  0  0  0  0  1  0  0  0  0  0  0
  185.1250  175.1960  136.4660 O   0  0  0  0  0  0  0  0  0  0  0  0
  185.6970  176.1820  136.9050 C   0  0  0  0  0  0  0  0  0  0  0  0
  191.0430  176.4760  144.5570 C   0  0  0  0  0  2  0  0  0  0  0  0
  191.0320  176.7180  147.0220 C   0  0  0  0  0  1  0  0  0  0  0  0
  190.2390  176.9570  145.7540 C   0  0  0  0  0  2  0  0  0  0  0  0
  1 13  1  0  0  0  0
  2 17  1  0  0  0  0
  3 16  1  0  0  0  0
  4  3  1  0  0  0  0
  4  2  1  0  0  0  0
  5 20  1  1  0  0  0
  5  6  1  0  0  0  0
  6 14  1  0  0  0  0
  7 18  1  0  0  0  0
  8 11  1  0  0  0  0
  8  4  1  0  0  0  0
  9 11  2  0  0  0  0
 10  7  2  0  0  0  0
 10  5  1  0  0  0  0
 13 29  1  1  0  0  0
 14 12  1  0  0  0  0
 14  3  2  0  0  0  0
 15  8  2  0  0  0  0
 16  1  1  0  0  0  0
 17 13  1  0  0  0  0
 18 15  1  0  0  0  0
 18  6  2  0  0  0  0
 19 23  1  1  0  0  0
 19 15  1  0  0  0  0
 19  9  1  0  0  0  0
 20 22  1  0  0  0  0
 22 21  3  0  0  0  0
 23 24  1  0  0  0  0
 24 25  1  6  0  0  0
 27 28  2  0  0  0  0
 28 26  1  0  0  0  0
 28 24  1  0  0  0  0
 29 31  1  0  0  0  0
 31 30  1  0  0  0  0
M  END
>  <MODEL>
6

>  <REMARK>
 VINA RESULT:      -5.6      1.259      1.677
  Name = 
  7 active torsions:
  status: ('A' for Active; 'I' for Inactive)
    1  A    between atoms: C_2  and  C_13
    2  A    between atoms: C_7  and  C_21
    3  A    between atoms: C_7  and  C_22
    4  A    between atoms: C_9  and  C_13
    5  A    between atoms: C_16  and  C_30
    6  A    between atoms: C_21  and  C_31
    7  A    between atoms: C_24  and  C_30
                            x       y       z     vdW  Elec       q    Type
                         _______ _______ _______ _____ _____    ______ ____

>  <TORSDO>
F 7

$$$$
=
 OpenBabel11042410493D

 31 34  0  0  1  0  0  0  0  0999 V2000
  190.1010  178.2810  143.5070 C   0  0  0  0  0  2  0  0  0  0  0  0
  187.7100  176.7770  143.1160 C   0  0  0  0  0  2  0  0  0  0  0  0
  189.0590  177.8340  141.2190 C   0  0  0  0  0  0  0  0  0  0  0  0
  187.8020  177.5930  141.8980 N   0  0  0  0  0  0  0  0  0  0  0  0
  188.1540  176.9780  137.5950 C   0  0  2  0  0  3  0  0  0  0  0  0
  187.9910  177.5410  138.9690 C   0  0  0  0  0  0  0  0  0  0  0  0
  185.9520  177.7060  137.9100 C   0  0  0  0  0  3  0  0  0  0  0  0
  186.6570  178.3900  141.5710 C   0  0  0  0  0  0  0  0  0  0  0  0
  184.7400  179.7280  141.8090 N   0  0  0  0  0  0  0  0  0  0  0  0
  186.8920  177.2260  136.8980 N   0  0  0  0  0  0  0  0  0  0  0  0
  185.7830  179.0390  142.5720 C   0  0  0  0  0  3  0  0  0  0  0  0
  190.4610  178.0740  139.2010 C   0  0  0  0  0  1  0  0  0  0  0  0
  189.6400  177.0060  144.2320 C   0  0  1  0  0  3  0  0  0  0  0  0
  189.1410  177.8230  139.8690 C   0  0  0  0  0  0  0  0  0  0  0  0
  186.1720  178.5310  140.3620 C   0  0  0  0  0  0  0  0  0  0  0  0
  190.3330  178.0390  142.0180 C   0  0  0  0  0  2  0  0  0  0  0  0
  188.9240  176.1350  143.3900 O   0  0  0  0  0  0  0  0  0  0  0  0
  186.7380  177.9160  139.1470 C   0  0  0  0  0  0  0  0  0  0  0  0
  184.8960  179.2950  140.4160 C   0  0  1  0  0  3  0  0  0  0  0  0
  188.3920  175.4740  137.6530 C   0  0  0  0  0  2  0  0  0  0  0  0
  190.8030  174.8620  136.8230 N   0  0  0  0  0  0  0  0  0  0  0  0
  189.7400  175.1330  137.1900 C   0  0  0  0  0  0  0  0  0  0  0  0
  183.7220  178.4030  140.0270 C   0  0  0  0  0  2  0  0  0  0  0  0
  182.5530  179.2300  139.5120 C   0  0  2  0  0  3  0  0  0  0  0  0
  181.3860  179.1740  140.4830 C   0  0  0  0  0  1  0  0  0  0  0  0
  182.2470  177.2950  137.8320 C   0  0  0  0  0  1  0  0  0  0  0  0
  181.6800  179.5180  137.3300 O   0  0  0  0  0  0  0  0  0  0  0  0
  182.1270  178.7430  138.1620 C   0  0  0  0  0  0  0  0  0  0  0  0
  190.8110  176.2780  144.8840 C   0  0  0  0  0  2  0  0  0  0  0  0
  192.0620  175.8400  146.9770 C   0  0  0  0  0  1  0  0  0  0  0  0
  191.0750  176.7670  146.2990 C   0  0  0  0  0  2  0  0  0  0  0  0
  1 13  1  0  0  0  0
  2 17  1  0  0  0  0
  3  4  1  0  0  0  0
  3 16  1  0  0  0  0
  4  2  1  0  0  0  0
  5 20  1  1  0  0  0
  5  6  1  0  0  0  0
  6 18  2  0  0  0  0
  6 14  1  0  0  0  0
  7 18  1  0  0  0  0
  8  4  1  0  0  0  0
  8 11  1  0  0  0  0
  9 11  2  0  0  0  0
 10  5  1  0  0  0  0
 10  7  2  0  0  0  0
 12 14  1  0  0  0  0
 13 29  1  6  0  0  0
 14  3  2  0  0  0  0
 15 19  1  0  0  0  0
 15  8  2  0  0  0  0
 16  1  1  0  0  0  0
 17 13  1  0  0  0  0
 18 15  1  0  0  0  0
 19 23  1  1  0  0  0
 19  9  1  0  0  0  0
 21 22  3  0  0  0  0
 22 20  1  0  0  0  0
 24 23  1  0  0  0  0
 24 25  1  1  0  0  0
 26 28  1  0  0  0  0
 27 28  2  0  0  0  0
 28 24  1  0  0  0  0
 29 31  1  0  0  0  0
 31 30  1  0  0  0  0
M  END
>  <MODEL>
7

>  <REMARK>
 VINA RESULT:      -5.5      2.262      3.437
  Name = 
  7 active torsions:
  status: ('A' for Active; 'I' for Inactive)
    1  A    between atoms: C_2  and  C_13
    2  A    between atoms: C_7  and  C_21
    3  A    between atoms: C_7  and  C_22
    4  A    between atoms: C_9  and  C_13
    5  A    between atoms: C_16  and  C_30
    6  A    between atoms: C_21  and  C_31
    7  A    between atoms: C_24  and  C_30
                            x       y       z     vdW  Elec       q    Type
                         _______ _______ _______ _____ _____    ______ ____

>  <TORSDO>
F 7

$$$$
=
 OpenBabel11042410493D

 31 34  0  0  1  0  0  0  0  0999 V2000
  186.7070  175.9650  136.5270 C   0  0  0  0  0  2  0  0  0  0  0  0
  188.0840  178.2320  137.5740 C   0  0  0  0  0  2  0  0  0  0  0  0
  189.1960  175.9800  137.0970 C   0  0  0  0  0  0  0  0  0  0  0  0
  188.9330  177.1030  137.9740 N   0  0  0  0  0  0  0  0  0  0  0  0
  193.0120  175.7100  137.3100 C   0  0  2  0  0  3  0  0  0  0  0  0
  191.6070  175.9090  137.7780 C   0  0  0  0  0  0  0  0  0  0  0  0
  193.0030  176.4800  139.5200 C   0  0  0  0  0  3  0  0  0  0  0  0
  189.2520  177.0010  139.3670 C   0  0  0  0  0  0  0  0  0  0  0  0
  189.0590  177.1320  141.7060 N   0  0  0  0  0  0  0  0  0  0  0  0
  193.8690  175.9390  138.4740 N   0  0  0  0  0  0  0  0  0  0  0  0
  188.3280  177.3760  140.4610 C   0  0  0  0  0  3  0  0  0  0  0  0
  190.6600  174.2630  136.0960 C   0  0  0  0  0  1  0  0  0  0  0  0
  186.5390  177.4480  136.1530 C   0  0  1  0  0  3  0  0  0  0  0  0
  190.4250  175.4230  137.0190 C   0  0  0  0  0  0  0  0  0  0  0  0
  190.4340  176.6920  139.8380 C   0  0  0  0  0  0  0  0  0  0  0  0
  188.1010  175.4460  136.1910 C   0  0  0  0  0  2  0  0  0  0  0  0
  187.7500  178.1610  136.2150 O   0  0  0  0  0  0  0  0  0  0  0  0
  191.6150  176.3750  139.0130 C   0  0  0  0  0  0  0  0  0  0  0  0
  190.4420  176.8330  141.3190 C   0  0  1  0  0  3  0  0  0  0  0  0
  193.3700  176.7270  136.2330 C   0  0  0  0  0  2  0  0  0  0  0  0
  195.8700  176.4760  135.4850 N   0  0  0  0  0  0  0  0  0  0  0  0
  194.7670  176.5850  135.8140 C   0  0  0  0  0  0  0  0  0  0  0  0
  191.3470  177.9850  141.7420 C   0  0  0  0  0  2  0  0  0  0  0  0
  191.8060  177.8200  143.1840 C   0  0  2  0  0  3  0  0  0  0  0  0
  191.6810  176.3710  143.6240 C   0  0  0  0  0  1  0  0  0  0  0  0
  190.0820  178.1000  145.0830 C   0  0  0  0  0  1  0  0  0  0  0  0
  191.1120  179.9230  144.0210 O   0  0  0  0  0  0  0  0  0  0  0  0
  191.0090  178.7070  144.0880 C   0  0  0  0  0  0  0  0  0  0  0  0
  185.8930  177.6090  134.7790 C   0  0  0  0  0  2  0  0  0  0  0  0
  183.5090  177.2430  135.3420 C   0  0  0  0  0  1  0  0  0  0  0  0
  184.7010  176.6840  134.5940 C   0  0  0  0  0  2  0  0  0  0  0  0
  2  4  1  0  0  0  0
  3  4  1  0  0  0  0
  4  8  1  0  0  0  0
  5 20  1  6  0  0  0
  5  6  1  0  0  0  0
  5 10  1  0  0  0  0
  6 18  2  0  0  0  0
  8 15  2  0  0  0  0
  8 11  1  0  0  0  0
 10  7  2  0  0  0  0
 11  9  2  0  0  0  0
 12 14  1  0  0  0  0
 13 29  1  6  0  0  0
 13 17  1  0  0  0  0
 13  1  1  0  0  0  0
 14  3  2  0  0  0  0
 14  6  1  0  0  0  0
 15 19  1  0  0  0  0
 16  1  1  0  0  0  0
 16  3  1  0  0  0  0
 17  2  1  0  0  0  0
 18  7  1  0  0  0  0
 18 15  1  0  0  0  0
 19  9  1  0  0  0  0
 19 23  1  6  0  0  0
 21 22  3  0  0  0  0
 22 20  1  0  0  0  0
 23 24  1  0  0  0  0
 24 25  1  1  0  0  0
 24 28  1  0  0  0  0
 27 28  2  0  0  0  0
 28 26  1  0  0  0  0
 31 29  1  0  0  0  0
 31 30  1  0  0  0  0
M  END
>  <MODEL>
8

>  <REMARK>
 VINA RESULT:      -5.4      1.857      7.048
  Name = 
  7 active torsions:
  status: ('A' for Active; 'I' for Inactive)
    1  A    between atoms: C_2  and  C_13
    2  A    between atoms: C_7  and  C_21
    3  A    between atoms: C_7  and  C_22
    4  A    between atoms: C_9  and  C_13
    5  A    between atoms: C_16  and  C_30
    6  A    between atoms: C_21  and  C_31
    7  A    between atoms: C_24  and  C_30
                            x       y       z     vdW  Elec       q    Type
                         _______ _______ _______ _____ _____    ______ ____

>  <TORSDO>
F 7

$$$$
=
 OpenBabel11042410493D

 31 34  0  0  1  0  0  0  0  0999 V2000
  189.8530  176.4340  142.1060 C   0  0  0  0  0  2  0  0  0  0  0  0
  188.8880  179.0030  141.3320 C   0  0  0  0  0  2  0  0  0  0  0  0
  187.5790  177.3680  142.7970 C   0  0  0  0  0  0  0  0  0  0  0  0
  187.6630  178.2640  141.6620 N   0  0  0  0  0  0  0  0  0  0  0  0
  184.3540  178.5600  144.4880 C   0  0  2  0  0  3  0  0  0  0  0  0
  185.2820  178.1880  143.3790 C   0  0  0  0  0  0  0  0  0  0  0  0
  183.4260  179.1660  142.4270 C   0  0  0  0  0  3  0  0  0  0  0  0
  186.6440  178.2280  140.6560 C   0  0  0  0  0  0  0  0  0  0  0  0
  185.6020  178.1670  138.5500 N   0  0  0  0  0  0  0  0  0  0  0  0
  183.1280  179.0440  143.8520 N   0  0  0  0  0  0  0  0  0  0  0  0
  186.9130  178.1720  139.2020 C   0  0  0  0  0  3  0  0  0  0  0  0
  186.4280  176.3850  144.7480 C   0  0  0  0  0  1  0  0  0  0  0  0
  190.6300  177.7570  141.9920 C   0  0  1  0  0  3  0  0  0  0  0  0
  186.4760  177.3240  143.5790 C   0  0  0  0  0  0  0  0  0  0  0  0
  185.3630  178.3700  140.8900 C   0  0  0  0  0  0  0  0  0  0  0  0
  188.7660  176.5000  143.1750 C   0  0  0  0  0  2  0  0  0  0  0  0
  189.8490  178.8730  142.3430 O   0  0  0  0  0  0  0  0  0  0  0  0
  184.7650  178.5650  142.2240 C   0  0  0  0  0  0  0  0  0  0  0  0
  184.6170  178.4350  139.6040 C   0  0  1  0  0  3  0  0  0  0  0  0
  184.9430  179.6850  145.3300 C   0  0  0  0  0  2  0  0  0  0  0  0
  186.2520  178.7400  147.3960 N   0  0  0  0  0  0  0  0  0  0  0  0
  185.6730  179.1560  146.4850 C   0  0  0  0  0  0  0  0  0  0  0  0
  184.0210  179.8240  139.4000 C   0  0  0  0  0  2  0  0  0  0  0  0
  182.5360  179.7400  139.0820 C   0  0  2  0  0  3  0  0  0  0  0  0
  182.2650  178.6480  138.0620 C   0  0  0  0  0  1  0  0  0  0  0  0
  180.7190  181.1310  137.8890 C   0  0  0  0  0  1  0  0  0  0  0  0
  182.7020  182.0740  138.7190 O   0  0  0  0  0  0  0  0  0  0  0  0
  182.0390  181.0580  138.5740 C   0  0  0  0  0  0  0  0  0  0  0  0
  191.9150  177.7240  142.8130 C   0  0  0  0  0  2  0  0  0  0  0  0
  191.6290  177.3730  145.2480 C   0  0  0  0  0  1  0  0  0  0  0  0
  191.7550  178.4160  144.1570 C   0  0  0  0  0  2  0  0  0  0  0  0
  1 16  1  0  0  0  0
  2  4  1  0  0  0  0
  2 17  1  0  0  0  0
  3 16  1  0  0  0  0
  3 14  2  0  0  0  0
  4  3  1  0  0  0  0
  5 20  1  6  0  0  0
  6 14  1  0  0  0  0
  6  5  1  0  0  0  0
  7 10  2  0  0  0  0
  8 15  2  0  0  0  0
  8  4  1  0  0  0  0
  9 11  2  0  0  0  0
  9 19  1  0  0  0  0
 10  5  1  0  0  0  0
 11  8  1  0  0  0  0
 13  1  1  0  0  0  0
 13 17  1  0  0  0  0
 13 29  1  1  0  0  0
 14 12  1  0  0  0  0
 15 18  1  0  0  0  0
 18  7  1  0  0  0  0
 18  6  2  0  0  0  0
 19 23  1  6  0  0  0
 19 15  1  0  0  0  0
 20 22  1  0  0  0  0
 22 21  3  0  0  0  0
 24 25  1  6  0  0  0
 24 23  1  0  0  0  0
 26 28  1  0  0  0  0
 28 27  2  0  0  0  0
 28 24  1  0  0  0  0
 29 31  1  0  0  0  0
 31 30  1  0  0  0  0
M  END
>  <MODEL>
9

>  <REMARK>
 VINA RESULT:      -5.4      3.639      6.584
  Name = 
  7 active torsions:
  status: ('A' for Active; 'I' for Inactive)
    1  A    between atoms: C_2  and  C_13
    2  A    between atoms: C_7  and  C_21
    3  A    between atoms: C_7  and  C_22
    4  A    between atoms: C_9  and  C_13
    5  A    between atoms: C_16  and  C_30
    6  A    between atoms: C_21  and  C_31
    7  A    between atoms: C_24  and  C_30
                            x       y       z     vdW  Elec       q    Type
                         _______ _______ _______ _____ _____    ______ ____

>  <TORSDO>
F 7

$$$$
