=
 OpenBabel11032419383D

 49 54  0  0  1  0  0  0  0  0999 V2000
  187.4200  178.3850  138.9900 N   0  0  0  0  0  0  0  0  0  0  0  0
  186.7830  179.1330  141.5210 O   0  0  0  0  0  0  0  0  0  0  0  0
  186.1350  178.2850  138.7940 C   0  0  0  0  0  0  0  0  0  0  0  0
  185.2240  178.5970  139.8520 N   0  0  0  0  0  2  0  0  0  0  0  0
  185.5770  179.0120  141.1760 C   0  0  0  0  0  0  0  0  0  0  0  0
  184.4900  179.2690  142.1650 C   0  0  2  0  0  3  0  0  0  0  0  0
  185.0070  179.1310  143.6070 C   0  0  0  0  0  2  0  0  0  0  0  0
  182.5550  178.8300  144.1730 C   0  0  0  0  0  2  0  0  0  0  0  0
  183.9900  178.4090  144.4970 C   0  0  0  0  0  2  0  0  0  0  0  0
  183.4020  178.4120  141.9250 O   0  0  0  0  0  0  0  0  0  0  0  0
  182.3230  178.9430  142.6570 C   0  0  0  0  0  2  0  0  0  0  0  0
  188.4890  178.1300  138.0660 C   0  0  0  0  0  0  0  0  0  0  0  0
  189.0230  179.0500  137.3940 O   0  0  0  0  0  0  0  0  0  0  0  0
  188.9940  176.7370  137.9090 C   0  0  0  0  0  2  0  0  0  0  0  0
  190.8030  176.7260  137.7280 S   0  0  0  0  0  0  0  0  0  0  0  0
  191.1090  176.2770  139.4660 C   0  0  0  0  0  2  0  0  0  0  0  0
  191.7970  177.4110  140.2030 C   0  0  0  0  0  2  0  0  0  0  0  0
  191.3970  177.4120  141.6010 N   0  0  0  0  0  2  0  0  0  0  0  0
  190.1990  176.6010  141.6960 C   0  0  0  0  0  2  0  0  0  0  0  0
  186.8460  177.5980  146.3730 C   0  0  0  0  0  2  0  0  0  0  0  0
  189.4140  176.9870  143.9570 N   0  0  0  0  0  0  0  0  0  0  0  0
  191.4650  176.6000  144.9440 C   0  0  0  0  0  3  0  0  0  0  0  0
  189.3580  177.6250  146.0430 C   0  0  0  0  0  0  0  0  0  0  0  0
  190.1680  177.2880  144.9910 C   0  0  0  0  0  0  0  0  0  0  0  0
  189.6790  177.8410  147.4890 C   0  0  0  0  0  2  0  0  0  0  0  0
  188.0770  177.5330  145.5240 C   0  0  0  0  0  0  0  0  0  0  0  0
  188.4350  177.5790  148.3510 C   0  0  0  0  0  2  0  0  0  0  0  0
  190.0760  176.0360  143.1000 C   0  0  2  0  0  3  0  0  0  0  0  0
  187.1770  178.2180  147.7400 C   0  0  0  0  0  2  0  0  0  0  0  0
  188.1280  177.0550  144.2600 N   0  0  0  0  0  0  0  0  0  0  0  0
  191.4200  175.8360  143.6820 N   0  0  0  0  0  0  0  0  0  0  0  0
  185.4340  177.7220  137.2380 S   0  0  0  0  0  0  0  0  0  0  0  0
  183.7760  177.5440  137.9480 C   0  0  0  0  0  2  0  0  0  0  0  0
  183.1560  176.2510  137.4530 C   0  0  0  0  0  2  0  0  0  0  0  0
  182.8280  175.5720  135.2210 O   0  0  0  0  0  0  0  0  0  0  0  0
  182.6260  176.4280  136.0670 C   0  0  0  0  0  0  0  0  0  0  0  0
  181.8930  177.6740  135.6940 C   0  0  0  0  0  2  0  0  0  0  0  0
  180.3190  178.1620  137.4500 O   0  0  0  0  0  0  0  0  0  0  0  0
  180.4370  177.6120  136.1590 C   0  0  1  0  0  3  0  0  0  0  0  0
  179.7870  178.9360  136.4020 C   0  0  2  0  0  3  0  0  0  0  0  0
  180.6740  180.1590  136.1860 C   0  0  0  0  0  2  0  0  0  0  0  0
  180.3220  182.4120  135.6310 C   0  0  0  0  0  2  0  0  0  0  0  0
  181.4600  183.7650  137.3450 C   0  0  0  0  0  0  0  0  0  0  0  0
  180.4340  183.8090  136.2440 C   0  0  1  0  0  3  0  0  0  0  0  0
  180.3740  181.6500  137.9970 C   0  0  0  0  0  2  0  0  0  0  0  0
  180.8310  184.7890  135.1530 C   0  0  0  0  0  1  0  0  0  0  0  0
  182.1320  184.7450  137.6270 O   0  0  0  0  0  0  0  0  0  0  0  0
  179.9760  181.3630  136.6060 N   0  0  0  0  0  0  0  0  0  0  0  0
  181.6430  182.4950  138.1110 C   0  0  0  0  0  2  0  0  0  0  0  0
  3  1  2  0  0  0  0
  3  4  1  0  0  0  0
  4  5  1  0  0  0  0
  5  2  2  0  0  0  0
  6  5  1  6  0  0  0
  6  7  1  0  0  0  0
  7  9  1  0  0  0  0
  8  9  1  0  0  0  0
 10  6  1  0  0  0  0
 10 11  1  0  0  0  0
 11  8  1  0  0  0  0
 12  1  1  0  0  0  0
 13 12  2  0  0  0  0
 14 12  1  0  0  0  0
 15 14  1  0  0  0  0
 15 16  1  0  0  0  0
 16 17  1  0  0  0  0
 17 18  1  0  0  0  0
 18 19  1  0  0  0  0
 20 29  1  0  0  0  0
 21 30  1  0  0  0  0
 21 24  1  0  0  0  0
 22 24  1  0  0  0  0
 23 25  1  0  0  0  0
 24 23  2  0  0  0  0
 25 27  1  0  0  0  0
 26 23  1  0  0  0  0
 26 20  1  0  0  0  0
 28 19  1  6  0  0  0
 28 31  1  0  0  0  0
 28 21  1  0  0  0  0
 29 27  1  0  0  0  0
 30 26  2  0  0  0  0
 31 22  2  0  0  0  0
 32 33  1  0  0  0  0
 32  3  1  0  0  0  0
 34 33  1  0  0  0  0
 35 36  2  0  0  0  0
 36 34  1  0  0  0  0
 37 36  1  0  0  0  0
 39 37  1  6  0  0  0
 39 40  1  0  0  0  0
 39 38  1  0  0  0  0
 40 41  1  6  0  0  0
 40 38  1  0  0  0  0
 41 48  1  0  0  0  0
 42 44  1  0  0  0  0
 42 48  1  0  0  0  0
 43 47  2  0  0  0  0
 43 49  1  0  0  0  0
 44 46  1  6  0  0  0
 44 43  1  0  0  0  0
 45 49  1  0  0  0  0
 48 45  1  0  0  0  0
M  END
>  <MODEL>
1

>  <REMARK>
 VINA RESULT:      -8.4      0.000      0.000
  Name = 
  17 active torsions:
  status: ('A' for Active; 'I' for Inactive)
    1  A    between atoms: C_2  and  C_48
    2  A    between atoms: N_3  and  C_22
    3  A    between atoms: S_8  and  C_16
    4  A    between atoms: S_8  and  C_27
    5  A    between atoms: C_15  and  S_25
    6  A    between atoms: C_16  and  C_43
    7  A    between atoms: C_17  and  S_25
    8  A    between atoms: C_17  and  C_31
    9  A    between atoms: C_21  and  N_30
   10  A    between atoms: C_21  and  C_45
   11  A    between atoms: C_22  and  C_27
   12  A    between atoms: C_23  and  N_36
   13  A    between atoms: C_23  and  C_42
   14  A    between atoms: N_30  and  C_43
   15  A    between atoms: C_31  and  C_41
   16  A    between atoms: C_32  and  C_44
   17  A    between atoms: C_41  and  C_44
                            x       y       z     vdW  Elec       q    Type
                         _______ _______ _______ _____ _____    ______ ____

>  <TORSDO>
F 17

$$$$
=
 OpenBabel11032419383D

 49 54  0  0  1  0  0  0  0  0999 V2000
  186.0030  175.7790  136.4530 N   0  0  0  0  0  0  0  0  0  0  0  0
  188.0960  174.1610  135.8480 O   0  0  0  0  0  0  0  0  0  0  0  0
  186.8960  176.6130  136.9050 C   0  0  0  0  0  0  0  0  0  0  0  0
  188.2860  176.2820  136.8290 N   0  0  0  0  0  2  0  0  0  0  0  0
  188.8380  175.0710  136.3030 C   0  0  0  0  0  0  0  0  0  0  0  0
  190.3190  174.8820  136.3300 C   0  0  2  0  0  3  0  0  0  0  0  0
  190.7670  173.8590  135.2720 C   0  0  0  0  0  2  0  0  0  0  0  0
  192.8460  173.6840  136.7110 C   0  0  0  0  0  2  0  0  0  0  0  0
  191.8550  172.9300  135.8210 C   0  0  0  0  0  2  0  0  0  0  0  0
  190.7370  174.5060  137.6180 O   0  0  0  0  0  0  0  0  0  0  0  0
  192.1340  174.6840  137.6370 C   0  0  0  0  0  2  0  0  0  0  0  0
  184.5740  175.9240  136.4270 C   0  0  0  0  0  0  0  0  0  0  0  0
  183.9820  176.5260  135.4940 O   0  0  0  0  0  0  0  0  0  0  0  0
  183.7660  175.3320  137.5300 C   0  0  0  0  0  2  0  0  0  0  0  0
  182.1880  174.6900  136.8960 S   0  0  0  0  0  0  0  0  0  0  0  0
  181.1840  175.9720  137.7120 C   0  0  0  0  0  2  0  0  0  0  0  0
  180.7950  177.0610  136.7280 C   0  0  0  0  0  2  0  0  0  0  0  0
  180.8490  178.3610  137.3750 N   0  0  0  0  0  2  0  0  0  0  0  0
  182.2310  178.5830  137.7570 C   0  0  0  0  0  2  0  0  0  0  0  0
  185.3550  178.8280  142.6850 C   0  0  0  0  0  2  0  0  0  0  0  0
  182.9060  178.7810  140.0770 N   0  0  0  0  0  0  0  0  0  0  0  0
  180.8080  179.3690  140.8410 C   0  0  0  0  0  3  0  0  0  0  0  0
  182.8630  178.6810  142.2560 C   0  0  0  0  0  0  0  0  0  0  0  0
  182.1030  178.7340  141.1170 C   0  0  0  0  0  0  0  0  0  0  0  0
  182.4720  178.8250  143.6930 C   0  0  0  0  0  2  0  0  0  0  0  0
  184.1660  178.6610  141.7900 C   0  0  0  0  0  0  0  0  0  0  0  0
  183.6720  179.3110  144.5210 C   0  0  0  0  0  2  0  0  0  0  0  0
  182.2830  179.4800  138.9810 C   0  0  2  0  0  3  0  0  0  0  0  0
  184.9600  178.5600  144.1460 C   0  0  0  0  0  2  0  0  0  0  0  0
  184.1760  178.8100  140.4470 N   0  0  0  0  0  0  0  0  0  0  0  0
  180.9110  179.7980  139.4320 N   0  0  0  0  0  0  0  0  0  0  0  0
  186.4590  178.1780  137.6750 S   0  0  0  0  0  0  0  0  0  0  0  0
  188.0810  178.3410  138.4670 C   0  0  0  0  0  2  0  0  0  0  0  0
  187.9330  178.1140  139.9600 C   0  0  0  0  0  2  0  0  0  0  0  0
  190.1240  177.2640  139.8020 O   0  0  0  0  0  0  0  0  0  0  0  0
  189.2190  177.6200  140.5390 C   0  0  0  0  0  0  0  0  0  0  0  0
  189.3850  177.5050  142.0180 C   0  0  0  0  0  2  0  0  0  0  0  0
  191.6760  177.6580  142.7440 O   0  0  0  0  0  0  0  0  0  0  0  0
  190.6680  176.7500  142.3670 C   0  0  1  0  0  3  0  0  0  0  0  0
  191.1250  176.8870  143.7840 C   0  0  2  0  0  3  0  0  0  0  0  0
  190.2690  177.7850  144.6720 C   0  0  0  0  0  2  0  0  0  0  0  0
  188.1560  177.7880  145.6930 C   0  0  0  0  0  2  0  0  0  0  0  0
  188.5290  177.8710  148.1260 C   0  0  0  0  0  0  0  0  0  0  0  0
  187.5070  177.5720  147.0620 C   0  0  1  0  0  3  0  0  0  0  0  0
  190.0860  176.5910  146.7050 C   0  0  0  0  0  2  0  0  0  0  0  0
  186.3000  178.4870  147.1780 C   0  0  0  0  0  1  0  0  0  0  0  0
  188.2010  178.3030  149.2200 O   0  0  0  0  0  0  0  0  0  0  0  0
  189.3670  176.9780  145.4770 N   0  0  0  0  0  0  0  0  0  0  0  0
  189.9730  177.6190  147.8320 C   0  0  0  0  0  2  0  0  0  0  0  0
  1  3  2  0  0  0  0
  2  5  2  0  0  0  0
  3 32  1  0  0  0  0
  4  3  1  0  0  0  0
  5  4  1  0  0  0  0
  6  5  1  1  0  0  0
  6 10  1  0  0  0  0
  7  9  1  0  0  0  0
  7  6  1  0  0  0  0
  8 11  1  0  0  0  0
  9  8  1  0  0  0  0
 10 11  1  0  0  0  0
 12  1  1  0  0  0  0
 12 14  1  0  0  0  0
 13 12  2  0  0  0  0
 15 14  1  0  0  0  0
 15 16  1  0  0  0  0
 17 18  1  0  0  0  0
 17 16  1  0  0  0  0
 18 19  1  0  0  0  0
 20 29  1  0  0  0  0
 21 30  1  0  0  0  0
 21 24  1  0  0  0  0
 22 24  1  0  0  0  0
 23 25  1  0  0  0  0
 24 23  2  0  0  0  0
 25 27  1  0  0  0  0
 26 23  1  0  0  0  0
 26 20  1  0  0  0  0
 28 19  1  6  0  0  0
 28 31  1  0  0  0  0
 28 21  1  0  0  0  0
 29 27  1  0  0  0  0
 30 26  2  0  0  0  0
 31 22  2  0  0  0  0
 32 33  1  0  0  0  0
 33 34  1  0  0  0  0
 34 36  1  0  0  0  0
 35 36  2  0  0  0  0
 36 37  1  0  0  0  0
 38 40  1  0  0  0  0
 39 37  1  1  0  0  0
 39 38  1  0  0  0  0
 39 40  1  0  0  0  0
 40 41  1  1  0  0  0
 41 48  1  0  0  0  0
 42 44  1  0  0  0  0
 43 47  2  0  0  0  0
 44 46  1  1  0  0  0
 44 43  1  0  0  0  0
 45 49  1  0  0  0  0
 48 42  1  0  0  0  0
 48 45  1  0  0  0  0
 49 43  1  0  0  0  0
M  END
>  <MODEL>
2

>  <REMARK>
 VINA RESULT:      -7.6      3.015      9.985
  Name = 
  17 active torsions:
  status: ('A' for Active; 'I' for Inactive)
    1  A    between atoms: C_2  and  C_48
    2  A    between atoms: N_3  and  C_22
    3  A    between atoms: S_8  and  C_16
    4  A    between atoms: S_8  and  C_27
    5  A    between atoms: C_15  and  S_25
    6  A    between atoms: C_16  and  C_43
    7  A    between atoms: C_17  and  S_25
    8  A    between atoms: C_17  and  C_31
    9  A    between atoms: C_21  and  N_30
   10  A    between atoms: C_21  and  C_45
   11  A    between atoms: C_22  and  C_27
   12  A    between atoms: C_23  and  N_36
   13  A    between atoms: C_23  and  C_42
   14  A    between atoms: N_30  and  C_43
   15  A    between atoms: C_31  and  C_41
   16  A    between atoms: C_32  and  C_44
   17  A    between atoms: C_41  and  C_44
                            x       y       z     vdW  Elec       q    Type
                         _______ _______ _______ _____ _____    ______ ____

>  <TORSDO>
F 17

$$$$
=
 OpenBabel11032419383D

 49 54  0  0  1  0  0  0  0  0999 V2000
  190.3970  177.2310  138.9650 N   0  0  0  0  0  0  0  0  0  0  0  0
  193.0740  176.7980  138.8360 O   0  0  0  0  0  0  0  0  0  0  0  0
  190.2950  176.2960  138.0630 C   0  0  0  0  0  0  0  0  0  0  0  0
  191.4690  175.6340  137.5830 N   0  0  0  0  0  2  0  0  0  0  0  0
  192.8160  175.9050  137.9860 C   0  0  0  0  0  0  0  0  0  0  0  0
  193.9260  175.1320  137.3550 C   0  0  2  0  0  3  0  0  0  0  0  0
  193.4660  173.7160  136.9690 C   0  0  0  0  0  2  0  0  0  0  0  0
  195.9470  173.1980  136.9770 C   0  0  0  0  0  2  0  0  0  0  0  0
  194.5430  172.6740  137.2870 C   0  0  0  0  0  2  0  0  0  0  0  0
  195.0390  175.0940  138.2130 O   0  0  0  0  0  0  0  0  0  0  0  0
  196.1210  174.6600  137.4220 C   0  0  0  0  0  2  0  0  0  0  0  0
  189.3520  178.0020  139.5780 C   0  0  0  0  0  0  0  0  0  0  0  0
  188.5320  178.6720  138.8980 O   0  0  0  0  0  0  0  0  0  0  0  0
  189.2240  177.9980  141.0620 C   0  0  0  0  0  2  0  0  0  0  0  0
  190.1700  176.6240  141.7840 S   0  0  0  0  0  0  0  0  0  0  0  0
  191.5150  177.6930  142.3910 C   0  0  0  0  0  2  0  0  0  0  0  0
  191.3280  178.0110  143.8630 C   0  0  0  0  0  2  0  0  0  0  0  0
  190.7720  176.8610  144.5560 N   0  0  0  0  0  2  0  0  0  0  0  0
  190.2770  177.3390  145.8330 C   0  0  0  0  0  2  0  0  0  0  0  0
  185.2710  177.9860  142.8940 C   0  0  0  0  0  2  0  0  0  0  0  0
  187.9630  177.7560  145.2400 N   0  0  0  0  0  0  0  0  0  0  0  0
  187.2370  177.9620  147.4220 C   0  0  0  0  0  3  0  0  0  0  0  0
  185.9380  178.5680  145.2670 C   0  0  0  0  0  0  0  0  0  0  0  0
  187.0640  178.3270  146.0100 C   0  0  0  0  0  0  0  0  0  0  0  0
  184.5680  178.9980  145.6890 C   0  0  0  0  0  2  0  0  0  0  0  0
  186.2720  178.1270  143.9980 C   0  0  0  0  0  0  0  0  0  0  0  0
  183.5290  178.5390  144.6540 C   0  0  0  0  0  2  0  0  0  0  0  0
  188.8330  176.9060  146.0130 C   0  0  2  0  0  3  0  0  0  0  0  0
  184.0080  178.8010  143.2170 C   0  0  0  0  0  2  0  0  0  0  0  0
  187.4940  177.5500  144.0200 N   0  0  0  0  0  0  0  0  0  0  0  0
  188.4250  177.0860  147.4230 N   0  0  0  0  0  0  0  0  0  0  0  0
  188.7200  175.8120  137.3430 S   0  0  0  0  0  0  0  0  0  0  0  0
  189.4290  174.3360  136.5660 C   0  0  0  0  0  2  0  0  0  0  0  0
  188.6020  173.1230  136.9500 C   0  0  0  0  0  2  0  0  0  0  0  0
  187.0780  173.4090  135.1770 O   0  0  0  0  0  0  0  0  0  0  0  0
  187.2270  173.2300  136.3750 C   0  0  0  0  0  0  0  0  0  0  0  0
  186.0310  173.1740  137.2650 C   0  0  0  0  0  2  0  0  0  0  0  0
  183.7270  172.4720  137.3180 O   0  0  0  0  0  0  0  0  0  0  0  0
  184.7620  172.8890  136.4590 C   0  0  1  0  0  3  0  0  0  0  0  0
  183.5930  173.7650  136.7780 C   0  0  2  0  0  3  0  0  0  0  0  0
  183.8170  174.7930  137.8830 C   0  0  0  0  0  2  0  0  0  0  0  0
  183.9320  177.1290  138.0720 C   0  0  0  0  0  2  0  0  0  0  0  0
  182.2260  177.8060  139.7130 C   0  0  0  0  0  0  0  0  0  0  0  0
  183.1240  178.3100  138.6150 C   0  0  1  0  0  3  0  0  0  0  0  0
  181.7620  175.9210  138.1930 C   0  0  0  0  0  2  0  0  0  0  0  0
  184.0900  179.3650  139.1270 C   0  0  0  0  0  1  0  0  0  0  0  0
  181.9000  178.5230  140.6460 O   0  0  0  0  0  0  0  0  0  0  0  0
  183.0990  176.0190  137.5770 N   0  0  0  0  0  0  0  0  0  0  0  0
  181.7180  176.4020  139.6440 C   0  0  0  0  0  2  0  0  0  0  0  0
  1 12  1  0  0  0  0
  3  1  2  0  0  0  0
  4  5  1  0  0  0  0
  4  3  1  0  0  0  0
  5  2  2  0  0  0  0
  6  5  1  1  0  0  0
  6 10  1  0  0  0  0
  7  9  1  0  0  0  0
  7  6  1  0  0  0  0
  8  9  1  0  0  0  0
  8 11  1  0  0  0  0
 11 10  1  0  0  0  0
 12 14  1  0  0  0  0
 13 12  2  0  0  0  0
 14 15  1  0  0  0  0
 15 16  1  0  0  0  0
 16 17  1  0  0  0  0
 17 18  1  0  0  0  0
 18 19  1  0  0  0  0
 20 29  1  0  0  0  0
 20 26  1  0  0  0  0
 21 24  1  0  0  0  0
 21 28  1  0  0  0  0
 22 31  2  0  0  0  0
 23 25  1  0  0  0  0
 23 24  2  0  0  0  0
 24 22  1  0  0  0  0
 26 30  2  0  0  0  0
 26 23  1  0  0  0  0
 27 25  1  0  0  0  0
 28 19  1  1  0  0  0
 28 31  1  0  0  0  0
 29 27  1  0  0  0  0
 30 21  1  0  0  0  0
 32  3  1  0  0  0  0
 33 34  1  0  0  0  0
 33 32  1  0  0  0  0
 35 36  2  0  0  0  0
 36 34  1  0  0  0  0
 36 37  1  0  0  0  0
 39 40  1  0  0  0  0
 39 37  1  1  0  0  0
 39 38  1  0  0  0  0
 40 38  1  0  0  0  0
 40 41  1  1  0  0  0
 42 44  1  0  0  0  0
 43 47  2  0  0  0  0
 44 46  1  1  0  0  0
 44 43  1  0  0  0  0
 45 49  1  0  0  0  0
 48 41  1  0  0  0  0
 48 42  1  0  0  0  0
 48 45  1  0  0  0  0
 49 43  1  0  0  0  0
M  END
>  <MODEL>
3

>  <REMARK>
 VINA RESULT:      -7.5      3.177      6.920
  Name = 
  17 active torsions:
  status: ('A' for Active; 'I' for Inactive)
    1  A    between atoms: C_2  and  C_48
    2  A    between atoms: N_3  and  C_22
    3  A    between atoms: S_8  and  C_16
    4  A    between atoms: S_8  and  C_27
    5  A    between atoms: C_15  and  S_25
    6  A    between atoms: C_16  and  C_43
    7  A    between atoms: C_17  and  S_25
    8  A    between atoms: C_17  and  C_31
    9  A    between atoms: C_21  and  N_30
   10  A    between atoms: C_21  and  C_45
   11  A    between atoms: C_22  and  C_27
   12  A    between atoms: C_23  and  N_36
   13  A    between atoms: C_23  and  C_42
   14  A    between atoms: N_30  and  C_43
   15  A    between atoms: C_31  and  C_41
   16  A    between atoms: C_32  and  C_44
   17  A    between atoms: C_41  and  C_44
                            x       y       z     vdW  Elec       q    Type
                         _______ _______ _______ _____ _____    ______ ____

>  <TORSDO>
F 17

$$$$
=
 OpenBabel11032419383D

 49 54  0  0  1  0  0  0  0  0999 V2000
  186.4320  178.5630  139.3360 N   0  0  0  0  0  0  0  0  0  0  0  0
  187.6170  177.9540  136.9720 O   0  0  0  0  0  0  0  0  0  0  0  0
  187.5830  178.2850  139.8810 C   0  0  0  0  0  0  0  0  0  0  0  0
  188.6850  177.8910  139.0590 N   0  0  0  0  0  2  0  0  0  0  0  0
  188.6670  177.7410  137.6350 C   0  0  0  0  0  0  0  0  0  0  0  0
  189.9090  177.2920  136.9410 C   0  0  2  0  0  3  0  0  0  0  0  0
  189.5850  176.6610  135.5760 C   0  0  0  0  0  2  0  0  0  0  0  0
  191.8740  175.6020  135.8220 C   0  0  0  0  0  2  0  0  0  0  0  0
  190.4400  175.4160  135.3190 C   0  0  0  0  0  2  0  0  0  0  0  0
  190.6280  176.4030  137.7590 O   0  0  0  0  0  0  0  0  0  0  0  0
  191.9120  176.3070  137.1880 C   0  0  0  0  0  2  0  0  0  0  0  0
  185.2160  178.9810  139.9770 C   0  0  0  0  0  0  0  0  0  0  0  0
  185.2130  179.5120  141.1180 O   0  0  0  0  0  0  0  0  0  0  0  0
  183.9210  178.7960  139.2650 C   0  0  0  0  0  2  0  0  0  0  0  0
  183.9700  177.3090  138.2190 S   0  0  0  0  0  0  0  0  0  0  0  0
  182.6910  176.4320  139.1740 C   0  0  0  0  0  2  0  0  0  0  0  0
  181.3270  176.5990  138.5300 C   0  0  0  0  0  2  0  0  0  0  0  0
  180.7180  177.8450  138.9630 N   0  0  0  0  0  2  0  0  0  0  0  0
  179.7610  178.2230  137.9410 C   0  0  0  0  0  2  0  0  0  0  0  0
  179.9660  183.1940  134.8830 C   0  0  0  0  0  2  0  0  0  0  0  0
  180.0650  180.5330  137.2730 N   0  0  0  0  0  0  0  0  0  0  0  0
  180.5220  181.2940  139.4050 C   0  0  0  0  0  3  0  0  0  0  0  0
  180.8420  182.5700  137.1760 C   0  0  0  0  0  0  0  0  0  0  0  0
  180.7110  181.4520  137.9570 C   0  0  0  0  0  0  0  0  0  0  0  0
  181.2970  183.9520  137.5250 C   0  0  0  0  0  2  0  0  0  0  0  0
  180.2550  182.2110  135.9750 C   0  0  0  0  0  0  0  0  0  0  0  0
  180.7000  184.9700  136.5410 C   0  0  0  0  0  2  0  0  0  0  0  0
  179.3290  179.6620  138.1550 C   0  0  2  0  0  3  0  0  0  0  0  0
  180.7930  184.4730  135.0880 C   0  0  0  0  0  2  0  0  0  0  0  0
  179.7060  180.9810  136.0810 N   0  0  0  0  0  0  0  0  0  0  0  0
  179.6710  180.0930  139.5270 N   0  0  0  0  0  0  0  0  0  0  0  0
  187.8520  178.3340  141.6570 S   0  0  0  0  0  0  0  0  0  0  0  0
  189.4110  177.4170  141.5350 C   0  0  0  0  0  2  0  0  0  0  0  0
  190.4230  178.0250  142.4890 C   0  0  0  0  0  2  0  0  0  0  0  0
  190.6400  175.8310  143.3190 O   0  0  0  0  0  0  0  0  0  0  0  0
  190.8370  177.0190  143.5130 C   0  0  0  0  0  0  0  0  0  0  0  0
  191.4430  177.4630  144.8030 C   0  0  0  0  0  2  0  0  0  0  0  0
  192.2910  176.7070  146.9260 O   0  0  0  0  0  0  0  0  0  0  0  0
  191.7620  176.2650  145.6980 C   0  0  1  0  0  3  0  0  0  0  0  0
  190.9820  176.1930  146.9710 C   0  0  2  0  0  3  0  0  0  0  0  0
  190.0040  177.3390  147.2150 C   0  0  0  0  0  2  0  0  0  0  0  0
  187.9970  177.2250  146.0050 C   0  0  0  0  0  2  0  0  0  0  0  0
  186.3670  178.6550  147.1720 C   0  0  0  0  0  0  0  0  0  0  0  0
  186.5100  177.5580  146.1510 C   0  0  1  0  0  3  0  0  0  0  0  0
  188.0100  177.3700  148.4860 C   0  0  0  0  0  2  0  0  0  0  0  0
  185.9720  177.9860  144.7960 C   0  0  0  0  0  1  0  0  0  0  0  0
  185.4540  179.4640  147.1110 O   0  0  0  0  0  0  0  0  0  0  0  0
  188.6430  176.8310  147.2680 N   0  0  0  0  0  0  0  0  0  0  0  0
  187.3600  178.7400  148.2850 C   0  0  0  0  0  2  0  0  0  0  0  0
  1  3  2  0  0  0  0
  1 12  1  0  0  0  0
  2  5  2  0  0  0  0
  3 32  1  0  0  0  0
  4  3  1  0  0  0  0
  5  4  1  0  0  0  0
  6  5  1  1  0  0  0
  6 10  1  0  0  0  0
  7  6  1  0  0  0  0
  8 11  1  0  0  0  0
  9  7  1  0  0  0  0
  9  8  1  0  0  0  0
 11 10  1  0  0  0  0
 12 13  2  0  0  0  0
 14 12  1  0  0  0  0
 15 16  1  0  0  0  0
 15 14  1  0  0  0  0
 17 18  1  0  0  0  0
 17 16  1  0  0  0  0
 19 18  1  0  0  0  0
 20 29  1  0  0  0  0
 20 26  1  0  0  0  0
 21 24  1  0  0  0  0
 21 28  1  0  0  0  0
 22 31  2  0  0  0  0
 23 25  1  0  0  0  0
 23 24  2  0  0  0  0
 24 22  1  0  0  0  0
 26 30  2  0  0  0  0
 26 23  1  0  0  0  0
 27 25  1  0  0  0  0
 28 19  1  1  0  0  0
 28 31  1  0  0  0  0
 29 27  1  0  0  0  0
 30 21  1  0  0  0  0
 33 32  1  0  0  0  0
 33 34  1  0  0  0  0
 34 36  1  0  0  0  0
 35 36  2  0  0  0  0
 36 37  1  0  0  0  0
 38 40  1  0  0  0  0
 39 37  1  6  0  0  0
 39 38  1  0  0  0  0
 39 40  1  0  0  0  0
 40 41  1  6  0  0  0
 41 48  1  0  0  0  0
 42 44  1  0  0  0  0
 42 48  1  0  0  0  0
 43 49  1  0  0  0  0
 44 46  1  6  0  0  0
 44 43  1  0  0  0  0
 47 43  2  0  0  0  0
 48 45  1  0  0  0  0
 49 45  1  0  0  0  0
M  END
>  <MODEL>
4

>  <REMARK>
 VINA RESULT:      -7.3      2.588     11.372
  Name = 
  17 active torsions:
  status: ('A' for Active; 'I' for Inactive)
    1  A    between atoms: C_2  and  C_48
    2  A    between atoms: N_3  and  C_22
    3  A    between atoms: S_8  and  C_16
    4  A    between atoms: S_8  and  C_27
    5  A    between atoms: C_15  and  S_25
    6  A    between atoms: C_16  and  C_43
    7  A    between atoms: C_17  and  S_25
    8  A    between atoms: C_17  and  C_31
    9  A    between atoms: C_21  and  N_30
   10  A    between atoms: C_21  and  C_45
   11  A    between atoms: C_22  and  C_27
   12  A    between atoms: C_23  and  N_36
   13  A    between atoms: C_23  and  C_42
   14  A    between atoms: N_30  and  C_43
   15  A    between atoms: C_31  and  C_41
   16  A    between atoms: C_32  and  C_44
   17  A    between atoms: C_41  and  C_44
                            x       y       z     vdW  Elec       q    Type
                         _______ _______ _______ _____ _____    ______ ____

>  <TORSDO>
F 17

$$$$
=
 OpenBabel11032419383D

 49 54  0  0  1  0  0  0  0  0999 V2000
  191.1780  176.7770  139.1770 N   0  0  0  0  0  0  0  0  0  0  0  0
  193.8430  176.3830  138.8510 O   0  0  0  0  0  0  0  0  0  0  0  0
  191.0290  175.9990  138.1420 C   0  0  0  0  0  0  0  0  0  0  0  0
  192.1760  175.4290  137.5060 N   0  0  0  0  0  2  0  0  0  0  0  0
  193.5420  175.6370  137.8820 C   0  0  0  0  0  0  0  0  0  0  0  0
  194.6180  174.9810  137.0830 C   0  0  2  0  0  3  0  0  0  0  0  0
  195.5460  174.1460  137.9820 C   0  0  0  0  0  2  0  0  0  0  0  0
  197.1720  174.3660  136.0500 C   0  0  0  0  0  2  0  0  0  0  0  0
  197.0130  174.3080  137.5720 C   0  0  0  0  0  2  0  0  0  0  0  0
  195.3380  175.9440  136.3550 O   0  0  0  0  0  0  0  0  0  0  0  0
  196.0790  175.2270  135.3950 C   0  0  0  0  0  2  0  0  0  0  0  0
  190.1660  177.4350  139.9560 C   0  0  0  0  0  0  0  0  0  0  0  0
  189.3710  178.2680  139.4480 O   0  0  0  0  0  0  0  0  0  0  0  0
  190.0420  177.1110  141.4040 C   0  0  0  0  0  2  0  0  0  0  0  0
  191.4770  177.7390  142.3280 S   0  0  0  0  0  0  0  0  0  0  0  0
  191.3720  176.4620  143.6220 C   0  0  0  0  0  2  0  0  0  0  0  0
  189.9730  176.4000  144.2060 C   0  0  0  0  0  2  0  0  0  0  0  0
  189.9980  176.7860  145.6070 N   0  0  0  0  0  2  0  0  0  0  0  0
  189.1080  177.9230  145.7450 C   0  0  0  0  0  2  0  0  0  0  0  0
  184.4700  178.0400  142.1990 C   0  0  0  0  0  2  0  0  0  0  0  0
  186.8680  178.1680  144.8510 N   0  0  0  0  0  0  0  0  0  0  0  0
  185.8790  178.5480  146.9020 C   0  0  0  0  0  3  0  0  0  0  0  0
  184.8260  178.8810  144.5610 C   0  0  0  0  0  0  0  0  0  0  0  0
  185.8630  178.7670  145.4500 C   0  0  0  0  0  0  0  0  0  0  0  0
  183.4000  179.2820  144.7760 C   0  0  0  0  0  2  0  0  0  0  0  0
  185.3250  178.3350  143.3910 C   0  0  0  0  0  0  0  0  0  0  0  0
  182.5100  178.6760  143.6800 C   0  0  0  0  0  2  0  0  0  0  0  0
  187.6700  177.4400  145.8010 C   0  0  2  0  0  3  0  0  0  0  0  0
  183.1480  178.8200  142.2890 C   0  0  0  0  0  2  0  0  0  0  0  0
  186.5570  177.8230  143.6120 N   0  0  0  0  0  0  0  0  0  0  0  0
  187.0900  177.7340  147.1290 N   0  0  0  0  0  0  0  0  0  0  0  0
  189.4200  175.6310  137.4310 S   0  0  0  0  0  0  0  0  0  0  0  0
  189.6540  176.8050  136.0700 C   0  0  0  0  0  2  0  0  0  0  0  0
  188.4060  176.8260  135.2080 C   0  0  0  0  0  2  0  0  0  0  0  0
  187.7510  178.7060  136.4660 O   0  0  0  0  0  0  0  0  0  0  0  0
  187.3920  177.7580  135.7860 C   0  0  0  0  0  0  0  0  0  0  0  0
  185.9340  177.5080  135.5840 C   0  0  0  0  0  2  0  0  0  0  0  0
  185.9150  175.8420  137.3220 O   0  0  0  0  0  0  0  0  0  0  0  0
  185.5660  176.0760  135.9780 C   0  0  1  0  0  3  0  0  0  0  0  0
  184.5380  175.9560  137.0570 C   0  0  2  0  0  3  0  0  0  0  0  0
  184.0260  177.2730  137.6340 C   0  0  0  0  0  2  0  0  0  0  0  0
  182.1530  178.5300  138.2820 C   0  0  0  0  0  2  0  0  0  0  0  0
  180.9220  177.1900  139.9410 C   0  0  0  0  0  0  0  0  0  0  0  0
  180.8160  178.3660  139.0070 C   0  0  1  0  0  3  0  0  0  0  0  0
  182.0430  176.0560  138.0600 C   0  0  0  0  0  2  0  0  0  0  0  0
  180.5110  179.6490  139.7620 C   0  0  0  0  0  1  0  0  0  0  0  0
  180.2810  177.1430  140.9790 O   0  0  0  0  0  0  0  0  0  0  0  0
  182.5770  177.3290  137.5410 N   0  0  0  0  0  0  0  0  0  0  0  0
  181.8220  176.0550  139.5740 C   0  0  0  0  0  2  0  0  0  0  0  0
  1 12  1  0  0  0  0
  3  1  2  0  0  0  0
  4  5  1  0  0  0  0
  4  3  1  0  0  0  0
  5  2  2  0  0  0  0
  6  5  1  1  0  0  0
  6  7  1  0  0  0  0
  8  9  1  0  0  0  0
  9  7  1  0  0  0  0
 10  6  1  0  0  0  0
 11  8  1  0  0  0  0
 11 10  1  0  0  0  0
 12 14  1  0  0  0  0
 13 12  2  0  0  0  0
 14 15  1  0  0  0  0
 15 16  1  0  0  0  0
 16 17  1  0  0  0  0
 17 18  1  0  0  0  0
 18 19  1  0  0  0  0
 20 29  1  0  0  0  0
 20 26  1  0  0  0  0
 21 24  1  0  0  0  0
 21 28  1  0  0  0  0
 22 31  2  0  0  0  0
 23 25  1  0  0  0  0
 23 24  2  0  0  0  0
 24 22  1  0  0  0  0
 26 30  2  0  0  0  0
 26 23  1  0  0  0  0
 27 25  1  0  0  0  0
 28 19  1  1  0  0  0
 28 31  1  0  0  0  0
 29 27  1  0  0  0  0
 30 21  1  0  0  0  0
 32  3  1  0  0  0  0
 33 32  1  0  0  0  0
 34 36  1  0  0  0  0
 34 33  1  0  0  0  0
 36 35  2  0  0  0  0
 37 36  1  0  0  0  0
 39 37  1  1  0  0  0
 39 40  1  0  0  0  0
 39 38  1  0  0  0  0
 40 38  1  0  0  0  0
 40 41  1  1  0  0  0
 42 44  1  0  0  0  0
 43 47  2  0  0  0  0
 44 46  1  1  0  0  0
 44 43  1  0  0  0  0
 45 49  1  0  0  0  0
 48 41  1  0  0  0  0
 48 45  1  0  0  0  0
 48 42  1  0  0  0  0
 49 43  1  0  0  0  0
M  END
>  <MODEL>
5

>  <REMARK>
 VINA RESULT:      -7.3      3.170      7.319
  Name = 
  17 active torsions:
  status: ('A' for Active; 'I' for Inactive)
    1  A    between atoms: C_2  and  C_48
    2  A    between atoms: N_3  and  C_22
    3  A    between atoms: S_8  and  C_16
    4  A    between atoms: S_8  and  C_27
    5  A    between atoms: C_15  and  S_25
    6  A    between atoms: C_16  and  C_43
    7  A    between atoms: C_17  and  S_25
    8  A    between atoms: C_17  and  C_31
    9  A    between atoms: C_21  and  N_30
   10  A    between atoms: C_21  and  C_45
   11  A    between atoms: C_22  and  C_27
   12  A    between atoms: C_23  and  N_36
   13  A    between atoms: C_23  and  C_42
   14  A    between atoms: N_30  and  C_43
   15  A    between atoms: C_31  and  C_41
   16  A    between atoms: C_32  and  C_44
   17  A    between atoms: C_41  and  C_44
                            x       y       z     vdW  Elec       q    Type
                         _______ _______ _______ _____ _____    ______ ____

>  <TORSDO>
F 17

$$$$
=
 OpenBabel11032419383D

 49 54  0  0  1  0  0  0  0  0999 V2000
  186.7620  178.3870  139.8740 N   0  0  0  0  0  0  0  0  0  0  0  0
  187.4780  177.2860  137.4990 O   0  0  0  0  0  0  0  0  0  0  0  0
  187.9590  178.0710  140.2780 C   0  0  0  0  0  0  0  0  0  0  0  0
  188.8710  177.4310  139.3800 N   0  0  0  0  0  2  0  0  0  0  0  0
  188.6010  177.0630  138.0230 C   0  0  0  0  0  0  0  0  0  0  0  0
  189.6670  176.3740  137.2370 C   0  0  2  0  0  3  0  0  0  0  0  0
  189.3290  174.8880  137.0280 C   0  0  0  0  0  2  0  0  0  0  0  0
  191.8140  174.6600  136.5920 C   0  0  0  0  0  2  0  0  0  0  0  0
  190.5690  174.0050  137.1940 C   0  0  0  0  0  2  0  0  0  0  0  0
  190.9130  176.5330  137.8670 O   0  0  0  0  0  0  0  0  0  0  0  0
  191.8790  176.1630  136.9110 C   0  0  0  0  0  2  0  0  0  0  0  0
  185.7110  179.0340  140.6090 C   0  0  0  0  0  0  0  0  0  0  0  0
  185.9310  179.6510  141.6830 O   0  0  0  0  0  0  0  0  0  0  0  0
  184.3200  178.9880  140.0770 C   0  0  0  0  0  2  0  0  0  0  0  0
  183.4150  177.5710  140.7670 S   0  0  0  0  0  0  0  0  0  0  0  0
  181.8570  178.4940  140.9710 C   0  0  0  0  0  2  0  0  0  0  0  0
  180.7750  177.9320  140.0670 C   0  0  0  0  0  2  0  0  0  0  0  0
  181.2170  177.9580  138.6830 N   0  0  0  0  0  2  0  0  0  0  0  0
  180.6180  176.8100  138.0290 C   0  0  0  0  0  2  0  0  0  0  0  0
  182.1390  171.4660  136.2290 C   0  0  0  0  0  2  0  0  0  0  0  0
  181.8800  174.8520  137.3580 N   0  0  0  0  0  0  0  0  0  0  0  0
  183.9270  175.9190  137.3870 C   0  0  0  0  0  3  0  0  0  0  0  0
  183.4810  173.3760  137.2130 C   0  0  0  0  0  0  0  0  0  0  0  0
  183.1700  174.6700  137.5380 C   0  0  0  0  0  0  0  0  0  0  0  0
  184.8090  172.7100  137.0360 C   0  0  0  0  0  2  0  0  0  0  0  0
  182.2630  172.8140  136.8690 C   0  0  0  0  0  0  0  0  0  0  0  0
  184.6730  171.5000  136.0990 C   0  0  0  0  0  2  0  0  0  0  0  0
  181.5980  176.2260  137.0270 C   0  0  2  0  0  3  0  0  0  0  0  0
  183.4300  170.6590  136.4380 C   0  0  0  0  0  2  0  0  0  0  0  0
  181.3000  173.7620  136.8820 N   0  0  0  0  0  0  0  0  0  0  0  0
  182.8920  176.9360  137.1140 N   0  0  0  0  0  0  0  0  0  0  0  0
  188.5250  178.3660  141.9590 S   0  0  0  0  0  0  0  0  0  0  0  0
  189.7110  176.9970  141.8940 C   0  0  0  0  0  2  0  0  0  0  0  0
  191.0410  177.4620  142.4560 C   0  0  0  0  0  2  0  0  0  0  0  0
  191.6560  175.4860  143.5830 O   0  0  0  0  0  0  0  0  0  0  0  0
  191.3920  176.6740  143.6770 C   0  0  0  0  0  0  0  0  0  0  0  0
  191.3680  177.3180  145.0230 C   0  0  0  0  0  2  0  0  0  0  0  0
  192.1180  176.9710  147.2850 O   0  0  0  0  0  0  0  0  0  0  0  0
  191.6930  176.3030  146.1210 C   0  0  1  0  0  3  0  0  0  0  0  0
  190.8370  176.3900  147.3440 C   0  0  2  0  0  3  0  0  0  0  0  0
  189.7870  177.4970  147.3400 C   0  0  0  0  0  2  0  0  0  0  0  0
  187.9200  177.2440  145.9410 C   0  0  0  0  0  2  0  0  0  0  0  0
  186.1130  178.6190  146.8910 C   0  0  0  0  0  0  0  0  0  0  0  0
  186.4120  177.5030  145.9270 C   0  0  1  0  0  3  0  0  0  0  0  0
  187.6760  177.4610  148.4050 C   0  0  0  0  0  2  0  0  0  0  0  0
  185.9930  177.8620  144.5120 C   0  0  0  0  0  1  0  0  0  0  0  0
  185.1720  179.3770  146.7130 O   0  0  0  0  0  0  0  0  0  0  0  0
  188.4550  176.9210  147.2750 N   0  0  0  0  0  0  0  0  0  0  0  0
  186.9830  178.7890  148.0950 C   0  0  0  0  0  2  0  0  0  0  0  0
  1  3  2  0  0  0  0
  1 12  1  0  0  0  0
  2  5  2  0  0  0  0
  3 32  1  0  0  0  0
  4  3  1  0  0  0  0
  5  4  1  0  0  0  0
  6 10  1  0  0  0  0
  6  5  1  1  0  0  0
  7  9  1  0  0  0  0
  7  6  1  0  0  0  0
  8 11  1  0  0  0  0
  8  9  1  0  0  0  0
 11 10  1  0  0  0  0
 12 13  2  0  0  0  0
 14 12  1  0  0  0  0
 14 15  1  0  0  0  0
 15 16  1  0  0  0  0
 17 16  1  0  0  0  0
 18 17  1  0  0  0  0
 19 18  1  0  0  0  0
 20 29  1  0  0  0  0
 20 26  1  0  0  0  0
 21 24  1  0  0  0  0
 22 24  1  0  0  0  0
 23 24  2  0  0  0  0
 25 23  1  0  0  0  0
 26 30  2  0  0  0  0
 26 23  1  0  0  0  0
 27 29  1  0  0  0  0
 27 25  1  0  0  0  0
 28 31  1  0  0  0  0
 28 21  1  0  0  0  0
 28 19  1  1  0  0  0
 30 21  1  0  0  0  0
 31 22  2  0  0  0  0
 33 32  1  0  0  0  0
 33 34  1  0  0  0  0
 34 36  1  0  0  0  0
 35 36  2  0  0  0  0
 36 37  1  0  0  0  0
 38 40  1  0  0  0  0
 39 37  1  6  0  0  0
 39 38  1  0  0  0  0
 39 40  1  0  0  0  0
 40 41  1  6  0  0  0
 42 48  1  0  0  0  0
 43 49  1  0  0  0  0
 44 46  1  6  0  0  0
 44 42  1  0  0  0  0
 44 43  1  0  0  0  0
 47 43  2  0  0  0  0
 48 41  1  0  0  0  0
 48 45  1  0  0  0  0
 49 45  1  0  0  0  0
M  END
>  <MODEL>
6

>  <REMARK>
 VINA RESULT:      -7.3      3.491     10.862
  Name = 
  17 active torsions:
  status: ('A' for Active; 'I' for Inactive)
    1  A    between atoms: C_2  and  C_48
    2  A    between atoms: N_3  and  C_22
    3  A    between atoms: S_8  and  C_16
    4  A    between atoms: S_8  and  C_27
    5  A    between atoms: C_15  and  S_25
    6  A    between atoms: C_16  and  C_43
    7  A    between atoms: C_17  and  S_25
    8  A    between atoms: C_17  and  C_31
    9  A    between atoms: C_21  and  N_30
   10  A    between atoms: C_21  and  C_45
   11  A    between atoms: C_22  and  C_27
   12  A    between atoms: C_23  and  N_36
   13  A    between atoms: C_23  and  C_42
   14  A    between atoms: N_30  and  C_43
   15  A    between atoms: C_31  and  C_41
   16  A    between atoms: C_32  and  C_44
   17  A    between atoms: C_41  and  C_44
                            x       y       z     vdW  Elec       q    Type
                         _______ _______ _______ _____ _____    ______ ____

>  <TORSDO>
F 17

$$$$
=
 OpenBabel11032419383D

 49 54  0  0  1  0  0  0  0  0999 V2000
  191.8160  177.3230  141.4560 N   0  0  0  0  0  0  0  0  0  0  0  0
  193.6750  176.8680  139.5320 O   0  0  0  0  0  0  0  0  0  0  0  0
  190.9320  177.1530  140.5140 C   0  0  0  0  0  0  0  0  0  0  0  0
  191.3560  176.8450  139.1830 N   0  0  0  0  0  2  0  0  0  0  0  0
  192.7100  176.7100  138.7380 C   0  0  0  0  0  0  0  0  0  0  0  0
  192.9700  176.4120  137.2990 C   0  0  2  0  0  3  0  0  0  0  0  0
  192.0380  175.3000  136.7860 C   0  0  0  0  0  2  0  0  0  0  0  0
  193.7810  175.0490  134.9640 C   0  0  0  0  0  2  0  0  0  0  0  0
  192.7850  174.3240  135.8730 C   0  0  0  0  0  2  0  0  0  0  0  0
  194.3210  176.0780  137.1080 O   0  0  0  0  0  0  0  0  0  0  0  0
  194.5440  176.1500  135.7190 C   0  0  0  0  0  2  0  0  0  0  0  0
  191.6000  177.6260  142.8440 C   0  0  0  0  0  0  0  0  0  0  0  0
  191.4950  178.8090  143.2580 O   0  0  0  0  0  0  0  0  0  0  0  0
  191.4790  176.5070  143.8190 C   0  0  0  0  0  2  0  0  0  0  0  0
  191.8400  177.0840  145.5050 S   0  0  0  0  0  0  0  0  0  0  0  0
  190.9090  175.7400  146.3080 C   0  0  0  0  0  2  0  0  0  0  0  0
  190.4990  176.1340  147.7160 C   0  0  0  0  0  2  0  0  0  0  0  0
  190.0270  177.5080  147.7320 N   0  0  0  0  0  2  0  0  0  0  0  0
  188.5790  177.4560  147.6590 C   0  0  0  0  0  2  0  0  0  0  0  0
  183.4110  179.0010  145.4210 C   0  0  0  0  0  2  0  0  0  0  0  0
  186.7670  177.9920  146.1400 N   0  0  0  0  0  0  0  0  0  0  0  0
  188.0680  177.8760  144.2370 C   0  0  0  0  0  3  0  0  0  0  0  0
  185.4870  177.9980  144.3730 C   0  0  0  0  0  0  0  0  0  0  0  0
  186.7430  177.7320  144.8520 C   0  0  0  0  0  0  0  0  0  0  0  0
  184.9780  178.0770  142.9680 C   0  0  0  0  0  2  0  0  0  0  0  0
  184.7780  178.3960  145.4940 C   0  0  0  0  0  0  0  0  0  0  0  0
  183.7380  178.9830  142.9050 C   0  0  0  0  0  2  0  0  0  0  0  0
  188.0910  178.3800  146.5590 C   0  0  2  0  0  3  0  0  0  0  0  0
  182.7660  178.6930  144.0600 C   0  0  0  0  0  2  0  0  0  0  0  0
  185.6060  178.4680  146.5590 N   0  0  0  0  0  0  0  0  0  0  0  0
  188.9500  178.2390  145.3630 N   0  0  0  0  0  0  0  0  0  0  0  0
  189.1660  177.3320  140.7990 S   0  0  0  0  0  0  0  0  0  0  0  0
  188.8740  177.9830  139.1330 C   0  0  0  0  0  2  0  0  0  0  0  0
  187.6770  177.2760  138.5240 C   0  0  0  0  0  2  0  0  0  0  0  0
  187.3330  179.1090  137.0840 O   0  0  0  0  0  0  0  0  0  0  0  0
  186.8200  178.2530  137.7860 C   0  0  0  0  0  0  0  0  0  0  0  0
  185.3360  178.2240  137.9440 C   0  0  0  0  0  2  0  0  0  0  0  0
  184.4510  180.1230  139.1310 O   0  0  0  0  0  0  0  0  0  0  0  0
  184.9190  178.8060  139.2960 C   0  0  1  0  0  3  0  0  0  0  0  0
  183.4710  179.1560  139.4210 C   0  0  2  0  0  3  0  0  0  0  0  0
  182.6210  178.9170  138.1770 C   0  0  0  0  0  2  0  0  0  0  0  0
  181.1290  179.7640  139.7770 C   0  0  0  0  0  2  0  0  0  0  0  0
  180.1640  177.8320  140.9600 C   0  0  0  0  0  0  0  0  0  0  0  0
  179.9900  179.3030  140.6890 C   0  0  1  0  0  3  0  0  0  0  0  0
  180.6570  177.6530  138.5510 C   0  0  0  0  0  2  0  0  0  0  0  0
  180.0370  180.1140  141.9730 C   0  0  0  0  0  1  0  0  0  0  0  0
  179.7850  177.3290  142.0070 O   0  0  0  0  0  0  0  0  0  0  0  0
  181.2100  179.0200  138.5080 N   0  0  0  0  0  0  0  0  0  0  0  0
  180.8020  176.9750  139.9140 C   0  0  0  0  0  2  0  0  0  0  0  0
  1 12  1  0  0  0  0
  3 32  1  0  0  0  0
  3  1  2  0  0  0  0
  4  3  1  0  0  0  0
  5  4  1  0  0  0  0
  5  2  2  0  0  0  0
  6  5  1  1  0  0  0
  7  6  1  0  0  0  0
  8 11  1  0  0  0  0
  8  9  1  0  0  0  0
  9  7  1  0  0  0  0
 10  6  1  0  0  0  0
 11 10  1  0  0  0  0
 12 13  2  0  0  0  0
 12 14  1  0  0  0  0
 14 15  1  0  0  0  0
 15 16  1  0  0  0  0
 16 17  1  0  0  0  0
 17 18  1  0  0  0  0
 19 18  1  0  0  0  0
 20 26  1  0  0  0  0
 21 30  1  0  0  0  0
 21 28  1  0  0  0  0
 22 24  1  0  0  0  0
 22 31  2  0  0  0  0
 23 24  2  0  0  0  0
 23 26  1  0  0  0  0
 24 21  1  0  0  0  0
 25 23  1  0  0  0  0
 26 30  2  0  0  0  0
 27 25  1  0  0  0  0
 27 29  1  0  0  0  0
 28 19  1  1  0  0  0
 29 20  1  0  0  0  0
 31 28  1  0  0  0  0
 33 32  1  0  0  0  0
 34 33  1  0  0  0  0
 35 36  2  0  0  0  0
 36 37  1  0  0  0  0
 36 34  1  0  0  0  0
 38 39  1  0  0  0  0
 38 40  1  0  0  0  0
 39 37  1  6  0  0  0
 39 40  1  0  0  0  0
 40 41  1  6  0  0  0
 41 48  1  0  0  0  0
 42 44  1  0  0  0  0
 43 47  2  0  0  0  0
 44 43  1  0  0  0  0
 44 46  1  1  0  0  0
 45 49  1  0  0  0  0
 48 45  1  0  0  0  0
 48 42  1  0  0  0  0
 49 43  1  0  0  0  0
M  END
>  <MODEL>
7

>  <REMARK>
 VINA RESULT:      -7.1      3.013      6.947
  Name = 
  17 active torsions:
  status: ('A' for Active; 'I' for Inactive)
    1  A    between atoms: C_2  and  C_48
    2  A    between atoms: N_3  and  C_22
    3  A    between atoms: S_8  and  C_16
    4  A    between atoms: S_8  and  C_27
    5  A    between atoms: C_15  and  S_25
    6  A    between atoms: C_16  and  C_43
    7  A    between atoms: C_17  and  S_25
    8  A    between atoms: C_17  and  C_31
    9  A    between atoms: C_21  and  N_30
   10  A    between atoms: C_21  and  C_45
   11  A    between atoms: C_22  and  C_27
   12  A    between atoms: C_23  and  N_36
   13  A    between atoms: C_23  and  C_42
   14  A    between atoms: N_30  and  C_43
   15  A    between atoms: C_31  and  C_41
   16  A    between atoms: C_32  and  C_44
   17  A    between atoms: C_41  and  C_44
                            x       y       z     vdW  Elec       q    Type
                         _______ _______ _______ _____ _____    ______ ____

>  <TORSDO>
F 17

$$$$
=
 OpenBabel11032419383D

 49 54  0  0  1  0  0  0  0  0999 V2000
  187.3600  175.9430  137.4910 N   0  0  0  0  0  0  0  0  0  0  0  0
  186.9360  173.2790  137.1870 O   0  0  0  0  0  0  0  0  0  0  0  0
  186.2880  176.1040  136.7670 C   0  0  0  0  0  0  0  0  0  0  0  0
  185.5670  174.9620  136.2950 N   0  0  0  0  0  2  0  0  0  0  0  0
  185.9130  173.5910  136.5220 C   0  0  0  0  0  0  0  0  0  0  0  0
  185.0570  172.5240  135.9260 C   0  0  2  0  0  3  0  0  0  0  0  0
  183.6920  172.4480  136.6320 C   0  0  0  0  0  2  0  0  0  0  0  0
  183.6100  170.1170  135.6420 C   0  0  0  0  0  2  0  0  0  0  0  0
  183.2530  170.9960  136.8430 C   0  0  0  0  0  2  0  0  0  0  0  0
  185.7240  171.2880  135.9650 O   0  0  0  0  0  0  0  0  0  0  0  0
  185.0120  170.4370  135.0980 C   0  0  0  0  0  2  0  0  0  0  0  0
  188.2120  176.9480  138.0640 C   0  0  0  0  0  0  0  0  0  0  0  0
  187.9450  177.5010  139.1620 O   0  0  0  0  0  0  0  0  0  0  0  0
  189.4580  177.3360  137.3460 C   0  0  0  0  0  2  0  0  0  0  0  0
  190.9050  176.5220  138.0860 S   0  0  0  0  0  0  0  0  0  0  0  0
  190.8350  177.4960  139.6240 C   0  0  0  0  0  2  0  0  0  0  0  0
  192.1710  177.4670  140.3420 C   0  0  0  0  0  2  0  0  0  0  0  0
  191.9940  176.9970  141.7070 N   0  0  0  0  0  2  0  0  0  0  0  0
  190.5790  177.1070  142.0080 C   0  0  0  0  0  2  0  0  0  0  0  0
  186.6540  177.7330  146.2860 C   0  0  0  0  0  2  0  0  0  0  0  0
  189.5120  177.3180  144.1750 N   0  0  0  0  0  0  0  0  0  0  0  0
  191.4280  176.8670  145.3810 C   0  0  0  0  0  3  0  0  0  0  0  0
  189.1860  177.7960  146.2780 C   0  0  0  0  0  0  0  0  0  0  0  0
  190.1260  177.5430  145.3150 C   0  0  0  0  0  0  0  0  0  0  0  0
  189.3210  177.9040  147.7650 C   0  0  0  0  0  2  0  0  0  0  0  0
  187.9820  177.7370  145.5970 C   0  0  0  0  0  0  0  0  0  0  0  0
  187.9820  177.5720  148.4430 C   0  0  0  0  0  2  0  0  0  0  0  0
  190.2900  176.4370  143.3400 C   0  0  2  0  0  3  0  0  0  0  0  0
  186.8020  178.2500  147.7260 C   0  0  0  0  0  2  0  0  0  0  0  0
  188.1970  177.3570  144.3180 N   0  0  0  0  0  0  0  0  0  0  0  0
  191.5530  176.1990  144.0700 N   0  0  0  0  0  0  0  0  0  0  0  0
  185.6780  177.7250  136.2860 S   0  0  0  0  0  0  0  0  0  0  0  0
  184.0260  177.0850  135.9000 C   0  0  0  0  0  2  0  0  0  0  0  0
  183.1060  177.3340  137.0820 C   0  0  0  0  0  2  0  0  0  0  0  0
  181.5850  178.2730  135.5470 O   0  0  0  0  0  0  0  0  0  0  0  0
  182.0060  178.2670  136.6930 C   0  0  0  0  0  0  0  0  0  0  0  0
  181.4520  179.2350  137.6860 C   0  0  0  0  0  2  0  0  0  0  0  0
  180.5760  177.5650  139.1840 O   0  0  0  0  0  0  0  0  0  0  0  0
  180.2140  178.6610  138.3770 C   0  0  1  0  0  3  0  0  0  0  0  0
  180.2200  178.7420  139.8700 C   0  0  2  0  0  3  0  0  0  0  0  0
  181.4710  179.3530  140.4940 C   0  0  0  0  0  2  0  0  0  0  0  0
  182.2730  178.9810  142.6680 C   0  0  0  0  0  2  0  0  0  0  0  0
  184.7310  178.9640  142.5390 C   0  0  0  0  0  0  0  0  0  0  0  0
  183.5560  178.5850  143.4010 C   0  0  1  0  0  3  0  0  0  0  0  0
  183.4150  178.0190  140.6810 C   0  0  0  0  0  2  0  0  0  0  0  0
  183.5940  179.3030  144.7390 C   0  0  0  0  0  1  0  0  0  0  0  0
  185.8060  179.2730  143.0300 O   0  0  0  0  0  0  0  0  0  0  0  0
  182.1400  178.3730  141.3330 N   0  0  0  0  0  0  0  0  0  0  0  0
  184.5730  178.9470  141.0530 C   0  0  0  0  0  2  0  0  0  0  0  0
  1 12  1  0  0  0  0
  3  1  2  0  0  0  0
  4  5  1  0  0  0  0
  4  3  1  0  0  0  0
  5  2  2  0  0  0  0
  6 10  1  0  0  0  0
  6  5  1  1  0  0  0
  6  7  1  0  0  0  0
  7  9  1  0  0  0  0
  8  9  1  0  0  0  0
 11  8  1  0  0  0  0
 11 10  1  0  0  0  0
 12 13  2  0  0  0  0
 14 12  1  0  0  0  0
 14 15  1  0  0  0  0
 15 16  1  0  0  0  0
 16 17  1  0  0  0  0
 17 18  1  0  0  0  0
 18 19  1  0  0  0  0
 20 29  1  0  0  0  0
 21 30  1  0  0  0  0
 21 24  1  0  0  0  0
 23 25  1  0  0  0  0
 24 22  1  0  0  0  0
 24 23  2  0  0  0  0
 25 27  1  0  0  0  0
 26 23  1  0  0  0  0
 26 20  1  0  0  0  0
 28 19  1  6  0  0  0
 28 31  1  0  0  0  0
 28 21  1  0  0  0  0
 29 27  1  0  0  0  0
 30 26  2  0  0  0  0
 31 22  2  0  0  0  0
 32  3  1  0  0  0  0
 33 32  1  0  0  0  0
 33 34  1  0  0  0  0
 35 36  2  0  0  0  0
 36 34  1  0  0  0  0
 36 37  1  0  0  0  0
 38 40  1  0  0  0  0
 39 37  1  6  0  0  0
 39 38  1  0  0  0  0
 39 40  1  0  0  0  0
 40 41  1  6  0  0  0
 41 48  1  0  0  0  0
 42 44  1  0  0  0  0
 43 47  2  0  0  0  0
 43 44  1  0  0  0  0
 44 46  1  1  0  0  0
 45 49  1  0  0  0  0
 45 48  1  0  0  0  0
 48 42  1  0  0  0  0
 49 43  1  0  0  0  0
M  END
>  <MODEL>
8

>  <REMARK>
 VINA RESULT:      -7.1      2.602      5.371
  Name = 
  17 active torsions:
  status: ('A' for Active; 'I' for Inactive)
    1  A    between atoms: C_2  and  C_48
    2  A    between atoms: N_3  and  C_22
    3  A    between atoms: S_8  and  C_16
    4  A    between atoms: S_8  and  C_27
    5  A    between atoms: C_15  and  S_25
    6  A    between atoms: C_16  and  C_43
    7  A    between atoms: C_17  and  S_25
    8  A    between atoms: C_17  and  C_31
    9  A    between atoms: C_21  and  N_30
   10  A    between atoms: C_21  and  C_45
   11  A    between atoms: C_22  and  C_27
   12  A    between atoms: C_23  and  N_36
   13  A    between atoms: C_23  and  C_42
   14  A    between atoms: N_30  and  C_43
   15  A    between atoms: C_31  and  C_41
   16  A    between atoms: C_32  and  C_44
   17  A    between atoms: C_41  and  C_44
                            x       y       z     vdW  Elec       q    Type
                         _______ _______ _______ _____ _____    ______ ____

>  <TORSDO>
F 17

$$$$
=
 OpenBabel11032419383D

 49 54  0  0  1  0  0  0  0  0999 V2000
  189.9110  177.5680  137.5580 N   0  0  0  0  0  0  0  0  0  0  0  0
  192.4860  176.9410  138.1440 O   0  0  0  0  0  0  0  0  0  0  0  0
  189.9970  176.6600  136.6280 C   0  0  0  0  0  0  0  0  0  0  0  0
  191.2110  175.9220  136.4600 N   0  0  0  0  0  2  0  0  0  0  0  0
  192.4110  176.0850  137.2230 C   0  0  0  0  0  0  0  0  0  0  0  0
  193.5980  175.2440  136.8900 C   0  0  2  0  0  3  0  0  0  0  0  0
  193.7860  174.1160  137.9200 C   0  0  0  0  0  2  0  0  0  0  0  0
  196.1630  174.0740  137.0400 C   0  0  0  0  0  2  0  0  0  0  0  0
  195.2650  173.9230  138.2710 C   0  0  0  0  0  2  0  0  0  0  0  0
  194.7490  176.0450  136.7900 O   0  0  0  0  0  0  0  0  0  0  0  0
  195.7190  175.2480  136.1520 C   0  0  0  0  0  2  0  0  0  0  0  0
  188.7910  178.4040  137.8920 C   0  0  0  0  0  0  0  0  0  0  0  0
  188.6790  179.5760  137.4490 O   0  0  0  0  0  0  0  0  0  0  0  0
  187.7220  177.8620  138.7770 C   0  0  0  0  0  2  0  0  0  0  0  0
  186.1510  177.7200  137.8740 S   0  0  0  0  0  0  0  0  0  0  0  0
  185.2480  178.8290  139.0010 C   0  0  0  0  0  2  0  0  0  0  0  0
  185.7240  178.6500  140.4310 C   0  0  0  0  0  2  0  0  0  0  0  0
  184.7000  179.1020  141.3590 N   0  0  0  0  0  2  0  0  0  0  0  0
  184.7480  178.2120  142.5030 C   0  0  0  0  0  2  0  0  0  0  0  0
  189.6950  177.4660  145.5160 C   0  0  0  0  0  2  0  0  0  0  0  0
  186.3790  178.0030  144.2850 N   0  0  0  0  0  0  0  0  0  0  0  0
  184.9180  178.6290  145.9600 C   0  0  0  0  0  3  0  0  0  0  0  0
  187.2680  177.5780  146.2320 C   0  0  0  0  0  0  0  0  0  0  0  0
  186.1060  177.8620  145.5630 C   0  0  0  0  0  0  0  0  0  0  0  0
  187.5600  177.5330  147.6990 C   0  0  0  0  0  2  0  0  0  0  0  0
  188.2260  177.5290  145.2340 C   0  0  0  0  0  0  0  0  0  0  0  0
  189.0530  177.7940  147.9490 C   0  0  0  0  0  2  0  0  0  0  0  0
  185.4450  178.9060  143.6590 C   0  0  2  0  0  3  0  0  0  0  0  0
  189.9370  177.0110  146.9650 C   0  0  0  0  0  2  0  0  0  0  0  0
  187.6750  177.8780  144.0500 N   0  0  0  0  0  0  0  0  0  0  0  0
  184.4600  179.2570  144.7050 N   0  0  0  0  0  0  0  0  0  0  0  0
  188.6510  176.3060  135.4900 S   0  0  0  0  0  0  0  0  0  0  0  0
  188.0850  174.8860  136.4630 C   0  0  0  0  0  2  0  0  0  0  0  0
  186.8030  174.3450  135.8570 C   0  0  0  0  0  2  0  0  0  0  0  0
  186.4580  173.0150  137.7720 O   0  0  0  0  0  0  0  0  0  0  0  0
  185.9510  173.7240  136.9170 C   0  0  0  0  0  0  0  0  0  0  0  0
  184.4710  173.9200  136.9060 C   0  0  0  0  0  2  0  0  0  0  0  0
  182.6920  174.8350  135.5650 O   0  0  0  0  0  0  0  0  0  0  0  0
  184.0650  174.9550  135.8540 C   0  0  1  0  0  3  0  0  0  0  0  0
  183.0660  175.9690  136.3100 C   0  0  2  0  0  3  0  0  0  0  0  0
  182.5670  175.8110  137.7430 C   0  0  0  0  0  2  0  0  0  0  0  0
  181.7950  178.0270  137.7290 C   0  0  0  0  0  2  0  0  0  0  0  0
  181.3220  178.6430  140.0650 C   0  0  0  0  0  0  0  0  0  0  0  0
  181.0770  179.0320  138.6320 C   0  0  1  0  0  3  0  0  0  0  0  0
  180.8730  176.3410  139.3060 C   0  0  0  0  0  2  0  0  0  0  0  0
  181.6120  180.4230  138.3340 C   0  0  0  0  0  1  0  0  0  0  0  0
  181.3590  179.4800  140.9540 O   0  0  0  0  0  0  0  0  0  0  0  0
  181.3840  176.6300  137.9530 N   0  0  0  0  0  0  0  0  0  0  0  0
  181.5110  177.1990  140.4000 C   0  0  0  0  0  2  0  0  0  0  0  0
  1 12  1  0  0  0  0
  3  1  2  0  0  0  0
  4  3  1  0  0  0  0
  4  5  1  0  0  0  0
  5  2  2  0  0  0  0
  6  5  1  1  0  0  0
  6  7  1  0  0  0  0
  7  9  1  0  0  0  0
  8  9  1  0  0  0  0
 10  6  1  0  0  0  0
 11 10  1  0  0  0  0
 11  8  1  0  0  0  0
 12 14  1  0  0  0  0
 13 12  2  0  0  0  0
 15 14  1  0  0  0  0
 15 16  1  0  0  0  0
 16 17  1  0  0  0  0
 17 18  1  0  0  0  0
 18 19  1  0  0  0  0
 20 29  1  0  0  0  0
 21 24  1  0  0  0  0
 23 25  1  0  0  0  0
 24 22  1  0  0  0  0
 24 23  2  0  0  0  0
 25 27  1  0  0  0  0
 26 20  1  0  0  0  0
 26 23  1  0  0  0  0
 28 19  1  6  0  0  0
 28 21  1  0  0  0  0
 28 31  1  0  0  0  0
 29 27  1  0  0  0  0
 30 21  1  0  0  0  0
 30 26  2  0  0  0  0
 31 22  2  0  0  0  0
 32 33  1  0  0  0  0
 32  3  1  0  0  0  0
 34 33  1  0  0  0  0
 34 36  1  0  0  0  0
 36 35  2  0  0  0  0
 37 36  1  0  0  0  0
 38 39  1  0  0  0  0
 38 40  1  0  0  0  0
 39 40  1  0  0  0  0
 39 37  1  1  0  0  0
 40 41  1  1  0  0  0
 41 48  1  0  0  0  0
 42 48  1  0  0  0  0
 42 44  1  0  0  0  0
 43 49  1  0  0  0  0
 43 47  2  0  0  0  0
 44 46  1  1  0  0  0
 44 43  1  0  0  0  0
 45 49  1  0  0  0  0
 48 45  1  0  0  0  0
M  END
>  <MODEL>
9

>  <REMARK>
 VINA RESULT:      -7.0      2.923      6.629
  Name = 
  17 active torsions:
  status: ('A' for Active; 'I' for Inactive)
    1  A    between atoms: C_2  and  C_48
    2  A    between atoms: N_3  and  C_22
    3  A    between atoms: S_8  and  C_16
    4  A    between atoms: S_8  and  C_27
    5  A    between atoms: C_15  and  S_25
    6  A    between atoms: C_16  and  C_43
    7  A    between atoms: C_17  and  S_25
    8  A    between atoms: C_17  and  C_31
    9  A    between atoms: C_21  and  N_30
   10  A    between atoms: C_21  and  C_45
   11  A    between atoms: C_22  and  C_27
   12  A    between atoms: C_23  and  N_36
   13  A    between atoms: C_23  and  C_42
   14  A    between atoms: N_30  and  C_43
   15  A    between atoms: C_31  and  C_41
   16  A    between atoms: C_32  and  C_44
   17  A    between atoms: C_41  and  C_44
                            x       y       z     vdW  Elec       q    Type
                         _______ _______ _______ _____ _____    ______ ____

>  <TORSDO>
F 17

$$$$
