=
 OpenBabel11042411233D

 57 62  0  0  1  0  0  0  0  0999 V2000
  189.7790  176.0550  137.9390 N   0  0  0  0  0  0  0  0  0  0  0  0
  192.5650  175.2860  137.2410 C   0  0  0  0  0  0  0  0  0  0  0  0
  192.7100  176.3430  138.0520 C   0  0  0  0  0  3  0  0  0  0  0  0
  190.1570  174.7300  137.5750 C   0  0  0  0  0  3  0  0  0  0  0  0
  192.5300  177.7530  140.3840 Cl  0  0  0  0  0  0  0  0  0  0  0  0
  191.7800  176.8490  139.0770 C   0  0  0  0  0  0  0  0  0  0  0  0
  191.3990  174.3850  137.2690 C   0  0  0  0  0  3  0  0  0  0  0  0
  190.4460  176.7190  139.0420 C   0  0  0  0  0  0  0  0  0  0  0  0
  186.9020  178.2790  136.7600 C   0  0  0  0  0  2  0  0  0  0  0  0
  188.2820  177.8340  137.1730 C   0  0  0  0  0  0  0  0  0  0  0  0
  184.6160  177.9920  137.8230 N   0  0  0  0  0  2  0  0  0  0  0  0
  186.1060  176.1670  137.6520 N   0  0  0  0  0  0  0  0  0  0  0  0
  187.3740  175.5530  137.2570 C   0  0  0  0  0  2  0  0  0  0  0  0
  188.5090  176.5310  137.4470 C   0  0  0  0  0  0  0  0  0  0  0  0
  189.3710  178.8540  137.2130 C   0  0  0  0  0  1  0  0  0  0  0  0
  185.8570  177.4210  137.4160 C   0  0  0  0  0  0  0  0  0  0  0  0
  183.7400  177.2730  138.6410 N   0  0  0  0  0  2  0  0  0  0  0  0
  180.4540  178.7960  139.5330 C   0  0  0  0  0  3  0  0  0  0  0  0
  181.2310  177.8880  137.0950 Cl  0  0  0  0  0  0  0  0  0  0  0  0
  182.7060  177.8740  139.4340 C   0  0  0  0  0  0  0  0  0  0  0  0
  181.8270  178.7620  141.5220 C   0  0  0  0  0  3  0  0  0  0  0  0
  182.8720  178.1590  140.8120 C   0  0  0  0  0  0  0  0  0  0  0  0
  181.4910  178.2120  138.8040 C   0  0  0  0  0  0  0  0  0  0  0  0
  180.6190  179.0720  140.8890 C   0  0  0  0  0  3  0  0  0  0  0  0
  184.1560  177.9380  141.5290 C   0  0  0  0  0  2  0  0  0  0  0  0
  185.0700  179.1280  141.3360 C   0  0  0  0  0  1  0  0  0  0  0  0
  195.0270  175.1450  136.7470 N   0  0  0  0  0  2  0  0  0  0  0  0
  193.6770  174.9360  136.3340 C   0  0  0  0  0  0  0  0  0  0  0  0
  193.4450  174.4490  135.1940 O   0  0  0  0  0  0  0  0  0  0  0  0
  196.1050  174.8260  135.9080 N   0  0  0  0  0  2  0  0  0  0  0  0
  197.3100  172.6440  135.9900 C   0  0  0  0  0  1  0  0  0  0  0  0
  198.2340  174.6900  136.9810 C   0  0  0  0  0  2  0  0  0  0  0  0
  197.9700  174.6280  138.4050 N   0  0  0  0  0  0  0  0  0  0  0  0
  198.6440  175.0900  139.6040 C   0  0  0  0  0  1  0  0  0  0  0  0
  196.7250  173.8940  138.1100 C   0  0  0  0  0  0  0  0  0  0  0  0
  197.0360  173.9860  136.6500 C   0  0  1  0  0  0  0  0  0  0  0  0
  195.8010  173.3910  138.8030 O   0  0  0  0  0  0  0  0  0  0  0  0
  189.7210  177.2580  140.1150 O   0  0  0  0  0  0  0  0  0  0  0  0
  189.8470  175.2900  143.1470 N   0  0  0  0  0  2  0  0  0  0  0  0
  189.8770  176.7070  143.1930 C   0  0  2  0  0  0  0  0  0  0  0  0
  189.2500  176.5100  141.2280 C   0  0  2  0  0  3  0  0  0  0  0  0
  188.5100  177.6290  142.4420 S   0  0  0  0  0  0  0  0  0  0  0  0
  190.3660  176.0380  142.0330 N   0  0  2  0  0  0  0  0  0  0  0  0
  190.9830  177.3450  143.8920 N   0  0  0  0  0  2  0  0  0  0  0  0
  190.8350  177.0720  145.3160 C   0  0  2  0  0  3  0  0  0  0  0  0
  190.2320  178.2840  146.0120 C   0  0  0  0  0  2  0  0  0  0  0  0
  188.8420  177.9880  146.4810 C   0  0  0  0  0  0  0  0  0  0  0  0
  187.8580  178.2270  145.6590 N   0  0  0  0  0  0  0  0  0  0  0  0
  185.7040  177.4680  145.0350 C   0  0  0  0  0  2  0  0  0  0  0  0
  186.4520  178.1130  145.9120 C   0  0  0  0  0  0  0  0  0  0  0  0
  185.7690  179.0440  146.8590 C   0  0  0  0  0  1  0  0  0  0  0  0
  188.4190  178.0920  148.9460 O   0  0  0  0  0  1  0  0  0  0  0  0
  188.6730  177.3380  147.8040 C   0  0  0  0  0  0  0  0  0  0  0  0
  188.6880  176.0820  147.8910 O   0  0  0  0  0  0  0  0  0  0  0  0
  192.0800  176.7760  145.8740 O   0  0  0  0  0  0  0  0  0  0  0  0
  192.5400  175.7350  147.9650 C   0  0  0  0  0  1  0  0  0  0  0  0
  191.8670  175.6080  146.6150 C   0  0  0  0  0  2  0  0  0  0  0  0
  1  8  1  0  0  0  0
  2  7  1  0  0  0  0
  2  3  2  0  0  0  0
  3  6  1  0  0  0  0
  4  1  1  0  0  0  0
  6  5  1  0  0  0  0
  7  4  2  0  0  0  0
  8  6  2  0  0  0  0
  8 38  1  0  0  0  0
  9 10  1  0  0  0  0
  9 16  1  0  0  0  0
 10 15  1  0  0  0  0
 10 14  2  0  0  0  0
 11 17  1  0  0  0  0
 13 14  1  0  0  0  0
 13 12  1  0  0  0  0
 14  1  1  0  0  0  0
 16 12  2  0  0  0  0
 16 11  1  0  0  0  0
 17 20  1  0  0  0  0
 18 24  1  0  0  0  0
 19 23  1  0  0  0  0
 20 22  2  0  0  0  0
 22 21  1  0  0  0  0
 22 25  1  0  0  0  0
 23 20  1  0  0  0  0
 23 18  2  0  0  0  0
 24 21  2  0  0  0  0
 26 25  1  0  0  0  0
 28 27  1  0  0  0  0
 28  2  1  0  0  0  0
 29 28  2  0  0  0  0
 30 36  1  0  0  0  0
 30 27  1  0  0  0  0
 32 33  1  0  0  0  0
 33 34  1  0  0  0  0
 35 33  1  0  0  0  0
 35 37  2  0  0  0  0
 36 31  1  6  0  0  0
 36 32  1  0  0  0  0
 36 35  1  0  0  0  0
 39 40  1  0  0  0  0
 40 44  1  1  0  0  0
 41 38  1  6  0  0  0
 41 43  1  0  0  0  0
 41 42  1  0  0  0  0
 42 40  1  0  0  0  0
 43 39  1  1  0  0  0
 43 40  1  0  0  0  0
 44 45  1  0  0  0  0
 45 55  1  0  0  0  0
 45 46  1  1  0  0  0
 46 47  1  0  0  0  0
 47 53  1  0  0  0  0
 48 50  1  0  0  0  0
 48 47  2  0  0  0  0
 49 50  2  0  0  0  0
 50 51  1  0  0  0  0
 53 54  2  0  0  0  0
 53 52  1  0  0  0  0
 55 57  1  0  0  0  0
 57 56  1  0  0  0  0
M  END
>  <MODEL>
1

>  <REMARK>
 VINA RESULT:      -8.1      0.000      0.000
  Name = 
  17 active torsions:
  status: ('A' for Active; 'I' for Inactive)
    1  A    between atoms: N_2  and  N_30
    2  A    between atoms: C_7  and  N_32
    3  A    between atoms: CA_8  and  C_27
    4  A    between atoms: CA_8  and  C_29
    5  A    between atoms: C_9  and  C_45
    6  A    between atoms: N_10  and  C_40
    7  A    between atoms: C_11  and  C_23
    8  A    between atoms: C_12  and  O_14
    9  A    between atoms: C_12  and  N_19
   10  A    between atoms: C_12  and  C_27
   11  A    between atoms: N_13  and  C_26
   12  A    between atoms: N_13  and  N_28
   13  A    between atoms: O_14  and  C_53
   14  A    between atoms: N_19  and  C_24
   15  A    between atoms: C_25  and  O_50
   16  A    between atoms: N_30  and  C_46
   17  A    between atoms: O_50  and  C_56
                            x       y       z     vdW  Elec       q    Type
                         _______ _______ _______ _____ _____    ______ ____

>  <TORSDO>
F 17

$$$$
=
 OpenBabel11042411233D

 57 62  0  0  1  0  0  0  0  0999 V2000
  188.6830  177.3600  137.3320 N   0  0  0  0  0  0  0  0  0  0  0  0
  185.8290  178.0820  137.7420 C   0  0  0  0  0  0  0  0  0  0  0  0
  186.3400  178.0520  138.9810 C   0  0  0  0  0  3  0  0  0  0  0  0
  187.8950  178.0270  136.3480 C   0  0  0  0  0  3  0  0  0  0  0  0
  187.9570  178.8250  141.0410 Cl  0  0  0  0  0  0  0  0  0  0  0  0
  187.7410  178.2340  139.4010 C   0  0  0  0  0  0  0  0  0  0  0  0
  186.6250  178.3540  136.5320 C   0  0  0  0  0  3  0  0  0  0  0  0
  188.8150  177.9300  138.6580 C   0  0  0  0  0  0  0  0  0  0  0  0
  190.4460  174.0490  136.5960 C   0  0  0  0  0  2  0  0  0  0  0  0
  189.3900  175.0380  137.0210 C   0  0  0  0  0  0  0  0  0  0  0  0
  192.9090  173.8200  137.1620 N   0  0  0  0  0  2  0  0  0  0  0  0
  191.9930  175.9200  136.5870 N   0  0  0  0  0  0  0  0  0  0  0  0
  190.8910  176.7950  136.1880 C   0  0  0  0  0  2  0  0  0  0  0  0
  189.6100  176.3600  136.8600 C   0  0  0  0  0  0  0  0  0  0  0  0
  188.1030  174.5080  137.5610 C   0  0  0  0  0  1  0  0  0  0  0  0
  191.8170  174.6430  136.7630 C   0  0  0  0  0  0  0  0  0  0  0  0
  194.1230  174.3930  137.5520 N   0  0  0  0  0  2  0  0  0  0  0  0
  197.1100  174.8130  135.3560 C   0  0  0  0  0  3  0  0  0  0  0  0
  195.0160  176.5220  135.6190 Cl  0  0  0  0  0  0  0  0  0  0  0  0
  195.3820  174.1110  136.9230 C   0  0  0  0  0  0  0  0  0  0  0  0
  197.3310  172.7100  136.5270 C   0  0  0  0  0  3  0  0  0  0  0  0
  196.1170  172.9290  137.1880 C   0  0  0  0  0  0  0  0  0  0  0  0
  195.8880  175.0410  135.9920 C   0  0  0  0  0  0  0  0  0  0  0  0
  197.8310  173.6510  135.6210 C   0  0  0  0  0  3  0  0  0  0  0  0
  195.6070  171.8460  138.0700 C   0  0  0  0  0  2  0  0  0  0  0  0
  194.9590  170.7600  137.2380 C   0  0  0  0  0  1  0  0  0  0  0  0
  183.4800  178.6660  138.4280 N   0  0  0  0  0  2  0  0  0  0  0  0
  184.3670  177.9380  137.5800 C   0  0  0  0  0  0  0  0  0  0  0  0
  183.8930  177.1760  136.6940 O   0  0  0  0  0  0  0  0  0  0  0  0
  182.0880  178.5480  138.3020 N   0  0  0  0  0  2  0  0  0  0  0  0
  182.0680  178.8010  140.7830 C   0  0  0  0  0  1  0  0  0  0  0  0
  180.1240  177.9760  139.5340 C   0  0  0  0  0  2  0  0  0  0  0  0
  180.1240  176.5320  139.6540 N   0  0  0  0  0  0  0  0  0  0  0  0
  179.1070  175.4980  139.7120 C   0  0  0  0  0  1  0  0  0  0  0  0
  181.5970  176.5660  139.6930 C   0  0  0  0  0  0  0  0  0  0  0  0
  181.5490  178.0550  139.5630 C   0  0  1  0  0  0  0  0  0  0  0  0
  182.5070  175.7020  139.8040 O   0  0  0  0  0  0  0  0  0  0  0  0
  190.0760  178.1820  139.2220 O   0  0  0  0  0  0  0  0  0  0  0  0
  192.4900  176.8860  141.5820 N   0  0  0  0  0  2  0  0  0  0  0  0
  191.1610  177.1780  141.9810 C   0  0  2  0  0  0  0  0  0  0  0  0
  190.8480  177.2260  139.9340 C   0  0  2  0  0  3  0  0  0  0  0  0
  189.7960  176.3560  141.1210 S   0  0  0  0  0  0  0  0  0  0  0  0
  191.7290  177.8870  140.8830 N   0  0  2  0  0  0  0  0  0  0  0  0
  190.9690  178.0860  143.1020 N   0  0  0  0  0  2  0  0  0  0  0  0
  190.3850  177.3290  144.2020 C   0  0  2  0  0  3  0  0  0  0  0  0
  190.2010  178.2360  145.4100 C   0  0  0  0  0  2  0  0  0  0  0  0
  188.8460  178.0440  146.0150 C   0  0  0  0  0  0  0  0  0  0  0  0
  187.8060  178.2180  145.2470 N   0  0  0  0  0  0  0  0  0  0  0  0
  185.5920  177.4600  144.8850 C   0  0  0  0  0  2  0  0  0  0  0  0
  186.4220  178.1810  145.6180 C   0  0  0  0  0  0  0  0  0  0  0  0
  185.8370  179.2410  146.4920 C   0  0  0  0  0  1  0  0  0  0  0  0
  188.5820  178.4460  148.4710 O   0  0  0  0  0  1  0  0  0  0  0  0
  188.7660  177.5590  147.4150 C   0  0  0  0  0  0  0  0  0  0  0  0
  188.7950  176.3230  147.6510 O   0  0  0  0  0  0  0  0  0  0  0  0
  191.2180  176.2590  144.5360 O   0  0  0  0  0  0  0  0  0  0  0  0
  192.0880  175.4620  146.6040 C   0  0  0  0  0  1  0  0  0  0  0  0
  191.8580  176.6640  145.7140 C   0  0  0  0  0  2  0  0  0  0  0  0
  1  8  1  0  0  0  0
  2  3  2  0  0  0  0
  3  6  1  0  0  0  0
  4  7  2  0  0  0  0
  4  1  1  0  0  0  0
  6  5  1  0  0  0  0
  7  2  1  0  0  0  0
  8 38  1  0  0  0  0
  8  6  2  0  0  0  0
  9 16  1  0  0  0  0
  9 10  1  0  0  0  0
 10 15  1  0  0  0  0
 11 17  1  0  0  0  0
 12 16  2  0  0  0  0
 13 12  1  0  0  0  0
 13 14  1  0  0  0  0
 14 10  2  0  0  0  0
 14  1  1  0  0  0  0
 16 11  1  0  0  0  0
 18 24  2  0  0  0  0
 18 23  1  0  0  0  0
 19 23  1  0  0  0  0
 20 22  1  0  0  0  0
 20 17  1  0  0  0  0
 21 22  2  0  0  0  0
 22 25  1  0  0  0  0
 23 20  2  0  0  0  0
 24 21  1  0  0  0  0
 26 25  1  0  0  0  0
 28  2  1  0  0  0  0
 28 27  1  0  0  0  0
 29 28  2  0  0  0  0
 30 27  1  0  0  0  0
 30 36  1  0  0  0  0
 32 36  1  0  0  0  0
 32 33  1  0  0  0  0
 33 35  1  0  0  0  0
 33 34  1  0  0  0  0
 35 37  2  0  0  0  0
 36 35  1  0  0  0  0
 36 31  1  1  0  0  0
 39 40  1  0  0  0  0
 40 44  1  1  0  0  0
 41 38  1  1  0  0  0
 41 43  1  0  0  0  0
 41 42  1  0  0  0  0
 42 40  1  0  0  0  0
 43 39  1  6  0  0  0
 43 40  1  0  0  0  0
 44 45  1  0  0  0  0
 45 55  1  0  0  0  0
 45 46  1  1  0  0  0
 46 47  1  0  0  0  0
 47 53  1  0  0  0  0
 48 50  1  0  0  0  0
 48 47  2  0  0  0  0
 49 50  2  0  0  0  0
 50 51  1  0  0  0  0
 53 54  2  0  0  0  0
 53 52  1  0  0  0  0
 55 57  1  0  0  0  0
 57 56  1  0  0  0  0
M  END
>  <MODEL>
2

>  <REMARK>
 VINA RESULT:      -6.6      2.392      9.687
  Name = 
  17 active torsions:
  status: ('A' for Active; 'I' for Inactive)
    1  A    between atoms: N_2  and  N_30
    2  A    between atoms: C_7  and  N_32
    3  A    between atoms: CA_8  and  C_27
    4  A    between atoms: CA_8  and  C_29
    5  A    between atoms: C_9  and  C_45
    6  A    between atoms: N_10  and  C_40
    7  A    between atoms: C_11  and  C_23
    8  A    between atoms: C_12  and  O_14
    9  A    between atoms: C_12  and  N_19
   10  A    between atoms: C_12  and  C_27
   11  A    between atoms: N_13  and  C_26
   12  A    between atoms: N_13  and  N_28
   13  A    between atoms: O_14  and  C_53
   14  A    between atoms: N_19  and  C_24
   15  A    between atoms: C_25  and  O_50
   16  A    between atoms: N_30  and  C_46
   17  A    between atoms: O_50  and  C_56
                            x       y       z     vdW  Elec       q    Type
                         _______ _______ _______ _____ _____    ______ ____

>  <TORSDO>
F 17

$$$$
=
 OpenBabel11042411233D

 57 62  0  0  1  0  0  0  0  0999 V2000
  187.9180  176.9150  136.3740 N   0  0  0  0  0  0  0  0  0  0  0  0
  185.3090  177.8210  137.4740 C   0  0  0  0  0  0  0  0  0  0  0  0
  186.1400  177.8620  138.5250 C   0  0  0  0  0  3  0  0  0  0  0  0
  186.9110  177.5420  135.5840 C   0  0  0  0  0  3  0  0  0  0  0  0
  188.2830  178.7080  139.9910 Cl  0  0  0  0  0  0  0  0  0  0  0  0
  187.6060  178.0010  138.5310 C   0  0  0  0  0  0  0  0  0  0  0  0
  185.7500  177.9520  136.0740 C   0  0  0  0  0  3  0  0  0  0  0  0
  188.4260  177.5810  137.5570 C   0  0  0  0  0  0  0  0  0  0  0  0
  189.2900  173.4620  135.4770 C   0  0  0  0  0  2  0  0  0  0  0  0
  188.4220  174.5380  136.0770 C   0  0  0  0  0  0  0  0  0  0  0  0
  191.8030  173.1200  135.4160 N   0  0  0  0  0  2  0  0  0  0  0  0
  190.8600  175.2300  134.9280 N   0  0  0  0  0  0  0  0  0  0  0  0
  189.7300  176.1420  134.7550 C   0  0  0  0  0  2  0  0  0  0  0  0
  188.6480  175.8320  135.7630 C   0  0  0  0  0  0  0  0  0  0  0  0
  187.2970  174.1240  136.9670 C   0  0  0  0  0  1  0  0  0  0  0  0
  190.6810  173.9810  135.2440 C   0  0  0  0  0  0  0  0  0  0  0  0
  193.1000  173.6420  135.4380 N   0  0  0  0  0  2  0  0  0  0  0  0
  195.2660  174.6840  138.2910 C   0  0  0  0  0  3  0  0  0  0  0  0
  193.8410  176.3010  136.6390 Cl  0  0  0  0  0  0  0  0  0  0  0  0
  193.9870  173.5410  136.5610 C   0  0  0  0  0  0  0  0  0  0  0  0
  195.3490  172.2740  138.1300 C   0  0  0  0  0  3  0  0  0  0  0  0
  194.4720  172.2980  137.0380 C   0  0  0  0  0  0  0  0  0  0  0  0
  194.4050  174.7300  137.1930 C   0  0  0  0  0  0  0  0  0  0  0  0
  195.7380  173.4600  138.7600 C   0  0  0  0  0  3  0  0  0  0  0  0
  194.1720  171.0070  136.3660 C   0  0  0  0  0  2  0  0  0  0  0  0
  194.6140  169.8520  137.2380 C   0  0  0  0  0  1  0  0  0  0  0  0
  183.2510  178.6140  138.6850 N   0  0  0  0  0  2  0  0  0  0  0  0
  183.8550  177.7450  137.7280 C   0  0  0  0  0  0  0  0  0  0  0  0
  183.1390  176.9150  137.1030 O   0  0  0  0  0  0  0  0  0  0  0  0
  181.8740  178.5630  138.9510 N   0  0  0  0  0  2  0  0  0  0  0  0
  181.0920  176.4370  139.9950 C   0  0  0  0  0  1  0  0  0  0  0  0
  182.8480  177.8230  141.0020 C   0  0  0  0  0  2  0  0  0  0  0  0
  182.2240  178.6010  142.0540 N   0  0  0  0  0  0  0  0  0  0  0  0
  182.6420  179.1250  143.3410 C   0  0  0  0  0  1  0  0  0  0  0  0
  180.9850  178.6290  141.2550 C   0  0  0  0  0  0  0  0  0  0  0  0
  181.6710  177.8290  140.1940 C   0  0  1  0  0  0  0  0  0  0  0  0
  179.8330  179.1120  141.4130 O   0  0  0  0  0  0  0  0  0  0  0  0
  189.8000  177.8090  137.7320 O   0  0  0  0  0  0  0  0  0  0  0  0
  192.6010  176.7210  139.7450 N   0  0  0  0  0  2  0  0  0  0  0  0
  191.3660  177.0780  140.3420 C   0  0  2  0  0  0  0  0  0  0  0  0
  190.6880  176.9170  138.3920 C   0  0  2  0  0  3  0  0  0  0  0  0
  189.8680  176.1970  139.8340 S   0  0  0  0  0  0  0  0  0  0  0  0
  191.7260  177.6580  139.0910 N   0  0  2  0  0  0  0  0  0  0  0  0
  191.3790  178.1020  141.3770 N   0  0  0  0  0  2  0  0  0  0  0  0
  190.9620  177.4850  142.6300 C   0  0  2  0  0  3  0  0  0  0  0  0
  190.2890  178.5240  143.5160 C   0  0  0  0  0  2  0  0  0  0  0  0
  189.1180  177.9290  144.2320 C   0  0  0  0  0  0  0  0  0  0  0  0
  189.0130  178.1440  145.5130 N   0  0  0  0  0  0  0  0  0  0  0  0
  186.8110  178.0870  146.3820 C   0  0  0  0  0  2  0  0  0  0  0  0
  188.0420  177.6080  146.4210 C   0  0  0  0  0  0  0  0  0  0  0  0
  188.4680  176.8830  147.6550 C   0  0  0  0  0  1  0  0  0  0  0  0
  188.1480  175.8500  143.2300 O   0  0  0  0  0  1  0  0  0  0  0  0
  188.0880  177.2260  143.4270 C   0  0  0  0  0  0  0  0  0  0  0  0
  187.1050  177.8680  142.9720 O   0  0  0  0  0  0  0  0  0  0  0  0
  192.0720  176.9500  143.2870 O   0  0  0  0  0  0  0  0  0  0  0  0
  191.7900  175.8300  145.3690 C   0  0  0  0  0  1  0  0  0  0  0  0
  191.6010  175.7670  143.8690 C   0  0  0  0  0  2  0  0  0  0  0  0
  1  8  1  0  0  0  0
  2 28  1  0  0  0  0
  2  3  2  0  0  0  0
  3  6  1  0  0  0  0
  4  7  2  0  0  0  0
  4  1  1  0  0  0  0
  6  5  1  0  0  0  0
  7  2  1  0  0  0  0
  8 38  1  0  0  0  0
  8  6  2  0  0  0  0
  9 10  1  0  0  0  0
 10 15  1  0  0  0  0
 11 17  1  0  0  0  0
 12 16  2  0  0  0  0
 13 12  1  0  0  0  0
 13 14  1  0  0  0  0
 14 10  2  0  0  0  0
 14  1  1  0  0  0  0
 16 11  1  0  0  0  0
 16  9  1  0  0  0  0
 17 20  1  0  0  0  0
 18 24  1  0  0  0  0
 19 23  1  0  0  0  0
 20 22  2  0  0  0  0
 20 23  1  0  0  0  0
 21 24  2  0  0  0  0
 22 21  1  0  0  0  0
 23 18  2  0  0  0  0
 25 22  1  0  0  0  0
 25 26  1  0  0  0  0
 27 30  1  0  0  0  0
 28 27  1  0  0  0  0
 29 28  2  0  0  0  0
 30 36  1  0  0  0  0
 32 33  1  0  0  0  0
 33 34  1  0  0  0  0
 35 37  2  0  0  0  0
 35 33  1  0  0  0  0
 36 31  1  6  0  0  0
 36 32  1  0  0  0  0
 36 35  1  0  0  0  0
 39 40  1  0  0  0  0
 40 44  1  1  0  0  0
 41 38  1  1  0  0  0
 41 43  1  0  0  0  0
 41 42  1  0  0  0  0
 42 40  1  0  0  0  0
 43 39  1  6  0  0  0
 43 40  1  0  0  0  0
 44 45  1  0  0  0  0
 45 55  1  0  0  0  0
 45 46  1  1  0  0  0
 46 47  1  0  0  0  0
 47 48  2  0  0  0  0
 48 50  1  0  0  0  0
 49 50  2  0  0  0  0
 50 51  1  0  0  0  0
 52 53  1  0  0  0  0
 53 47  1  0  0  0  0
 54 53  2  0  0  0  0
 55 57  1  0  0  0  0
 57 56  1  0  0  0  0
M  END
>  <MODEL>
3

>  <REMARK>
 VINA RESULT:      -6.5      2.837      9.504
  Name = 
  17 active torsions:
  status: ('A' for Active; 'I' for Inactive)
    1  A    between atoms: N_2  and  N_30
    2  A    between atoms: C_7  and  N_32
    3  A    between atoms: CA_8  and  C_27
    4  A    between atoms: CA_8  and  C_29
    5  A    between atoms: C_9  and  C_45
    6  A    between atoms: N_10  and  C_40
    7  A    between atoms: C_11  and  C_23
    8  A    between atoms: C_12  and  O_14
    9  A    between atoms: C_12  and  N_19
   10  A    between atoms: C_12  and  C_27
   11  A    between atoms: N_13  and  C_26
   12  A    between atoms: N_13  and  N_28
   13  A    between atoms: O_14  and  C_53
   14  A    between atoms: N_19  and  C_24
   15  A    between atoms: C_25  and  O_50
   16  A    between atoms: N_30  and  C_46
   17  A    between atoms: O_50  and  C_56
                            x       y       z     vdW  Elec       q    Type
                         _______ _______ _______ _____ _____    ______ ____

>  <TORSDO>
F 17

$$$$
=
 OpenBabel11042411233D

 57 62  0  0  1  0  0  0  0  0999 V2000
  190.1360  175.5380  137.3490 N   0  0  0  0  0  0  0  0  0  0  0  0
  192.8210  174.5260  136.5700 C   0  0  0  0  0  0  0  0  0  0  0  0
  193.0720  175.7040  137.1570 C   0  0  0  0  0  3  0  0  0  0  0  0
  190.4380  174.1520  137.2040 C   0  0  0  0  0  3  0  0  0  0  0  0
  193.1500  177.5190  139.1960 Cl  0  0  0  0  0  0  0  0  0  0  0  0
  192.2560  176.4300  138.1470 C   0  0  0  0  0  0  0  0  0  0  0  0
  191.6360  173.7000  136.8630 C   0  0  0  0  0  3  0  0  0  0  0  0
  190.9210  176.3570  138.2500 C   0  0  0  0  0  0  0  0  0  0  0  0
  187.2860  177.5510  135.7890 C   0  0  0  0  0  2  0  0  0  0  0  0
  188.6760  177.0950  136.1510 C   0  0  0  0  0  0  0  0  0  0  0  0
  185.2200  178.0320  137.1810 N   0  0  0  0  0  2  0  0  0  0  0  0
  186.4950  176.0780  137.5490 N   0  0  0  0  0  0  0  0  0  0  0  0
  187.6120  175.1790  137.2610 C   0  0  0  0  0  2  0  0  0  0  0  0
  188.8410  175.9750  136.8880 C   0  0  0  0  0  0  0  0  0  0  0  0
  189.8350  177.8790  135.6310 C   0  0  0  0  0  1  0  0  0  0  0  0
  186.3120  177.1720  136.8690 C   0  0  0  0  0  0  0  0  0  0  0  0
  184.4530  177.8160  138.3300 N   0  0  0  0  0  2  0  0  0  0  0  0
  181.0770  178.6350  139.6900 C   0  0  0  0  0  3  0  0  0  0  0  0
  183.4600  178.8620  140.9720 Cl  0  0  0  0  0  0  0  0  0  0  0  0
  183.0290  177.9800  138.3870 C   0  0  0  0  0  0  0  0  0  0  0  0
  180.7980  177.8300  137.4280 C   0  0  0  0  0  3  0  0  0  0  0  0
  182.1810  177.6600  137.2980 C   0  0  0  0  0  0  0  0  0  0  0  0
  182.4580  178.4570  139.5850 C   0  0  0  0  0  0  0  0  0  0  0  0
  180.2470  178.3230  138.6150 C   0  0  0  0  0  3  0  0  0  0  0  0
  182.6860  177.0500  136.0400 C   0  0  0  0  0  2  0  0  0  0  0  0
  182.1910  177.8370  134.8460 C   0  0  0  0  0  1  0  0  0  0  0  0
  194.4170  172.6930  135.9230 N   0  0  0  0  0  2  0  0  0  0  0  0
  193.8340  173.9660  135.6520 C   0  0  0  0  0  0  0  0  0  0  0  0
  194.1900  174.6060  134.6250 O   0  0  0  0  0  0  0  0  0  0  0  0
  195.3840  172.1360  135.0730 N   0  0  0  0  0  2  0  0  0  0  0  0
  197.5030  170.8510  135.3570 C   0  0  0  0  0  1  0  0  0  0  0  0
  197.3470  173.2480  135.8570 C   0  0  0  0  0  2  0  0  0  0  0  0
  197.1990  173.3730  137.2930 N   0  0  0  0  0  0  0  0  0  0  0  0
  197.6060  174.3410  138.2950 C   0  0  0  0  0  1  0  0  0  0  0  0
  196.4610  172.0970  137.2970 C   0  0  0  0  0  0  0  0  0  0  0  0
  196.6340  172.0120  135.8140 C   0  0  1  0  0  0  0  0  0  0  0  0
  195.9260  171.3800  138.1830 O   0  0  0  0  0  0  0  0  0  0  0  0
  190.3140  177.1150  139.2640 O   0  0  0  0  0  0  0  0  0  0  0  0
  189.7910  175.5200  142.4670 N   0  0  0  0  0  2  0  0  0  0  0  0
  190.0050  176.9190  142.3720 C   0  0  2  0  0  0  0  0  0  0  0  0
  189.6110  176.5670  140.3690 C   0  0  2  0  0  3  0  0  0  0  0  0
  188.8820  177.9020  141.3480 S   0  0  0  0  0  0  0  0  0  0  0  0
  190.5420  176.0630  141.3670 N   0  0  2  0  0  0  0  0  0  0  0  0
  191.0900  177.4970  143.1520 N   0  0  0  0  0  2  0  0  0  0  0  0
  190.7440  177.3840  144.5620 C   0  0  2  0  0  3  0  0  0  0  0  0
  189.8250  178.5310  144.9600 C   0  0  0  0  0  2  0  0  0  0  0  0
  188.7350  178.0470  145.8630 C   0  0  0  0  0  0  0  0  0  0  0  0
  189.0110  177.9060  147.1300 N   0  0  0  0  0  0  0  0  0  0  0  0
  187.7560  178.1880  149.1180 C   0  0  0  0  0  2  0  0  0  0  0  0
  188.1690  177.3760  148.1610 C   0  0  0  0  0  0  0  0  0  0  0  0
  188.1180  175.9070  148.4260 C   0  0  0  0  0  1  0  0  0  0  0  0
  187.0820  176.7610  144.4920 O   0  0  0  0  0  0  0  0  0  0  0  0
  187.3800  177.8620  145.2890 C   0  0  0  0  0  0  0  0  0  0  0  0
  186.4610  178.6730  145.5810 O   0  0  0  0  0  1  0  0  0  0  0  0
  191.9040  177.4160  145.3400 O   0  0  0  0  0  0  0  0  0  0  0  0
  191.9380  176.2260  147.4010 C   0  0  0  0  0  1  0  0  0  0  0  0
  191.9940  176.1330  145.8920 C   0  0  0  0  0  2  0  0  0  0  0  0
  1  8  1  0  0  0  0
  2  7  1  0  0  0  0
  2  3  2  0  0  0  0
  3  6  1  0  0  0  0
  4  1  1  0  0  0  0
  6  8  2  0  0  0  0
  6  5  1  0  0  0  0
  7  4  2  0  0  0  0
  8 38  1  0  0  0  0
  9 10  1  0  0  0  0
  9 16  1  0  0  0  0
 10 14  2  0  0  0  0
 11 17  1  0  0  0  0
 13 12  1  0  0  0  0
 14 13  1  0  0  0  0
 14  1  1  0  0  0  0
 15 10  1  0  0  0  0
 16 11  1  0  0  0  0
 16 12  2  0  0  0  0
 17 20  1  0  0  0  0
 20 23  2  0  0  0  0
 21 24  1  0  0  0  0
 22 21  2  0  0  0  0
 22 20  1  0  0  0  0
 23 18  1  0  0  0  0
 23 19  1  0  0  0  0
 24 18  2  0  0  0  0
 25 22  1  0  0  0  0
 26 25  1  0  0  0  0
 28 27  1  0  0  0  0
 28  2  1  0  0  0  0
 29 28  2  0  0  0  0
 30 36  1  0  0  0  0
 30 27  1  0  0  0  0
 32 33  1  0  0  0  0
 33 35  1  0  0  0  0
 33 34  1  0  0  0  0
 35 37  2  0  0  0  0
 36 31  1  6  0  0  0
 36 32  1  0  0  0  0
 36 35  1  0  0  0  0
 40 39  1  0  0  0  0
 40 44  1  1  0  0  0
 41 38  1  6  0  0  0
 41 42  1  0  0  0  0
 41 43  1  0  0  0  0
 42 40  1  0  0  0  0
 43 40  1  0  0  0  0
 43 39  1  1  0  0  0
 44 45  1  0  0  0  0
 45 46  1  1  0  0  0
 45 55  1  0  0  0  0
 46 47  1  0  0  0  0
 47 48  2  0  0  0  0
 48 50  1  0  0  0  0
 50 51  1  0  0  0  0
 50 49  2  0  0  0  0
 52 53  2  0  0  0  0
 53 54  1  0  0  0  0
 53 47  1  0  0  0  0
 55 57  1  0  0  0  0
 57 56  1  0  0  0  0
M  END
>  <MODEL>
4

>  <REMARK>
 VINA RESULT:      -6.2      1.670      2.377
  Name = 
  17 active torsions:
  status: ('A' for Active; 'I' for Inactive)
    1  A    between atoms: N_2  and  N_30
    2  A    between atoms: C_7  and  N_32
    3  A    between atoms: CA_8  and  C_27
    4  A    between atoms: CA_8  and  C_29
    5  A    between atoms: C_9  and  C_45
    6  A    between atoms: N_10  and  C_40
    7  A    between atoms: C_11  and  C_23
    8  A    between atoms: C_12  and  O_14
    9  A    between atoms: C_12  and  N_19
   10  A    between atoms: C_12  and  C_27
   11  A    between atoms: N_13  and  C_26
   12  A    between atoms: N_13  and  N_28
   13  A    between atoms: O_14  and  C_53
   14  A    between atoms: N_19  and  C_24
   15  A    between atoms: C_25  and  O_50
   16  A    between atoms: N_30  and  C_46
   17  A    between atoms: O_50  and  C_56
                            x       y       z     vdW  Elec       q    Type
                         _______ _______ _______ _____ _____    ______ ____

>  <TORSDO>
F 17

$$$$
=
 OpenBabel11042411233D

 57 62  0  0  1  0  0  0  0  0999 V2000
  187.3320  176.7420  135.7060 N   0  0  0  0  0  0  0  0  0  0  0  0
  184.3730  176.6410  135.9750 C   0  0  0  0  0  0  0  0  0  0  0  0
  184.7950  177.0890  137.1660 C   0  0  0  0  0  3  0  0  0  0  0  0
  186.4410  176.8580  134.5990 C   0  0  0  0  0  3  0  0  0  0  0  0
  185.9810  178.8240  138.9110 Cl  0  0  0  0  0  0  0  0  0  0  0  0
  186.0490  177.7910  137.4900 C   0  0  0  0  0  0  0  0  0  0  0  0
  185.1220  176.8190  134.7190 C   0  0  0  0  0  3  0  0  0  0  0  0
  187.2080  177.6480  136.8300 C   0  0  0  0  0  0  0  0  0  0  0  0
  189.9820  173.9870  135.7040 C   0  0  0  0  0  2  0  0  0  0  0  0
  188.6580  174.6900  135.8590 C   0  0  0  0  0  0  0  0  0  0  0  0
  192.3230  174.5380  136.5130 N   0  0  0  0  0  2  0  0  0  0  0  0
  190.9720  176.1950  135.5090 N   0  0  0  0  0  0  0  0  0  0  0  0
  189.7400  176.6610  134.8720 C   0  0  0  0  0  2  0  0  0  0  0  0
  188.5410  175.9850  135.4950 C   0  0  0  0  0  0  0  0  0  0  0  0
  187.4960  173.9030  136.3690 C   0  0  0  0  0  1  0  0  0  0  0  0
  191.1150  174.9580  135.8850 C   0  0  0  0  0  0  0  0  0  0  0  0
  193.2830  175.4770  136.9020 N   0  0  0  0  0  2  0  0  0  0  0  0
  196.6270  175.9570  135.3200 C   0  0  0  0  0  3  0  0  0  0  0  0
  194.2880  177.1310  134.5970 Cl  0  0  0  0  0  0  0  0  0  0  0  0
  194.6900  175.3350  136.6600 C   0  0  0  0  0  0  0  0  0  0  0  0
  196.8760  174.3760  137.1320 C   0  0  0  0  0  3  0  0  0  0  0  0
  195.5130  174.4790  137.4330 C   0  0  0  0  0  0  0  0  0  0  0  0
  195.2620  176.0600  135.5950 C   0  0  0  0  0  0  0  0  0  0  0  0
  197.4340  175.1170  136.0850 C   0  0  0  0  0  3  0  0  0  0  0  0
  194.9740  173.5960  138.5010 C   0  0  0  0  0  2  0  0  0  0  0  0
  195.4630  172.1790  138.2990 C   0  0  0  0  0  1  0  0  0  0  0  0
  182.5920  175.1330  136.9140 N   0  0  0  0  0  2  0  0  0  0  0  0
  183.0340  176.0220  135.8900 C   0  0  0  0  0  0  0  0  0  0  0  0
  182.2720  176.2760  134.9170 O   0  0  0  0  0  0  0  0  0  0  0  0
  181.3280  174.5270  136.8600 N   0  0  0  0  0  2  0  0  0  0  0  0
  179.8210  176.4780  137.2370 C   0  0  0  0  0  1  0  0  0  0  0  0
  179.4800  174.3220  138.3590 C   0  0  0  0  0  2  0  0  0  0  0  0
  180.0230  174.4490  139.6970 N   0  0  0  0  0  0  0  0  0  0  0  0
  179.7030  173.9000  141.0010 C   0  0  0  0  0  1  0  0  0  0  0  0
  181.0380  175.3760  139.1620 C   0  0  0  0  0  0  0  0  0  0  0  0
  180.4470  175.2110  137.7990 C   0  0  1  0  0  0  0  0  0  0  0  0
  181.9900  176.0370  139.6560 O   0  0  0  0  0  0  0  0  0  0  0  0
  188.2990  178.4080  137.2780 O   0  0  0  0  0  0  0  0  0  0  0  0
  189.8680  178.2690  140.5340 N   0  0  0  0  0  2  0  0  0  0  0  0
  188.7180  177.4920  140.2420 C   0  0  2  0  0  0  0  0  0  0  0  0
  189.2050  178.0010  138.2940 C   0  0  2  0  0  3  0  0  0  0  0  0
  188.7820  176.3330  138.8520 S   0  0  0  0  0  0  0  0  0  0  0  0
  188.9330  178.7100  139.5340 N   0  0  2  0  0  0  0  0  0  0  0  0
  187.5610  177.6310  141.1150 N   0  0  0  0  0  2  0  0  0  0  0  0
  188.0410  177.9340  142.4570 C   0  0  2  0  0  3  0  0  0  0  0  0
  188.9330  176.8040  142.9510 C   0  0  0  0  0  2  0  0  0  0  0  0
  189.7430  177.2470  144.1280 C   0  0  0  0  0  0  0  0  0  0  0  0
  189.4010  176.8020  145.3050 N   0  0  0  0  0  0  0  0  0  0  0  0
  191.0290  176.5020  146.9980 C   0  0  0  0  0  2  0  0  0  0  0  0
  189.9610  177.1550  146.5770 C   0  0  0  0  0  0  0  0  0  0  0  0
  189.1470  177.8870  147.5930 C   0  0  0  0  0  1  0  0  0  0  0  0
  190.9150  179.4560  144.0120 O   0  0  0  0  0  1  0  0  0  0  0  0
  190.9510  178.0710  143.8770 C   0  0  0  0  0  0  0  0  0  0  0  0
  192.0460  177.5110  143.6060 O   0  0  0  0  0  0  0  0  0  0  0  0
  186.9570  178.0940  143.3230 O   0  0  0  0  0  0  0  0  0  0  0  0
  184.6290  178.5840  143.2290 C   0  0  0  0  0  1  0  0  0  0  0  0
  185.9730  178.7170  142.5460 C   0  0  0  0  0  2  0  0  0  0  0  0
  1  8  1  0  0  0  0
  2  3  2  0  0  0  0
  3  6  1  0  0  0  0
  4  7  2  0  0  0  0
  4  1  1  0  0  0  0
  6  5  1  0  0  0  0
  7  2  1  0  0  0  0
  8 38  1  0  0  0  0
  8  6  2  0  0  0  0
  9 10  1  0  0  0  0
  9 16  1  0  0  0  0
 10 15  1  0  0  0  0
 11 17  1  0  0  0  0
 12 16  2  0  0  0  0
 13 14  1  0  0  0  0
 13 12  1  0  0  0  0
 14  1  1  0  0  0  0
 14 10  2  0  0  0  0
 16 11  1  0  0  0  0
 18 23  2  0  0  0  0
 18 24  1  0  0  0  0
 19 23  1  0  0  0  0
 20 17  1  0  0  0  0
 20 22  2  0  0  0  0
 21 22  1  0  0  0  0
 22 25  1  0  0  0  0
 23 20  1  0  0  0  0
 24 21  2  0  0  0  0
 26 25  1  0  0  0  0
 28  2  1  0  0  0  0
 28 27  1  0  0  0  0
 29 28  2  0  0  0  0
 30 27  1  0  0  0  0
 30 36  1  0  0  0  0
 32 33  1  0  0  0  0
 33 34  1  0  0  0  0
 35 37  2  0  0  0  0
 35 33  1  0  0  0  0
 36 31  1  6  0  0  0
 36 32  1  0  0  0  0
 36 35  1  0  0  0  0
 40 39  1  0  0  0  0
 40 44  1  1  0  0  0
 41 38  1  6  0  0  0
 41 42  1  0  0  0  0
 41 43  1  0  0  0  0
 42 40  1  0  0  0  0
 43 40  1  0  0  0  0
 43 39  1  1  0  0  0
 44 45  1  0  0  0  0
 45 46  1  1  0  0  0
 45 55  1  0  0  0  0
 46 47  1  0  0  0  0
 47 48  2  0  0  0  0
 48 50  1  0  0  0  0
 50 49  2  0  0  0  0
 50 51  1  0  0  0  0
 53 52  1  0  0  0  0
 53 47  1  0  0  0  0
 54 53  2  0  0  0  0
 57 56  1  0  0  0  0
 57 55  1  0  0  0  0
M  END
>  <MODEL>
5

>  <REMARK>
 VINA RESULT:      -6.0      3.132     10.027
  Name = 
  17 active torsions:
  status: ('A' for Active; 'I' for Inactive)
    1  A    between atoms: N_2  and  N_30
    2  A    between atoms: C_7  and  N_32
    3  A    between atoms: CA_8  and  C_27
    4  A    between atoms: CA_8  and  C_29
    5  A    between atoms: C_9  and  C_45
    6  A    between atoms: N_10  and  C_40
    7  A    between atoms: C_11  and  C_23
    8  A    between atoms: C_12  and  O_14
    9  A    between atoms: C_12  and  N_19
   10  A    between atoms: C_12  and  C_27
   11  A    between atoms: N_13  and  C_26
   12  A    between atoms: N_13  and  N_28
   13  A    between atoms: O_14  and  C_53
   14  A    between atoms: N_19  and  C_24
   15  A    between atoms: C_25  and  O_50
   16  A    between atoms: N_30  and  C_46
   17  A    between atoms: O_50  and  C_56
                            x       y       z     vdW  Elec       q    Type
                         _______ _______ _______ _____ _____    ______ ____

>  <TORSDO>
F 17

$$$$
=
 OpenBabel11042411233D

 57 62  0  0  1  0  0  0  0  0999 V2000
  187.9440  176.8060  135.8170 N   0  0  0  0  0  0  0  0  0  0  0  0
  184.9760  176.9800  135.8340 C   0  0  0  0  0  0  0  0  0  0  0  0
  185.3270  177.2400  137.1020 C   0  0  0  0  0  3  0  0  0  0  0  0
  187.1730  177.1440  134.6660 C   0  0  0  0  0  3  0  0  0  0  0  0
  186.5040  178.6240  139.1410 Cl  0  0  0  0  0  0  0  0  0  0  0  0
  186.6060  177.7650  137.6110 C   0  0  0  0  0  0  0  0  0  0  0  0
  185.8510  177.2270  134.6740 C   0  0  0  0  0  3  0  0  0  0  0  0
  187.8020  177.5810  137.0330 C   0  0  0  0  0  0  0  0  0  0  0  0
  190.3920  173.8710  135.8580 C   0  0  0  0  0  2  0  0  0  0  0  0
  189.1250  174.6710  136.0140 C   0  0  0  0  0  0  0  0  0  0  0  0
  192.7830  174.2790  136.6040 N   0  0  0  0  0  2  0  0  0  0  0  0
  191.5310  175.9950  135.5700 N   0  0  0  0  0  0  0  0  0  0  0  0
  190.3230  176.5270  134.9400 C   0  0  0  0  0  2  0  0  0  0  0  0
  189.0920  175.9580  135.6080 C   0  0  0  0  0  0  0  0  0  0  0  0
  187.9210  173.9860  136.5720 C   0  0  0  0  0  1  0  0  0  0  0  0
  191.5940  174.7640  135.9850 C   0  0  0  0  0  0  0  0  0  0  0  0
  193.8150  175.1590  136.9440 N   0  0  0  0  0  2  0  0  0  0  0  0
  197.0330  175.5390  135.0960 C   0  0  0  0  0  3  0  0  0  0  0  0
  194.6970  176.8300  134.6000 Cl  0  0  0  0  0  0  0  0  0  0  0  0
  195.1890  174.9640  136.5800 C   0  0  0  0  0  0  0  0  0  0  0  0
  197.3620  173.9010  136.8430 C   0  0  0  0  0  3  0  0  0  0  0  0
  196.0340  174.0540  137.2610 C   0  0  0  0  0  0  0  0  0  0  0  0
  195.7020  175.6930  135.4870 C   0  0  0  0  0  0  0  0  0  0  0  0
  197.8630  174.6460  135.7700 C   0  0  0  0  0  3  0  0  0  0  0  0
  195.5480  173.1670  138.3500 C   0  0  0  0  0  2  0  0  0  0  0  0
  195.9840  171.7410  138.0930 C   0  0  0  0  0  1  0  0  0  0  0  0
  183.0000  175.5330  136.4050 N   0  0  0  0  0  2  0  0  0  0  0  0
  183.5990  176.5180  135.5650 C   0  0  0  0  0  0  0  0  0  0  0  0
  182.9430  176.9900  134.5960 O   0  0  0  0  0  0  0  0  0  0  0  0
  181.6950  175.0710  136.1740 N   0  0  0  0  0  2  0  0  0  0  0  0
  179.4670  174.8330  137.2680 C   0  0  0  0  0  1  0  0  0  0  0  0
  181.5400  175.0870  138.5560 C   0  0  0  0  0  2  0  0  0  0  0  0
  181.6200  176.4770  138.9610 N   0  0  0  0  0  0  0  0  0  0  0  0
  182.1490  177.1920  140.1070 C   0  0  0  0  0  1  0  0  0  0  0  0
  180.9320  176.8480  137.7110 C   0  0  0  0  0  0  0  0  0  0  0  0
  180.8750  175.4020  137.3320 C   0  0  1  0  0  0  0  0  0  0  0  0
  180.5440  177.9290  137.1940 O   0  0  0  0  0  0  0  0  0  0  0  0
  188.9130  178.1660  137.6590 O   0  0  0  0  0  0  0  0  0  0  0  0
  191.1650  177.5060  140.4100 N   0  0  0  0  0  2  0  0  0  0  0  0
  189.7780  177.2300  140.5170 C   0  0  2  0  0  0  0  0  0  0  0  0
  189.8520  177.4630  138.4610 C   0  0  2  0  0  3  0  0  0  0  0  0
  189.0220  176.1040  139.3180 S   0  0  0  0  0  0  0  0  0  0  0  0
  190.2180  178.2520  139.6270 N   0  0  2  0  0  0  0  0  0  0  0  0
  189.0470  177.8280  141.6260 N   0  0  0  0  0  2  0  0  0  0  0  0
  189.5550  177.2530  142.8650 C   0  0  2  0  0  3  0  0  0  0  0  0
  188.4750  176.4030  143.5180 C   0  0  0  0  0  2  0  0  0  0  0  0
  187.3960  177.2660  144.0900 C   0  0  0  0  0  0  0  0  0  0  0  0
  186.4280  177.6370  143.2990 N   0  0  0  0  0  0  0  0  0  0  0  0
  184.2500  178.4530  142.8560 C   0  0  0  0  0  2  0  0  0  0  0  0
  185.3450  178.5290  143.5910 C   0  0  0  0  0  0  0  0  0  0  0  0
  185.5770  179.7850  144.3650 C   0  0  0  0  0  1  0  0  0  0  0  0
  186.3600  177.2140  146.3680 O   0  0  0  0  0  1  0  0  0  0  0  0
  187.4290  177.5550  145.5450 C   0  0  0  0  0  0  0  0  0  0  0  0
  188.4650  178.0510  146.0610 O   0  0  0  0  0  0  0  0  0  0  0  0
  189.9450  178.2730  143.7350 O   0  0  0  0  0  0  0  0  0  0  0  0
  191.6580  176.6250  143.8580 C   0  0  0  0  0  1  0  0  0  0  0  0
  191.3260  178.1010  143.8850 C   0  0  0  0  0  2  0  0  0  0  0  0
  1  8  1  0  0  0  0
  2  3  2  0  0  0  0
  3  6  1  0  0  0  0
  4  7  2  0  0  0  0
  4  1  1  0  0  0  0
  6  5  1  0  0  0  0
  7  2  1  0  0  0  0
  8  6  2  0  0  0  0
  8 38  1  0  0  0  0
  9 16  1  0  0  0  0
  9 10  1  0  0  0  0
 10 15  1  0  0  0  0
 11 17  1  0  0  0  0
 12 16  2  0  0  0  0
 13 12  1  0  0  0  0
 13 14  1  0  0  0  0
 14  1  1  0  0  0  0
 14 10  2  0  0  0  0
 16 11  1  0  0  0  0
 18 23  2  0  0  0  0
 18 24  1  0  0  0  0
 19 23  1  0  0  0  0
 20 17  1  0  0  0  0
 20 22  2  0  0  0  0
 21 22  1  0  0  0  0
 22 25  1  0  0  0  0
 23 20  1  0  0  0  0
 24 21  2  0  0  0  0
 26 25  1  0  0  0  0
 28  2  1  0  0  0  0
 28 27  1  0  0  0  0
 29 28  2  0  0  0  0
 30 27  1  0  0  0  0
 30 36  1  0  0  0  0
 32 33  1  0  0  0  0
 33 34  1  0  0  0  0
 35 33  1  0  0  0  0
 36 31  1  6  0  0  0
 36 35  1  0  0  0  0
 36 32  1  0  0  0  0
 37 35  2  0  0  0  0
 39 40  1  0  0  0  0
 40 44  1  1  0  0  0
 41 38  1  6  0  0  0
 41 42  1  0  0  0  0
 41 43  1  0  0  0  0
 42 40  1  0  0  0  0
 43 39  1  6  0  0  0
 43 40  1  0  0  0  0
 44 45  1  0  0  0  0
 45 46  1  1  0  0  0
 45 55  1  0  0  0  0
 46 47  1  0  0  0  0
 47 53  1  0  0  0  0
 48 50  1  0  0  0  0
 48 47  2  0  0  0  0
 49 50  2  0  0  0  0
 50 51  1  0  0  0  0
 53 54  2  0  0  0  0
 53 52  1  0  0  0  0
 55 57  1  0  0  0  0
 56 57  1  0  0  0  0
M  END
>  <MODEL>
6

>  <REMARK>
 VINA RESULT:      -5.6      2.999      9.735
  Name = 
  17 active torsions:
  status: ('A' for Active; 'I' for Inactive)
    1  A    between atoms: N_2  and  N_30
    2  A    between atoms: C_7  and  N_32
    3  A    between atoms: CA_8  and  C_27
    4  A    between atoms: CA_8  and  C_29
    5  A    between atoms: C_9  and  C_45
    6  A    between atoms: N_10  and  C_40
    7  A    between atoms: C_11  and  C_23
    8  A    between atoms: C_12  and  O_14
    9  A    between atoms: C_12  and  N_19
   10  A    between atoms: C_12  and  C_27
   11  A    between atoms: N_13  and  C_26
   12  A    between atoms: N_13  and  N_28
   13  A    between atoms: O_14  and  C_53
   14  A    between atoms: N_19  and  C_24
   15  A    between atoms: C_25  and  O_50
   16  A    between atoms: N_30  and  C_46
   17  A    between atoms: O_50  and  C_56
                            x       y       z     vdW  Elec       q    Type
                         _______ _______ _______ _____ _____    ______ ____

>  <TORSDO>
F 17

$$$$
=
 OpenBabel11042411233D

 57 62  0  0  1  0  0  0  0  0999 V2000
  186.6020  176.6590  135.9580 N   0  0  0  0  0  0  0  0  0  0  0  0
  183.7320  176.9950  136.6560 C   0  0  0  0  0  0  0  0  0  0  0  0
  184.3850  177.3760  137.7630 C   0  0  0  0  0  3  0  0  0  0  0  0
  185.5840  176.9060  134.9900 C   0  0  0  0  0  3  0  0  0  0  0  0
  186.0540  178.9170  139.2790 Cl  0  0  0  0  0  0  0  0  0  0  0  0
  185.7620  177.8860  137.8870 C   0  0  0  0  0  0  0  0  0  0  0  0
  184.3060  177.0610  135.3010 C   0  0  0  0  0  3  0  0  0  0  0  0
  186.7780  177.5730  137.0690 C   0  0  0  0  0  0  0  0  0  0  0  0
  188.8140  173.5560  135.6580 C   0  0  0  0  0  2  0  0  0  0  0  0
  187.6430  174.4440  135.9930 C   0  0  0  0  0  0  0  0  0  0  0  0
  191.3100  173.7880  136.0460 N   0  0  0  0  0  0  0  0  0  0  0  0
  190.0480  175.5950  135.1960 N   0  0  0  0  0  0  0  0  0  0  0  0
  188.8010  176.2150  134.7460 C   0  0  0  0  0  2  0  0  0  0  0  0
  187.6440  175.7330  135.5890 C   0  0  0  0  0  0  0  0  0  0  0  0
  186.4870  173.8440  136.7230 C   0  0  0  0  0  1  0  0  0  0  0  0
  190.0820  174.3600  135.6040 C   0  0  0  0  0  0  0  0  0  0  0  0
  192.4410  174.5910  136.2270 N   0  0  0  0  0  0  0  0  0  0  0  0
  195.2330  174.6490  138.7010 C   0  0  0  0  0  3  0  0  0  0  0  0
  193.2810  176.5100  138.3890 Cl  0  0  0  0  0  0  0  0  0  0  0  0
  193.6130  174.1760  136.9440 C   0  0  0  0  0  0  0  0  0  0  0  0
  195.4540  172.6430  137.3690 C   0  0  0  0  0  3  0  0  0  0  0  0
  194.3070  172.9790  136.6400 C   0  0  0  0  0  0  0  0  0  0  0  0
  194.0970  175.0090  137.9730 C   0  0  0  0  0  0  0  0  0  0  0  0
  195.9120  173.4690  138.4010 C   0  0  0  0  0  3  0  0  0  0  0  0
  193.9310  172.0990  135.5020 C   0  0  0  0  0  2  0  0  0  0  0  0
  193.6470  170.6990  136.0000 C   0  0  0  0  0  1  0  0  0  0  0  0
  181.8640  175.3940  136.1320 N   0  0  0  0  0  2  0  0  0  0  0  0
  182.3190  176.5800  136.7800 C   0  0  0  0  0  0  0  0  0  0  0  0
  181.5080  177.2680  137.4590 O   0  0  0  0  0  0  0  0  0  0  0  0
  180.5270  174.9770  136.2270 N   0  0  0  0  0  2  0  0  0  0  0  0
  179.2400  173.1410  135.1340 C   0  0  0  0  0  1  0  0  0  0  0  0
  181.6830  173.0790  135.3510 C   0  0  0  0  0  2  0  0  0  0  0  0
  181.9870  172.2280  136.4840 N   0  0  0  0  0  0  0  0  0  0  0  0
  183.0610  171.3170  136.8360 C   0  0  0  0  0  1  0  0  0  0  0  0
  180.7380  172.6830  137.1220 C   0  0  0  0  0  0  0  0  0  0  0  0
  180.4670  173.5500  135.9330 C   0  0  1  0  0  0  0  0  0  0  0  0
  180.1460  172.4310  138.2040 O   0  0  0  0  0  0  0  0  0  0  0  0
  188.0220  178.1650  137.3370 O   0  0  0  0  0  0  0  0  0  0  0  0
  190.6250  177.7140  139.8050 N   0  0  0  0  0  2  0  0  0  0  0  0
  189.2750  177.3960  140.1000 C   0  0  2  0  0  0  0  0  0  0  0  0
  189.0810  177.5340  138.0420 C   0  0  2  0  0  3  0  0  0  0  0  0
  188.4200  176.1890  139.0560 S   0  0  0  0  0  0  0  0  0  0  0  0
  189.5580  178.3890  139.1170 N   0  0  2  0  0  0  0  0  0  0  0  0
  188.6650  178.0210  141.2650 N   0  0  0  0  0  2  0  0  0  0  0  0
  189.0870  177.2810  142.4470 C   0  0  2  0  0  3  0  0  0  0  0  0
  189.5100  178.2530  143.5390 C   0  0  0  0  0  2  0  0  0  0  0  0
  188.7800  177.9680  144.8140 C   0  0  0  0  0  0  0  0  0  0  0  0
  189.4410  178.0770  145.9320 N   0  0  0  0  0  0  0  0  0  0  0  0
  189.2830  178.6070  148.2350 C   0  0  0  0  0  2  0  0  0  0  0  0
  188.9890  177.7680  147.2570 C   0  0  0  0  0  0  0  0  0  0  0  0
  188.6060  176.3730  147.6280 C   0  0  0  0  0  1  0  0  0  0  0  0
  186.8540  176.4420  144.3350 O   0  0  0  0  0  0  0  0  0  0  0  0
  187.3250  177.6880  144.7400 C   0  0  0  0  0  0  0  0  0  0  0  0
  186.5000  178.5620  145.1140 O   0  0  0  0  0  1  0  0  0  0  0  0
  190.1530  176.4390  142.1250 O   0  0  0  0  0  0  0  0  0  0  0  0
  191.7240  175.6390  143.7240 C   0  0  0  0  0  1  0  0  0  0  0  0
  190.2910  175.6010  143.2380 C   0  0  0  0  0  2  0  0  0  0  0  0
  1  8  1  0  0  0  0
  2 28  1  0  0  0  0
  2  3  2  0  0  0  0
  3  6  1  0  0  0  0
  4  7  2  0  0  0  0
  4  1  1  0  0  0  0
  6  5  1  0  0  0  0
  7  2  1  0  0  0  0
  8 38  1  0  0  0  0
  8  6  2  0  0  0  0
  9 10  1  0  0  0  0
 10 15  1  0  0  0  0
 11 17  2  0  0  0  0
 12 16  2  0  0  0  0
 13 12  1  0  0  0  0
 13 14  1  0  0  0  0
 14  1  1  0  0  0  0
 14 10  2  0  0  0  0
 16  9  1  0  0  0  0
 16 11  1  0  0  0  0
 17 20  1  0  0  0  0
 20 23  1  0  0  0  0
 21 24  2  0  0  0  0
 22 20  2  0  0  0  0
 22 21  1  0  0  0  0
 23 19  1  0  0  0  0
 23 18  2  0  0  0  0
 24 18  1  0  0  0  0
 25 26  1  0  0  0  0
 25 22  1  0  0  0  0
 27 30  1  0  0  0  0
 27 28  1  0  0  0  0
 28 29  2  0  0  0  0
 32 36  1  0  0  0  0
 32 33  1  0  0  0  0
 33 34  1  0  0  0  0
 33 35  1  0  0  0  0
 35 37  2  0  0  0  0
 36 31  1  6  0  0  0
 36 30  1  0  0  0  0
 36 35  1  0  0  0  0
 39 40  1  0  0  0  0
 40 44  1  1  0  0  0
 41 38  1  1  0  0  0
 41 42  1  0  0  0  0
 41 43  1  0  0  0  0
 42 40  1  0  0  0  0
 43 39  1  6  0  0  0
 43 40  1  0  0  0  0
 44 45  1  0  0  0  0
 45 46  1  1  0  0  0
 46 47  1  0  0  0  0
 47 48  2  0  0  0  0
 48 50  1  0  0  0  0
 50 51  1  0  0  0  0
 50 49  2  0  0  0  0
 52 53  2  0  0  0  0
 53 47  1  0  0  0  0
 53 54  1  0  0  0  0
 55 45  1  0  0  0  0
 55 57  1  0  0  0  0
 57 56  1  0  0  0  0
M  END
>  <MODEL>
7

>  <REMARK>
 VINA RESULT:      -5.4      3.555      9.611
  Name = 
  17 active torsions:
  status: ('A' for Active; 'I' for Inactive)
    1  A    between atoms: N_2  and  N_30
    2  A    between atoms: C_7  and  N_32
    3  A    between atoms: CA_8  and  C_27
    4  A    between atoms: CA_8  and  C_29
    5  A    between atoms: C_9  and  C_45
    6  A    between atoms: N_10  and  C_40
    7  A    between atoms: C_11  and  C_23
    8  A    between atoms: C_12  and  O_14
    9  A    between atoms: C_12  and  N_19
   10  A    between atoms: C_12  and  C_27
   11  A    between atoms: N_13  and  C_26
   12  A    between atoms: N_13  and  N_28
   13  A    between atoms: O_14  and  C_53
   14  A    between atoms: N_19  and  C_24
   15  A    between atoms: C_25  and  O_50
   16  A    between atoms: N_30  and  C_46
   17  A    between atoms: O_50  and  C_56
                            x       y       z     vdW  Elec       q    Type
                         _______ _______ _______ _____ _____    ______ ____

>  <TORSDO>
F 17

$$$$
=
 OpenBabel11042411233D

 57 62  0  0  1  0  0  0  0  0999 V2000
  187.8630  177.3920  137.2190 N   0  0  0  0  0  0  0  0  0  0  0  0
  185.1750  178.1880  138.2080 C   0  0  0  0  0  0  0  0  0  0  0  0
  185.9420  178.1880  139.3070 C   0  0  0  0  0  3  0  0  0  0  0  0
  186.8900  178.0420  136.4040 C   0  0  0  0  0  3  0  0  0  0  0  0
  187.9770  178.9940  140.9400 Cl  0  0  0  0  0  0  0  0  0  0  0  0
  187.4030  178.3540  139.4080 C   0  0  0  0  0  0  0  0  0  0  0  0
  185.6950  178.4020  136.8450 C   0  0  0  0  0  3  0  0  0  0  0  0
  188.2870  178.0030  138.4630 C   0  0  0  0  0  0  0  0  0  0  0  0
  189.2460  174.0120  136.0890 C   0  0  0  0  0  2  0  0  0  0  0  0
  188.3240  175.0500  136.6760 C   0  0  0  0  0  0  0  0  0  0  0  0
  191.7140  173.5240  136.4200 N   0  0  0  0  0  0  0  0  0  0  0  0
  190.9540  175.7360  136.0830 N   0  0  0  0  0  0  0  0  0  0  0  0
  189.9100  176.7320  135.8470 C   0  0  0  0  0  2  0  0  0  0  0  0
  188.6520  176.3580  136.5950 C   0  0  0  0  0  0  0  0  0  0  0  0
  187.0400  174.5910  137.2860 C   0  0  0  0  0  1  0  0  0  0  0  0
  190.6740  174.4690  136.1790 C   0  0  0  0  0  0  0  0  0  0  0  0
  193.0030  173.9570  136.7440 N   0  0  0  0  0  0  0  0  0  0  0  0
  195.1550  170.9190  136.4980 C   0  0  0  0  0  3  0  0  0  0  0  0
  192.7510  171.3250  135.3030 Cl  0  0  0  0  0  0  0  0  0  0  0  0
  194.1160  173.0760  136.9520 C   0  0  0  0  0  0  0  0  0  0  0  0
  196.2630  172.5060  137.9460 C   0  0  0  0  0  3  0  0  0  0  0  0
  195.2170  173.4210  137.7740 C   0  0  0  0  0  0  0  0  0  0  0  0
  194.0950  171.8110  136.3280 C   0  0  0  0  0  0  0  0  0  0  0  0
  196.2370  171.2640  137.3050 C   0  0  0  0  0  3  0  0  0  0  0  0
  195.2710  174.6850  138.5550 C   0  0  0  0  0  2  0  0  0  0  0  0
  196.3070  174.5740  139.6520 C   0  0  0  0  0  1  0  0  0  0  0  0
  182.9520  177.2880  137.4510 N   0  0  0  0  0  2  0  0  0  0  0  0
  183.7110  178.0710  138.3700 C   0  0  0  0  0  0  0  0  0  0  0  0
  183.1240  178.6580  139.3200 O   0  0  0  0  0  0  0  0  0  0  0  0
  181.5600  177.1600  137.5770 N   0  0  0  0  0  2  0  0  0  0  0  0
  181.2270  175.6070  139.4990 C   0  0  0  0  0  1  0  0  0  0  0  0
  180.0800  175.3000  137.3520 C   0  0  0  0  0  2  0  0  0  0  0  0
  180.8110  174.2820  136.6230 N   0  0  0  0  0  0  0  0  0  0  0  0
  180.4660  173.2410  135.6720 C   0  0  0  0  0  1  0  0  0  0  0  0
  182.0510  174.7590  137.2630 C   0  0  0  0  0  0  0  0  0  0  0  0
  181.2560  175.7960  137.9910 C   0  0  1  0  0  0  0  0  0  0  0  0
  183.2630  174.4200  137.2200 O   0  0  0  0  0  0  0  0  0  0  0  0
  189.6430  178.2460  138.7320 O   0  0  0  0  0  0  0  0  0  0  0  0
  192.5820  176.8040  140.2670 N   0  0  0  0  0  2  0  0  0  0  0  0
  191.3870  176.9920  141.0070 C   0  0  2  0  0  0  0  0  0  0  0  0
  190.5810  177.2520  139.1180 C   0  0  2  0  0  3  0  0  0  0  0  0
  189.8660  176.2110  140.4130 S   0  0  0  0  0  0  0  0  0  0  0  0
  191.6580  177.8420  139.8960 N   0  0  2  0  0  0  0  0  0  0  0  0
  191.4630  177.7610  142.2410 N   0  0  0  0  0  2  0  0  0  0  0  0
  190.4130  177.2870  143.1340 C   0  0  2  0  0  3  0  0  0  0  0  0
  189.8560  178.4530  143.9380 C   0  0  0  0  0  2  0  0  0  0  0  0
  188.7350  178.0000  144.8200 C   0  0  0  0  0  0  0  0  0  0  0  0
  188.8230  178.2540  146.0960 N   0  0  0  0  0  0  0  0  0  0  0  0
  188.2260  176.7550  147.8290 C   0  0  0  0  0  2  0  0  0  0  0  0
  187.9310  177.8420  147.1390 C   0  0  0  0  0  0  0  0  0  0  0  0
  186.5170  178.3220  147.1680 C   0  0  0  0  0  1  0  0  0  0  0  0
  186.3930  178.1410  143.9470 O   0  0  0  0  0  1  0  0  0  0  0  0
  187.5430  177.3920  144.1800 C   0  0  0  0  0  0  0  0  0  0  0  0
  187.5900  176.2000  143.7750 O   0  0  0  0  0  0  0  0  0  0  0  0
  190.9290  176.3190  144.0000 O   0  0  0  0  0  0  0  0  0  0  0  0
  191.7600  176.3960  146.2290 C   0  0  0  0  0  1  0  0  0  0  0  0
  191.7810  177.0280  144.8550 C   0  0  0  0  0  2  0  0  0  0  0  0
  1  8  1  0  0  0  0
  2 28  1  0  0  0  0
  2  3  2  0  0  0  0
  3  6  1  0  0  0  0
  4  7  2  0  0  0  0
  4  1  1  0  0  0  0
  6  5  1  0  0  0  0
  7  2  1  0  0  0  0
  8 38  1  0  0  0  0
  8  6  2  0  0  0  0
  9 16  1  0  0  0  0
  9 10  1  0  0  0  0
 10 15  1  0  0  0  0
 11 17  2  0  0  0  0
 12 16  2  0  0  0  0
 13 12  1  0  0  0  0
 13 14  1  0  0  0  0
 14 10  2  0  0  0  0
 14  1  1  0  0  0  0
 16 11  1  0  0  0  0
 17 20  1  0  0  0  0
 18 24  1  0  0  0  0
 19 23  1  0  0  0  0
 20 22  2  0  0  0  0
 22 21  1  0  0  0  0
 22 25  1  0  0  0  0
 23 18  2  0  0  0  0
 23 20  1  0  0  0  0
 24 21  2  0  0  0  0
 25 26  1  0  0  0  0
 27 30  1  0  0  0  0
 27 28  1  0  0  0  0
 28 29  2  0  0  0  0
 30 36  1  0  0  0  0
 32 36  1  0  0  0  0
 33 35  1  0  0  0  0
 33 32  1  0  0  0  0
 34 33  1  0  0  0  0
 35 36  1  0  0  0  0
 36 31  1  1  0  0  0
 37 35  2  0  0  0  0
 39 40  1  0  0  0  0
 40 44  1  1  0  0  0
 41 38  1  1  0  0  0
 41 43  1  0  0  0  0
 41 42  1  0  0  0  0
 42 40  1  0  0  0  0
 43 39  1  6  0  0  0
 43 40  1  0  0  0  0
 44 45  1  0  0  0  0
 45 46  1  1  0  0  0
 45 55  1  0  0  0  0
 46 47  1  0  0  0  0
 47 48  2  0  0  0  0
 48 50  1  0  0  0  0
 50 51  1  0  0  0  0
 50 49  2  0  0  0  0
 52 53  1  0  0  0  0
 53 47  1  0  0  0  0
 54 53  2  0  0  0  0
 55 57  1  0  0  0  0
 57 56  1  0  0  0  0
M  END
>  <MODEL>
8

>  <REMARK>
 VINA RESULT:      -5.3      2.954      9.465
  Name = 
  17 active torsions:
  status: ('A' for Active; 'I' for Inactive)
    1  A    between atoms: N_2  and  N_30
    2  A    between atoms: C_7  and  N_32
    3  A    between atoms: CA_8  and  C_27
    4  A    between atoms: CA_8  and  C_29
    5  A    between atoms: C_9  and  C_45
    6  A    between atoms: N_10  and  C_40
    7  A    between atoms: C_11  and  C_23
    8  A    between atoms: C_12  and  O_14
    9  A    between atoms: C_12  and  N_19
   10  A    between atoms: C_12  and  C_27
   11  A    between atoms: N_13  and  C_26
   12  A    between atoms: N_13  and  N_28
   13  A    between atoms: O_14  and  C_53
   14  A    between atoms: N_19  and  C_24
   15  A    between atoms: C_25  and  O_50
   16  A    between atoms: N_30  and  C_46
   17  A    between atoms: O_50  and  C_56
                            x       y       z     vdW  Elec       q    Type
                         _______ _______ _______ _____ _____    ______ ____

>  <TORSDO>
F 17

$$$$
=
 OpenBabel11042411233D

 57 62  0  0  1  0  0  0  0  0999 V2000
  189.0950  176.5010  136.0240 N   0  0  0  0  0  0  0  0  0  0  0  0
  186.2600  177.2540  136.5070 C   0  0  0  0  0  0  0  0  0  0  0  0
  186.8600  177.4640  137.6870 C   0  0  0  0  0  3  0  0  0  0  0  0
  188.2210  176.9610  134.9960 C   0  0  0  0  0  3  0  0  0  0  0  0
  188.6010  178.6300  139.4380 Cl  0  0  0  0  0  0  0  0  0  0  0  0
  188.2820  177.7380  137.9580 C   0  0  0  0  0  0  0  0  0  0  0  0
  186.9600  177.3030  135.2110 C   0  0  0  0  0  3  0  0  0  0  0  0
  189.3080  177.3130  137.2060 C   0  0  0  0  0  0  0  0  0  0  0  0
  190.8640  173.1230  135.7620 C   0  0  0  0  0  2  0  0  0  0  0  0
  189.8170  174.1630  136.0700 C   0  0  0  0  0  0  0  0  0  0  0  0
  193.3550  173.0050  136.2300 N   0  0  0  0  0  2  0  0  0  0  0  0
  192.3830  174.9740  135.3590 N   0  0  0  0  0  0  0  0  0  0  0  0
  191.2500  175.7630  134.8770 C   0  0  0  0  0  2  0  0  0  0  0  0
  190.0100  175.4410  135.6790 C   0  0  0  0  0  0  0  0  0  0  0  0
  188.5670  173.7250  136.7580 C   0  0  0  0  0  1  0  0  0  0  0  0
  192.2330  173.7440  135.7560 C   0  0  0  0  0  0  0  0  0  0  0  0
  194.5790  173.6410  136.4550 N   0  0  0  0  0  2  0  0  0  0  0  0
  198.0060  173.6200  134.9790 C   0  0  0  0  0  3  0  0  0  0  0  0
  196.3940  175.7740  135.3500 Cl  0  0  0  0  0  0  0  0  0  0  0  0
  195.8410  173.1410  135.9900 C   0  0  0  0  0  0  0  0  0  0  0  0
  197.4240  171.3450  135.5530 C   0  0  0  0  0  3  0  0  0  0  0  0
  196.1800  171.7670  136.0390 C   0  0  0  0  0  0  0  0  0  0  0  0
  196.7640  174.0580  135.4430 C   0  0  0  0  0  0  0  0  0  0  0  0
  198.3370  172.2680  135.0320 C   0  0  0  0  0  3  0  0  0  0  0  0
  195.2280  170.7210  136.4960 C   0  0  0  0  0  2  0  0  0  0  0  0
  195.4220  170.4510  137.9720 C   0  0  0  0  0  1  0  0  0  0  0  0
  183.9870  177.6350  137.5150 N   0  0  0  0  0  2  0  0  0  0  0  0
  184.7940  177.0660  136.4860 C   0  0  0  0  0  0  0  0  0  0  0  0
  184.2480  176.4050  135.5610 O   0  0  0  0  0  0  0  0  0  0  0  0
  182.5930  177.4710  137.5250 N   0  0  0  0  0  2  0  0  0  0  0  0
  182.1020  175.3360  138.7170 C   0  0  0  0  0  1  0  0  0  0  0  0
  183.0360  177.2940  139.8640 C   0  0  0  0  0  2  0  0  0  0  0  0
  181.9370  177.9550  140.5390 N   0  0  0  0  0  0  0  0  0  0  0  0
  181.7830  178.7190  141.7630 C   0  0  0  0  0  1  0  0  0  0  0  0
  181.0450  177.5150  139.4500 C   0  0  0  0  0  0  0  0  0  0  0  0
  182.2100  176.8510  138.7870 C   0  0  1  0  0  0  0  0  0  0  0  0
  179.8180  177.6380  139.1980 O   0  0  0  0  0  0  0  0  0  0  0  0
  190.5990  177.6810  137.6160 O   0  0  0  0  0  0  0  0  0  0  0  0
  193.2230  176.8190  139.9500 N   0  0  0  0  0  2  0  0  0  0  0  0
  191.9080  177.1010  140.3990 C   0  0  2  0  0  0  0  0  0  0  0  0
  191.4640  176.8630  138.3900 C   0  0  2  0  0  3  0  0  0  0  0  0
  190.5370  176.1120  139.7500 S   0  0  0  0  0  0  0  0  0  0  0  0
  192.3670  177.6830  139.1820 N   0  0  2  0  0  0  0  0  0  0  0  0
  191.7390  178.1410  141.4040 N   0  0  0  0  0  2  0  0  0  0  0  0
  191.0690  177.5510  142.5560 C   0  0  2  0  0  3  0  0  0  0  0  0
  190.4340  178.6480  143.3990 C   0  0  0  0  0  2  0  0  0  0  0  0
  189.3340  178.0930  144.2480 C   0  0  0  0  0  0  0  0  0  0  0  0
  189.4200  178.2530  145.5390 N   0  0  0  0  0  0  0  0  0  0  0  0
  188.8860  176.6130  147.1620 C   0  0  0  0  0  2  0  0  0  0  0  0
  188.5480  177.7350  146.5510 C   0  0  0  0  0  0  0  0  0  0  0  0
  187.1170  178.1580  146.6160 C   0  0  0  0  0  1  0  0  0  0  0  0
  187.4940  178.1760  142.5530 O   0  0  0  0  0  0  0  0  0  0  0  0
  188.1590  177.4940  143.5680 C   0  0  0  0  0  0  0  0  0  0  0  0
  187.7970  176.3240  143.8590 O   0  0  0  0  0  1  0  0  0  0  0  0
  191.9890  176.8360  143.3250 O   0  0  0  0  0  0  0  0  0  0  0  0
  192.0370  174.9330  144.7550 C   0  0  0  0  0  1  0  0  0  0  0  0
  191.3570  175.6150  143.5880 C   0  0  0  0  0  2  0  0  0  0  0  0
  1  8  1  0  0  0  0
  2  3  2  0  0  0  0
  3  6  1  0  0  0  0
  4  7  2  0  0  0  0
  4  1  1  0  0  0  0
  6  5  1  0  0  0  0
  7  2  1  0  0  0  0
  8 38  1  0  0  0  0
  8  6  2  0  0  0  0
  9 10  1  0  0  0  0
 10 15  1  0  0  0  0
 11 17  1  0  0  0  0
 12 16  2  0  0  0  0
 13 12  1  0  0  0  0
 13 14  1  0  0  0  0
 14  1  1  0  0  0  0
 14 10  2  0  0  0  0
 16  9  1  0  0  0  0
 16 11  1  0  0  0  0
 18 24  2  0  0  0  0
 18 23  1  0  0  0  0
 19 23  1  0  0  0  0
 20 22  1  0  0  0  0
 20 17  1  0  0  0  0
 21 22  2  0  0  0  0
 22 25  1  0  0  0  0
 23 20  2  0  0  0  0
 24 21  1  0  0  0  0
 25 26  1  0  0  0  0
 27 30  1  0  0  0  0
 28  2  1  0  0  0  0
 28 27  1  0  0  0  0
 29 28  2  0  0  0  0
 30 36  1  0  0  0  0
 32 33  1  0  0  0  0
 33 34  1  0  0  0  0
 35 33  1  0  0  0  0
 36 31  1  6  0  0  0
 36 35  1  0  0  0  0
 36 32  1  0  0  0  0
 37 35  2  0  0  0  0
 39 40  1  0  0  0  0
 40 44  1  1  0  0  0
 41 38  1  6  0  0  0
 41 43  1  0  0  0  0
 41 42  1  0  0  0  0
 42 40  1  0  0  0  0
 43 39  1  6  0  0  0
 43 40  1  0  0  0  0
 44 45  1  0  0  0  0
 45 55  1  0  0  0  0
 45 46  1  1  0  0  0
 46 47  1  0  0  0  0
 47 48  2  0  0  0  0
 48 50  1  0  0  0  0
 50 51  1  0  0  0  0
 50 49  2  0  0  0  0
 52 53  2  0  0  0  0
 53 54  1  0  0  0  0
 53 47  1  0  0  0  0
 55 57  1  0  0  0  0
 57 56  1  0  0  0  0
M  END
>  <MODEL>
9

>  <REMARK>
 VINA RESULT:      -5.2      2.797      9.928
  Name = 
  17 active torsions:
  status: ('A' for Active; 'I' for Inactive)
    1  A    between atoms: N_2  and  N_30
    2  A    between atoms: C_7  and  N_32
    3  A    between atoms: CA_8  and  C_27
    4  A    between atoms: CA_8  and  C_29
    5  A    between atoms: C_9  and  C_45
    6  A    between atoms: N_10  and  C_40
    7  A    between atoms: C_11  and  C_23
    8  A    between atoms: C_12  and  O_14
    9  A    between atoms: C_12  and  N_19
   10  A    between atoms: C_12  and  C_27
   11  A    between atoms: N_13  and  C_26
   12  A    between atoms: N_13  and  N_28
   13  A    between atoms: O_14  and  C_53
   14  A    between atoms: N_19  and  C_24
   15  A    between atoms: C_25  and  O_50
   16  A    between atoms: N_30  and  C_46
   17  A    between atoms: O_50  and  C_56
                            x       y       z     vdW  Elec       q    Type
                         _______ _______ _______ _____ _____    ______ ____

>  <TORSDO>
F 17

$$$$
