=
 OpenBabel11042409483D

 33 35  0  0  1  0  0  0  0  0999 V2000
  190.5250  177.0310  139.3340 N   0  0  0  0  0  0  0  0  0  0  0  0
  190.5510  177.0940  137.1350 C   0  0  0  0  0  2  0  0  0  0  0  0
  191.4880  176.7850  138.2480 C   0  0  0  0  0  2  0  0  0  0  0  0
  189.5840  177.3290  138.2400 C   0  0  2  0  0  3  0  0  0  0  0  0
  190.4950  176.6640  145.0400 C   0  0  0  0  0  2  0  0  0  0  0  0
  187.4250  177.5570  144.3480 C   0  0  0  0  0  2  0  0  0  0  0  0
  191.6910  176.9870  142.8760 C   0  0  0  0  0  3  0  0  0  0  0  0
  190.5130  176.9400  140.7600 C   0  0  0  0  0  0  0  0  0  0  0  0
  187.6200  177.8060  145.7860 C   0  0  0  0  0  0  0  0  0  0  0  0
  190.0420  177.9300  145.5930 N   0  0  0  0  0  2  0  0  0  0  0  0
  190.4940  176.7340  143.5550 C   0  0  0  0  0  0  0  0  0  0  0  0
  189.3160  176.6920  141.4390 C   0  0  0  0  0  3  0  0  0  0  0  0
  187.9130  176.3260  143.5730 C   0  0  0  0  0  2  0  0  0  0  0  0
  189.2990  176.5890  142.8330 C   0  0  0  0  0  0  0  0  0  0  0  0
  191.7010  177.0860  141.4820 C   0  0  0  0  0  3  0  0  0  0  0  0
  187.1620  176.3510  143.9500 N   0  0  0  0  0  2  0  0  0  0  0  0
  188.8270  178.0390  146.3400 C   0  0  0  0  0  0  0  0  0  0  0  0
  188.9150  178.4720  147.6980 N   0  0  0  0  0  1  0  0  0  0  0  0
  186.3780  177.9930  146.6000 C   0  0  0  0  0  2  0  0  0  0  0  0
  185.1350  178.9180  145.6480 S   0  0  0  0  0  1  0  0  0  0  0  0
  189.1770  178.7960  138.2630 C   0  0  0  0  0  2  0  0  0  0  0  0
  187.8260  178.9440  137.7570 N   0  0  0  0  0  2  0  0  0  0  0  0
  186.9720  178.1150  138.5870 C   0  0  0  0  0  2  0  0  0  0  0  0
  184.4710  178.2040  138.3250 C   0  0  0  0  0  0  0  0  0  0  0  0
  185.7600  177.7730  137.8560 N   0  0  0  0  0  0  0  0  0  0  0  0
  183.4330  177.9250  137.6660 O   0  0  0  0  0  0  0  0  0  0  0  0
  185.9010  177.0990  136.5690 C   0  0  0  0  0  2  0  0  0  0  0  0
  186.4720  175.7050  136.7590 C   0  0  0  0  0  1  0  0  0  0  0  0
  184.3370  178.9570  139.6280 C   0  0  0  0  0  2  0  0  0  0  0  0
  182.4330  178.3770  140.9570 C   0  0  0  0  0  1  0  0  0  0  0  0
  183.8540  178.1470  140.7550 N   0  0  0  0  0  0  0  0  0  0  0  0
  184.5520  178.5000  141.9850 C   0  0  0  0  0  2  0  0  0  0  0  0
  185.6020  179.4610  141.6930 N   0  0  0  0  0  1  0  0  0  0  0  0
  1  8  1  0  0  0  0
  2  4  1  0  0  0  0
  2  3  1  0  0  0  0
  3  1  1  0  0  0  0
  4 21  1  1  0  0  0
  4  1  1  0  0  0  0
  5 10  1  0  0  0  0
  6  9  1  0  0  0  0
  7 11  1  0  0  0  0
  8 12  2  0  0  0  0
  8 15  1  0  0  0  0
  9 17  2  0  0  0  0
  9 19  1  0  0  0  0
 10 17  1  0  0  0  0
 11  5  1  0  0  0  0
 12 14  1  0  0  0  0
 13 16  1  0  0  0  0
 14 11  2  0  0  0  0
 14 13  1  0  0  0  0
 15  7  2  0  0  0  0
 16  6  1  0  0  0  0
 17 18  1  0  0  0  0
 20 19  1  0  0  0  0
 22 21  1  0  0  0  0
 22 23  1  0  0  0  0
 24 29  1  0  0  0  0
 25 24  1  0  0  0  0
 25 23  1  0  0  0  0
 26 24  2  0  0  0  0
 27 28  1  0  0  0  0
 27 25  1  0  0  0  0
 29 31  1  0  0  0  0
 31 30  1  0  0  0  0
 31 32  1  0  0  0  0
 33 32  1  0  0  0  0
M  END
>  <MODEL>
1

>  <REMARK>
 VINA RESULT:      -7.0      0.000      0.000
  Name = 
  10 active torsions:
  status: ('A' for Active; 'I' for Inactive)
    1  A    between atoms: N_1  and  C_7
    2  A    between atoms: C_5  and  N_15
    3  A    between atoms: C_5  and  C_28
    4  A    between atoms: C_8  and  C_9
    5  A    between atoms: C_13  and  N_32
    6  A    between atoms: N_15  and  C_27
    7  A    between atoms: C_17  and  C_26
    8  A    between atoms: C_18  and  N_22
    9  A    between atoms: N_22  and  C_27
   10  A    between atoms: C_26  and  N_32
                            x       y       z     vdW  Elec       q    Type
                         _______ _______ _______ _____ _____    ______ ____

>  <TORSDO>
F 10

$$$$
=
 OpenBabel11042409483D

 33 35  0  0  1  0  0  0  0  0999 V2000
  190.5040  177.6240  142.3330 N   0  0  0  0  0  0  0  0  0  0  0  0
  190.8260  177.9110  144.4910 C   0  0  0  0  0  2  0  0  0  0  0  0
  191.6420  177.7810  143.2530 C   0  0  0  0  0  2  0  0  0  0  0  0
  189.6840  177.7630  143.5490 C   0  0  2  0  0  3  0  0  0  0  0  0
  189.7520  177.0650  136.6920 C   0  0  0  0  0  2  0  0  0  0  0  0
  186.6870  177.1530  137.8340 C   0  0  0  0  0  2  0  0  0  0  0  0
  191.1270  176.7840  138.7530 C   0  0  0  0  0  3  0  0  0  0  0  0
  190.3110  177.4850  140.9240 C   0  0  0  0  0  0  0  0  0  0  0  0
  186.6080  176.6340  136.4580 C   0  0  0  0  0  0  0  0  0  0  0  0
  188.9260  175.8960  136.4390 N   0  0  0  0  0  2  0  0  0  0  0  0
  189.9450  177.2370  138.1570 C   0  0  0  0  0  0  0  0  0  0  0  0
  189.1280  177.9330  140.3280 C   0  0  0  0  0  3  0  0  0  0  0  0
  187.5700  178.3150  138.3070 C   0  0  0  0  0  2  0  0  0  0  0  0
  188.9390  177.8120  138.9480 C   0  0  0  0  0  0  0  0  0  0  0  0
  191.3110  176.9110  140.1330 C   0  0  0  0  0  3  0  0  0  0  0  0
  186.7900  178.4330  138.0160 N   0  0  0  0  0  2  0  0  0  0  0  0
  187.6290  175.9990  135.8460 C   0  0  0  0  0  0  0  0  0  0  0  0
  187.4120  175.3460  134.5950 N   0  0  0  0  0  1  0  0  0  0  0  0
  185.2540  176.6590  135.8180 C   0  0  0  0  0  2  0  0  0  0  0  0
  183.9850  176.1330  137.0090 S   0  0  0  0  0  1  0  0  0  0  0  0
  188.9370  176.4690  143.8460 C   0  0  0  0  0  2  0  0  0  0  0  0
  187.5210  176.7380  144.0070 N   0  0  0  0  0  2  0  0  0  0  0  0
  187.4050  178.1030  144.4850 C   0  0  0  0  0  2  0  0  0  0  0  0
  185.2990  178.7150  145.7190 C   0  0  0  0  0  0  0  0  0  0  0  0
  186.6120  178.1290  145.7060 N   0  0  0  0  0  0  0  0  0  0  0  0
  184.6120  178.7050  146.7760 O   0  0  0  0  0  0  0  0  0  0  0  0
  187.1300  177.4270  146.8760 C   0  0  0  0  0  2  0  0  0  0  0  0
  188.4280  178.0610  147.3430 C   0  0  0  0  0  1  0  0  0  0  0  0
  184.7420  179.3860  144.4860 C   0  0  0  0  0  2  0  0  0  0  0  0
  184.3680  178.4350  142.3210 C   0  0  0  0  0  1  0  0  0  0  0  0
  183.8540  178.5390  143.6770 N   0  0  0  0  0  0  0  0  0  0  0  0
  182.5120  179.1050  143.6140 C   0  0  0  0  0  2  0  0  0  0  0  0
  181.9130  178.8010  142.3250 N   0  0  0  0  0  1  0  0  0  0  0  0
  1  3  1  0  0  0  0
  1  4  1  0  0  0  0
  3  2  1  0  0  0  0
  4 21  1  1  0  0  0
  4  2  1  0  0  0  0
  5 11  1  0  0  0  0
  6 16  1  0  0  0  0
  7 15  1  0  0  0  0
  8  1  1  0  0  0  0
  9  6  1  0  0  0  0
 10  5  1  0  0  0  0
 11  7  2  0  0  0  0
 11 14  1  0  0  0  0
 12  8  1  0  0  0  0
 13 14  1  0  0  0  0
 14 12  2  0  0  0  0
 15  8  2  0  0  0  0
 16 13  1  0  0  0  0
 17 10  1  0  0  0  0
 17  9  2  0  0  0  0
 18 17  1  0  0  0  0
 19  9  1  0  0  0  0
 19 20  1  0  0  0  0
 21 22  1  0  0  0  0
 22 23  1  0  0  0  0
 23 25  1  0  0  0  0
 24 26  2  0  0  0  0
 25 24  1  0  0  0  0
 25 27  1  0  0  0  0
 27 28  1  0  0  0  0
 29 24  1  0  0  0  0
 30 31  1  0  0  0  0
 31 29  1  0  0  0  0
 32 31  1  0  0  0  0
 33 32  1  0  0  0  0
M  END
>  <MODEL>
2

>  <REMARK>
 VINA RESULT:      -6.8      2.861      7.096
  Name = 
  10 active torsions:
  status: ('A' for Active; 'I' for Inactive)
    1  A    between atoms: N_1  and  C_7
    2  A    between atoms: C_5  and  N_15
    3  A    between atoms: C_5  and  C_28
    4  A    between atoms: C_8  and  C_9
    5  A    between atoms: C_13  and  N_32
    6  A    between atoms: N_15  and  C_27
    7  A    between atoms: C_17  and  C_26
    8  A    between atoms: C_18  and  N_22
    9  A    between atoms: N_22  and  C_27
   10  A    between atoms: C_26  and  N_32
                            x       y       z     vdW  Elec       q    Type
                         _______ _______ _______ _____ _____    ______ ____

>  <TORSDO>
F 10

$$$$
=
 OpenBabel11042409483D

 33 35  0  0  1  0  0  0  0  0999 V2000
  181.6480  178.2090  141.0000 N   0  0  0  0  0  0  0  0  0  0  0  0
  180.2010  177.8770  139.3760 C   0  0  0  0  0  2  0  0  0  0  0  0
  180.2060  178.3920  140.7720 C   0  0  0  0  0  2  0  0  0  0  0  0
  181.6590  177.7070  139.6150 C   0  0  2  0  0  3  0  0  0  0  0  0
  185.3730  179.2800  145.2040 C   0  0  0  0  0  2  0  0  0  0  0  0
  187.0610  177.3030  143.2170 C   0  0  0  0  0  2  0  0  0  0  0  0
  183.0400  179.1100  144.3400 C   0  0  0  0  0  3  0  0  0  0  0  0
  182.5830  178.4740  142.0480 C   0  0  0  0  0  0  0  0  0  0  0  0
  187.7840  177.3260  144.5000 C   0  0  0  0  0  0  0  0  0  0  0  0
  185.8260  178.0190  145.7670 N   0  0  0  0  0  2  0  0  0  0  0  0
  184.4150  179.0210  144.0970 C   0  0  0  0  0  0  0  0  0  0  0  0
  183.9570  178.3810  141.8060 C   0  0  0  0  0  3  0  0  0  0  0  0
  186.4340  178.5160  142.5170 C   0  0  0  0  0  2  0  0  0  0  0  0
  184.8760  178.6520  142.8240 C   0  0  0  0  0  0  0  0  0  0  0  0
  182.1260  178.8410  143.3180 C   0  0  0  0  0  3  0  0  0  0  0  0
  187.2300  178.2830  142.3850 N   0  0  0  0  0  2  0  0  0  0  0  0
  187.1890  177.5970  145.6800 C   0  0  0  0  0  0  0  0  0  0  0  0
  187.9070  177.4000  146.8990 N   0  0  0  0  0  1  0  0  0  0  0  0
  189.1960  176.8300  144.4730 C   0  0  0  0  0  2  0  0  0  0  0  0
  190.3500  178.2230  144.2950 S   0  0  0  0  0  1  0  0  0  0  0  0
  182.0160  176.2270  139.5800 C   0  0  0  0  0  2  0  0  0  0  0  0
  183.1480  176.0090  138.7000 N   0  0  0  0  0  2  0  0  0  0  0  0
  183.6150  177.3190  138.2850 C   0  0  0  0  0  2  0  0  0  0  0  0
  185.4640  177.4070  136.5790 C   0  0  0  0  0  0  0  0  0  0  0  0
  184.0700  177.2620  136.9030 N   0  0  0  0  0  0  0  0  0  0  0  0
  185.8470  177.3270  135.3820 O   0  0  0  0  0  0  0  0  0  0  0  0
  183.0950  176.9200  135.8720 C   0  0  0  0  0  2  0  0  0  0  0  0
  181.9680  177.9370  135.8510 C   0  0  0  0  0  1  0  0  0  0  0  0
  186.4790  177.6990  137.6600 C   0  0  0  0  0  2  0  0  0  0  0  0
  188.1790  176.0160  137.5690 C   0  0  0  0  0  1  0  0  0  0  0  0
  187.8710  177.4080  137.2860 N   0  0  0  0  0  0  0  0  0  0  0  0
  188.7960  178.2430  138.0420 C   0  0  0  0  0  2  0  0  0  0  0  0
  188.8890  179.5540  137.4230 N   0  0  0  0  0  1  0  0  0  0  0  0
  1  8  1  0  0  0  0
  2  4  1  0  0  0  0
  2  3  1  0  0  0  0
  3  1  1  0  0  0  0
  4 21  1  1  0  0  0
  4  1  1  0  0  0  0
  5 10  1  0  0  0  0
  6  9  1  0  0  0  0
  8 15  1  0  0  0  0
  9 17  2  0  0  0  0
 11  7  1  0  0  0  0
 11  5  1  0  0  0  0
 12  8  2  0  0  0  0
 12 14  1  0  0  0  0
 13 14  1  0  0  0  0
 14 11  2  0  0  0  0
 15  7  2  0  0  0  0
 16 13  1  0  0  0  0
 16  6  1  0  0  0  0
 17 10  1  0  0  0  0
 17 18  1  0  0  0  0
 19  9  1  0  0  0  0
 20 19  1  0  0  0  0
 22 21  1  0  0  0  0
 23 22  1  0  0  0  0
 24 25  1  0  0  0  0
 24 29  1  0  0  0  0
 25 23  1  0  0  0  0
 26 24  2  0  0  0  0
 27 25  1  0  0  0  0
 28 27  1  0  0  0  0
 31 30  1  0  0  0  0
 31 29  1  0  0  0  0
 31 32  1  0  0  0  0
 33 32  1  0  0  0  0
M  END
>  <MODEL>
3

>  <REMARK>
 VINA RESULT:      -6.8      2.285      5.951
  Name = 
  10 active torsions:
  status: ('A' for Active; 'I' for Inactive)
    1  A    between atoms: N_1  and  C_7
    2  A    between atoms: C_5  and  N_15
    3  A    between atoms: C_5  and  C_28
    4  A    between atoms: C_8  and  C_9
    5  A    between atoms: C_13  and  N_32
    6  A    between atoms: N_15  and  C_27
    7  A    between atoms: C_17  and  C_26
    8  A    between atoms: C_18  and  N_22
    9  A    between atoms: N_22  and  C_27
   10  A    between atoms: C_26  and  N_32
                            x       y       z     vdW  Elec       q    Type
                         _______ _______ _______ _____ _____    ______ ____

>  <TORSDO>
F 10

$$$$
=
 OpenBabel11042409483D

 33 35  0  0  1  0  0  0  0  0999 V2000
  186.7160  178.0420  144.5770 N   0  0  0  0  0  0  0  0  0  0  0  0
  185.1490  178.3610  146.0890 C   0  0  0  0  0  2  0  0  0  0  0  0
  186.3960  177.5650  145.9330 C   0  0  0  0  0  2  0  0  0  0  0  0
  185.4890  178.8440  144.7240 C   0  0  2  0  0  3  0  0  0  0  0  0
  190.9330  177.3080  140.7860 C   0  0  0  0  0  2  0  0  0  0  0  0
  188.2520  177.2950  138.9100 C   0  0  0  0  0  2  0  0  0  0  0  0
  190.0190  177.1380  143.1000 C   0  0  0  0  0  3  0  0  0  0  0  0
  187.7660  177.8590  143.6260 C   0  0  0  0  0  0  0  0  0  0  0  0
  189.3410  176.7380  138.0900 C   0  0  0  0  0  0  0  0  0  0  0  0
  190.6760  176.0990  140.0210 N   0  0  0  0  0  2  0  0  0  0  0  0
  189.8370  177.5250  141.7670 C   0  0  0  0  0  0  0  0  0  0  0  0
  187.5840  178.2410  142.2940 C   0  0  0  0  0  3  0  0  0  0  0  0
  188.3610  178.5060  139.8470 C   0  0  0  0  0  2  0  0  0  0  0  0
  188.6120  178.0770  141.3610 C   0  0  0  0  0  0  0  0  0  0  0  0
  188.9870  177.3080  144.0280 C   0  0  0  0  0  3  0  0  0  0  0  0
  188.1580  178.5830  139.0360 N   0  0  0  0  0  2  0  0  0  0  0  0
  190.4260  176.1320  138.6130 C   0  0  0  0  0  0  0  0  0  0  0  0
  191.3350  175.4380  137.7580 N   0  0  0  0  0  1  0  0  0  0  0  0
  189.0990  176.6900  136.6140 C   0  0  0  0  0  2  0  0  0  0  0  0
  187.3560  176.3020  136.2740 S   0  0  0  0  0  1  0  0  0  0  0  0
  184.4240  178.3860  143.7360 C   0  0  0  0  0  2  0  0  0  0  0  0
  183.3690  179.3780  143.6480 N   0  0  0  0  0  2  0  0  0  0  0  0
  182.1150  178.6520  143.5710 C   0  0  0  0  0  2  0  0  0  0  0  0
  181.4180  179.0930  141.1940 C   0  0  0  0  0  0  0  0  0  0  0  0
  181.2350  179.2950  142.6060 N   0  0  0  0  0  0  0  0  0  0  0  0
  180.6310  179.6330  140.3710 O   0  0  0  0  0  0  0  0  0  0  0  0
  180.0860  180.0370  143.1130 C   0  0  0  0  0  2  0  0  0  0  0  0
  179.2650  179.1700  144.0510 C   0  0  0  0  0  1  0  0  0  0  0  0
  182.5740  178.2700  140.6770 C   0  0  0  0  0  2  0  0  0  0  0  0
  183.4620  177.2920  138.6800 C   0  0  0  0  0  1  0  0  0  0  0  0
  182.9070  178.5020  139.2640 N   0  0  0  0  0  0  0  0  0  0  0  0
  183.8940  179.5660  139.1310 C   0  0  0  0  0  2  0  0  0  0  0  0
  184.8540  179.4810  140.2190 N   0  0  0  0  0  1  0  0  0  0  0  0
  1  4  1  0  0  0  0
  1  3  1  0  0  0  0
  3  2  1  0  0  0  0
  4 21  1  6  0  0  0
  4  2  1  0  0  0  0
  5 11  1  0  0  0  0
  6 16  1  0  0  0  0
  7 15  1  0  0  0  0
  8 15  2  0  0  0  0
  8  1  1  0  0  0  0
  9 17  2  0  0  0  0
  9  6  1  0  0  0  0
 10  5  1  0  0  0  0
 11  7  2  0  0  0  0
 12  8  1  0  0  0  0
 13 14  1  0  0  0  0
 14 11  1  0  0  0  0
 14 12  2  0  0  0  0
 16 13  1  0  0  0  0
 17 10  1  0  0  0  0
 18 17  1  0  0  0  0
 19  9  1  0  0  0  0
 20 19  1  0  0  0  0
 22 21  1  0  0  0  0
 23 22  1  0  0  0  0
 24 25  1  0  0  0  0
 25 27  1  0  0  0  0
 25 23  1  0  0  0  0
 26 24  2  0  0  0  0
 27 28  1  0  0  0  0
 29 24  1  0  0  0  0
 30 31  1  0  0  0  0
 31 29  1  0  0  0  0
 32 31  1  0  0  0  0
 32 33  1  0  0  0  0
M  END
>  <MODEL>
4

>  <REMARK>
 VINA RESULT:      -6.7      2.662      6.518
  Name = 
  10 active torsions:
  status: ('A' for Active; 'I' for Inactive)
    1  A    between atoms: N_1  and  C_7
    2  A    between atoms: C_5  and  N_15
    3  A    between atoms: C_5  and  C_28
    4  A    between atoms: C_8  and  C_9
    5  A    between atoms: C_13  and  N_32
    6  A    between atoms: N_15  and  C_27
    7  A    between atoms: C_17  and  C_26
    8  A    between atoms: C_18  and  N_22
    9  A    between atoms: N_22  and  C_27
   10  A    between atoms: C_26  and  N_32
                            x       y       z     vdW  Elec       q    Type
                         _______ _______ _______ _____ _____    ______ ____

>  <TORSDO>
F 10

$$$$
=
 OpenBabel11042409483D

 33 35  0  0  1  0  0  0  0  0999 V2000
  185.0430  178.7050  143.3210 N   0  0  0  0  0  0  0  0  0  0  0  0
  183.8740  178.8860  145.1760 C   0  0  0  0  0  2  0  0  0  0  0  0
  183.8480  179.4250  143.7890 C   0  0  0  0  0  2  0  0  0  0  0  0
  185.0740  178.1550  144.6870 C   0  0  2  0  0  3  0  0  0  0  0  0
  187.9440  178.1420  138.4260 C   0  0  0  0  0  2  0  0  0  0  0  0
  184.9850  176.9710  137.6620 C   0  0  0  0  0  2  0  0  0  0  0  0
  187.8640  178.3320  140.9100 C   0  0  0  0  0  3  0  0  0  0  0  0
  185.7640  178.5630  142.0950 C   0  0  0  0  0  0  0  0  0  0  0  0
  185.9010  176.5230  136.5990 C   0  0  0  0  0  0  0  0  0  0  0  0
  187.8800  176.7540  137.9950 N   0  0  0  0  0  2  0  0  0  0  0  0
  187.1800  178.3110  139.6900 C   0  0  0  0  0  0  0  0  0  0  0  0
  185.0800  178.5370  140.8760 C   0  0  0  0  0  3  0  0  0  0  0  0
  184.9660  178.3650  138.3030 C   0  0  0  0  0  2  0  0  0  0  0  0
  185.7800  178.4110  139.6720 C   0  0  0  0  0  0  0  0  0  0  0  0
  187.1580  178.4620  142.1100 C   0  0  0  0  0  3  0  0  0  0  0  0
  184.5170  178.1810  137.6170 N   0  0  0  0  0  2  0  0  0  0  0  0
  187.2280  176.3660  136.7830 C   0  0  0  0  0  0  0  0  0  0  0  0
  188.0160  175.7360  135.7730 N   0  0  0  0  0  1  0  0  0  0  0  0
  185.2620  176.0440  135.3330 C   0  0  0  0  0  2  0  0  0  0  0  0
  183.8420  174.9730  135.7110 S   0  0  0  0  0  1  0  0  0  0  0  0
  186.3090  178.6380  145.4350 C   0  0  0  0  0  2  0  0  0  0  0  0
  187.1040  177.5030  145.8650 N   0  0  0  0  0  2  0  0  0  0  0  0
  188.3610  177.5740  145.1440 C   0  0  0  0  0  2  0  0  0  0  0  0
  190.8250  177.4680  145.6480 C   0  0  0  0  0  0  0  0  0  0  0  0
  189.4600  177.2420  146.0410 N   0  0  0  0  0  0  0  0  0  0  0  0
  191.7640  177.2030  146.4460 O   0  0  0  0  0  0  0  0  0  0  0  0
  189.1330  176.8020  147.3930 C   0  0  0  0  0  2  0  0  0  0  0  0
  189.1520  177.9790  148.3530 C   0  0  0  0  0  1  0  0  0  0  0  0
  191.1540  177.9840  144.2670 C   0  0  0  0  0  2  0  0  0  0  0  0
  191.7090  177.4420  142.0020 C   0  0  0  0  0  1  0  0  0  0  0  0
  191.7980  177.0000  143.3840 N   0  0  0  0  0  0  0  0  0  0  0  0
  191.1460  175.7010  143.4910 C   0  0  0  0  0  2  0  0  0  0  0  0
  190.0190  175.6430  142.5750 N   0  0  0  0  0  1  0  0  0  0  0  0
  1  3  1  0  0  0  0
  1  4  1  0  0  0  0
  3  2  1  0  0  0  0
  4  2  1  0  0  0  0
  4 21  1  1  0  0  0
  5 11  1  0  0  0  0
  7 15  1  0  0  0  0
  8 15  2  0  0  0  0
  8  1  1  0  0  0  0
  9 17  2  0  0  0  0
  9  6  1  0  0  0  0
 10  5  1  0  0  0  0
 11  7  2  0  0  0  0
 12  8  1  0  0  0  0
 13 14  1  0  0  0  0
 14 11  1  0  0  0  0
 14 12  2  0  0  0  0
 16  6  1  0  0  0  0
 16 13  1  0  0  0  0
 17 10  1  0  0  0  0
 18 17  1  0  0  0  0
 19 20  1  0  0  0  0
 19  9  1  0  0  0  0
 21 22  1  0  0  0  0
 23 22  1  0  0  0  0
 23 25  1  0  0  0  0
 24 25  1  0  0  0  0
 24 26  2  0  0  0  0
 25 27  1  0  0  0  0
 27 28  1  0  0  0  0
 29 24  1  0  0  0  0
 30 31  1  0  0  0  0
 31 32  1  0  0  0  0
 31 29  1  0  0  0  0
 33 32  1  0  0  0  0
M  END
>  <MODEL>
5

>  <REMARK>
 VINA RESULT:      -6.6      3.356      8.520
  Name = 
  10 active torsions:
  status: ('A' for Active; 'I' for Inactive)
    1  A    between atoms: N_1  and  C_7
    2  A    between atoms: C_5  and  N_15
    3  A    between atoms: C_5  and  C_28
    4  A    between atoms: C_8  and  C_9
    5  A    between atoms: C_13  and  N_32
    6  A    between atoms: N_15  and  C_27
    7  A    between atoms: C_17  and  C_26
    8  A    between atoms: C_18  and  N_22
    9  A    between atoms: N_22  and  C_27
   10  A    between atoms: C_26  and  N_32
                            x       y       z     vdW  Elec       q    Type
                         _______ _______ _______ _____ _____    ______ ____

>  <TORSDO>
F 10

$$$$
=
 OpenBabel11042409483D

 33 35  0  0  1  0  0  0  0  0999 V2000
  190.3250  177.3260  140.7480 N   0  0  0  0  0  0  0  0  0  0  0  0
  191.6740  177.4990  142.4780 C   0  0  0  0  0  2  0  0  0  0  0  0
  191.7660  177.5040  140.9930 C   0  0  0  0  0  2  0  0  0  0  0  0
  190.2190  177.3310  142.2180 C   0  0  2  0  0  3  0  0  0  0  0  0
  186.8720  177.0650  136.1990 C   0  0  0  0  0  2  0  0  0  0  0  0
  184.8040  177.7130  138.6510 C   0  0  0  0  0  2  0  0  0  0  0  0
  188.9900  176.4720  137.3730 C   0  0  0  0  0  3  0  0  0  0  0  0
  189.4590  177.2630  139.6140 C   0  0  0  0  0  0  0  0  0  0  0  0
  183.9820  177.2530  137.5190 C   0  0  0  0  0  0  0  0  0  0  0  0
  185.8290  176.0830  136.4520 N   0  0  0  0  0  2  0  0  0  0  0  0
  187.7710  177.1590  137.3790 C   0  0  0  0  0  0  0  0  0  0  0  0
  188.2380  177.9450  139.6220 C   0  0  0  0  0  3  0  0  0  0  0  0
  186.0000  178.6710  138.5640 C   0  0  0  0  0  2  0  0  0  0  0  0
  187.3910  177.8970  138.5110 C   0  0  0  0  0  0  0  0  0  0  0  0
  189.8340  176.5270  138.4860 C   0  0  0  0  0  3  0  0  0  0  0  0
  185.2120  178.9440  138.6710 N   0  0  0  0  0  2  0  0  0  0  0  0
  184.4500  176.4490  136.5420 C   0  0  0  0  0  0  0  0  0  0  0  0
  183.5450  175.8820  135.5940 N   0  0  0  0  0  1  0  0  0  0  0  0
  182.5180  177.5550  137.5990 C   0  0  0  0  0  2  0  0  0  0  0  0
  181.8920  177.1940  139.2670 S   0  0  0  0  0  1  0  0  0  0  0  0
  189.7590  175.9730  142.7300 C   0  0  0  0  0  2  0  0  0  0  0  0
  188.3960  176.0620  143.2180 N   0  0  0  0  0  2  0  0  0  0  0  0
  188.0620  177.4730  143.2750 C   0  0  0  0  0  2  0  0  0  0  0  0
  187.5490  177.9000  145.7020 C   0  0  0  0  0  0  0  0  0  0  0  0
  187.1050  177.7060  144.3470 N   0  0  0  0  0  0  0  0  0  0  0  0
  186.7120  178.1300  146.6150 O   0  0  0  0  0  0  0  0  0  0  0  0
  185.7000  177.8720  143.9900 C   0  0  0  0  0  2  0  0  0  0  0  0
  185.5690  178.3330  142.5500 C   0  0  0  0  0  1  0  0  0  0  0  0
  189.0140  177.7900  146.0550 C   0  0  0  0  0  2  0  0  0  0  0  0
  189.3960  178.2200  148.3790 C   0  0  0  0  0  1  0  0  0  0  0  0
  189.2830  177.1830  147.3670 N   0  0  0  0  0  0  0  0  0  0  0  0
  190.5310  176.4290  147.3440 C   0  0  0  0  0  2  0  0  0  0  0  0
  191.2900  176.7770  146.1550 N   0  0  0  0  0  1  0  0  0  0  0  0
  1  3  1  0  0  0  0
  1  4  1  0  0  0  0
  3  2  1  0  0  0  0
  4  2  1  0  0  0  0
  4 21  1  1  0  0  0
  5 10  1  0  0  0  0
  5 11  1  0  0  0  0
  6 16  1  0  0  0  0
  7 11  2  0  0  0  0
  7 15  1  0  0  0  0
  8 12  1  0  0  0  0
  8  1  1  0  0  0  0
  9 19  1  0  0  0  0
  9  6  1  0  0  0  0
 10 17  1  0  0  0  0
 11 14  1  0  0  0  0
 13 16  1  0  0  0  0
 14 13  1  0  0  0  0
 14 12  2  0  0  0  0
 15  8  2  0  0  0  0
 17  9  2  0  0  0  0
 18 17  1  0  0  0  0
 19 20  1  0  0  0  0
 21 22  1  0  0  0  0
 22 23  1  0  0  0  0
 23 25  1  0  0  0  0
 24 29  1  0  0  0  0
 24 26  2  0  0  0  0
 25 24  1  0  0  0  0
 27 25  1  0  0  0  0
 28 27  1  0  0  0  0
 29 31  1  0  0  0  0
 31 30  1  0  0  0  0
 32 31  1  0  0  0  0
 33 32  1  0  0  0  0
M  END
>  <MODEL>
6

>  <REMARK>
 VINA RESULT:      -6.5      2.622      7.349
  Name = 
  10 active torsions:
  status: ('A' for Active; 'I' for Inactive)
    1  A    between atoms: N_1  and  C_7
    2  A    between atoms: C_5  and  N_15
    3  A    between atoms: C_5  and  C_28
    4  A    between atoms: C_8  and  C_9
    5  A    between atoms: C_13  and  N_32
    6  A    between atoms: N_15  and  C_27
    7  A    between atoms: C_17  and  C_26
    8  A    between atoms: C_18  and  N_22
    9  A    between atoms: N_22  and  C_27
   10  A    between atoms: C_26  and  N_32
                            x       y       z     vdW  Elec       q    Type
                         _______ _______ _______ _____ _____    ______ ____

>  <TORSDO>
F 10

$$$$
=
 OpenBabel11042409483D

 33 35  0  0  1  0  0  0  0  0999 V2000
  181.9520  178.0310  140.6510 N   0  0  0  0  0  0  0  0  0  0  0  0
  180.6200  177.6180  138.9490 C   0  0  0  0  0  2  0  0  0  0  0  0
  180.5100  177.8550  140.4140 C   0  0  0  0  0  2  0  0  0  0  0  0
  182.0730  177.8100  139.1990 C   0  0  2  0  0  3  0  0  0  0  0  0
  185.3210  179.3020  145.0920 C   0  0  0  0  0  2  0  0  0  0  0  0
  187.1780  177.2700  143.3230 C   0  0  0  0  0  2  0  0  0  0  0  0
  183.0660  179.0740  144.0540 C   0  0  0  0  0  3  0  0  0  0  0  0
  182.7980  178.3460  141.7580 C   0  0  0  0  0  0  0  0  0  0  0  0
  187.7960  177.3490  144.6570 C   0  0  0  0  0  0  0  0  0  0  0  0
  185.7380  178.0680  145.7380 N   0  0  0  0  0  2  0  0  0  0  0  0
  184.4570  178.9910  143.9230 C   0  0  0  0  0  0  0  0  0  0  0  0
  184.1870  178.2590  141.6300 C   0  0  0  0  0  3  0  0  0  0  0  0
  186.5990  178.4480  142.5290 C   0  0  0  0  0  2  0  0  0  0  0  0
  185.0210  178.5780  142.7060 C   0  0  0  0  0  0  0  0  0  0  0  0
  182.2380  178.7560  142.9730 C   0  0  0  0  0  3  0  0  0  0  0  0
  187.4050  178.2200  142.4690 N   0  0  0  0  0  2  0  0  0  0  0  0
  187.1080  177.6570  145.7750 C   0  0  0  0  0  0  0  0  0  0  0  0
  187.7270  177.5150  147.0540 N   0  0  0  0  0  1  0  0  0  0  0  0
  189.2100  176.8670  144.7610 C   0  0  0  0  0  2  0  0  0  0  0  0
  190.3650  178.2470  144.4990 S   0  0  0  0  0  1  0  0  0  0  0  0
  182.8190  176.5140  138.9120 C   0  0  0  0  0  2  0  0  0  0  0  0
  184.1020  176.8040  138.3010 N   0  0  0  0  0  2  0  0  0  0  0  0
  184.1510  176.0640  137.0540 C   0  0  0  0  0  2  0  0  0  0  0  0
  186.5390  175.2840  136.8980 C   0  0  0  0  0  0  0  0  0  0  0  0
  185.1500  175.0080  137.1500 N   0  0  0  0  0  0  0  0  0  0  0  0
  187.3960  174.3670  137.0120 O   0  0  0  0  0  0  0  0  0  0  0  0
  184.7230  173.7010  137.6370 C   0  0  0  0  0  2  0  0  0  0  0  0
  184.0450  172.9170  136.5270 C   0  0  0  0  0  1  0  0  0  0  0  0
  186.9840  176.6570  136.4540 C   0  0  0  0  0  2  0  0  0  0  0  0
  187.6200  177.7200  138.5030 C   0  0  0  0  0  1  0  0  0  0  0  0
  188.1020  177.2180  137.2260 N   0  0  0  0  0  0  0  0  0  0  0  0
  188.7270  178.3220  136.5080 C   0  0  0  0  0  2  0  0  0  0  0  0
  188.9950  179.4140  137.4280 N   0  0  0  0  0  1  0  0  0  0  0  0
  1  8  1  0  0  0  0
  2  4  1  0  0  0  0
  2  3  1  0  0  0  0
  3  1  1  0  0  0  0
  4 21  1  1  0  0  0
  4  1  1  0  0  0  0
  5 10  1  0  0  0  0
  6  9  1  0  0  0  0
  8 15  1  0  0  0  0
  9 19  1  0  0  0  0
  9 17  2  0  0  0  0
 10 17  1  0  0  0  0
 11  7  1  0  0  0  0
 11  5  1  0  0  0  0
 12  8  2  0  0  0  0
 12 14  1  0  0  0  0
 13 14  1  0  0  0  0
 14 11  2  0  0  0  0
 15  7  2  0  0  0  0
 16 13  1  0  0  0  0
 16  6  1  0  0  0  0
 17 18  1  0  0  0  0
 20 19  1  0  0  0  0
 22 21  1  0  0  0  0
 23 25  1  0  0  0  0
 23 22  1  0  0  0  0
 24 26  2  0  0  0  0
 24 25  1  0  0  0  0
 25 27  1  0  0  0  0
 28 27  1  0  0  0  0
 29 24  1  0  0  0  0
 29 31  1  0  0  0  0
 31 30  1  0  0  0  0
 32 31  1  0  0  0  0
 32 33  1  0  0  0  0
M  END
>  <MODEL>
7

>  <REMARK>
 VINA RESULT:      -6.5      2.482      5.856
  Name = 
  10 active torsions:
  status: ('A' for Active; 'I' for Inactive)
    1  A    between atoms: N_1  and  C_7
    2  A    between atoms: C_5  and  N_15
    3  A    between atoms: C_5  and  C_28
    4  A    between atoms: C_8  and  C_9
    5  A    between atoms: C_13  and  N_32
    6  A    between atoms: N_15  and  C_27
    7  A    between atoms: C_17  and  C_26
    8  A    between atoms: C_18  and  N_22
    9  A    between atoms: N_22  and  C_27
   10  A    between atoms: C_26  and  N_32
                            x       y       z     vdW  Elec       q    Type
                         _______ _______ _______ _____ _____    ______ ____

>  <TORSDO>
F 10

$$$$
=
 OpenBabel11042409483D

 33 35  0  0  1  0  0  0  0  0999 V2000
  185.3010  178.3180  144.4600 N   0  0  0  0  0  0  0  0  0  0  0  0
  187.1530  177.9710  145.5960 C   0  0  0  0  0  2  0  0  0  0  0  0
  185.8480  178.6610  145.7830 C   0  0  0  0  0  2  0  0  0  0  0  0
  186.5840  177.6200  144.2670 C   0  0  2  0  0  3  0  0  0  0  0  0
  180.3800  179.0970  141.6550 C   0  0  0  0  0  2  0  0  0  0  0  0
  182.6330  179.7750  139.3820 C   0  0  0  0  0  2  0  0  0  0  0  0
  181.7010  179.0040  143.7670 C   0  0  0  0  0  3  0  0  0  0  0  0
  184.0740  178.5130  143.7550 C   0  0  0  0  0  0  0  0  0  0  0  0
  181.3560  180.3090  138.8790 C   0  0  0  0  0  0  0  0  0  0  0  0
  180.3610  180.4390  141.0960 N   0  0  0  0  0  2  0  0  0  0  0  0
  181.6610  178.8690  142.3750 C   0  0  0  0  0  0  0  0  0  0  0  0
  184.0330  178.3830  142.3630 C   0  0  0  0  0  3  0  0  0  0  0  0
  182.8300  178.4230  140.0810 C   0  0  0  0  0  2  0  0  0  0  0  0
  182.8330  178.5600  141.6680 C   0  0  0  0  0  0  0  0  0  0  0  0
  182.9040  178.8230  144.4560 C   0  0  0  0  0  3  0  0  0  0  0  0
  182.8800  178.5080  139.2460 N   0  0  0  0  0  2  0  0  0  0  0  0
  180.3370  180.6710  139.6850 C   0  0  0  0  0  0  0  0  0  0  0  0
  179.2150  181.3680  139.1420 N   0  0  0  0  0  1  0  0  0  0  0  0
  181.3030  180.6320  137.4180 C   0  0  0  0  0  2  0  0  0  0  0  0
  180.6520  179.2140  136.4840 S   0  0  0  0  0  1  0  0  0  0  0  0
  187.4000  178.2870  143.1680 C   0  0  0  0  0  2  0  0  0  0  0  0
  187.8020  177.3020  142.1820 N   0  0  0  0  0  2  0  0  0  0  0  0
  188.7520  177.9540  141.2990 C   0  0  0  0  0  2  0  0  0  0  0  0
  190.0420  176.7830  139.4830 C   0  0  0  0  0  0  0  0  0  0  0  0
  189.7660  176.9980  140.8780 N   0  0  0  0  0  0  0  0  0  0  0  0
  190.9420  175.9730  139.1340 O   0  0  0  0  0  0  0  0  0  0  0  0
  190.5850  176.3670  141.9080 C   0  0  0  0  0  2  0  0  0  0  0  0
  191.6190  177.3440  142.4370 C   0  0  0  0  0  1  0  0  0  0  0  0
  189.2320  177.4880  138.4200 C   0  0  0  0  0  2  0  0  0  0  0  0
  188.2000  175.8370  137.0270 C   0  0  0  0  0  1  0  0  0  0  0  0
  187.9680  176.8210  138.0710 N   0  0  0  0  0  0  0  0  0  0  0  0
  186.9910  177.7860  137.5800 C   0  0  0  0  0  2  0  0  0  0  0  0
  186.3800  178.4760  138.7030 N   0  0  0  0  0  1  0  0  0  0  0  0
  1  3  1  0  0  0  0
  2  3  1  0  0  0  0
  4 21  1  6  0  0  0
  4  1  1  0  0  0  0
  4  2  1  0  0  0  0
  5 11  1  0  0  0  0
  7 15  1  0  0  0  0
  8 15  2  0  0  0  0
  8  1  1  0  0  0  0
  9  6  1  0  0  0  0
  9 17  2  0  0  0  0
 10  5  1  0  0  0  0
 11  7  2  0  0  0  0
 12  8  1  0  0  0  0
 13 14  1  0  0  0  0
 14 12  2  0  0  0  0
 14 11  1  0  0  0  0
 16  6  1  0  0  0  0
 16 13  1  0  0  0  0
 17 10  1  0  0  0  0
 18 17  1  0  0  0  0
 19  9  1  0  0  0  0
 20 19  1  0  0  0  0
 22 21  1  0  0  0  0
 23 22  1  0  0  0  0
 24 25  1  0  0  0  0
 25 23  1  0  0  0  0
 25 27  1  0  0  0  0
 26 24  2  0  0  0  0
 27 28  1  0  0  0  0
 29 24  1  0  0  0  0
 30 31  1  0  0  0  0
 31 29  1  0  0  0  0
 32 31  1  0  0  0  0
 32 33  1  0  0  0  0
M  END
>  <MODEL>
8

>  <REMARK>
 VINA RESULT:      -6.5      3.161      8.015
  Name = 
  10 active torsions:
  status: ('A' for Active; 'I' for Inactive)
    1  A    between atoms: N_1  and  C_7
    2  A    between atoms: C_5  and  N_15
    3  A    between atoms: C_5  and  C_28
    4  A    between atoms: C_8  and  C_9
    5  A    between atoms: C_13  and  N_32
    6  A    between atoms: N_15  and  C_27
    7  A    between atoms: C_17  and  C_26
    8  A    between atoms: C_18  and  N_22
    9  A    between atoms: N_22  and  C_27
   10  A    between atoms: C_26  and  N_32
                            x       y       z     vdW  Elec       q    Type
                         _______ _______ _______ _____ _____    ______ ____

>  <TORSDO>
F 10

$$$$
=
 OpenBabel11042409483D

 33 35  0  0  1  0  0  0  0  0999 V2000
  191.0890  176.5750  139.1360 N   0  0  0  0  0  0  0  0  0  0  0  0
  192.1200  175.8730  137.3230 C   0  0  0  0  0  2  0  0  0  0  0  0
  192.4390  176.6450  138.5540 C   0  0  0  0  0  2  0  0  0  0  0  0
  190.7620  175.7990  137.9270 C   0  0  2  0  0  3  0  0  0  0  0  0
  188.5040  178.2740  143.9450 C   0  0  0  0  0  2  0  0  0  0  0  0
  191.2990  176.9710  145.0380 C   0  0  0  0  0  2  0  0  0  0  0  0
  188.4290  177.5580  141.5580 C   0  0  0  0  0  3  0  0  0  0  0  0
  190.4470  176.9980  140.3400 C   0  0  0  0  0  0  0  0  0  0  0  0
  190.4060  177.0870  146.2030 C   0  0  0  0  0  0  0  0  0  0  0  0
  188.3880  177.1380  144.8460 N   0  0  0  0  0  2  0  0  0  0  0  0
  189.1900  177.8550  142.6930 C   0  0  0  0  0  0  0  0  0  0  0  0
  191.2060  177.2910  141.4770 C   0  0  0  0  0  3  0  0  0  0  0  0
  191.4820  178.0230  143.9360 C   0  0  0  0  0  2  0  0  0  0  0  0
  190.5860  177.7180  142.6550 C   0  0  0  0  0  0  0  0  0  0  0  0
  189.0560  177.1340  140.3820 C   0  0  0  0  0  3  0  0  0  0  0  0
  191.9460  178.0210  144.6360 N   0  0  0  0  0  2  0  0  0  0  0  0
  189.0610  177.1010  146.1070 C   0  0  0  0  0  0  0  0  0  0  0  0
  188.2630  177.0090  147.2870 N   0  0  0  0  0  1  0  0  0  0  0  0
  191.0570  176.9860  147.5480 C   0  0  0  0  0  2  0  0  0  0  0  0
  192.2760  175.6380  147.5570 S   0  0  0  0  0  1  0  0  0  0  0  0
  189.7690  176.5540  137.0530 C   0  0  0  0  0  2  0  0  0  0  0  0
  188.7340  175.6520  136.5860 N   0  0  0  0  0  2  0  0  0  0  0  0
  187.5630  175.8940  137.4070 C   0  0  0  0  0  2  0  0  0  0  0  0
  185.2050  176.0190  136.5370 C   0  0  0  0  0  0  0  0  0  0  0  0
  186.3990  175.2630  136.8000 N   0  0  0  0  0  0  0  0  0  0  0  0
  184.2160  175.4670  135.9850 O   0  0  0  0  0  0  0  0  0  0  0  0
  186.5260  173.8820  136.3460 C   0  0  0  0  0  2  0  0  0  0  0  0
  186.1770  172.9210  137.4690 C   0  0  0  0  0  1  0  0  0  0  0  0
  185.1030  177.4680  136.9530 C   0  0  0  0  0  2  0  0  0  0  0  0
  183.1860  178.3300  138.1000 C   0  0  0  0  0  1  0  0  0  0  0  0
  184.4790  177.6850  138.2660 N   0  0  0  0  0  0  0  0  0  0  0  0
  185.3120  178.5410  139.1020 C   0  0  0  0  0  2  0  0  0  0  0  0
  184.6110  179.7830  139.3810 N   0  0  0  0  0  1  0  0  0  0  0  0
  1  8  1  0  0  0  0
  2  4  1  0  0  0  0
  2  3  1  0  0  0  0
  3  1  1  0  0  0  0
  4 21  1  6  0  0  0
  4  1  1  0  0  0  0
  5 10  1  0  0  0  0
  6  9  1  0  0  0  0
  7 11  1  0  0  0  0
  8 15  1  0  0  0  0
  8 12  2  0  0  0  0
  9 19  1  0  0  0  0
 10 17  1  0  0  0  0
 11  5  1  0  0  0  0
 12 14  1  0  0  0  0
 13 16  1  0  0  0  0
 14 11  2  0  0  0  0
 14 13  1  0  0  0  0
 15  7  2  0  0  0  0
 16  6  1  0  0  0  0
 17  9  2  0  0  0  0
 17 18  1  0  0  0  0
 19 20  1  0  0  0  0
 22 21  1  0  0  0  0
 22 23  1  0  0  0  0
 24 25  1  0  0  0  0
 24 29  1  0  0  0  0
 25 23  1  0  0  0  0
 26 24  2  0  0  0  0
 27 25  1  0  0  0  0
 27 28  1  0  0  0  0
 29 31  1  0  0  0  0
 30 31  1  0  0  0  0
 31 32  1  0  0  0  0
 32 33  1  0  0  0  0
M  END
>  <MODEL>
9

>  <REMARK>
 VINA RESULT:      -6.4      2.298      3.134
  Name = 
  10 active torsions:
  status: ('A' for Active; 'I' for Inactive)
    1  A    between atoms: N_1  and  C_7
    2  A    between atoms: C_5  and  N_15
    3  A    between atoms: C_5  and  C_28
    4  A    between atoms: C_8  and  C_9
    5  A    between atoms: C_13  and  N_32
    6  A    between atoms: N_15  and  C_27
    7  A    between atoms: C_17  and  C_26
    8  A    between atoms: C_18  and  N_22
    9  A    between atoms: N_22  and  C_27
   10  A    between atoms: C_26  and  N_32
                            x       y       z     vdW  Elec       q    Type
                         _______ _______ _______ _____ _____    ______ ____

>  <TORSDO>
F 10

$$$$
