=
 OpenBabel11042412243D

 60 64  0  0  1  0  0  0  0  0999 V2000
  188.9650  177.5230  142.5450 N   0  0  0  0  0  0  0  0  0  0  0  0
  188.3570  177.5400  140.1840 C   0  0  0  0  0  2  0  0  0  0  0  0
  185.6580  178.6600  142.2700 C   0  0  0  0  0  3  0  0  0  0  0  0
  186.1230  178.6310  140.9610 C   0  0  0  0  0  0  0  0  0  0  0  0
  189.3990  177.0330  141.2200 C   0  0  1  0  0  3  0  0  0  0  0  0
  186.6960  178.4140  143.1070 N   0  0  0  0  0  0  0  0  0  0  0  0
  186.5350  178.1050  144.5010 C   0  0  0  0  0  0  0  0  0  0  0  0
  187.3580  177.3550  145.0910 O   0  0  0  0  0  0  0  0  0  0  0  0
  185.3970  178.6090  145.2070 N   0  0  0  0  0  2  0  0  0  0  0  0
  187.4720  178.3810  141.0250 C   0  0  0  0  0  0  0  0  0  0  0  0
  187.7950  178.2980  142.3230 C   0  0  0  0  0  0  0  0  0  0  0  0
  190.5310  175.4780  146.9680 C   0  0  0  0  0  2  0  0  0  0  0  0
  191.5660  178.4770  144.9170 C   0  0  0  0  0  2  0  0  0  0  0  0
  190.7800  178.6310  143.7200 C   0  0  0  0  0  2  0  0  0  0  0  0
  190.5960  176.5000  145.9140 C   0  0  1  0  0  3  0  0  0  0  0  0
  189.8580  177.6600  143.6640 C   0  0  0  0  0  0  0  0  0  0  0  0
  191.3020  176.5720  146.7320 C   0  0  0  0  0  0  0  0  0  0  0  0
  190.9880  177.3040  145.5080 C   0  0  0  0  0  2  0  0  0  0  0  0
  189.8520  176.6650  144.7720 C   0  0  0  0  0  3  0  0  0  0  0  0
  192.3380  176.9230  147.6530 O   0  0  0  0  0  0  0  0  0  0  0  0
  192.9550  175.9810  148.5180 C   0  0  0  0  0  1  0  0  0  0  0  0
  185.3270  178.6830  139.7700 C   0  0  0  0  0  0  0  0  0  0  0  0
  184.6250  178.7100  138.7890 C   0  0  0  0  0  0  0  0  0  0  0  0
  183.8030  178.7260  137.6930 O   0  0  0  0  0  0  0  0  0  0  0  0
  182.0600  176.0600  136.2270 C   0  0  0  0  0  2  0  0  0  0  0  0
  181.8930  177.7780  138.7660 C   0  0  0  0  0  3  0  0  0  0  0  0
  182.5890  178.0300  137.6480 C   0  0  0  0  0  0  0  0  0  0  0  0
  180.7620  175.5030  136.8090 C   0  0  2  0  0  3  0  0  0  0  0  0
  180.7340  175.6030  138.3410 C   0  0  1  0  0  3  0  0  0  0  0  0
  180.5850  177.0500  138.7890 C   0  0  0  0  0  2  0  0  0  0  0  0
  182.0920  177.5800  136.3090 C   0  0  0  0  0  2  0  0  0  0  0  0
  179.6510  174.8800  138.8480 O   0  0  0  0  0  1  0  0  0  0  0  0
  180.6180  174.0560  136.3590 C   0  0  0  0  0  2  0  0  0  0  0  0
  181.9660  173.3510  136.3940 C   0  0  0  0  0  2  0  0  0  0  0  0
  181.8700  172.0480  137.1160 C   0  0  0  0  0  0  0  0  0  0  0  0
  182.8630  171.2740  137.1550 O   0  0  0  0  0  0  0  0  0  0  0  0
  180.6950  171.7020  137.7740 O   0  0  0  0  0  1  0  0  0  0  0  0
  185.1780  178.3270  146.6150 C   0  0  0  0  0  2  0  0  0  0  0  0
  186.2260  179.0470  147.4430 C   0  0  0  0  0  2  0  0  0  0  0  0
  188.5120  178.4900  148.2640 C   0  0  0  0  0  1  0  0  0  0  0  0
  187.0540  178.0520  148.2290 C   0  0  0  0  0  2  0  0  0  0  0  0
  190.7540  177.4880  140.8780 N   0  0  0  0  0  2  0  0  0  0  0  0
  191.1190  177.0760  139.5240 C   0  0  0  0  0  2  0  0  0  0  0  0
  192.6290  177.1150  139.3640 C   0  0  0  0  0  2  0  0  0  0  0  0
  193.0320  176.3800  138.1230 C   0  0  0  0  0  0  0  0  0  0  0  0
  193.9590  176.8030  137.4460 O   0  0  0  0  0  0  0  0  0  0  0  0
  192.3890  175.0740  137.7510 C   0  0  0  0  0  2  0  0  0  0  0  0
  192.6260  174.7150  136.2890 C   0  0  0  0  0  2  0  0  0  0  0  0
  191.6090  175.4070  135.3880 C   0  0  0  0  0  2  0  0  0  0  0  0
  190.4080  174.6470  135.3140 O   0  0  0  0  0  0  0  0  0  0  0  0
  189.0320  173.9370  137.0310 O   0  0  0  0  0  0  0  0  0  0  0  0
  189.3380  174.8340  136.1960 C   0  0  0  0  0  0  0  0  0  0  0  0
  187.1140  178.4560  136.1230 C   0  0  0  0  0  3  0  0  0  0  0  0
  188.9420  179.5520  137.3120 N   0  0  0  0  0  1  0  0  0  0  0  0
  186.5750  177.3060  135.5430 C   0  0  0  0  0  0  0  0  0  0  0  0
  189.0740  177.2200  136.7160 N   0  0  0  0  0  0  0  0  0  0  0  0
  185.3160  177.3480  134.9560 O   0  0  0  0  0  1  0  0  0  0  0  0
  188.3800  178.3910  136.7120 C   0  0  0  0  0  0  0  0  0  0  0  0
  188.5680  176.0850  136.1560 C   0  0  0  0  0  0  0  0  0  0  0  0
  187.3030  176.1150  135.5550 C   0  0  0  0  0  3  0  0  0  0  0  0
  1 16  1  0  0  0  0
  2 10  1  0  0  0  0
  2  5  1  0  0  0  0
  3  6  1  0  0  0  0
  4 10  1  0  0  0  0
  4  3  2  0  0  0  0
  5 42  1  6  0  0  0
  5  1  1  0  0  0  0
  6  7  1  0  0  0  0
  7  8  2  0  0  0  0
  7  9  1  0  0  0  0
  9 38  1  0  0  0  0
 10 11  2  0  0  0  0
 11  1  1  0  0  0  0
 11  6  1  0  0  0  0
 13 18  1  0  0  0  0
 14 13  1  0  0  0  0
 15 17  1  6  0  0  0
 16 14  1  0  0  0  0
 16 19  2  0  0  0  0
 17 12  2  0  0  0  0
 17 20  1  0  0  0  0
 18 15  1  0  0  0  0
 19 15  1  0  0  0  0
 20 21  1  0  0  0  0
 22  4  1  0  0  0  0
 23 22  3  0  0  0  0
 24 23  1  0  0  0  0
 25 31  1  0  0  0  0
 25 28  1  0  0  0  0
 26 30  1  0  0  0  0
 27 24  1  0  0  0  0
 27 26  2  0  0  0  0
 28 33  1  1  0  0  0
 28 29  1  0  0  0  0
 29 30  1  0  0  0  0
 29 32  1  6  0  0  0
 31 27  1  0  0  0  0
 33 34  1  0  0  0  0
 34 35  1  0  0  0  0
 35 36  2  0  0  0  0
 35 37  1  0  0  0  0
 38 39  1  0  0  0  0
 39 41  1  0  0  0  0
 41 40  1  0  0  0  0
 43 42  1  0  0  0  0
 44 43  1  0  0  0  0
 45 44  1  0  0  0  0
 46 45  2  0  0  0  0
 47 45  1  0  0  0  0
 48 47  1  0  0  0  0
 49 48  1  0  0  0  0
 50 49  1  0  0  0  0
 50 52  1  0  0  0  0
 52 51  2  0  0  0  0
 53 58  1  0  0  0  0
 55 60  1  0  0  0  0
 55 53  2  0  0  0  0
 57 55  1  0  0  0  0
 58 56  2  0  0  0  0
 58 54  1  0  0  0  0
 59 52  1  0  0  0  0
 59 56  1  0  0  0  0
 60 59  2  0  0  0  0
M  END
>  <MODEL>
1

>  <REMARK>
 VINA RESULT:      -7.2      0.000      0.000
  Name = 
  21 active torsions:
  status: ('A' for Active; 'I' for Inactive)
    1  A    between atoms: C_1  and  C_32
    2  A    between atoms: C_1  and  C_58
    3  A    between atoms: O_4  and  C_51
    4  A    between atoms: N_5  and  C_15
    5  A    between atoms: N_5  and  C_31
    6  A    between atoms: C_6  and  C_12
    7  A    between atoms: N_7  and  C_42
    8  A    between atoms: O_13  and  C_37
    9  A    between atoms: O_13  and  C_38
   10  A    between atoms: C_14  and  C_59
   11  A    between atoms: C_16  and  O_39
   12  A    between atoms: C_23  and  O_39
   13  A    between atoms: C_24  and  C_33
   14  A    between atoms: C_27  and  C_41
   15  A    between atoms: N_28  and  C_56
   16  A    between atoms: C_31  and  C_58
   17  A    between atoms: C_32  and  C_44
   18  A    between atoms: C_33  and  C_41
   19  A    between atoms: C_37  and  C_53
   20  A    between atoms: C_38  and  C_44
   21  A    between atoms: C_56  and  C_59
                            x       y       z     vdW  Elec       q    Type
                         _______ _______ _______ _____ _____    ______ ____

>  <TORSDO>
F 21

$$$$
=
 OpenBabel11042412243D

 60 64  0  0  1  0  0  0  0  0999 V2000
  184.9440  178.2890  139.6620 N   0  0  0  0  0  0  0  0  0  0  0  0
  187.3070  178.2570  140.2610 C   0  0  0  0  0  2  0  0  0  0  0  0
  186.7720  177.2260  136.8640 C   0  0  0  0  0  3  0  0  0  0  0  0
  187.7380  177.6620  137.7630 C   0  0  0  0  0  0  0  0  0  0  0  0
  185.8590  178.3450  140.8200 C   0  0  1  0  0  3  0  0  0  0  0  0
  185.5480  177.5440  137.3520 N   0  0  0  0  0  0  0  0  0  0  0  0
  184.3220  177.0140  136.8230 C   0  0  0  0  0  0  0  0  0  0  0  0
  183.3230  176.8410  137.5710 O   0  0  0  0  0  0  0  0  0  0  0  0
  184.2570  176.6280  135.4470 N   0  0  0  0  0  2  0  0  0  0  0  0
  187.0710  178.2700  138.7970 C   0  0  0  0  0  0  0  0  0  0  0  0
  185.7650  178.2230  138.5050 C   0  0  0  0  0  0  0  0  0  0  0  0
  181.7460  181.9650  138.0950 C   0  0  0  0  0  2  0  0  0  0  0  0
  181.3610  178.7990  140.1190 C   0  0  0  0  0  2  0  0  0  0  0  0
  182.6070  178.0980  140.2970 C   0  0  0  0  0  2  0  0  0  0  0  0
  182.0390  180.7180  138.8140 C   0  0  1  0  0  3  0  0  0  0  0  0
  183.5940  178.7820  139.7020 C   0  0  0  0  0  0  0  0  0  0  0  0
  181.0130  181.0630  138.7980 C   0  0  0  0  0  0  0  0  0  0  0  0
  181.7660  179.9380  139.3450 C   0  0  0  0  0  2  0  0  0  0  0  0
  183.2180  180.0390  138.9980 C   0  0  0  0  0  3  0  0  0  0  0  0
  179.6040  181.2560  138.9490 O   0  0  0  0  0  0  0  0  0  0  0  0
  178.9830  182.5290  138.8500 C   0  0  0  0  0  1  0  0  0  0  0  0
  189.1450  177.3860  137.7070 C   0  0  0  0  0  0  0  0  0  0  0  0
  190.3250  177.1390  137.6990 C   0  0  0  0  0  0  0  0  0  0  0  0
  191.6640  176.8470  137.7230 O   0  0  0  0  0  0  0  0  0  0  0  0
  194.5990  175.5010  136.3540 C   0  0  0  0  0  2  0  0  0  0  0  0
  191.8350  174.5120  137.2540 C   0  0  0  0  0  3  0  0  0  0  0  0
  192.2170  175.7750  137.0120 C   0  0  0  0  0  0  0  0  0  0  0  0
  194.7120  174.0400  135.9210 C   0  0  2  0  0  3  0  0  0  0  0  0
  193.8590  173.1150  136.8000 C   0  0  1  0  0  3  0  0  0  0  0  0
  192.3750  173.3220  136.5260 C   0  0  0  0  0  2  0  0  0  0  0  0
  193.2460  176.0850  135.9710 C   0  0  0  0  0  2  0  0  0  0  0  0
  194.1660  171.7800  136.5280 O   0  0  0  0  0  1  0  0  0  0  0  0
  196.1800  173.6380  135.9770 C   0  0  0  0  0  2  0  0  0  0  0  0
  196.7030  173.7320  137.4030 C   0  0  0  0  0  2  0  0  0  0  0  0
  197.9370  174.5710  137.4660 C   0  0  0  0  0  0  0  0  0  0  0  0
  197.9910  175.6590  136.8340 O   0  0  0  0  0  0  0  0  0  0  0  0
  199.0140  174.1670  138.2470 O   0  0  0  0  0  1  0  0  0  0  0  0
  183.0470  176.0830  134.8570 C   0  0  0  0  0  2  0  0  0  0  0  0
  181.8350  176.7140  135.5160 C   0  0  0  0  0  2  0  0  0  0  0  0
  181.2260  179.1310  135.5160 C   0  0  0  0  0  1  0  0  0  0  0  0
  181.3150  177.8630  134.6770 C   0  0  0  0  0  2  0  0  0  0  0  0
  185.6700  179.5670  141.6160 N   0  0  0  0  0  2  0  0  0  0  0  0
  184.6360  179.3770  142.6310 C   0  0  0  0  0  2  0  0  0  0  0  0
  185.2810  179.1460  143.9870 C   0  0  0  0  0  2  0  0  0  0  0  0
  184.2250  178.9990  145.0380 C   0  0  0  0  0  0  0  0  0  0  0  0
  183.0930  179.4060  144.8170 O   0  0  0  0  0  0  0  0  0  0  0  0
  184.5020  178.2670  146.3200 C   0  0  0  0  0  2  0  0  0  0  0  0
  185.8380  178.6680  146.9330 C   0  0  0  0  0  2  0  0  0  0  0  0
  186.8560  177.5410  146.7990 C   0  0  0  0  0  2  0  0  0  0  0  0
  187.6700  177.4620  147.9650 O   0  0  0  0  0  0  0  0  0  0  0  0
  189.4050  178.6820  148.8850 O   0  0  0  0  0  0  0  0  0  0  0  0
  189.0030  177.8880  147.9890 C   0  0  0  0  0  0  0  0  0  0  0  0
  191.6880  176.4740  145.0130 C   0  0  0  0  0  3  0  0  0  0  0  0
  190.5260  177.8540  143.3690 N   0  0  0  0  0  1  0  0  0  0  0  0
  191.8190  176.0230  146.3270 C   0  0  0  0  0  0  0  0  0  0  0  0
  189.8340  177.8300  145.6780 N   0  0  0  0  0  0  0  0  0  0  0  0
  192.8150  175.1120  146.6540 O   0  0  0  0  0  1  0  0  0  0  0  0
  190.6770  177.3880  144.7050 C   0  0  0  0  0  0  0  0  0  0  0  0
  189.9430  177.4040  146.9690 C   0  0  0  0  0  0  0  0  0  0  0  0
  190.9470  176.4900  147.3120 C   0  0  0  0  0  3  0  0  0  0  0  0
  1 16  1  0  0  0  0
  1  5  1  0  0  0  0
  2  5  1  0  0  0  0
  3  6  1  0  0  0  0
  3  4  2  0  0  0  0
  4 10  1  0  0  0  0
  5 42  1  6  0  0  0
  6 11  1  0  0  0  0
  7  6  1  0  0  0  0
  7  8  2  0  0  0  0
  9  7  1  0  0  0  0
 10  2  1  0  0  0  0
 11 10  2  0  0  0  0
 11  1  1  0  0  0  0
 12 17  2  0  0  0  0
 13 14  1  0  0  0  0
 15 17  1  6  0  0  0
 15 19  1  0  0  0  0
 15 18  1  0  0  0  0
 16 14  1  0  0  0  0
 17 20  1  0  0  0  0
 18 13  1  0  0  0  0
 19 16  2  0  0  0  0
 21 20  1  0  0  0  0
 22  4  1  0  0  0  0
 23 22  3  0  0  0  0
 23 24  1  0  0  0  0
 27 26  2  0  0  0  0
 27 24  1  0  0  0  0
 28 33  1  1  0  0  0
 28 25  1  0  0  0  0
 28 29  1  0  0  0  0
 29 32  1  6  0  0  0
 30 29  1  0  0  0  0
 30 26  1  0  0  0  0
 31 25  1  0  0  0  0
 31 27  1  0  0  0  0
 33 34  1  0  0  0  0
 34 35  1  0  0  0  0
 35 37  1  0  0  0  0
 36 35  2  0  0  0  0
 38  9  1  0  0  0  0
 38 39  1  0  0  0  0
 41 39  1  0  0  0  0
 41 40  1  0  0  0  0
 42 43  1  0  0  0  0
 43 44  1  0  0  0  0
 44 45  1  0  0  0  0
 45 47  1  0  0  0  0
 46 45  2  0  0  0  0
 47 48  1  0  0  0  0
 49 48  1  0  0  0  0
 49 50  1  0  0  0  0
 50 52  1  0  0  0  0
 52 51  2  0  0  0  0
 53 55  1  0  0  0  0
 54 58  1  0  0  0  0
 55 57  1  0  0  0  0
 55 60  2  0  0  0  0
 56 59  2  0  0  0  0
 58 53  2  0  0  0  0
 58 56  1  0  0  0  0
 59 60  1  0  0  0  0
 59 52  1  0  0  0  0
M  END
>  <MODEL>
2

>  <REMARK>
 VINA RESULT:      -6.9      2.726     11.388
  Name = 
  21 active torsions:
  status: ('A' for Active; 'I' for Inactive)
    1  A    between atoms: C_1  and  C_32
    2  A    between atoms: C_1  and  C_58
    3  A    between atoms: O_4  and  C_51
    4  A    between atoms: N_5  and  C_15
    5  A    between atoms: N_5  and  C_31
    6  A    between atoms: C_6  and  C_12
    7  A    between atoms: N_7  and  C_42
    8  A    between atoms: O_13  and  C_37
    9  A    between atoms: O_13  and  C_38
   10  A    between atoms: C_14  and  C_59
   11  A    between atoms: C_16  and  O_39
   12  A    between atoms: C_23  and  O_39
   13  A    between atoms: C_24  and  C_33
   14  A    between atoms: C_27  and  C_41
   15  A    between atoms: N_28  and  C_56
   16  A    between atoms: C_31  and  C_58
   17  A    between atoms: C_32  and  C_44
   18  A    between atoms: C_33  and  C_41
   19  A    between atoms: C_37  and  C_53
   20  A    between atoms: C_38  and  C_44
   21  A    between atoms: C_56  and  C_59
                            x       y       z     vdW  Elec       q    Type
                         _______ _______ _______ _____ _____    ______ ____

>  <TORSDO>
F 21

$$$$
=
 OpenBabel11042412243D

 60 64  0  0  1  0  0  0  0  0999 V2000
  187.6040  178.2510  140.2650 N   0  0  0  0  0  0  0  0  0  0  0  0
  188.0220  177.5500  137.9680 C   0  0  0  0  0  2  0  0  0  0  0  0
  190.7680  176.7410  140.1350 C   0  0  0  0  0  3  0  0  0  0  0  0
  190.2060  176.4730  138.8920 C   0  0  0  0  0  0  0  0  0  0  0  0
  187.1130  178.4180  138.8820 C   0  0  1  0  0  3  0  0  0  0  0  0
  189.8240  177.3060  140.9270 N   0  0  0  0  0  0  0  0  0  0  0  0
  190.1210  177.9520  142.1760 C   0  0  0  0  0  0  0  0  0  0  0  0
  189.4150  178.9120  142.5850 O   0  0  0  0  0  0  0  0  0  0  0  0
  191.2620  177.5340  142.9310 N   0  0  0  0  0  2  0  0  0  0  0  0
  188.8940  176.8710  138.9570 C   0  0  0  0  0  0  0  0  0  0  0  0
  188.6810  177.3260  140.1990 C   0  0  0  0  0  0  0  0  0  0  0  0
  186.6920  176.9860  145.1410 C   0  0  0  0  0  2  0  0  0  0  0  0
  185.2820  179.5550  142.7570 C   0  0  0  0  0  2  0  0  0  0  0  0
  185.8870  179.4940  141.4510 C   0  0  0  0  0  2  0  0  0  0  0  0
  186.4330  177.7860  143.9350 C   0  0  1  0  0  3  0  0  0  0  0  0
  186.7940  178.5070  141.4250 C   0  0  0  0  0  0  0  0  0  0  0  0
  185.8600  178.0130  144.8260 C   0  0  0  0  0  0  0  0  0  0  0  0
  185.9660  178.5030  143.4540 C   0  0  0  0  0  2  0  0  0  0  0  0
  186.9960  177.7380  142.6840 C   0  0  0  0  0  3  0  0  0  0  0  0
  184.9710  178.5360  145.8170 O   0  0  0  0  0  0  0  0  0  0  0  0
  183.5890  178.7550  145.5770 C   0  0  0  0  0  1  0  0  0  0  0  0
  190.8990  176.0260  137.7190 C   0  0  0  0  0  0  0  0  0  0  0  0
  191.5180  175.6630  136.7500 C   0  0  0  0  0  0  0  0  0  0  0  0
  192.2500  175.2610  135.6630 O   0  0  0  0  0  0  0  0  0  0  0  0
  195.6190  174.8930  136.5660 C   0  0  0  0  0  2  0  0  0  0  0  0
  193.1450  173.1130  136.1970 C   0  0  0  0  0  3  0  0  0  0  0  0
  193.3250  174.3690  135.7630 C   0  0  0  0  0  0  0  0  0  0  0  0
  196.2680  173.5280  136.7930 C   0  0  2  0  0  3  0  0  0  0  0  0
  195.2720  172.5100  137.3660 C   0  0  1  0  0  3  0  0  0  0  0  0
  194.2440  172.1060  136.3180 C   0  0  0  0  0  2  0  0  0  0  0  0
  194.6810  174.8630  135.3670 C   0  0  0  0  0  2  0  0  0  0  0  0
  195.9470  171.3590  137.7760 O   0  0  0  0  0  1  0  0  0  0  0  0
  197.4530  173.7130  137.7300 C   0  0  0  0  0  2  0  0  0  0  0  0
  196.9800  174.1740  139.1020 C   0  0  0  0  0  2  0  0  0  0  0  0
  197.9100  175.1910  139.6740 C   0  0  0  0  0  0  0  0  0  0  0  0
  199.1120  175.2290  139.2960 O   0  0  0  0  0  0  0  0  0  0  0  0
  197.4440  176.1180  140.6000 O   0  0  0  0  0  1  0  0  0  0  0  0
  191.6140  178.1510  144.1980 C   0  0  0  0  0  2  0  0  0  0  0  0
  190.9700  177.3780  145.3330 C   0  0  0  0  0  2  0  0  0  0  0  0
  191.8940  175.9270  147.1360 C   0  0  0  0  0  1  0  0  0  0  0  0
  191.7610  176.1210  145.6320 C   0  0  0  0  0  2  0  0  0  0  0  0
  185.7010  178.0340  138.7460 N   0  0  0  0  0  2  0  0  0  0  0  0
  185.4360  177.4670  137.4260 C   0  0  0  0  0  2  0  0  0  0  0  0
  183.9490  177.2010  137.2690 C   0  0  0  0  0  2  0  0  0  0  0  0
  183.6610  175.7490  137.4990 C   0  0  0  0  0  0  0  0  0  0  0  0
  184.4200  174.9040  137.0460 O   0  0  0  0  0  0  0  0  0  0  0  0
  182.5140  175.3130  138.3670 C   0  0  0  0  0  2  0  0  0  0  0  0
  181.3980  174.6630  137.5590 C   0  0  0  0  0  2  0  0  0  0  0  0
  180.1090  175.4700  137.6680 C   0  0  0  0  0  2  0  0  0  0  0  0
  180.2440  176.5000  138.6420 O   0  0  0  0  0  0  0  0  0  0  0  0
  179.0100  175.4020  140.2600 O   0  0  0  0  0  0  0  0  0  0  0  0
  179.6240  176.4440  139.8950 C   0  0  0  0  0  0  0  0  0  0  0  0
  179.7860  179.7830  142.5200 C   0  0  0  0  0  3  0  0  0  0  0  0
  179.5970  178.2510  144.4110 N   0  0  0  0  0  1  0  0  0  0  0  0
  179.8530  179.9890  141.1410 C   0  0  0  0  0  0  0  0  0  0  0  0
  179.6290  177.4260  142.1460 N   0  0  0  0  0  0  0  0  0  0  0  0
  179.9630  181.2780  140.6350 O   0  0  0  0  0  1  0  0  0  0  0  0
  179.6720  178.4780  143.0090 C   0  0  0  0  0  0  0  0  0  0  0  0
  179.6930  177.6030  140.7960 C   0  0  0  0  0  0  0  0  0  0  0  0
  179.8100  178.8960  140.2730 C   0  0  0  0  0  3  0  0  0  0  0  0
  1 16  1  0  0  0  0
  2  5  1  0  0  0  0
  2 10  1  0  0  0  0
  3  6  1  0  0  0  0
  4 10  1  0  0  0  0
  4  3  2  0  0  0  0
  5 42  1  1  0  0  0
  5  1  1  0  0  0  0
  6  7  1  0  0  0  0
  7  8  2  0  0  0  0
  7  9  1  0  0  0  0
  9 38  1  0  0  0  0
 10 11  2  0  0  0  0
 11  1  1  0  0  0  0
 11  6  1  0  0  0  0
 13 18  1  0  0  0  0
 14 13  1  0  0  0  0
 15 17  1  1  0  0  0
 16 14  1  0  0  0  0
 16 19  2  0  0  0  0
 17 12  2  0  0  0  0
 17 20  1  0  0  0  0
 18 15  1  0  0  0  0
 19 15  1  0  0  0  0
 21 20  1  0  0  0  0
 22  4  1  0  0  0  0
 23 22  3  0  0  0  0
 24 27  1  0  0  0  0
 24 23  1  0  0  0  0
 25 28  1  0  0  0  0
 26 30  1  0  0  0  0
 27 26  2  0  0  0  0
 28 29  1  0  0  0  0
 28 33  1  1  0  0  0
 29 32  1  6  0  0  0
 30 29  1  0  0  0  0
 31 27  1  0  0  0  0
 31 25  1  0  0  0  0
 33 34  1  0  0  0  0
 34 35  1  0  0  0  0
 35 37  1  0  0  0  0
 36 35  2  0  0  0  0
 38 39  1  0  0  0  0
 39 41  1  0  0  0  0
 41 40  1  0  0  0  0
 43 42  1  0  0  0  0
 44 43  1  0  0  0  0
 44 45  1  0  0  0  0
 45 47  1  0  0  0  0
 46 45  2  0  0  0  0
 48 49  1  0  0  0  0
 48 47  1  0  0  0  0
 49 50  1  0  0  0  0
 50 52  1  0  0  0  0
 52 51  2  0  0  0  0
 52 59  1  0  0  0  0
 53 58  1  0  0  0  0
 55 53  2  0  0  0  0
 56 58  2  0  0  0  0
 57 55  1  0  0  0  0
 58 54  1  0  0  0  0
 59 56  1  0  0  0  0
 60 59  2  0  0  0  0
 60 55  1  0  0  0  0
M  END
>  <MODEL>
3

>  <REMARK>
 VINA RESULT:      -6.8      2.939      9.768
  Name = 
  21 active torsions:
  status: ('A' for Active; 'I' for Inactive)
    1  A    between atoms: C_1  and  C_32
    2  A    between atoms: C_1  and  C_58
    3  A    between atoms: O_4  and  C_51
    4  A    between atoms: N_5  and  C_15
    5  A    between atoms: N_5  and  C_31
    6  A    between atoms: C_6  and  C_12
    7  A    between atoms: N_7  and  C_42
    8  A    between atoms: O_13  and  C_37
    9  A    between atoms: O_13  and  C_38
   10  A    between atoms: C_14  and  C_59
   11  A    between atoms: C_16  and  O_39
   12  A    between atoms: C_23  and  O_39
   13  A    between atoms: C_24  and  C_33
   14  A    between atoms: C_27  and  C_41
   15  A    between atoms: N_28  and  C_56
   16  A    between atoms: C_31  and  C_58
   17  A    between atoms: C_32  and  C_44
   18  A    between atoms: C_33  and  C_41
   19  A    between atoms: C_37  and  C_53
   20  A    between atoms: C_38  and  C_44
   21  A    between atoms: C_56  and  C_59
                            x       y       z     vdW  Elec       q    Type
                         _______ _______ _______ _____ _____    ______ ____

>  <TORSDO>
F 21

$$$$
=
 OpenBabel11042412243D

 60 64  0  0  1  0  0  0  0  0999 V2000
  188.4540  177.7670  142.2820 N   0  0  0  0  0  0  0  0  0  0  0  0
  187.5980  177.9180  140.0040 C   0  0  0  0  0  2  0  0  0  0  0  0
  185.1310  178.8800  142.4280 C   0  0  0  0  0  3  0  0  0  0  0  0
  185.4550  178.9350  141.0780 C   0  0  0  0  0  0  0  0  0  0  0  0
  188.7470  177.3620  140.8910 C   0  0  1  0  0  3  0  0  0  0  0  0
  186.2530  178.5970  143.1340 N   0  0  0  0  0  0  0  0  0  0  0  0
  186.2420  178.2030  144.5150 C   0  0  0  0  0  0  0  0  0  0  0  0
  187.1270  177.4290  144.9690 O   0  0  0  0  0  0  0  0  0  0  0  0
  185.1830  178.6510  145.3670 N   0  0  0  0  0  2  0  0  0  0  0  0
  186.8030  178.6970  140.9830 C   0  0  0  0  0  0  0  0  0  0  0  0
  187.2630  178.5400  142.2320 C   0  0  0  0  0  0  0  0  0  0  0  0
  190.1960  175.7490  146.6510 C   0  0  0  0  0  2  0  0  0  0  0  0
  191.3620  178.5110  144.3540 C   0  0  0  0  0  2  0  0  0  0  0  0
  190.4870  178.7040  143.2260 C   0  0  0  0  0  2  0  0  0  0  0  0
  190.2740  176.7080  145.5410 C   0  0  1  0  0  3  0  0  0  0  0  0
  189.4590  177.8470  143.3060 C   0  0  0  0  0  0  0  0  0  0  0  0
  191.0590  176.7320  146.2860 C   0  0  0  0  0  0  0  0  0  0  0  0
  190.7140  177.4410  145.0570 C   0  0  0  0  0  2  0  0  0  0  0  0
  189.4480  176.9090  144.4630 C   0  0  0  0  0  3  0  0  0  0  0  0
  192.2120  176.9990  147.0900 O   0  0  0  0  0  0  0  0  0  0  0  0
  192.6560  176.1270  148.1180 C   0  0  0  0  0  1  0  0  0  0  0  0
  184.5350  179.0500  139.9820 C   0  0  0  0  0  0  0  0  0  0  0  0
  183.7340  179.1270  139.0850 C   0  0  0  0  0  0  0  0  0  0  0  0
  182.8000  179.1990  138.0850 O   0  0  0  0  0  0  0  0  0  0  0  0
  183.2600  176.3390  136.1080 C   0  0  0  0  0  2  0  0  0  0  0  0
  181.3030  177.3460  138.2480 C   0  0  0  0  0  3  0  0  0  0  0  0
  182.1860  178.0650  137.5390 C   0  0  0  0  0  0  0  0  0  0  0  0
  182.2620  175.1830  136.0840 C   0  0  2  0  0  3  0  0  0  0  0  0
  181.5740  174.9940  137.4440 C   0  0  1  0  0  3  0  0  0  0  0  0
  180.6020  176.1330  137.7240 C   0  0  0  0  0  2  0  0  0  0  0  0
  182.5460  177.6830  136.1370 C   0  0  0  0  0  2  0  0  0  0  0  0
  180.8520  173.7980  137.4520 O   0  0  0  0  0  1  0  0  0  0  0  0
  183.0030  173.9190  135.6730 C   0  0  0  0  0  2  0  0  0  0  0  0
  184.4070  173.9090  136.2620 C   0  0  0  0  0  2  0  0  0  0  0  0
  184.5600  172.8120  137.2630 C   0  0  0  0  0  0  0  0  0  0  0  0
  183.7370  171.8570  137.2810 O   0  0  0  0  0  0  0  0  0  0  0  0
  185.6270  172.8260  138.1530 O   0  0  0  0  0  1  0  0  0  0  0  0
  185.1160  178.2830  146.7700 C   0  0  0  0  0  2  0  0  0  0  0  0
  186.2880  178.9010  147.5100 C   0  0  0  0  0  2  0  0  0  0  0  0
  188.5550  178.4370  148.4360 C   0  0  0  0  0  1  0  0  0  0  0  0
  187.2330  177.8220  147.9980 C   0  0  0  0  0  2  0  0  0  0  0  0
  190.0550  177.8510  140.4360 N   0  0  0  0  0  2  0  0  0  0  0  0
  190.7450  176.8400  139.6370 C   0  0  0  0  0  2  0  0  0  0  0  0
  189.7940  176.2680  138.5990 C   0  0  0  0  0  2  0  0  0  0  0  0
  189.9570  176.9940  137.2990 C   0  0  0  0  0  0  0  0  0  0  0  0
  189.6940  178.1860  137.2370 O   0  0  0  0  0  0  0  0  0  0  0  0
  190.5400  176.3080  136.0960 C   0  0  0  0  0  2  0  0  0  0  0  0
  190.9250  174.8630  136.3890 C   0  0  0  0  0  2  0  0  0  0  0  0
  192.2460  174.5070  135.7160 C   0  0  0  0  0  2  0  0  0  0  0  0
  193.2540  175.4520  136.0610 O   0  0  0  0  0  0  0  0  0  0  0  0
  193.8350  176.1200  138.1960 O   0  0  0  0  0  0  0  0  0  0  0  0
  194.0300  175.3430  137.2200 C   0  0  0  0  0  0  0  0  0  0  0  0
  197.0460  172.3620  137.5070 C   0  0  0  0  0  3  0  0  0  0  0  0
  195.3680  170.8070  138.3560 N   0  0  0  0  0  1  0  0  0  0  0  0
  197.3790  173.6330  137.0360 C   0  0  0  0  0  0  0  0  0  0  0  0
  194.7750  173.0660  137.7620 N   0  0  0  0  0  0  0  0  0  0  0  0
  198.6890  173.9210  136.6740 O   0  0  0  0  0  1  0  0  0  0  0  0
  195.7230  172.0950  137.8690 C   0  0  0  0  0  0  0  0  0  0  0  0
  195.0760  174.3150  137.3040 C   0  0  0  0  0  0  0  0  0  0  0  0
  196.3920  174.6150  136.9310 C   0  0  0  0  0  3  0  0  0  0  0  0
  1 16  1  0  0  0  0
  2  5  1  0  0  0  0
  2 10  1  0  0  0  0
  3  6  1  0  0  0  0
  4  3  2  0  0  0  0
  5 42  1  6  0  0  0
  5  1  1  0  0  0  0
  6  7  1  0  0  0  0
  7  8  2  0  0  0  0
  7  9  1  0  0  0  0
  9 38  1  0  0  0  0
 10  4  1  0  0  0  0
 10 11  2  0  0  0  0
 11  1  1  0  0  0  0
 11  6  1  0  0  0  0
 13 18  1  0  0  0  0
 14 16  1  0  0  0  0
 14 13  1  0  0  0  0
 15 17  1  6  0  0  0
 16 19  2  0  0  0  0
 17 12  2  0  0  0  0
 17 20  1  0  0  0  0
 18 15  1  0  0  0  0
 19 15  1  0  0  0  0
 20 21  1  0  0  0  0
 22  4  1  0  0  0  0
 23 22  3  0  0  0  0
 24 23  1  0  0  0  0
 25 31  1  0  0  0  0
 27 24  1  0  0  0  0
 27 26  2  0  0  0  0
 28 33  1  1  0  0  0
 28 25  1  0  0  0  0
 28 29  1  0  0  0  0
 29 32  1  6  0  0  0
 29 30  1  0  0  0  0
 30 26  1  0  0  0  0
 31 27  1  0  0  0  0
 33 34  1  0  0  0  0
 34 35  1  0  0  0  0
 35 36  2  0  0  0  0
 35 37  1  0  0  0  0
 38 39  1  0  0  0  0
 39 41  1  0  0  0  0
 41 40  1  0  0  0  0
 43 42  1  0  0  0  0
 44 43  1  0  0  0  0
 45 44  1  0  0  0  0
 46 45  2  0  0  0  0
 47 48  1  0  0  0  0
 47 45  1  0  0  0  0
 49 50  1  0  0  0  0
 49 48  1  0  0  0  0
 50 52  1  0  0  0  0
 52 59  1  0  0  0  0
 52 51  2  0  0  0  0
 53 58  1  0  0  0  0
 55 53  2  0  0  0  0
 56 58  2  0  0  0  0
 57 55  1  0  0  0  0
 58 54  1  0  0  0  0
 59 56  1  0  0  0  0
 60 55  1  0  0  0  0
 60 59  2  0  0  0  0
M  END
>  <MODEL>
4

>  <REMARK>
 VINA RESULT:      -6.6      2.336      4.180
  Name = 
  21 active torsions:
  status: ('A' for Active; 'I' for Inactive)
    1  A    between atoms: C_1  and  C_32
    2  A    between atoms: C_1  and  C_58
    3  A    between atoms: O_4  and  C_51
    4  A    between atoms: N_5  and  C_15
    5  A    between atoms: N_5  and  C_31
    6  A    between atoms: C_6  and  C_12
    7  A    between atoms: N_7  and  C_42
    8  A    between atoms: O_13  and  C_37
    9  A    between atoms: O_13  and  C_38
   10  A    between atoms: C_14  and  C_59
   11  A    between atoms: C_16  and  O_39
   12  A    between atoms: C_23  and  O_39
   13  A    between atoms: C_24  and  C_33
   14  A    between atoms: C_27  and  C_41
   15  A    between atoms: N_28  and  C_56
   16  A    between atoms: C_31  and  C_58
   17  A    between atoms: C_32  and  C_44
   18  A    between atoms: C_33  and  C_41
   19  A    between atoms: C_37  and  C_53
   20  A    between atoms: C_38  and  C_44
   21  A    between atoms: C_56  and  C_59
                            x       y       z     vdW  Elec       q    Type
                         _______ _______ _______ _____ _____    ______ ____

>  <TORSDO>
F 21

$$$$
=
 OpenBabel11042412243D

 60 64  0  0  1  0  0  0  0  0999 V2000
  187.6480  178.2700  140.0530 N   0  0  0  0  0  0  0  0  0  0  0  0
  188.0790  177.6620  137.7320 C   0  0  0  0  0  2  0  0  0  0  0  0
  190.7960  176.7310  139.8860 C   0  0  0  0  0  3  0  0  0  0  0  0
  190.2420  176.5220  138.6290 C   0  0  0  0  0  0  0  0  0  0  0  0
  187.1710  178.5010  138.6740 C   0  0  1  0  0  3  0  0  0  0  0  0
  189.8510  177.2730  140.6940 N   0  0  0  0  0  0  0  0  0  0  0  0
  190.1440  177.8620  141.9710 C   0  0  0  0  0  0  0  0  0  0  0  0
  189.4450  178.8120  142.4140 O   0  0  0  0  0  0  0  0  0  0  0  0
  191.2730  177.4000  142.7170 N   0  0  0  0  0  2  0  0  0  0  0  0
  188.9340  176.9320  138.6990 C   0  0  0  0  0  0  0  0  0  0  0  0
  188.7150  177.3370  139.9570 C   0  0  0  0  0  0  0  0  0  0  0  0
  186.8610  177.0180  144.9540 C   0  0  0  0  0  2  0  0  0  0  0  0
  185.2580  179.4460  142.5440 C   0  0  0  0  0  2  0  0  0  0  0  0
  185.8570  179.4080  141.2350 C   0  0  0  0  0  2  0  0  0  0  0  0
  186.5390  177.7800  143.7390 C   0  0  1  0  0  3  0  0  0  0  0  0
  186.8300  178.4870  141.2150 C   0  0  0  0  0  0  0  0  0  0  0  0
  185.9580  177.9800  144.6310 C   0  0  0  0  0  0  0  0  0  0  0  0
  186.0190  178.4560  143.2510 C   0  0  0  0  0  2  0  0  0  0  0  0
  187.0940  177.7530  142.4840 C   0  0  0  0  0  3  0  0  0  0  0  0
  185.0420  178.4550  145.6210 O   0  0  0  0  0  0  0  0  0  0  0  0
  185.2220  178.2300  147.0110 C   0  0  0  0  0  1  0  0  0  0  0  0
  190.9410  176.1170  137.4430 C   0  0  0  0  0  0  0  0  0  0  0  0
  191.5650  175.7850  136.4660 C   0  0  0  0  0  0  0  0  0  0  0  0
  192.3020  175.4150  135.3720 O   0  0  0  0  0  0  0  0  0  0  0  0
  195.5740  174.5900  136.3310 C   0  0  0  0  0  2  0  0  0  0  0  0
  192.9360  173.1410  135.7280 C   0  0  0  0  0  3  0  0  0  0  0  0
  193.2690  174.4020  135.4190 C   0  0  0  0  0  0  0  0  0  0  0  0
  196.0600  173.1470  136.4480 C   0  0  2  0  0  3  0  0  0  0  0  0
  194.9370  172.2000  136.8950 C   0  0  1  0  0  3  0  0  0  0  0  0
  193.9130  172.0090  135.7850 C   0  0  0  0  0  2  0  0  0  0  0  0
  194.6850  174.7740  135.1090 C   0  0  0  0  0  2  0  0  0  0  0  0
  195.4670  170.9470  137.2140 O   0  0  0  0  0  1  0  0  0  0  0  0
  197.2210  173.1110  137.4320 C   0  0  0  0  0  2  0  0  0  0  0  0
  196.9210  173.9860  138.6410 C   0  0  0  0  0  2  0  0  0  0  0  0
  198.0460  174.9300  138.9100 C   0  0  0  0  0  0  0  0  0  0  0  0
  199.0180  174.9950  138.1120 O   0  0  0  0  0  0  0  0  0  0  0  0
  198.0060  175.7600  140.0250 O   0  0  0  0  0  1  0  0  0  0  0  0
  191.6210  177.9590  144.0120 C   0  0  0  0  0  2  0  0  0  0  0  0
  191.4560  176.8970  145.0820 C   0  0  0  0  0  2  0  0  0  0  0  0
  190.3540  176.9080  147.3170 C   0  0  0  0  0  1  0  0  0  0  0  0
  190.1470  177.0880  145.8200 C   0  0  0  0  0  2  0  0  0  0  0  0
  185.7560  178.1400  138.5100 N   0  0  0  0  0  2  0  0  0  0  0  0
  185.5420  177.4140  137.2590 C   0  0  0  0  0  2  0  0  0  0  0  0
  184.1170  176.8880  137.2080 C   0  0  0  0  0  2  0  0  0  0  0  0
  184.1120  175.4740  136.7140 C   0  0  0  0  0  0  0  0  0  0  0  0
  184.9380  175.1210  135.8840 O   0  0  0  0  0  0  0  0  0  0  0  0
  183.1780  174.4510  137.2970 C   0  0  0  0  0  2  0  0  0  0  0  0
  182.9750  173.2620  136.3660 C   0  0  0  0  0  2  0  0  0  0  0  0
  181.6350  173.3600  135.6450 C   0  0  0  0  0  2  0  0  0  0  0  0
  180.7350  174.1900  136.3730 O   0  0  0  0  0  0  0  0  0  0  0  0
  179.4930  172.5650  137.4500 O   0  0  0  0  0  0  0  0  0  0  0  0
  179.9890  173.7260  137.4620 C   0  0  0  0  0  0  0  0  0  0  0  0
  179.4420  176.2540  140.8350 C   0  0  0  0  0  3  0  0  0  0  0  0
  179.9650  178.1760  139.4250 N   0  0  0  0  0  1  0  0  0  0  0  0
  179.2720  174.8750  140.9740 C   0  0  0  0  0  0  0  0  0  0  0  0
  179.9460  175.9430  138.5180 N   0  0  0  0  0  0  0  0  0  0  0  0
  178.9360  174.3360  142.2100 O   0  0  0  0  0  1  0  0  0  0  0  0
  179.7830  176.7740  139.5840 C   0  0  0  0  0  0  0  0  0  0  0  0
  179.7860  174.5940  138.6300 C   0  0  0  0  0  0  0  0  0  0  0  0
  179.4420  174.0390  139.8690 C   0  0  0  0  0  3  0  0  0  0  0  0
  1 16  1  0  0  0  0
  2  5  1  0  0  0  0
  2 10  1  0  0  0  0
  3  6  1  0  0  0  0
  4 10  1  0  0  0  0
  4  3  2  0  0  0  0
  5 42  1  1  0  0  0
  5  1  1  0  0  0  0
  6  7  1  0  0  0  0
  7  8  2  0  0  0  0
  7  9  1  0  0  0  0
  9 38  1  0  0  0  0
 10 11  2  0  0  0  0
 11  1  1  0  0  0  0
 11  6  1  0  0  0  0
 13 18  1  0  0  0  0
 14 13  1  0  0  0  0
 15 17  1  1  0  0  0
 16 14  1  0  0  0  0
 16 19  2  0  0  0  0
 17 12  2  0  0  0  0
 17 20  1  0  0  0  0
 18 15  1  0  0  0  0
 19 15  1  0  0  0  0
 20 21  1  0  0  0  0
 22  4  1  0  0  0  0
 23 22  3  0  0  0  0
 24 27  1  0  0  0  0
 24 23  1  0  0  0  0
 25 28  1  0  0  0  0
 26 30  1  0  0  0  0
 27 26  2  0  0  0  0
 28 29  1  0  0  0  0
 28 33  1  1  0  0  0
 29 32  1  6  0  0  0
 30 29  1  0  0  0  0
 31 27  1  0  0  0  0
 31 25  1  0  0  0  0
 33 34  1  0  0  0  0
 34 35  1  0  0  0  0
 35 37  1  0  0  0  0
 36 35  2  0  0  0  0
 38 39  1  0  0  0  0
 39 41  1  0  0  0  0
 41 40  1  0  0  0  0
 43 42  1  0  0  0  0
 44 43  1  0  0  0  0
 45 44  1  0  0  0  0
 45 47  1  0  0  0  0
 46 45  2  0  0  0  0
 48 47  1  0  0  0  0
 49 48  1  0  0  0  0
 49 50  1  0  0  0  0
 50 52  1  0  0  0  0
 51 52  2  0  0  0  0
 52 59  1  0  0  0  0
 53 55  1  0  0  0  0
 54 58  1  0  0  0  0
 55 57  1  0  0  0  0
 56 59  2  0  0  0  0
 56 58  1  0  0  0  0
 58 53  2  0  0  0  0
 59 60  1  0  0  0  0
 60 55  2  0  0  0  0
M  END
>  <MODEL>
5

>  <REMARK>
 VINA RESULT:      -6.5      2.894      9.469
  Name = 
  21 active torsions:
  status: ('A' for Active; 'I' for Inactive)
    1  A    between atoms: C_1  and  C_32
    2  A    between atoms: C_1  and  C_58
    3  A    between atoms: O_4  and  C_51
    4  A    between atoms: N_5  and  C_15
    5  A    between atoms: N_5  and  C_31
    6  A    between atoms: C_6  and  C_12
    7  A    between atoms: N_7  and  C_42
    8  A    between atoms: O_13  and  C_37
    9  A    between atoms: O_13  and  C_38
   10  A    between atoms: C_14  and  C_59
   11  A    between atoms: C_16  and  O_39
   12  A    between atoms: C_23  and  O_39
   13  A    between atoms: C_24  and  C_33
   14  A    between atoms: C_27  and  C_41
   15  A    between atoms: N_28  and  C_56
   16  A    between atoms: C_31  and  C_58
   17  A    between atoms: C_32  and  C_44
   18  A    between atoms: C_33  and  C_41
   19  A    between atoms: C_37  and  C_53
   20  A    between atoms: C_38  and  C_44
   21  A    between atoms: C_56  and  C_59
                            x       y       z     vdW  Elec       q    Type
                         _______ _______ _______ _____ _____    ______ ____

>  <TORSDO>
F 21

$$$$
=
 OpenBabel11042412243D

 60 64  0  0  1  0  0  0  0  0999 V2000
  188.2410  177.6370  141.8770 N   0  0  0  0  0  0  0  0  0  0  0  0
  187.4360  177.8980  139.5900 C   0  0  0  0  0  2  0  0  0  0  0  0
  184.9840  178.9350  141.9980 C   0  0  0  0  0  3  0  0  0  0  0  0
  185.3350  179.0070  140.6560 C   0  0  0  0  0  0  0  0  0  0  0  0
  188.5350  177.2530  140.4810 C   0  0  1  0  0  3  0  0  0  0  0  0
  186.0750  178.5690  142.7150 N   0  0  0  0  0  0  0  0  0  0  0  0
  186.0170  178.1400  144.0840 C   0  0  0  0  0  0  0  0  0  0  0  0
  186.8480  177.3050  144.5310 O   0  0  0  0  0  0  0  0  0  0  0  0
  184.9700  178.6250  144.9300 N   0  0  0  0  0  2  0  0  0  0  0  0
  186.6690  178.6950  140.5780 C   0  0  0  0  0  0  0  0  0  0  0  0
  187.0970  178.4780  141.8290 C   0  0  0  0  0  0  0  0  0  0  0  0
  191.5230  174.7750  144.5660 C   0  0  0  0  0  2  0  0  0  0  0  0
  190.6800  178.4560  144.4620 C   0  0  0  0  0  2  0  0  0  0  0  0
  189.6420  178.7620  143.5110 C   0  0  0  0  0  2  0  0  0  0  0  0
  190.8990  176.0600  144.2220 C   0  0  1  0  0  3  0  0  0  0  0  0
  189.2300  177.6320  142.9200 C   0  0  0  0  0  0  0  0  0  0  0  0
  191.6810  176.0620  144.9710 C   0  0  0  0  0  0  0  0  0  0  0  0
  190.8080  177.0330  144.3190 C   0  0  0  0  0  2  0  0  0  0  0  0
  189.9070  176.3690  143.3250 C   0  0  0  0  0  3  0  0  0  0  0  0
  192.6590  176.3780  145.9660 O   0  0  0  0  0  0  0  0  0  0  0  0
  192.5480  175.9620  147.3190 C   0  0  0  0  0  1  0  0  0  0  0  0
  184.4440  179.2030  139.5490 C   0  0  0  0  0  0  0  0  0  0  0  0
  183.6670  179.3430  138.6370 C   0  0  0  0  0  0  0  0  0  0  0  0
  182.7620  179.4810  137.6170 O   0  0  0  0  0  0  0  0  0  0  0  0
  182.6230  176.3490  136.0460 C   0  0  0  0  0  2  0  0  0  0  0  0
  180.9050  178.0220  137.9620 C   0  0  0  0  0  3  0  0  0  0  0  0
  181.9260  178.4380  137.2000 C   0  0  0  0  0  0  0  0  0  0  0  0
  181.4020  175.4350  136.1340 C   0  0  2  0  0  3  0  0  0  0  0  0
  180.6770  175.5780  137.4790 C   0  0  1  0  0  3  0  0  0  0  0  0
  179.9670  176.9220  137.5740 C   0  0  0  0  0  2  0  0  0  0  0  0
  182.2100  177.8040  135.8740 C   0  0  0  0  0  2  0  0  0  0  0  0
  179.7180  174.5720  137.6150 O   0  0  0  0  0  1  0  0  0  0  0  0
  181.8620  174.0000  135.9180 C   0  0  0  0  0  2  0  0  0  0  0  0
  183.3760  173.9430  135.7690 C   0  0  0  0  0  2  0  0  0  0  0  0
  183.9950  173.1740  136.8900 C   0  0  0  0  0  0  0  0  0  0  0  0
  184.3410  173.7680  137.9450 O   0  0  0  0  0  1  0  0  0  0  0  0
  184.1590  171.7980  136.7810 O   0  0  0  0  0  0  0  0  0  0  0  0
  184.8570  178.2240  146.3220 C   0  0  0  0  0  2  0  0  0  0  0  0
  185.8780  178.9810  147.1500 C   0  0  0  0  0  2  0  0  0  0  0  0
  188.2350  178.2540  147.5150 C   0  0  0  0  0  1  0  0  0  0  0  0
  186.7790  178.0130  147.8910 C   0  0  0  0  0  2  0  0  0  0  0  0
  189.8780  177.6800  140.0610 N   0  0  0  0  0  2  0  0  0  0  0  0
  189.8920  178.0510  138.6470 C   0  0  0  0  0  2  0  0  0  0  0  0
  189.7740  176.8050  137.7870 C   0  0  0  0  0  2  0  0  0  0  0  0
  190.9230  175.8840  138.0590 C   0  0  0  0  0  0  0  0  0  0  0  0
  190.7210  174.6830  138.1680 O   0  0  0  0  0  0  0  0  0  0  0  0
  192.3360  176.3950  138.0960 C   0  0  0  0  0  2  0  0  0  0  0  0
  193.0820  176.1130  136.7980 C   0  0  0  0  0  2  0  0  0  0  0  0
  193.6880  174.7140  136.8130 C   0  0  0  0  0  2  0  0  0  0  0  0
  194.0960  174.3600  138.1310 O   0  0  0  0  0  0  0  0  0  0  0  0
  195.6230  175.1650  139.6690 O   0  0  0  0  0  0  0  0  0  0  0  0
  195.4040  174.5400  138.5930 C   0  0  0  0  0  0  0  0  0  0  0  0
  198.6500  172.9790  136.3360 C   0  0  0  0  0  3  0  0  0  0  0  0
  199.1790  175.2480  135.6090 N   0  0  0  0  0  1  0  0  0  0  0  0
  197.8460  172.1100  137.0750 C   0  0  0  0  0  0  0  0  0  0  0  0
  197.3310  174.8230  137.0960 N   0  0  0  0  0  0  0  0  0  0  0  0
  198.1020  170.7450  137.0620 O   0  0  0  0  0  1  0  0  0  0  0  0
  198.3730  174.3490  136.3600 C   0  0  0  0  0  0  0  0  0  0  0  0
  196.5310  173.9940  137.8250 C   0  0  0  0  0  0  0  0  0  0  0  0
  196.7830  172.6160  137.8250 C   0  0  0  0  0  3  0  0  0  0  0  0
  1 16  1  0  0  0  0
  2  5  1  0  0  0  0
  2 10  1  0  0  0  0
  3  6  1  0  0  0  0
  4  3  2  0  0  0  0
  5 42  1  6  0  0  0
  5  1  1  0  0  0  0
  6  7  1  0  0  0  0
  7  8  2  0  0  0  0
  7  9  1  0  0  0  0
  9 38  1  0  0  0  0
 10  4  1  0  0  0  0
 10 11  2  0  0  0  0
 11  1  1  0  0  0  0
 11  6  1  0  0  0  0
 12 17  2  0  0  0  0
 14 13  1  0  0  0  0
 15 18  1  0  0  0  0
 15 17  1  6  0  0  0
 16 19  2  0  0  0  0
 16 14  1  0  0  0  0
 17 20  1  0  0  0  0
 18 13  1  0  0  0  0
 19 15  1  0  0  0  0
 20 21  1  0  0  0  0
 22  4  1  0  0  0  0
 23 22  3  0  0  0  0
 24 23  1  0  0  0  0
 25 28  1  0  0  0  0
 27 24  1  0  0  0  0
 27 26  2  0  0  0  0
 28 33  1  1  0  0  0
 28 29  1  0  0  0  0
 29 30  1  0  0  0  0
 29 32  1  6  0  0  0
 30 26  1  0  0  0  0
 31 25  1  0  0  0  0
 31 27  1  0  0  0  0
 34 33  1  0  0  0  0
 34 35  1  0  0  0  0
 35 36  1  0  0  0  0
 37 35  2  0  0  0  0
 38 39  1  0  0  0  0
 39 41  1  0  0  0  0
 40 41  1  0  0  0  0
 43 42  1  0  0  0  0
 44 45  1  0  0  0  0
 44 43  1  0  0  0  0
 45 47  1  0  0  0  0
 45 46  2  0  0  0  0
 48 49  1  0  0  0  0
 48 47  1  0  0  0  0
 49 50  1  0  0  0  0
 50 52  1  0  0  0  0
 52 51  2  0  0  0  0
 53 58  2  0  0  0  0
 53 55  1  0  0  0  0
 54 58  1  0  0  0  0
 55 60  2  0  0  0  0
 56 59  2  0  0  0  0
 57 55  1  0  0  0  0
 58 56  1  0  0  0  0
 59 60  1  0  0  0  0
 59 52  1  0  0  0  0
M  END
>  <MODEL>
6

>  <REMARK>
 VINA RESULT:      -6.4      2.822      4.598
  Name = 
  21 active torsions:
  status: ('A' for Active; 'I' for Inactive)
    1  A    between atoms: C_1  and  C_32
    2  A    between atoms: C_1  and  C_58
    3  A    between atoms: O_4  and  C_51
    4  A    between atoms: N_5  and  C_15
    5  A    between atoms: N_5  and  C_31
    6  A    between atoms: C_6  and  C_12
    7  A    between atoms: N_7  and  C_42
    8  A    between atoms: O_13  and  C_37
    9  A    between atoms: O_13  and  C_38
   10  A    between atoms: C_14  and  C_59
   11  A    between atoms: C_16  and  O_39
   12  A    between atoms: C_23  and  O_39
   13  A    between atoms: C_24  and  C_33
   14  A    between atoms: C_27  and  C_41
   15  A    between atoms: N_28  and  C_56
   16  A    between atoms: C_31  and  C_58
   17  A    between atoms: C_32  and  C_44
   18  A    between atoms: C_33  and  C_41
   19  A    between atoms: C_37  and  C_53
   20  A    between atoms: C_38  and  C_44
   21  A    between atoms: C_56  and  C_59
                            x       y       z     vdW  Elec       q    Type
                         _______ _______ _______ _____ _____    ______ ____

>  <TORSDO>
F 21

$$$$
=
 OpenBabel11042412243D

 60 64  0  0  1  0  0  0  0  0999 V2000
  188.6020  177.6160  142.4270 N   0  0  0  0  0  0  0  0  0  0  0  0
  187.7090  177.7710  140.1630 C   0  0  0  0  0  2  0  0  0  0  0  0
  185.3450  178.9060  142.6160 C   0  0  0  0  0  3  0  0  0  0  0  0
  185.6440  178.9190  141.2590 C   0  0  0  0  0  0  0  0  0  0  0  0
  188.8450  177.1710  141.0390 C   0  0  1  0  0  3  0  0  0  0  0  0
  186.4650  178.5760  143.3050 N   0  0  0  0  0  0  0  0  0  0  0  0
  186.4610  178.2080  144.6940 C   0  0  0  0  0  0  0  0  0  0  0  0
  187.3130  177.3970  145.1450 O   0  0  0  0  0  0  0  0  0  0  0  0
  185.4450  178.7260  145.5570 N   0  0  0  0  0  2  0  0  0  0  0  0
  186.9760  178.6090  141.1430 C   0  0  0  0  0  0  0  0  0  0  0  0
  187.4520  178.4500  142.3850 C   0  0  0  0  0  0  0  0  0  0  0  0
  190.2880  175.6310  146.8330 C   0  0  0  0  0  2  0  0  0  0  0  0
  191.5950  178.2270  144.4200 C   0  0  0  0  0  2  0  0  0  0  0  0
  190.7120  178.4410  143.3020 C   0  0  0  0  0  2  0  0  0  0  0  0
  190.4100  176.5440  145.6890 C   0  0  1  0  0  3  0  0  0  0  0  0
  189.6310  177.6600  143.4300 C   0  0  0  0  0  0  0  0  0  0  0  0
  191.2100  176.5390  146.4190 C   0  0  0  0  0  0  0  0  0  0  0  0
  190.8890  177.2290  145.1720 C   0  0  0  0  0  2  0  0  0  0  0  0
  189.5780  176.7650  144.6190 C   0  0  0  0  0  3  0  0  0  0  0  0
  192.3940  176.7530  147.1920 O   0  0  0  0  0  0  0  0  0  0  0  0
  192.8430  175.8430  148.1850 C   0  0  0  0  0  1  0  0  0  0  0  0
  184.7100  179.0630  140.1790 C   0  0  0  0  0  0  0  0  0  0  0  0
  183.9090  179.2160  139.2920 C   0  0  0  0  0  0  0  0  0  0  0  0
  182.9850  179.4180  138.3000 O   0  0  0  0  0  0  0  0  0  0  0  0
  183.0090  175.9630  137.6980 C   0  0  0  0  0  2  0  0  0  0  0  0
  181.0360  178.3050  137.4850 C   0  0  0  0  0  3  0  0  0  0  0  0
  182.3700  178.3640  137.6130 C   0  0  0  0  0  0  0  0  0  0  0  0
  181.8320  175.2290  137.0590 C   0  0  2  0  0  3  0  0  0  0  0  0
  180.4870  175.8660  137.4380 C   0  0  1  0  0  3  0  0  0  0  0  0
  180.3150  177.2160  136.7560 C   0  0  0  0  0  2  0  0  0  0  0  0
  183.2510  177.3070  137.0240 C   0  0  0  0  0  2  0  0  0  0  0  0
  179.4360  175.0400  137.0330 O   0  0  0  0  0  1  0  0  0  0  0  0
  181.8820  173.7720  137.4980 C   0  0  0  0  0  2  0  0  0  0  0  0
  182.4050  172.8940  136.3690 C   0  0  0  0  0  2  0  0  0  0  0  0
  183.4970  171.9980  136.8510 C   0  0  0  0  0  0  0  0  0  0  0  0
  183.4830  170.7730  136.5570 O   0  0  0  0  0  0  0  0  0  0  0  0
  184.5480  172.5200  137.5970 O   0  0  0  0  0  1  0  0  0  0  0  0
  185.3870  178.3880  146.9680 C   0  0  0  0  0  2  0  0  0  0  0  0
  186.4410  179.1780  147.7210 C   0  0  0  0  0  2  0  0  0  0  0  0
  188.8030  178.5610  148.2240 C   0  0  0  0  0  1  0  0  0  0  0  0
  187.3410  178.2450  148.5060 C   0  0  0  0  0  2  0  0  0  0  0  0
  190.1680  177.5830  140.5490 N   0  0  0  0  0  2  0  0  0  0  0  0
  190.1300  177.8740  139.1180 C   0  0  0  0  0  2  0  0  0  0  0  0
  190.7240  176.7120  138.3400 C   0  0  0  0  0  2  0  0  0  0  0  0
  189.7940  176.3030  137.2400 C   0  0  0  0  0  0  0  0  0  0  0  0
  188.6160  176.0900  137.4940 O   0  0  0  0  0  0  0  0  0  0  0  0
  190.2550  176.2530  135.8110 C   0  0  0  0  0  2  0  0  0  0  0  0
  189.3690  175.3580  134.9530 C   0  0  0  0  0  2  0  0  0  0  0  0
  189.7520  173.8920  135.1220 C   0  0  0  0  0  2  0  0  0  0  0  0
  191.0530  173.6520  134.5940 O   0  0  0  0  0  0  0  0  0  0  0  0
  191.9320  171.6090  135.2230 O   0  0  0  0  0  0  0  0  0  0  0  0
  192.0060  172.8690  135.2540 C   0  0  0  0  0  0  0  0  0  0  0  0
  195.1640  174.7360  137.4010 C   0  0  0  0  0  3  0  0  0  0  0  0
  195.4130  172.6990  138.7220 N   0  0  0  0  0  1  0  0  0  0  0  0
  194.5140  175.4390  136.3850 C   0  0  0  0  0  0  0  0  0  0  0  0
  193.7540  172.8510  136.9790 N   0  0  0  0  0  0  0  0  0  0  0  0
  194.8920  176.7420  136.0880 O   0  0  0  0  0  1  0  0  0  0  0  0
  194.7640  173.4280  137.6870 C   0  0  0  0  0  0  0  0  0  0  0  0
  193.1050  173.5180  135.9830 C   0  0  0  0  0  0  0  0  0  0  0  0
  193.4810  174.8290  135.6700 C   0  0  0  0  0  3  0  0  0  0  0  0
  1 16  1  0  0  0  0
  2  5  1  0  0  0  0
  2 10  1  0  0  0  0
  3  6  1  0  0  0  0
  4  3  2  0  0  0  0
  5 42  1  6  0  0  0
  5  1  1  0  0  0  0
  6  7  1  0  0  0  0
  7  8  2  0  0  0  0
  7  9  1  0  0  0  0
  9 38  1  0  0  0  0
 10  4  1  0  0  0  0
 10 11  2  0  0  0  0
 11  1  1  0  0  0  0
 11  6  1  0  0  0  0
 13 18  1  0  0  0  0
 14 16  1  0  0  0  0
 14 13  1  0  0  0  0
 15 17  1  6  0  0  0
 16 19  2  0  0  0  0
 17 12  2  0  0  0  0
 17 20  1  0  0  0  0
 18 15  1  0  0  0  0
 19 15  1  0  0  0  0
 20 21  1  0  0  0  0
 22  4  1  0  0  0  0
 23 22  3  0  0  0  0
 24 23  1  0  0  0  0
 26 27  2  0  0  0  0
 27 24  1  0  0  0  0
 28 29  1  0  0  0  0
 28 33  1  1  0  0  0
 28 25  1  0  0  0  0
 29 32  1  6  0  0  0
 30 29  1  0  0  0  0
 30 26  1  0  0  0  0
 31 27  1  0  0  0  0
 31 25  1  0  0  0  0
 34 35  1  0  0  0  0
 34 33  1  0  0  0  0
 35 37  1  0  0  0  0
 36 35  2  0  0  0  0
 38 39  1  0  0  0  0
 39 41  1  0  0  0  0
 40 41  1  0  0  0  0
 43 42  1  0  0  0  0
 44 43  1  0  0  0  0
 45 46  2  0  0  0  0
 45 44  1  0  0  0  0
 47 45  1  0  0  0  0
 48 49  1  0  0  0  0
 48 47  1  0  0  0  0
 50 49  1  0  0  0  0
 50 52  1  0  0  0  0
 51 52  2  0  0  0  0
 52 59  1  0  0  0  0
 53 58  1  0  0  0  0
 55 53  2  0  0  0  0
 56 58  2  0  0  0  0
 57 55  1  0  0  0  0
 58 54  1  0  0  0  0
 59 56  1  0  0  0  0
 60 59  2  0  0  0  0
 60 55  1  0  0  0  0
M  END
>  <MODEL>
7

>  <REMARK>
 VINA RESULT:      -6.4      1.761      3.319
  Name = 
  21 active torsions:
  status: ('A' for Active; 'I' for Inactive)
    1  A    between atoms: C_1  and  C_32
    2  A    between atoms: C_1  and  C_58
    3  A    between atoms: O_4  and  C_51
    4  A    between atoms: N_5  and  C_15
    5  A    between atoms: N_5  and  C_31
    6  A    between atoms: C_6  and  C_12
    7  A    between atoms: N_7  and  C_42
    8  A    between atoms: O_13  and  C_37
    9  A    between atoms: O_13  and  C_38
   10  A    between atoms: C_14  and  C_59
   11  A    between atoms: C_16  and  O_39
   12  A    between atoms: C_23  and  O_39
   13  A    between atoms: C_24  and  C_33
   14  A    between atoms: C_27  and  C_41
   15  A    between atoms: N_28  and  C_56
   16  A    between atoms: C_31  and  C_58
   17  A    between atoms: C_32  and  C_44
   18  A    between atoms: C_33  and  C_41
   19  A    between atoms: C_37  and  C_53
   20  A    between atoms: C_38  and  C_44
   21  A    between atoms: C_56  and  C_59
                            x       y       z     vdW  Elec       q    Type
                         _______ _______ _______ _____ _____    ______ ____

>  <TORSDO>
F 21

$$$$
=
 OpenBabel11042412243D

 60 64  0  0  1  0  0  0  0  0999 V2000
  187.5070  178.2350  140.3010 N   0  0  0  0  0  0  0  0  0  0  0  0
  187.8450  177.4920  138.0040 C   0  0  0  0  0  2  0  0  0  0  0  0
  190.7380  176.8940  140.0440 C   0  0  0  0  0  3  0  0  0  0  0  0
  190.1280  176.5610  138.8400 C   0  0  0  0  0  0  0  0  0  0  0  0
  186.9370  178.3370  138.9420 C   0  0  1  0  0  3  0  0  0  0  0  0
  189.8060  177.4300  140.8700 N   0  0  0  0  0  0  0  0  0  0  0  0
  190.1300  178.1270  142.0840 C   0  0  0  0  0  0  0  0  0  0  0  0
  189.3940  179.0590  142.5050 O   0  0  0  0  0  0  0  0  0  0  0  0
  191.3290  177.7930  142.7890 N   0  0  0  0  0  2  0  0  0  0  0  0
  188.8020  176.8900  138.9630 C   0  0  0  0  0  0  0  0  0  0  0  0
  188.6280  177.3690  140.2030 C   0  0  0  0  0  0  0  0  0  0  0  0
  186.8120  176.9500  145.2070 C   0  0  0  0  0  2  0  0  0  0  0  0
  185.2790  179.5120  142.8920 C   0  0  0  0  0  2  0  0  0  0  0  0
  185.8300  179.4600  141.5620 C   0  0  0  0  0  2  0  0  0  0  0  0
  186.4960  177.7500  144.0160 C   0  0  1  0  0  3  0  0  0  0  0  0
  186.7440  178.4820  141.4950 C   0  0  0  0  0  0  0  0  0  0  0  0
  185.9590  177.9700  144.9310 C   0  0  0  0  0  0  0  0  0  0  0  0
  186.0020  178.4650  143.5570 C   0  0  0  0  0  2  0  0  0  0  0  0
  187.0060  177.7110  142.7420 C   0  0  0  0  0  3  0  0  0  0  0  0
  185.1080  178.4830  145.9590 O   0  0  0  0  0  0  0  0  0  0  0  0
  183.7070  178.6420  145.7950 C   0  0  0  0  0  1  0  0  0  0  0  0
  190.7840  176.1180  137.6440 C   0  0  0  0  0  0  0  0  0  0  0  0
  191.3720  175.7420  136.6600 C   0  0  0  0  0  0  0  0  0  0  0  0
  192.0670  175.3110  135.5610 O   0  0  0  0  0  0  0  0  0  0  0  0
  195.1750  174.7680  137.0920 C   0  0  0  0  0  2  0  0  0  0  0  0
  193.0210  173.1250  135.6490 C   0  0  0  0  0  3  0  0  0  0  0  0
  193.1730  174.4570  135.6520 C   0  0  0  0  0  0  0  0  0  0  0  0
  195.8840  173.4150  137.0640 C   0  0  2  0  0  3  0  0  0  0  0  0
  194.8860  172.2480  137.0650 C   0  0  1  0  0  3  0  0  0  0  0  0
  194.1570  172.1550  135.7320 C   0  0  0  0  0  2  0  0  0  0  0  0
  194.5300  175.0800  135.7490 C   0  0  0  0  0  2  0  0  0  0  0  0
  195.5610  171.0430  137.2740 O   0  0  0  0  0  1  0  0  0  0  0  0
  196.8110  173.3350  138.2680 C   0  0  0  0  0  2  0  0  0  0  0  0
  196.4550  174.4100  139.2860 C   0  0  0  0  0  2  0  0  0  0  0  0
  197.6820  175.0880  139.7990 C   0  0  0  0  0  0  0  0  0  0  0  0
  198.4210  175.7340  139.0090 O   0  0  0  0  0  0  0  0  0  0  0  0
  197.9930  175.0350  141.1530 O   0  0  0  0  0  1  0  0  0  0  0  0
  191.7120  178.4640  144.0190 C   0  0  0  0  0  2  0  0  0  0  0  0
  191.2890  177.6200  145.2070 C   0  0  0  0  0  2  0  0  0  0  0  0
  191.9860  175.5400  146.3890 C   0  0  0  0  0  1  0  0  0  0  0  0
  191.7570  176.1900  145.0320 C   0  0  0  0  0  2  0  0  0  0  0  0
  185.5430  177.8740  138.8900 N   0  0  0  0  0  2  0  0  0  0  0  0
  185.1910  177.4180  137.5470 C   0  0  0  0  0  2  0  0  0  0  0  0
  183.6870  177.5050  137.3520 C   0  0  0  0  0  2  0  0  0  0  0  0
  183.0380  176.2290  137.7890 C   0  0  0  0  0  0  0  0  0  0  0  0
  183.7270  175.2370  137.9810 O   0  0  0  0  0  0  0  0  0  0  0  0
  181.5690  176.1710  138.1010 C   0  0  0  0  0  2  0  0  0  0  0  0
  180.8470  175.1220  137.2650 C   0  0  0  0  0  2  0  0  0  0  0  0
  180.5110  175.6680  135.8810 C   0  0  0  0  0  2  0  0  0  0  0  0
  180.8720  174.7290  134.8730 O   0  0  0  0  0  0  0  0  0  0  0  0
  183.1650  174.8050  134.5940 O   0  0  0  0  0  0  0  0  0  0  0  0
  182.1300  174.1190  134.8200 C   0  0  0  0  0  0  0  0  0  0  0  0
  182.4960  169.9250  135.4090 C   0  0  0  0  0  3  0  0  0  0  0  0
  184.9230  170.1640  135.2920 N   0  0  0  0  0  1  0  0  0  0  0  0
  181.2270  170.5060  135.3710 C   0  0  0  0  0  0  0  0  0  0  0  0
  183.4770  172.0810  135.0780 N   0  0  0  0  0  0  0  0  0  0  0  0
  180.0950  169.7140  135.5140 O   0  0  0  0  0  1  0  0  0  0  0  0
  183.6220  170.7400  135.2590 C   0  0  0  0  0  0  0  0  0  0  0  0
  182.2480  172.6700  135.0370 C   0  0  0  0  0  0  0  0  0  0  0  0
  181.0990  171.8840  135.1860 C   0  0  0  0  0  3  0  0  0  0  0  0
  1 16  1  0  0  0  0
  2  5  1  0  0  0  0
  2 10  1  0  0  0  0
  3  6  1  0  0  0  0
  4 10  1  0  0  0  0
  4  3  2  0  0  0  0
  5 42  1  1  0  0  0
  5  1  1  0  0  0  0
  6  7  1  0  0  0  0
  7  8  2  0  0  0  0
  7  9  1  0  0  0  0
  9 38  1  0  0  0  0
 10 11  2  0  0  0  0
 11  1  1  0  0  0  0
 11  6  1  0  0  0  0
 13 18  1  0  0  0  0
 14 13  1  0  0  0  0
 15 17  1  1  0  0  0
 16 14  1  0  0  0  0
 16 19  2  0  0  0  0
 17 12  2  0  0  0  0
 17 20  1  0  0  0  0
 18 15  1  0  0  0  0
 19 15  1  0  0  0  0
 21 20  1  0  0  0  0
 22  4  1  0  0  0  0
 23 22  3  0  0  0  0
 24 27  1  0  0  0  0
 24 23  1  0  0  0  0
 26 27  2  0  0  0  0
 26 30  1  0  0  0  0
 27 31  1  0  0  0  0
 28 29  1  0  0  0  0
 28 25  1  0  0  0  0
 28 33  1  1  0  0  0
 29 32  1  6  0  0  0
 30 29  1  0  0  0  0
 31 25  1  0  0  0  0
 33 34  1  0  0  0  0
 34 35  1  0  0  0  0
 35 37  1  0  0  0  0
 36 35  2  0  0  0  0
 38 39  1  0  0  0  0
 41 39  1  0  0  0  0
 41 40  1  0  0  0  0
 43 42  1  0  0  0  0
 44 43  1  0  0  0  0
 44 45  1  0  0  0  0
 45 46  2  0  0  0  0
 45 47  1  0  0  0  0
 48 47  1  0  0  0  0
 49 48  1  0  0  0  0
 50 49  1  0  0  0  0
 51 52  2  0  0  0  0
 52 50  1  0  0  0  0
 52 59  1  0  0  0  0
 55 53  1  0  0  0  0
 55 57  1  0  0  0  0
 56 58  1  0  0  0  0
 58 54  1  0  0  0  0
 58 53  2  0  0  0  0
 59 56  2  0  0  0  0
 59 60  1  0  0  0  0
 60 55  2  0  0  0  0
M  END
>  <MODEL>
8

>  <REMARK>
 VINA RESULT:      -5.9      2.938      9.417
  Name = 
  21 active torsions:
  status: ('A' for Active; 'I' for Inactive)
    1  A    between atoms: C_1  and  C_32
    2  A    between atoms: C_1  and  C_58
    3  A    between atoms: O_4  and  C_51
    4  A    between atoms: N_5  and  C_15
    5  A    between atoms: N_5  and  C_31
    6  A    between atoms: C_6  and  C_12
    7  A    between atoms: N_7  and  C_42
    8  A    between atoms: O_13  and  C_37
    9  A    between atoms: O_13  and  C_38
   10  A    between atoms: C_14  and  C_59
   11  A    between atoms: C_16  and  O_39
   12  A    between atoms: C_23  and  O_39
   13  A    between atoms: C_24  and  C_33
   14  A    between atoms: C_27  and  C_41
   15  A    between atoms: N_28  and  C_56
   16  A    between atoms: C_31  and  C_58
   17  A    between atoms: C_32  and  C_44
   18  A    between atoms: C_33  and  C_41
   19  A    between atoms: C_37  and  C_53
   20  A    between atoms: C_38  and  C_44
   21  A    between atoms: C_56  and  C_59
                            x       y       z     vdW  Elec       q    Type
                         _______ _______ _______ _____ _____    ______ ____

>  <TORSDO>
F 21

$$$$
=
 OpenBabel11042412243D

 60 64  0  0  1  0  0  0  0  0999 V2000
  188.4170  176.3730  137.1890 N   0  0  0  0  0  0  0  0  0  0  0  0
  186.1890  177.2970  137.5410 C   0  0  0  0  0  2  0  0  0  0  0  0
  186.0620  173.9110  136.3540 C   0  0  0  0  0  3  0  0  0  0  0  0
  185.3140  174.9140  136.9580 C   0  0  0  0  0  0  0  0  0  0  0  0
  187.6990  177.6440  137.4170 C   0  0  1  0  0  3  0  0  0  0  0  0
  187.3780  174.2070  136.4900 N   0  0  0  0  0  0  0  0  0  0  0  0
  188.4200  173.5390  135.7620 C   0  0  0  0  0  0  0  0  0  0  0  0
  189.4800  174.1470  135.4540 O   0  0  0  0  0  0  0  0  0  0  0  0
  188.2260  172.1870  135.3360 N   0  0  0  0  0  2  0  0  0  0  0  0
  186.2080  175.8150  137.4800 C   0  0  0  0  0  0  0  0  0  0  0  0
  187.4360  175.3460  137.2220 C   0  0  0  0  0  0  0  0  0  0  0  0
  193.1120  176.0600  135.1740 C   0  0  0  0  0  2  0  0  0  0  0  0
  191.7250  176.0310  138.6880 C   0  0  0  0  0  2  0  0  0  0  0  0
  190.2890  176.1380  138.7200 C   0  0  0  0  0  2  0  0  0  0  0  0
  192.1860  176.0770  136.3150 C   0  0  1  0  0  3  0  0  0  0  0  0
  189.8170  176.2000  137.4670 C   0  0  0  0  0  0  0  0  0  0  0  0
  193.2460  175.9990  136.5240 C   0  0  0  0  0  0  0  0  0  0  0  0
  191.9960  176.0570  137.2780 C   0  0  0  0  0  2  0  0  0  0  0  0
  190.8170  176.1720  136.3640 C   0  0  0  0  0  3  0  0  0  0  0  0
  194.5480  175.8920  137.1050 O   0  0  0  0  0  0  0  0  0  0  0  0
  195.1920  174.6480  137.3350 C   0  0  0  0  0  1  0  0  0  0  0  0
  183.8890  175.0690  136.9020 C   0  0  0  0  0  0  0  0  0  0  0  0
  182.6870  175.1620  136.8750 C   0  0  0  0  0  0  0  0  0  0  0  0
  181.3190  175.2380  136.8610 O   0  0  0  0  0  0  0  0  0  0  0  0
  179.6470  177.0490  139.3560 C   0  0  0  0  0  2  0  0  0  0  0  0
  181.0200  177.5990  136.6660 C   0  0  0  0  0  3  0  0  0  0  0  0
  180.6230  176.4160  137.1590 C   0  0  0  0  0  0  0  0  0  0  0  0
  179.3200  178.5340  139.2190 C   0  0  2  0  0  3  0  0  0  0  0  0
  180.3870  179.2810  138.4050 C   0  0  1  0  0  3  0  0  0  0  0  0
  180.3180  178.8920  136.9340 C   0  0  0  0  0  2  0  0  0  0  0  0
  179.4200  176.3120  138.0430 C   0  0  0  0  0  2  0  0  0  0  0  0
  180.1820  180.6590  138.4980 O   0  0  0  0  0  1  0  0  0  0  0  0
  179.1930  179.1270  140.6150 C   0  0  0  0  0  2  0  0  0  0  0  0
  179.3880  178.0490  141.6720 C   0  0  0  0  0  2  0  0  0  0  0  0
  179.9030  178.6330  142.9450 C   0  0  0  0  0  0  0  0  0  0  0  0
  179.7100  178.0340  144.0360 O   0  0  0  0  0  1  0  0  0  0  0  0
  180.6240  179.8220  142.9230 O   0  0  0  0  0  0  0  0  0  0  0  0
  189.2410  171.4600  134.5940 C   0  0  0  0  0  2  0  0  0  0  0  0
  190.4270  171.1830  135.4990 C   0  0  0  0  0  2  0  0  0  0  0  0
  192.8800  171.0100  135.0910 C   0  0  0  0  0  1  0  0  0  0  0  0
  191.5100  170.4450  134.7390 C   0  0  0  0  0  2  0  0  0  0  0  0
  188.1830  178.3460  138.6140 N   0  0  0  0  0  2  0  0  0  0  0  0
  187.6110  177.7690  139.8290 C   0  0  0  0  0  2  0  0  0  0  0  0
  187.5430  178.8260  140.9180 C   0  0  0  0  0  2  0  0  0  0  0  0
  186.1270  179.0010  141.3730 C   0  0  0  0  0  0  0  0  0  0  0  0
  185.3820  179.7480  140.7540 O   0  0  0  0  0  0  0  0  0  0  0  0
  185.5730  178.1940  142.5140 C   0  0  0  0  0  2  0  0  0  0  0  0
  186.6240  177.9100  143.5790 C   0  0  0  0  0  2  0  0  0  0  0  0
  186.0970  178.2540  144.9680 C   0  0  0  0  0  2  0  0  0  0  0  0
  186.5850  177.3280  145.9320 O   0  0  0  0  0  0  0  0  0  0  0  0
  187.4410  178.1630  147.9110 O   0  0  0  0  0  0  0  0  0  0  0  0
  187.6510  177.6190  146.7900 C   0  0  0  0  0  0  0  0  0  0  0  0
  191.6390  176.6800  145.6580 C   0  0  0  0  0  3  0  0  0  0  0  0
  192.1670  176.2830  148.0080 N   0  0  0  0  0  1  0  0  0  0  0  0
  190.7110  177.0340  144.6770 C   0  0  0  0  0  0  0  0  0  0  0  0
  189.9480  176.9360  147.3290 N   0  0  0  0  0  0  0  0  0  0  0  0
  191.0950  177.0870  143.3430 O   0  0  0  0  0  1  0  0  0  0  0  0
  191.2330  176.6370  146.9950 C   0  0  0  0  0  0  0  0  0  0  0  0
  189.0240  177.2840  146.3890 C   0  0  0  0  0  0  0  0  0  0  0  0
  189.3970  177.3350  145.0400 C   0  0  0  0  0  3  0  0  0  0  0  0
  1 11  1  0  0  0  0
  1  5  1  0  0  0  0
  1 16  1  0  0  0  0
  3  6  1  0  0  0  0
  3  4  2  0  0  0  0
  4 10  1  0  0  0  0
  5  2  1  0  0  0  0
  5 42  1  1  0  0  0
  6 11  1  0  0  0  0
  7  6  1  0  0  0  0
  8  7  2  0  0  0  0
  9  7  1  0  0  0  0
 10  2  1  0  0  0  0
 11 10  2  0  0  0  0
 12 17  2  0  0  0  0
 13 14  1  0  0  0  0
 15 19  1  0  0  0  0
 15 17  1  1  0  0  0
 15 18  1  0  0  0  0
 16 14  1  0  0  0  0
 17 20  1  0  0  0  0
 18 13  1  0  0  0  0
 19 16  2  0  0  0  0
 20 21  1  0  0  0  0
 22  4  1  0  0  0  0
 23 22  3  0  0  0  0
 24 23  1  0  0  0  0
 24 27  1  0  0  0  0
 26 30  1  0  0  0  0
 26 27  2  0  0  0  0
 27 31  1  0  0  0  0
 28 25  1  0  0  0  0
 28 33  1  1  0  0  0
 29 32  1  6  0  0  0
 29 28  1  0  0  0  0
 30 29  1  0  0  0  0
 31 25  1  0  0  0  0
 33 34  1  0  0  0  0
 34 35  1  0  0  0  0
 35 36  1  0  0  0  0
 37 35  2  0  0  0  0
 38  9  1  0  0  0  0
 38 39  1  0  0  0  0
 41 40  1  0  0  0  0
 41 39  1  0  0  0  0
 42 43  1  0  0  0  0
 43 44  1  0  0  0  0
 44 45  1  0  0  0  0
 45 47  1  0  0  0  0
 46 45  2  0  0  0  0
 47 48  1  0  0  0  0
 48 49  1  0  0  0  0
 49 50  1  0  0  0  0
 50 52  1  0  0  0  0
 52 51  2  0  0  0  0
 53 58  1  0  0  0  0
 55 60  1  0  0  0  0
 55 53  2  0  0  0  0
 57 55  1  0  0  0  0
 58 56  2  0  0  0  0
 58 54  1  0  0  0  0
 59 52  1  0  0  0  0
 59 56  1  0  0  0  0
 60 59  2  0  0  0  0
M  END
>  <MODEL>
9

>  <REMARK>
 VINA RESULT:      -5.9      2.748      8.922
  Name = 
  21 active torsions:
  status: ('A' for Active; 'I' for Inactive)
    1  A    between atoms: C_1  and  C_32
    2  A    between atoms: C_1  and  C_58
    3  A    between atoms: O_4  and  C_51
    4  A    between atoms: N_5  and  C_15
    5  A    between atoms: N_5  and  C_31
    6  A    between atoms: C_6  and  C_12
    7  A    between atoms: N_7  and  C_42
    8  A    between atoms: O_13  and  C_37
    9  A    between atoms: O_13  and  C_38
   10  A    between atoms: C_14  and  C_59
   11  A    between atoms: C_16  and  O_39
   12  A    between atoms: C_23  and  O_39
   13  A    between atoms: C_24  and  C_33
   14  A    between atoms: C_27  and  C_41
   15  A    between atoms: N_28  and  C_56
   16  A    between atoms: C_31  and  C_58
   17  A    between atoms: C_32  and  C_44
   18  A    between atoms: C_33  and  C_41
   19  A    between atoms: C_37  and  C_53
   20  A    between atoms: C_38  and  C_44
   21  A    between atoms: C_56  and  C_59
                            x       y       z     vdW  Elec       q    Type
                         _______ _______ _______ _____ _____    ______ ____

>  <TORSDO>
F 21

$$$$
