=
 OpenBabel11042412103D

 37 39  0  0  1  0  0  0  0  0999 V2000
  187.1450  178.4710  140.5680 C   0  0  0  0  0  0  0  0  0  0  0  0
  186.9280  178.4200  141.9100 N   0  0  0  0  0  0  0  0  0  0  0  0
  186.0510  178.6660  139.6850 C   0  0  0  0  0  0  0  0  0  0  0  0
  185.6890  178.5390  142.4610 C   0  0  0  0  0  0  0  0  0  0  0  0
  184.5880  178.7370  141.6240 C   0  0  0  0  0  3  0  0  0  0  0  0
  184.7690  178.8090  140.2430 C   0  0  0  0  0  0  0  0  0  0  0  0
  184.1820  178.8110  145.9290 C   0  0  0  0  0  3  0  0  0  0  0  0
  185.5220  178.4640  143.9280 C   0  0  0  0  0  0  0  0  0  0  0  0
  187.4190  177.4070  146.8820 F   0  0  0  0  0  0  0  0  0  0  0  0
  184.3300  178.8860  144.5410 C   0  0  0  0  0  3  0  0  0  0  0  0
  186.5600  177.9650  144.7310 C   0  0  0  0  0  3  0  0  0  0  0  0
  185.2220  178.3120  146.7170 C   0  0  0  0  0  3  0  0  0  0  0  0
  186.4110  177.8900  146.1180 C   0  0  0  0  0  0  0  0  0  0  0  0
  186.3060  177.6180  137.4160 C   0  0  0  0  0  1  0  0  0  0  0  0
  186.1670  178.7330  138.2850 O   0  0  0  0  0  0  0  0  0  0  0  0
  188.5580  178.3890  140.1000 C   0  0  0  0  0  2  0  0  0  0  0  0
  189.0680  177.0430  140.3190 N   0  0  0  0  0  2  0  0  0  0  0  0
  191.7070  177.4800  140.2600 S   0  0  0  0  0  0  0  0  0  0  0  0
  190.3570  176.7690  140.8750 C   0  0  0  0  0  0  0  0  0  0  0  0
  190.4400  175.8940  142.0060 N   0  0  0  0  0  2  0  0  0  0  0  0
  189.7610  176.1320  143.2720 C   0  0  2  0  0  3  0  0  0  0  0  0
  188.4160  175.7820  143.1530 O   0  0  0  0  0  1  0  0  0  0  0  0
  189.8640  177.6010  143.6490 C   0  0  0  0  0  2  0  0  0  0  0  0
  190.3960  177.7620  145.0350 C   0  0  0  0  0  3  0  0  0  0  0  0
  190.4340  176.7530  145.8470 N   0  0  0  0  0  0  0  0  0  0  0  0
  192.7110  175.2450  146.8840 O   0  0  0  0  0  1  0  0  0  0  0  0
  191.9630  176.1130  147.6710 C   0  0  0  0  0  3  0  0  0  0  0  0
  190.9210  176.8050  147.1980 C   0  0  0  0  0  3  0  0  0  0  0  0
  183.5680  178.9970  139.3700 C   0  0  0  0  0  2  0  0  0  0  0  0
  178.9310  177.1540  140.8920 Cl  0  0  0  0  0  0  0  0  0  0  0  0
  183.0280  176.5830  138.9800 C   0  0  0  0  0  3  0  0  0  0  0  0
  179.8260  174.2580  139.7350 Cl  0  0  0  0  0  0  0  0  0  0  0  0
  180.5050  176.9050  140.1540 C   0  0  0  0  0  0  0  0  0  0  0  0
  180.8920  175.6510  139.6510 C   0  0  0  0  0  0  0  0  0  0  0  0
  181.3830  177.9900  140.0650 C   0  0  0  0  0  3  0  0  0  0  0  0
  182.6450  177.8300  139.4840 C   0  0  0  0  0  0  0  0  0  0  0  0
  182.1530  175.4970  139.0660 C   0  0  0  0  0  3  0  0  0  0  0  0
  1  2  1  0  0  0  0
  2  4  2  0  0  0  0
  3  6  1  0  0  0  0
  3  1  2  0  0  0  0
  4  8  1  0  0  0  0
  5  4  1  0  0  0  0
  6  5  2  0  0  0  0
  7 12  1  0  0  0  0
  8 10  1  0  0  0  0
  8 11  2  0  0  0  0
 10  7  2  0  0  0  0
 11 13  1  0  0  0  0
 13 12  2  0  0  0  0
 13  9  1  0  0  0  0
 14 15  1  0  0  0  0
 15  3  1  0  0  0  0
 16 17  1  0  0  0  0
 16  1  1  0  0  0  0
 17 19  1  0  0  0  0
 18 19  2  0  0  0  0
 19 20  1  0  0  0  0
 20 21  1  0  0  0  0
 21 22  1  6  0  0  0
 21 23  1  0  0  0  0
 23 24  1  0  0  0  0
 24 25  2  0  0  0  0
 25 28  1  0  0  0  0
 26 27  1  0  0  0  0
 28 27  2  0  0  0  0
 29 36  1  0  0  0  0
 29  6  1  0  0  0  0
 31 37  2  0  0  0  0
 31 36  1  0  0  0  0
 33 30  1  0  0  0  0
 34 32  1  0  0  0  0
 34 33  2  0  0  0  0
 35 33  1  0  0  0  0
 36 35  2  0  0  0  0
 37 34  1  0  0  0  0
M  END
>  <MODEL>
1

>  <REMARK>
 VINA RESULT:      -8.4      0.000      0.000
  Name = 
  12 active torsions:
  status: ('A' for Active; 'I' for Inactive)
    1  A    between atoms: C_4  and  N_36
    2  A    between atoms: C_8  and  C_12
    3  A    between atoms: C_12  and  N_25
    4  A    between atoms: C_13  and  C_24
    5  A    between atoms: C_16  and  C_33
    6  A    between atoms: C_17  and  N_27
    7  A    between atoms: C_17  and  C_33
    8  A    between atoms: C_18  and  O_31
    9  A    between atoms: C_22  and  C_30
   10  A    between atoms: N_25  and  C_26
   11  A    between atoms: C_26  and  N_27
   12  A    between atoms: C_30  and  C_34
                            x       y       z     vdW  Elec       q    Type
                         _______ _______ _______ _____ _____    ______ ____

>  <TORSDO>
F 12

$$$$
=
 OpenBabel11042412103D

 37 39  0  0  1  0  0  0  0  0999 V2000
  187.3700  178.2930  140.6900 C   0  0  0  0  0  0  0  0  0  0  0  0
  187.1060  178.2500  142.0230 N   0  0  0  0  0  0  0  0  0  0  0  0
  186.3250  178.5820  139.7740 C   0  0  0  0  0  0  0  0  0  0  0  0
  185.8640  178.4660  142.5360 C   0  0  0  0  0  0  0  0  0  0  0  0
  184.8110  178.7590  141.6670 C   0  0  0  0  0  3  0  0  0  0  0  0
  185.0410  178.8250  140.2930 C   0  0  0  0  0  0  0  0  0  0  0  0
  184.2640  178.8160  145.9550 C   0  0  0  0  0  3  0  0  0  0  0  0
  185.6450  178.3940  143.9960 C   0  0  0  0  0  0  0  0  0  0  0  0
  187.3730  177.2040  147.0030 F   0  0  0  0  0  0  0  0  0  0  0  0
  184.4620  178.8890  144.5730 C   0  0  0  0  0  3  0  0  0  0  0  0
  186.6210  177.8260  144.8290 C   0  0  0  0  0  3  0  0  0  0  0  0
  185.2430  178.2480  146.7730 C   0  0  0  0  0  3  0  0  0  0  0  0
  186.4220  177.7540  146.2100 C   0  0  0  0  0  0  0  0  0  0  0  0
  186.6930  177.5370  137.5200 C   0  0  0  0  0  1  0  0  0  0  0  0
  186.4910  178.6490  138.3790 O   0  0  0  0  0  0  0  0  0  0  0  0
  188.7860  178.0990  140.2650 C   0  0  0  0  0  2  0  0  0  0  0  0
  189.4810  177.2760  141.2450 N   0  0  0  0  0  2  0  0  0  0  0  0
  191.9850  177.3860  140.3090 S   0  0  0  0  0  0  0  0  0  0  0  0
  190.8790  177.3970  141.5260 C   0  0  0  0  0  0  0  0  0  0  0  0
  191.2880  177.5690  142.8870 N   0  0  0  0  0  2  0  0  0  0  0  0
  190.8670  178.6780  143.7320 C   0  0  2  0  0  3  0  0  0  0  0  0
  191.9800  179.4340  144.0970 O   0  0  0  0  0  1  0  0  0  0  0  0
  190.1880  178.1480  144.9840 C   0  0  0  0  0  2  0  0  0  0  0  0
  190.8430  176.8920  145.4560 C   0  0  0  0  0  3  0  0  0  0  0  0
  191.5180  176.8760  146.5620 N   0  0  0  0  0  0  0  0  0  0  0  0
  193.0650  176.8200  149.0400 O   0  0  0  0  0  1  0  0  0  0  0  0
  192.8960  175.7010  148.2330 C   0  0  0  0  0  3  0  0  0  0  0  0
  192.1870  175.7240  147.0990 C   0  0  0  0  0  3  0  0  0  0  0  0
  183.8880  179.1160  139.3840 C   0  0  0  0  0  2  0  0  0  0  0  0
  182.7950  174.3500  137.5680 Cl  0  0  0  0  0  0  0  0  0  0  0  0
  181.7690  177.9940  140.1040 C   0  0  0  0  0  3  0  0  0  0  0  0
  180.0650  174.4290  139.3200 Cl  0  0  0  0  0  0  0  0  0  0  0  0
  182.3730  175.7420  138.5500 C   0  0  0  0  0  0  0  0  0  0  0  0
  181.1910  175.7760  139.3110 C   0  0  0  0  0  0  0  0  0  0  0  0
  183.2440  176.8360  138.5730 C   0  0  0  0  0  3  0  0  0  0  0  0
  182.9430  177.9630  139.3450 C   0  0  0  0  0  0  0  0  0  0  0  0
  180.8960  176.9030  140.0850 C   0  0  0  0  0  3  0  0  0  0  0  0
  1  2  1  0  0  0  0
  2  4  2  0  0  0  0
  3  6  1  0  0  0  0
  3  1  2  0  0  0  0
  4  8  1  0  0  0  0
  5  4  1  0  0  0  0
  6  5  2  0  0  0  0
  7 12  1  0  0  0  0
  8 10  1  0  0  0  0
  8 11  2  0  0  0  0
 10  7  2  0  0  0  0
 11 13  1  0  0  0  0
 13 12  2  0  0  0  0
 13  9  1  0  0  0  0
 14 15  1  0  0  0  0
 15  3  1  0  0  0  0
 16  1  1  0  0  0  0
 16 17  1  0  0  0  0
 17 19  1  0  0  0  0
 18 19  2  0  0  0  0
 19 20  1  0  0  0  0
 20 21  1  0  0  0  0
 21 22  1  1  0  0  0
 21 23  1  0  0  0  0
 23 24  1  0  0  0  0
 24 25  2  0  0  0  0
 25 28  1  0  0  0  0
 27 26  1  0  0  0  0
 28 27  2  0  0  0  0
 29  6  1  0  0  0  0
 30 33  1  0  0  0  0
 33 35  2  0  0  0  0
 33 34  1  0  0  0  0
 34 32  1  0  0  0  0
 34 37  2  0  0  0  0
 35 36  1  0  0  0  0
 36 29  1  0  0  0  0
 36 31  2  0  0  0  0
 37 31  1  0  0  0  0
M  END
>  <MODEL>
2

>  <REMARK>
 VINA RESULT:      -8.3      1.346      1.781
  Name = 
  12 active torsions:
  status: ('A' for Active; 'I' for Inactive)
    1  A    between atoms: C_4  and  N_36
    2  A    between atoms: C_8  and  C_12
    3  A    between atoms: C_12  and  N_25
    4  A    between atoms: C_13  and  C_24
    5  A    between atoms: C_16  and  C_33
    6  A    between atoms: C_17  and  N_27
    7  A    between atoms: C_17  and  C_33
    8  A    between atoms: C_18  and  O_31
    9  A    between atoms: C_22  and  C_30
   10  A    between atoms: N_25  and  C_26
   11  A    between atoms: C_26  and  N_27
   12  A    between atoms: C_30  and  C_34
                            x       y       z     vdW  Elec       q    Type
                         _______ _______ _______ _____ _____    ______ ____

>  <TORSDO>
F 12

$$$$
=
 OpenBabel11042412103D

 37 39  0  0  1  0  0  0  0  0999 V2000
  188.2980  178.1340  140.4160 C   0  0  0  0  0  0  0  0  0  0  0  0
  187.0300  178.4090  140.8240 N   0  0  0  0  0  0  0  0  0  0  0  0
  189.1630  177.3890  141.2580 C   0  0  0  0  0  0  0  0  0  0  0  0
  186.5400  178.0060  142.0270 C   0  0  0  0  0  0  0  0  0  0  0  0
  187.3600  177.2650  142.8820 C   0  0  0  0  0  3  0  0  0  0  0  0
  188.6620  176.9510  142.4960 C   0  0  0  0  0  0  0  0  0  0  0  0
  182.8270  178.7470  141.8240 C   0  0  0  0  0  3  0  0  0  0  0  0
  185.1540  178.3470  142.4140 C   0  0  0  0  0  0  0  0  0  0  0  0
  183.2420  179.1700  145.4320 F   0  0  0  0  0  0  0  0  0  0  0  0
  184.1340  178.4220  141.4500 C   0  0  0  0  0  3  0  0  0  0  0  0
  184.8390  178.6020  143.7570 C   0  0  0  0  0  3  0  0  0  0  0  0
  182.5260  178.9970  143.1660 C   0  0  0  0  0  3  0  0  0  0  0  0
  183.5320  178.9260  144.1320 C   0  0  0  0  0  0  0  0  0  0  0  0
  191.6470  177.7480  141.3720 C   0  0  0  0  0  1  0  0  0  0  0  0
  190.4890  177.0530  140.9320 O   0  0  0  0  0  0  0  0  0  0  0  0
  188.6880  178.5810  139.0480 C   0  0  0  0  0  2  0  0  0  0  0  0
  188.3110  177.5660  138.0750 N   0  0  0  0  0  2  0  0  0  0  0  0
  188.7680  176.0810  135.8970 S   0  0  0  0  0  0  0  0  0  0  0  0
  189.2540  176.8650  137.2590 C   0  0  0  0  0  0  0  0  0  0  0  0
  190.6350  176.8970  137.6340 N   0  0  0  0  0  2  0  0  0  0  0  0
  191.5970  175.8570  137.2920 C   0  0  2  0  0  3  0  0  0  0  0  0
  191.3140  174.7030  138.0230 O   0  0  0  0  0  1  0  0  0  0  0  0
  193.0050  176.3250  137.6200 C   0  0  0  0  0  2  0  0  0  0  0  0
  193.8670  175.1780  138.0330 C   0  0  0  0  0  3  0  0  0  0  0  0
  195.1580  175.2840  138.0160 N   0  0  0  0  0  0  0  0  0  0  0  0
  198.0590  175.3770  137.6790 O   0  0  0  0  0  1  0  0  0  0  0  0
  197.4000  174.2840  138.2320 C   0  0  0  0  0  3  0  0  0  0  0  0
  196.0730  174.2410  138.3880 C   0  0  0  0  0  3  0  0  0  0  0  0
  189.5260  176.1780  143.4440 C   0  0  0  0  0  2  0  0  0  0  0  0
  186.4990  178.3680  147.0850 Cl  0  0  0  0  0  0  0  0  0  0  0  0
  190.4930  176.6650  145.7010 C   0  0  0  0  0  3  0  0  0  0  0  0
  189.0400  178.2650  149.1000 Cl  0  0  0  0  0  0  0  0  0  0  0  0
  188.0500  177.7210  146.5770 C   0  0  0  0  0  0  0  0  0  0  0  0
  189.1510  177.6750  147.4510 C   0  0  0  0  0  0  0  0  0  0  0  0
  188.1800  177.2380  145.2710 C   0  0  0  0  0  3  0  0  0  0  0  0
  189.4000  176.7140  144.8300 C   0  0  0  0  0  0  0  0  0  0  0  0
  190.3670  177.1460  147.0070 C   0  0  0  0  0  3  0  0  0  0  0  0
  1  2  2  0  0  0  0
  1  3  1  0  0  0  0
  2  4  1  0  0  0  0
  3  6  2  0  0  0  0
  4  8  1  0  0  0  0
  4  5  2  0  0  0  0
  6  5  1  0  0  0  0
  6 29  1  0  0  0  0
  7 12  1  0  0  0  0
  8 11  2  0  0  0  0
 10  7  2  0  0  0  0
 10  8  1  0  0  0  0
 11 13  1  0  0  0  0
 12 13  2  0  0  0  0
 13  9  1  0  0  0  0
 15  3  1  0  0  0  0
 15 14  1  0  0  0  0
 16  1  1  0  0  0  0
 17 16  1  0  0  0  0
 18 19  2  0  0  0  0
 19 20  1  0  0  0  0
 19 17  1  0  0  0  0
 21 23  1  0  0  0  0
 21 20  1  0  0  0  0
 21 22  1  1  0  0  0
 23 24  1  0  0  0  0
 25 24  2  0  0  0  0
 25 28  1  0  0  0  0
 26 27  1  0  0  0  0
 27 28  2  0  0  0  0
 29 36  1  0  0  0  0
 31 37  1  0  0  0  0
 33 30  1  0  0  0  0
 33 34  1  0  0  0  0
 34 32  1  0  0  0  0
 35 33  2  0  0  0  0
 36 35  1  0  0  0  0
 36 31  2  0  0  0  0
 37 34  2  0  0  0  0
M  END
>  <MODEL>
3

>  <REMARK>
 VINA RESULT:      -7.9      4.497      7.113
  Name = 
  12 active torsions:
  status: ('A' for Active; 'I' for Inactive)
    1  A    between atoms: C_4  and  N_36
    2  A    between atoms: C_8  and  C_12
    3  A    between atoms: C_12  and  N_25
    4  A    between atoms: C_13  and  C_24
    5  A    between atoms: C_16  and  C_33
    6  A    between atoms: C_17  and  N_27
    7  A    between atoms: C_17  and  C_33
    8  A    between atoms: C_18  and  O_31
    9  A    between atoms: C_22  and  C_30
   10  A    between atoms: N_25  and  C_26
   11  A    between atoms: C_26  and  N_27
   12  A    between atoms: C_30  and  C_34
                            x       y       z     vdW  Elec       q    Type
                         _______ _______ _______ _____ _____    ______ ____

>  <TORSDO>
F 12

$$$$
=
 OpenBabel11042412103D

 37 39  0  0  1  0  0  0  0  0999 V2000
  188.1600  178.2430  140.4250 C   0  0  0  0  0  0  0  0  0  0  0  0
  186.9020  178.4780  140.8850 N   0  0  0  0  0  0  0  0  0  0  0  0
  189.0920  177.5530  141.2440 C   0  0  0  0  0  0  0  0  0  0  0  0
  186.4830  178.0850  142.1190 C   0  0  0  0  0  0  0  0  0  0  0  0
  187.3700  177.3980  142.9520 C   0  0  0  0  0  3  0  0  0  0  0  0
  188.6650  177.1260  142.5130 C   0  0  0  0  0  0  0  0  0  0  0  0
  182.7360  178.6610  142.0730 C   0  0  0  0  0  3  0  0  0  0  0  0
  185.1040  178.3810  142.5610 C   0  0  0  0  0  0  0  0  0  0  0  0
  183.3020  179.2290  145.6390 F   0  0  0  0  0  0  0  0  0  0  0  0
  184.0370  178.3790  141.6460 C   0  0  0  0  0  3  0  0  0  0  0  0
  184.8420  178.6700  143.9090 C   0  0  0  0  0  3  0  0  0  0  0  0
  182.4890  178.9460  143.4180 C   0  0  0  0  0  3  0  0  0  0  0  0
  183.5410  178.9520  144.3350 C   0  0  0  0  0  0  0  0  0  0  0  0
  190.8040  176.6450  139.6460 C   0  0  0  0  0  1  0  0  0  0  0  0
  190.4140  177.2610  140.8640 O   0  0  0  0  0  0  0  0  0  0  0  0
  188.4700  178.6710  139.0310 C   0  0  0  0  0  2  0  0  0  0  0  0
  187.2460  178.6940  138.2430 N   0  0  0  0  0  2  0  0  0  0  0  0
  188.3940  177.8400  135.9820 S   0  0  0  0  0  0  0  0  0  0  0  0
  187.1040  178.0250  136.9870 C   0  0  0  0  0  0  0  0  0  0  0  0
  185.8250  177.4840  136.6430 N   0  0  0  0  0  2  0  0  0  0  0  0
  185.3990  176.1280  136.9630 C   0  0  2  0  0  3  0  0  0  0  0  0
  185.7310  175.2750  135.9110 O   0  0  0  0  0  1  0  0  0  0  0  0
  183.8960  176.0930  137.1810 C   0  0  0  0  0  2  0  0  0  0  0  0
  183.3250  177.4720  137.1950 C   0  0  0  0  0  3  0  0  0  0  0  0
  182.7850  177.9510  138.2700 N   0  0  0  0  0  0  0  0  0  0  0  0
  184.2270  180.3810  139.0130 O   0  0  0  0  0  1  0  0  0  0  0  0
  182.8670  180.3720  138.7260 C   0  0  0  0  0  3  0  0  0  0  0  0
  182.2050  179.2610  138.3850 C   0  0  0  0  0  3  0  0  0  0  0  0
  189.6010  176.4100  143.4370 C   0  0  0  0  0  2  0  0  0  0  0  0
  186.4000  178.2700  147.1120 Cl  0  0  0  0  0  0  0  0  0  0  0  0
  190.5100  176.8780  145.7230 C   0  0  0  0  0  3  0  0  0  0  0  0
  188.9190  178.2580  149.1560 Cl  0  0  0  0  0  0  0  0  0  0  0  0
  187.9950  177.7420  146.6020 C   0  0  0  0  0  0  0  0  0  0  0  0
  189.0860  177.7360  147.4890 C   0  0  0  0  0  0  0  0  0  0  0  0
  188.1700  177.3150  145.2820 C   0  0  0  0  0  3  0  0  0  0  0  0
  189.4260  176.8870  144.8390 C   0  0  0  0  0  0  0  0  0  0  0  0
  190.3390  177.3020  147.0430 C   0  0  0  0  0  3  0  0  0  0  0  0
  1  2  2  0  0  0  0
  1  3  1  0  0  0  0
  2  4  1  0  0  0  0
  3  6  2  0  0  0  0
  4  8  1  0  0  0  0
  4  5  2  0  0  0  0
  6  5  1  0  0  0  0
  6 29  1  0  0  0  0
  7 12  1  0  0  0  0
  8 11  2  0  0  0  0
 10  7  2  0  0  0  0
 10  8  1  0  0  0  0
 11 13  1  0  0  0  0
 12 13  2  0  0  0  0
 13  9  1  0  0  0  0
 14 15  1  0  0  0  0
 15  3  1  0  0  0  0
 16  1  1  0  0  0  0
 17 16  1  0  0  0  0
 18 19  2  0  0  0  0
 19 17  1  0  0  0  0
 20 21  1  0  0  0  0
 20 19  1  0  0  0  0
 21 22  1  6  0  0  0
 21 23  1  0  0  0  0
 23 24  1  0  0  0  0
 24 25  2  0  0  0  0
 25 28  1  0  0  0  0
 27 26  1  0  0  0  0
 28 27  2  0  0  0  0
 29 36  1  0  0  0  0
 31 37  1  0  0  0  0
 33 30  1  0  0  0  0
 33 34  1  0  0  0  0
 34 32  1  0  0  0  0
 35 33  2  0  0  0  0
 36 35  1  0  0  0  0
 36 31  2  0  0  0  0
 37 34  2  0  0  0  0
M  END
>  <MODEL>
4

>  <REMARK>
 VINA RESULT:      -7.7      3.608      7.705
  Name = 
  12 active torsions:
  status: ('A' for Active; 'I' for Inactive)
    1  A    between atoms: C_4  and  N_36
    2  A    between atoms: C_8  and  C_12
    3  A    between atoms: C_12  and  N_25
    4  A    between atoms: C_13  and  C_24
    5  A    between atoms: C_16  and  C_33
    6  A    between atoms: C_17  and  N_27
    7  A    between atoms: C_17  and  C_33
    8  A    between atoms: C_18  and  O_31
    9  A    between atoms: C_22  and  C_30
   10  A    between atoms: N_25  and  C_26
   11  A    between atoms: C_26  and  N_27
   12  A    between atoms: C_30  and  C_34
                            x       y       z     vdW  Elec       q    Type
                         _______ _______ _______ _____ _____    ______ ____

>  <TORSDO>
F 12

$$$$
=
 OpenBabel11042412103D

 37 39  0  0  1  0  0  0  0  0999 V2000
  185.6860  178.4520  142.0880 C   0  0  0  0  0  0  0  0  0  0  0  0
  186.9570  178.2900  141.6320 N   0  0  0  0  0  0  0  0  0  0  0  0
  185.3840  178.1680  143.4450 C   0  0  0  0  0  0  0  0  0  0  0  0
  187.9740  177.8540  142.4240 C   0  0  0  0  0  0  0  0  0  0  0  0
  187.7170  177.5700  143.7670 C   0  0  0  0  0  3  0  0  0  0  0  0
  186.4300  177.7340  144.2780 C   0  0  0  0  0  0  0  0  0  0  0  0
  191.7420  177.5300  142.1540 C   0  0  0  0  0  3  0  0  0  0  0  0
  189.3320  177.6910  141.8610 C   0  0  0  0  0  0  0  0  0  0  0  0
  190.9430  177.2370  138.5990 F   0  0  0  0  0  0  0  0  0  0  0  0
  190.4630  177.6850  142.6960 C   0  0  0  0  0  3  0  0  0  0  0  0
  189.5070  177.5380  140.4770 C   0  0  0  0  0  3  0  0  0  0  0  0
  191.9040  177.3780  140.7750 C   0  0  0  0  0  3  0  0  0  0  0  0
  190.7870  177.3830  139.9370 C   0  0  0  0  0  0  0  0  0  0  0  0
  183.4790  179.5290  144.3570 C   0  0  0  0  0  1  0  0  0  0  0  0
  184.1050  178.3000  144.0160 O   0  0  0  0  0  0  0  0  0  0  0  0
  184.6800  178.9960  141.1320 C   0  0  0  0  0  2  0  0  0  0  0  0
  185.3270  179.3080  139.8660 N   0  0  0  0  0  2  0  0  0  0  0  0
  183.6410  177.7780  138.4630 S   0  0  0  0  0  0  0  0  0  0  0  0
  185.0400  178.6240  138.6440 C   0  0  0  0  0  0  0  0  0  0  0  0
  185.9790  178.7250  137.5680 N   0  0  0  0  0  2  0  0  0  0  0  0
  187.3290  178.1790  137.6090 C   0  0  2  0  0  3  0  0  0  0  0  0
  188.2380  179.2040  137.8720 O   0  0  0  0  0  1  0  0  0  0  0  0
  187.6700  177.5380  136.2740 C   0  0  0  0  0  2  0  0  0  0  0  0
  187.8530  176.0640  136.4200 C   0  0  0  0  0  3  0  0  0  0  0  0
  188.9570  175.4970  136.0490 N   0  0  0  0  0  0  0  0  0  0  0  0
  190.9680  174.2740  137.7810 O   0  0  0  0  0  1  0  0  0  0  0  0
  190.1520  173.5320  136.9360 C   0  0  0  0  0  3  0  0  0  0  0  0
  189.2300  174.0890  136.1430 C   0  0  0  0  0  3  0  0  0  0  0  0
  186.1780  177.3980  145.7150 C   0  0  0  0  0  2  0  0  0  0  0  0
  191.3270  176.6250  146.0470 Cl  0  0  0  0  0  0  0  0  0  0  0  0
  187.3940  178.1510  147.7700 C   0  0  0  0  0  3  0  0  0  0  0  0
  191.2400  178.0460  148.9620 Cl  0  0  0  0  0  0  0  0  0  0  0  0
  189.8250  177.2190  146.7360 C   0  0  0  0  0  0  0  0  0  0  0  0
  189.7880  177.8360  147.9990 C   0  0  0  0  0  0  0  0  0  0  0  0
  188.6450  177.0730  146.0000 C   0  0  0  0  0  3  0  0  0  0  0  0
  187.4300  177.5340  146.5160 C   0  0  0  0  0  0  0  0  0  0  0  0
  188.5710  178.3000  148.5090 C   0  0  0  0  0  3  0  0  0  0  0  0
  1  3  1  0  0  0  0
  2  1  2  0  0  0  0
  2  4  1  0  0  0  0
  3 15  1  0  0  0  0
  3  6  2  0  0  0  0
  4  5  2  0  0  0  0
  5  6  1  0  0  0  0
  6 29  1  0  0  0  0
  7 10  1  0  0  0  0
  8  4  1  0  0  0  0
  8 10  2  0  0  0  0
  9 13  1  0  0  0  0
 11  8  1  0  0  0  0
 12  7  2  0  0  0  0
 13 11  2  0  0  0  0
 13 12  1  0  0  0  0
 15 14  1  0  0  0  0
 16  1  1  0  0  0  0
 17 16  1  0  0  0  0
 18 19  2  0  0  0  0
 19 17  1  0  0  0  0
 20 21  1  0  0  0  0
 20 19  1  0  0  0  0
 21 22  1  6  0  0  0
 23 24  1  0  0  0  0
 23 21  1  0  0  0  0
 25 28  1  0  0  0  0
 25 24  2  0  0  0  0
 27 26  1  0  0  0  0
 28 27  2  0  0  0  0
 29 36  1  0  0  0  0
 30 33  1  0  0  0  0
 31 37  1  0  0  0  0
 33 34  1  0  0  0  0
 34 37  2  0  0  0  0
 34 32  1  0  0  0  0
 35 36  1  0  0  0  0
 35 33  2  0  0  0  0
 36 31  2  0  0  0  0
M  END
>  <MODEL>
5

>  <REMARK>
 VINA RESULT:      -7.6      4.706      8.284
  Name = 
  12 active torsions:
  status: ('A' for Active; 'I' for Inactive)
    1  A    between atoms: C_4  and  N_36
    2  A    between atoms: C_8  and  C_12
    3  A    between atoms: C_12  and  N_25
    4  A    between atoms: C_13  and  C_24
    5  A    between atoms: C_16  and  C_33
    6  A    between atoms: C_17  and  N_27
    7  A    between atoms: C_17  and  C_33
    8  A    between atoms: C_18  and  O_31
    9  A    between atoms: C_22  and  C_30
   10  A    between atoms: N_25  and  C_26
   11  A    between atoms: C_26  and  N_27
   12  A    between atoms: C_30  and  C_34
                            x       y       z     vdW  Elec       q    Type
                         _______ _______ _______ _____ _____    ______ ____

>  <TORSDO>
F 12

$$$$
=
 OpenBabel11042412103D

 37 39  0  0  1  0  0  0  0  0999 V2000
  185.5180  178.8410  140.5080 C   0  0  0  0  0  0  0  0  0  0  0  0
  186.8540  178.5910  140.5320 N   0  0  0  0  0  0  0  0  0  0  0  0
  184.7560  178.7170  141.6980 C   0  0  0  0  0  0  0  0  0  0  0  0
  187.5120  178.2110  141.6620 C   0  0  0  0  0  0  0  0  0  0  0  0
  186.7960  178.0830  142.8550 C   0  0  0  0  0  3  0  0  0  0  0  0
  185.4260  178.3420  142.8750 C   0  0  0  0  0  0  0  0  0  0  0  0
  190.9600  177.2720  140.3950 C   0  0  0  0  0  3  0  0  0  0  0  0
  188.9650  177.9440  141.6170 C   0  0  0  0  0  0  0  0  0  0  0  0
  191.8680  178.0280  143.8550 F   0  0  0  0  0  0  0  0  0  0  0  0
  189.5850  177.5220  140.4280 C   0  0  0  0  0  3  0  0  0  0  0  0
  189.7490  178.1120  142.7690 C   0  0  0  0  0  3  0  0  0  0  0  0
  191.7290  177.4430  141.5490 C   0  0  0  0  0  3  0  0  0  0  0  0
  191.1230  177.8620  142.7360 C   0  0  0  0  0  0  0  0  0  0  0  0
  182.3670  178.1950  141.1170 C   0  0  0  0  0  1  0  0  0  0  0  0
  183.3710  178.9510  141.7800 O   0  0  0  0  0  0  0  0  0  0  0  0
  184.9330  179.3110  139.2190 C   0  0  0  0  0  2  0  0  0  0  0  0
  184.7550  178.1780  138.3220 N   0  0  0  0  0  2  0  0  0  0  0  0
  185.6690  176.2460  136.7120 S   0  0  0  0  0  0  0  0  0  0  0  0
  185.7550  177.7390  137.3970 C   0  0  0  0  0  0  0  0  0  0  0  0
  186.8080  178.6440  137.0510 N   0  0  0  0  0  2  0  0  0  0  0  0
  188.2240  178.3050  137.1010 C   0  0  2  0  0  3  0  0  0  0  0  0
  188.9530  179.4120  137.5350 O   0  0  0  0  0  1  0  0  0  0  0  0
  188.7090  177.8960  135.7200 C   0  0  0  0  0  2  0  0  0  0  0  0
  189.4200  176.5850  135.7690 C   0  0  0  0  0  3  0  0  0  0  0  0
  190.7010  176.5360  135.9590 N   0  0  0  0  0  0  0  0  0  0  0  0
  190.6730  174.6110  138.1570 O   0  0  0  0  0  1  0  0  0  0  0  0
  191.4640  174.4490  137.0250 C   0  0  0  0  0  3  0  0  0  0  0  0
  191.4770  175.3290  136.0170 C   0  0  0  0  0  3  0  0  0  0  0  0
  184.6820  178.1720  144.1630 C   0  0  0  0  0  2  0  0  0  0  0  0
  189.3440  176.8250  146.0770 Cl  0  0  0  0  0  0  0  0  0  0  0  0
  185.2600  178.7970  146.5170 C   0  0  0  0  0  3  0  0  0  0  0  0
  188.4950  178.2660  148.8570 Cl  0  0  0  0  0  0  0  0  0  0  0  0
  187.7760  177.5890  146.2750 C   0  0  0  0  0  0  0  0  0  0  0  0
  187.4090  178.2150  147.4790 C   0  0  0  0  0  0  0  0  0  0  0  0
  186.8810  177.5730  145.2010 C   0  0  0  0  0  3  0  0  0  0  0  0
  185.6220  178.1710  145.3200 C   0  0  0  0  0  0  0  0  0  0  0  0
  186.1510  178.8170  147.5930 C   0  0  0  0  0  3  0  0  0  0  0  0
  1  2  2  0  0  0  0
  1  3  1  0  0  0  0
  2  4  1  0  0  0  0
  3 15  1  0  0  0  0
  3  6  2  0  0  0  0
  4  5  2  0  0  0  0
  5  6  1  0  0  0  0
  6 29  1  0  0  0  0
  7 10  2  0  0  0  0
  7 12  1  0  0  0  0
  8  4  1  0  0  0  0
  8 11  2  0  0  0  0
 10  8  1  0  0  0  0
 12 13  2  0  0  0  0
 13 11  1  0  0  0  0
 13  9  1  0  0  0  0
 14 15  1  0  0  0  0
 16  1  1  0  0  0  0
 17 16  1  0  0  0  0
 18 19  2  0  0  0  0
 19 17  1  0  0  0  0
 20 21  1  0  0  0  0
 20 19  1  0  0  0  0
 21 22  1  6  0  0  0
 23 24  1  0  0  0  0
 23 21  1  0  0  0  0
 24 25  2  0  0  0  0
 25 28  1  0  0  0  0
 27 26  1  0  0  0  0
 28 27  2  0  0  0  0
 29 36  1  0  0  0  0
 30 33  1  0  0  0  0
 31 37  1  0  0  0  0
 33 34  1  0  0  0  0
 34 37  2  0  0  0  0
 34 32  1  0  0  0  0
 35 36  1  0  0  0  0
 35 33  2  0  0  0  0
 36 31  2  0  0  0  0
M  END
>  <MODEL>
6

>  <REMARK>
 VINA RESULT:      -7.6      4.185      7.360
  Name = 
  12 active torsions:
  status: ('A' for Active; 'I' for Inactive)
    1  A    between atoms: C_4  and  N_36
    2  A    between atoms: C_8  and  C_12
    3  A    between atoms: C_12  and  N_25
    4  A    between atoms: C_13  and  C_24
    5  A    between atoms: C_16  and  C_33
    6  A    between atoms: C_17  and  N_27
    7  A    between atoms: C_17  and  C_33
    8  A    between atoms: C_18  and  O_31
    9  A    between atoms: C_22  and  C_30
   10  A    between atoms: N_25  and  C_26
   11  A    between atoms: C_26  and  N_27
   12  A    between atoms: C_30  and  C_34
                            x       y       z     vdW  Elec       q    Type
                         _______ _______ _______ _____ _____    ______ ____

>  <TORSDO>
F 12

$$$$
=
 OpenBabel11042412103D

 37 39  0  0  1  0  0  0  0  0999 V2000
  187.3230  178.3480  139.9710 C   0  0  0  0  0  0  0  0  0  0  0  0
  187.1230  178.2830  141.3150 N   0  0  0  0  0  0  0  0  0  0  0  0
  186.2170  178.5360  139.1020 C   0  0  0  0  0  0  0  0  0  0  0  0
  185.8900  178.3820  141.8810 C   0  0  0  0  0  0  0  0  0  0  0  0
  184.7760  178.5740  141.0590 C   0  0  0  0  0  3  0  0  0  0  0  0
  184.9400  178.6590  139.6770 C   0  0  0  0  0  0  0  0  0  0  0  0
  186.6380  177.7240  145.5390 C   0  0  0  0  0  3  0  0  0  0  0  0
  185.7410  178.2920  143.3490 C   0  0  0  0  0  0  0  0  0  0  0  0
  183.2370  179.0070  145.9300 F   0  0  0  0  0  0  0  0  0  0  0  0
  186.7880  177.8050  144.1520 C   0  0  0  0  0  3  0  0  0  0  0  0
  184.5450  178.6960  143.9630 C   0  0  0  0  0  3  0  0  0  0  0  0
  185.4420  178.1300  146.1380 C   0  0  0  0  0  3  0  0  0  0  0  0
  184.3960  178.6150  145.3500 C   0  0  0  0  0  0  0  0  0  0  0  0
  186.3900  177.5080  136.8160 C   0  0  0  0  0  1  0  0  0  0  0  0
  186.3150  178.6160  137.7010 O   0  0  0  0  0  0  0  0  0  0  0  0
  188.7310  178.2870  139.4850 C   0  0  0  0  0  2  0  0  0  0  0  0
  189.3470  177.0430  139.9240 N   0  0  0  0  0  2  0  0  0  0  0  0
  192.0200  177.1590  139.9040 S   0  0  0  0  0  0  0  0  0  0  0  0
  190.5700  176.9870  140.6630 C   0  0  0  0  0  0  0  0  0  0  0  0
  190.5020  176.8180  142.0830 N   0  0  0  0  0  2  0  0  0  0  0  0
  191.6450  176.9540  142.9760 C   0  0  2  0  0  3  0  0  0  0  0  0
  191.8870  175.7360  143.6120 O   0  0  0  0  0  1  0  0  0  0  0  0
  191.3620  178.0180  144.0240 C   0  0  0  0  0  2  0  0  0  0  0  0
  191.1680  177.4050  145.3710 C   0  0  0  0  0  3  0  0  0  0  0  0
  189.9970  177.3850  145.9240 N   0  0  0  0  0  0  0  0  0  0  0  0
  188.6800  178.7890  148.1210 O   0  0  0  0  0  1  0  0  0  0  0  0
  189.1060  177.4700  148.2200 C   0  0  0  0  0  3  0  0  0  0  0  0
  189.7080  176.8250  147.2150 C   0  0  0  0  0  3  0  0  0  0  0  0
  183.7260  178.8390  138.8190 C   0  0  0  0  0  2  0  0  0  0  0  0
  178.9330  177.2870  140.1720 Cl  0  0  0  0  0  0  0  0  0  0  0  0
  183.1640  176.4010  138.7300 C   0  0  0  0  0  3  0  0  0  0  0  0
  179.8550  174.2440  139.5220 Cl  0  0  0  0  0  0  0  0  0  0  0  0
  180.5580  176.9170  139.6190 C   0  0  0  0  0  0  0  0  0  0  0  0
  180.9560  175.5980  139.3360 C   0  0  0  0  0  0  0  0  0  0  0  0
  181.4660  177.9670  139.4550 C   0  0  0  0  0  3  0  0  0  0  0  0
  182.7690  177.7120  139.0160 C   0  0  0  0  0  0  0  0  0  0  0  0
  182.2590  175.3480  138.8910 C   0  0  0  0  0  3  0  0  0  0  0  0
  1  2  1  0  0  0  0
  2  4  2  0  0  0  0
  3  6  1  0  0  0  0
  3  1  2  0  0  0  0
  4  8  1  0  0  0  0
  5  4  1  0  0  0  0
  6  5  2  0  0  0  0
  7 12  1  0  0  0  0
  8 11  2  0  0  0  0
  8 10  1  0  0  0  0
 10  7  2  0  0  0  0
 11 13  1  0  0  0  0
 13  9  1  0  0  0  0
 13 12  2  0  0  0  0
 14 15  1  0  0  0  0
 15  3  1  0  0  0  0
 16 17  1  0  0  0  0
 16  1  1  0  0  0  0
 17 19  1  0  0  0  0
 18 19  2  0  0  0  0
 19 20  1  0  0  0  0
 20 21  1  0  0  0  0
 21 22  1  1  0  0  0
 21 23  1  0  0  0  0
 23 24  1  0  0  0  0
 24 25  2  0  0  0  0
 25 28  1  0  0  0  0
 26 27  1  0  0  0  0
 28 27  2  0  0  0  0
 29 36  1  0  0  0  0
 29  6  1  0  0  0  0
 31 37  2  0  0  0  0
 31 36  1  0  0  0  0
 33 30  1  0  0  0  0
 34 32  1  0  0  0  0
 34 33  2  0  0  0  0
 35 33  1  0  0  0  0
 36 35  2  0  0  0  0
 37 34  1  0  0  0  0
M  END
>  <MODEL>
7

>  <REMARK>
 VINA RESULT:      -7.5      1.528      1.777
  Name = 
  12 active torsions:
  status: ('A' for Active; 'I' for Inactive)
    1  A    between atoms: C_4  and  N_36
    2  A    between atoms: C_8  and  C_12
    3  A    between atoms: C_12  and  N_25
    4  A    between atoms: C_13  and  C_24
    5  A    between atoms: C_16  and  C_33
    6  A    between atoms: C_17  and  N_27
    7  A    between atoms: C_17  and  C_33
    8  A    between atoms: C_18  and  O_31
    9  A    between atoms: C_22  and  C_30
   10  A    between atoms: N_25  and  C_26
   11  A    between atoms: C_26  and  N_27
   12  A    between atoms: C_30  and  C_34
                            x       y       z     vdW  Elec       q    Type
                         _______ _______ _______ _____ _____    ______ ____

>  <TORSDO>
F 12

$$$$
=
 OpenBabel11042412103D

 37 39  0  0  1  0  0  0  0  0999 V2000
  188.3770  178.1880  140.3660 C   0  0  0  0  0  0  0  0  0  0  0  0
  187.1130  178.4680  140.7820 N   0  0  0  0  0  0  0  0  0  0  0  0
  189.2570  177.4730  141.2190 C   0  0  0  0  0  0  0  0  0  0  0  0
  186.6410  178.0990  142.0040 C   0  0  0  0  0  0  0  0  0  0  0  0
  187.4770  177.3890  142.8700 C   0  0  0  0  0  3  0  0  0  0  0  0
  188.7760  177.0700  142.4760 C   0  0  0  0  0  0  0  0  0  0  0  0
  182.9470  178.9290  141.8150 C   0  0  0  0  0  3  0  0  0  0  0  0
  185.2590  178.4450  142.3990 C   0  0  0  0  0  0  0  0  0  0  0  0
  183.3320  179.1150  145.4450 F   0  0  0  0  0  0  0  0  0  0  0  0
  184.2510  178.6020  141.4320 C   0  0  0  0  0  3  0  0  0  0  0  0
  184.9360  178.6200  143.7530 C   0  0  0  0  0  3  0  0  0  0  0  0
  182.6370  179.1010  143.1660 C   0  0  0  0  0  3  0  0  0  0  0  0
  183.6310  178.9470  144.1350 C   0  0  0  0  0  0  0  0  0  0  0  0
  191.7350  177.8890  141.2250 C   0  0  0  0  0  1  0  0  0  0  0  0
  190.5810  177.1350  140.8850 O   0  0  0  0  0  0  0  0  0  0  0  0
  188.7470  178.5960  138.9800 C   0  0  0  0  0  2  0  0  0  0  0  0
  187.5690  178.5460  138.1250 N   0  0  0  0  0  2  0  0  0  0  0  0
  186.5360  177.7320  135.7960 S   0  0  0  0  0  0  0  0  0  0  0  0
  187.2860  177.4630  137.2350 C   0  0  0  0  0  0  0  0  0  0  0  0
  187.7050  176.1460  137.6080 N   0  0  0  0  0  2  0  0  0  0  0  0
  187.5990  174.9810  136.7400 C   0  0  2  0  0  3  0  0  0  0  0  0
  186.5180  174.1980  137.1430 O   0  0  0  0  0  1  0  0  0  0  0  0
  188.8730  174.1550  136.8220 C   0  0  0  0  0  2  0  0  0  0  0  0
  190.0570  175.0230  137.0890 C   0  0  0  0  0  3  0  0  0  0  0  0
  191.0520  174.5830  137.7920 N   0  0  0  0  0  0  0  0  0  0  0  0
  193.4370  174.7800  136.1150 O   0  0  0  0  0  1  0  0  0  0  0  0
  193.3230  175.4270  137.3410 C   0  0  0  0  0  3  0  0  0  0  0  0
  192.2320  175.3390  138.1090 C   0  0  0  0  0  3  0  0  0  0  0  0
  189.6570  176.3300  143.4350 C   0  0  0  0  0  2  0  0  0  0  0  0
  186.3890  178.2680  147.0100 Cl  0  0  0  0  0  0  0  0  0  0  0  0
  190.5150  176.8100  145.7370 C   0  0  0  0  0  3  0  0  0  0  0  0
  188.8570  178.2470  149.1160 Cl  0  0  0  0  0  0  0  0  0  0  0  0
  187.9890  177.7150  146.5450 C   0  0  0  0  0  0  0  0  0  0  0  0
  189.0580  177.7050  147.4590 C   0  0  0  0  0  0  0  0  0  0  0  0
  188.1920  177.2720  145.2350 C   0  0  0  0  0  3  0  0  0  0  0  0
  189.4530  176.8240  144.8270 C   0  0  0  0  0  0  0  0  0  0  0  0
  190.3160  177.2510  147.0480 C   0  0  0  0  0  3  0  0  0  0  0  0
  1  2  2  0  0  0  0
  1  3  1  0  0  0  0
  2  4  1  0  0  0  0
  3  6  2  0  0  0  0
  4  8  1  0  0  0  0
  4  5  2  0  0  0  0
  6  5  1  0  0  0  0
  6 29  1  0  0  0  0
  7 12  1  0  0  0  0
  8 11  2  0  0  0  0
 10  7  2  0  0  0  0
 10  8  1  0  0  0  0
 11 13  1  0  0  0  0
 12 13  2  0  0  0  0
 13  9  1  0  0  0  0
 15  3  1  0  0  0  0
 15 14  1  0  0  0  0
 16  1  1  0  0  0  0
 17 16  1  0  0  0  0
 18 19  2  0  0  0  0
 19 20  1  0  0  0  0
 19 17  1  0  0  0  0
 21 23  1  0  0  0  0
 21 22  1  1  0  0  0
 21 20  1  0  0  0  0
 23 24  1  0  0  0  0
 24 25  2  0  0  0  0
 25 28  1  0  0  0  0
 26 27  1  0  0  0  0
 27 28  2  0  0  0  0
 29 36  1  0  0  0  0
 31 37  1  0  0  0  0
 33 30  1  0  0  0  0
 33 34  1  0  0  0  0
 34 32  1  0  0  0  0
 35 33  2  0  0  0  0
 36 35  1  0  0  0  0
 36 31  2  0  0  0  0
 37 34  2  0  0  0  0
M  END
>  <MODEL>
8

>  <REMARK>
 VINA RESULT:      -7.5      4.010      7.131
  Name = 
  12 active torsions:
  status: ('A' for Active; 'I' for Inactive)
    1  A    between atoms: C_4  and  N_36
    2  A    between atoms: C_8  and  C_12
    3  A    between atoms: C_12  and  N_25
    4  A    between atoms: C_13  and  C_24
    5  A    between atoms: C_16  and  C_33
    6  A    between atoms: C_17  and  N_27
    7  A    between atoms: C_17  and  C_33
    8  A    between atoms: C_18  and  O_31
    9  A    between atoms: C_22  and  C_30
   10  A    between atoms: N_25  and  C_26
   11  A    between atoms: C_26  and  N_27
   12  A    between atoms: C_30  and  C_34
                            x       y       z     vdW  Elec       q    Type
                         _______ _______ _______ _____ _____    ______ ____

>  <TORSDO>
F 12

$$$$
=
 OpenBabel11042412103D

 37 39  0  0  1  0  0  0  0  0999 V2000
  188.3230  177.9880  140.3980 C   0  0  0  0  0  0  0  0  0  0  0  0
  187.0880  178.2860  140.8820 N   0  0  0  0  0  0  0  0  0  0  0  0
  189.2490  177.2870  141.2140 C   0  0  0  0  0  0  0  0  0  0  0  0
  186.6870  177.9480  142.1370 C   0  0  0  0  0  0  0  0  0  0  0  0
  187.5680  177.2520  142.9690 C   0  0  0  0  0  3  0  0  0  0  0  0
  188.8400  176.9150  142.5070 C   0  0  0  0  0  0  0  0  0  0  0  0
  182.9990  178.8290  142.1430 C   0  0  0  0  0  3  0  0  0  0  0  0
  185.3320  178.3120  142.6040 C   0  0  0  0  0  0  0  0  0  0  0  0
  183.5780  179.0060  145.7480 F   0  0  0  0  0  0  0  0  0  0  0  0
  184.2760  178.4840  141.6920 C   0  0  0  0  0  3  0  0  0  0  0  0
  185.0830  178.4910  143.9740 C   0  0  0  0  0  3  0  0  0  0  0  0
  182.7640  179.0030  143.5090 C   0  0  0  0  0  3  0  0  0  0  0  0
  183.8050  178.8350  144.4240 C   0  0  0  0  0  0  0  0  0  0  0  0
  191.6960  177.7630  140.9060 C   0  0  0  0  0  1  0  0  0  0  0  0
  190.5490  176.9310  140.8110 O   0  0  0  0  0  0  0  0  0  0  0  0
  188.6130  178.3610  138.9840 C   0  0  0  0  0  2  0  0  0  0  0  0
  187.3640  178.4900  138.2470 N   0  0  0  0  0  2  0  0  0  0  0  0
  187.6610  176.0960  137.0900 S   0  0  0  0  0  0  0  0  0  0  0  0
  186.7770  177.4220  137.4980 C   0  0  0  0  0  0  0  0  0  0  0  0
  185.3920  177.5150  137.1490 N   0  0  0  0  0  2  0  0  0  0  0  0
  184.4070  176.4800  137.4340 C   0  0  2  0  0  3  0  0  0  0  0  0
  183.7070  176.1700  136.2690 O   0  0  0  0  0  1  0  0  0  0  0  0
  183.4300  176.9710  138.4900 C   0  0  0  0  0  2  0  0  0  0  0  0
  182.2580  176.0530  138.6020 C   0  0  0  0  0  3  0  0  0  0  0  0
  181.4900  176.0900  139.6440 N   0  0  0  0  0  0  0  0  0  0  0  0
  179.3030  176.6320  141.5040 O   0  0  0  0  0  1  0  0  0  0  0  0
  179.3440  175.4970  140.7020 C   0  0  0  0  0  3  0  0  0  0  0  0
  180.3440  175.2480  139.8500 C   0  0  0  0  0  3  0  0  0  0  0  0
  189.7710  176.1920  143.4290 C   0  0  0  0  0  2  0  0  0  0  0  0
  186.7240  178.1730  147.1700 Cl  0  0  0  0  0  0  0  0  0  0  0  0
  190.7780  176.7510  145.6520 C   0  0  0  0  0  3  0  0  0  0  0  0
  189.3320  178.2530  149.0980 Cl  0  0  0  0  0  0  0  0  0  0  0  0
  188.2980  177.6350  146.6100 C   0  0  0  0  0  0  0  0  0  0  0  0
  189.4280  177.6680  147.4460 C   0  0  0  0  0  0  0  0  0  0  0  0
  188.4180  177.1590  145.3010 C   0  0  0  0  0  3  0  0  0  0  0  0
  189.6550  176.7210  144.8180 C   0  0  0  0  0  0  0  0  0  0  0  0
  190.6630  177.2240  146.9610 C   0  0  0  0  0  3  0  0  0  0  0  0
  1  2  2  0  0  0  0
  1  3  1  0  0  0  0
  2  4  1  0  0  0  0
  3  6  2  0  0  0  0
  4  8  1  0  0  0  0
  4  5  2  0  0  0  0
  6  5  1  0  0  0  0
  6 29  1  0  0  0  0
  7 12  1  0  0  0  0
  8 11  2  0  0  0  0
 10  7  2  0  0  0  0
 10  8  1  0  0  0  0
 11 13  1  0  0  0  0
 12 13  2  0  0  0  0
 13  9  1  0  0  0  0
 15 14  1  0  0  0  0
 15  3  1  0  0  0  0
 16  1  1  0  0  0  0
 17 16  1  0  0  0  0
 18 19  2  0  0  0  0
 19 17  1  0  0  0  0
 20 21  1  0  0  0  0
 20 19  1  0  0  0  0
 21 22  1  6  0  0  0
 21 23  1  0  0  0  0
 23 24  1  0  0  0  0
 24 25  2  0  0  0  0
 25 28  1  0  0  0  0
 27 26  1  0  0  0  0
 28 27  2  0  0  0  0
 29 36  1  0  0  0  0
 31 37  1  0  0  0  0
 33 30  1  0  0  0  0
 33 34  1  0  0  0  0
 34 32  1  0  0  0  0
 35 33  2  0  0  0  0
 36 35  1  0  0  0  0
 36 31  2  0  0  0  0
 37 34  2  0  0  0  0
M  END
>  <MODEL>
9

>  <REMARK>
 VINA RESULT:      -7.4      3.802      7.939
  Name = 
  12 active torsions:
  status: ('A' for Active; 'I' for Inactive)
    1  A    between atoms: C_4  and  N_36
    2  A    between atoms: C_8  and  C_12
    3  A    between atoms: C_12  and  N_25
    4  A    between atoms: C_13  and  C_24
    5  A    between atoms: C_16  and  C_33
    6  A    between atoms: C_17  and  N_27
    7  A    between atoms: C_17  and  C_33
    8  A    between atoms: C_18  and  O_31
    9  A    between atoms: C_22  and  C_30
   10  A    between atoms: N_25  and  C_26
   11  A    between atoms: C_26  and  N_27
   12  A    between atoms: C_30  and  C_34
                            x       y       z     vdW  Elec       q    Type
                         _______ _______ _______ _____ _____    ______ ____

>  <TORSDO>
F 12

$$$$
