=
 OpenBabel11042411303D

 55 57  0  0  1  0  0  0  0  0999 V2000
  186.8070  174.9980  137.4970 N   0  0  0  0  0  0  0  0  0  0  0  0
  187.5930  175.7750  136.8120 C   0  0  0  0  0  0  0  0  0  0  0  0
  188.6810  177.3790  138.2680 C   0  0  0  0  0  2  0  0  0  0  0  0
  187.8180  177.1490  137.2780 C   0  0  0  0  0  0  0  0  0  0  0  0
  186.8750  178.2260  136.8650 C   0  0  0  0  0  2  0  0  0  0  0  0
  186.2420  178.7720  137.9880 O   0  0  0  0  0  0  0  0  0  0  0  0
  185.0260  178.0870  138.0630 C   0  0  0  0  0  2  0  0  0  0  0  0
  184.2050  178.6220  139.2200 C   0  0  0  0  0  2  0  0  0  0  0  0
  184.9720  179.6200  139.9500 N   0  0  0  0  0  2  0  0  0  0  0  0
  185.1490  179.1050  141.2930 C   0  0  0  0  0  2  0  0  0  0  0  0
  186.6300  178.9240  141.5680 C   0  0  0  0  0  2  0  0  0  0  0  0
  187.5570  177.9860  144.6530 C   0  0  1  0  0  3  0  0  0  0  0  0
  188.7370  177.0000  144.5680 C   0  0  1  0  0  3  0  0  0  0  0  0
  188.9280  176.3590  143.1860 C   0  0  2  0  0  3  0  0  0  0  0  0
  186.4310  177.5970  143.6960 C   0  0  0  0  0  2  0  0  0  0  0  0
  188.3880  177.2480  142.0650 C   0  0  0  0  0  2  0  0  0  0  0  0
  188.3120  175.1020  143.1530 O   0  0  0  0  0  1  0  0  0  0  0  0
  186.8980  177.5860  142.2290 C   0  0  2  0  0  3  0  0  0  0  0  0
  185.2090  178.5250  147.5520 O   0  0  0  0  0  1  0  0  0  0  0  0
  187.0540  178.0740  146.0560 C   0  0  0  0  0  0  0  0  0  0  0  0
  185.6860  178.4010  146.2900 N   0  0  0  0  0  2  0  0  0  0  0  0
  187.8400  177.8910  147.0280 O   0  0  0  0  0  0  0  0  0  0  0  0
  190.8340  176.9880  145.7210 O   0  0  0  0  0  0  0  0  0  0  0  0
  190.0060  177.6420  145.0280 C   0  0  0  0  0  0  0  0  0  0  0  0
  190.2640  178.9660  144.6740 O   0  0  0  0  0  0  0  0  0  0  0  0
  191.4910  179.3530  144.0730 C   0  0  0  0  0  1  0  0  0  0  0  0
  188.2430  175.3120  135.5410 C   0  0  0  0  0  2  0  0  0  0  0  0
  191.5300  174.1620  137.0340 C   0  0  0  0  0  3  0  0  0  0  0  0
  189.7050  175.0690  135.7210 C   0  0  0  0  0  0  0  0  0  0  0  0
  190.1600  174.3840  136.8510 C   0  0  0  0  0  3  0  0  0  0  0  0
  190.6240  175.5440  134.7770 C   0  0  0  0  0  3  0  0  0  0  0  0
  191.9930  175.3220  134.9600 C   0  0  0  0  0  3  0  0  0  0  0  0
  192.4510  174.6320  136.0920 C   0  0  0  0  0  0  0  0  0  0  0  0
  194.3570  174.1640  137.4920 N   0  0  0  0  0  0  0  0  0  0  0  0
  193.8790  174.3840  136.3080 C   0  0  0  0  0  3  0  0  0  0  0  0
  195.7480  173.9260  137.7200 C   0  0  0  0  0  0  0  0  0  0  0  0
  196.2220  172.5390  137.9650 C   0  0  0  0  0  1  0  0  0  0  0  0
  196.5770  174.8760  137.7190 O   0  0  0  0  0  0  0  0  0  0  0  0
  186.4590  173.6250  137.1350 C   0  0  0  0  0  2  0  0  0  0  0  0
  185.0870  173.2690  137.6760 C   0  0  0  0  0  2  0  0  0  0  0  0
  184.0200  173.8680  136.7790 C   0  0  0  0  0  2  0  0  0  0  0  0
  181.9010  174.7260  137.8630 C   0  0  0  0  0  0  0  0  0  0  0  0
  181.2980  173.6560  137.5750 O   0  0  0  0  0  0  0  0  0  0  0  0
  183.2780  174.8870  137.5080 N   0  0  0  0  0  2  0  0  0  0  0  0
  180.4360  178.1630  138.4930 C   0  0  0  0  0  0  0  0  0  0  0  0
  181.1980  175.7950  138.5950 C   0  0  0  0  0  0  0  0  0  0  0  0
  179.3710  178.1750  139.4040 O   0  0  0  0  0  0  0  0  0  0  0  0
  178.9330  175.1820  141.4140 O   0  0  0  0  0  1  0  0  0  0  0  0
  180.8210  175.5390  140.0180 C   0  0  0  0  0  2  0  0  0  0  0  0
  181.0750  176.9600  138.0250 N   0  0  0  0  0  0  0  0  0  0  0  0
  179.3780  175.9050  140.3060 C   0  0  2  0  0  3  0  0  0  0  0  0
  179.2590  177.3940  140.5880 C   0  0  1  0  0  3  0  0  0  0  0  0
  180.7420  179.2490  137.9350 O   0  0  0  0  0  0  0  0  0  0  0  0
  179.5300  178.0540  142.8800 O   0  0  0  0  0  1  0  0  0  0  0  0
  180.2160  177.8900  141.6740 C   0  0  0  0  0  2  0  0  0  0  0  0
  2  4  1  0  0  0  0
  2  1  2  0  0  0  0
  4  3  2  0  0  0  0
  5  4  1  0  0  0  0
  5  6  1  0  0  0  0
  6  7  1  0  0  0  0
  7  8  1  0  0  0  0
  8  9  1  0  0  0  0
  9 10  1  0  0  0  0
 10 11  1  0  0  0  0
 12 20  1  1  0  0  0
 13 12  1  0  0  0  0
 13 24  1  6  0  0  0
 14 17  1  1  0  0  0
 14 13  1  0  0  0  0
 15 12  1  0  0  0  0
 16 18  1  0  0  0  0
 16 14  1  0  0  0  0
 18 11  1  1  0  0  0
 18 15  1  0  0  0  0
 20 21  1  0  0  0  0
 20 22  2  0  0  0  0
 21 19  1  0  0  0  0
 24 23  2  0  0  0  0
 25 24  1  0  0  0  0
 26 25  1  0  0  0  0
 27 29  1  0  0  0  0
 27  2  1  0  0  0  0
 29 30  2  0  0  0  0
 30 28  1  0  0  0  0
 31 32  2  0  0  0  0
 31 29  1  0  0  0  0
 32 33  1  0  0  0  0
 33 35  1  0  0  0  0
 33 28  2  0  0  0  0
 34 36  1  0  0  0  0
 35 34  2  0  0  0  0
 36 37  1  0  0  0  0
 38 36  2  0  0  0  0
 39  1  1  0  0  0  0
 39 40  1  0  0  0  0
 41 44  1  0  0  0  0
 41 40  1  0  0  0  0
 42 46  1  0  0  0  0
 43 42  2  0  0  0  0
 44 42  1  0  0  0  0
 45 47  1  0  0  0  0
 46 49  1  0  0  0  0
 47 52  1  0  0  0  0
 49 51  1  0  0  0  0
 50 45  1  0  0  0  0
 50 46  2  0  0  0  0
 51 52  1  0  0  0  0
 51 48  1  1  0  0  0
 52 55  1  1  0  0  0
 53 45  2  0  0  0  0
 55 54  1  0  0  0  0
M  END
>  <MODEL>
1

>  <REMARK>
 VINA RESULT:      -6.7      0.000      0.000
  Name = 
  22 active torsions:
  status: ('A' for Active; 'I' for Inactive)
    1  A    between atoms: C_1  and  N_6
    2  A    between atoms: C_2  and  C_18
    3  A    between atoms: C_2  and  C_20
    4  A    between atoms: C_4  and  C_19
    5  A    between atoms: O_8  and  C_15
    6  A    between atoms: O_8  and  C_45
    7  A    between atoms: N_9  and  C_20
    8  A    between atoms: C_10  and  C_15
    9  A    between atoms: C_10  and  N_55
   10  A    between atoms: C_11  and  C_30
   11  A    between atoms: C_12  and  C_37
   12  A    between atoms: C_16  and  C_54
   13  A    between atoms: C_18  and  N_33
   14  A    between atoms: O_22  and  C_37
   15  A    between atoms: C_28  and  C_53
   16  A    between atoms: C_36  and  C_41
   17  A    between atoms: C_36  and  N_55
   18  A    between atoms: C_41  and  C_49
   19  A    between atoms: C_45  and  C_52
   20  A    between atoms: C_46  and  C_52
   21  A    between atoms: C_46  and  C_54
   22  A    between atoms: C_48  and  C_50
                            x       y       z     vdW  Elec       q    Type
                         _______ _______ _______ _____ _____    ______ ____

>  <TORSDO>
F 22

$$$$
=
 OpenBabel11042411303D

 55 57  0  0  1  0  0  0  0  0999 V2000
  186.6920  176.2110  137.3210 N   0  0  0  0  0  0  0  0  0  0  0  0
  187.8730  176.6980  137.0840 C   0  0  0  0  0  0  0  0  0  0  0  0
  188.8100  178.9050  137.4430 C   0  0  0  0  0  2  0  0  0  0  0  0
  188.4020  177.7470  137.9640 C   0  0  0  0  0  0  0  0  0  0  0  0
  188.7640  177.4100  139.3700 C   0  0  0  0  0  2  0  0  0  0  0  0
  189.9970  177.9830  139.7030 O   0  0  0  0  0  0  0  0  0  0  0  0
  190.6790  176.9620  140.3720 C   0  0  0  0  0  2  0  0  0  0  0  0
  191.6060  177.5590  141.4130 C   0  0  0  0  0  2  0  0  0  0  0  0
  191.4090  176.8910  142.6910 N   0  0  0  0  0  2  0  0  0  0  0  0
  191.2080  177.9340  143.6760 C   0  0  0  0  0  2  0  0  0  0  0  0
  189.8360  178.5520  143.4770 C   0  0  0  0  0  2  0  0  0  0  0  0
  186.5160  178.4810  143.0030 C   0  0  1  0  0  3  0  0  0  0  0  0
  185.8060  178.1290  144.3230 C   0  0  1  0  0  3  0  0  0  0  0  0
  186.7170  177.4940  145.3820 C   0  0  2  0  0  3  0  0  0  0  0  0
  187.6710  177.5240  142.7140 C   0  0  0  0  0  2  0  0  0  0  0  0
  188.1770  177.9130  145.2050 C   0  0  0  0  0  2  0  0  0  0  0  0
  186.6010  176.0980  145.3370 O   0  0  0  0  0  1  0  0  0  0  0  0
  188.7410  177.5610  143.8200 C   0  0  2  0  0  3  0  0  0  0  0  0
  184.7960  179.5000  139.8070 O   0  0  0  0  0  1  0  0  0  0  0  0
  185.5380  178.4890  141.8740 C   0  0  0  0  0  0  0  0  0  0  0  0
  185.6880  179.4440  140.8250 N   0  0  0  0  0  2  0  0  0  0  0  0
  184.5700  177.6780  141.8630 O   0  0  0  0  0  0  0  0  0  0  0  0
  185.5190  179.8660  145.9440 O   0  0  0  0  0  0  0  0  0  0  0  0
  185.1000  179.3190  144.8860 C   0  0  0  0  0  0  0  0  0  0  0  0
  183.9800  179.8220  144.2220 O   0  0  0  0  0  0  0  0  0  0  0  0
  182.7190  179.1730  144.2870 C   0  0  0  0  0  1  0  0  0  0  0  0
  188.6920  176.2380  135.9120 C   0  0  0  0  0  2  0  0  0  0  0  0
  192.3170  175.6660  136.8530 C   0  0  0  0  0  3  0  0  0  0  0  0
  189.9490  175.5590  136.3440 C   0  0  0  0  0  0  0  0  0  0  0  0
  191.1310  176.2970  136.4590 C   0  0  0  0  0  3  0  0  0  0  0  0
  189.9560  174.1850  136.6100 C   0  0  0  0  0  3  0  0  0  0  0  0
  191.1420  173.5550  137.0030 C   0  0  0  0  0  3  0  0  0  0  0  0
  192.3280  174.2940  137.1230 C   0  0  0  0  0  0  0  0  0  0  0  0
  194.5460  174.3460  138.0650 N   0  0  0  0  0  0  0  0  0  0  0  0
  193.5840  173.6600  137.5340 C   0  0  0  0  0  3  0  0  0  0  0  0
  195.7790  173.7430  138.4660 C   0  0  0  0  0  0  0  0  0  0  0  0
  196.4130  172.7230  137.5910 C   0  0  0  0  0  1  0  0  0  0  0  0
  196.3350  174.0630  139.5520 O   0  0  0  0  0  0  0  0  0  0  0  0
  186.0230  175.1960  136.5110 C   0  0  0  0  0  2  0  0  0  0  0  0
  186.0210  173.8620  137.2320 C   0  0  0  0  0  2  0  0  0  0  0  0
  184.5960  173.3530  137.3490 C   0  0  0  0  0  2  0  0  0  0  0  0
  182.5480  174.8360  137.4140 C   0  0  0  0  0  0  0  0  0  0  0  0
  182.1430  174.3570  136.3190 O   0  0  0  0  0  0  0  0  0  0  0  0
  183.7650  174.3580  137.9950 N   0  0  0  0  0  2  0  0  0  0  0  0
  180.7770  178.1460  137.9260 C   0  0  0  0  0  0  0  0  0  0  0  0
  181.7510  175.8620  138.1090 C   0  0  0  0  0  0  0  0  0  0  0  0
  179.7160  178.0950  138.8400 O   0  0  0  0  0  0  0  0  0  0  0  0
  179.5540  175.1480  140.9580 O   0  0  0  0  0  1  0  0  0  0  0  0
  181.4000  175.6250  139.5420 C   0  0  0  0  0  2  0  0  0  0  0  0
  181.5230  176.9900  137.4990 N   0  0  0  0  0  0  0  0  0  0  0  0
  179.9300  175.8680  139.8230 C   0  0  2  0  0  3  0  0  0  0  0  0
  179.6760  177.3500  140.0520 C   0  0  1  0  0  3  0  0  0  0  0  0
  180.9820  179.2340  137.3280 O   0  0  0  0  0  0  0  0  0  0  0  0
  180.3390  179.3410  141.2180 O   0  0  0  0  0  1  0  0  0  0  0  0
  180.5850  177.9690  141.1150 C   0  0  0  0  0  2  0  0  0  0  0  0
  2  1  2  0  0  0  0
  2  4  1  0  0  0  0
  3  4  2  0  0  0  0
  4  5  1  0  0  0  0
  5  6  1  0  0  0  0
  6  7  1  0  0  0  0
  7  8  1  0  0  0  0
  8  9  1  0  0  0  0
  9 10  1  0  0  0  0
 11 10  1  0  0  0  0
 12 20  1  6  0  0  0
 12 13  1  0  0  0  0
 13 24  1  1  0  0  0
 13 14  1  0  0  0  0
 14 17  1  6  0  0  0
 15 12  1  0  0  0  0
 15 18  1  0  0  0  0
 16 14  1  0  0  0  0
 18 11  1  6  0  0  0
 18 16  1  0  0  0  0
 19 21  1  0  0  0  0
 21 20  1  0  0  0  0
 22 20  2  0  0  0  0
 24 23  2  0  0  0  0
 25 26  1  0  0  0  0
 25 24  1  0  0  0  0
 27 29  1  0  0  0  0
 27  2  1  0  0  0  0
 28 33  1  0  0  0  0
 29 30  1  0  0  0  0
 29 31  2  0  0  0  0
 30 28  2  0  0  0  0
 31 32  1  0  0  0  0
 32 33  2  0  0  0  0
 33 35  1  0  0  0  0
 34 36  1  0  0  0  0
 35 34  2  0  0  0  0
 36 38  2  0  0  0  0
 37 36  1  0  0  0  0
 39 40  1  0  0  0  0
 39  1  1  0  0  0  0
 40 41  1  0  0  0  0
 41 44  1  0  0  0  0
 42 44  1  0  0  0  0
 42 46  1  0  0  0  0
 43 42  2  0  0  0  0
 45 47  1  0  0  0  0
 46 49  1  0  0  0  0
 47 52  1  0  0  0  0
 49 51  1  0  0  0  0
 50 45  1  0  0  0  0
 50 46  2  0  0  0  0
 51 52  1  0  0  0  0
 51 48  1  1  0  0  0
 52 55  1  1  0  0  0
 53 45  2  0  0  0  0
 55 54  1  0  0  0  0
M  END
>  <MODEL>
2

>  <REMARK>
 VINA RESULT:      -6.6      1.930      3.523
  Name = 
  22 active torsions:
  status: ('A' for Active; 'I' for Inactive)
    1  A    between atoms: C_1  and  N_6
    2  A    between atoms: C_2  and  C_18
    3  A    between atoms: C_2  and  C_20
    4  A    between atoms: C_4  and  C_19
    5  A    between atoms: O_8  and  C_15
    6  A    between atoms: O_8  and  C_45
    7  A    between atoms: N_9  and  C_20
    8  A    between atoms: C_10  and  C_15
    9  A    between atoms: C_10  and  N_55
   10  A    between atoms: C_11  and  C_30
   11  A    between atoms: C_12  and  C_37
   12  A    between atoms: C_16  and  C_54
   13  A    between atoms: C_18  and  N_33
   14  A    between atoms: O_22  and  C_37
   15  A    between atoms: C_28  and  C_53
   16  A    between atoms: C_36  and  C_41
   17  A    between atoms: C_36  and  N_55
   18  A    between atoms: C_41  and  C_49
   19  A    between atoms: C_45  and  C_52
   20  A    between atoms: C_46  and  C_52
   21  A    between atoms: C_46  and  C_54
   22  A    between atoms: C_48  and  C_50
                            x       y       z     vdW  Elec       q    Type
                         _______ _______ _______ _____ _____    ______ ____

>  <TORSDO>
F 22

$$$$
=
 OpenBabel11042411303D

 55 57  0  0  1  0  0  0  0  0999 V2000
  188.8800  176.7720  135.7760 N   0  0  0  0  0  0  0  0  0  0  0  0
  188.3520  176.2050  136.8200 C   0  0  0  0  0  0  0  0  0  0  0  0
  188.5720  177.0970  139.0640 C   0  0  0  0  0  2  0  0  0  0  0  0
  187.8800  177.0470  137.9250 C   0  0  0  0  0  0  0  0  0  0  0  0
  186.4930  177.5930  137.8900 C   0  0  0  0  0  2  0  0  0  0  0  0
  186.2940  178.4800  138.9540 O   0  0  0  0  0  0  0  0  0  0  0  0
  184.9960  178.9620  138.7610 C   0  0  0  0  0  2  0  0  0  0  0  0
  184.2030  178.8310  140.0470 C   0  0  0  0  0  2  0  0  0  0  0  0
  184.9170  179.4780  141.1370 N   0  0  0  0  0  2  0  0  0  0  0  0
  184.5310  178.7880  142.3520 C   0  0  0  0  0  2  0  0  0  0  0  0
  185.6540  178.8960  143.3670 C   0  0  0  0  0  2  0  0  0  0  0  0
  188.0800  177.7580  145.3850 C   0  0  1  0  0  3  0  0  0  0  0  0
  189.2220  177.1570  144.5440 C   0  0  1  0  0  3  0  0  0  0  0  0
  188.8340  176.8250  143.0970 C   0  0  2  0  0  3  0  0  0  0  0  0
  186.7160  177.2390  144.9330 C   0  0  0  0  0  2  0  0  0  0  0  0
  187.6860  177.7030  142.5970 C   0  0  0  0  0  2  0  0  0  0  0  0
  188.4950  175.4700  142.9910 O   0  0  0  0  0  1  0  0  0  0  0  0
  186.4220  177.5920  143.4640 C   0  0  2  0  0  3  0  0  0  0  0  0
  187.8400  178.0670  149.1340 O   0  0  0  0  0  1  0  0  0  0  0  0
  188.3000  177.4770  146.8350 C   0  0  0  0  0  0  0  0  0  0  0  0
  187.6320  178.2730  147.8120 N   0  0  0  0  0  2  0  0  0  0  0  0
  189.0950  176.5640  147.1940 O   0  0  0  0  0  0  0  0  0  0  0  0
  190.3260  179.2680  144.3170 O   0  0  0  0  0  0  0  0  0  0  0  0
  190.4300  178.0360  144.5750 C   0  0  0  0  0  0  0  0  0  0  0  0
  191.6670  177.4790  144.9000 O   0  0  0  0  0  0  0  0  0  0  0  0
  191.8410  176.0770  145.0430 C   0  0  0  0  0  1  0  0  0  0  0  0
  188.2480  174.7120  136.9360 C   0  0  0  0  0  2  0  0  0  0  0  0
  184.9670  172.8880  137.4390 C   0  0  0  0  0  3  0  0  0  0  0  0
  186.8510  174.2330  136.7210 C   0  0  0  0  0  0  0  0  0  0  0  0
  186.2720  173.3500  137.6380 C   0  0  0  0  0  3  0  0  0  0  0  0
  186.1260  174.6430  135.5960 C   0  0  0  0  0  3  0  0  0  0  0  0
  184.8210  174.1790  135.3970 C   0  0  0  0  0  3  0  0  0  0  0  0
  184.2380  173.2970  136.3190 C   0  0  0  0  0  0  0  0  0  0  0  0
  181.9220  173.1030  136.9630 N   0  0  0  0  0  0  0  0  0  0  0  0
  182.8720  172.7970  136.1360 C   0  0  0  0  0  3  0  0  0  0  0  0
  180.5870  172.6190  136.8020 C   0  0  0  0  0  0  0  0  0  0  0  0
  180.1770  172.0230  135.5030 C   0  0  0  0  0  1  0  0  0  0  0  0
  179.7520  172.6930  137.7430 O   0  0  0  0  0  0  0  0  0  0  0  0
  189.4270  176.0630  134.6220 C   0  0  0  0  0  2  0  0  0  0  0  0
  190.9390  176.1870  134.5940 C   0  0  0  0  0  2  0  0  0  0  0  0
  191.4760  176.1250  136.0120 C   0  0  0  0  0  2  0  0  0  0  0  0
  193.7240  175.6060  137.0480 C   0  0  0  0  0  0  0  0  0  0  0  0
  193.4920  176.4030  137.9980 O   0  0  0  0  0  0  0  0  0  0  0  0
  192.7420  175.4060  136.0280 N   0  0  0  0  0  2  0  0  0  0  0  0
  197.2070  174.5520  138.1050 C   0  0  0  0  0  0  0  0  0  0  0  0
  194.9930  174.8560  137.0090 C   0  0  0  0  0  0  0  0  0  0  0  0
  197.5490  173.2450  137.7340 O   0  0  0  0  0  0  0  0  0  0  0  0
  195.4140  171.6580  135.2620 O   0  0  0  0  0  1  0  0  0  0  0  0
  195.2380  173.9550  135.8420 C   0  0  0  0  0  2  0  0  0  0  0  0
  195.9020  175.1270  137.9010 N   0  0  0  0  0  0  0  0  0  0  0  0
  195.7130  172.5800  136.2670 C   0  0  2  0  0  3  0  0  0  0  0  0
  197.2130  172.5940  136.5150 C   0  0  1  0  0  3  0  0  0  0  0  0
  198.0360  175.2010  138.7960 O   0  0  0  0  0  0  0  0  0  0  0  0
  199.0750  172.2940  135.0290 O   0  0  0  0  0  1  0  0  0  0  0  0
  198.0210  173.1560  135.3430 C   0  0  0  0  0  2  0  0  0  0  0  0
  1  2  2  0  0  0  0
  2 27  1  0  0  0  0
  2  4  1  0  0  0  0
  4  3  2  0  0  0  0
  5  4  1  0  0  0  0
  5  6  1  0  0  0  0
  7  6  1  0  0  0  0
  7  8  1  0  0  0  0
  8  9  1  0  0  0  0
  9 10  1  0  0  0  0
 10 11  1  0  0  0  0
 12 20  1  1  0  0  0
 13 24  1  6  0  0  0
 13 12  1  0  0  0  0
 14 17  1  1  0  0  0
 14 13  1  0  0  0  0
 15 12  1  0  0  0  0
 16 14  1  0  0  0  0
 16 18  1  0  0  0  0
 18 11  1  1  0  0  0
 18 15  1  0  0  0  0
 20 22  2  0  0  0  0
 20 21  1  0  0  0  0
 21 19  1  0  0  0  0
 23 24  2  0  0  0  0
 24 25  1  0  0  0  0
 25 26  1  0  0  0  0
 28 30  1  0  0  0  0
 29 27  1  0  0  0  0
 29 30  2  0  0  0  0
 31 29  1  0  0  0  0
 32 31  2  0  0  0  0
 32 33  1  0  0  0  0
 33 28  2  0  0  0  0
 35 33  1  0  0  0  0
 35 34  2  0  0  0  0
 36 34  1  0  0  0  0
 36 38  2  0  0  0  0
 37 36  1  0  0  0  0
 39  1  1  0  0  0  0
 40 39  1  0  0  0  0
 40 41  1  0  0  0  0
 41 44  1  0  0  0  0
 42 43  2  0  0  0  0
 44 42  1  0  0  0  0
 45 53  2  0  0  0  0
 46 42  1  0  0  0  0
 46 50  2  0  0  0  0
 47 45  1  0  0  0  0
 49 51  1  0  0  0  0
 49 46  1  0  0  0  0
 50 45  1  0  0  0  0
 51 48  1  6  0  0  0
 51 52  1  0  0  0  0
 52 55  1  6  0  0  0
 52 47  1  0  0  0  0
 54 55  1  0  0  0  0
M  END
>  <MODEL>
3

>  <REMARK>
 VINA RESULT:      -6.5      2.633      9.843
  Name = 
  22 active torsions:
  status: ('A' for Active; 'I' for Inactive)
    1  A    between atoms: C_1  and  N_6
    2  A    between atoms: C_2  and  C_18
    3  A    between atoms: C_2  and  C_20
    4  A    between atoms: C_4  and  C_19
    5  A    between atoms: O_8  and  C_15
    6  A    between atoms: O_8  and  C_45
    7  A    between atoms: N_9  and  C_20
    8  A    between atoms: C_10  and  C_15
    9  A    between atoms: C_10  and  N_55
   10  A    between atoms: C_11  and  C_30
   11  A    between atoms: C_12  and  C_37
   12  A    between atoms: C_16  and  C_54
   13  A    between atoms: C_18  and  N_33
   14  A    between atoms: O_22  and  C_37
   15  A    between atoms: C_28  and  C_53
   16  A    between atoms: C_36  and  C_41
   17  A    between atoms: C_36  and  N_55
   18  A    between atoms: C_41  and  C_49
   19  A    between atoms: C_45  and  C_52
   20  A    between atoms: C_46  and  C_52
   21  A    between atoms: C_46  and  C_54
   22  A    between atoms: C_48  and  C_50
                            x       y       z     vdW  Elec       q    Type
                         _______ _______ _______ _____ _____    ______ ____

>  <TORSDO>
F 22

$$$$
=
 OpenBabel11042411303D

 55 57  0  0  1  0  0  0  0  0999 V2000
  187.8400  177.6110  137.6700 N   0  0  0  0  0  0  0  0  0  0  0  0
  188.3320  176.6960  136.8880 C   0  0  0  0  0  0  0  0  0  0  0  0
  189.5860  177.2540  134.8900 C   0  0  0  0  0  2  0  0  0  0  0  0
  188.4110  176.9590  135.4460 C   0  0  0  0  0  0  0  0  0  0  0  0
  187.1580  177.1970  134.6750 C   0  0  0  0  0  2  0  0  0  0  0  0
  186.2320  176.1780  134.9300 O   0  0  0  0  0  0  0  0  0  0  0  0
  185.0720  176.8580  135.3140 C   0  0  0  0  0  2  0  0  0  0  0  0
  184.3310  176.0570  136.3660 C   0  0  0  0  0  2  0  0  0  0  0  0
  182.9420  175.8820  135.9680 N   0  0  0  0  0  2  0  0  0  0  0  0
  182.1440  176.0380  137.1680 C   0  0  0  0  0  2  0  0  0  0  0  0
  180.8560  176.7600  136.8210 C   0  0  0  0  0  2  0  0  0  0  0  0
  182.1110  179.1470  138.8170 C   0  0  1  0  0  3  0  0  0  0  0  0
  181.9060  178.7560  140.2930 C   0  0  1  0  0  3  0  0  0  0  0  0
  180.8530  177.6620  140.5170 C   0  0  2  0  0  3  0  0  0  0  0  0
  180.8260  178.9780  138.0080 C   0  0  0  0  0  2  0  0  0  0  0  0
  180.7020  176.7550  139.2950 C   0  0  0  0  0  2  0  0  0  0  0  0
  179.6230  178.2440  140.8490 O   0  0  0  0  0  1  0  0  0  0  0  0
  180.3240  177.5230  138.0190 C   0  0  2  0  0  3  0  0  0  0  0  0
  182.1670  182.8660  138.2070 O   0  0  0  0  0  1  0  0  0  0  0  0
  182.6210  180.5470  138.7170 C   0  0  0  0  0  0  0  0  0  0  0  0
  181.7260  181.5920  138.3430 N   0  0  0  0  0  2  0  0  0  0  0  0
  183.8400  180.7980  138.9300 O   0  0  0  0  0  0  0  0  0  0  0  0
  184.0160  177.6290  140.3200 O   0  0  0  0  0  0  0  0  0  0  0  0
  183.2020  178.3760  140.9310 C   0  0  0  0  0  0  0  0  0  0  0  0
  183.5010  178.8630  142.2040 O   0  0  0  0  0  0  0  0  0  0  0  0
  184.5090  178.2730  143.0110 C   0  0  0  0  0  1  0  0  0  0  0  0
  188.7850  175.3680  137.4210 C   0  0  0  0  0  2  0  0  0  0  0  0
  192.2950  174.0000  137.0180 C   0  0  0  0  0  3  0  0  0  0  0  0
  190.2730  175.2630  137.4600 C   0  0  0  0  0  0  0  0  0  0  0  0
  190.9010  174.1110  136.9750 C   0  0  0  0  0  3  0  0  0  0  0  0
  191.0430  176.3010  138.0000 C   0  0  0  0  0  3  0  0  0  0  0  0
  192.4370  176.1880  138.0440 C   0  0  0  0  0  3  0  0  0  0  0  0
  193.0670  175.0350  137.5540 C   0  0  0  0  0  0  0  0  0  0  0  0
  195.1390  174.4380  138.6330 N   0  0  0  0  0  0  0  0  0  0  0  0
  194.5260  174.8910  137.5850 C   0  0  0  0  0  3  0  0  0  0  0  0
  196.5610  174.2980  138.6810 C   0  0  0  0  0  0  0  0  0  0  0  0
  197.2440  173.4300  137.6860 C   0  0  0  0  0  1  0  0  0  0  0  0
  197.2440  174.8970  139.5560 O   0  0  0  0  0  0  0  0  0  0  0  0
  187.6620  177.4760  139.1140 C   0  0  0  0  0  2  0  0  0  0  0  0
  188.4970  178.5080  139.8470 C   0  0  0  0  0  2  0  0  0  0  0  0
  189.5250  177.8040  140.7130 C   0  0  0  0  0  2  0  0  0  0  0  0
  189.4790  176.9030  143.0770 C   0  0  0  0  0  0  0  0  0  0  0  0
  190.1630  175.9020  142.7290 O   0  0  0  0  0  0  0  0  0  0  0  0
  189.1420  177.9060  142.1140 N   0  0  0  0  0  2  0  0  0  0  0  0
  187.0970  177.3030  145.9960 C   0  0  0  0  0  0  0  0  0  0  0  0
  189.0560  177.0550  144.4800 C   0  0  0  0  0  0  0  0  0  0  0  0
  187.5990  176.8300  147.2160 O   0  0  0  0  0  0  0  0  0  0  0  0
  191.1700  176.1810  147.3480 O   0  0  0  0  0  1  0  0  0  0  0  0
  190.1180  177.2600  145.5130 C   0  0  0  0  0  2  0  0  0  0  0  0
  187.7840  177.1600  144.7380 N   0  0  0  0  0  0  0  0  0  0  0  0
  189.9400  176.3470  146.7100 C   0  0  2  0  0  3  0  0  0  0  0  0
  188.9370  176.9460  147.6840 C   0  0  1  0  0  3  0  0  0  0  0  0
  185.9140  177.7320  145.9760 O   0  0  0  0  0  0  0  0  0  0  0  0
  188.1020  179.0400  148.5090 O   0  0  0  0  0  1  0  0  0  0  0  0
  189.2620  178.3850  148.0900 C   0  0  0  0  0  2  0  0  0  0  0  0
  1 39  1  0  0  0  0
  2 27  1  0  0  0  0
  2  1  2  0  0  0  0
  3  4  2  0  0  0  0
  4  2  1  0  0  0  0
  5  6  1  0  0  0  0
  5  4  1  0  0  0  0
  6  7  1  0  0  0  0
  7  8  1  0  0  0  0
  9  8  1  0  0  0  0
  9 10  1  0  0  0  0
 11 10  1  0  0  0  0
 12 20  1  1  0  0  0
 12 13  1  0  0  0  0
 13 14  1  0  0  0  0
 13 24  1  6  0  0  0
 14 17  1  6  0  0  0
 15 18  1  0  0  0  0
 15 12  1  0  0  0  0
 16 14  1  0  0  0  0
 18 11  1  6  0  0  0
 18 16  1  0  0  0  0
 19 21  1  0  0  0  0
 20 22  2  0  0  0  0
 21 20  1  0  0  0  0
 23 24  2  0  0  0  0
 24 25  1  0  0  0  0
 25 26  1  0  0  0  0
 27 29  1  0  0  0  0
 28 33  1  0  0  0  0
 29 31  2  0  0  0  0
 30 28  2  0  0  0  0
 30 29  1  0  0  0  0
 31 32  1  0  0  0  0
 33 35  1  0  0  0  0
 33 32  2  0  0  0  0
 34 36  1  0  0  0  0
 35 34  2  0  0  0  0
 36 38  2  0  0  0  0
 37 36  1  0  0  0  0
 39 40  1  0  0  0  0
 40 41  1  0  0  0  0
 41 44  1  0  0  0  0
 42 46  1  0  0  0  0
 43 42  2  0  0  0  0
 44 42  1  0  0  0  0
 45 47  1  0  0  0  0
 46 50  2  0  0  0  0
 46 49  1  0  0  0  0
 47 52  1  0  0  0  0
 49 51  1  0  0  0  0
 50 45  1  0  0  0  0
 51 48  1  1  0  0  0
 51 52  1  0  0  0  0
 52 55  1  6  0  0  0
 53 45  2  0  0  0  0
 55 54  1  0  0  0  0
M  END
>  <MODEL>
4

>  <REMARK>
 VINA RESULT:      -6.0      2.230      7.494
  Name = 
  22 active torsions:
  status: ('A' for Active; 'I' for Inactive)
    1  A    between atoms: C_1  and  N_6
    2  A    between atoms: C_2  and  C_18
    3  A    between atoms: C_2  and  C_20
    4  A    between atoms: C_4  and  C_19
    5  A    between atoms: O_8  and  C_15
    6  A    between atoms: O_8  and  C_45
    7  A    between atoms: N_9  and  C_20
    8  A    between atoms: C_10  and  C_15
    9  A    between atoms: C_10  and  N_55
   10  A    between atoms: C_11  and  C_30
   11  A    between atoms: C_12  and  C_37
   12  A    between atoms: C_16  and  C_54
   13  A    between atoms: C_18  and  N_33
   14  A    between atoms: O_22  and  C_37
   15  A    between atoms: C_28  and  C_53
   16  A    between atoms: C_36  and  C_41
   17  A    between atoms: C_36  and  N_55
   18  A    between atoms: C_41  and  C_49
   19  A    between atoms: C_45  and  C_52
   20  A    between atoms: C_46  and  C_52
   21  A    between atoms: C_46  and  C_54
   22  A    between atoms: C_48  and  C_50
                            x       y       z     vdW  Elec       q    Type
                         _______ _______ _______ _____ _____    ______ ____

>  <TORSDO>
F 22

$$$$
=
 OpenBabel11042411303D

 55 57  0  0  1  0  0  0  0  0999 V2000
  187.8650  177.6610  137.6840 N   0  0  0  0  0  0  0  0  0  0  0  0
  187.9990  176.6450  136.8830 C   0  0  0  0  0  0  0  0  0  0  0  0
  188.7420  176.9700  134.5990 C   0  0  0  0  0  2  0  0  0  0  0  0
  187.7280  176.8250  135.4520 C   0  0  0  0  0  0  0  0  0  0  0  0
  186.3440  177.1500  135.0040 C   0  0  0  0  0  2  0  0  0  0  0  0
  185.4840  176.0790  135.2730 O   0  0  0  0  0  0  0  0  0  0  0  0
  184.4480  176.6510  136.0190 C   0  0  0  0  0  2  0  0  0  0  0  0
  183.1480  176.5640  135.2440 C   0  0  0  0  0  2  0  0  0  0  0  0
  182.7040  177.8990  134.8720 N   0  0  0  0  0  2  0  0  0  0  0  0
  181.3500  178.0380  135.3700 C   0  0  0  0  0  2  0  0  0  0  0  0
  181.0890  179.4950  135.7080 C   0  0  0  0  0  2  0  0  0  0  0  0
  182.6310  178.6680  138.5710 C   0  0  1  0  0  3  0  0  0  0  0  0
  181.6490  177.9290  139.4990 C   0  0  1  0  0  3  0  0  0  0  0  0
  180.1700  178.1110  139.1310 C   0  0  2  0  0  3  0  0  0  0  0  0
  182.0120  179.9460  138.0040 C   0  0  0  0  0  2  0  0  0  0  0  0
  179.9850  178.4060  137.6420 C   0  0  0  0  0  2  0  0  0  0  0  0
  179.6080  179.1330  139.9060 O   0  0  0  0  0  1  0  0  0  0  0  0
  180.7470  179.6560  137.1760 C   0  0  2  0  0  3  0  0  0  0  0  0
  185.0140  179.4150  141.3940 O   0  0  0  0  0  1  0  0  0  0  0  0
  183.9020  178.9700  139.2940 C   0  0  0  0  0  0  0  0  0  0  0  0
  183.8840  179.1050  140.7140 N   0  0  0  0  0  2  0  0  0  0  0  0
  184.9770  179.1360  138.6520 O   0  0  0  0  0  0  0  0  0  0  0  0
  183.1320  176.0690  139.2370 O   0  0  0  0  0  0  0  0  0  0  0  0
  181.9910  176.4770  139.5920 C   0  0  0  0  0  0  0  0  0  0  0  0
  181.0380  175.5850  140.0850 O   0  0  0  0  0  0  0  0  0  0  0  0
  180.3260  174.7050  139.2290 C   0  0  0  0  0  1  0  0  0  0  0  0
  188.3880  175.2880  137.3940 C   0  0  0  0  0  2  0  0  0  0  0  0
  192.1330  175.8050  137.1590 C   0  0  0  0  0  3  0  0  0  0  0  0
  189.8420  175.0150  137.1960 C   0  0  0  0  0  0  0  0  0  0  0  0
  190.7690  176.0490  137.3530 C   0  0  0  0  0  3  0  0  0  0  0  0
  190.2800  173.7360  136.8320 C   0  0  0  0  0  3  0  0  0  0  0  0
  191.6440  173.4920  136.6380 C   0  0  0  0  0  3  0  0  0  0  0  0
  192.5750  174.5280  136.7980 C   0  0  0  0  0  0  0  0  0  0  0  0
  194.8650  174.5130  137.5520 N   0  0  0  0  0  0  0  0  0  0  0  0
  194.0110  174.3010  136.6020 C   0  0  0  0  0  3  0  0  0  0  0  0
  196.2680  174.3020  137.3750 C   0  0  0  0  0  0  0  0  0  0  0  0
  196.7370  173.1500  136.5610 C   0  0  0  0  0  1  0  0  0  0  0  0
  197.1130  175.0760  137.9010 O   0  0  0  0  0  0  0  0  0  0  0  0
  188.0610  177.6220  139.1310 C   0  0  0  0  0  2  0  0  0  0  0  0
  189.3190  178.3780  139.5140 C   0  0  0  0  0  2  0  0  0  0  0  0
  190.0800  177.5920  140.5650 C   0  0  0  0  0  2  0  0  0  0  0  0
  189.8420  177.9130  143.0630 C   0  0  0  0  0  0  0  0  0  0  0  0
  191.0210  178.3560  143.1380 O   0  0  0  0  0  0  0  0  0  0  0  0
  189.3030  177.5310  141.7940 N   0  0  0  0  0  2  0  0  0  0  0  0
  186.6760  177.7830  145.1400 C   0  0  0  0  0  0  0  0  0  0  0  0
  189.0110  177.8220  144.2760 C   0  0  0  0  0  0  0  0  0  0  0  0
  186.8200  177.1200  146.3660 O   0  0  0  0  0  0  0  0  0  0  0  0
  190.2230  176.5090  147.4800 O   0  0  0  0  0  1  0  0  0  0  0  0
  189.6990  177.8660  145.6020 C   0  0  0  0  0  2  0  0  0  0  0  0
  187.7150  177.8640  144.1460 N   0  0  0  0  0  0  0  0  0  0  0  0
  189.2310  176.7630  146.5300 C   0  0  2  0  0  3  0  0  0  0  0  0
  187.9470  177.1740  147.2330 C   0  0  1  0  0  3  0  0  0  0  0  0
  185.5280  178.1920  144.8270 O   0  0  0  0  0  0  0  0  0  0  0  0
  188.5560  178.3670  149.2250 O   0  0  0  0  0  1  0  0  0  0  0  0
  188.0420  178.5300  147.9360 C   0  0  0  0  0  2  0  0  0  0  0  0
  1 39  1  0  0  0  0
  2 27  1  0  0  0  0
  2  1  2  0  0  0  0
  3  4  2  0  0  0  0
  4  2  1  0  0  0  0
  5  6  1  0  0  0  0
  5  4  1  0  0  0  0
  6  7  1  0  0  0  0
  8  7  1  0  0  0  0
  9  8  1  0  0  0  0
  9 10  1  0  0  0  0
 10 11  1  0  0  0  0
 12 20  1  1  0  0  0
 12 13  1  0  0  0  0
 13 24  1  6  0  0  0
 14 13  1  0  0  0  0
 14 17  1  1  0  0  0
 15 12  1  0  0  0  0
 16 14  1  0  0  0  0
 18 11  1  6  0  0  0
 18 16  1  0  0  0  0
 18 15  1  0  0  0  0
 20 21  1  0  0  0  0
 21 19  1  0  0  0  0
 22 20  2  0  0  0  0
 23 24  2  0  0  0  0
 24 25  1  0  0  0  0
 26 25  1  0  0  0  0
 28 30  1  0  0  0  0
 29 30  2  0  0  0  0
 29 27  1  0  0  0  0
 31 29  1  0  0  0  0
 32 33  1  0  0  0  0
 32 31  2  0  0  0  0
 33 28  2  0  0  0  0
 35 33  1  0  0  0  0
 35 34  2  0  0  0  0
 36 34  1  0  0  0  0
 36 38  2  0  0  0  0
 37 36  1  0  0  0  0
 39 40  1  0  0  0  0
 40 41  1  0  0  0  0
 41 44  1  0  0  0  0
 42 43  2  0  0  0  0
 42 46  1  0  0  0  0
 44 42  1  0  0  0  0
 45 47  1  0  0  0  0
 46 49  1  0  0  0  0
 47 52  1  0  0  0  0
 49 51  1  0  0  0  0
 50 46  2  0  0  0  0
 50 45  1  0  0  0  0
 51 52  1  0  0  0  0
 51 48  1  1  0  0  0
 52 55  1  6  0  0  0
 53 45  2  0  0  0  0
 55 54  1  0  0  0  0
M  END
>  <MODEL>
5

>  <REMARK>
 VINA RESULT:      -5.9      2.097      7.565
  Name = 
  22 active torsions:
  status: ('A' for Active; 'I' for Inactive)
    1  A    between atoms: C_1  and  N_6
    2  A    between atoms: C_2  and  C_18
    3  A    between atoms: C_2  and  C_20
    4  A    between atoms: C_4  and  C_19
    5  A    between atoms: O_8  and  C_15
    6  A    between atoms: O_8  and  C_45
    7  A    between atoms: N_9  and  C_20
    8  A    between atoms: C_10  and  C_15
    9  A    between atoms: C_10  and  N_55
   10  A    between atoms: C_11  and  C_30
   11  A    between atoms: C_12  and  C_37
   12  A    between atoms: C_16  and  C_54
   13  A    between atoms: C_18  and  N_33
   14  A    between atoms: O_22  and  C_37
   15  A    between atoms: C_28  and  C_53
   16  A    between atoms: C_36  and  C_41
   17  A    between atoms: C_36  and  N_55
   18  A    between atoms: C_41  and  C_49
   19  A    between atoms: C_45  and  C_52
   20  A    between atoms: C_46  and  C_52
   21  A    between atoms: C_46  and  C_54
   22  A    between atoms: C_48  and  C_50
                            x       y       z     vdW  Elec       q    Type
                         _______ _______ _______ _____ _____    ______ ____

>  <TORSDO>
F 22

$$$$
=
 OpenBabel11042411303D

 55 57  0  0  1  0  0  0  0  0999 V2000
  186.2610  176.9670  137.3920 N   0  0  0  0  0  0  0  0  0  0  0  0
  187.4910  177.2820  137.1120 C   0  0  0  0  0  0  0  0  0  0  0  0
  189.0330  179.0310  137.7770 C   0  0  0  0  0  2  0  0  0  0  0  0
  188.2970  177.9740  138.1250 C   0  0  0  0  0  0  0  0  0  0  0  0
  188.5320  177.3230  139.4450 C   0  0  0  0  0  2  0  0  0  0  0  0
  189.6950  177.8310  140.0360 O   0  0  0  0  0  0  0  0  0  0  0  0
  190.1060  176.8200  140.9100 C   0  0  0  0  0  2  0  0  0  0  0  0
  191.2940  177.2940  141.7230 C   0  0  0  0  0  2  0  0  0  0  0  0
  191.1920  176.7940  143.0850 N   0  0  0  0  0  2  0  0  0  0  0  0
  191.3790  177.9350  143.9600 C   0  0  0  0  0  2  0  0  0  0  0  0
  190.0460  178.6310  144.1660 C   0  0  0  0  0  2  0  0  0  0  0  0
  186.7690  178.4910  143.4570 C   0  0  1  0  0  3  0  0  0  0  0  0
  185.9730  178.1430  144.7290 C   0  0  1  0  0  3  0  0  0  0  0  0
  186.8180  177.5390  145.8590 C   0  0  2  0  0  3  0  0  0  0  0  0
  187.9590  177.5520  143.2650 C   0  0  0  0  0  2  0  0  0  0  0  0
  188.2790  177.9830  145.7800 C   0  0  0  0  0  2  0  0  0  0  0  0
  186.7300  176.1420  145.8260 O   0  0  0  0  0  1  0  0  0  0  0  0
  188.9470  177.6230  144.4440 C   0  0  2  0  0  3  0  0  0  0  0  0
  185.2480  179.4510  140.1450 O   0  0  0  0  0  1  0  0  0  0  0  0
  185.8750  178.4660  142.2610 C   0  0  0  0  0  0  0  0  0  0  0  0
  186.0670  179.4250  141.2240 N   0  0  0  0  0  2  0  0  0  0  0  0
  184.9380  177.6230  142.1840 O   0  0  0  0  0  0  0  0  0  0  0  0
  185.4110  179.7770  146.3850 O   0  0  0  0  0  0  0  0  0  0  0  0
  185.2080  179.3280  145.2220 C   0  0  0  0  0  0  0  0  0  0  0  0
  184.2760  179.9340  144.3800 O   0  0  0  0  0  0  0  0  0  0  0  0
  182.9540  179.4340  144.2460 C   0  0  0  0  0  1  0  0  0  0  0  0
  188.0910  176.9870  135.7680 C   0  0  0  0  0  2  0  0  0  0  0  0
  190.5420  174.2780  136.7690 C   0  0  0  0  0  3  0  0  0  0  0  0
  189.3490  176.1930  135.8830 C   0  0  0  0  0  0  0  0  0  0  0  0
  189.3630  175.0230  136.6470 C   0  0  0  0  0  3  0  0  0  0  0  0
  190.5210  176.6260  135.2490 C   0  0  0  0  0  3  0  0  0  0  0  0
  191.6990  175.8810  135.3720 C   0  0  0  0  0  3  0  0  0  0  0  0
  191.7130  174.7040  136.1360 C   0  0  0  0  0  0  0  0  0  0  0  0
  193.5620  173.8270  137.4100 N   0  0  0  0  0  0  0  0  0  0  0  0
  192.9320  173.9030  136.2800 C   0  0  0  0  0  3  0  0  0  0  0  0
  194.7550  173.0550  137.5660 C   0  0  0  0  0  0  0  0  0  0  0  0
  196.0380  173.7430  137.8650 C   0  0  0  0  0  1  0  0  0  0  0  0
  194.7350  171.8000  137.4500 O   0  0  0  0  0  0  0  0  0  0  0  0
  185.3310  176.3150  136.4740 C   0  0  0  0  0  2  0  0  0  0  0  0
  184.9250  174.9550  137.0110 C   0  0  0  0  0  2  0  0  0  0  0  0
  183.4390  174.7480  136.7890 C   0  0  0  0  0  2  0  0  0  0  0  0
  182.3990  176.0380  138.7010 C   0  0  0  0  0  0  0  0  0  0  0  0
  182.8110  175.1800  139.5290 O   0  0  0  0  0  0  0  0  0  0  0  0
  182.6990  175.8890  137.3100 N   0  0  0  0  0  2  0  0  0  0  0  0
  179.9180  178.0000  140.7860 C   0  0  0  0  0  0  0  0  0  0  0  0
  181.6390  177.2110  139.1700 C   0  0  0  0  0  0  0  0  0  0  0  0
  180.2120  179.3670  140.8950 O   0  0  0  0  0  0  0  0  0  0  0  0
  182.6640  180.6790  138.5600 O   0  0  0  0  0  1  0  0  0  0  0  0
  181.7700  178.4850  138.4000 C   0  0  0  0  0  2  0  0  0  0  0  0
  180.7750  177.0460  140.1310 N   0  0  0  0  0  0  0  0  0  0  0  0
  182.0360  179.6760  139.2990 C   0  0  2  0  0  3  0  0  0  0  0  0
  180.7300  180.2060  139.8700 C   0  0  1  0  0  3  0  0  0  0  0  0
  178.9310  177.5600  141.4320 O   0  0  0  0  0  0  0  0  0  0  0  0
  179.8000  181.8170  138.3530 O   0  0  0  0  0  1  0  0  0  0  0  0
  179.6720  180.5020  138.8050 C   0  0  0  0  0  2  0  0  0  0  0  0
  2  1  2  0  0  0  0
  2  4  1  0  0  0  0
  3  4  2  0  0  0  0
  4  5  1  0  0  0  0
  5  6  1  0  0  0  0
  6  7  1  0  0  0  0
  7  8  1  0  0  0  0
  8  9  1  0  0  0  0
  9 10  1  0  0  0  0
 10 11  1  0  0  0  0
 12 20  1  6  0  0  0
 12 13  1  0  0  0  0
 13 24  1  1  0  0  0
 13 14  1  0  0  0  0
 14 17  1  6  0  0  0
 15 12  1  0  0  0  0
 15 18  1  0  0  0  0
 16 14  1  0  0  0  0
 18 11  1  6  0  0  0
 18 16  1  0  0  0  0
 19 21  1  0  0  0  0
 21 20  1  0  0  0  0
 22 20  2  0  0  0  0
 24 23  2  0  0  0  0
 25 24  1  0  0  0  0
 26 25  1  0  0  0  0
 27 29  1  0  0  0  0
 27  2  1  0  0  0  0
 29 30  2  0  0  0  0
 30 28  1  0  0  0  0
 31 32  2  0  0  0  0
 31 29  1  0  0  0  0
 32 33  1  0  0  0  0
 33 35  1  0  0  0  0
 33 28  2  0  0  0  0
 34 36  1  0  0  0  0
 35 34  2  0  0  0  0
 36 37  1  0  0  0  0
 38 36  2  0  0  0  0
 39 40  1  0  0  0  0
 39  1  1  0  0  0  0
 41 40  1  0  0  0  0
 41 44  1  0  0  0  0
 42 46  1  0  0  0  0
 42 43  2  0  0  0  0
 44 42  1  0  0  0  0
 45 47  1  0  0  0  0
 45 53  2  0  0  0  0
 46 50  2  0  0  0  0
 49 46  1  0  0  0  0
 49 51  1  0  0  0  0
 50 45  1  0  0  0  0
 51 48  1  6  0  0  0
 51 52  1  0  0  0  0
 52 55  1  6  0  0  0
 52 47  1  0  0  0  0
 54 55  1  0  0  0  0
M  END
>  <MODEL>
6

>  <REMARK>
 VINA RESULT:      -5.9      2.154      3.943
  Name = 
  22 active torsions:
  status: ('A' for Active; 'I' for Inactive)
    1  A    between atoms: C_1  and  N_6
    2  A    between atoms: C_2  and  C_18
    3  A    between atoms: C_2  and  C_20
    4  A    between atoms: C_4  and  C_19
    5  A    between atoms: O_8  and  C_15
    6  A    between atoms: O_8  and  C_45
    7  A    between atoms: N_9  and  C_20
    8  A    between atoms: C_10  and  C_15
    9  A    between atoms: C_10  and  N_55
   10  A    between atoms: C_11  and  C_30
   11  A    between atoms: C_12  and  C_37
   12  A    between atoms: C_16  and  C_54
   13  A    between atoms: C_18  and  N_33
   14  A    between atoms: O_22  and  C_37
   15  A    between atoms: C_28  and  C_53
   16  A    between atoms: C_36  and  C_41
   17  A    between atoms: C_36  and  N_55
   18  A    between atoms: C_41  and  C_49
   19  A    between atoms: C_45  and  C_52
   20  A    between atoms: C_46  and  C_52
   21  A    between atoms: C_46  and  C_54
   22  A    between atoms: C_48  and  C_50
                            x       y       z     vdW  Elec       q    Type
                         _______ _______ _______ _____ _____    ______ ____

>  <TORSDO>
F 22

$$$$
=
 OpenBabel11042411303D

 55 57  0  0  1  0  0  0  0  0999 V2000
  187.5280  177.2230  144.4290 N   0  0  0  0  0  0  0  0  0  0  0  0
  187.7130  177.7930  145.5830 C   0  0  0  0  0  0  0  0  0  0  0  0
  188.2370  176.7620  147.7140 C   0  0  0  0  0  2  0  0  0  0  0  0
  188.6650  177.1960  146.5280 C   0  0  0  0  0  0  0  0  0  0  0  0
  190.1280  177.3540  146.2930 C   0  0  0  0  0  2  0  0  0  0  0  0
  190.5230  176.6030  145.1790 O   0  0  0  0  0  0  0  0  0  0  0  0
  191.2040  177.5200  144.3710 C   0  0  0  0  0  2  0  0  0  0  0  0
  191.3290  176.9700  142.9640 C   0  0  0  0  0  2  0  0  0  0  0  0
  190.5920  177.8140  142.0360 N   0  0  0  0  0  2  0  0  0  0  0  0
  191.2560  177.6970  140.7530 C   0  0  0  0  0  2  0  0  0  0  0  0
  190.7820  176.4350  140.0570 C   0  0  0  0  0  2  0  0  0  0  0  0
  188.8180  176.7390  137.3540 C   0  0  1  0  0  3  0  0  0  0  0  0
  189.1970  175.6730  136.3090 C   0  0  1  0  0  3  0  0  0  0  0  0
  190.5790  175.0410  136.5220 C   0  0  2  0  0  3  0  0  0  0  0  0
  190.0510  177.4690  137.8840 C   0  0  0  0  0  2  0  0  0  0  0  0
  191.0070  175.0850  137.9900 C   0  0  0  0  0  2  0  0  0  0  0  0
  191.5280  175.6850  135.7180 O   0  0  0  0  0  1  0  0  0  0  0  0
  191.0420  176.5090  138.5650 C   0  0  2  0  0  3  0  0  0  0  0  0
  186.7170  178.5740  134.8190 O   0  0  0  0  0  1  0  0  0  0  0  0
  187.8350  177.7050  136.7780 C   0  0  0  0  0  0  0  0  0  0  0  0
  187.5740  177.6850  135.3760 N   0  0  0  0  0  2  0  0  0  0  0  0
  187.2650  178.5530  137.5200 O   0  0  0  0  0  0  0  0  0  0  0  0
  187.2110  174.5730  137.0650 O   0  0  0  0  0  0  0  0  0  0  0  0
  188.1460  174.6160  136.2170 C   0  0  0  0  0  0  0  0  0  0  0  0
  188.2070  173.6850  135.1790 O   0  0  0  0  0  0  0  0  0  0  0  0
  187.4400  172.4910  135.2000 C   0  0  0  0  0  1  0  0  0  0  0  0
  186.9510  179.0230  145.9840 C   0  0  0  0  0  2  0  0  0  0  0  0
  183.2790  178.2370  145.4810 C   0  0  0  0  0  3  0  0  0  0  0  0
  185.5700  179.0300  145.4190 C   0  0  0  0  0  0  0  0  0  0  0  0
  184.5750  178.2460  146.0110 C   0  0  0  0  0  3  0  0  0  0  0  0
  185.2700  179.7970  144.2870 C   0  0  0  0  0  3  0  0  0  0  0  0
  183.9760  179.7880  143.7580 C   0  0  0  0  0  3  0  0  0  0  0  0
  182.9760  179.0050  144.3520 C   0  0  0  0  0  0  0  0  0  0  0  0
  181.3150  179.5290  142.6850 N   0  0  0  0  0  0  0  0  0  0  0  0
  181.6100  178.9780  143.8190 C   0  0  0  0  0  3  0  0  0  0  0  0
  179.9870  179.5150  142.1540 C   0  0  0  0  0  0  0  0  0  0  0  0
  179.3480  178.2160  141.8190 C   0  0  0  0  0  1  0  0  0  0  0  0
  179.3530  180.5880  141.9650 O   0  0  0  0  0  0  0  0  0  0  0  0
  186.5880  177.6790  143.4080 C   0  0  0  0  0  2  0  0  0  0  0  0
  187.3080  177.9090  142.0930 C   0  0  0  0  0  2  0  0  0  0  0  0
  186.5180  178.8930  141.2510 C   0  0  0  0  0  2  0  0  0  0  0  0
  184.3680  178.9390  139.9190 C   0  0  0  0  0  0  0  0  0  0  0  0
  184.6100  180.1150  139.5320 O   0  0  0  0  0  0  0  0  0  0  0  0
  185.2980  178.2610  140.7680 N   0  0  0  0  0  2  0  0  0  0  0  0
  180.8400  178.5800  138.5860 C   0  0  0  0  0  0  0  0  0  0  0  0
  183.1440  178.2520  139.4680 C   0  0  0  0  0  0  0  0  0  0  0  0
  180.5950  177.3680  137.9260 O   0  0  0  0  0  0  0  0  0  0  0  0
  183.0500  174.7380  138.4200 O   0  0  0  0  0  1  0  0  0  0  0  0
  183.0650  176.7700  139.6490 C   0  0  0  0  0  2  0  0  0  0  0  0
  182.1330  178.9760  139.0810 N   0  0  0  0  0  0  0  0  0  0  0  0
  182.6060  176.0610  138.3910 C   0  0  2  0  0  3  0  0  0  0  0  0
  181.0880  176.0860  138.2960 C   0  0  1  0  0  3  0  0  0  0  0  0
  179.9140  179.4330  138.6060 O   0  0  0  0  0  0  0  0  0  0  0  0
  179.8170  174.3130  139.2980 O   0  0  0  0  0  1  0  0  0  0  0  0
  180.3880  175.5620  139.5520 C   0  0  0  0  0  2  0  0  0  0  0  0
  1  2  2  0  0  0  0
  2 27  1  0  0  0  0
  2  4  1  0  0  0  0
  4  3  2  0  0  0  0
  5  4  1  0  0  0  0
  6  5  1  0  0  0  0
  7  6  1  0  0  0  0
  8  7  1  0  0  0  0
  9  8  1  0  0  0  0
 10  9  1  0  0  0  0
 11 10  1  0  0  0  0
 12 20  1  6  0  0  0
 12 15  1  0  0  0  0
 13 24  1  1  0  0  0
 13 14  1  0  0  0  0
 13 12  1  0  0  0  0
 14 17  1  6  0  0  0
 14 16  1  0  0  0  0
 15 18  1  0  0  0  0
 16 18  1  0  0  0  0
 18 11  1  1  0  0  0
 19 21  1  0  0  0  0
 20 22  2  0  0  0  0
 21 20  1  0  0  0  0
 24 23  2  0  0  0  0
 25 26  1  0  0  0  0
 25 24  1  0  0  0  0
 28 30  1  0  0  0  0
 29 27  1  0  0  0  0
 29 30  2  0  0  0  0
 31 29  1  0  0  0  0
 32 31  2  0  0  0  0
 32 33  1  0  0  0  0
 33 28  2  0  0  0  0
 34 35  2  0  0  0  0
 35 33  1  0  0  0  0
 36 34  1  0  0  0  0
 37 36  1  0  0  0  0
 38 36  2  0  0  0  0
 39  1  1  0  0  0  0
 40 39  1  0  0  0  0
 41 40  1  0  0  0  0
 42 44  1  0  0  0  0
 43 42  2  0  0  0  0
 44 41  1  0  0  0  0
 45 53  2  0  0  0  0
 45 50  1  0  0  0  0
 46 49  1  0  0  0  0
 46 42  1  0  0  0  0
 47 52  1  0  0  0  0
 47 45  1  0  0  0  0
 50 46  2  0  0  0  0
 51 48  1  1  0  0  0
 51 49  1  0  0  0  0
 52 51  1  0  0  0  0
 52 55  1  1  0  0  0
 54 55  1  0  0  0  0
M  END
>  <MODEL>
7

>  <REMARK>
 VINA RESULT:      -5.1      2.590      9.366
  Name = 
  22 active torsions:
  status: ('A' for Active; 'I' for Inactive)
    1  A    between atoms: C_1  and  N_6
    2  A    between atoms: C_2  and  C_18
    3  A    between atoms: C_2  and  C_20
    4  A    between atoms: C_4  and  C_19
    5  A    between atoms: O_8  and  C_15
    6  A    between atoms: O_8  and  C_45
    7  A    between atoms: N_9  and  C_20
    8  A    between atoms: C_10  and  C_15
    9  A    between atoms: C_10  and  N_55
   10  A    between atoms: C_11  and  C_30
   11  A    between atoms: C_12  and  C_37
   12  A    between atoms: C_16  and  C_54
   13  A    between atoms: C_18  and  N_33
   14  A    between atoms: O_22  and  C_37
   15  A    between atoms: C_28  and  C_53
   16  A    between atoms: C_36  and  C_41
   17  A    between atoms: C_36  and  N_55
   18  A    between atoms: C_41  and  C_49
   19  A    between atoms: C_45  and  C_52
   20  A    between atoms: C_46  and  C_52
   21  A    between atoms: C_46  and  C_54
   22  A    between atoms: C_48  and  C_50
                            x       y       z     vdW  Elec       q    Type
                         _______ _______ _______ _____ _____    ______ ____

>  <TORSDO>
F 22

$$$$
=
 OpenBabel11042411303D

 55 57  0  0  1  0  0  0  0  0999 V2000
  188.8770  178.3850  141.5610 N   0  0  0  0  0  0  0  0  0  0  0  0
  188.9560  177.8510  142.7430 C   0  0  0  0  0  0  0  0  0  0  0  0
  189.8990  178.4790  144.8870 C   0  0  0  0  0  2  0  0  0  0  0  0
  190.0990  178.1850  143.6020 C   0  0  0  0  0  0  0  0  0  0  0  0
  191.4180  178.4920  142.9780 C   0  0  0  0  0  2  0  0  0  0  0  0
  191.8990  177.3730  142.2870 O   0  0  0  0  0  0  0  0  0  0  0  0
  192.2880  177.8800  141.0440 C   0  0  0  0  0  2  0  0  0  0  0  0
  192.1670  176.7980  139.9880 C   0  0  0  0  0  2  0  0  0  0  0  0
  190.9570  177.0040  139.2060 N   0  0  0  0  0  2  0  0  0  0  0  0
  191.2280  176.4860  137.8800 C   0  0  0  0  0  2  0  0  0  0  0  0
  192.1490  175.2860  137.9900 C   0  0  0  0  0  2  0  0  0  0  0  0
  194.9680  173.6220  137.2540 C   0  0  1  0  0  3  0  0  0  0  0  0
  195.9590  174.5610  136.5400 C   0  0  1  0  0  3  0  0  0  0  0  0
  195.3210  175.8310  135.9610 C   0  0  2  0  0  3  0  0  0  0  0  0
  193.5710  173.7090  136.6400 C   0  0  0  0  0  2  0  0  0  0  0  0
  194.0560  176.2330  136.7210 C   0  0  0  0  0  2  0  0  0  0  0  0
  195.0370  175.6470  134.6020 O   0  0  0  0  0  1  0  0  0  0  0  0
  192.9870  175.1300  136.7350 C   0  0  2  0  0  3  0  0  0  0  0  0
  195.8850  170.1590  138.4260 O   0  0  0  0  0  1  0  0  0  0  0  0
  195.4730  172.2170  137.2260 C   0  0  0  0  0  0  0  0  0  0  0  0
  195.4010  171.4240  138.4100 N   0  0  0  0  0  2  0  0  0  0  0  0
  195.9870  171.7450  136.1740 O   0  0  0  0  0  0  0  0  0  0  0  0
  198.2160  175.2470  136.9390 O   0  0  0  0  0  0  0  0  0  0  0  0
  197.1040  174.9100  137.4330 C   0  0  0  0  0  0  0  0  0  0  0  0
  196.9250  174.8660  138.8160 O   0  0  0  0  0  0  0  0  0  0  0  0
  198.0210  174.9560  139.7150 C   0  0  0  0  0  1  0  0  0  0  0  0
  187.9250  176.8770  143.2360 C   0  0  0  0  0  2  0  0  0  0  0  0
  184.9000  178.4710  144.8660 C   0  0  0  0  0  3  0  0  0  0  0  0
  186.5900  177.5200  143.4110 C   0  0  0  0  0  0  0  0  0  0  0  0
  186.1550  177.8770  144.6910 C   0  0  0  0  0  3  0  0  0  0  0  0
  185.7610  177.7460  142.3050 C   0  0  0  0  0  3  0  0  0  0  0  0
  184.5060  178.3390  142.4810 C   0  0  0  0  0  3  0  0  0  0  0  0
  184.0700  178.7010  143.7640 C   0  0  0  0  0  0  0  0  0  0  0  0
  181.6740  178.7910  143.5170 N   0  0  0  0  0  0  0  0  0  0  0  0
  182.7610  179.3250  143.9770 C   0  0  0  0  0  3  0  0  0  0  0  0
  180.3900  179.3900  143.7120 C   0  0  0  0  0  0  0  0  0  0  0  0
  179.9630  180.5070  142.8290 C   0  0  0  0  0  1  0  0  0  0  0  0
  179.6180  178.9870  144.6220 O   0  0  0  0  0  0  0  0  0  0  0  0
  187.8230  178.1170  140.5860 C   0  0  0  0  0  2  0  0  0  0  0  0
  188.2370  178.6090  139.2120 C   0  0  0  0  0  2  0  0  0  0  0  0
  187.8530  177.5750  138.1690 C   0  0  0  0  0  2  0  0  0  0  0  0
  185.7500  176.5360  137.2250 C   0  0  0  0  0  0  0  0  0  0  0  0
  186.4340  175.7800  136.4820 O   0  0  0  0  0  0  0  0  0  0  0  0
  186.4040  177.4480  138.1110 N   0  0  0  0  0  2  0  0  0  0  0  0
  182.1790  177.7520  136.8700 C   0  0  0  0  0  0  0  0  0  0  0  0
  184.2780  176.4560  137.2030 C   0  0  0  0  0  0  0  0  0  0  0  0
  181.2670  176.7560  136.4910 O   0  0  0  0  0  0  0  0  0  0  0  0
  182.4160  173.3230  136.7850 O   0  0  0  0  0  1  0  0  0  0  0  0
  183.6400  175.1740  137.6310 C   0  0  0  0  0  2  0  0  0  0  0  0
  183.6010  177.5420  136.9630 N   0  0  0  0  0  0  0  0  0  0  0  0
  182.5820  174.7030  136.6540 C   0  0  2  0  0  3  0  0  0  0  0  0
  181.2600  175.4030  136.9300 C   0  0  1  0  0  3  0  0  0  0  0  0
  181.7480  178.9290  136.9780 O   0  0  0  0  0  0  0  0  0  0  0  0
  180.3310  176.5280  138.8360 O   0  0  0  0  0  1  0  0  0  0  0  0
  180.8020  175.2920  138.3860 C   0  0  0  0  0  2  0  0  0  0  0  0
  1  2  2  0  0  0  0
  2 27  1  0  0  0  0
  2  4  1  0  0  0  0
  4  3  2  0  0  0  0
  5  4  1  0  0  0  0
  6  5  1  0  0  0  0
  7  6  1  0  0  0  0
  8  7  1  0  0  0  0
  9  8  1  0  0  0  0
 10 11  1  0  0  0  0
 10  9  1  0  0  0  0
 12 20  1  6  0  0  0
 13 12  1  0  0  0  0
 13 24  1  1  0  0  0
 14 17  1  6  0  0  0
 14 13  1  0  0  0  0
 14 16  1  0  0  0  0
 15 18  1  0  0  0  0
 15 12  1  0  0  0  0
 16 18  1  0  0  0  0
 18 11  1  1  0  0  0
 20 21  1  0  0  0  0
 21 19  1  0  0  0  0
 22 20  2  0  0  0  0
 23 24  2  0  0  0  0
 24 25  1  0  0  0  0
 25 26  1  0  0  0  0
 27 29  1  0  0  0  0
 29 30  2  0  0  0  0
 30 28  1  0  0  0  0
 31 32  2  0  0  0  0
 31 29  1  0  0  0  0
 32 33  1  0  0  0  0
 33 35  1  0  0  0  0
 33 28  2  0  0  0  0
 34 36  1  0  0  0  0
 34 35  2  0  0  0  0
 36 38  2  0  0  0  0
 37 36  1  0  0  0  0
 39  1  1  0  0  0  0
 40 39  1  0  0  0  0
 41 40  1  0  0  0  0
 42 44  1  0  0  0  0
 43 42  2  0  0  0  0
 44 41  1  0  0  0  0
 45 50  1  0  0  0  0
 45 53  2  0  0  0  0
 46 42  1  0  0  0  0
 46 49  1  0  0  0  0
 47 45  1  0  0  0  0
 47 52  1  0  0  0  0
 50 46  2  0  0  0  0
 51 48  1  1  0  0  0
 51 52  1  0  0  0  0
 51 49  1  0  0  0  0
 52 55  1  1  0  0  0
 55 54  1  0  0  0  0
M  END
>  <MODEL>
8

>  <REMARK>
 VINA RESULT:      -5.0      2.559      9.593
  Name = 
  22 active torsions:
  status: ('A' for Active; 'I' for Inactive)
    1  A    between atoms: C_1  and  N_6
    2  A    between atoms: C_2  and  C_18
    3  A    between atoms: C_2  and  C_20
    4  A    between atoms: C_4  and  C_19
    5  A    between atoms: O_8  and  C_15
    6  A    between atoms: O_8  and  C_45
    7  A    between atoms: N_9  and  C_20
    8  A    between atoms: C_10  and  C_15
    9  A    between atoms: C_10  and  N_55
   10  A    between atoms: C_11  and  C_30
   11  A    between atoms: C_12  and  C_37
   12  A    between atoms: C_16  and  C_54
   13  A    between atoms: C_18  and  N_33
   14  A    between atoms: O_22  and  C_37
   15  A    between atoms: C_28  and  C_53
   16  A    between atoms: C_36  and  C_41
   17  A    between atoms: C_36  and  N_55
   18  A    between atoms: C_41  and  C_49
   19  A    between atoms: C_45  and  C_52
   20  A    between atoms: C_46  and  C_52
   21  A    between atoms: C_46  and  C_54
   22  A    between atoms: C_48  and  C_50
                            x       y       z     vdW  Elec       q    Type
                         _______ _______ _______ _____ _____    ______ ____

>  <TORSDO>
F 22

$$$$
=
 OpenBabel11042411303D

 55 57  0  0  1  0  0  0  0  0999 V2000
  187.8940  178.2770  137.9540 N   0  0  0  0  0  0  0  0  0  0  0  0
  188.0800  177.2490  137.1800 C   0  0  0  0  0  0  0  0  0  0  0  0
  189.1980  177.6010  135.0580 C   0  0  0  0  0  2  0  0  0  0  0  0
  188.0550  177.4380  135.7250 C   0  0  0  0  0  0  0  0  0  0  0  0
  186.7630  177.7530  135.0490 C   0  0  0  0  0  2  0  0  0  0  0  0
  185.9390  176.6210  135.0300 O   0  0  0  0  0  0  0  0  0  0  0  0
  184.7790  177.0320  135.6940 C   0  0  0  0  0  2  0  0  0  0  0  0
  184.0970  175.8330  136.3240 C   0  0  0  0  0  2  0  0  0  0  0  0
  182.6690  176.0880  136.4520 N   0  0  0  0  0  2  0  0  0  0  0  0
  182.2010  175.2740  137.5560 C   0  0  0  0  0  2  0  0  0  0  0  0
  180.7060  175.0540  137.4160 C   0  0  0  0  0  2  0  0  0  0  0  0
  180.5850  178.2290  138.4940 C   0  0  1  0  0  3  0  0  0  0  0  0
  180.7670  178.2690  140.0230 C   0  0  1  0  0  3  0  0  0  0  0  0
  180.5320  176.9250  140.7250 C   0  0  2  0  0  3  0  0  0  0  0  0
  179.5470  177.1860  138.0800 C   0  0  0  0  0  2  0  0  0  0  0  0
  180.8040  175.7400  139.7960 C   0  0  0  0  0  2  0  0  0  0  0  0
  179.2230  176.8660  141.2190 O   0  0  0  0  0  1  0  0  0  0  0  0
  179.9490  175.7660  138.5200 C   0  0  2  0  0  3  0  0  0  0  0  0
  178.9960  181.6420  138.3150 O   0  0  0  0  0  1  0  0  0  0  0  0
  180.2130  179.5800  137.9800 C   0  0  0  0  0  0  0  0  0  0  0  0
  179.3810  180.4260  138.7710 N   0  0  0  0  0  2  0  0  0  0  0  0
  180.6050  179.9590  136.8400 O   0  0  0  0  0  0  0  0  0  0  0  0
  182.5590  178.6720  141.5570 O   0  0  0  0  0  0  0  0  0  0  0  0
  182.1050  178.8240  140.3890 C   0  0  0  0  0  0  0  0  0  0  0  0
  182.8470  179.5010  139.4200 O   0  0  0  0  0  0  0  0  0  0  0  0
  184.2500  179.3210  139.2930 C   0  0  0  0  0  1  0  0  0  0  0  0
  188.2830  175.8700  137.7400 C   0  0  0  0  0  2  0  0  0  0  0  0
  191.2500  173.7440  136.7280 C   0  0  0  0  0  3  0  0  0  0  0  0
  189.6870  175.3990  137.5620 C   0  0  0  0  0  0  0  0  0  0  0  0
  189.9370  174.1990  136.8900 C   0  0  0  0  0  3  0  0  0  0  0  0
  190.7550  176.1390  138.0860 C   0  0  0  0  0  3  0  0  0  0  0  0
  192.0680  175.6830  137.9250 C   0  0  0  0  0  3  0  0  0  0  0  0
  192.3190  174.4820  137.2470 C   0  0  0  0  0  0  0  0  0  0  0  0
  194.6330  174.2780  137.8940 N   0  0  0  0  0  0  0  0  0  0  0  0
  193.6850  173.9810  137.0620 C   0  0  0  0  0  3  0  0  0  0  0  0
  195.9710  173.8030  137.7240 C   0  0  0  0  0  0  0  0  0  0  0  0
  196.4500  173.4380  136.3660 C   0  0  0  0  0  1  0  0  0  0  0  0
  196.7470  173.6860  138.7100 O   0  0  0  0  0  0  0  0  0  0  0  0
  187.8530  178.2330  139.4140 C   0  0  0  0  0  2  0  0  0  0  0  0
  189.2570  178.2940  139.9830 C   0  0  0  0  0  2  0  0  0  0  0  0
  189.3840  177.2970  141.1210 C   0  0  0  0  0  2  0  0  0  0  0  0
  188.7020  177.2040  143.5550 C   0  0  0  0  0  0  0  0  0  0  0  0
  189.6570  176.4210  143.8120 O   0  0  0  0  0  0  0  0  0  0  0  0
  188.5220  177.6970  142.2240 N   0  0  0  0  0  2  0  0  0  0  0  0
  187.5850  178.0170  147.0830 C   0  0  0  0  0  0  0  0  0  0  0  0
  187.7930  177.6370  144.6310 C   0  0  0  0  0  0  0  0  0  0  0  0
  186.5430  178.9510  147.1550 O   0  0  0  0  0  0  0  0  0  0  0  0
  184.7620  179.6230  144.0610 O   0  0  0  0  0  1  0  0  0  0  0  0
  186.3600  177.8800  144.2830 C   0  0  0  0  0  2  0  0  0  0  0  0
  188.2370  177.6370  145.8560 N   0  0  0  0  0  0  0  0  0  0  0  0
  185.8530  179.2010  144.8250 C   0  0  2  0  0  3  0  0  0  0  0  0
  185.4280  179.0470  146.2770 C   0  0  1  0  0  3  0  0  0  0  0  0
  188.0810  177.6090  148.1650 O   0  0  0  0  0  0  0  0  0  0  0  0
  184.4550  177.5160  147.8490 O   0  0  0  0  0  1  0  0  0  0  0  0
  184.4390  177.9020  146.5070 C   0  0  0  0  0  2  0  0  0  0  0  0
  1 39  1  0  0  0  0
  2 27  1  0  0  0  0
  2  1  2  0  0  0  0
  3  4  2  0  0  0  0
  4  2  1  0  0  0  0
  5  4  1  0  0  0  0
  6  5  1  0  0  0  0
  6  7  1  0  0  0  0
  7  8  1  0  0  0  0
  8  9  1  0  0  0  0
  9 10  1  0  0  0  0
 11 10  1  0  0  0  0
 12 20  1  1  0  0  0
 12 13  1  0  0  0  0
 13 24  1  6  0  0  0
 13 14  1  0  0  0  0
 14 17  1  6  0  0  0
 15 12  1  0  0  0  0
 15 18  1  0  0  0  0
 16 14  1  0  0  0  0
 18 11  1  6  0  0  0
 18 16  1  0  0  0  0
 19 21  1  0  0  0  0
 20 21  1  0  0  0  0
 22 20  2  0  0  0  0
 24 23  2  0  0  0  0
 25 24  1  0  0  0  0
 26 25  1  0  0  0  0
 28 30  2  0  0  0  0
 28 33  1  0  0  0  0
 29 27  1  0  0  0  0
 29 31  2  0  0  0  0
 30 29  1  0  0  0  0
 32 31  1  0  0  0  0
 33 32  2  0  0  0  0
 35 33  1  0  0  0  0
 35 34  2  0  0  0  0
 36 34  1  0  0  0  0
 36 38  2  0  0  0  0
 37 36  1  0  0  0  0
 39 40  1  0  0  0  0
 40 41  1  0  0  0  0
 41 44  1  0  0  0  0
 42 43  2  0  0  0  0
 42 46  1  0  0  0  0
 44 42  1  0  0  0  0
 45 47  1  0  0  0  0
 45 53  2  0  0  0  0
 46 50  2  0  0  0  0
 49 46  1  0  0  0  0
 49 51  1  0  0  0  0
 50 45  1  0  0  0  0
 51 48  1  6  0  0  0
 51 52  1  0  0  0  0
 52 55  1  6  0  0  0
 52 47  1  0  0  0  0
 55 54  1  0  0  0  0
M  END
>  <MODEL>
9

>  <REMARK>
 VINA RESULT:      -4.9      2.012      7.349
  Name = 
  22 active torsions:
  status: ('A' for Active; 'I' for Inactive)
    1  A    between atoms: C_1  and  N_6
    2  A    between atoms: C_2  and  C_18
    3  A    between atoms: C_2  and  C_20
    4  A    between atoms: C_4  and  C_19
    5  A    between atoms: O_8  and  C_15
    6  A    between atoms: O_8  and  C_45
    7  A    between atoms: N_9  and  C_20
    8  A    between atoms: C_10  and  C_15
    9  A    between atoms: C_10  and  N_55
   10  A    between atoms: C_11  and  C_30
   11  A    between atoms: C_12  and  C_37
   12  A    between atoms: C_16  and  C_54
   13  A    between atoms: C_18  and  N_33
   14  A    between atoms: O_22  and  C_37
   15  A    between atoms: C_28  and  C_53
   16  A    between atoms: C_36  and  C_41
   17  A    between atoms: C_36  and  N_55
   18  A    between atoms: C_41  and  C_49
   19  A    between atoms: C_45  and  C_52
   20  A    between atoms: C_46  and  C_52
   21  A    between atoms: C_46  and  C_54
   22  A    between atoms: C_48  and  C_50
                            x       y       z     vdW  Elec       q    Type
                         _______ _______ _______ _____ _____    ______ ____

>  <TORSDO>
F 22

$$$$
