=
 OpenBabel11032420353D

 27 29  0  0  1  0  0  0  0  0999 V2000
  185.2440  178.7380  145.4840 C   0  0  0  0  0  3  0  0  0  0  0  0
  187.0180  178.0660  146.9740 C   0  0  0  0  0  0  0  0  0  0  0  0
  187.2280  177.6430  144.5810 C   0  0  0  0  0  0  0  0  0  0  0  0
  185.9560  178.2400  144.3780 C   0  0  0  0  0  0  0  0  0  0  0  0
  185.7730  178.6560  146.7710 C   0  0  0  0  0  3  0  0  0  0  0  0
  187.7390  177.5690  145.8870 C   0  0  0  0  0  3  0  0  0  0  0  0
  188.0620  177.0880  143.4810 C   0  0  0  0  0  0  0  0  0  0  0  0
  188.9590  177.9570  142.7730 N   0  0  0  0  0  2  0  0  0  0  0  0
  187.9780  175.8730  143.1610 O   0  0  0  0  0  0  0  0  0  0  0  0
  189.4050  177.3480  140.4600 C   0  0  0  0  0  3  0  0  0  0  0  0
  192.8200  177.0950  139.6530 O   0  0  0  0  0  0  0  0  0  0  0  0
  189.8340  177.5960  141.6940 C   0  0  0  0  0  0  0  0  0  0  0  0
  191.5960  177.4720  141.9620 S   0  0  0  0  0  0  0  0  0  0  0  0
  190.4600  177.0070  139.4700 C   0  0  0  0  0  2  0  0  0  0  0  0
  191.7380  177.1620  140.2110 C   0  0  0  0  0  0  0  0  0  0  0  0
  185.3210  178.3210  143.0140 C   0  0  2  0  0  3  0  0  0  0  0  0
  186.0060  179.3350  142.1100 C   0  0  0  0  0  1  0  0  0  0  0  0
  183.1710  178.6200  144.3170 C   0  0  0  0  0  3  0  0  0  0  0  0
  181.0500  178.8750  143.1600 C   0  0  0  0  0  0  0  0  0  0  0  0
  181.7180  178.7770  141.9350 C   0  0  0  0  0  3  0  0  0  0  0  0
  183.1050  178.6030  141.8970 C   0  0  0  0  0  3  0  0  0  0  0  0
  183.8370  178.5290  143.0850 C   0  0  0  0  0  0  0  0  0  0  0  0
  181.7850  178.7950  144.3540 C   0  0  0  0  0  3  0  0  0  0  0  0
  179.6640  179.0490  143.1620 O   0  0  0  0  0  0  0  0  0  0  0  0
  178.9310  179.3510  144.3420 C   0  0  0  0  0  1  0  0  0  0  0  0
  188.9690  178.2370  148.2880 O   0  0  0  0  0  1  0  0  0  0  0  0
  187.5960  177.9970  148.3440 C   0  0  0  0  0  2  0  0  0  0  0  0
  1  5  1  0  0  0  0
  2 27  1  0  0  0  0
  3  6  2  0  0  0  0
  4  3  1  0  0  0  0
  4  1  2  0  0  0  0
  5  2  2  0  0  0  0
  6  2  1  0  0  0  0
  7  3  1  0  0  0  0
  8  7  1  0  0  0  0
  9  7  2  0  0  0  0
 10 12  2  0  0  0  0
 11 15  2  0  0  0  0
 12 13  1  0  0  0  0
 12  8  1  0  0  0  0
 14 15  1  0  0  0  0
 14 10  1  0  0  0  0
 15 13  1  0  0  0  0
 16 17  1  6  0  0  0
 16 22  1  0  0  0  0
 16  4  1  0  0  0  0
 18 23  1  0  0  0  0
 19 24  1  0  0  0  0
 19 23  2  0  0  0  0
 20 19  1  0  0  0  0
 21 20  2  0  0  0  0
 21 22  1  0  0  0  0
 22 18  2  0  0  0  0
 24 25  1  0  0  0  0
 26 27  1  0  0  0  0
M  END
>  <MODEL>
1

>  <REMARK>
 VINA RESULT:      -9.2      0.000      0.000
  Name = 
  6 active torsions:
  status: ('A' for Active; 'I' for Inactive)
    1  A    between atoms: C_3  and  C_11
    2  A    between atoms: C_5  and  C_13
    3  A    between atoms: C_5  and  C_23
    4  A    between atoms: C_6  and  O_17
    5  A    between atoms: C_8  and  C_27
    6  A    between atoms: N_9  and  C_10
                            x       y       z     vdW  Elec       q    Type
                         _______ _______ _______ _____ _____    ______ ____

>  <TORSDO>
F 6

$$$$
=
 OpenBabel11032420353D

 27 29  0  0  1  0  0  0  0  0999 V2000
  191.4300  178.0020  141.8300 C   0  0  0  0  0  3  0  0  0  0  0  0
  190.4170  176.7280  140.0500 C   0  0  0  0  0  0  0  0  0  0  0  0
  189.0730  177.3920  141.9750 C   0  0  0  0  0  0  0  0  0  0  0  0
  190.2130  178.0310  142.5320 C   0  0  0  0  0  0  0  0  0  0  0  0
  191.5310  177.3610  140.5980 C   0  0  0  0  0  3  0  0  0  0  0  0
  189.1990  176.7500  140.7330 C   0  0  0  0  0  3  0  0  0  0  0  0
  187.7410  177.3650  142.6340 C   0  0  0  0  0  0  0  0  0  0  0  0
  186.7980  178.4130  142.3560 N   0  0  0  0  0  2  0  0  0  0  0  0
  187.4390  176.4440  143.4380 O   0  0  0  0  0  0  0  0  0  0  0  0
  185.2320  178.7670  144.1840 C   0  0  0  0  0  3  0  0  0  0  0  0
  181.8690  179.0410  143.1900 O   0  0  0  0  0  0  0  0  0  0  0  0
  185.4750  178.5450  142.8960 C   0  0  0  0  0  0  0  0  0  0  0  0
  184.0470  178.4290  141.8280 S   0  0  0  0  0  0  0  0  0  0  0  0
  183.7990  178.8950  144.5560 C   0  0  0  0  0  2  0  0  0  0  0  0
  183.0670  178.8260  143.2650 C   0  0  0  0  0  0  0  0  0  0  0  0
  190.1700  178.7060  143.8780 C   0  0  2  0  0  3  0  0  0  0  0  0
  190.9870  179.9900  143.9130 C   0  0  0  0  0  1  0  0  0  0  0  0
  189.7450  177.7030  146.1630 C   0  0  0  0  0  3  0  0  0  0  0  0
  191.2570  176.0390  147.0830 C   0  0  0  0  0  0  0  0  0  0  0  0
  192.0340  176.1170  145.9230 C   0  0  0  0  0  3  0  0  0  0  0  0
  191.6700  176.9810  144.8850 C   0  0  0  0  0  3  0  0  0  0  0  0
  190.5240  177.7730  144.9980 C   0  0  0  0  0  0  0  0  0  0  0  0
  190.1090  176.8390  147.1990 C   0  0  0  0  0  3  0  0  0  0  0  0
  191.6480  175.1650  148.1010 O   0  0  0  0  0  0  0  0  0  0  0  0
  192.8910  175.2860  148.7800 C   0  0  0  0  0  1  0  0  0  0  0  0
  190.7560  177.0140  137.7350 O   0  0  0  0  0  1  0  0  0  0  0  0
  190.5140  176.0610  138.7240 C   0  0  0  0  0  2  0  0  0  0  0  0
  1  4  1  0  0  0  0
  2  5  1  0  0  0  0
  2  6  2  0  0  0  0
  3  4  2  0  0  0  0
  3  7  1  0  0  0  0
  4 16  1  0  0  0  0
  5  1  2  0  0  0  0
  6  3  1  0  0  0  0
  7  9  2  0  0  0  0
  8  7  1  0  0  0  0
  8 12  1  0  0  0  0
 10 14  1  0  0  0  0
 11 15  2  0  0  0  0
 12 10  2  0  0  0  0
 13 12  1  0  0  0  0
 13 15  1  0  0  0  0
 15 14  1  0  0  0  0
 16 17  1  6  0  0  0
 16 22  1  0  0  0  0
 18 23  1  0  0  0  0
 19 23  2  0  0  0  0
 19 24  1  0  0  0  0
 20 19  1  0  0  0  0
 21 22  1  0  0  0  0
 21 20  2  0  0  0  0
 22 18  2  0  0  0  0
 24 25  1  0  0  0  0
 26 27  1  0  0  0  0
 27  2  1  0  0  0  0
M  END
>  <MODEL>
2

>  <REMARK>
 VINA RESULT:      -8.4      2.907      8.326
  Name = 
  6 active torsions:
  status: ('A' for Active; 'I' for Inactive)
    1  A    between atoms: C_3  and  C_11
    2  A    between atoms: C_5  and  C_13
    3  A    between atoms: C_5  and  C_23
    4  A    between atoms: C_6  and  O_17
    5  A    between atoms: C_8  and  C_27
    6  A    between atoms: N_9  and  C_10
                            x       y       z     vdW  Elec       q    Type
                         _______ _______ _______ _____ _____    ______ ____

>  <TORSDO>
F 6

$$$$
=
 OpenBabel11032420353D

 27 29  0  0  1  0  0  0  0  0999 V2000
  187.0160  177.4740  144.6960 C   0  0  0  0  0  3  0  0  0  0  0  0
  185.0130  178.5550  143.8970 C   0  0  0  0  0  0  0  0  0  0  0  0
  186.9190  178.2820  142.3970 C   0  0  0  0  0  0  0  0  0  0  0  0
  187.6330  177.6420  143.4450 C   0  0  0  0  0  0  0  0  0  0  0  0
  185.7160  177.9210  144.9200 C   0  0  0  0  0  3  0  0  0  0  0  0
  185.6100  178.7280  142.6460 C   0  0  0  0  0  3  0  0  0  0  0  0
  187.4780  178.5090  141.0380 C   0  0  0  0  0  0  0  0  0  0  0  0
  186.9380  177.7780  139.9260 N   0  0  0  0  0  2  0  0  0  0  0  0
  188.4220  179.3230  140.8580 O   0  0  0  0  0  0  0  0  0  0  0  0
  186.6200  178.4530  137.6100 C   0  0  0  0  0  3  0  0  0  0  0  0
  189.3920  177.8640  135.5270 O   0  0  0  0  0  0  0  0  0  0  0  0
  187.3510  177.8690  138.5550 C   0  0  0  0  0  0  0  0  0  0  0  0
  188.9230  177.1940  138.0370 S   0  0  0  0  0  0  0  0  0  0  0  0
  187.2190  178.4680  136.2500 C   0  0  0  0  0  2  0  0  0  0  0  0
  188.5690  177.8750  136.4260 C   0  0  0  0  0  0  0  0  0  0  0  0
  189.0540  177.1730  143.2700 C   0  0  2  0  0  3  0  0  0  0  0  0
  189.1480  175.8860  142.4630 C   0  0  0  0  0  1  0  0  0  0  0  0
  189.2430  177.5990  145.7580 C   0  0  0  0  0  3  0  0  0  0  0  0
  191.2390  176.9370  146.9760 C   0  0  0  0  0  0  0  0  0  0  0  0
  191.7840  176.4340  145.7910 C   0  0  0  0  0  3  0  0  0  0  0  0
  191.0650  176.5090  144.5940 C   0  0  0  0  0  3  0  0  0  0  0  0
  189.7920  177.0860  144.5720 C   0  0  0  0  0  0  0  0  0  0  0  0
  189.9620  177.5220  146.9540 C   0  0  0  0  0  3  0  0  0  0  0  0
  191.9830  176.8450  148.1550 O   0  0  0  0  0  0  0  0  0  0  0  0
  192.8680  175.7660  148.4210 C   0  0  0  0  0  1  0  0  0  0  0  0
  183.3720  179.1170  145.4940 O   0  0  0  0  0  1  0  0  0  0  0  0
  183.6160  179.0140  144.1240 C   0  0  0  0  0  2  0  0  0  0  0  0
  1  5  1  0  0  0  0
  2 27  1  0  0  0  0
  2  5  2  0  0  0  0
  3  6  2  0  0  0  0
  3  4  1  0  0  0  0
  4  1  2  0  0  0  0
  6  2  1  0  0  0  0
  7  3  1  0  0  0  0
  8  7  1  0  0  0  0
  9  7  2  0  0  0  0
 10 12  2  0  0  0  0
 11 15  2  0  0  0  0
 12  8  1  0  0  0  0
 13 12  1  0  0  0  0
 14 15  1  0  0  0  0
 14 10  1  0  0  0  0
 15 13  1  0  0  0  0
 16 17  1  1  0  0  0
 16  4  1  0  0  0  0
 16 22  1  0  0  0  0
 18 23  1  0  0  0  0
 19 24  1  0  0  0  0
 20 19  1  0  0  0  0
 21 20  2  0  0  0  0
 22 21  1  0  0  0  0
 22 18  2  0  0  0  0
 23 19  2  0  0  0  0
 24 25  1  0  0  0  0
 27 26  1  0  0  0  0
M  END
>  <MODEL>
3

>  <REMARK>
 VINA RESULT:      -8.3      3.189      6.696
  Name = 
  6 active torsions:
  status: ('A' for Active; 'I' for Inactive)
    1  A    between atoms: C_3  and  C_11
    2  A    between atoms: C_5  and  C_13
    3  A    between atoms: C_5  and  C_23
    4  A    between atoms: C_6  and  O_17
    5  A    between atoms: C_8  and  C_27
    6  A    between atoms: N_9  and  C_10
                            x       y       z     vdW  Elec       q    Type
                         _______ _______ _______ _____ _____    ______ ____

>  <TORSDO>
F 6

$$$$
=
 OpenBabel11032420353D

 27 29  0  0  1  0  0  0  0  0999 V2000
  185.9920  179.0070  141.2360 C   0  0  0  0  0  3  0  0  0  0  0  0
  184.7750  178.8870  143.3160 C   0  0  0  0  0  0  0  0  0  0  0  0
  186.9690  177.8350  143.1380 C   0  0  0  0  0  0  0  0  0  0  0  0
  187.0530  178.2700  141.7890 C   0  0  0  0  0  0  0  0  0  0  0  0
  184.8640  179.3170  141.9930 C   0  0  0  0  0  3  0  0  0  0  0  0
  185.8220  178.1570  143.8810 C   0  0  0  0  0  3  0  0  0  0  0  0
  188.0350  177.0520  143.8190 C   0  0  0  0  0  0  0  0  0  0  0  0
  188.9060  177.7140  144.7500 N   0  0  0  0  0  2  0  0  0  0  0  0
  188.1860  175.8250  143.5770 O   0  0  0  0  0  0  0  0  0  0  0  0
  191.0330  176.5460  144.9220 C   0  0  0  0  0  3  0  0  0  0  0  0
  192.2570  176.2250  148.2050 O   0  0  0  0  0  0  0  0  0  0  0  0
  189.9790  177.1200  145.4940 C   0  0  0  0  0  0  0  0  0  0  0  0
  189.9580  177.1380  147.2820 S   0  0  0  0  0  0  0  0  0  0  0  0
  192.0550  176.0020  145.8550 C   0  0  0  0  0  2  0  0  0  0  0  0
  191.5770  176.3920  147.2070 C   0  0  0  0  0  0  0  0  0  0  0  0
  188.2310  177.9300  140.9140 C   0  0  2  0  0  3  0  0  0  0  0  0
  189.5050  178.6410  141.3470 C   0  0  0  0  0  1  0  0  0  0  0  0
  186.6840  177.7930  138.9150 C   0  0  0  0  0  3  0  0  0  0  0  0
  187.4510  178.4670  136.7100 C   0  0  0  0  0  0  0  0  0  0  0  0
  188.6990  178.7890  137.2530 C   0  0  0  0  0  3  0  0  0  0  0  0
  188.9410  178.6180  138.6200 C   0  0  0  0  0  3  0  0  0  0  0  0
  187.9360  178.1240  139.4560 C   0  0  0  0  0  0  0  0  0  0  0  0
  186.4430  177.9660  137.5490 C   0  0  0  0  0  3  0  0  0  0  0  0
  187.2420  178.6510  135.3410 O   0  0  0  0  0  0  0  0  0  0  0  0
  186.3210  177.8680  134.5940 C   0  0  0  0  0  1  0  0  0  0  0  0
  183.8530  179.0020  145.4830 O   0  0  0  0  0  1  0  0  0  0  0  0
  183.5830  179.2360  144.1350 C   0  0  0  0  0  2  0  0  0  0  0  0
  1  4  2  0  0  0  0
  1  5  1  0  0  0  0
  2  6  1  0  0  0  0
  2 27  1  0  0  0  0
  3  7  1  0  0  0  0
  3  6  2  0  0  0  0
  4  3  1  0  0  0  0
  5  2  2  0  0  0  0
  7  8  1  0  0  0  0
  8 12  1  0  0  0  0
  9  7  2  0  0  0  0
 10 12  2  0  0  0  0
 10 14  1  0  0  0  0
 12 13  1  0  0  0  0
 14 15  1  0  0  0  0
 15 13  1  0  0  0  0
 15 11  2  0  0  0  0
 16 17  1  1  0  0  0
 16  4  1  0  0  0  0
 18 22  1  0  0  0  0
 19 20  2  0  0  0  0
 19 23  1  0  0  0  0
 20 21  1  0  0  0  0
 21 22  2  0  0  0  0
 22 16  1  0  0  0  0
 23 18  2  0  0  0  0
 24 19  1  0  0  0  0
 25 24  1  0  0  0  0
 27 26  1  0  0  0  0
M  END
>  <MODEL>
4

>  <REMARK>
 VINA RESULT:      -8.1      3.335      6.169
  Name = 
  6 active torsions:
  status: ('A' for Active; 'I' for Inactive)
    1  A    between atoms: C_3  and  C_11
    2  A    between atoms: C_5  and  C_13
    3  A    between atoms: C_5  and  C_23
    4  A    between atoms: C_6  and  O_17
    5  A    between atoms: C_8  and  C_27
    6  A    between atoms: N_9  and  C_10
                            x       y       z     vdW  Elec       q    Type
                         _______ _______ _______ _____ _____    ______ ____

>  <TORSDO>
F 6

$$$$
=
 OpenBabel11032420353D

 27 29  0  0  1  0  0  0  0  0999 V2000
  187.9160  178.1020  145.2610 C   0  0  0  0  0  3  0  0  0  0  0  0
  189.9170  177.2910  146.3370 C   0  0  0  0  0  0  0  0  0  0  0  0
  189.6350  176.9950  143.9320 C   0  0  0  0  0  0  0  0  0  0  0  0
  188.3740  177.6430  144.0140 C   0  0  0  0  0  0  0  0  0  0  0  0
  188.6820  177.9320  146.4120 C   0  0  0  0  0  3  0  0  0  0  0  0
  190.3880  176.8320  145.1050 C   0  0  0  0  0  3  0  0  0  0  0  0
  190.2120  176.4740  142.6640 C   0  0  0  0  0  0  0  0  0  0  0  0
  190.6380  177.4020  141.6530 N   0  0  0  0  0  2  0  0  0  0  0  0
  190.3180  175.2350  142.4660 O   0  0  0  0  0  0  0  0  0  0  0  0
  190.4910  176.7500  139.3130 C   0  0  0  0  0  3  0  0  0  0  0  0
  193.5630  176.7730  137.6000 O   0  0  0  0  0  0  0  0  0  0  0  0
  191.2140  177.0800  140.3790 C   0  0  0  0  0  0  0  0  0  0  0  0
  192.9870  177.1240  140.1520 S   0  0  0  0  0  0  0  0  0  0  0  0
  191.2630  176.4680  138.0740 C   0  0  0  0  0  2  0  0  0  0  0  0
  192.6740  176.7640  138.4330 C   0  0  0  0  0  0  0  0  0  0  0  0
  187.4880  177.8200  142.8080 C   0  0  2  0  0  3  0  0  0  0  0  0
  188.0580  178.8130  141.8060 C   0  0  0  0  0  1  0  0  0  0  0  0
  185.0870  178.3420  142.2020 C   0  0  0  0  0  3  0  0  0  0  0  0
  183.4380  178.7640  143.9370 C   0  0  0  0  0  0  0  0  0  0  0  0
  184.4240  178.5620  144.9080 C   0  0  0  0  0  3  0  0  0  0  0  0
  185.7340  178.2500  144.5330 C   0  0  0  0  0  3  0  0  0  0  0  0
  186.0700  178.1340  143.1810 C   0  0  0  0  0  0  0  0  0  0  0  0
  183.7770  178.6530  142.5780 C   0  0  0  0  0  3  0  0  0  0  0  0
  182.1390  179.0730  144.3450 O   0  0  0  0  0  0  0  0  0  0  0  0
  180.9930  178.7430  143.5730 C   0  0  0  0  0  1  0  0  0  0  0  0
  191.9460  176.4920  147.2340 O   0  0  0  0  0  1  0  0  0  0  0  0
  190.7480  177.1280  147.5600 C   0  0  0  0  0  2  0  0  0  0  0  0
  1  5  1  0  0  0  0
  2  5  2  0  0  0  0
  2 27  1  0  0  0  0
  3  4  1  0  0  0  0
  3  6  2  0  0  0  0
  4  1  2  0  0  0  0
  6  2  1  0  0  0  0
  7  3  1  0  0  0  0
  8  7  1  0  0  0  0
  9  7  2  0  0  0  0
 10 12  2  0  0  0  0
 11 15  2  0  0  0  0
 12  8  1  0  0  0  0
 13 12  1  0  0  0  0
 14 15  1  0  0  0  0
 14 10  1  0  0  0  0
 15 13  1  0  0  0  0
 16 17  1  6  0  0  0
 16 22  1  0  0  0  0
 16  4  1  0  0  0  0
 18 23  2  0  0  0  0
 18 22  1  0  0  0  0
 19 24  1  0  0  0  0
 19 20  2  0  0  0  0
 21 20  1  0  0  0  0
 22 21  2  0  0  0  0
 23 19  1  0  0  0  0
 25 24  1  0  0  0  0
 26 27  1  0  0  0  0
M  END
>  <MODEL>
5

>  <REMARK>
 VINA RESULT:      -8.1      1.828      2.662
  Name = 
  6 active torsions:
  status: ('A' for Active; 'I' for Inactive)
    1  A    between atoms: C_3  and  C_11
    2  A    between atoms: C_5  and  C_13
    3  A    between atoms: C_5  and  C_23
    4  A    between atoms: C_6  and  O_17
    5  A    between atoms: C_8  and  C_27
    6  A    between atoms: N_9  and  C_10
                            x       y       z     vdW  Elec       q    Type
                         _______ _______ _______ _____ _____    ______ ____

>  <TORSDO>
F 6

$$$$
=
 OpenBabel11032420353D

 27 29  0  0  1  0  0  0  0  0999 V2000
  189.0260  177.0080  142.3950 C   0  0  0  0  0  3  0  0  0  0  0  0
  188.7280  177.8420  140.1500 C   0  0  0  0  0  0  0  0  0  0  0  0
  187.0030  178.2480  141.8270 C   0  0  0  0  0  0  0  0  0  0  0  0
  187.7860  177.5450  142.7820 C   0  0  0  0  0  0  0  0  0  0  0  0
  189.4960  177.1580  141.0910 C   0  0  0  0  0  3  0  0  0  0  0  0
  187.4960  178.3850  140.5200 C   0  0  0  0  0  3  0  0  0  0  0  0
  185.6810  178.8550  142.1340 C   0  0  0  0  0  0  0  0  0  0  0  0
  184.4950  178.0530  142.0160 N   0  0  0  0  0  2  0  0  0  0  0  0
  185.5930  180.0630  142.4820 O   0  0  0  0  0  0  0  0  0  0  0  0
  182.6760  178.7120  143.4910 C   0  0  0  0  0  3  0  0  0  0  0  0
  179.7590  179.7600  141.8270 O   0  0  0  0  0  0  0  0  0  0  0  0
  183.1460  178.4690  142.2720 C   0  0  0  0  0  0  0  0  0  0  0  0
  182.0010  178.7020  140.9190 S   0  0  0  0  0  0  0  0  0  0  0  0
  181.2580  179.1520  143.5580 C   0  0  0  0  0  2  0  0  0  0  0  0
  180.8350  179.2790  142.1400 C   0  0  0  0  0  0  0  0  0  0  0  0
  187.3100  177.3200  144.1930 C   0  0  2  0  0  3  0  0  0  0  0  0
  186.2740  178.3460  144.6300 C   0  0  0  0  0  1  0  0  0  0  0  0
  188.2260  177.2700  146.5520 C   0  0  0  0  0  3  0  0  0  0  0  0
  190.6100  177.0200  146.9470 C   0  0  0  0  0  0  0  0  0  0  0  0
  190.8230  176.9600  145.5660 C   0  0  0  0  0  3  0  0  0  0  0  0
  189.7450  177.0520  144.6800 C   0  0  0  0  0  3  0  0  0  0  0  0
  188.4430  177.2020  145.1680 C   0  0  0  0  0  0  0  0  0  0  0  0
  189.3030  177.1770  147.4370 C   0  0  0  0  0  3  0  0  0  0  0  0
  191.7090  176.9240  147.8050 O   0  0  0  0  0  0  0  0  0  0  0  0
  192.5000  175.7480  147.9100 C   0  0  0  0  0  1  0  0  0  0  0  0
  189.0090  179.3360  138.3480 O   0  0  0  0  0  1  0  0  0  0  0  0
  189.2370  178.0240  138.7640 C   0  0  0  0  0  2  0  0  0  0  0  0
  1  4  1  0  0  0  0
  2  6  2  0  0  0  0
  2  5  1  0  0  0  0
  3  7  1  0  0  0  0
  3  4  2  0  0  0  0
  4 16  1  0  0  0  0
  5  1  2  0  0  0  0
  6  3  1  0  0  0  0
  7  9  2  0  0  0  0
  8  7  1  0  0  0  0
  8 12  1  0  0  0  0
 10 14  1  0  0  0  0
 11 15  2  0  0  0  0
 12 10  2  0  0  0  0
 13 15  1  0  0  0  0
 13 12  1  0  0  0  0
 15 14  1  0  0  0  0
 16 17  1  1  0  0  0
 16 22  1  0  0  0  0
 18 23  1  0  0  0  0
 19 23  2  0  0  0  0
 19 24  1  0  0  0  0
 20 19  1  0  0  0  0
 21 22  1  0  0  0  0
 21 20  2  0  0  0  0
 22 18  2  0  0  0  0
 24 25  1  0  0  0  0
 26 27  1  0  0  0  0
 27  2  1  0  0  0  0
M  END
>  <MODEL>
6

>  <REMARK>
 VINA RESULT:      -7.9      3.032      8.202
  Name = 
  6 active torsions:
  status: ('A' for Active; 'I' for Inactive)
    1  A    between atoms: C_3  and  C_11
    2  A    between atoms: C_5  and  C_13
    3  A    between atoms: C_5  and  C_23
    4  A    between atoms: C_6  and  O_17
    5  A    between atoms: C_8  and  C_27
    6  A    between atoms: N_9  and  C_10
                            x       y       z     vdW  Elec       q    Type
                         _______ _______ _______ _____ _____    ______ ____

>  <TORSDO>
F 6

$$$$
=
 OpenBabel11032420353D

 27 29  0  0  1  0  0  0  0  0999 V2000
  188.5020  177.9260  139.2880 C   0  0  0  0  0  3  0  0  0  0  0  0
  186.5190  178.5170  140.5280 C   0  0  0  0  0  0  0  0  0  0  0  0
  188.3790  177.4300  141.6730 C   0  0  0  0  0  0  0  0  0  0  0  0
  189.0950  177.3960  140.4460 C   0  0  0  0  0  0  0  0  0  0  0  0
  187.2270  178.4860  139.3280 C   0  0  0  0  0  3  0  0  0  0  0  0
  187.0950  177.9970  141.6890 C   0  0  0  0  0  3  0  0  0  0  0  0
  188.9150  176.8980  142.9540 C   0  0  0  0  0  0  0  0  0  0  0  0
  189.3660  177.8180  143.9620 N   0  0  0  0  0  2  0  0  0  0  0  0
  188.9870  175.6570  143.1560 O   0  0  0  0  0  0  0  0  0  0  0  0
  189.2230  177.6110  146.3820 C   0  0  0  0  0  3  0  0  0  0  0  0
  192.0200  176.0950  147.8820 O   0  0  0  0  0  0  0  0  0  0  0  0
  189.9060  177.4850  145.2490 C   0  0  0  0  0  0  0  0  0  0  0  0
  191.5720  176.8530  145.3930 S   0  0  0  0  0  0  0  0  0  0  0  0
  189.9420  177.2000  147.6160 C   0  0  0  0  0  2  0  0  0  0  0  0
  191.2370  176.6550  147.1340 C   0  0  0  0  0  0  0  0  0  0  0  0
  190.4600  176.7680  140.3380 C   0  0  2  0  0  3  0  0  0  0  0  0
  191.5490  177.6280  140.9610 C   0  0  0  0  0  1  0  0  0  0  0  0
  189.8660  175.6550  138.1430 C   0  0  0  0  0  3  0  0  0  0  0  0
  191.4770  175.5690  136.3260 C   0  0  0  0  0  0  0  0  0  0  0  0
  192.3960  176.2620  137.1210 C   0  0  0  0  0  3  0  0  0  0  0  0
  192.0550  176.6520  138.4190 C   0  0  0  0  0  3  0  0  0  0  0  0
  190.7900  176.3560  138.9340 C   0  0  0  0  0  0  0  0  0  0  0  0
  190.2070  175.2660  136.8450 C   0  0  0  0  0  3  0  0  0  0  0  0
  191.8490  175.1940  135.0320 O   0  0  0  0  0  0  0  0  0  0  0  0
  192.8480  174.2170  134.7750 C   0  0  0  0  0  1  0  0  0  0  0  0
  184.8920  179.7710  139.3700 O   0  0  0  0  0  1  0  0  0  0  0  0
  185.1660  179.1350  140.5800 C   0  0  0  0  0  2  0  0  0  0  0  0
  1  5  2  0  0  0  0
  1  4  1  0  0  0  0
  2 27  1  0  0  0  0
  2  6  2  0  0  0  0
  3  6  1  0  0  0  0
  3  7  1  0  0  0  0
  4  3  2  0  0  0  0
  5  2  1  0  0  0  0
  7  9  2  0  0  0  0
  7  8  1  0  0  0  0
  8 12  1  0  0  0  0
 10 14  1  0  0  0  0
 12 13  1  0  0  0  0
 12 10  2  0  0  0  0
 13 15  1  0  0  0  0
 15 14  1  0  0  0  0
 15 11  2  0  0  0  0
 16  4  1  0  0  0  0
 16 17  1  6  0  0  0
 18 22  1  0  0  0  0
 19 23  1  0  0  0  0
 19 20  2  0  0  0  0
 20 21  1  0  0  0  0
 21 22  2  0  0  0  0
 22 16  1  0  0  0  0
 23 18  2  0  0  0  0
 24 19  1  0  0  0  0
 25 24  1  0  0  0  0
 26 27  1  0  0  0  0
M  END
>  <MODEL>
7

>  <REMARK>
 VINA RESULT:      -7.9      3.440      8.470
  Name = 
  6 active torsions:
  status: ('A' for Active; 'I' for Inactive)
    1  A    between atoms: C_3  and  C_11
    2  A    between atoms: C_5  and  C_13
    3  A    between atoms: C_5  and  C_23
    4  A    between atoms: C_6  and  O_17
    5  A    between atoms: C_8  and  C_27
    6  A    between atoms: N_9  and  C_10
                            x       y       z     vdW  Elec       q    Type
                         _______ _______ _______ _____ _____    ______ ____

>  <TORSDO>
F 6

$$$$
=
 OpenBabel11032420353D

 27 29  0  0  1  0  0  0  0  0999 V2000
  182.6790  176.6320  140.0420 C   0  0  0  0  0  3  0  0  0  0  0  0
  180.4870  176.2630  139.1040 C   0  0  0  0  0  0  0  0  0  0  0  0
  181.2700  178.5420  139.4810 C   0  0  0  0  0  0  0  0  0  0  0  0
  182.4910  178.0240  139.9900 C   0  0  0  0  0  0  0  0  0  0  0  0
  181.6880  175.7580  139.5990 C   0  0  0  0  0  3  0  0  0  0  0  0
  180.2850  177.6430  139.0430 C   0  0  0  0  0  3  0  0  0  0  0  0
  180.9710  179.9960  139.3820 C   0  0  0  0  0  0  0  0  0  0  0  0
  181.3190  180.7040  138.1810 N   0  0  0  0  0  2  0  0  0  0  0  0
  180.4300  180.6090  140.3400 O   0  0  0  0  0  0  0  0  0  0  0  0
  182.0810  182.9990  137.9140 C   0  0  0  0  0  3  0  0  0  0  0  0
  179.6040  185.2370  136.8080 O   0  0  0  0  0  0  0  0  0  0  0  0
  181.1050  182.0970  137.9110 C   0  0  0  0  0  0  0  0  0  0  0  0
  179.4660  182.7020  137.5330 S   0  0  0  0  0  0  0  0  0  0  0  0
  181.6710  184.3910  137.5940 C   0  0  0  0  0  2  0  0  0  0  0  0
  180.2280  184.2920  137.2570 C   0  0  0  0  0  0  0  0  0  0  0  0
  183.5800  178.9210  140.5170 C   0  0  2  0  0  3  0  0  0  0  0  0
  184.9110  178.6990  139.8140 C   0  0  0  0  0  1  0  0  0  0  0  0
  182.5840  179.0050  142.8430 C   0  0  0  0  0  3  0  0  0  0  0  0
  184.0000  178.7620  144.8030 C   0  0  0  0  0  0  0  0  0  0  0  0
  185.1140  178.6190  143.9680 C   0  0  0  0  0  3  0  0  0  0  0  0
  184.9660  178.6650  142.5790 C   0  0  0  0  0  3  0  0  0  0  0  0
  183.7040  178.8540  142.0100 C   0  0  0  0  0  0  0  0  0  0  0  0
  182.7320  178.9580  144.2320 C   0  0  0  0  0  3  0  0  0  0  0  0
  184.1810  178.7100  146.1870 O   0  0  0  0  0  0  0  0  0  0  0  0
  185.4660  178.6270  146.7900 C   0  0  0  0  0  1  0  0  0  0  0  0
  179.7190  174.0350  139.0300 O   0  0  0  0  0  1  0  0  0  0  0  0
  179.4360  175.3340  138.6090 C   0  0  0  0  0  2  0  0  0  0  0  0
  2  5  1  0  0  0  0
  3  4  2  0  0  0  0
  4  1  1  0  0  0  0
  4 16  1  0  0  0  0
  5  1  2  0  0  0  0
  6  2  2  0  0  0  0
  6  3  1  0  0  0  0
  7  3  1  0  0  0  0
  7  9  2  0  0  0  0
  8  7  1  0  0  0  0
 11 15  2  0  0  0  0
 12 10  2  0  0  0  0
 12  8  1  0  0  0  0
 13 12  1  0  0  0  0
 14 10  1  0  0  0  0
 15 13  1  0  0  0  0
 15 14  1  0  0  0  0
 16 17  1  6  0  0  0
 16 22  1  0  0  0  0
 18 23  1  0  0  0  0
 19 24  1  0  0  0  0
 20 19  1  0  0  0  0
 21 20  2  0  0  0  0
 22 21  1  0  0  0  0
 22 18  2  0  0  0  0
 23 19  2  0  0  0  0
 24 25  1  0  0  0  0
 27 26  1  0  0  0  0
 27  2  1  0  0  0  0
M  END
>  <MODEL>
8

>  <REMARK>
 VINA RESULT:      -7.8      5.156      8.888
  Name = 
  6 active torsions:
  status: ('A' for Active; 'I' for Inactive)
    1  A    between atoms: C_3  and  C_11
    2  A    between atoms: C_5  and  C_13
    3  A    between atoms: C_5  and  C_23
    4  A    between atoms: C_6  and  O_17
    5  A    between atoms: C_8  and  C_27
    6  A    between atoms: N_9  and  C_10
                            x       y       z     vdW  Elec       q    Type
                         _______ _______ _______ _____ _____    ______ ____

>  <TORSDO>
F 6

$$$$
=
 OpenBabel11032420353D

 27 29  0  0  1  0  0  0  0  0999 V2000
  187.6820  178.1690  142.4840 C   0  0  0  0  0  3  0  0  0  0  0  0
  188.2640  178.3310  140.1480 C   0  0  0  0  0  0  0  0  0  0  0  0
  185.9280  178.5140  140.8260 C   0  0  0  0  0  0  0  0  0  0  0  0
  186.3210  178.3420  142.1790 C   0  0  0  0  0  0  0  0  0  0  0  0
  188.6470  178.1680  141.4780 C   0  0  0  0  0  3  0  0  0  0  0  0
  186.9160  178.5070  139.8290 C   0  0  0  0  0  3  0  0  0  0  0  0
  184.5160  178.7050  140.3960 C   0  0  0  0  0  0  0  0  0  0  0  0
  183.5650  177.6530  140.6210 N   0  0  0  0  0  2  0  0  0  0  0  0
  184.1550  179.7710  139.8310 O   0  0  0  0  0  0  0  0  0  0  0  0
  181.2370  178.2250  141.0370 C   0  0  0  0  0  3  0  0  0  0  0  0
  179.0510  177.4460  138.3930 O   0  0  0  0  0  0  0  0  0  0  0  0
  182.1730  177.6640  140.2760 C   0  0  0  0  0  0  0  0  0  0  0  0
  181.6130  176.9140  138.7530 S   0  0  0  0  0  0  0  0  0  0  0  0
  179.8500  178.1540  140.5070 C   0  0  0  0  0  2  0  0  0  0  0  0
  179.9890  177.5260  139.1680 C   0  0  0  0  0  0  0  0  0  0  0  0
  185.3170  178.2970  143.3020 C   0  0  2  0  0  3  0  0  0  0  0  0
  184.2950  179.4200  143.2160 C   0  0  0  0  0  1  0  0  0  0  0  0
  187.0460  177.3520  144.8910 C   0  0  0  0  0  3  0  0  0  0  0  0
  187.1260  178.0820  147.2070 C   0  0  0  0  0  0  0  0  0  0  0  0
  186.0490  178.9400  146.9630 C   0  0  0  0  0  3  0  0  0  0  0  0
  185.4730  179.0080  145.6910 C   0  0  0  0  0  3  0  0  0  0  0  0
  185.9700  178.2190  144.6500 C   0  0  0  0  0  0  0  0  0  0  0  0
  187.6230  177.2850  146.1620 C   0  0  0  0  0  3  0  0  0  0  0  0
  187.6800  178.0400  148.4890 O   0  0  0  0  0  0  0  0  0  0  0  0
  189.0660  178.2400  148.7330 C   0  0  0  0  0  1  0  0  0  0  0  0
  188.9940  179.3610  138.1560 O   0  0  0  0  0  1  0  0  0  0  0  0
  189.2930  178.3540  139.0740 C   0  0  0  0  0  2  0  0  0  0  0  0
  2  5  1  0  0  0  0
  3  4  2  0  0  0  0
  4  1  1  0  0  0  0
  4 16  1  0  0  0  0
  5  1  2  0  0  0  0
  6  2  2  0  0  0  0
  6  3  1  0  0  0  0
  7  8  1  0  0  0  0
  7  3  1  0  0  0  0
  9  7  2  0  0  0  0
 11 15  2  0  0  0  0
 12  8  1  0  0  0  0
 12 10  2  0  0  0  0
 13 15  1  0  0  0  0
 13 12  1  0  0  0  0
 14 10  1  0  0  0  0
 15 14  1  0  0  0  0
 16 17  1  1  0  0  0
 16 22  1  0  0  0  0
 18 23  1  0  0  0  0
 19 24  1  0  0  0  0
 20 19  1  0  0  0  0
 21 20  2  0  0  0  0
 22 18  2  0  0  0  0
 22 21  1  0  0  0  0
 23 19  2  0  0  0  0
 24 25  1  0  0  0  0
 26 27  1  0  0  0  0
 27  2  1  0  0  0  0
M  END
>  <MODEL>
9

>  <REMARK>
 VINA RESULT:      -7.8      3.266      7.551
  Name = 
  6 active torsions:
  status: ('A' for Active; 'I' for Inactive)
    1  A    between atoms: C_3  and  C_11
    2  A    between atoms: C_5  and  C_13
    3  A    between atoms: C_5  and  C_23
    4  A    between atoms: C_6  and  O_17
    5  A    between atoms: C_8  and  C_27
    6  A    between atoms: N_9  and  C_10
                            x       y       z     vdW  Elec       q    Type
                         _______ _______ _______ _____ _____    ______ ____

>  <TORSDO>
F 6

$$$$
