=
 OpenBabel11042412183D

 34 38  0  0  1  0  0  0  0  0999 V2000
  188.3800  178.7050  138.3290 C   0  0  0  0  0  3  0  0  0  0  0  0
  190.2880  176.6480  138.3950 C   0  0  0  0  0  0  0  0  0  0  0  0
  190.2930  176.5740  135.9620 C   0  0  0  0  0  0  0  0  0  0  0  0
  189.8020  177.1950  139.6040 C   0  0  0  0  0  0  0  0  0  0  0  0
  191.2180  175.5770  136.0090 N   0  0  0  0  0  0  0  0  0  0  0  0
  188.8470  178.2350  139.5600 C   0  0  0  0  0  0  0  0  0  0  0  0
  189.8050  177.1340  137.1560 C   0  0  0  0  0  0  0  0  0  0  0  0
  191.6980  175.0980  137.1860 C   0  0  0  0  0  3  0  0  0  0  0  0
  188.8530  178.1600  137.1360 C   0  0  0  0  0  3  0  0  0  0  0  0
  191.2430  175.6210  138.3960 C   0  0  0  0  0  3  0  0  0  0  0  0
  189.8220  177.0300  134.6950 N   0  0  0  0  0  1  0  0  0  0  0  0
  190.3070  176.6850  140.9230 C   0  0  0  0  0  2  0  0  0  0  0  0
  191.5010  177.5010  141.3830 C   0  0  0  0  0  2  0  0  0  0  0  0
  191.9730  177.0040  142.7370 C   0  0  0  0  0  2  0  0  0  0  0  0
  191.0570  176.7570  145.0010 C   0  0  2  0  0  3  0  0  0  0  0  0
  191.9970  177.8090  144.9860 O   0  0  0  0  0  0  0  0  0  0  0  0
  191.1850  177.6780  143.8460 C   0  0  1  0  0  3  0  0  0  0  0  0
  187.6270  177.7680  147.4160 C   0  0  0  0  0  3  0  0  0  0  0  0
  189.8720  177.1300  145.8510 C   0  0  0  0  0  0  0  0  0  0  0  0
  191.2710  177.2110  147.8860 N   0  0  0  0  0  1  0  0  0  0  0  0
  188.4230  176.9870  143.9380 F   0  0  0  0  0  0  0  0  0  0  0  0
  188.8860  177.6640  148.0110 C   0  0  0  0  0  3  0  0  0  0  0  0
  190.0050  177.3350  147.2420 C   0  0  0  0  0  0  0  0  0  0  0  0
  188.5940  177.2140  145.2660 C   0  0  0  0  0  0  0  0  0  0  0  0
  187.4820  177.5380  146.0470 C   0  0  0  0  0  3  0  0  0  0  0  0
  188.3000  178.8510  140.8120 C   0  0  0  0  0  2  0  0  0  0  0  0
  186.2000  178.5380  142.1780 N   0  0  0  0  0  2  0  0  0  0  0  0
  184.7960  178.3580  142.4170 C   0  0  0  0  0  0  0  0  0  0  0  0
  186.1470  178.6020  139.8340 O   0  0  0  0  0  0  0  0  0  0  0  0
  183.9480  178.4160  141.4420 N   0  0  0  0  0  2  0  0  0  0  0  0
  186.8250  178.6520  140.8950 C   0  0  0  0  0  0  0  0  0  0  0  0
  184.8680  179.4150  144.6330 C   0  0  0  0  0  2  0  0  0  0  0  0
  183.4350  179.4830  144.1590 C   0  0  0  0  0  2  0  0  0  0  0  0
  184.2870  178.2730  143.8190 C   0  0  0  0  0  3  0  0  0  0  0  0
  1  6  1  0  0  0  0
  2 10  1  0  0  0  0
  2  4  1  0  0  0  0
  3  5  2  0  0  0  0
  3  7  1  0  0  0  0
  4 12  1  0  0  0  0
  5  8  1  0  0  0  0
  6  4  2  0  0  0  0
  6 26  1  0  0  0  0
  7  2  2  0  0  0  0
  8 10  2  0  0  0  0
  9  7  1  0  0  0  0
  9  1  2  0  0  0  0
 11  3  1  0  0  0  0
 12 13  1  0  0  0  0
 13 14  1  0  0  0  0
 15 19  1  1  0  0  0
 16 15  1  0  0  0  0
 17 14  1  6  0  0  0
 17 16  1  0  0  0  0
 17 15  1  0  0  0  0
 18 22  1  0  0  0  0
 19 23  1  0  0  0  0
 21 24  1  0  0  0  0
 23 20  1  0  0  0  0
 23 22  2  0  0  0  0
 24 19  2  0  0  0  0
 24 25  1  0  0  0  0
 25 18  2  0  0  0  0
 26 31  1  0  0  0  0
 27 28  1  0  0  0  0
 28 34  1  0  0  0  0
 29 31  2  0  0  0  0
 30 28  2  0  0  0  0
 31 27  1  0  0  0  0
 33 32  1  0  0  0  0
 34 33  1  0  0  0  0
 34 32  1  0  0  0  0
M  END
>  <MODEL>
1

>  <REMARK>
 VINA RESULT:      -9.1      0.000      0.000
  Name = 
  8 active torsions:
  status: ('A' for Active; 'I' for Inactive)
    1  A    between atoms: C_1  and  C_8
    2  A    between atoms: C_9  and  C_11
    3  A    between atoms: C_9  and  C_14
    4  A    between atoms: C_11  and  C_26
    5  A    between atoms: C_16  and  C_17
    6  A    between atoms: C_17  and  C_28
    7  A    between atoms: C_20  and  C_26
    8  A    between atoms: C_21  and  C_33
                            x       y       z     vdW  Elec       q    Type
                         _______ _______ _______ _____ _____    ______ ____

>  <TORSDO>
F 8

$$$$
=
 OpenBabel11042412183D

 34 38  0  0  1  0  0  0  0  0999 V2000
  189.7320  177.0100  144.1550 C   0  0  0  0  0  3  0  0  0  0  0  0
  188.2160  177.5920  146.4440 C   0  0  0  0  0  0  0  0  0  0  0  0
  190.2450  177.5900  147.7880 C   0  0  0  0  0  0  0  0  0  0  0  0
  187.5730  177.4390  145.1950 C   0  0  0  0  0  0  0  0  0  0  0  0
  189.4980  177.8720  148.8900 N   0  0  0  0  0  0  0  0  0  0  0  0
  188.3460  177.1540  144.0480 C   0  0  0  0  0  0  0  0  0  0  0  0
  189.6210  177.4430  146.5370 C   0  0  0  0  0  0  0  0  0  0  0  0
  188.1480  178.0220  148.8240 C   0  0  0  0  0  3  0  0  0  0  0  0
  190.3660  177.1530  145.3880 C   0  0  0  0  0  3  0  0  0  0  0  0
  187.4860  177.8840  147.6040 C   0  0  0  0  0  3  0  0  0  0  0  0
  191.6570  177.4380  147.9240 N   0  0  0  0  0  1  0  0  0  0  0  0
  186.0830  177.5920  145.0860 C   0  0  0  0  0  2  0  0  0  0  0  0
  185.7050  179.0620  145.0390 C   0  0  0  0  0  2  0  0  0  0  0  0
  184.1950  179.2050  145.0570 C   0  0  0  0  0  2  0  0  0  0  0  0
  183.2440  178.4000  142.9430 C   0  0  2  0  0  3  0  0  0  0  0  0
  182.3300  179.2750  143.5670 O   0  0  0  0  0  0  0  0  0  0  0  0
  183.6900  179.6060  143.6830 C   0  0  1  0  0  3  0  0  0  0  0  0
  183.3670  179.0620  138.6800 C   0  0  0  0  0  3  0  0  0  0  0  0
  183.2700  178.6480  141.4570 C   0  0  0  0  0  0  0  0  0  0  0  0
  180.8670  178.1080  141.2580 N   0  0  0  0  0  1  0  0  0  0  0  0
  185.6280  179.1020  141.5480 F   0  0  0  0  0  0  0  0  0  0  0  0
  182.1620  178.7100  139.2910 C   0  0  0  0  0  3  0  0  0  0  0  0
  182.1080  178.4910  140.6700 C   0  0  0  0  0  0  0  0  0  0  0  0
  184.4840  178.9790  140.8270 C   0  0  0  0  0  0  0  0  0  0  0  0
  184.5270  179.1910  139.4470 C   0  0  0  0  0  3  0  0  0  0  0  0
  187.7140  176.9840  142.6990 C   0  0  0  0  0  2  0  0  0  0  0  0
  188.4900  177.8590  140.4620 N   0  0  0  0  0  2  0  0  0  0  0  0
  189.3850  178.0400  139.3540 C   0  0  0  0  0  0  0  0  0  0  0  0
  189.8270  176.4310  141.7560 O   0  0  0  0  0  0  0  0  0  0  0  0
  190.5890  177.5690  139.3940 N   0  0  0  0  0  2  0  0  0  0  0  0
  188.7430  177.0600  141.6230 C   0  0  0  0  0  0  0  0  0  0  0  0
  189.2400  178.1970  136.9070 C   0  0  0  0  0  2  0  0  0  0  0  0
  187.8320  178.3190  137.4390 C   0  0  0  0  0  2  0  0  0  0  0  0
  188.9880  178.9230  138.2150 C   0  0  0  0  0  3  0  0  0  0  0  0
  1  9  1  0  0  0  0
  2  7  1  0  0  0  0
  2 10  1  0  0  0  0
  3 11  1  0  0  0  0
  3  5  2  0  0  0  0
  4  2  2  0  0  0  0
  6  1  2  0  0  0  0
  6  4  1  0  0  0  0
  7  3  1  0  0  0  0
  8  5  1  0  0  0  0
  9  7  2  0  0  0  0
 10  8  2  0  0  0  0
 12  4  1  0  0  0  0
 13 14  1  0  0  0  0
 13 12  1  0  0  0  0
 15 19  1  6  0  0  0
 15 16  1  0  0  0  0
 15 17  1  0  0  0  0
 16 17  1  0  0  0  0
 17 14  1  1  0  0  0
 18 22  2  0  0  0  0
 18 25  1  0  0  0  0
 22 23  1  0  0  0  0
 23 20  1  0  0  0  0
 23 19  2  0  0  0  0
 24 19  1  0  0  0  0
 24 21  1  0  0  0  0
 25 24  2  0  0  0  0
 26  6  1  0  0  0  0
 27 31  1  0  0  0  0
 28 30  2  0  0  0  0
 28 27  1  0  0  0  0
 31 29  2  0  0  0  0
 31 26  1  0  0  0  0
 32 33  1  0  0  0  0
 32 34  1  0  0  0  0
 33 34  1  0  0  0  0
 34 28  1  0  0  0  0
M  END
>  <MODEL>
2

>  <REMARK>
 VINA RESULT:      -8.9      2.380      8.476
  Name = 
  8 active torsions:
  status: ('A' for Active; 'I' for Inactive)
    1  A    between atoms: C_1  and  C_8
    2  A    between atoms: C_9  and  C_11
    3  A    between atoms: C_9  and  C_14
    4  A    between atoms: C_11  and  C_26
    5  A    between atoms: C_16  and  C_17
    6  A    between atoms: C_17  and  C_28
    7  A    between atoms: C_20  and  C_26
    8  A    between atoms: C_21  and  C_33
                            x       y       z     vdW  Elec       q    Type
                         _______ _______ _______ _____ _____    ______ ____

>  <TORSDO>
F 8

$$$$
=
 OpenBabel11042412183D

 34 38  0  0  1  0  0  0  0  0999 V2000
  183.7010  178.1590  140.6750 C   0  0  0  0  0  3  0  0  0  0  0  0
  182.1700  178.7040  142.9630 C   0  0  0  0  0  0  0  0  0  0  0  0
  180.1430  178.1330  141.7440 C   0  0  0  0  0  0  0  0  0  0  0  0
  183.5750  178.8620  143.0020 C   0  0  0  0  0  0  0  0  0  0  0  0
  179.4140  178.4010  142.8610 N   0  0  0  0  0  0  0  0  0  0  0  0
  184.3360  178.5790  141.8470 C   0  0  0  0  0  0  0  0  0  0  0  0
  181.5410  178.2780  141.7690 C   0  0  0  0  0  0  0  0  0  0  0  0
  179.9970  178.8070  144.0200 C   0  0  0  0  0  3  0  0  0  0  0  0
  182.3150  178.0100  140.6340 C   0  0  0  0  0  3  0  0  0  0  0  0
  181.3800  178.9670  144.0910 C   0  0  0  0  0  3  0  0  0  0  0  0
  179.4720  177.7170  140.5570 N   0  0  0  0  0  1  0  0  0  0  0  0
  184.2520  179.3160  144.2640 C   0  0  0  0  0  2  0  0  0  0  0  0
  184.7920  178.1230  145.0310 C   0  0  0  0  0  2  0  0  0  0  0  0
  185.9660  178.5530  145.8900 C   0  0  0  0  0  2  0  0  0  0  0  0
  188.3930  178.2150  146.0370 C   0  0  2  0  0  3  0  0  0  0  0  0
  187.7480  177.4280  147.0160 O   0  0  0  0  0  0  0  0  0  0  0  0
  187.0950  177.5450  145.7770 C   0  0  1  0  0  3  0  0  0  0  0  0
  191.6530  176.0580  144.2090 C   0  0  0  0  0  3  0  0  0  0  0  0
  189.5250  177.4430  145.4130 C   0  0  0  0  0  0  0  0  0  0  0  0
  190.5870  177.0890  147.6160 N   0  0  0  0  0  1  0  0  0  0  0  0
  188.6070  177.8160  143.2240 F   0  0  0  0  0  0  0  0  0  0  0  0
  191.6220  176.2210  145.5950 C   0  0  0  0  0  3  0  0  0  0  0  0
  190.5740  176.9190  146.2000 C   0  0  0  0  0  0  0  0  0  0  0  0
  189.5790  177.2930  144.0140 C   0  0  0  0  0  0  0  0  0  0  0  0
  190.6350  176.5980  143.4200 C   0  0  0  0  0  3  0  0  0  0  0  0
  185.8270  178.7290  141.8350 C   0  0  0  0  0  2  0  0  0  0  0  0
  187.6740  178.3910  140.1460 N   0  0  0  0  0  2  0  0  0  0  0  0
  188.2970  178.4000  138.8530 C   0  0  0  0  0  0  0  0  0  0  0  0
  185.5770  179.2390  139.5250 O   0  0  0  0  0  0  0  0  0  0  0  0
  187.6130  178.6850  137.7930 N   0  0  0  0  0  2  0  0  0  0  0  0
  186.3360  178.8120  140.4350 C   0  0  0  0  0  0  0  0  0  0  0  0
  190.0460  177.0100  139.8750 C   0  0  0  0  0  2  0  0  0  0  0  0
  189.7320  176.4020  138.5290 C   0  0  0  0  0  2  0  0  0  0  0  0
  189.7010  177.9100  138.7020 C   0  0  0  0  0  3  0  0  0  0  0  0
  1  6  1  0  0  0  0
  2  4  1  0  0  0  0
  2 10  1  0  0  0  0
  3  7  1  0  0  0  0
  3  5  2  0  0  0  0
  4 12  1  0  0  0  0
  5  8  1  0  0  0  0
  6  4  2  0  0  0  0
  7  2  2  0  0  0  0
  8 10  2  0  0  0  0
  9  1  2  0  0  0  0
  9  7  1  0  0  0  0
 11  3  1  0  0  0  0
 12 13  1  0  0  0  0
 13 14  1  0  0  0  0
 15 19  1  6  0  0  0
 15 16  1  0  0  0  0
 17 14  1  1  0  0  0
 17 15  1  0  0  0  0
 17 16  1  0  0  0  0
 18 22  1  0  0  0  0
 19 23  1  0  0  0  0
 21 24  1  0  0  0  0
 22 23  2  0  0  0  0
 23 20  1  0  0  0  0
 24 19  2  0  0  0  0
 25 24  1  0  0  0  0
 25 18  2  0  0  0  0
 26  6  1  0  0  0  0
 27 31  1  0  0  0  0
 28 27  1  0  0  0  0
 29 31  2  0  0  0  0
 30 28  2  0  0  0  0
 31 26  1  0  0  0  0
 33 34  1  0  0  0  0
 33 32  1  0  0  0  0
 34 28  1  0  0  0  0
 34 32  1  0  0  0  0
M  END
>  <MODEL>
3

>  <REMARK>
 VINA RESULT:      -8.8      2.281      7.069
  Name = 
  8 active torsions:
  status: ('A' for Active; 'I' for Inactive)
    1  A    between atoms: C_1  and  C_8
    2  A    between atoms: C_9  and  C_11
    3  A    between atoms: C_9  and  C_14
    4  A    between atoms: C_11  and  C_26
    5  A    between atoms: C_16  and  C_17
    6  A    between atoms: C_17  and  C_28
    7  A    between atoms: C_20  and  C_26
    8  A    between atoms: C_21  and  C_33
                            x       y       z     vdW  Elec       q    Type
                         _______ _______ _______ _____ _____    ______ ____

>  <TORSDO>
F 8

$$$$
=
 OpenBabel11042412183D

 34 38  0  0  1  0  0  0  0  0999 V2000
  185.9420  178.0690  145.5140 C   0  0  0  0  0  3  0  0  0  0  0  0
  188.6360  177.2900  145.4140 C   0  0  0  0  0  0  0  0  0  0  0  0
  188.8420  177.6950  147.8050 C   0  0  0  0  0  0  0  0  0  0  0  0
  187.8600  177.2880  144.2330 C   0  0  0  0  0  0  0  0  0  0  0  0
  190.1470  177.3160  147.7420 N   0  0  0  0  0  0  0  0  0  0  0  0
  186.5030  177.6750  144.2960 C   0  0  0  0  0  0  0  0  0  0  0  0
  188.0540  177.6920  146.6410 C   0  0  0  0  0  0  0  0  0  0  0  0
  190.7260  176.9230  146.5770 C   0  0  0  0  0  3  0  0  0  0  0  0
  186.7090  178.0780  146.6780 C   0  0  0  0  0  3  0  0  0  0  0  0
  189.9840  176.9050  145.3960 C   0  0  0  0  0  3  0  0  0  0  0  0
  188.2940  178.1030  149.0570 N   0  0  0  0  0  1  0  0  0  0  0  0
  188.4680  176.8670  142.9270 C   0  0  0  0  0  2  0  0  0  0  0  0
  189.2820  178.0020  142.3330 C   0  0  0  0  0  2  0  0  0  0  0  0
  188.5230  178.6280  141.1770 C   0  0  0  0  0  2  0  0  0  0  0  0
  189.0830  178.6160  138.7870 C   0  0  2  0  0  3  0  0  0  0  0  0
  189.9970  177.8030  139.4880 O   0  0  0  0  0  0  0  0  0  0  0  0
  188.6640  177.7710  139.9320 C   0  0  1  0  0  3  0  0  0  0  0  0
  188.0250  176.6970  135.0690 C   0  0  0  0  0  3  0  0  0  0  0  0
  188.7050  177.9680  137.4810 C   0  0  0  0  0  0  0  0  0  0  0  0
  186.3470  178.6550  137.7440 N   0  0  0  0  0  1  0  0  0  0  0  0
  190.9590  177.1840  137.1900 F   0  0  0  0  0  0  0  0  0  0  0  0
  187.0480  177.3730  135.8020 C   0  0  0  0  0  3  0  0  0  0  0  0
  187.3750  177.9960  137.0080 C   0  0  0  0  0  0  0  0  0  0  0  0
  189.6780  177.2640  136.7460 C   0  0  0  0  0  0  0  0  0  0  0  0
  189.3370  176.6390  135.5440 C   0  0  0  0  0  3  0  0  0  0  0  0
  185.6350  177.6900  143.0740 C   0  0  0  0  0  2  0  0  0  0  0  0
  183.1910  178.2020  143.4470 N   0  0  0  0  0  2  0  0  0  0  0  0
  182.0270  179.0240  143.6260 C   0  0  0  0  0  0  0  0  0  0  0  0
  184.7800  179.9070  143.1780 O   0  0  0  0  0  0  0  0  0  0  0  0
  182.1360  180.3090  143.7320 N   0  0  0  0  0  2  0  0  0  0  0  0
  184.5250  178.6740  143.2280 C   0  0  0  0  0  0  0  0  0  0  0  0
  179.5990  179.3870  143.5550 C   0  0  0  0  0  2  0  0  0  0  0  0
  179.9070  178.2820  142.5720 C   0  0  0  0  0  2  0  0  0  0  0  0
  180.6970  178.3860  143.8640 C   0  0  0  0  0  3  0  0  0  0  0  0
  1  9  1  0  0  0  0
  2  7  1  0  0  0  0
  3 11  1  0  0  0  0
  4  6  1  0  0  0  0
  4  2  2  0  0  0  0
  5  3  2  0  0  0  0
  6  1  2  0  0  0  0
  7  9  2  0  0  0  0
  7  3  1  0  0  0  0
  8  5  1  0  0  0  0
 10  2  1  0  0  0  0
 10  8  2  0  0  0  0
 12  4  1  0  0  0  0
 13 12  1  0  0  0  0
 14 13  1  0  0  0  0
 15 19  1  6  0  0  0
 15 16  1  0  0  0  0
 15 17  1  0  0  0  0
 16 17  1  0  0  0  0
 17 14  1  1  0  0  0
 18 25  2  0  0  0  0
 18 22  1  0  0  0  0
 22 23  2  0  0  0  0
 23 19  1  0  0  0  0
 23 20  1  0  0  0  0
 24 21  1  0  0  0  0
 24 19  2  0  0  0  0
 25 24  1  0  0  0  0
 26 31  1  0  0  0  0
 26  6  1  0  0  0  0
 27 28  1  0  0  0  0
 28 30  2  0  0  0  0
 28 34  1  0  0  0  0
 29 31  2  0  0  0  0
 31 27  1  0  0  0  0
 32 34  1  0  0  0  0
 33 32  1  0  0  0  0
 33 34  1  0  0  0  0
M  END
>  <MODEL>
4

>  <REMARK>
 VINA RESULT:      -8.8      2.658      7.887
  Name = 
  8 active torsions:
  status: ('A' for Active; 'I' for Inactive)
    1  A    between atoms: C_1  and  C_8
    2  A    between atoms: C_9  and  C_11
    3  A    between atoms: C_9  and  C_14
    4  A    between atoms: C_11  and  C_26
    5  A    between atoms: C_16  and  C_17
    6  A    between atoms: C_17  and  C_28
    7  A    between atoms: C_20  and  C_26
    8  A    between atoms: C_21  and  C_33
                            x       y       z     vdW  Elec       q    Type
                         _______ _______ _______ _____ _____    ______ ____

>  <TORSDO>
F 8

$$$$
=
 OpenBabel11042412183D

 34 38  0  0  1  0  0  0  0  0999 V2000
  189.6710  176.7210  143.9860 C   0  0  0  0  0  3  0  0  0  0  0  0
  188.1020  177.5870  146.1450 C   0  0  0  0  0  0  0  0  0  0  0  0
  190.0720  177.5960  147.5730 C   0  0  0  0  0  0  0  0  0  0  0  0
  187.5010  177.3580  144.8860 C   0  0  0  0  0  0  0  0  0  0  0  0
  189.2990  178.0160  148.6120 N   0  0  0  0  0  0  0  0  0  0  0  0
  188.3010  176.9290  143.8040 C   0  0  0  0  0  0  0  0  0  0  0  0
  189.4910  177.3720  146.3140 C   0  0  0  0  0  0  0  0  0  0  0  0
  187.9640  178.2320  148.4720 C   0  0  0  0  0  3  0  0  0  0  0  0
  190.2630  176.9400  145.2290 C   0  0  0  0  0  3  0  0  0  0  0  0
  187.3440  178.0210  147.2410 C   0  0  0  0  0  3  0  0  0  0  0  0
  191.4660  177.3800  147.7850 N   0  0  0  0  0  1  0  0  0  0  0  0
  186.0280  177.5810  144.6980 C   0  0  0  0  0  2  0  0  0  0  0  0
  185.7580  179.0230  144.3100 C   0  0  0  0  0  2  0  0  0  0  0  0
  184.5050  179.1010  143.4580 C   0  0  0  0  0  2  0  0  0  0  0  0
  183.8880  179.0630  141.0820 C   0  0  2  0  0  3  0  0  0  0  0  0
  185.2610  179.3640  141.2080 O   0  0  0  0  0  0  0  0  0  0  0  0
  184.7410  178.4290  142.1180 C   0  0  1  0  0  3  0  0  0  0  0  0
  183.1860  176.3970  137.7630 C   0  0  0  0  0  3  0  0  0  0  0  0
  183.6660  178.1240  139.9270 C   0  0  0  0  0  0  0  0  0  0  0  0
  185.6340  179.0180  138.7320 N   0  0  0  0  0  1  0  0  0  0  0  0
  181.6860  177.2580  140.9800 F   0  0  0  0  0  0  0  0  0  0  0  0
  184.2820  177.2610  137.7370 C   0  0  0  0  0  3  0  0  0  0  0  0
  184.5200  178.1310  138.8030 C   0  0  0  0  0  0  0  0  0  0  0  0
  182.5490  177.2650  139.9320 C   0  0  0  0  0  0  0  0  0  0  0  0
  182.3190  176.4040  138.8570 C   0  0  0  0  0  3  0  0  0  0  0  0
  187.7140  176.6730  142.4490 C   0  0  0  0  0  2  0  0  0  0  0  0
  188.5880  177.1690  140.1330 N   0  0  0  0  0  2  0  0  0  0  0  0
  189.1110  177.9720  139.0640 C   0  0  0  0  0  0  0  0  0  0  0  0
  188.4200  178.8400  141.7700 O   0  0  0  0  0  0  0  0  0  0  0  0
  189.2070  179.2560  139.1890 N   0  0  0  0  0  2  0  0  0  0  0  0
  188.2640  177.6320  141.4480 C   0  0  0  0  0  0  0  0  0  0  0  0
  188.5240  176.1100  137.5730 C   0  0  0  0  0  2  0  0  0  0  0  0
  188.1490  177.3840  136.8540 C   0  0  0  0  0  2  0  0  0  0  0  0
  189.3860  177.3490  137.7330 C   0  0  0  0  0  3  0  0  0  0  0  0
  1  9  1  0  0  0  0
  2  7  1  0  0  0  0
  2 10  1  0  0  0  0
  3 11  1  0  0  0  0
  3  5  2  0  0  0  0
  4  2  2  0  0  0  0
  6  1  2  0  0  0  0
  6  4  1  0  0  0  0
  7  3  1  0  0  0  0
  8  5  1  0  0  0  0
  9  7  2  0  0  0  0
 10  8  2  0  0  0  0
 12  4  1  0  0  0  0
 13 12  1  0  0  0  0
 14 13  1  0  0  0  0
 15 19  1  6  0  0  0
 15 16  1  0  0  0  0
 15 17  1  0  0  0  0
 16 17  1  0  0  0  0
 17 14  1  1  0  0  0
 18 25  1  0  0  0  0
 19 24  1  0  0  0  0
 20 23  1  0  0  0  0
 22 18  2  0  0  0  0
 22 23  1  0  0  0  0
 23 19  2  0  0  0  0
 24 21  1  0  0  0  0
 25 24  2  0  0  0  0
 26  6  1  0  0  0  0
 27 31  1  0  0  0  0
 28 30  2  0  0  0  0
 28 27  1  0  0  0  0
 31 29  2  0  0  0  0
 31 26  1  0  0  0  0
 32 34  1  0  0  0  0
 33 32  1  0  0  0  0
 33 34  1  0  0  0  0
 34 28  1  0  0  0  0
M  END
>  <MODEL>
5

>  <REMARK>
 VINA RESULT:      -8.7      2.680      8.410
  Name = 
  8 active torsions:
  status: ('A' for Active; 'I' for Inactive)
    1  A    between atoms: C_1  and  C_8
    2  A    between atoms: C_9  and  C_11
    3  A    between atoms: C_9  and  C_14
    4  A    between atoms: C_11  and  C_26
    5  A    between atoms: C_16  and  C_17
    6  A    between atoms: C_17  and  C_28
    7  A    between atoms: C_20  and  C_26
    8  A    between atoms: C_21  and  C_33
                            x       y       z     vdW  Elec       q    Type
                         _______ _______ _______ _____ _____    ______ ____

>  <TORSDO>
F 8

$$$$
=
 OpenBabel11042412183D

 34 38  0  0  1  0  0  0  0  0999 V2000
  189.6200  176.7580  143.9800 C   0  0  0  0  0  3  0  0  0  0  0  0
  188.0840  177.5980  146.1730 C   0  0  0  0  0  0  0  0  0  0  0  0
  190.0760  177.5940  147.5700 C   0  0  0  0  0  0  0  0  0  0  0  0
  187.4630  177.3820  144.9210 C   0  0  0  0  0  0  0  0  0  0  0  0
  189.3190  178.0010  148.6250 N   0  0  0  0  0  0  0  0  0  0  0  0
  188.2470  176.9660  143.8220 C   0  0  0  0  0  0  0  0  0  0  0  0
  189.4750  177.3830  146.3170 C   0  0  0  0  0  0  0  0  0  0  0  0
  187.9820  178.2180  148.5090 C   0  0  0  0  0  3  0  0  0  0  0  0
  190.2310  176.9640  145.2160 C   0  0  0  0  0  3  0  0  0  0  0  0
  187.3420  178.0200  147.2860 C   0  0  0  0  0  3  0  0  0  0  0  0
  191.4730  177.3780  147.7580 N   0  0  0  0  0  1  0  0  0  0  0  0
  185.9870  177.6060  144.7590 C   0  0  0  0  0  2  0  0  0  0  0  0
  185.7230  178.9840  144.1800 C   0  0  0  0  0  2  0  0  0  0  0  0
  184.4240  178.9710  143.3940 C   0  0  0  0  0  2  0  0  0  0  0  0
  183.8200  179.0870  141.0180 C   0  0  2  0  0  3  0  0  0  0  0  0
  185.1990  179.3450  141.1660 O   0  0  0  0  0  0  0  0  0  0  0  0
  184.6510  178.3720  142.0180 C   0  0  1  0  0  3  0  0  0  0  0  0
  183.1900  176.5710  137.5690 C   0  0  0  0  0  3  0  0  0  0  0  0
  183.5800  178.2210  139.8090 C   0  0  0  0  0  0  0  0  0  0  0  0
  181.3560  177.5500  140.6480 N   0  0  0  0  0  1  0  0  0  0  0  0
  185.7660  178.7530  138.9630 F   0  0  0  0  0  0  0  0  0  0  0  0
  182.1930  176.6770  138.5400 C   0  0  0  0  0  3  0  0  0  0  0  0
  182.3840  177.4850  139.6630 C   0  0  0  0  0  0  0  0  0  0  0  0
  184.5890  178.0890  138.8360 C   0  0  0  0  0  0  0  0  0  0  0  0
  184.3880  177.2720  137.7210 C   0  0  0  0  0  3  0  0  0  0  0  0
  187.6390  176.7250  142.4740 C   0  0  0  0  0  2  0  0  0  0  0  0
  188.5040  177.1890  140.1470 N   0  0  0  0  0  2  0  0  0  0  0  0
  189.0390  177.9740  139.0710 C   0  0  0  0  0  0  0  0  0  0  0  0
  188.4040  178.8680  141.7820 O   0  0  0  0  0  0  0  0  0  0  0  0
  189.1750  179.2540  139.1920 N   0  0  0  0  0  2  0  0  0  0  0  0
  188.2070  177.6650  141.4650 C   0  0  0  0  0  0  0  0  0  0  0  0
  188.3180  176.1810  137.5540 C   0  0  0  0  0  2  0  0  0  0  0  0
  188.0670  177.4880  136.8400 C   0  0  0  0  0  2  0  0  0  0  0  0
  189.2810  177.3400  137.7390 C   0  0  0  0  0  3  0  0  0  0  0  0
  1  9  1  0  0  0  0
  2  7  1  0  0  0  0
  2 10  1  0  0  0  0
  3 11  1  0  0  0  0
  3  5  2  0  0  0  0
  4  2  2  0  0  0  0
  6  1  2  0  0  0  0
  6  4  1  0  0  0  0
  7  3  1  0  0  0  0
  8  5  1  0  0  0  0
  9  7  2  0  0  0  0
 10  8  2  0  0  0  0
 12  4  1  0  0  0  0
 13 12  1  0  0  0  0
 14 13  1  0  0  0  0
 15 19  1  6  0  0  0
 15 16  1  0  0  0  0
 15 17  1  0  0  0  0
 16 17  1  0  0  0  0
 17 14  1  1  0  0  0
 18 25  2  0  0  0  0
 18 22  1  0  0  0  0
 22 23  2  0  0  0  0
 23 19  1  0  0  0  0
 23 20  1  0  0  0  0
 24 21  1  0  0  0  0
 24 19  2  0  0  0  0
 25 24  1  0  0  0  0
 26  6  1  0  0  0  0
 27 31  1  0  0  0  0
 28 30  2  0  0  0  0
 28 27  1  0  0  0  0
 31 29  2  0  0  0  0
 31 26  1  0  0  0  0
 32 34  1  0  0  0  0
 33 32  1  0  0  0  0
 33 34  1  0  0  0  0
 34 28  1  0  0  0  0
M  END
>  <MODEL>
6

>  <REMARK>
 VINA RESULT:      -8.7      2.578      8.470
  Name = 
  8 active torsions:
  status: ('A' for Active; 'I' for Inactive)
    1  A    between atoms: C_1  and  C_8
    2  A    between atoms: C_9  and  C_11
    3  A    between atoms: C_9  and  C_14
    4  A    between atoms: C_11  and  C_26
    5  A    between atoms: C_16  and  C_17
    6  A    between atoms: C_17  and  C_28
    7  A    between atoms: C_20  and  C_26
    8  A    between atoms: C_21  and  C_33
                            x       y       z     vdW  Elec       q    Type
                         _______ _______ _______ _____ _____    ______ ____

>  <TORSDO>
F 8

$$$$
=
 OpenBabel11042412183D

 34 38  0  0  1  0  0  0  0  0999 V2000
  185.8930  178.1710  145.4240 C   0  0  0  0  0  3  0  0  0  0  0  0
  188.5520  177.2940  145.2240 C   0  0  0  0  0  0  0  0  0  0  0  0
  188.8170  177.5480  147.6290 C   0  0  0  0  0  0  0  0  0  0  0  0
  187.7540  177.3930  144.0610 C   0  0  0  0  0  0  0  0  0  0  0  0
  190.1040  177.1220  147.5170 N   0  0  0  0  0  0  0  0  0  0  0  0
  186.4160  177.8290  144.1730 C   0  0  0  0  0  0  0  0  0  0  0  0
  188.0090  177.6450  146.4830 C   0  0  0  0  0  0  0  0  0  0  0  0
  190.6450  176.7770  146.3190 C   0  0  0  0  0  3  0  0  0  0  0  0
  186.6820  178.0810  146.5700 C   0  0  0  0  0  3  0  0  0  0  0  0
  189.8820  176.8580  145.1550 C   0  0  0  0  0  3  0  0  0  0  0  0
  188.3090  177.9020  148.9140 N   0  0  0  0  0  1  0  0  0  0  0  0
  188.3220  177.0260  142.7190 C   0  0  0  0  0  2  0  0  0  0  0  0
  188.8700  178.2580  142.0230 C   0  0  0  0  0  2  0  0  0  0  0  0
  188.8460  178.0530  140.5200 C   0  0  0  0  0  2  0  0  0  0  0  0
  190.5770  177.3310  138.9360 C   0  0  2  0  0  3  0  0  0  0  0  0
  191.1200  177.3770  140.2370 O   0  0  0  0  0  0  0  0  0  0  0  0
  189.7910  176.9320  140.1290 C   0  0  1  0  0  3  0  0  0  0  0  0
  191.9990  173.8760  136.7770 C   0  0  0  0  0  3  0  0  0  0  0  0
  191.0850  176.1180  138.2020 C   0  0  0  0  0  0  0  0  0  0  0  0
  193.4320  176.7520  138.6420 N   0  0  0  0  0  1  0  0  0  0  0  0
  188.8350  175.4750  137.6540 F   0  0  0  0  0  0  0  0  0  0  0  0
  192.9150  174.7460  137.3710 C   0  0  0  0  0  3  0  0  0  0  0  0
  192.4690  175.8700  138.0700 C   0  0  0  0  0  0  0  0  0  0  0  0
  190.1710  175.2470  137.5790 C   0  0  0  0  0  0  0  0  0  0  0  0
  190.6290  174.1300  136.8770 C   0  0  0  0  0  3  0  0  0  0  0  0
  185.5280  177.9500  142.9720 C   0  0  0  0  0  2  0  0  0  0  0  0
  183.0420  178.2660  143.2890 N   0  0  0  0  0  2  0  0  0  0  0  0
  181.8280  178.9790  143.5690 C   0  0  0  0  0  0  0  0  0  0  0  0
  184.5490  180.0510  143.5110 O   0  0  0  0  0  0  0  0  0  0  0  0
  181.8610  180.2100  143.9650 N   0  0  0  0  0  2  0  0  0  0  0  0
  184.3590  178.8290  143.2690 C   0  0  0  0  0  0  0  0  0  0  0  0
  179.3960  179.2440  143.7870 C   0  0  0  0  0  2  0  0  0  0  0  0
  179.6560  178.6900  142.4060 C   0  0  0  0  0  2  0  0  0  0  0  0
  180.5230  178.2500  143.5720 C   0  0  0  0  0  3  0  0  0  0  0  0
  1  9  1  0  0  0  0
  2  7  1  0  0  0  0
  3 11  1  0  0  0  0
  4  6  1  0  0  0  0
  4  2  2  0  0  0  0
  5  3  2  0  0  0  0
  6  1  2  0  0  0  0
  7  9  2  0  0  0  0
  7  3  1  0  0  0  0
  8  5  1  0  0  0  0
 10  2  1  0  0  0  0
 10  8  2  0  0  0  0
 12  4  1  0  0  0  0
 13 12  1  0  0  0  0
 14 13  1  0  0  0  0
 15 19  1  6  0  0  0
 15 17  1  0  0  0  0
 15 16  1  0  0  0  0
 17 16  1  0  0  0  0
 17 14  1  1  0  0  0
 18 25  2  0  0  0  0
 18 22  1  0  0  0  0
 22 23  2  0  0  0  0
 23 19  1  0  0  0  0
 23 20  1  0  0  0  0
 24 21  1  0  0  0  0
 24 19  2  0  0  0  0
 25 24  1  0  0  0  0
 26 31  1  0  0  0  0
 26  6  1  0  0  0  0
 27 28  1  0  0  0  0
 28 34  1  0  0  0  0
 28 30  2  0  0  0  0
 31 27  1  0  0  0  0
 31 29  2  0  0  0  0
 33 34  1  0  0  0  0
 33 32  1  0  0  0  0
 34 32  1  0  0  0  0
M  END
>  <MODEL>
7

>  <REMARK>
 VINA RESULT:      -8.6      2.487      7.576
  Name = 
  8 active torsions:
  status: ('A' for Active; 'I' for Inactive)
    1  A    between atoms: C_1  and  C_8
    2  A    between atoms: C_9  and  C_11
    3  A    between atoms: C_9  and  C_14
    4  A    between atoms: C_11  and  C_26
    5  A    between atoms: C_16  and  C_17
    6  A    between atoms: C_17  and  C_28
    7  A    between atoms: C_20  and  C_26
    8  A    between atoms: C_21  and  C_33
                            x       y       z     vdW  Elec       q    Type
                         _______ _______ _______ _____ _____    ______ ____

>  <TORSDO>
F 8

$$$$
=
 OpenBabel11042412183D

 34 38  0  0  1  0  0  0  0  0999 V2000
  186.6040  176.4100  136.8750 C   0  0  0  0  0  3  0  0  0  0  0  0
  189.2270  176.1380  137.8360 C   0  0  0  0  0  0  0  0  0  0  0  0
  189.3910  173.9570  136.7690 C   0  0  0  0  0  0  0  0  0  0  0  0
  188.4840  177.3020  138.1390 C   0  0  0  0  0  0  0  0  0  0  0  0
  190.6620  173.8380  137.2410 N   0  0  0  0  0  0  0  0  0  0  0  0
  187.1670  177.4320  137.6450 C   0  0  0  0  0  0  0  0  0  0  0  0
  188.6430  175.1110  137.0560 C   0  0  0  0  0  0  0  0  0  0  0  0
  191.2440  174.8120  137.9890 C   0  0  0  0  0  3  0  0  0  0  0  0
  187.3330  175.2590  136.5820 C   0  0  0  0  0  3  0  0  0  0  0  0
  190.5400  175.9750  138.3000 C   0  0  0  0  0  3  0  0  0  0  0  0
  188.8340  172.8970  135.9950 N   0  0  0  0  0  1  0  0  0  0  0  0
  189.0940  178.3950  138.9680 C   0  0  0  0  0  2  0  0  0  0  0  0
  188.6450  178.2750  140.4130 C   0  0  0  0  0  2  0  0  0  0  0  0
  189.7180  177.5780  141.2290 C   0  0  0  0  0  2  0  0  0  0  0  0
  190.0580  176.9350  143.5730 C   0  0  2  0  0  3  0  0  0  0  0  0
  190.9510  177.9730  143.2360 O   0  0  0  0  0  0  0  0  0  0  0  0
  189.6660  178.0460  142.6720 C   0  0  1  0  0  3  0  0  0  0  0  0
  188.4350  177.5020  147.5320 C   0  0  0  0  0  3  0  0  0  0  0  0
  189.5050  177.1530  144.9570 C   0  0  0  0  0  0  0  0  0  0  0  0
  191.7660  177.0490  145.9480 N   0  0  0  0  0  1  0  0  0  0  0  0
  187.2650  177.1780  144.0870 F   0  0  0  0  0  0  0  0  0  0  0  0
  189.8150  177.3820  147.3600 C   0  0  0  0  0  3  0  0  0  0  0  0
  190.3540  177.1950  146.0850 C   0  0  0  0  0  0  0  0  0  0  0  0
  188.1130  177.2520  145.1440 C   0  0  0  0  0  0  0  0  0  0  0  0
  187.5860  177.4320  146.4250 C   0  0  0  0  0  3  0  0  0  0  0  0
  186.3370  178.6450  137.9360 C   0  0  0  0  0  2  0  0  0  0  0  0
  185.3200  178.8690  140.2370 N   0  0  0  0  0  2  0  0  0  0  0  0
  184.3550  178.6590  141.2790 C   0  0  0  0  0  0  0  0  0  0  0  0
  184.3010  177.5850  138.5580 O   0  0  0  0  0  0  0  0  0  0  0  0
  183.2480  178.0350  141.0370 N   0  0  0  0  0  2  0  0  0  0  0  0
  185.2590  178.3220  138.9140 C   0  0  0  0  0  0  0  0  0  0  0  0
  183.3390  179.0250  143.4850 C   0  0  0  0  0  2  0  0  0  0  0  0
  184.6300  178.2760  143.7140 C   0  0  0  0  0  2  0  0  0  0  0  0
  184.5450  179.3130  142.6090 C   0  0  0  0  0  3  0  0  0  0  0  0
  1  6  1  0  0  0  0
  2  4  1  0  0  0  0
  2 10  1  0  0  0  0
  3  7  1  0  0  0  0
  3  5  2  0  0  0  0
  4 12  1  0  0  0  0
  5  8  1  0  0  0  0
  6 26  1  0  0  0  0
  6  4  2  0  0  0  0
  7  2  2  0  0  0  0
  8 10  2  0  0  0  0
  9  1  2  0  0  0  0
  9  7  1  0  0  0  0
 11  3  1  0  0  0  0
 12 13  1  0  0  0  0
 13 14  1  0  0  0  0
 15 19  1  1  0  0  0
 16 15  1  0  0  0  0
 17 14  1  6  0  0  0
 17 16  1  0  0  0  0
 17 15  1  0  0  0  0
 19 24  2  0  0  0  0
 19 23  1  0  0  0  0
 20 23  1  0  0  0  0
 21 24  1  0  0  0  0
 22 18  1  0  0  0  0
 23 22  2  0  0  0  0
 24 25  1  0  0  0  0
 25 18  2  0  0  0  0
 26 31  1  0  0  0  0
 27 28  1  0  0  0  0
 28 34  1  0  0  0  0
 29 31  2  0  0  0  0
 30 28  2  0  0  0  0
 31 27  1  0  0  0  0
 32 33  1  0  0  0  0
 34 32  1  0  0  0  0
 34 33  1  0  0  0  0
M  END
>  <MODEL>
8

>  <REMARK>
 VINA RESULT:      -8.6      1.723      2.186
  Name = 
  8 active torsions:
  status: ('A' for Active; 'I' for Inactive)
    1  A    between atoms: C_1  and  C_8
    2  A    between atoms: C_9  and  C_11
    3  A    between atoms: C_9  and  C_14
    4  A    between atoms: C_11  and  C_26
    5  A    between atoms: C_16  and  C_17
    6  A    between atoms: C_17  and  C_28
    7  A    between atoms: C_20  and  C_26
    8  A    between atoms: C_21  and  C_33
                            x       y       z     vdW  Elec       q    Type
                         _______ _______ _______ _____ _____    ______ ____

>  <TORSDO>
F 8

$$$$
=
 OpenBabel11042412183D

 34 38  0  0  1  0  0  0  0  0999 V2000
  187.7220  177.8780  144.1720 C   0  0  0  0  0  3  0  0  0  0  0  0
  190.2070  176.8790  145.0110 C   0  0  0  0  0  0  0  0  0  0  0  0
  189.6160  177.3540  147.3240 C   0  0  0  0  0  0  0  0  0  0  0  0
  189.8850  176.8970  143.6350 C   0  0  0  0  0  0  0  0  0  0  0  0
  190.8250  176.8670  147.7170 N   0  0  0  0  0  0  0  0  0  0  0  0
  188.6290  177.3950  143.2240 C   0  0  0  0  0  0  0  0  0  0  0  0
  189.2780  177.3720  145.9600 C   0  0  0  0  0  0  0  0  0  0  0  0
  191.7300  176.3860  146.8250 C   0  0  0  0  0  3  0  0  0  0  0  0
  188.0420  177.8670  145.5290 C   0  0  0  0  0  3  0  0  0  0  0  0
  191.4390  176.3840  145.4610 C   0  0  0  0  0  3  0  0  0  0  0  0
  188.7120  177.8520  148.3080 N   0  0  0  0  0  1  0  0  0  0  0  0
  190.8640  176.3780  142.6210 C   0  0  0  0  0  2  0  0  0  0  0  0
  191.6900  177.5190  142.0550 C   0  0  0  0  0  2  0  0  0  0  0  0
  191.8920  177.3170  140.5640 C   0  0  0  0  0  2  0  0  0  0  0  0
  190.6850  176.9200  138.4640 C   0  0  2  0  0  3  0  0  0  0  0  0
  190.9640  175.6850  139.0860 O   0  0  0  0  0  0  0  0  0  0  0  0
  190.6300  176.7530  139.9370 C   0  0  1  0  0  3  0  0  0  0  0  0
  186.6960  176.8270  136.8210 C   0  0  0  0  0  3  0  0  0  0  0  0
  189.3000  176.9040  137.8730 C   0  0  0  0  0  0  0  0  0  0  0  0
  189.0560  179.3390  138.2090 N   0  0  0  0  0  1  0  0  0  0  0  0
  189.4200  174.5200  137.5930 F   0  0  0  0  0  0  0  0  0  0  0  0
  187.2460  178.0420  137.2350 C   0  0  0  0  0  3  0  0  0  0  0  0
  188.5350  178.0860  137.7710 C   0  0  0  0  0  0  0  0  0  0  0  0
  188.7270  175.6810  137.4740 C   0  0  0  0  0  0  0  0  0  0  0  0
  187.4350  175.6490  136.9450 C   0  0  0  0  0  3  0  0  0  0  0  0
  188.2370  177.4350  141.7780 C   0  0  0  0  0  2  0  0  0  0  0  0
  185.9090  178.0490  142.5380 N   0  0  0  0  0  2  0  0  0  0  0  0
  184.6460  178.7320  142.5020 C   0  0  0  0  0  0  0  0  0  0  0  0
  186.8720  179.0030  140.6230 O   0  0  0  0  0  0  0  0  0  0  0  0
  184.4300  179.6750  141.6440 N   0  0  0  0  0  2  0  0  0  0  0  0
  186.9760  178.2090  141.5960 C   0  0  0  0  0  0  0  0  0  0  0  0
  184.2890  178.6280  144.9300 C   0  0  0  0  0  2  0  0  0  0  0  0
  183.3930  179.7230  144.4000 C   0  0  0  0  0  2  0  0  0  0  0  0
  183.6330  178.4750  143.5700 C   0  0  0  0  0  3  0  0  0  0  0  0
  1  9  1  0  0  0  0
  2 10  1  0  0  0  0
  2  7  1  0  0  0  0
  3  5  2  0  0  0  0
  3 11  1  0  0  0  0
  4  2  2  0  0  0  0
  6  4  1  0  0  0  0
  6  1  2  0  0  0  0
  7  3  1  0  0  0  0
  8  5  1  0  0  0  0
  9  7  2  0  0  0  0
 10  8  2  0  0  0  0
 12  4  1  0  0  0  0
 13 12  1  0  0  0  0
 14 13  1  0  0  0  0
 15 19  1  6  0  0  0
 15 16  1  0  0  0  0
 15 17  1  0  0  0  0
 16 17  1  0  0  0  0
 17 14  1  1  0  0  0
 18 25  2  0  0  0  0
 18 22  1  0  0  0  0
 22 23  2  0  0  0  0
 23 19  1  0  0  0  0
 23 20  1  0  0  0  0
 24 21  1  0  0  0  0
 24 19  2  0  0  0  0
 25 24  1  0  0  0  0
 26  6  1  0  0  0  0
 28 27  1  0  0  0  0
 28 34  1  0  0  0  0
 29 31  2  0  0  0  0
 30 28  2  0  0  0  0
 31 26  1  0  0  0  0
 31 27  1  0  0  0  0
 33 32  1  0  0  0  0
 34 33  1  0  0  0  0
 34 32  1  0  0  0  0
M  END
>  <MODEL>
9

>  <REMARK>
 VINA RESULT:      -8.6      2.239      7.002
  Name = 
  8 active torsions:
  status: ('A' for Active; 'I' for Inactive)
    1  A    between atoms: C_1  and  C_8
    2  A    between atoms: C_9  and  C_11
    3  A    between atoms: C_9  and  C_14
    4  A    between atoms: C_11  and  C_26
    5  A    between atoms: C_16  and  C_17
    6  A    between atoms: C_17  and  C_28
    7  A    between atoms: C_20  and  C_26
    8  A    between atoms: C_21  and  C_33
                            x       y       z     vdW  Elec       q    Type
                         _______ _______ _______ _____ _____    ______ ____

>  <TORSDO>
F 8

$$$$
