=
 OpenBabel11032420583D

 39 41  0  0  1  0  0  0  0  0999 V2000
  188.5320  175.3990  143.0690 O   0  0  0  0  0  0  0  0  0  0  0  0
  188.7880  176.5550  143.5090 C   0  0  0  0  0  0  0  0  0  0  0  0
  189.6670  177.1120  146.4550 C   0  0  0  0  0  3  0  0  0  0  0  0
  187.4950  177.9670  146.7830 C   0  0  0  0  0  0  0  0  0  0  0  0
  186.5940  177.5170  144.1990 C   0  0  0  0  0  3  0  0  0  0  0  0
  188.1310  178.1430  148.1040 C   0  0  0  0  0  3  0  0  0  0  0  0
  186.1900  178.3290  146.4540 C   0  0  0  0  0  3  0  0  0  0  0  0
  185.7350  178.1030  145.1490 C   0  0  0  0  0  0  0  0  0  0  0  0
  187.9120  177.1550  144.5380 C   0  0  0  0  0  0  0  0  0  0  0  0
  188.3390  177.3980  145.8590 C   0  0  0  0  0  0  0  0  0  0  0  0
  189.5360  177.5560  147.9170 C   0  0  0  0  0  2  0  0  0  0  0  0
  183.7170  179.1230  145.8640 O   0  0  0  0  0  1  0  0  0  0  0  0
  184.3380  178.4890  144.7850 C   0  0  1  0  0  3  0  0  0  0  0  0
  184.3280  179.3890  143.5580 C   0  0  0  0  0  2  0  0  0  0  0  0
  182.1540  178.9220  142.7070 O   0  0  0  0  0  0  0  0  0  0  0  0
  183.3990  178.8540  142.5220 C   0  0  0  0  0  0  0  0  0  0  0  0
  183.9230  178.3250  141.3400 O   0  0  0  0  0  0  0  0  0  0  0  0
  183.9480  179.0580  140.1230 C   0  0  0  0  0  2  0  0  0  0  0  0
  184.6890  178.2740  139.0550 C   0  0  0  0  0  2  0  0  0  0  0  0
  184.4260  176.7430  137.1310 C   0  0  0  0  0  1  0  0  0  0  0  0
  183.6900  177.5810  138.1540 C   0  0  0  0  0  2  0  0  0  0  0  0
  189.8830  177.2650  143.0050 O   0  0  0  0  0  0  0  0  0  0  0  0
  190.0130  177.5820  141.6250 C   0  0  0  0  0  2  0  0  0  0  0  0
  188.7710  178.3060  141.1350 C   0  0  0  0  0  2  0  0  0  0  0  0
  188.3980  177.8230  139.7450 C   0  0  0  0  0  2  0  0  0  0  0  0
  188.7270  178.8430  138.7520 N   0  0  0  0  0  2  0  0  0  0  0  0
  189.4870  178.2600  137.6400 C   0  0  1  0  0  3  0  0  0  0  0  0
  189.7060  176.7620  137.8280 C   0  0  2  0  0  3  0  0  0  0  0  0
  192.8960  176.8530  138.9910 O   0  0  0  0  0  0  0  0  0  0  0  0
  191.1320  176.4340  137.5390 N   0  0  0  0  0  0  0  0  0  0  0  0
  189.9890  176.1580  136.6190 C   0  0  1  0  0  3  0  0  0  0  0  0
  192.5160  176.4060  137.8770 C   0  0  0  0  0  0  0  0  0  0  0  0
  194.5600  176.4800  136.6820 O   0  0  0  0  0  0  0  0  0  0  0  0
  193.4990  175.8550  136.9430 C   0  0  0  0  0  3  0  0  0  0  0  0
  189.6530  174.6800  136.6770 C   0  0  0  0  0  2  0  0  0  0  0  0
  187.4520  174.9660  135.5460 C   0  0  0  0  0  1  0  0  0  0  0  0
  188.1520  174.4840  136.8020 C   0  0  0  0  0  2  0  0  0  0  0  0
  187.3450  178.7090  136.4340 C   0  0  0  0  0  1  0  0  0  0  0  0
  188.8460  178.5600  136.2870 C   0  0  0  0  0  2  0  0  0  0  0  0
  1  2  2  0  0  0  0
  2  9  1  0  0  0  0
  3 11  1  0  0  0  0
  4  6  2  0  0  0  0
  5  9  2  0  0  0  0
  5  8  1  0  0  0  0
  7  4  1  0  0  0  0
  8  7  2  0  0  0  0
  9 10  1  0  0  0  0
 10  3  2  0  0  0  0
 10  4  1  0  0  0  0
 11  6  1  0  0  0  0
 13  8  1  0  0  0  0
 13 12  1  1  0  0  0
 14 13  1  0  0  0  0
 16 15  2  0  0  0  0
 16 14  1  0  0  0  0
 17 16  1  0  0  0  0
 18 17  1  0  0  0  0
 19 18  1  0  0  0  0
 20 21  1  0  0  0  0
 21 19  1  0  0  0  0
 22  2  1  0  0  0  0
 23 22  1  0  0  0  0
 24 23  1  0  0  0  0
 25 24  1  0  0  0  0
 26 25  1  0  0  0  0
 27 39  1  6  0  0  0
 27 26  1  0  0  0  0
 28 27  1  6  0  0  0
 30 28  1  0  0  0  0
 30 32  1  0  0  0  0
 31 35  1  1  0  0  0
 31 30  1  0  0  0  0
 31 28  1  0  0  0  0
 32 29  2  0  0  0  0
 33 34  2  0  0  0  0
 34 32  1  0  0  0  0
 35 37  1  0  0  0  0
 36 37  1  0  0  0  0
 39 38  1  0  0  0  0
M  END
>  <MODEL>
1

>  <REMARK>
 VINA RESULT:      -7.4      0.000      0.000
  Name = 
  19 active torsions:
  status: ('A' for Active; 'I' for Inactive)
    1  A    between atoms: C_1  and  C_24
    2  A    between atoms: C_4  and  C_30
    3  A    between atoms: C_4  and  C_37
    4  A    between atoms: C_5  and  C_15
    5  A    between atoms: C_5  and  C_36
    6  A    between atoms: C_8  and  O_14
    7  A    between atoms: C_8  and  C_28
    8  A    between atoms: O_10  and  C_36
    9  A    between atoms: O_10  and  C_38
   10  A    between atoms: O_14  and  C_37
   11  A    between atoms: C_15  and  N_23
   12  A    between atoms: C_21  and  C_30
   13  A    between atoms: C_22  and  C_31
   14  A    between atoms: N_23  and  C_24
   15  A    between atoms: C_24  and  C_35
   16  A    between atoms: C_25  and  C_39
   17  A    between atoms: C_26  and  C_38
   18  A    between atoms: C_28  and  C_32
   19  A    between atoms: C_29  and  C_31
                            x       y       z     vdW  Elec       q    Type
                         _______ _______ _______ _____ _____    ______ ____

>  <TORSDO>
F 19

$$$$
=
 OpenBabel11032420583D

 39 41  0  0  1  0  0  0  0  0999 V2000
  186.7590  178.3830  141.7160 O   0  0  0  0  0  0  0  0  0  0  0  0
  187.5000  177.7990  142.5560 C   0  0  0  0  0  0  0  0  0  0  0  0
  184.6810  178.4340  143.7450 C   0  0  0  0  0  3  0  0  0  0  0  0
  185.7180  178.3460  145.8590 C   0  0  0  0  0  0  0  0  0  0  0  0
  188.2690  177.7850  144.9270 C   0  0  0  0  0  3  0  0  0  0  0  0
  184.3080  178.6390  146.1860 C   0  0  0  0  0  3  0  0  0  0  0  0
  186.7500  178.1880  146.7820 C   0  0  0  0  0  3  0  0  0  0  0  0
  188.0390  177.9040  146.3120 C   0  0  0  0  0  0  0  0  0  0  0  0
  187.2200  177.9450  144.0010 C   0  0  0  0  0  0  0  0  0  0  0  0
  185.9360  178.2280  144.5080 C   0  0  0  0  0  0  0  0  0  0  0  0
  183.6260  178.7360  144.8160 C   0  0  0  0  0  2  0  0  0  0  0  0
  188.6670  177.8390  148.5980 O   0  0  0  0  0  1  0  0  0  0  0  0
  189.1530  177.7310  147.2930 C   0  0  1  0  0  3  0  0  0  0  0  0
  189.8480  176.3920  147.0900 C   0  0  0  0  0  2  0  0  0  0  0  0
  191.9590  176.9840  148.0190 O   0  0  0  0  0  0  0  0  0  0  0  0
  191.3250  176.5740  147.0090 C   0  0  0  0  0  0  0  0  0  0  0  0
  191.9910  176.2450  145.8260 O   0  0  0  0  0  0  0  0  0  0  0  0
  191.3250  176.1600  144.5740 C   0  0  0  0  0  2  0  0  0  0  0  0
  191.8020  177.2670  143.6500 C   0  0  0  0  0  2  0  0  0  0  0  0
  190.9010  179.5600  143.8550 C   0  0  0  0  0  1  0  0  0  0  0  0
  191.8890  178.5650  144.4230 C   0  0  0  0  0  2  0  0  0  0  0  0
  188.5860  177.0370  142.1150 O   0  0  0  0  0  0  0  0  0  0  0  0
  189.0780  177.1140  140.7840 C   0  0  0  0  0  2  0  0  0  0  0  0
  190.5890  177.2730  140.7920 C   0  0  0  0  0  2  0  0  0  0  0  0
  191.1560  176.9550  139.4200 C   0  0  0  0  0  2  0  0  0  0  0  0
  190.5980  175.6990  138.9230 N   0  0  0  0  0  2  0  0  0  0  0  0
  191.1910  175.3440  137.6280 C   0  0  1  0  0  3  0  0  0  0  0  0
  190.1440  175.2990  136.5190 C   0  0  2  0  0  3  0  0  0  0  0  0
  189.0520  178.5100  136.7160 O   0  0  0  0  0  0  0  0  0  0  0  0
  189.0070  176.1930  136.8810 N   0  0  0  0  0  0  0  0  0  0  0  0
  188.9840  174.7030  136.9720 C   0  0  1  0  0  3  0  0  0  0  0  0
  188.4050  177.4770  137.0280 C   0  0  0  0  0  0  0  0  0  0  0  0
  186.7020  178.5870  138.2460 O   0  0  0  0  0  0  0  0  0  0  0  0
  187.0370  177.6040  137.5340 C   0  0  0  0  0  3  0  0  0  0  0  0
  188.1870  174.1490  135.8060 C   0  0  0  0  0  2  0  0  0  0  0  0
  186.2270  173.7270  137.2850 C   0  0  0  0  0  1  0  0  0  0  0  0
  187.1940  173.1090  136.2920 C   0  0  0  0  0  2  0  0  0  0  0  0
  193.6340  175.4670  137.1170 C   0  0  0  0  0  1  0  0  0  0  0  0
  192.3510  176.2640  137.2560 C   0  0  0  0  0  2  0  0  0  0  0  0
  1  2  2  0  0  0  0
  2  9  1  0  0  0  0
  3 10  2  0  0  0  0
  3 11  1  0  0  0  0
  4  6  2  0  0  0  0
  4  7  1  0  0  0  0
  5  8  1  0  0  0  0
  8  7  2  0  0  0  0
  8 13  1  0  0  0  0
  9 10  1  0  0  0  0
  9  5  2  0  0  0  0
 10  4  1  0  0  0  0
 11  6  1  0  0  0  0
 13 12  1  1  0  0  0
 14 13  1  0  0  0  0
 16 14  1  0  0  0  0
 16 15  2  0  0  0  0
 17 16  1  0  0  0  0
 18 17  1  0  0  0  0
 19 21  1  0  0  0  0
 19 18  1  0  0  0  0
 20 21  1  0  0  0  0
 22  2  1  0  0  0  0
 23 24  1  0  0  0  0
 23 22  1  0  0  0  0
 25 24  1  0  0  0  0
 26 25  1  0  0  0  0
 27 39  1  6  0  0  0
 27 26  1  0  0  0  0
 28 30  1  0  0  0  0
 28 31  1  0  0  0  0
 28 27  1  1  0  0  0
 29 32  2  0  0  0  0
 30 31  1  0  0  0  0
 30 32  1  0  0  0  0
 31 35  1  6  0  0  0
 32 34  1  0  0  0  0
 34 33  2  0  0  0  0
 35 37  1  0  0  0  0
 37 36  1  0  0  0  0
 38 39  1  0  0  0  0
M  END
>  <MODEL>
2

>  <REMARK>
 VINA RESULT:      -7.2      2.324      5.573
  Name = 
  19 active torsions:
  status: ('A' for Active; 'I' for Inactive)
    1  A    between atoms: C_1  and  C_24
    2  A    between atoms: C_4  and  C_30
    3  A    between atoms: C_4  and  C_37
    4  A    between atoms: C_5  and  C_15
    5  A    between atoms: C_5  and  C_36
    6  A    between atoms: C_8  and  O_14
    7  A    between atoms: C_8  and  C_28
    8  A    between atoms: O_10  and  C_36
    9  A    between atoms: O_10  and  C_38
   10  A    between atoms: O_14  and  C_37
   11  A    between atoms: C_15  and  N_23
   12  A    between atoms: C_21  and  C_30
   13  A    between atoms: C_22  and  C_31
   14  A    between atoms: N_23  and  C_24
   15  A    between atoms: C_24  and  C_35
   16  A    between atoms: C_25  and  C_39
   17  A    between atoms: C_26  and  C_38
   18  A    between atoms: C_28  and  C_32
   19  A    between atoms: C_29  and  C_31
                            x       y       z     vdW  Elec       q    Type
                         _______ _______ _______ _____ _____    ______ ____

>  <TORSDO>
F 19

$$$$
=
 OpenBabel11032420583D

 39 41  0  0  1  0  0  0  0  0999 V2000
  188.5710  175.4840  143.0960 O   0  0  0  0  0  0  0  0  0  0  0  0
  188.6600  176.7060  143.4070 C   0  0  0  0  0  0  0  0  0  0  0  0
  189.5980  177.1640  146.3520 C   0  0  0  0  0  3  0  0  0  0  0  0
  187.4200  177.9670  146.7620 C   0  0  0  0  0  0  0  0  0  0  0  0
  186.4670  177.6020  144.1830 C   0  0  0  0  0  3  0  0  0  0  0  0
  188.0830  178.1030  148.0750 C   0  0  0  0  0  3  0  0  0  0  0  0
  186.1020  178.3190  146.4770 C   0  0  0  0  0  3  0  0  0  0  0  0
  185.6200  178.1360  145.1740 C   0  0  0  0  0  0  0  0  0  0  0  0
  187.7980  177.2500  144.4790 C   0  0  0  0  0  0  0  0  0  0  0  0
  188.2520  177.4490  145.7980 C   0  0  0  0  0  0  0  0  0  0  0  0
  189.4930  177.5480  147.8330 C   0  0  0  0  0  2  0  0  0  0  0  0
  183.6100  179.1130  145.9660 O   0  0  0  0  0  1  0  0  0  0  0  0
  184.2090  178.5110  144.8570 C   0  0  1  0  0  3  0  0  0  0  0  0
  184.1550  179.4380  143.6510 C   0  0  0  0  0  2  0  0  0  0  0  0
  182.1220  178.8450  142.5630 O   0  0  0  0  0  0  0  0  0  0  0  0
  183.3830  178.8110  142.5420 C   0  0  0  0  0  0  0  0  0  0  0  0
  184.0680  178.2340  141.4710 O   0  0  0  0  0  0  0  0  0  0  0  0
  185.0900  178.9200  140.7610 C   0  0  0  0  0  2  0  0  0  0  0  0
  184.8620  178.7970  139.2650 C   0  0  0  0  0  2  0  0  0  0  0  0
  182.7730  178.4150  137.9990 C   0  0  0  0  0  1  0  0  0  0  0  0
  183.5070  179.3720  138.9130 C   0  0  0  0  0  2  0  0  0  0  0  0
  189.5570  177.5340  142.7250 O   0  0  0  0  0  0  0  0  0  0  0  0
  189.1220  178.5460  141.8260 C   0  0  0  0  0  2  0  0  0  0  0  0
  188.6760  177.9230  140.5140 C   0  0  0  0  0  2  0  0  0  0  0  0
  189.8220  177.1520  139.8840 C   0  0  0  0  0  2  0  0  0  0  0  0
  189.4000  176.5740  138.6100 N   0  0  0  0  0  2  0  0  0  0  0  0
  190.1380  177.1790  137.4950 C   0  0  1  0  0  3  0  0  0  0  0  0
  190.9810  176.1500  136.7490 C   0  0  2  0  0  3  0  0  0  0  0  0
  188.5700  174.8950  134.7110 O   0  0  0  0  0  0  0  0  0  0  0  0
  190.1370  174.9640  136.4250 N   0  0  0  0  0  0  0  0  0  0  0  0
  191.1540  175.0160  137.5170 C   0  0  1  0  0  3  0  0  0  0  0  0
  189.1330  174.2970  135.6650 C   0  0  0  0  0  0  0  0  0  0  0  0
  188.3250  172.6130  137.1230 O   0  0  0  0  0  0  0  0  0  0  0  0
  188.7550  172.9180  135.9790 C   0  0  0  0  0  3  0  0  0  0  0  0
  192.3940  174.2630  137.0720 C   0  0  0  0  0  2  0  0  0  0  0  0
  194.6520  173.9370  138.0720 C   0  0  0  0  0  1  0  0  0  0  0  0
  193.6440  174.9580  137.5810 C   0  0  0  0  0  2  0  0  0  0  0  0
  187.7650  177.6570  136.8740 C   0  0  0  0  0  1  0  0  0  0  0  0
  189.2180  177.9370  136.5410 C   0  0  0  0  0  2  0  0  0  0  0  0
  1  2  2  0  0  0  0
  2  9  1  0  0  0  0
  3 11  1  0  0  0  0
  4  6  2  0  0  0  0
  5  9  2  0  0  0  0
  5  8  1  0  0  0  0
  7  4  1  0  0  0  0
  8  7  2  0  0  0  0
  9 10  1  0  0  0  0
 10  3  2  0  0  0  0
 10  4  1  0  0  0  0
 11  6  1  0  0  0  0
 13  8  1  0  0  0  0
 13 12  1  1  0  0  0
 14 13  1  0  0  0  0
 16 15  2  0  0  0  0
 16 14  1  0  0  0  0
 17 16  1  0  0  0  0
 18 17  1  0  0  0  0
 19 18  1  0  0  0  0
 20 21  1  0  0  0  0
 21 19  1  0  0  0  0
 22  2  1  0  0  0  0
 23 22  1  0  0  0  0
 24 23  1  0  0  0  0
 25 24  1  0  0  0  0
 26 25  1  0  0  0  0
 27 39  1  6  0  0  0
 27 26  1  0  0  0  0
 28 27  1  1  0  0  0
 28 31  1  0  0  0  0
 29 32  2  0  0  0  0
 30 28  1  0  0  0  0
 30 31  1  0  0  0  0
 31 35  1  6  0  0  0
 32 34  1  0  0  0  0
 32 30  1  0  0  0  0
 34 33  2  0  0  0  0
 35 37  1  0  0  0  0
 37 36  1  0  0  0  0
 39 38  1  0  0  0  0
M  END
>  <MODEL>
3

>  <REMARK>
 VINA RESULT:      -7.0      1.785      2.697
  Name = 
  19 active torsions:
  status: ('A' for Active; 'I' for Inactive)
    1  A    between atoms: C_1  and  C_24
    2  A    between atoms: C_4  and  C_30
    3  A    between atoms: C_4  and  C_37
    4  A    between atoms: C_5  and  C_15
    5  A    between atoms: C_5  and  C_36
    6  A    between atoms: C_8  and  O_14
    7  A    between atoms: C_8  and  C_28
    8  A    between atoms: O_10  and  C_36
    9  A    between atoms: O_10  and  C_38
   10  A    between atoms: O_14  and  C_37
   11  A    between atoms: C_15  and  N_23
   12  A    between atoms: C_21  and  C_30
   13  A    between atoms: C_22  and  C_31
   14  A    between atoms: N_23  and  C_24
   15  A    between atoms: C_24  and  C_35
   16  A    between atoms: C_25  and  C_39
   17  A    between atoms: C_26  and  C_38
   18  A    between atoms: C_28  and  C_32
   19  A    between atoms: C_29  and  C_31
                            x       y       z     vdW  Elec       q    Type
                         _______ _______ _______ _____ _____    ______ ____

>  <TORSDO>
F 19

$$$$
=
 OpenBabel11032420583D

 39 41  0  0  1  0  0  0  0  0999 V2000
  189.6100  175.5940  143.0060 O   0  0  0  0  0  0  0  0  0  0  0  0
  189.2830  176.8130  143.0730 C   0  0  0  0  0  0  0  0  0  0  0  0
  189.9990  177.0010  146.1080 C   0  0  0  0  0  3  0  0  0  0  0  0
  187.7930  177.7680  146.4270 C   0  0  0  0  0  0  0  0  0  0  0  0
  187.0350  177.6390  143.7620 C   0  0  0  0  0  3  0  0  0  0  0  0
  188.3570  177.7830  147.7920 C   0  0  0  0  0  3  0  0  0  0  0  0
  186.4990  178.1470  146.0780 C   0  0  0  0  0  3  0  0  0  0  0  0
  186.1150  178.0830  144.7320 C   0  0  0  0  0  0  0  0  0  0  0  0
  188.3420  177.2600  144.1220 C   0  0  0  0  0  0  0  0  0  0  0  0
  188.6960  177.3380  145.4840 C   0  0  0  0  0  0  0  0  0  0  0  0
  189.7830  177.2500  147.6060 C   0  0  0  0  0  2  0  0  0  0  0  0
  184.0520  179.0030  145.4550 O   0  0  0  0  0  1  0  0  0  0  0  0
  184.7290  178.4870  144.3470 C   0  0  1  0  0  3  0  0  0  0  0  0
  184.7590  179.5070  143.2170 C   0  0  0  0  0  2  0  0  0  0  0  0
  183.9690  177.6880  141.8980 O   0  0  0  0  0  0  0  0  0  0  0  0
  184.4520  178.8530  141.9130 C   0  0  0  0  0  0  0  0  0  0  0  0
  184.6600  179.5600  140.7260 O   0  0  0  0  0  0  0  0  0  0  0  0
  184.8320  178.9120  139.4740 C   0  0  0  0  0  2  0  0  0  0  0  0
  183.5220  178.8990  138.7060 C   0  0  0  0  0  2  0  0  0  0  0  0
  181.5160  180.2210  138.1220 C   0  0  0  0  0  1  0  0  0  0  0  0
  182.8520  180.2500  138.8330 C   0  0  0  0  0  2  0  0  0  0  0  0
  189.7980  177.7230  142.1430 O   0  0  0  0  0  0  0  0  0  0  0  0
  189.8590  177.4360  140.7530 C   0  0  0  0  0  2  0  0  0  0  0  0
  188.7330  178.1470  140.0210 C   0  0  0  0  0  2  0  0  0  0  0  0
  188.1730  177.2540  138.9280 C   0  0  0  0  0  2  0  0  0  0  0  0
  188.3730  177.8730  137.6200 N   0  0  0  0  0  2  0  0  0  0  0  0
  188.1840  176.8900  136.5460 C   0  0  1  0  0  3  0  0  0  0  0  0
  188.0200  175.4770  137.0950 C   0  0  2  0  0  3  0  0  0  0  0  0
  191.1750  175.0140  138.2670 O   0  0  0  0  0  0  0  0  0  0  0  0
  189.3010  174.7320  136.9240 N   0  0  0  0  0  0  0  0  0  0  0  0
  188.0870  174.5500  136.0730 C   0  0  1  0  0  3  0  0  0  0  0  0
  190.6450  174.4280  137.2870 C   0  0  0  0  0  0  0  0  0  0  0  0
  192.6610  173.5480  136.4060 O   0  0  0  0  0  0  0  0  0  0  0  0
  191.4130  173.4350  136.5350 C   0  0  0  0  0  3  0  0  0  0  0  0
  187.3860  173.2670  136.4810 C   0  0  0  0  0  2  0  0  0  0  0  0
  185.2640  172.9860  137.7550 C   0  0  0  0  0  1  0  0  0  0  0  0
  185.8800  173.4550  136.4500 C   0  0  0  0  0  2  0  0  0  0  0  0
  185.7010  177.0790  136.3370 C   0  0  0  0  0  1  0  0  0  0  0  0
  187.0260  177.2640  135.6240 C   0  0  0  0  0  2  0  0  0  0  0  0
  1  2  2  0  0  0  0
  2  9  1  0  0  0  0
  3 11  1  0  0  0  0
  4  6  2  0  0  0  0
  5  9  2  0  0  0  0
  5  8  1  0  0  0  0
  7  4  1  0  0  0  0
  8  7  2  0  0  0  0
  9 10  1  0  0  0  0
 10  3  2  0  0  0  0
 10  4  1  0  0  0  0
 11  6  1  0  0  0  0
 13  8  1  0  0  0  0
 13 12  1  1  0  0  0
 14 13  1  0  0  0  0
 15 16  2  0  0  0  0
 16 14  1  0  0  0  0
 17 16  1  0  0  0  0
 18 17  1  0  0  0  0
 19 21  1  0  0  0  0
 19 18  1  0  0  0  0
 20 21  1  0  0  0  0
 22  2  1  0  0  0  0
 23 22  1  0  0  0  0
 24 23  1  0  0  0  0
 25 24  1  0  0  0  0
 26 25  1  0  0  0  0
 27 39  1  1  0  0  0
 27 26  1  0  0  0  0
 28 27  1  6  0  0  0
 30 28  1  0  0  0  0
 30 32  1  0  0  0  0
 31 35  1  1  0  0  0
 31 30  1  0  0  0  0
 31 28  1  0  0  0  0
 32 29  2  0  0  0  0
 33 34  2  0  0  0  0
 34 32  1  0  0  0  0
 37 35  1  0  0  0  0
 37 36  1  0  0  0  0
 39 38  1  0  0  0  0
M  END
>  <MODEL>
4

>  <REMARK>
 VINA RESULT:      -6.9      1.558      1.976
  Name = 
  19 active torsions:
  status: ('A' for Active; 'I' for Inactive)
    1  A    between atoms: C_1  and  C_24
    2  A    between atoms: C_4  and  C_30
    3  A    between atoms: C_4  and  C_37
    4  A    between atoms: C_5  and  C_15
    5  A    between atoms: C_5  and  C_36
    6  A    between atoms: C_8  and  O_14
    7  A    between atoms: C_8  and  C_28
    8  A    between atoms: O_10  and  C_36
    9  A    between atoms: O_10  and  C_38
   10  A    between atoms: O_14  and  C_37
   11  A    between atoms: C_15  and  N_23
   12  A    between atoms: C_21  and  C_30
   13  A    between atoms: C_22  and  C_31
   14  A    between atoms: N_23  and  C_24
   15  A    between atoms: C_24  and  C_35
   16  A    between atoms: C_25  and  C_39
   17  A    between atoms: C_26  and  C_38
   18  A    between atoms: C_28  and  C_32
   19  A    between atoms: C_29  and  C_31
                            x       y       z     vdW  Elec       q    Type
                         _______ _______ _______ _____ _____    ______ ____

>  <TORSDO>
F 19

$$$$
=
 OpenBabel11032420583D

 39 41  0  0  1  0  0  0  0  0999 V2000
  186.1910  179.6480  140.9520 O   0  0  0  0  0  0  0  0  0  0  0  0
  185.1630  178.9400  141.1440 C   0  0  0  0  0  0  0  0  0  0  0  0
  182.0850  178.8270  141.6730 C   0  0  0  0  0  3  0  0  0  0  0  0
  182.6330  178.7790  143.9650 C   0  0  0  0  0  0  0  0  0  0  0  0
  185.3830  178.8820  143.6260 C   0  0  0  0  0  3  0  0  0  0  0  0
  181.1570  178.7220  143.9680 C   0  0  0  0  0  3  0  0  0  0  0  0
  183.4490  178.7700  145.0940 C   0  0  0  0  0  3  0  0  0  0  0  0
  184.8390  178.8210  144.9240 C   0  0  0  0  0  0  0  0  0  0  0  0
  184.5520  178.8890  142.4900 C   0  0  0  0  0  0  0  0  0  0  0  0
  183.1590  178.8350  142.6960 C   0  0  1  0  0  3  0  0  0  0  0  0
  180.7840  178.7900  142.4820 C   0  0  0  0  0  3  0  0  0  0  0  0
  184.9550  178.9010  147.2910 O   0  0  0  0  0  1  0  0  0  0  0  0
  185.7240  178.8110  146.1280 C   0  0  1  0  0  3  0  0  0  0  0  0
  186.5860  177.5570  146.1530 C   0  0  0  0  0  2  0  0  0  0  0  0
  187.6370  177.7180  148.2840 O   0  0  0  0  0  0  0  0  0  0  0  0
  187.7740  177.7560  147.0310 C   0  0  0  0  0  0  0  0  0  0  0  0
  189.0320  177.9350  146.4510 O   0  0  0  0  0  0  0  0  0  0  0  0
  189.8350  176.8450  146.0200 C   0  0  0  0  0  2  0  0  0  0  0  0
  190.3150  177.0770  144.5980 C   0  0  0  0  0  2  0  0  0  0  0  0
  191.5130  179.1260  143.9070 C   0  0  0  0  0  1  0  0  0  0  0  0
  190.1590  178.5410  144.2480 C   0  0  0  0  0  2  0  0  0  0  0  0
  184.6240  178.1960  140.0890 O   0  0  0  0  0  0  0  0  0  0  0  0
  184.5190  178.7150  138.7700 C   0  0  0  0  0  2  0  0  0  0  0  0
  185.3000  177.8430  137.8010 C   0  0  0  0  0  2  0  0  0  0  0  0
  186.7560  177.7650  138.2260 C   0  0  0  0  0  2  0  0  0  0  0  0
  187.5600  178.7000  137.4430 N   0  0  0  0  0  2  0  0  0  0  0  0
  188.6790  178.0050  136.7940 C   0  0  1  0  0  3  0  0  0  0  0  0
  189.0340  176.7090  137.5130 C   0  0  2  0  0  3  0  0  0  0  0  0
  189.2520  177.9230  140.6790 O   0  0  0  0  0  0  0  0  0  0  0  0
  189.9430  177.0140  138.6560 N   0  0  0  0  0  0  0  0  0  0  0  0
  190.3750  176.4180  137.3560 C   0  0  1  0  0  3  0  0  0  0  0  0
  190.2030  177.4990  139.9700 C   0  0  0  0  0  0  0  0  0  0  0  0
  192.5330  177.1020  139.8090 O   0  0  0  0  0  0  0  0  0  0  0  0
  191.5650  177.5030  140.5070 C   0  0  0  0  0  3  0  0  0  0  0  0
  190.6190  174.9330  137.5500 C   0  0  0  0  0  2  0  0  0  0  0  0
  192.7170  175.6070  136.3880 C   0  0  0  0  0  1  0  0  0  0  0  0
  192.0870  174.6080  137.3400 C   0  0  0  0  0  2  0  0  0  0  0  0
  187.7620  176.4110  135.1020 C   0  0  0  0  0  1  0  0  0  0  0  0
  188.4190  177.7610  135.3090 C   0  0  0  0  0  2  0  0  0  0  0  0
  1  2  2  0  0  0  0
  2  9  1  0  0  0  0
  3 11  2  0  0  0  0
  4  6  2  0  0  0  0
  4  7  1  0  0  0  0
  5  8  1  0  0  0  0
  8  7  2  0  0  0  0
  8 13  1  0  0  0  0
  9 10  1  0  0  0  0
  9  5  2  0  0  0  0
 10  3  1  6  0  0  0
 10  4  1  0  0  0  0
 11  6  1  0  0  0  0
 13 14  1  0  0  0  0
 13 12  1  1  0  0  0
 14 16  1  0  0  0  0
 16 15  2  0  0  0  0
 17 16  1  0  0  0  0
 18 17  1  0  0  0  0
 19 18  1  0  0  0  0
 20 21  1  0  0  0  0
 21 19  1  0  0  0  0
 22  2  1  0  0  0  0
 23 22  1  0  0  0  0
 24 25  1  0  0  0  0
 24 23  1  0  0  0  0
 26 25  1  0  0  0  0
 27 39  1  6  0  0  0
 27 26  1  0  0  0  0
 28 27  1  6  0  0  0
 28 30  1  0  0  0  0
 30 32  1  0  0  0  0
 31 28  1  0  0  0  0
 31 35  1  1  0  0  0
 31 30  1  0  0  0  0
 32 34  1  0  0  0  0
 32 29  2  0  0  0  0
 33 34  2  0  0  0  0
 36 37  1  0  0  0  0
 37 35  1  0  0  0  0
 38 39  1  0  0  0  0
M  END
>  <MODEL>
5

>  <REMARK>
 VINA RESULT:      -6.9      1.865      5.413
  Name = 
  19 active torsions:
  status: ('A' for Active; 'I' for Inactive)
    1  A    between atoms: C_1  and  C_24
    2  A    between atoms: C_4  and  C_30
    3  A    between atoms: C_4  and  C_37
    4  A    between atoms: C_5  and  C_15
    5  A    between atoms: C_5  and  C_36
    6  A    between atoms: C_8  and  O_14
    7  A    between atoms: C_8  and  C_28
    8  A    between atoms: O_10  and  C_36
    9  A    between atoms: O_10  and  C_38
   10  A    between atoms: O_14  and  C_37
   11  A    between atoms: C_15  and  N_23
   12  A    between atoms: C_21  and  C_30
   13  A    between atoms: C_22  and  C_31
   14  A    between atoms: N_23  and  C_24
   15  A    between atoms: C_24  and  C_35
   16  A    between atoms: C_25  and  C_39
   17  A    between atoms: C_26  and  C_38
   18  A    between atoms: C_28  and  C_32
   19  A    between atoms: C_29  and  C_31
                            x       y       z     vdW  Elec       q    Type
                         _______ _______ _______ _____ _____    ______ ____

>  <TORSDO>
F 19

$$$$
=
 OpenBabel11032420583D

 39 41  0  0  1  0  0  0  0  0999 V2000
  184.6850  178.2450  146.9690 O   0  0  0  0  0  0  0  0  0  0  0  0
  185.3810  178.6310  145.9880 C   0  0  0  0  0  0  0  0  0  0  0  0
  187.5940  178.3370  148.1740 C   0  0  0  0  0  3  0  0  0  0  0  0
  188.9040  177.3220  146.4980 C   0  0  0  0  0  0  0  0  0  0  0  0
  187.0240  177.5310  144.4700 C   0  0  0  0  0  3  0  0  0  0  0  0
  189.7830  177.2850  147.6840 C   0  0  0  0  0  3  0  0  0  0  0  0
  189.2220  176.8300  145.2340 C   0  0  0  0  0  3  0  0  0  0  0  0
  188.2730  176.9340  144.2090 C   0  0  0  0  0  0  0  0  0  0  0  0
  186.7090  178.0240  145.7500 C   0  0  0  0  0  0  0  0  0  0  0  0
  187.6850  177.9020  146.7590 C   0  0  0  0  0  0  0  0  0  0  0  0
  188.9570  177.9760  148.7750 C   0  0  0  0  0  2  0  0  0  0  0  0
  188.1490  177.2910  141.8670 O   0  0  0  0  0  1  0  0  0  0  0  0
  188.6040  176.4080  142.8500 C   0  0  1  0  0  3  0  0  0  0  0  0
  190.1020  176.1780  142.7110 C   0  0  0  0  0  2  0  0  0  0  0  0
  191.3510  178.2020  142.8310 O   0  0  0  0  0  0  0  0  0  0  0  0
  190.7600  177.3650  142.0950 C   0  0  0  0  0  0  0  0  0  0  0  0
  190.7500  177.5100  140.7060 O   0  0  0  0  0  0  0  0  0  0  0  0
  190.7400  176.3970  139.8240 C   0  0  0  0  0  2  0  0  0  0  0  0
  191.4500  176.7480  138.5290 C   0  0  0  0  0  2  0  0  0  0  0  0
  191.6150  175.8970  136.2130 C   0  0  0  0  0  1  0  0  0  0  0  0
  190.6700  176.1870  137.3590 C   0  0  0  0  0  2  0  0  0  0  0  0
  184.9000  179.6410  145.1480 O   0  0  0  0  0  0  0  0  0  0  0  0
  184.2050  179.3580  143.9400 C   0  0  0  0  0  2  0  0  0  0  0  0
  185.1060  179.6210  142.7450 C   0  0  0  0  0  2  0  0  0  0  0  0
  184.5550  178.9250  141.5130 C   0  0  0  0  0  2  0  0  0  0  0  0
  184.9300  179.6620  140.3080 N   0  0  0  0  0  2  0  0  0  0  0  0
  184.1750  179.1760  139.1460 C   0  0  1  0  0  3  0  0  0  0  0  0
  184.6610  177.8050  138.6890 C   0  0  2  0  0  3  0  0  0  0  0  0
  187.9940  178.4530  138.5790 O   0  0  0  0  0  0  0  0  0  0  0  0
  185.8540  177.9740  137.8110 N   0  0  0  0  0  0  0  0  0  0  0  0
  184.4780  177.6540  137.3290 C   0  0  1  0  0  3  0  0  0  0  0  0
  187.2380  178.2380  137.5960 C   0  0  0  0  0  0  0  0  0  0  0  0
  187.0810  177.9300  135.2510 O   0  0  0  0  0  0  0  0  0  0  0  0
  187.7900  178.2550  136.2400 C   0  0  0  0  0  3  0  0  0  0  0  0
  184.4110  176.1830  136.9660 C   0  0  0  0  0  2  0  0  0  0  0  0
  181.9990  175.7900  137.4520 C   0  0  0  0  0  1  0  0  0  0  0  0
  183.4220  175.4620  137.8650 C   0  0  0  0  0  2  0  0  0  0  0  0
  182.0010  180.2930  138.6250 C   0  0  0  0  0  1  0  0  0  0  0  0
  182.6700  179.1740  139.4000 C   0  0  0  0  0  2  0  0  0  0  0  0
  2  1  2  0  0  0  0
  3 11  1  0  0  0  0
  4 10  1  0  0  0  0
  4  6  2  0  0  0  0
  5  9  2  0  0  0  0
  6 11  1  0  0  0  0
  7  4  1  0  0  0  0
  8  5  1  0  0  0  0
  8  7  2  0  0  0  0
  9  2  1  0  0  0  0
  9 10  1  0  0  0  0
 10  3  2  0  0  0  0
 13 12  1  6  0  0  0
 13  8  1  0  0  0  0
 14 13  1  0  0  0  0
 16 14  1  0  0  0  0
 16 15  2  0  0  0  0
 17 16  1  0  0  0  0
 18 17  1  0  0  0  0
 19 18  1  0  0  0  0
 20 21  1  0  0  0  0
 21 19  1  0  0  0  0
 22  2  1  0  0  0  0
 23 22  1  0  0  0  0
 24 23  1  0  0  0  0
 25 24  1  0  0  0  0
 26 25  1  0  0  0  0
 27 39  1  1  0  0  0
 27 26  1  0  0  0  0
 28 27  1  6  0  0  0
 30 28  1  0  0  0  0
 31 35  1  1  0  0  0
 31 30  1  0  0  0  0
 31 28  1  0  0  0  0
 32 30  1  0  0  0  0
 32 29  2  0  0  0  0
 33 34  2  0  0  0  0
 34 32  1  0  0  0  0
 35 37  1  0  0  0  0
 36 37  1  0  0  0  0
 38 39  1  0  0  0  0
M  END
>  <MODEL>
6

>  <REMARK>
 VINA RESULT:      -6.8      2.182      5.528
  Name = 
  19 active torsions:
  status: ('A' for Active; 'I' for Inactive)
    1  A    between atoms: C_1  and  C_24
    2  A    between atoms: C_4  and  C_30
    3  A    between atoms: C_4  and  C_37
    4  A    between atoms: C_5  and  C_15
    5  A    between atoms: C_5  and  C_36
    6  A    between atoms: C_8  and  O_14
    7  A    between atoms: C_8  and  C_28
    8  A    between atoms: O_10  and  C_36
    9  A    between atoms: O_10  and  C_38
   10  A    between atoms: O_14  and  C_37
   11  A    between atoms: C_15  and  N_23
   12  A    between atoms: C_21  and  C_30
   13  A    between atoms: C_22  and  C_31
   14  A    between atoms: N_23  and  C_24
   15  A    between atoms: C_24  and  C_35
   16  A    between atoms: C_25  and  C_39
   17  A    between atoms: C_26  and  C_38
   18  A    between atoms: C_28  and  C_32
   19  A    between atoms: C_29  and  C_31
                            x       y       z     vdW  Elec       q    Type
                         _______ _______ _______ _____ _____    ______ ____

>  <TORSDO>
F 19

$$$$
=
 OpenBabel11032420583D

 39 41  0  0  1  0  0  0  0  0999 V2000
  189.2710  175.6440  143.2140 O   0  0  0  0  0  0  0  0  0  0  0  0
  189.0460  176.8820  143.3370 C   0  0  0  0  0  0  0  0  0  0  0  0
  189.7930  177.1110  146.3620 C   0  0  0  0  0  3  0  0  0  0  0  0
  187.5970  177.9030  146.6900 C   0  0  0  0  0  0  0  0  0  0  0  0
  186.8110  177.7380  144.0360 C   0  0  0  0  0  3  0  0  0  0  0  0
  188.1750  177.9340  148.0490 C   0  0  0  0  0  3  0  0  0  0  0  0
  186.3020  178.2870  146.3480 C   0  0  0  0  0  3  0  0  0  0  0  0
  185.9050  178.2050  145.0070 C   0  0  0  0  0  0  0  0  0  0  0  0
  188.1190  177.3530  144.3890 C   0  0  0  0  0  0  0  0  0  0  0  0
  188.4870  177.4500  145.7460 C   0  0  0  0  0  0  0  0  0  0  0  0
  189.5940  177.3860  147.8570 C   0  0  0  0  0  2  0  0  0  0  0  0
  183.8120  179.0270  145.7620 O   0  0  0  0  0  1  0  0  0  0  0  0
  184.5190  178.6160  144.6290 C   0  0  1  0  0  3  0  0  0  0  0  0
  184.5500  179.7250  143.5870 C   0  0  0  0  0  2  0  0  0  0  0  0
  185.3450  179.4520  141.3590 O   0  0  0  0  0  0  0  0  0  0  0  0
  184.4650  179.1560  142.2120 C   0  0  0  0  0  0  0  0  0  0  0  0
  183.4350  178.2640  141.9030 O   0  0  0  0  0  0  0  0  0  0  0  0
  182.1880  178.6940  141.3740 C   0  0  0  0  0  2  0  0  0  0  0  0
  181.6230  177.6390  140.4410 C   0  0  0  0  0  2  0  0  0  0  0  0
  179.7020  178.2460  141.8740 C   0  0  0  0  0  1  0  0  0  0  0  0
  180.1140  177.6170  140.5610 C   0  0  0  0  0  2  0  0  0  0  0  0
  189.6580  177.7900  142.4680 O   0  0  0  0  0  0  0  0  0  0  0  0
  189.0780  178.1600  141.2230 C   0  0  0  0  0  2  0  0  0  0  0  0
  189.9290  177.6430  140.0760 C   0  0  0  0  0  2  0  0  0  0  0  0
  189.4420  178.2250  138.7610 C   0  0  0  0  0  2  0  0  0  0  0  0
  189.8390  177.3620  137.6500 N   0  0  0  0  0  2  0  0  0  0  0  0
  189.0220  176.1430  137.6230 C   0  0  1  0  0  3  0  0  0  0  0  0
  187.9390  176.2100  136.5520 C   0  0  2  0  0  3  0  0  0  0  0  0
  186.3510  179.0220  137.6060 O   0  0  0  0  0  0  0  0  0  0  0  0
  186.6920  176.7700  137.1480 N   0  0  0  0  0  0  0  0  0  0  0  0
  186.9170  175.3270  136.8390 C   0  0  1  0  0  3  0  0  0  0  0  0
  185.8990  177.8480  137.6370 C   0  0  0  0  0  0  0  0  0  0  0  0
  183.9870  176.4940  137.9930 O   0  0  0  0  0  0  0  0  0  0  0  0
  184.5570  177.6030  138.1700 C   0  0  0  0  0  3  0  0  0  0  0  0
  186.1600  174.9690  135.5740 C   0  0  0  0  0  2  0  0  0  0  0  0
  187.3910  172.8590  135.0860 C   0  0  0  0  0  1  0  0  0  0  0  0
  187.0760  174.2590  134.5940 C   0  0  0  0  0  2  0  0  0  0  0  0
  190.9130  175.0780  136.3830 C   0  0  0  0  0  1  0  0  0  0  0  0
  189.8740  174.8850  137.4700 C   0  0  0  0  0  2  0  0  0  0  0  0
  1  2  2  0  0  0  0
  2  9  1  0  0  0  0
  3 11  1  0  0  0  0
  4  6  2  0  0  0  0
  5  9  2  0  0  0  0
  5  8  1  0  0  0  0
  7  4  1  0  0  0  0
  8  7  2  0  0  0  0
  9 10  1  0  0  0  0
 10  3  2  0  0  0  0
 10  4  1  0  0  0  0
 11  6  1  0  0  0  0
 13  8  1  0  0  0  0
 13 12  1  1  0  0  0
 14 13  1  0  0  0  0
 15 16  2  0  0  0  0
 16 14  1  0  0  0  0
 17 16  1  0  0  0  0
 18 17  1  0  0  0  0
 19 21  1  0  0  0  0
 19 18  1  0  0  0  0
 21 20  1  0  0  0  0
 22  2  1  0  0  0  0
 23 22  1  0  0  0  0
 24 23  1  0  0  0  0
 25 24  1  0  0  0  0
 26 25  1  0  0  0  0
 27 39  1  6  0  0  0
 27 26  1  0  0  0  0
 28 31  1  0  0  0  0
 28 30  1  0  0  0  0
 28 27  1  1  0  0  0
 29 32  2  0  0  0  0
 30 32  1  0  0  0  0
 31 35  1  6  0  0  0
 31 30  1  0  0  0  0
 32 34  1  0  0  0  0
 33 34  2  0  0  0  0
 37 36  1  0  0  0  0
 37 35  1  0  0  0  0
 38 39  1  0  0  0  0
M  END
>  <MODEL>
7

>  <REMARK>
 VINA RESULT:      -6.8      1.910      3.613
  Name = 
  19 active torsions:
  status: ('A' for Active; 'I' for Inactive)
    1  A    between atoms: C_1  and  C_24
    2  A    between atoms: C_4  and  C_30
    3  A    between atoms: C_4  and  C_37
    4  A    between atoms: C_5  and  C_15
    5  A    between atoms: C_5  and  C_36
    6  A    between atoms: C_8  and  O_14
    7  A    between atoms: C_8  and  C_28
    8  A    between atoms: O_10  and  C_36
    9  A    between atoms: O_10  and  C_38
   10  A    between atoms: O_14  and  C_37
   11  A    between atoms: C_15  and  N_23
   12  A    between atoms: C_21  and  C_30
   13  A    between atoms: C_22  and  C_31
   14  A    between atoms: N_23  and  C_24
   15  A    between atoms: C_24  and  C_35
   16  A    between atoms: C_25  and  C_39
   17  A    between atoms: C_26  and  C_38
   18  A    between atoms: C_28  and  C_32
   19  A    between atoms: C_29  and  C_31
                            x       y       z     vdW  Elec       q    Type
                         _______ _______ _______ _____ _____    ______ ____

>  <TORSDO>
F 19

$$$$
=
 OpenBabel11032420583D

 39 41  0  0  1  0  0  0  0  0999 V2000
  185.4030  179.6490  140.4840 O   0  0  0  0  0  0  0  0  0  0  0  0
  184.5060  178.8400  140.8550 C   0  0  0  0  0  0  0  0  0  0  0  0
  181.5210  178.7490  141.7730 C   0  0  0  0  0  3  0  0  0  0  0  0
  182.3550  178.7680  143.9780 C   0  0  0  0  0  0  0  0  0  0  0  0
  185.0400  178.8560  143.2890 C   0  0  0  0  0  3  0  0  0  0  0  0
  180.8920  178.7140  144.1700 C   0  0  0  0  0  3  0  0  0  0  0  0
  183.3090  178.7900  144.9940 C   0  0  0  0  0  3  0  0  0  0  0  0
  184.6660  178.8340  144.6470 C   0  0  0  0  0  0  0  0  0  0  0  0
  184.0710  178.8310  142.2680 C   0  0  0  0  0  0  0  0  0  0  0  0
  182.7160  178.7850  142.6520 C   0  0  0  0  0  0  0  0  0  0  0  0
  180.3330  178.7390  142.7420 C   0  0  0  0  0  2  0  0  0  0  0  0
  185.0990  179.1550  146.9560 O   0  0  0  0  0  1  0  0  0  0  0  0
  185.6960  178.8570  145.7280 C   0  0  1  0  0  3  0  0  0  0  0  0
  186.4320  177.5270  145.8010 C   0  0  0  0  0  2  0  0  0  0  0  0
  188.3850  177.7090  147.1520 O   0  0  0  0  0  0  0  0  0  0  0  0
  187.8940  177.7470  145.9910 C   0  0  0  0  0  0  0  0  0  0  0  0
  188.7080  177.9480  144.8730 O   0  0  0  0  0  0  0  0  0  0  0  0
  189.2260  176.8710  144.1050 C   0  0  0  0  0  2  0  0  0  0  0  0
  188.2500  176.4950  143.0040 C   0  0  0  0  0  2  0  0  0  0  0  0
  189.4450  177.5710  141.1270 C   0  0  0  0  0  1  0  0  0  0  0  0
  188.1950  177.6070  141.9790 C   0  0  0  0  0  2  0  0  0  0  0  0
  183.9460  177.9500  139.9320 O   0  0  0  0  0  0  0  0  0  0  0  0
  183.5500  178.3570  138.6280 C   0  0  0  0  0  2  0  0  0  0  0  0
  183.0000  177.1700  137.8550 C   0  0  0  0  0  2  0  0  0  0  0  0
  184.0410  176.0670  137.7800 C   0  0  0  0  0  2  0  0  0  0  0  0
  184.9810  176.3340  136.6930 N   0  0  0  0  0  2  0  0  0  0  0  0
  185.7720  175.1370  136.3850 C   0  0  1  0  0  3  0  0  0  0  0  0
  187.0460  175.0700  137.2190 C   0  0  2  0  0  3  0  0  0  0  0  0
  187.0480  178.2530  138.4070 O   0  0  0  0  0  0  0  0  0  0  0  0
  187.7260  176.3970  137.1860 N   0  0  0  0  0  0  0  0  0  0  0  0
  188.1610  175.1940  136.4140 C   0  0  1  0  0  3  0  0  0  0  0  0
  187.8590  177.7590  137.5810 C   0  0  0  0  0  0  0  0  0  0  0  0
  189.0600  179.7940  137.3870 O   0  0  0  0  0  0  0  0  0  0  0  0
  188.9370  178.5890  137.0390 C   0  0  0  0  0  3  0  0  0  0  0  0
  189.3720  174.5830  137.0930 C   0  0  0  0  0  2  0  0  0  0  0  0
  191.2290  173.2610  136.0880 C   0  0  0  0  0  1  0  0  0  0  0  0
  190.5740  174.6270  136.1660 C   0  0  0  0  0  2  0  0  0  0  0  0
  185.5850  172.9290  137.5420 C   0  0  0  0  0  1  0  0  0  0  0  0
  184.9520  173.8560  136.5220 C   0  0  0  0  0  2  0  0  0  0  0  0
  1  2  2  0  0  0  0
  2  9  1  0  0  0  0
  3 10  2  0  0  0  0
  3 11  1  0  0  0  0
  4  6  2  0  0  0  0
  4  7  1  0  0  0  0
  5  8  1  0  0  0  0
  8  7  2  0  0  0  0
  8 13  1  0  0  0  0
  9 10  1  0  0  0  0
  9  5  2  0  0  0  0
 10  4  1  0  0  0  0
 11  6  1  0  0  0  0
 13 14  1  0  0  0  0
 13 12  1  1  0  0  0
 14 16  1  0  0  0  0
 16 15  2  0  0  0  0
 17 16  1  0  0  0  0
 18 17  1  0  0  0  0
 19 18  1  0  0  0  0
 20 21  1  0  0  0  0
 21 19  1  0  0  0  0
 22  2  1  0  0  0  0
 23 22  1  0  0  0  0
 24 23  1  0  0  0  0
 25 24  1  0  0  0  0
 26 25  1  0  0  0  0
 27 39  1  1  0  0  0
 27 26  1  0  0  0  0
 28 27  1  6  0  0  0
 30 28  1  0  0  0  0
 30 32  1  0  0  0  0
 31 35  1  1  0  0  0
 31 30  1  0  0  0  0
 31 28  1  0  0  0  0
 32 29  2  0  0  0  0
 34 33  2  0  0  0  0
 34 32  1  0  0  0  0
 36 37  1  0  0  0  0
 37 35  1  0  0  0  0
 39 38  1  0  0  0  0
M  END
>  <MODEL>
8

>  <REMARK>
 VINA RESULT:      -6.8      2.198      5.625
  Name = 
  19 active torsions:
  status: ('A' for Active; 'I' for Inactive)
    1  A    between atoms: C_1  and  C_24
    2  A    between atoms: C_4  and  C_30
    3  A    between atoms: C_4  and  C_37
    4  A    between atoms: C_5  and  C_15
    5  A    between atoms: C_5  and  C_36
    6  A    between atoms: C_8  and  O_14
    7  A    between atoms: C_8  and  C_28
    8  A    between atoms: O_10  and  C_36
    9  A    between atoms: O_10  and  C_38
   10  A    between atoms: O_14  and  C_37
   11  A    between atoms: C_15  and  N_23
   12  A    between atoms: C_21  and  C_30
   13  A    between atoms: C_22  and  C_31
   14  A    between atoms: N_23  and  C_24
   15  A    between atoms: C_24  and  C_35
   16  A    between atoms: C_25  and  C_39
   17  A    between atoms: C_26  and  C_38
   18  A    between atoms: C_28  and  C_32
   19  A    between atoms: C_29  and  C_31
                            x       y       z     vdW  Elec       q    Type
                         _______ _______ _______ _____ _____    ______ ____

>  <TORSDO>
F 19

$$$$
=
 OpenBabel11032420583D

 39 41  0  0  1  0  0  0  0  0999 V2000
  185.0370  179.5220  140.2420 O   0  0  0  0  0  0  0  0  0  0  0  0
  185.6010  178.9670  141.2270 C   0  0  0  0  0  0  0  0  0  0  0  0
  182.4920  178.8760  141.5260 C   0  0  0  0  0  3  0  0  0  0  0  0
  182.8700  178.7540  143.8500 C   0  0  0  0  0  0  0  0  0  0  0  0
  185.6390  178.8340  143.7160 C   0  0  0  0  0  3  0  0  0  0  0  0
  181.3970  178.7160  143.7430 C   0  0  0  0  0  3  0  0  0  0  0  0
  183.6010  178.7020  145.0350 C   0  0  0  0  0  3  0  0  0  0  0  0
  185.0000  178.7410  144.9680 C   0  0  0  0  0  0  0  0  0  0  0  0
  184.8930  178.8840  142.5230 C   0  0  0  0  0  0  0  0  0  0  0  0
  183.4880  178.8410  142.6250 C   0  0  1  0  0  3  0  0  0  0  0  0
  181.1350  178.8320  142.2370 C   0  0  0  0  0  3  0  0  0  0  0  0
  184.9390  178.6250  147.3360 O   0  0  0  0  0  1  0  0  0  0  0  0
  185.7940  178.6850  146.2330 C   0  0  1  0  0  3  0  0  0  0  0  0
  186.7390  177.4920  146.2240 C   0  0  0  0  0  2  0  0  0  0  0  0
  188.1420  177.9840  148.0840 O   0  0  0  0  0  0  0  0  0  0  0  0
  188.0490  177.8570  146.8320 C   0  0  0  0  0  0  0  0  0  0  0  0
  189.1680  178.0090  146.0100 O   0  0  0  0  0  0  0  0  0  0  0  0
  189.4460  177.1270  144.9310 C   0  0  0  0  0  2  0  0  0  0  0  0
  189.3770  177.8750  143.6120 C   0  0  0  0  0  2  0  0  0  0  0  0
  191.6240  178.6270  144.3170 C   0  0  0  0  0  1  0  0  0  0  0  0
  190.7800  178.1920  143.1390 C   0  0  0  0  0  2  0  0  0  0  0  0
  186.8950  178.4530  141.0890 O   0  0  0  0  0  0  0  0  0  0  0  0
  187.4960  178.2400  139.8190 C   0  0  0  0  0  2  0  0  0  0  0  0
  188.9660  178.6240  139.8640 C   0  0  0  0  0  2  0  0  0  0  0  0
  189.7880  177.6440  139.0470 C   0  0  0  0  0  2  0  0  0  0  0  0
  188.9550  176.5240  138.6150 N   0  0  0  0  0  2  0  0  0  0  0  0
  189.6230  175.7560  137.5580 C   0  0  1  0  0  3  0  0  0  0  0  0
  188.6550  175.3580  136.4490 C   0  0  2  0  0  3  0  0  0  0  0  0
  187.1350  178.3620  135.9930 O   0  0  0  0  0  0  0  0  0  0  0  0
  187.3900  176.1340  136.5990 N   0  0  0  0  0  0  0  0  0  0  0  0
  187.5610  174.6990  136.9740 C   0  0  1  0  0  3  0  0  0  0  0  0
  186.6150  177.3240  136.4790 C   0  0  0  0  0  0  0  0  0  0  0  0
  184.3150  176.8260  136.2050 O   0  0  0  0  0  0  0  0  0  0  0  0
  185.2170  177.3480  136.9120 C   0  0  0  0  0  3  0  0  0  0  0  0
  186.9110  173.8300  135.9140 C   0  0  0  0  0  2  0  0  0  0  0  0
  185.1490  173.2900  137.5910 C   0  0  0  0  0  1  0  0  0  0  0  0
  186.1070  172.7170  136.5640 C   0  0  0  0  0  2  0  0  0  0  0  0
  191.6070  175.5930  136.0460 C   0  0  0  0  0  1  0  0  0  0  0  0
  190.8370  176.4910  136.9940 C   0  0  0  0  0  2  0  0  0  0  0  0
  1  2  2  0  0  0  0
  2  9  1  0  0  0  0
  3 11  2  0  0  0  0
  4  7  1  0  0  0  0
  5  8  1  0  0  0  0
  6  4  2  0  0  0  0
  8  7  2  0  0  0  0
  8 13  1  0  0  0  0
  9 10  1  0  0  0  0
  9  5  2  0  0  0  0
 10  3  1  6  0  0  0
 10  4  1  0  0  0  0
 11  6  1  0  0  0  0
 13 12  1  1  0  0  0
 14 13  1  0  0  0  0
 14 16  1  0  0  0  0
 16 15  2  0  0  0  0
 17 16  1  0  0  0  0
 18 17  1  0  0  0  0
 19 18  1  0  0  0  0
 21 19  1  0  0  0  0
 21 20  1  0  0  0  0
 22  2  1  0  0  0  0
 23 24  1  0  0  0  0
 23 22  1  0  0  0  0
 25 24  1  0  0  0  0
 26 25  1  0  0  0  0
 27 39  1  6  0  0  0
 27 26  1  0  0  0  0
 28 30  1  0  0  0  0
 28 31  1  0  0  0  0
 28 27  1  1  0  0  0
 29 32  2  0  0  0  0
 30 31  1  0  0  0  0
 31 35  1  6  0  0  0
 32 30  1  0  0  0  0
 32 34  1  0  0  0  0
 33 34  2  0  0  0  0
 35 37  1  0  0  0  0
 37 36  1  0  0  0  0
 38 39  1  0  0  0  0
M  END
>  <MODEL>
9

>  <REMARK>
 VINA RESULT:      -6.5      2.418      5.677
  Name = 
  19 active torsions:
  status: ('A' for Active; 'I' for Inactive)
    1  A    between atoms: C_1  and  C_24
    2  A    between atoms: C_4  and  C_30
    3  A    between atoms: C_4  and  C_37
    4  A    between atoms: C_5  and  C_15
    5  A    between atoms: C_5  and  C_36
    6  A    between atoms: C_8  and  O_14
    7  A    between atoms: C_8  and  C_28
    8  A    between atoms: O_10  and  C_36
    9  A    between atoms: O_10  and  C_38
   10  A    between atoms: O_14  and  C_37
   11  A    between atoms: C_15  and  N_23
   12  A    between atoms: C_21  and  C_30
   13  A    between atoms: C_22  and  C_31
   14  A    between atoms: N_23  and  C_24
   15  A    between atoms: C_24  and  C_35
   16  A    between atoms: C_25  and  C_39
   17  A    between atoms: C_26  and  C_38
   18  A    between atoms: C_28  and  C_32
   19  A    between atoms: C_29  and  C_31
                            x       y       z     vdW  Elec       q    Type
                         _______ _______ _______ _____ _____    ______ ____

>  <TORSDO>
F 19

$$$$
