=
 OpenBabel11042411573D

 37 41  0  0  1  0  0  0  0  0999 V2000
  180.6230  178.8580  142.6100 C   0  0  0  0  0  0  0  0  0  0  0  0
  186.0830  178.2250  144.8740 C   0  0  0  0  0  0  0  0  0  0  0  0
  185.7510  178.3870  146.3100 C   0  0  0  0  0  3  0  0  0  0  0  0
  184.7980  177.8700  141.8620 C   0  0  0  0  0  2  0  0  0  0  0  0
  179.8880  176.7990  141.3020 C   0  0  0  0  0  2  0  0  0  0  0  0
  184.5770  178.9360  146.4730 N   0  0  0  0  0  0  0  0  0  0  0  0
  180.2810  179.8080  143.3640 O   0  0  0  0  0  0  0  0  0  0  0  0
  179.7080  177.1140  139.8240 C   0  0  1  0  0  3  0  0  0  0  0  0
  182.8570  179.1250  144.6960 C   0  0  0  0  0  3  0  0  0  0  0  0
  181.0250  177.4670  139.1110 C   0  0  2  0  0  0  0  0  0  0  0  0
  182.9930  178.7680  143.2620 C   0  0  0  0  0  0  0  0  0  0  0  0
  183.7730  177.5240  140.8070 C   0  0  0  0  0  2  0  0  0  0  0  0
  185.0770  178.7560  144.2080 C   0  0  0  0  0  0  0  0  0  0  0  0
  184.3840  178.4490  142.9820 C   0  0  0  0  0  0  0  0  0  0  0  0
  181.8620  176.3620  139.0940 F   0  0  0  0  0  0  0  0  0  0  0  0
  179.0160  175.9390  139.1510 C   0  0  0  0  0  1  0  0  0  0  0  0
  184.1100  179.1700  145.1550 C   0  0  0  0  0  0  0  0  0  0  0  0
  182.0550  178.6310  142.3170 C   0  0  2  0  0  3  0  0  0  0  0  0
  181.7120  178.6610  139.8210 C   0  0  1  0  0  3  0  0  0  0  0  0
  180.7240  177.8080  137.7880 O   0  0  0  0  0  1  0  0  0  0  0  0
  179.6100  177.9880  142.0970 N   0  0  0  0  0  2  0  0  0  0  0  0
  182.4990  178.2550  140.9910 N   0  0  1  0  0  0  0  0  0  0  0  0
  181.7820  179.9260  137.7470 O   0  0  0  0  0  0  0  0  0  0  0  0
  182.5000  179.6190  138.9180 C   0  0  1  0  0  0  0  0  0  0  0  0
  181.9140  180.9620  138.6930 C   0  0  0  0  0  2  0  0  0  0  0  0
  183.9780  179.3670  138.6050 C   0  0  0  0  0  2  0  0  0  0  0  0
  184.2090  178.1270  137.7470 C   0  0  0  0  0  2  0  0  0  0  0  0
  185.4910  178.1470  137.1960 O   0  0  0  0  0  0  0  0  0  0  0  0
  186.3540  178.1310  138.2890 C   0  0  0  0  0  2  0  0  0  0  0  0
  187.5840  177.4360  137.9230 N   0  0  0  0  0  2  0  0  0  0  0  0
  188.9880  179.3000  138.2530 O   0  0  0  0  0  1  0  0  0  0  0  0
  188.7220  177.9900  138.6620 C   0  0  1  0  0  3  0  0  0  0  0  0
  188.5070  177.9380  140.1730 C   0  0  0  0  0  2  0  0  0  0  0  0
  190.1940  176.3800  140.9120 N   0  0  0  0  0  2  0  0  0  0  0  0
  189.7750  177.5910  140.8850 C   0  0  0  0  0  3  0  0  0  0  0  0
  187.0540  177.3110  144.3380 C   0  0  0  0  0  0  0  0  0  0  0  0
  187.8690  176.5470  143.8860 C   0  0  0  0  0  3  0  0  0  0  0  0
  1  7  2  0  0  0  0
  2  3  1  0  0  0  0
  3  6  2  0  0  0  0
  4 14  1  0  0  0  0
  5 21  1  0  0  0  0
  8 16  1  6  0  0  0
  8  5  1  0  0  0  0
  9 17  2  0  0  0  0
 10 20  1  6  0  0  0
 10 19  1  0  0  0  0
 10  8  1  0  0  0  0
 11  9  1  0  0  0  0
 12  4  1  0  0  0  0
 13  2  2  0  0  0  0
 13 17  1  0  0  0  0
 14 11  2  0  0  0  0
 14 13  1  0  0  0  0
 15 10  1  0  0  0  0
 17  6  1  0  0  0  0
 18  1  1  6  0  0  0
 18 11  1  0  0  0  0
 19 24  1  6  0  0  0
 19 22  1  0  0  0  0
 21  1  1  0  0  0  0
 22 12  1  6  0  0  0
 22 18  1  0  0  0  0
 23 25  1  0  0  0  0
 23 24  1  0  0  0  0
 24 26  1  6  0  0  0
 25 24  1  0  0  0  0
 27 26  1  0  0  0  0
 28 27  1  0  0  0  0
 28 29  1  0  0  0  0
 30 29  1  0  0  0  0
 30 32  1  0  0  0  0
 32 31  1  6  0  0  0
 32 33  1  0  0  0  0
 33 35  1  0  0  0  0
 35 34  2  0  0  0  0
 36  2  1  0  0  0  0
 37 36  3  0  0  0  0
M  END
>  <MODEL>
1

>  <REMARK>
 VINA RESULT:      -7.5      0.000      0.000
  Name = 
  10 active torsions:
  status: ('A' for Active; 'I' for Inactive)
    1  A    between atoms: O_3  and  C_11
    2  A    between atoms: O_3  and  C_22
    3  A    between atoms: N_4  and  C_11
    4  A    between atoms: N_4  and  C_36
    5  A    between atoms: C_5  and  C_7
    6  A    between atoms: C_14  and  C_36
    7  A    between atoms: C_14  and  C_37
    8  A    between atoms: C_22  and  C_29
    9  A    between atoms: C_29  and  C_32
   10  A    between atoms: C_30  and  C_32
                            x       y       z     vdW  Elec       q    Type
                         _______ _______ _______ _____ _____    ______ ____

>  <TORSDO>
F 10

$$$$
=
 OpenBabel11042411573D

 37 41  0  0  1  0  0  0  0  0999 V2000
  180.5450  178.7930  142.6440 C   0  0  0  0  0  0  0  0  0  0  0  0
  186.0550  178.2130  144.7970 C   0  0  0  0  0  0  0  0  0  0  0  0
  185.7470  178.3370  146.2420 C   0  0  0  0  0  3  0  0  0  0  0  0
  184.7240  177.9010  141.8010 C   0  0  0  0  0  2  0  0  0  0  0  0
  179.8250  176.7500  141.3030 C   0  0  0  0  0  2  0  0  0  0  0  0
  184.5660  178.8600  146.4380 N   0  0  0  0  0  0  0  0  0  0  0  0
  180.2000  179.7200  143.4250 O   0  0  0  0  0  0  0  0  0  0  0  0
  179.6130  177.0940  139.8360 C   0  0  1  0  0  3  0  0  0  0  0  0
  182.8110  179.0550  144.6960 C   0  0  0  0  0  3  0  0  0  0  0  0
  180.9100  177.4870  139.1080 C   0  0  2  0  0  0  0  0  0  0  0  0
  182.9280  178.7330  143.2520 C   0  0  0  0  0  0  0  0  0  0  0  0
  183.6870  177.5580  140.7560 C   0  0  0  0  0  2  0  0  0  0  0  0
  185.0290  178.7400  144.1610 C   0  0  0  0  0  0  0  0  0  0  0  0
  184.3190  178.4460  142.9400 C   0  0  0  0  0  0  0  0  0  0  0  0
  181.7670  176.3990  139.0520 F   0  0  0  0  0  0  0  0  0  0  0  0
  178.9310  175.9210  139.1490 C   0  0  0  0  0  1  0  0  0  0  0  0
  184.0710  179.1140  145.1340 C   0  0  0  0  0  0  0  0  0  0  0  0
  181.9760  178.6000  142.3210 C   0  0  2  0  0  3  0  0  0  0  0  0
  181.5880  178.6780  139.8330 C   0  0  1  0  0  3  0  0  0  0  0  0
  180.5800  177.8520  137.7990 O   0  0  0  0  0  1  0  0  0  0  0  0
  179.5400  177.9150  142.1290 N   0  0  0  0  0  2  0  0  0  0  0  0
  182.4020  178.2610  140.9800 N   0  0  1  0  0  0  0  0  0  0  0  0
  181.5490  180.0850  137.8510 O   0  0  0  0  0  0  0  0  0  0  0  0
  182.3420  179.6700  138.9380 C   0  0  1  0  0  0  0  0  0  0  0  0
  181.7940  181.0450  138.8510 C   0  0  0  0  0  2  0  0  0  0  0  0
  183.7800  179.3910  138.4920 C   0  0  0  0  0  2  0  0  0  0  0  0
  183.8670  178.4480  137.2960 C   0  0  0  0  0  2  0  0  0  0  0  0
  184.7680  177.4130  137.5550 O   0  0  0  0  0  0  0  0  0  0  0  0
  184.2920  176.3290  136.8220 C   0  0  0  0  0  2  0  0  0  0  0  0
  185.0580  175.1360  137.1700 N   0  0  0  0  0  2  0  0  0  0  0  0
  182.9330  174.1340  136.9980 O   0  0  0  0  0  1  0  0  0  0  0  0
  184.1660  174.0800  137.6530 C   0  0  1  0  0  3  0  0  0  0  0  0
  184.7860  172.6920  137.5070 C   0  0  0  0  0  2  0  0  0  0  0  0
  184.9820  171.2070  135.6160 N   0  0  0  0  0  2  0  0  0  0  0  0
  185.1110  172.3960  136.0780 C   0  0  0  0  0  3  0  0  0  0  0  0
  187.0340  177.3290  144.2240 C   0  0  0  0  0  0  0  0  0  0  0  0
  187.8550  176.5910  143.7420 C   0  0  0  0  0  3  0  0  0  0  0  0
  1  7  2  0  0  0  0
  2  3  1  0  0  0  0
  3  6  2  0  0  0  0
  4 14  1  0  0  0  0
  5 21  1  0  0  0  0
  8 16  1  6  0  0  0
  8  5  1  0  0  0  0
  9 17  2  0  0  0  0
 10 20  1  6  0  0  0
 10 19  1  0  0  0  0
 10  8  1  0  0  0  0
 11  9  1  0  0  0  0
 12  4  1  0  0  0  0
 13  2  2  0  0  0  0
 13 17  1  0  0  0  0
 14 11  2  0  0  0  0
 14 13  1  0  0  0  0
 15 10  1  0  0  0  0
 17  6  1  0  0  0  0
 18  1  1  6  0  0  0
 18 11  1  0  0  0  0
 19 24  1  6  0  0  0
 19 22  1  0  0  0  0
 21  1  1  0  0  0  0
 22 12  1  6  0  0  0
 22 18  1  0  0  0  0
 23 25  1  0  0  0  0
 23 24  1  0  0  0  0
 24 26  1  6  0  0  0
 25 24  1  0  0  0  0
 27 28  1  0  0  0  0
 27 26  1  0  0  0  0
 29 30  1  0  0  0  0
 29 28  1  0  0  0  0
 30 32  1  0  0  0  0
 32 31  1  6  0  0  0
 33 32  1  0  0  0  0
 34 35  2  0  0  0  0
 35 33  1  0  0  0  0
 36  2  1  0  0  0  0
 37 36  3  0  0  0  0
M  END
>  <MODEL>
2

>  <REMARK>
 VINA RESULT:      -6.7      2.150      2.978
  Name = 
  10 active torsions:
  status: ('A' for Active; 'I' for Inactive)
    1  A    between atoms: O_3  and  C_11
    2  A    between atoms: O_3  and  C_22
    3  A    between atoms: N_4  and  C_11
    4  A    between atoms: N_4  and  C_36
    5  A    between atoms: C_5  and  C_7
    6  A    between atoms: C_14  and  C_36
    7  A    between atoms: C_14  and  C_37
    8  A    between atoms: C_22  and  C_29
    9  A    between atoms: C_29  and  C_32
   10  A    between atoms: C_30  and  C_32
                            x       y       z     vdW  Elec       q    Type
                         _______ _______ _______ _____ _____    ______ ____

>  <TORSDO>
F 10

$$$$
=
 OpenBabel11042411573D

 37 41  0  0  1  0  0  0  0  0999 V2000
  179.8130  177.9660  141.6160 C   0  0  0  0  0  0  0  0  0  0  0  0
  185.2180  178.6590  143.9920 C   0  0  0  0  0  0  0  0  0  0  0  0
  184.8170  178.8780  145.4030 C   0  0  0  0  0  3  0  0  0  0  0  0
  184.1230  177.7830  141.0120 C   0  0  0  0  0  2  0  0  0  0  0  0
  179.5470  175.6920  140.4980 C   0  0  0  0  0  2  0  0  0  0  0  0
  183.5520  179.1900  145.5000 N   0  0  0  0  0  0  0  0  0  0  0  0
  179.2650  178.8900  142.2740 O   0  0  0  0  0  0  0  0  0  0  0  0
  179.3520  175.8300  138.9950 C   0  0  1  0  0  3  0  0  0  0  0  0
  181.8840  178.8650  143.6940 C   0  0  0  0  0  3  0  0  0  0  0  0
  180.5930  176.3780  138.2680 C   0  0  2  0  0  0  0  0  0  0  0  0
  182.1320  178.4170  142.3010 C   0  0  0  0  0  0  0  0  0  0  0  0
  183.2200  177.1430  139.9820 C   0  0  0  0  0  2  0  0  0  0  0  0
  184.1470  178.9130  143.2680 C   0  0  0  0  0  0  0  0  0  0  0  0
  183.5670  178.3630  142.0680 C   0  0  0  0  0  0  0  0  0  0  0  0
  181.6350  175.4690  138.3640 F   0  0  0  0  0  0  0  0  0  0  0  0
  178.9320  174.4840  138.4270 C   0  0  0  0  0  1  0  0  0  0  0  0
  183.0880  179.2050  144.1610 C   0  0  0  0  0  0  0  0  0  0  0  0
  181.2700  178.0090  141.3620 C   0  0  2  0  0  3  0  0  0  0  0  0
  181.0040  177.7450  138.8710 C   0  0  1  0  0  3  0  0  0  0  0  0
  180.2690  176.5310  136.9160 O   0  0  0  0  0  1  0  0  0  0  0  0
  179.0120  176.8650  141.1750 N   0  0  0  0  0  2  0  0  0  0  0  0
  181.8200  177.6130  140.0830 N   0  0  1  0  0  0  0  0  0  0  0  0
  180.6520  179.7000  137.4700 O   0  0  0  0  0  0  0  0  0  0  0  0
  181.6100  178.7580  137.8910 C   0  0  1  0  0  0  0  0  0  0  0  0
  181.6590  180.1720  138.3340 C   0  0  0  0  0  2  0  0  0  0  0  0
  182.4770  178.2950  136.7170 C   0  0  0  0  0  2  0  0  0  0  0  0
  183.9250  178.0200  137.1090 C   0  0  0  0  0  2  0  0  0  0  0  0
  184.4270  176.9320  136.3920 O   0  0  0  0  0  0  0  0  0  0  0  0
  185.8070  176.9880  136.5710 C   0  0  0  0  0  2  0  0  0  0  0  0
  186.1160  177.9110  137.6590 N   0  0  0  0  0  2  0  0  0  0  0  0
  187.7980  178.4780  139.2080 O   0  0  0  0  0  1  0  0  0  0  0  0
  187.5450  177.8610  137.9800 C   0  0  1  0  0  3  0  0  0  0  0  0
  188.0850  176.4340  137.9790 C   0  0  0  0  0  2  0  0  0  0  0  0
  190.3560  175.7640  138.4420 N   0  0  0  0  0  2  0  0  0  0  0  0
  189.5510  176.4130  137.6850 C   0  0  0  0  0  3  0  0  0  0  0  0
  186.3690  177.9170  143.5560 C   0  0  0  0  0  0  0  0  0  0  0  0
  187.3350  177.2970  143.1870 C   0  0  0  0  0  3  0  0  0  0  0  0
  1  7  2  0  0  0  0
  2  3  1  0  0  0  0
  3  6  2  0  0  0  0
  4 14  1  0  0  0  0
  5 21  1  0  0  0  0
  8 16  1  6  0  0  0
  8  5  1  0  0  0  0
  9 17  2  0  0  0  0
 10 20  1  6  0  0  0
 10 15  1  0  0  0  0
 10 19  1  0  0  0  0
 10  8  1  0  0  0  0
 11  9  1  0  0  0  0
 12  4  1  0  0  0  0
 13  2  2  0  0  0  0
 13 17  1  0  0  0  0
 14 11  2  0  0  0  0
 14 13  1  0  0  0  0
 17  6  1  0  0  0  0
 18  1  1  6  0  0  0
 18 11  1  0  0  0  0
 19 24  1  6  0  0  0
 19 22  1  0  0  0  0
 21  1  1  0  0  0  0
 22 12  1  6  0  0  0
 22 18  1  0  0  0  0
 23 24  1  0  0  0  0
 23 25  1  0  0  0  0
 24 26  1  6  0  0  0
 24 25  1  0  0  0  0
 26 27  1  0  0  0  0
 28 29  1  0  0  0  0
 28 27  1  0  0  0  0
 29 30  1  0  0  0  0
 30 32  1  0  0  0  0
 32 31  1  1  0  0  0
 33 32  1  0  0  0  0
 35 33  1  0  0  0  0
 35 34  2  0  0  0  0
 36  2  1  0  0  0  0
 37 36  3  0  0  0  0
M  END
>  <MODEL>
3

>  <REMARK>
 VINA RESULT:      -6.7      1.436      1.642
  Name = 
  10 active torsions:
  status: ('A' for Active; 'I' for Inactive)
    1  A    between atoms: O_3  and  C_11
    2  A    between atoms: O_3  and  C_22
    3  A    between atoms: N_4  and  C_11
    4  A    between atoms: N_4  and  C_36
    5  A    between atoms: C_5  and  C_7
    6  A    between atoms: C_14  and  C_36
    7  A    between atoms: C_14  and  C_37
    8  A    between atoms: C_22  and  C_29
    9  A    between atoms: C_29  and  C_32
   10  A    between atoms: C_30  and  C_32
                            x       y       z     vdW  Elec       q    Type
                         _______ _______ _______ _____ _____    ______ ____

>  <TORSDO>
F 10

$$$$
=
 OpenBabel11042411573D

 37 41  0  0  1  0  0  0  0  0999 V2000
  181.5660  177.9440  136.3240 C   0  0  0  0  0  0  0  0  0  0  0  0
  187.3770  176.9050  137.0220 C   0  0  0  0  0  0  0  0  0  0  0  0
  187.6540  176.2840  135.7040 C   0  0  0  0  0  3  0  0  0  0  0  0
  185.1110  178.5110  138.7910 C   0  0  0  0  0  2  0  0  0  0  0  0
  181.0080  180.4210  136.5350 C   0  0  0  0  0  2  0  0  0  0  0  0
  186.5560  175.8920  135.1160 N   0  0  0  0  0  0  0  0  0  0  0  0
  181.3070  176.8470  135.7620 O   0  0  0  0  0  0  0  0  0  0  0  0
  180.1320  180.6930  137.7490 C   0  0  1  0  0  3  0  0  0  0  0  0
  184.2770  176.6150  135.7770 C   0  0  0  0  0  3  0  0  0  0  0  0
  180.8460  180.4320  139.0870 C   0  0  2  0  0  0  0  0  0  0  0  0
  183.8920  177.4430  136.9470 C   0  0  0  0  0  0  0  0  0  0  0  0
  183.8930  179.3620  139.0690 C   0  0  0  0  0  2  0  0  0  0  0  0
  186.0750  176.8050  137.2020 C   0  0  0  0  0  0  0  0  0  0  0  0
  185.0570  177.6340  137.7970 C   0  0  0  0  0  0  0  0  0  0  0  0
  181.8880  181.3330  139.2470 F   0  0  0  0  0  0  0  0  0  0  0  0
  179.6120  182.1200  137.6720 C   0  0  0  0  0  1  0  0  0  0  0  0
  185.5270  176.2230  136.0340 C   0  0  0  0  0  0  0  0  0  0  0  0
  182.7330  178.0490  137.2290 C   0  0  2  0  0  3  0  0  0  0  0  0
  181.3710  178.9760  139.1360 C   0  0  1  0  0  3  0  0  0  0  0  0
  179.9250  180.6420  140.1180 O   0  0  0  0  0  1  0  0  0  0  0  0
  180.7480  179.0800  136.0290 N   0  0  0  0  0  2  0  0  0  0  0  0
  182.6620  178.8100  138.4580 N   0  0  1  0  0  0  0  0  0  0  0  0
  180.0590  178.0510  140.9610 O   0  0  0  0  0  0  0  0  0  0  0  0
  181.3700  178.3050  140.5150 C   0  0  1  0  0  0  0  0  0  0  0  0
  180.8250  176.9280  140.5910 C   0  0  0  0  0  2  0  0  0  0  0  0
  182.2400  178.8460  141.6540 C   0  0  0  0  0  2  0  0  0  0  0  0
  181.4470  179.1690  142.9160 C   0  0  0  0  0  2  0  0  0  0  0  0
  182.0340  178.5640  144.0290 O   0  0  0  0  0  0  0  0  0  0  0  0
  183.2380  179.2400  144.2130 C   0  0  0  0  0  2  0  0  0  0  0  0
  183.7510  178.9590  145.5500 N   0  0  0  0  0  2  0  0  0  0  0  0
  185.6370  179.4230  146.8840 O   0  0  0  0  0  1  0  0  0  0  0  0
  185.2050  179.1340  145.5860 C   0  0  1  0  0  3  0  0  0  0  0  0
  185.9450  177.9170  145.0370 C   0  0  0  0  0  2  0  0  0  0  0  0
  188.2850  177.3540  144.8710 N   0  0  0  0  0  2  0  0  0  0  0  0
  187.3360  177.8420  145.5810 C   0  0  0  0  0  3  0  0  0  0  0  0
  188.2550  177.7970  137.7270 C   0  0  0  0  0  0  0  0  0  0  0  0
  188.9950  178.5460  138.3150 C   0  0  0  0  0  3  0  0  0  0  0  0
  2 13  1  0  0  0  0
  2 36  1  0  0  0  0
  3  2  2  0  0  0  0
  4 12  1  0  0  0  0
  5  8  1  0  0  0  0
  6  3  1  0  0  0  0
  6 17  2  0  0  0  0
  7  1  2  0  0  0  0
  8 16  1  1  0  0  0
  8 10  1  0  0  0  0
  9 17  1  0  0  0  0
  9 11  2  0  0  0  0
 10 19  1  0  0  0  0
 10 15  1  1  0  0  0
 10 20  1  0  0  0  0
 11 18  1  0  0  0  0
 11 14  1  0  0  0  0
 13 14  2  0  0  0  0
 14  4  1  0  0  0  0
 17 13  1  0  0  0  0
 18  1  1  1  0  0  0
 18 22  1  0  0  0  0
 19 24  1  1  0  0  0
 21  1  1  0  0  0  0
 21  5  1  0  0  0  0
 22 12  1  1  0  0  0
 22 19  1  0  0  0  0
 24 25  1  0  0  0  0
 24 23  1  0  0  0  0
 24 26  1  1  0  0  0
 25 23  1  0  0  0  0
 26 27  1  0  0  0  0
 27 28  1  0  0  0  0
 28 29  1  0  0  0  0
 29 30  1  0  0  0  0
 30 32  1  0  0  0  0
 32 31  1  1  0  0  0
 33 35  1  0  0  0  0
 33 32  1  0  0  0  0
 34 35  2  0  0  0  0
 36 37  3  0  0  0  0
M  END
>  <MODEL>
4

>  <REMARK>
 VINA RESULT:      -6.6      2.664      6.481
  Name = 
  10 active torsions:
  status: ('A' for Active; 'I' for Inactive)
    1  A    between atoms: O_3  and  C_11
    2  A    between atoms: O_3  and  C_22
    3  A    between atoms: N_4  and  C_11
    4  A    between atoms: N_4  and  C_36
    5  A    between atoms: C_5  and  C_7
    6  A    between atoms: C_14  and  C_36
    7  A    between atoms: C_14  and  C_37
    8  A    between atoms: C_22  and  C_29
    9  A    between atoms: C_29  and  C_32
   10  A    between atoms: C_30  and  C_32
                            x       y       z     vdW  Elec       q    Type
                         _______ _______ _______ _____ _____    ______ ____

>  <TORSDO>
F 10

$$$$
=
 OpenBabel11042411573D

 37 41  0  0  1  0  0  0  0  0999 V2000
  188.9700  174.4120  137.1330 C   0  0  0  0  0  0  0  0  0  0  0  0
  194.8010  174.0470  136.0390 C   0  0  0  0  0  0  0  0  0  0  0  0
  194.7940  172.8410  135.1770 C   0  0  0  0  0  3  0  0  0  0  0  0
  192.8870  176.2750  137.5300 C   0  0  0  0  0  2  0  0  0  0  0  0
  187.9860  176.6230  136.3330 C   0  0  0  0  0  2  0  0  0  0  0  0
  193.6790  172.1710  135.2970 N   0  0  0  0  0  0  0  0  0  0  0  0
  188.7930  173.1750  137.2980 O   0  0  0  0  0  0  0  0  0  0  0  0
  187.4800  177.4600  137.4990 C   0  0  1  0  0  3  0  0  0  0  0  0
  191.6070  173.0680  136.3240 C   0  0  0  0  0  3  0  0  0  0  0  0
  188.6040  177.9510  138.4290 C   0  0  2  0  0  0  0  0  0  0  0  0
  191.4260  174.3720  137.0100 C   0  0  0  0  0  0  0  0  0  0  0  0
  191.6580  177.1120  137.7970 C   0  0  0  0  0  2  0  0  0  0  0  0
  193.6680  174.0200  136.7110 C   0  0  0  0  0  0  0  0  0  0  0  0
  192.7240  175.0080  137.1700 C   0  0  0  0  0  0  0  0  0  0  0  0
  189.4280  178.8330  137.7460 F   0  0  0  0  0  0  0  0  0  0  0  0
  186.6700  178.6250  136.9530 C   0  0  0  0  0  1  0  0  0  0  0  0
  192.9300  172.9010  136.2540 C   0  0  0  0  0  0  0  0  0  0  0  0
  190.3050  175.0030  137.3760 C   0  0  2  0  0  3  0  0  0  0  0  0
  189.4180  176.7460  138.9640 C   0  0  1  0  0  3  0  0  0  0  0  0
  188.0140  178.6390  139.4940 O   0  0  0  0  0  1  0  0  0  0  0  0
  187.8780  175.2070  136.6600 N   0  0  0  0  0  2  0  0  0  0  0  0
  190.4480  176.2900  138.0240 N   0  0  1  0  0  0  0  0  0  0  0  0
  191.1320  176.1050  140.5630 O   0  0  0  0  0  0  0  0  0  0  0  0
  189.9760  176.8890  140.3860 C   0  0  1  0  0  0  0  0  0  0  0  0
  191.3200  177.5010  140.5200 C   0  0  0  0  0  2  0  0  0  0  0  0
  189.0560  176.7910  141.6060 C   0  0  0  0  0  2  0  0  0  0  0  0
  189.6720  176.0100  142.7630 C   0  0  0  0  0  2  0  0  0  0  0  0
  190.0500  176.8770  143.7900 O   0  0  0  0  0  0  0  0  0  0  0  0
  188.8570  177.4170  144.2630 C   0  0  0  0  0  2  0  0  0  0  0  0
  188.9320  177.5560  145.7150 N   0  0  0  0  0  2  0  0  0  0  0  0
  187.5450  178.1770  147.5150 O   0  0  0  0  0  1  0  0  0  0  0  0
  187.5930  177.4800  146.3040 C   0  0  1  0  0  3  0  0  0  0  0  0
  186.5150  177.9920  145.3520 C   0  0  0  0  0  2  0  0  0  0  0  0
  184.5450  178.6260  146.5920 N   0  0  0  0  0  2  0  0  0  0  0  0
  185.6340  178.9940  146.0250 C   0  0  0  0  0  3  0  0  0  0  0  0
  195.6400  175.2000  135.8560 C   0  0  0  0  0  0  0  0  0  0  0  0
  196.3410  176.1690  135.7060 C   0  0  0  0  0  3  0  0  0  0  0  0
  1  7  2  0  0  0  0
  1 18  1  0  0  0  0
  2 13  1  0  0  0  0
  3  6  1  0  0  0  0
  3  2  2  0  0  0  0
  4 12  1  0  0  0  0
  5 21  1  0  0  0  0
  5  8  1  0  0  0  0
  6 17  2  0  0  0  0
  8 16  1  6  0  0  0
  8 10  1  0  0  0  0
  9 11  2  0  0  0  0
 10 15  1  6  0  0  0
 10 19  1  0  0  0  0
 10 20  1  0  0  0  0
 11 14  1  0  0  0  0
 13 14  2  0  0  0  0
 14  4  1  0  0  0  0
 17  9  1  0  0  0  0
 17 13  1  0  0  0  0
 18 11  1  1  0  0  0
 18 22  1  0  0  0  0
 19 24  1  1  0  0  0
 21  1  1  0  0  0  0
 22 12  1  1  0  0  0
 22 19  1  0  0  0  0
 24 25  1  0  0  0  0
 24 23  1  0  0  0  0
 24 26  1  1  0  0  0
 25 23  1  0  0  0  0
 26 27  1  0  0  0  0
 27 28  1  0  0  0  0
 28 29  1  0  0  0  0
 29 30  1  0  0  0  0
 30 32  1  0  0  0  0
 32 31  1  1  0  0  0
 33 35  1  0  0  0  0
 33 32  1  0  0  0  0
 35 34  2  0  0  0  0
 36  2  1  0  0  0  0
 37 36  3  0  0  0  0
M  END
>  <MODEL>
5

>  <REMARK>
 VINA RESULT:      -5.7      4.859     10.083
  Name = 
  10 active torsions:
  status: ('A' for Active; 'I' for Inactive)
    1  A    between atoms: O_3  and  C_11
    2  A    between atoms: O_3  and  C_22
    3  A    between atoms: N_4  and  C_11
    4  A    between atoms: N_4  and  C_36
    5  A    between atoms: C_5  and  C_7
    6  A    between atoms: C_14  and  C_36
    7  A    between atoms: C_14  and  C_37
    8  A    between atoms: C_22  and  C_29
    9  A    between atoms: C_29  and  C_32
   10  A    between atoms: C_30  and  C_32
                            x       y       z     vdW  Elec       q    Type
                         _______ _______ _______ _____ _____    ______ ____

>  <TORSDO>
F 10

$$$$
=
 OpenBabel11042411573D

 37 41  0  0  1  0  0  0  0  0999 V2000
  188.9470  174.3400  136.9700 C   0  0  0  0  0  0  0  0  0  0  0  0
  194.7770  173.6370  136.0500 C   0  0  0  0  0  0  0  0  0  0  0  0
  194.7310  172.3840  135.2600 C   0  0  0  0  0  3  0  0  0  0  0  0
  192.9390  176.0370  137.3590 C   0  0  0  0  0  2  0  0  0  0  0  0
  188.0900  176.5430  136.0190 C   0  0  0  0  0  2  0  0  0  0  0  0
  193.5830  171.7760  135.3900 N   0  0  0  0  0  0  0  0  0  0  0  0
  188.7070  173.1250  137.2020 O   0  0  0  0  0  0  0  0  0  0  0  0
  187.5990  177.4710  137.1210 C   0  0  1  0  0  3  0  0  0  0  0  0
  191.5340  172.8280  136.3090 C   0  0  0  0  0  3  0  0  0  0  0  0
  188.7230  177.9630  138.0490 C   0  0  2  0  0  0  0  0  0  0  0  0
  191.4000  174.1770  136.9130 C   0  0  0  0  0  0  0  0  0  0  0  0
  191.7460  176.9460  137.5460 C   0  0  0  0  0  2  0  0  0  0  0  0
  193.6290  173.7030  136.6930 C   0  0  0  0  0  0  0  0  0  0  0  0
  192.7240  174.7600  137.0700 C   0  0  0  0  0  0  0  0  0  0  0  0
  189.6040  178.7630  137.3380 F   0  0  0  0  0  0  0  0  0  0  0  0
  186.8580  178.6390  136.4870 C   0  0  0  0  0  1  0  0  0  0  0  0
  192.8480  172.5960  136.2830 C   0  0  0  0  0  0  0  0  0  0  0  0
  190.3030  174.8810  137.2130 C   0  0  2  0  0  3  0  0  0  0  0  0
  189.4650  176.7550  138.6740 C   0  0  1  0  0  3  0  0  0  0  0  0
  188.1430  178.7400  139.0580 O   0  0  0  0  0  1  0  0  0  0  0  0
  187.9060  175.1560  136.4240 N   0  0  0  0  0  2  0  0  0  0  0  0
  190.4930  176.1950  137.7890 N   0  0  1  0  0  0  0  0  0  0  0  0
  191.0130  176.0290  140.4020 O   0  0  0  0  0  0  0  0  0  0  0  0
  189.9970  176.9550  140.0990 C   0  0  1  0  0  0  0  0  0  0  0  0
  191.4140  177.3680  140.2340 C   0  0  0  0  0  2  0  0  0  0  0  0
  189.0370  177.1200  141.2810 C   0  0  0  0  0  2  0  0  0  0  0  0
  189.4860  176.3680  142.5310 C   0  0  0  0  0  2  0  0  0  0  0  0
  188.3880  176.0670  143.3390 O   0  0  0  0  0  0  0  0  0  0  0  0
  188.1240  177.2410  144.0400 C   0  0  0  0  0  2  0  0  0  0  0  0
  189.3180  177.6440  144.7760 N   0  0  0  0  0  2  0  0  0  0  0  0
  187.7990  177.1260  146.5000 O   0  0  0  0  0  1  0  0  0  0  0  0
  189.0340  177.7130  146.2110 C   0  0  1  0  0  3  0  0  0  0  0  0
  190.1380  177.0710  147.0470 C   0  0  0  0  0  2  0  0  0  0  0  0
  192.1190  175.7950  146.5310 N   0  0  0  0  0  2  0  0  0  0  0  0
  191.3350  176.7560  146.2080 C   0  0  0  0  0  3  0  0  0  0  0  0
  195.6750  174.7370  135.8230 C   0  0  0  0  0  0  0  0  0  0  0  0
  196.4250  175.6600  135.6290 C   0  0  0  0  0  3  0  0  0  0  0  0
  1  7  2  0  0  0  0
  1 18  1  0  0  0  0
  2 13  1  0  0  0  0
  3  6  1  0  0  0  0
  3  2  2  0  0  0  0
  4 12  1  0  0  0  0
  5 21  1  0  0  0  0
  5  8  1  0  0  0  0
  6 17  2  0  0  0  0
  8 16  1  6  0  0  0
  8 10  1  0  0  0  0
  9 11  2  0  0  0  0
 10 15  1  6  0  0  0
 10 19  1  0  0  0  0
 10 20  1  0  0  0  0
 11 14  1  0  0  0  0
 13 14  2  0  0  0  0
 14  4  1  0  0  0  0
 17  9  1  0  0  0  0
 17 13  1  0  0  0  0
 18 11  1  1  0  0  0
 18 22  1  0  0  0  0
 19 24  1  1  0  0  0
 21  1  1  0  0  0  0
 22 12  1  1  0  0  0
 22 19  1  0  0  0  0
 24 25  1  0  0  0  0
 24 23  1  0  0  0  0
 24 26  1  1  0  0  0
 25 23  1  0  0  0  0
 26 27  1  0  0  0  0
 27 28  1  0  0  0  0
 28 29  1  0  0  0  0
 29 30  1  0  0  0  0
 30 32  1  0  0  0  0
 32 31  1  6  0  0  0
 32 33  1  0  0  0  0
 35 34  2  0  0  0  0
 35 33  1  0  0  0  0
 36  2  1  0  0  0  0
 37 36  3  0  0  0  0
M  END
>  <MODEL>
6

>  <REMARK>
 VINA RESULT:      -5.7      5.509     10.050
  Name = 
  10 active torsions:
  status: ('A' for Active; 'I' for Inactive)
    1  A    between atoms: O_3  and  C_11
    2  A    between atoms: O_3  and  C_22
    3  A    between atoms: N_4  and  C_11
    4  A    between atoms: N_4  and  C_36
    5  A    between atoms: C_5  and  C_7
    6  A    between atoms: C_14  and  C_36
    7  A    between atoms: C_14  and  C_37
    8  A    between atoms: C_22  and  C_29
    9  A    between atoms: C_29  and  C_32
   10  A    between atoms: C_30  and  C_32
                            x       y       z     vdW  Elec       q    Type
                         _______ _______ _______ _____ _____    ______ ____

>  <TORSDO>
F 10

$$$$
=
 OpenBabel11042411573D

 37 41  0  0  1  0  0  0  0  0999 V2000
  179.9400  176.0140  137.8450 C   0  0  0  0  0  0  0  0  0  0  0  0
  181.2270  179.2320  142.6740 C   0  0  0  0  0  0  0  0  0  0  0  0
  179.8500  179.4290  143.1870 C   0  0  0  0  0  3  0  0  0  0  0  0
  183.0410  177.6170  140.4500 C   0  0  0  0  0  2  0  0  0  0  0  0
  181.0620  173.7270  137.8960 C   0  0  0  0  0  2  0  0  0  0  0  0
  178.9550  179.1800  142.2690 N   0  0  0  0  0  0  0  0  0  0  0  0
  178.9310  176.6880  137.5070 O   0  0  0  0  0  0  0  0  0  0  0  0
  182.0870  173.5850  136.7790 C   0  0  1  0  0  3  0  0  0  0  0  0
  179.4110  177.9570  140.1600 C   0  0  0  0  0  3  0  0  0  0  0  0
  183.3000  174.5170  136.9440 C   0  0  2  0  0  0  0  0  0  0  0  0
  180.7250  177.4920  139.6480 C   0  0  0  0  0  0  0  0  0  0  0  0
  183.4140  176.5330  139.4640 C   0  0  0  0  0  2  0  0  0  0  0  0
  181.0980  178.9140  141.4020 C   0  0  0  0  0  0  0  0  0  0  0  0
  181.7800  178.0280  140.4920 C   0  0  0  0  0  0  0  0  0  0  0  0
  184.0190  174.1590  138.0740 F   0  0  0  0  0  0  0  0  0  0  0  0
  182.5190  172.1300  136.6900 C   0  0  0  0  0  1  0  0  0  0  0  0
  179.7130  178.8320  141.1220 C   0  0  0  0  0  0  0  0  0  0  0  0
  181.0080  176.6440  138.6520 C   0  0  2  0  0  3  0  0  0  0  0  0
  182.8310  175.9910  137.0400 C   0  0  1  0  0  3  0  0  0  0  0  0
  184.1280  174.3520  135.8290 O   0  0  0  0  0  1  0  0  0  0  0  0
  180.0000  174.6330  137.4780 N   0  0  0  0  0  2  0  0  0  0  0  0
  182.4060  176.3680  138.3920 N   0  0  1  0  0  0  0  0  0  0  0  0
  184.0430  176.7620  135.0790 O   0  0  0  0  0  0  0  0  0  0  0  0
  183.7730  177.0390  136.4330 C   0  0  1  0  0  0  0  0  0  0  0  0
  183.2260  177.8790  135.3410 C   0  0  0  0  0  2  0  0  0  0  0  0
  185.0450  177.4720  137.1680 C   0  0  0  0  0  2  0  0  0  0  0  0
  186.2990  176.7600  136.6710 C   0  0  0  0  0  2  0  0  0  0  0  0
  187.2290  176.6320  137.7050 O   0  0  0  0  0  0  0  0  0  0  0  0
  187.9870  177.8000  137.6530 C   0  0  0  0  0  2  0  0  0  0  0  0
  187.8270  178.5360  138.9030 N   0  0  0  0  0  2  0  0  0  0  0  0
  189.9410  177.8770  139.7060 O   0  0  0  0  0  1  0  0  0  0  0  0
  188.5700  177.8810  139.9810 C   0  0  1  0  0  3  0  0  0  0  0  0
  188.3020  178.5240  141.3390 C   0  0  0  0  0  2  0  0  0  0  0  0
  189.0590  177.8580  143.5310 N   0  0  0  0  0  2  0  0  0  0  0  0
  188.4600  177.5310  142.4460 C   0  0  0  0  0  3  0  0  0  0  0  0
  182.3950  179.0050  143.4810 C   0  0  0  0  0  0  0  0  0  0  0  0
  183.3720  178.8140  144.1600 C   0  0  0  0  0  3  0  0  0  0  0  0
  2  3  1  0  0  0  0
  2 36  1  0  0  0  0
  4 14  1  0  0  0  0
  6  3  2  0  0  0  0
  7  1  2  0  0  0  0
  8 16  1  1  0  0  0
  8 10  1  0  0  0  0
  8  5  1  0  0  0  0
  9 17  2  0  0  0  0
 10 20  1  6  0  0  0
 10 19  1  0  0  0  0
 10 15  1  0  0  0  0
 11  9  1  0  0  0  0
 11 14  2  0  0  0  0
 12  4  1  0  0  0  0
 13  2  2  0  0  0  0
 14 13  1  0  0  0  0
 17 13  1  0  0  0  0
 17  6  1  0  0  0  0
 18  1  1  6  0  0  0
 18 11  1  0  0  0  0
 19 24  1  1  0  0  0
 19 22  1  0  0  0  0
 21  1  1  0  0  0  0
 21  5  1  0  0  0  0
 22 18  1  0  0  0  0
 22 12  1  6  0  0  0
 23 25  1  0  0  0  0
 23 24  1  0  0  0  0
 24 26  1  1  0  0  0
 25 24  1  0  0  0  0
 27 26  1  0  0  0  0
 27 28  1  0  0  0  0
 29 28  1  0  0  0  0
 29 30  1  0  0  0  0
 30 32  1  0  0  0  0
 32 31  1  6  0  0  0
 32 33  1  0  0  0  0
 33 35  1  0  0  0  0
 35 34  2  0  0  0  0
 36 37  3  0  0  0  0
M  END
>  <MODEL>
7

>  <REMARK>
 VINA RESULT:      -5.5      2.514      4.383
  Name = 
  10 active torsions:
  status: ('A' for Active; 'I' for Inactive)
    1  A    between atoms: O_3  and  C_11
    2  A    between atoms: O_3  and  C_22
    3  A    between atoms: N_4  and  C_11
    4  A    between atoms: N_4  and  C_36
    5  A    between atoms: C_5  and  C_7
    6  A    between atoms: C_14  and  C_36
    7  A    between atoms: C_14  and  C_37
    8  A    between atoms: C_22  and  C_29
    9  A    between atoms: C_29  and  C_32
   10  A    between atoms: C_30  and  C_32
                            x       y       z     vdW  Elec       q    Type
                         _______ _______ _______ _____ _____    ______ ____

>  <TORSDO>
F 10

$$$$
=
 OpenBabel11042411573D

 37 41  0  0  1  0  0  0  0  0999 V2000
  188.4530  174.0380  136.9870 C   0  0  0  0  0  0  0  0  0  0  0  0
  194.2360  174.7300  135.8010 C   0  0  0  0  0  0  0  0  0  0  0  0
  194.5070  173.3950  135.2150 C   0  0  0  0  0  3  0  0  0  0  0  0
  191.8570  176.7520  136.8490 C   0  0  0  0  0  2  0  0  0  0  0  0
  187.0180  175.7570  135.7710 C   0  0  0  0  0  2  0  0  0  0  0  0
  193.5660  172.5400  135.5130 N   0  0  0  0  0  0  0  0  0  0  0  0
  188.5510  172.8580  137.4170 O   0  0  0  0  0  0  0  0  0  0  0  0
  186.3230  176.6930  136.7490 C   0  0  1  0  0  3  0  0  0  0  0  0
  191.3330  173.1610  136.3940 C   0  0  0  0  0  3  0  0  0  0  0  0
  187.2970  177.6060  137.5150 C   0  0  2  0  0  0  0  0  0  0  0  0
  190.8590  174.5100  136.7940 C   0  0  0  0  0  0  0  0  0  0  0  0
  190.4690  177.3380  136.9740 C   0  0  0  0  0  2  0  0  0  0  0  0
  193.1270  174.6000  136.5010 C   0  0  0  0  0  0  0  0  0  0  0  0
  191.9820  175.4340  136.7720 C   0  0  0  0  0  0  0  0  0  0  0  0
  187.9160  178.4790  136.6340 F   0  0  0  0  0  0  0  0  0  0  0  0
  185.2830  177.5080  135.9960 C   0  0  0  0  0  1  0  0  0  0  0  0
  192.6610  173.2770  136.3170 C   0  0  0  0  0  0  0  0  0  0  0  0
  189.6210  174.9450  137.0550 C   0  0  2  0  0  3  0  0  0  0  0  0
  188.3490  176.7510  138.2660 C   0  0  1  0  0  3  0  0  0  0  0  0
  186.5550  178.3600  138.4290 O   0  0  0  0  0  1  0  0  0  0  0  0
  187.2200  174.4550  136.3940 N   0  0  0  0  0  2  0  0  0  0  0  0
  189.4670  176.3400  137.4100 N   0  0  1  0  0  0  0  0  0  0  0  0
  189.0270  178.7070  139.5390 O   0  0  0  0  0  0  0  0  0  0  0  0
  188.8420  177.3130  139.6060 C   0  0  1  0  0  0  0  0  0  0  0  0
  187.9390  178.2540  140.3110 C   0  0  0  0  0  2  0  0  0  0  0  0
  189.9920  176.6440  140.3640 C   0  0  0  0  0  2  0  0  0  0  0  0
  191.2510  177.5030  140.4290 C   0  0  0  0  0  2  0  0  0  0  0  0
  191.9590  177.2410  141.6030 O   0  0  0  0  0  0  0  0  0  0  0  0
  190.9930  177.2000  142.6060 C   0  0  0  0  0  2  0  0  0  0  0  0
  191.5040  176.4350  143.7390 N   0  0  0  0  0  2  0  0  0  0  0  0
  191.6740  177.1170  145.9870 O   0  0  0  0  0  1  0  0  0  0  0  0
  190.7810  176.7900  144.9620 C   0  0  1  0  0  3  0  0  0  0  0  0
  189.7920  177.9300  144.7350 C   0  0  0  0  0  2  0  0  0  0  0  0
  187.4360  177.5070  145.0410 N   0  0  0  0  0  2  0  0  0  0  0  0
  188.5710  177.7600  145.5810 C   0  0  0  0  0  3  0  0  0  0  0  0
  194.8030  175.9720  135.3500 C   0  0  0  0  0  0  0  0  0  0  0  0
  195.2740  177.0150  134.9730 C   0  0  0  0  0  3  0  0  0  0  0  0
  1 18  1  0  0  0  0
  1  7  2  0  0  0  0
  2 13  1  0  0  0  0
  3  6  1  0  0  0  0
  3  2  2  0  0  0  0
  4 12  1  0  0  0  0
  5 21  1  0  0  0  0
  5  8  1  0  0  0  0
  6 17  2  0  0  0  0
  8 16  1  6  0  0  0
  8 10  1  0  0  0  0
  9 11  2  0  0  0  0
 10 15  1  6  0  0  0
 10 19  1  0  0  0  0
 10 20  1  0  0  0  0
 13 14  2  0  0  0  0
 14 11  1  0  0  0  0
 14  4  1  0  0  0  0
 17  9  1  0  0  0  0
 17 13  1  0  0  0  0
 18 11  1  1  0  0  0
 18 22  1  0  0  0  0
 19 24  1  1  0  0  0
 21  1  1  0  0  0  0
 22 12  1  1  0  0  0
 22 19  1  0  0  0  0
 23 24  1  0  0  0  0
 23 25  1  0  0  0  0
 24 25  1  0  0  0  0
 24 26  1  1  0  0  0
 26 27  1  0  0  0  0
 27 28  1  0  0  0  0
 28 29  1  0  0  0  0
 29 30  1  0  0  0  0
 30 32  1  0  0  0  0
 32 31  1  1  0  0  0
 33 32  1  0  0  0  0
 33 35  1  0  0  0  0
 34 35  2  0  0  0  0
 36  2  1  0  0  0  0
 37 36  3  0  0  0  0
M  END
>  <MODEL>
8

>  <REMARK>
 VINA RESULT:      -5.4      4.877      9.391
  Name = 
  10 active torsions:
  status: ('A' for Active; 'I' for Inactive)
    1  A    between atoms: O_3  and  C_11
    2  A    between atoms: O_3  and  C_22
    3  A    between atoms: N_4  and  C_11
    4  A    between atoms: N_4  and  C_36
    5  A    between atoms: C_5  and  C_7
    6  A    between atoms: C_14  and  C_36
    7  A    between atoms: C_14  and  C_37
    8  A    between atoms: C_22  and  C_29
    9  A    between atoms: C_29  and  C_32
   10  A    between atoms: C_30  and  C_32
                            x       y       z     vdW  Elec       q    Type
                         _______ _______ _______ _____ _____    ______ ____

>  <TORSDO>
F 10

$$$$
=
 OpenBabel11042411573D

 37 41  0  0  1  0  0  0  0  0999 V2000
  183.8580  179.3930  139.0520 C   0  0  0  0  0  0  0  0  0  0  0  0
  186.2200  178.0300  144.3330 C   0  0  0  0  0  0  0  0  0  0  0  0
  187.6500  178.2370  144.0010 C   0  0  0  0  0  3  0  0  0  0  0  0
  183.1400  178.4320  143.2380 C   0  0  0  0  0  2  0  0  0  0  0  0
  182.2340  181.3510  139.2100 C   0  0  0  0  0  2  0  0  0  0  0  0
  187.8450  178.2580  142.7090 N   0  0  0  0  0  0  0  0  0  0  0  0
  184.7290  178.7960  138.3640 O   0  0  0  0  0  0  0  0  0  0  0  0
  180.8120  180.9220  138.8770 C   0  0  1  0  0  3  0  0  0  0  0  0
  186.0480  178.5380  141.0230 C   0  0  0  0  0  3  0  0  0  0  0  0
  180.2120  179.9500  139.9090 C   0  0  2  0  0  0  0  0  0  0  0  0
  184.5830  178.5870  141.2590 C   0  0  0  0  0  0  0  0  0  0  0  0
  182.0050  179.0110  142.4250 C   0  0  0  0  0  2  0  0  0  0  0  0
  185.5990  177.8720  143.1820 C   0  0  0  0  0  0  0  0  0  0  0  0
  184.3150  178.2530  142.6490 C   0  0  0  0  0  0  0  0  0  0  0  0
  180.0660  180.5910  141.1300 F   0  0  0  0  0  0  0  0  0  0  0  0
  179.9470  182.1620  138.7220 C   0  0  0  0  0  1  0  0  0  0  0  0
  186.5580  178.0450  142.1540 C   0  0  0  0  0  0  0  0  0  0  0  0
  183.5920  178.9580  140.4400 C   0  0  2  0  0  3  0  0  0  0  0  0
  181.1150  178.7000  140.0530 C   0  0  1  0  0  3  0  0  0  0  0  0
  178.9420  179.5720  139.4600 O   0  0  0  0  0  1  0  0  0  0  0  0
  183.1830  180.5190  138.4810 N   0  0  0  0  0  2  0  0  0  0  0  0
  182.2440  178.9130  140.9670 N   0  0  1  0  0  0  0  0  0  0  0  0
  180.0140  177.2910  141.6990 O   0  0  0  0  0  0  0  0  0  0  0  0
  180.3950  177.3780  140.3470 C   0  0  1  0  0  0  0  0  0  0  0  0
  178.9750  177.4660  140.7650 C   0  0  0  0  0  2  0  0  0  0  0  0
  180.9640  176.0450  139.8510 C   0  0  0  0  0  2  0  0  0  0  0  0
  181.8040  176.1830  138.5850 C   0  0  0  0  0  2  0  0  0  0  0  0
  183.0780  175.6460  138.7840 O   0  0  0  0  0  0  0  0  0  0  0  0
  183.3690  174.9650  137.6050 C   0  0  0  0  0  2  0  0  0  0  0  0
  184.7830  174.6030  137.5920 N   0  0  0  0  0  2  0  0  0  0  0  0
  184.6500  176.3230  135.9880 O   0  0  0  0  0  1  0  0  0  0  0  0
  185.5070  175.4060  136.6040 C   0  0  1  0  0  3  0  0  0  0  0  0
  186.7060  176.1260  137.2160 C   0  0  0  0  0  2  0  0  0  0  0  0
  187.3190  178.1710  136.0920 N   0  0  0  0  0  2  0  0  0  0  0  0
  187.4560  176.8990  136.1790 C   0  0  0  0  0  3  0  0  0  0  0  0
  185.5950  178.3660  145.5830 C   0  0  0  0  0  0  0  0  0  0  0  0
  185.0710  178.6520  146.6300 C   0  0  0  0  0  3  0  0  0  0  0  0
  2 36  1  0  0  0  0
  3  2  1  0  0  0  0
  6  3  2  0  0  0  0
  7  1  2  0  0  0  0
  8 16  1  1  0  0  0
  8  5  1  0  0  0  0
  8 10  1  0  0  0  0
  9 11  1  0  0  0  0
  9 17  2  0  0  0  0
 10 20  1  6  0  0  0
 10 19  1  0  0  0  0
 10 15  1  0  0  0  0
 11 14  2  0  0  0  0
 12  4  1  0  0  0  0
 13  2  2  0  0  0  0
 14 13  1  0  0  0  0
 14  4  1  0  0  0  0
 17  6  1  0  0  0  0
 17 13  1  0  0  0  0
 18  1  1  6  0  0  0
 18 22  1  0  0  0  0
 18 11  1  0  0  0  0
 19 24  1  1  0  0  0
 19 22  1  0  0  0  0
 21  1  1  0  0  0  0
 21  5  1  0  0  0  0
 22 12  1  1  0  0  0
 24 26  1  6  0  0  0
 24 25  1  0  0  0  0
 24 23  1  0  0  0  0
 25 23  1  0  0  0  0
 27 28  1  0  0  0  0
 27 26  1  0  0  0  0
 29 28  1  0  0  0  0
 30 29  1  0  0  0  0
 32 31  1  1  0  0  0
 32 33  1  0  0  0  0
 32 30  1  0  0  0  0
 34 35  2  0  0  0  0
 35 33  1  0  0  0  0
 36 37  3  0  0  0  0
M  END
>  <MODEL>
9

>  <REMARK>
 VINA RESULT:      -5.3      2.280      4.142
  Name = 
  10 active torsions:
  status: ('A' for Active; 'I' for Inactive)
    1  A    between atoms: O_3  and  C_11
    2  A    between atoms: O_3  and  C_22
    3  A    between atoms: N_4  and  C_11
    4  A    between atoms: N_4  and  C_36
    5  A    between atoms: C_5  and  C_7
    6  A    between atoms: C_14  and  C_36
    7  A    between atoms: C_14  and  C_37
    8  A    between atoms: C_22  and  C_29
    9  A    between atoms: C_29  and  C_32
   10  A    between atoms: C_30  and  C_32
                            x       y       z     vdW  Elec       q    Type
                         _______ _______ _______ _____ _____    ______ ____

>  <TORSDO>
F 10

$$$$
