=
 OpenBabel11032419253D

 51 53  0  0  1  0  0  0  0  0999 V2000
  181.9790  178.1190  140.7720 C   0  0  0  0  0  0  0  0  0  0  0  0
  180.6330  178.5290  140.8320 C   0  0  0  0  0  3  0  0  0  0  0  0
  182.2960  179.0310  143.0100 C   0  0  0  0  0  3  0  0  0  0  0  0
  180.9620  179.4330  143.0480 C   0  0  0  0  0  3  0  0  0  0  0  0
  182.8220  178.3760  141.8830 C   0  0  0  0  0  0  0  0  0  0  0  0
  180.1290  179.1800  141.9590 C   0  0  0  0  0  3  0  0  0  0  0  0
  182.8160  178.1610  138.4680 C   0  0  0  0  0  3  0  0  0  0  0  0
  182.4740  177.4440  139.5400 C   0  0  0  0  0  0  0  0  0  0  0  0
  182.5950  176.0550  139.4980 O   0  0  0  0  0  1  0  0  0  0  0  0
  183.3160  177.5250  137.2130 C   0  0  0  0  0  2  0  0  0  0  0  0
  185.4840  176.2350  137.1590 C   0  0  0  0  0  0  0  0  0  0  0  0
  184.7670  177.4700  137.2410 N   0  0  0  0  0  2  0  0  0  0  0  0
  184.8660  175.1460  137.0220 O   0  0  0  0  0  0  0  0  0  0  0  0
  186.9100  176.2540  137.1960 N   0  0  0  0  0  2  0  0  0  0  0  0
  193.8700  175.0550  137.4190 C   0  0  1  0  0  3  0  0  0  0  0  0
  191.3560  174.5700  137.4750 C   0  0  2  0  0  3  0  0  0  0  0  0
  192.1660  176.9400  137.7150 C   0  0  0  0  0  2  0  0  0  0  0  0
  191.2470  175.9890  136.9420 C   0  0  2  0  0  3  0  0  0  0  0  0
  192.7550  173.9980  137.1990 C   0  0  1  0  0  3  0  0  0  0  0  0
  189.9770  173.6170  136.7760 S   0  0  0  0  0  0  0  0  0  0  0  0
  192.8390  173.5140  135.8890 O   0  0  0  0  0  1  0  0  0  0  0  0
  187.6890  175.0670  137.0300 C   0  0  0  0  0  3  0  0  0  0  0  0
  193.4020  176.2250  138.3050 C   0  0  0  0  0  2  0  0  0  0  0  0
  189.0130  175.1180  136.9100 C   0  0  0  0  0  0  0  0  0  0  0  0
  189.7890  176.3930  137.0180 C   0  0  0  0  0  2  0  0  0  0  0  0
  195.3240  174.8520  139.3180 O   0  0  0  0  0  1  0  0  0  0  0  0
  195.1310  174.4110  138.0050 C   0  0  2  0  0  3  0  0  0  0  0  0
  195.7260  175.2850  136.0570 C   0  0  0  0  0  1  0  0  0  0  0  0
  196.2480  174.7570  137.2390 O   0  0  0  0  0  0  0  0  0  0  0  0
  184.1840  177.9180  141.8820 N   0  0  0  0  0  2  0  0  0  0  0  0
  185.2730  179.8990  142.5200 O   0  0  0  0  0  0  0  0  0  0  0  0
  185.3440  178.6670  142.2700 C   0  0  0  0  0  0  0  0  0  0  0  0
  186.6660  177.9850  142.3530 C   0  0  0  0  0  2  0  0  0  0  0  0
  186.7690  177.1580  143.6270 C   0  0  0  0  0  2  0  0  0  0  0  0
  187.7370  177.8170  144.5980 C   0  0  0  0  0  2  0  0  0  0  0  0
  186.0090  177.3690  146.2380 O   0  0  0  0  0  1  0  0  0  0  0  0
  187.0810  178.2070  145.9190 C   0  0  1  0  0  3  0  0  0  0  0  0
  188.0760  178.3520  147.0770 C   0  0  1  0  0  3  0  0  0  0  0  0
  187.9080  177.8580  149.2240 C   0  0  0  0  0  1  0  0  0  0  0  0
  187.3810  178.6900  148.2400 O   0  0  0  0  0  0  0  0  0  0  0  0
  188.8910  177.0890  147.3320 C   0  0  0  0  0  2  0  0  0  0  0  0
  191.6840  176.7900  147.7340 O   0  0  0  0  0  0  0  0  0  0  0  0
  189.8670  176.8920  146.2720 N   0  0  0  0  0  2  0  0  0  0  0  0
  191.2510  176.6860  146.5540 C   0  0  0  0  0  0  0  0  0  0  0  0
  192.1940  176.4180  145.4220 C   0  0  0  0  0  2  0  0  0  0  0  0
  190.1180  175.1550  142.6710 O   0  0  0  0  0  0  0  0  0  0  0  0
  190.8070  177.3560  142.8410 N   0  0  0  0  0  2  0  0  0  0  0  0
  190.8140  175.9960  143.2930 C   0  0  0  0  0  0  0  0  0  0  0  0
  191.5850  175.5550  144.4210 N   0  0  0  0  0  2  0  0  0  0  0  0
  191.7540  178.3820  143.2530 C   0  0  0  0  0  2  0  0  0  0  0  0
  191.0340  179.4780  144.0150 C   0  0  0  0  0  1  0  0  0  0  0  0
  1  2  2  0  0  0  0
  1  5  1  0  0  0  0
  2  6  1  0  0  0  0
  3  4  1  0  0  0  0
  5  3  2  0  0  0  0
  6  4  2  0  0  0  0
  7  8  2  0  0  0  0
  8  1  1  0  0  0  0
  9  8  1  0  0  0  0
 10 12  1  0  0  0  0
 10  7  1  0  0  0  0
 11 14  1  0  0  0  0
 11 12  1  0  0  0  0
 13 11  2  0  0  0  0
 15 27  1  1  0  0  0
 15 23  1  0  0  0  0
 16 20  1  6  0  0  0
 17 23  1  0  0  0  0
 18 25  1  1  0  0  0
 18 16  1  0  0  0  0
 18 17  1  0  0  0  0
 19 21  1  6  0  0  0
 19 15  1  0  0  0  0
 19 16  1  0  0  0  0
 20 24  1  0  0  0  0
 22 14  1  0  0  0  0
 24 25  1  0  0  0  0
 24 22  2  0  0  0  0
 27 26  1  1  0  0  0
 28 29  1  0  0  0  0
 29 27  1  0  0  0  0
 30  5  1  0  0  0  0
 30 32  1  0  0  0  0
 32 33  1  0  0  0  0
 32 31  2  0  0  0  0
 33 34  1  0  0  0  0
 34 35  1  0  0  0  0
 35 37  1  0  0  0  0
 37 36  1  1  0  0  0
 37 38  1  0  0  0  0
 38 41  1  1  0  0  0
 38 40  1  0  0  0  0
 40 39  1  0  0  0  0
 43 44  1  0  0  0  0
 43 41  1  0  0  0  0
 44 42  2  0  0  0  0
 45 44  1  0  0  0  0
 46 48  2  0  0  0  0
 47 50  1  0  0  0  0
 47 48  1  0  0  0  0
 48 49  1  0  0  0  0
 49 45  1  0  0  0  0
 50 51  1  0  0  0  0
M  END
>  <MODEL>
1

>  <REMARK>
 VINA RESULT:      -7.1      0.000      0.000
  Name = 
  18 active torsions:
  status: ('A' for Active; 'I' for Inactive)
    1  A    between atoms: C_1  and  C_51
    2  A    between atoms: C_2  and  C_23
    3  A    between atoms: C_2  and  N_49
    4  A    between atoms: C_3  and  C_45
    5  A    between atoms: C_6  and  N_34
    6  A    between atoms: C_6  and  C_41
    7  A    between atoms: N_7  and  C_32
    8  A    between atoms: C_8  and  N_22
    9  A    between atoms: C_13  and  C_17
   10  A    between atoms: C_13  and  C_31
   11  A    between atoms: N_15  and  C_38
   12  A    between atoms: C_17  and  C_47
   13  A    between atoms: C_26  and  N_40
   14  A    between atoms: O_27  and  C_51
   15  A    between atoms: C_28  and  C_29
   16  A    between atoms: C_28  and  O_30
   17  A    between atoms: C_28  and  C_32
   18  A    between atoms: C_29  and  C_31
                            x       y       z     vdW  Elec       q    Type
                         _______ _______ _______ _____ _____    ______ ____

>  <TORSDO>
F 18

$$$$
=
 OpenBabel11032419253D

 51 53  0  0  1  0  0  0  0  0999 V2000
  181.2140  175.9880  138.9730 C   0  0  0  0  0  0  0  0  0  0  0  0
  179.8920  175.6780  139.3440 C   0  0  0  0  0  3  0  0  0  0  0  0
  180.9880  174.4410  137.1020 C   0  0  0  0  0  3  0  0  0  0  0  0
  179.6820  174.1440  137.4900 C   0  0  0  0  0  3  0  0  0  0  0  0
  181.7680  175.3560  137.8300 C   0  0  0  0  0  0  0  0  0  0  0  0
  179.1330  174.7640  138.6110 C   0  0  0  0  0  3  0  0  0  0  0  0
  181.4660  178.1420  140.1170 C   0  0  0  0  0  3  0  0  0  0  0  0
  181.9880  176.9560  139.7980 C   0  0  0  0  0  0  0  0  0  0  0  0
  183.2640  176.6280  140.2570 O   0  0  0  0  0  1  0  0  0  0  0  0
  182.2080  179.1410  140.9410 C   0  0  0  0  0  2  0  0  0  0  0  0
  183.1840  179.0840  143.2680 C   0  0  0  0  0  0  0  0  0  0  0  0
  182.1440  178.7590  142.3410 N   0  0  0  0  0  2  0  0  0  0  0  0
  184.1840  179.7540  142.8950 O   0  0  0  0  0  0  0  0  0  0  0  0
  183.0580  178.6750  144.6290 N   0  0  0  0  0  2  0  0  0  0  0  0
  189.8350  176.9220  145.5900 C   0  0  1  0  0  3  0  0  0  0  0  0
  187.6520  178.2450  145.8050 C   0  0  2  0  0  3  0  0  0  0  0  0
  187.8930  176.5400  143.9710 C   0  0  0  0  0  2  0  0  0  0  0  0
  187.0450  177.0120  145.1560 C   0  0  2  0  0  3  0  0  0  0  0  0
  188.9980  177.9000  146.4600 C   0  0  1  0  0  3  0  0  0  0  0  0
  186.4030  178.9430  146.9240 S   0  0  0  0  0  0  0  0  0  0  0  0
  188.8010  177.3300  147.7230 O   0  0  0  0  0  1  0  0  0  0  0  0
  184.0160  179.0430  145.6230 C   0  0  0  0  0  3  0  0  0  0  0  0
  189.3840  176.9150  144.1190 C   0  0  0  0  0  2  0  0  0  0  0  0
  185.1880  178.4210  145.7190 C   0  0  0  0  0  0  0  0  0  0  0  0
  185.6240  177.3590  144.7600 C   0  0  0  0  0  2  0  0  0  0  0  0
  191.7230  178.0290  144.6050 O   0  0  0  0  0  1  0  0  0  0  0  0
  191.3300  177.2390  145.6910 C   0  0  2  0  0  3  0  0  0  0  0  0
  192.1590  175.6790  147.0280 C   0  0  0  0  0  1  0  0  0  0  0  0
  192.0750  176.0560  145.6860 O   0  0  0  0  0  0  0  0  0  0  0  0
  183.0920  175.6940  137.3850 N   0  0  0  0  0  2  0  0  0  0  0  0
  182.6000  177.5600  136.0470 O   0  0  0  0  0  0  0  0  0  0  0  0
  183.4680  176.8190  136.5780 C   0  0  0  0  0  0  0  0  0  0  0  0
  184.9110  177.1030  136.3370 C   0  0  0  0  0  2  0  0  0  0  0  0
  185.6000  177.5290  137.6260 C   0  0  0  0  0  2  0  0  0  0  0  0
  187.0660  177.8300  137.3550 C   0  0  0  0  0  2  0  0  0  0  0  0
  187.9800  175.5940  137.1490 O   0  0  0  0  0  1  0  0  0  0  0  0
  188.0040  176.7630  137.9140 C   0  0  1  0  0  3  0  0  0  0  0  0
  189.4290  177.2720  138.1630 C   0  0  1  0  0  3  0  0  0  0  0  0
  189.0840  177.5600  140.3270 C   0  0  0  0  0  1  0  0  0  0  0  0
  189.8580  176.8390  139.4190 O   0  0  0  0  0  0  0  0  0  0  0  0
  190.4270  176.8060  137.1080 C   0  0  0  0  0  2  0  0  0  0  0  0
  192.9960  176.1520  136.0950 O   0  0  0  0  0  0  0  0  0  0  0  0
  191.2960  175.7750  137.6500 N   0  0  0  0  0  2  0  0  0  0  0  0
  192.6040  175.5420  137.1280 C   0  0  0  0  0  0  0  0  0  0  0  0
  193.4770  174.5130  137.7760 C   0  0  0  0  0  2  0  0  0  0  0  0
  196.4380  175.0440  139.8800 O   0  0  0  0  0  0  0  0  0  0  0  0
  196.0970  173.1360  138.6170 N   0  0  0  0  0  2  0  0  0  0  0  0
  195.7220  174.4570  139.0310 C   0  0  0  0  0  0  0  0  0  0  0  0
  194.5670  175.1350  138.5150 N   0  0  0  0  0  2  0  0  0  0  0  0
  195.5600  172.4360  137.4590 C   0  0  0  0  0  2  0  0  0  0  0  0
  195.3660  170.9680  137.7840 C   0  0  0  0  0  1  0  0  0  0  0  0
  1  2  1  0  0  0  0
  1  8  1  0  0  0  0
  3  4  2  0  0  0  0
  3  5  1  0  0  0  0
  4  6  1  0  0  0  0
  5  1  2  0  0  0  0
  6  2  2  0  0  0  0
  7 10  1  0  0  0  0
  8  7  2  0  0  0  0
  8  9  1  0  0  0  0
 10 12  1  0  0  0  0
 11 14  1  0  0  0  0
 12 11  1  0  0  0  0
 13 11  2  0  0  0  0
 14 22  1  0  0  0  0
 15 27  1  6  0  0  0
 15 19  1  0  0  0  0
 16 19  1  0  0  0  0
 16 20  1  1  0  0  0
 17 23  1  0  0  0  0
 18 17  1  6  0  0  0
 18 16  1  0  0  0  0
 19 21  1  1  0  0  0
 22 24  2  0  0  0  0
 23 15  1  0  0  0  0
 24 20  1  0  0  0  0
 25 18  1  0  0  0  0
 25 24  1  0  0  0  0
 27 26  1  6  0  0  0
 29 27  1  0  0  0  0
 29 28  1  0  0  0  0
 30  5  1  0  0  0  0
 31 32  2  0  0  0  0
 32 30  1  0  0  0  0
 33 32  1  0  0  0  0
 33 34  1  0  0  0  0
 35 34  1  0  0  0  0
 35 37  1  0  0  0  0
 37 36  1  6  0  0  0
 37 38  1  0  0  0  0
 38 41  1  6  0  0  0
 38 40  1  0  0  0  0
 40 39  1  0  0  0  0
 41 43  1  0  0  0  0
 42 44  2  0  0  0  0
 44 43  1  0  0  0  0
 44 45  1  0  0  0  0
 45 49  1  0  0  0  0
 47 48  1  0  0  0  0
 48 46  2  0  0  0  0
 49 48  1  0  0  0  0
 50 51  1  0  0  0  0
 50 47  1  0  0  0  0
M  END
>  <MODEL>
2

>  <REMARK>
 VINA RESULT:      -7.1      3.156      8.206
  Name = 
  18 active torsions:
  status: ('A' for Active; 'I' for Inactive)
    1  A    between atoms: C_1  and  C_51
    2  A    between atoms: C_2  and  C_23
    3  A    between atoms: C_2  and  N_49
    4  A    between atoms: C_3  and  C_45
    5  A    between atoms: C_6  and  N_34
    6  A    between atoms: C_6  and  C_41
    7  A    between atoms: N_7  and  C_32
    8  A    between atoms: C_8  and  N_22
    9  A    between atoms: C_13  and  C_17
   10  A    between atoms: C_13  and  C_31
   11  A    between atoms: N_15  and  C_38
   12  A    between atoms: C_17  and  C_47
   13  A    between atoms: C_26  and  N_40
   14  A    between atoms: O_27  and  C_51
   15  A    between atoms: C_28  and  C_29
   16  A    between atoms: C_28  and  O_30
   17  A    between atoms: C_28  and  C_32
   18  A    between atoms: C_29  and  C_31
                            x       y       z     vdW  Elec       q    Type
                         _______ _______ _______ _____ _____    ______ ____

>  <TORSDO>
F 18

$$$$
=
 OpenBabel11032419253D

 51 53  0  0  1  0  0  0  0  0999 V2000
  188.1780  177.5500  138.2050 C   0  0  0  0  0  0  0  0  0  0  0  0
  189.0570  177.9250  139.2390 C   0  0  0  0  0  3  0  0  0  0  0  0
  189.8140  175.8870  137.4980 C   0  0  0  0  0  3  0  0  0  0  0  0
  190.6720  176.2760  138.5250 C   0  0  0  0  0  3  0  0  0  0  0  0
  188.5670  176.5120  137.3210 C   0  0  0  0  0  0  0  0  0  0  0  0
  190.2930  177.2940  139.3980 C   0  0  0  0  0  3  0  0  0  0  0  0
  186.0790  178.4240  139.1230 C   0  0  0  0  0  3  0  0  0  0  0  0
  186.8790  178.2650  138.0660 C   0  0  0  0  0  0  0  0  0  0  0  0
  186.4910  178.7870  136.8330 O   0  0  0  0  0  1  0  0  0  0  0  0
  184.7690  179.1330  139.0280 C   0  0  0  0  0  2  0  0  0  0  0  0
  184.5540  179.1130  141.5430 C   0  0  0  0  0  0  0  0  0  0  0  0
  184.0030  178.9000  140.2410 N   0  0  0  0  0  2  0  0  0  0  0  0
  185.7290  179.5490  141.6750 O   0  0  0  0  0  0  0  0  0  0  0  0
  183.7460  178.8620  142.6910 N   0  0  0  0  0  2  0  0  0  0  0  0
  189.5120  176.8560  146.2470 C   0  0  1  0  0  3  0  0  0  0  0  0
  187.4370  178.2240  145.6310 C   0  0  2  0  0  3  0  0  0  0  0  0
  188.4180  176.6350  143.9460 C   0  0  0  0  0  2  0  0  0  0  0  0
  187.1550  177.0540  144.7040 C   0  0  2  0  0  3  0  0  0  0  0  0
  188.3900  177.7990  146.7580 C   0  0  1  0  0  3  0  0  0  0  0  0
  185.8360  178.8850  146.1790 S   0  0  0  0  0  0  0  0  0  0  0  0
  187.6860  177.1550  147.7820 O   0  0  0  0  0  1  0  0  0  0  0  0
  184.2040  179.1370  144.0170 C   0  0  0  0  0  3  0  0  0  0  0  0
  189.7130  176.9560  144.7240 C   0  0  0  0  0  2  0  0  0  0  0  0
  185.2310  178.4770  144.5450 C   0  0  0  0  0  0  0  0  0  0  0  0
  186.0270  177.4670  143.7800 C   0  0  0  0  0  2  0  0  0  0  0  0
  191.8470  177.3800  146.0540 O   0  0  0  0  0  1  0  0  0  0  0  0
  190.8310  177.1220  146.9800 C   0  0  2  0  0  3  0  0  0  0  0  0
  192.4110  175.5890  147.2270 C   0  0  0  0  0  1  0  0  0  0  0  0
  191.1880  176.0110  147.7490 O   0  0  0  0  0  0  0  0  0  0  0  0
  187.6710  176.0610  136.2920 N   0  0  0  0  0  2  0  0  0  0  0  0
  186.6910  174.2310  137.3900 O   0  0  0  0  0  0  0  0  0  0  0  0
  186.7180  174.9930  136.3880 C   0  0  0  0  0  0  0  0  0  0  0  0
  185.7590  174.7590  135.2720 C   0  0  0  0  0  2  0  0  0  0  0  0
  184.8510  175.9660  135.0790 C   0  0  0  0  0  2  0  0  0  0  0  0
  184.0430  176.2160  136.3440 C   0  0  0  0  0  2  0  0  0  0  0  0
  183.4150  174.4530  137.8850 O   0  0  0  0  0  1  0  0  0  0  0  0
  183.0890  175.0720  136.6750 C   0  0  1  0  0  3  0  0  0  0  0  0
  181.6100  175.4690  136.6000 C   0  0  1  0  0  3  0  0  0  0  0  0
  181.4380  174.4810  134.6300 C   0  0  0  0  0  1  0  0  0  0  0  0
  180.9030  174.4770  135.9160 O   0  0  0  0  0  0  0  0  0  0  0  0
  180.9730  175.6810  137.9690 C   0  0  0  0  0  2  0  0  0  0  0  0
  181.0890  177.4870  140.1550 O   0  0  0  0  0  0  0  0  0  0  0  0
  180.2970  176.9670  138.0210 N   0  0  0  0  0  2  0  0  0  0  0  0
  180.4520  177.8530  139.1300 C   0  0  0  0  0  0  0  0  0  0  0  0
  179.7860  179.1930  139.0910 C   0  0  0  0  0  2  0  0  0  0  0  0
  182.4410  181.7140  138.8270 O   0  0  0  0  0  0  0  0  0  0  0  0
  181.1370  181.0450  137.0370 N   0  0  0  0  0  2  0  0  0  0  0  0
  181.4660  181.0270  138.4330 C   0  0  0  0  0  0  0  0  0  0  0  0
  180.7280  180.2600  139.3960 N   0  0  0  0  0  2  0  0  0  0  0  0
  179.8950  180.5480  136.4620 C   0  0  0  0  0  2  0  0  0  0  0  0
  179.4840  181.4150  135.2880 C   0  0  0  0  0  1  0  0  0  0  0  0
  1  2  1  0  0  0  0
  2  6  2  0  0  0  0
  3  4  2  0  0  0  0
  4  6  1  0  0  0  0
  5  3  1  0  0  0  0
  5  1  2  0  0  0  0
  8  1  1  0  0  0  0
  8  7  2  0  0  0  0
  9  8  1  0  0  0  0
 10  7  1  0  0  0  0
 10 12  1  0  0  0  0
 11 13  2  0  0  0  0
 11 14  1  0  0  0  0
 12 11  1  0  0  0  0
 14 22  1  0  0  0  0
 15 19  1  0  0  0  0
 15 27  1  1  0  0  0
 16 20  1  1  0  0  0
 16 19  1  0  0  0  0
 17 18  1  0  0  0  0
 17 23  1  0  0  0  0
 18 25  1  6  0  0  0
 18 16  1  0  0  0  0
 19 21  1  1  0  0  0
 22 24  2  0  0  0  0
 23 15  1  0  0  0  0
 24 20  1  0  0  0  0
 25 24  1  0  0  0  0
 27 26  1  6  0  0  0
 27 29  1  0  0  0  0
 28 29  1  0  0  0  0
 30 32  1  0  0  0  0
 30  5  1  0  0  0  0
 32 31  2  0  0  0  0
 33 32  1  0  0  0  0
 34 33  1  0  0  0  0
 34 35  1  0  0  0  0
 35 37  1  0  0  0  0
 37 36  1  1  0  0  0
 38 37  1  0  0  0  0
 38 41  1  1  0  0  0
 39 40  1  0  0  0  0
 40 38  1  0  0  0  0
 41 43  1  0  0  0  0
 43 44  1  0  0  0  0
 44 42  2  0  0  0  0
 45 44  1  0  0  0  0
 45 49  1  0  0  0  0
 47 48  1  0  0  0  0
 48 46  2  0  0  0  0
 48 49  1  0  0  0  0
 50 47  1  0  0  0  0
 51 50  1  0  0  0  0
M  END
>  <MODEL>
3

>  <REMARK>
 VINA RESULT:      -6.9      3.849     10.131
  Name = 
  18 active torsions:
  status: ('A' for Active; 'I' for Inactive)
    1  A    between atoms: C_1  and  C_51
    2  A    between atoms: C_2  and  C_23
    3  A    between atoms: C_2  and  N_49
    4  A    between atoms: C_3  and  C_45
    5  A    between atoms: C_6  and  N_34
    6  A    between atoms: C_6  and  C_41
    7  A    between atoms: N_7  and  C_32
    8  A    between atoms: C_8  and  N_22
    9  A    between atoms: C_13  and  C_17
   10  A    between atoms: C_13  and  C_31
   11  A    between atoms: N_15  and  C_38
   12  A    between atoms: C_17  and  C_47
   13  A    between atoms: C_26  and  N_40
   14  A    between atoms: O_27  and  C_51
   15  A    between atoms: C_28  and  C_29
   16  A    between atoms: C_28  and  O_30
   17  A    between atoms: C_28  and  C_32
   18  A    between atoms: C_29  and  C_31
                            x       y       z     vdW  Elec       q    Type
                         _______ _______ _______ _____ _____    ______ ____

>  <TORSDO>
F 18

$$$$
=
 OpenBabel11032419253D

 51 53  0  0  1  0  0  0  0  0999 V2000
  188.1960  177.0550  138.0270 C   0  0  0  0  0  0  0  0  0  0  0  0
  188.9570  177.7140  139.0110 C   0  0  0  0  0  3  0  0  0  0  0  0
  190.1730  175.7480  137.4580 C   0  0  0  0  0  3  0  0  0  0  0  0
  190.9110  176.4160  138.4350 C   0  0  0  0  0  3  0  0  0  0  0  0
  188.8190  176.0540  137.2390 C   0  0  0  0  0  0  0  0  0  0  0  0
  190.3010  177.3980  139.2140 C   0  0  0  0  0  3  0  0  0  0  0  0
  186.2220  178.3960  138.5920 C   0  0  0  0  0  3  0  0  0  0  0  0
  186.7700  177.4410  137.8380 C   0  0  0  0  0  0  0  0  0  0  0  0
  185.9950  176.8160  136.8620 O   0  0  0  0  0  1  0  0  0  0  0  0
  184.7970  178.8120  138.4370 C   0  0  0  0  0  2  0  0  0  0  0  0
  184.5860  178.8660  140.9510 C   0  0  0  0  0  0  0  0  0  0  0  0
  184.0710  178.5240  139.6620 N   0  0  0  0  0  2  0  0  0  0  0  0
  185.6870  179.4700  141.0600 O   0  0  0  0  0  0  0  0  0  0  0  0
  183.8200  178.5510  142.1140 N   0  0  0  0  0  2  0  0  0  0  0  0
  189.4830  176.9120  146.0090 C   0  0  1  0  0  3  0  0  0  0  0  0
  187.4190  178.2030  145.2120 C   0  0  2  0  0  3  0  0  0  0  0  0
  188.4650  176.4830  143.7020 C   0  0  0  0  0  2  0  0  0  0  0  0
  187.1750  176.9550  144.3810 C   0  0  2  0  0  3  0  0  0  0  0  0
  188.3390  177.8860  146.4010 C   0  0  1  0  0  3  0  0  0  0  0  0
  185.7980  178.8940  145.6500 S   0  0  0  0  0  0  0  0  0  0  0  0
  187.6070  177.3260  147.4550 O   0  0  0  0  0  1  0  0  0  0  0  0
  184.2340  178.9440  143.4240 C   0  0  0  0  0  3  0  0  0  0  0  0
  189.7320  176.8830  144.4900 C   0  0  0  0  0  2  0  0  0  0  0  0
  185.2480  178.3410  144.0400 C   0  0  0  0  0  0  0  0  0  0  0  0
  186.0740  177.2760  143.3910 C   0  0  0  0  0  2  0  0  0  0  0  0
  191.8310  177.3820  145.8490 O   0  0  0  0  0  1  0  0  0  0  0  0
  190.7760  177.2530  146.7570 C   0  0  2  0  0  3  0  0  0  0  0  0
  192.2400  175.6410  147.1690 C   0  0  0  0  0  1  0  0  0  0  0  0
  191.0840  176.2410  147.6710 O   0  0  0  0  0  0  0  0  0  0  0  0
  188.0590  175.3180  136.2670 N   0  0  0  0  0  2  0  0  0  0  0  0
  188.3600  173.1400  137.0910 O   0  0  0  0  0  0  0  0  0  0  0  0
  187.7950  173.9080  136.2690 C   0  0  0  0  0  0  0  0  0  0  0  0
  186.8560  173.3330  135.2650 C   0  0  0  0  0  2  0  0  0  0  0  0
  185.4700  173.9470  135.4070 C   0  0  0  0  0  2  0  0  0  0  0  0
  184.8000  173.4290  136.6710 C   0  0  0  0  0  2  0  0  0  0  0  0
  182.7790  172.1820  137.1590 O   0  0  0  0  0  1  0  0  0  0  0  0
  183.2830  173.3290  136.5400 C   0  0  1  0  0  3  0  0  0  0  0  0
  182.5460  174.6010  136.9760 C   0  0  1  0  0  3  0  0  0  0  0  0
  182.6250  176.5250  135.8910 C   0  0  0  0  0  1  0  0  0  0  0  0
  182.0530  175.2560  135.8450 O   0  0  0  0  0  0  0  0  0  0  0  0
  181.3940  174.3300  137.9370 C   0  0  0  0  0  2  0  0  0  0  0  0
  178.9370  175.1720  139.0800 O   0  0  0  0  0  0  0  0  0  0  0  0
  181.2490  175.4270  138.8790 N   0  0  0  0  0  2  0  0  0  0  0  0
  179.9880  175.7560  139.4630 C   0  0  0  0  0  0  0  0  0  0  0  0
  179.9180  176.8520  140.4800 C   0  0  0  0  0  2  0  0  0  0  0  0
  180.9890  180.3200  139.9330 O   0  0  0  0  0  0  0  0  0  0  0  0
  179.8610  179.6170  141.8270 N   0  0  0  0  0  2  0  0  0  0  0  0
  180.5150  179.3520  140.5790 C   0  0  0  0  0  0  0  0  0  0  0  0
  180.6520  178.0290  140.0380 N   0  0  0  0  0  2  0  0  0  0  0  0
  179.5150  178.6130  142.8230 C   0  0  0  0  0  2  0  0  0  0  0  0
  180.5670  178.5820  143.9150 C   0  0  0  0  0  1  0  0  0  0  0  0
  1  2  1  0  0  0  0
  2  6  2  0  0  0  0
  3  4  2  0  0  0  0
  4  6  1  0  0  0  0
  5  3  1  0  0  0  0
  5  1  2  0  0  0  0
  8  1  1  0  0  0  0
  8  7  2  0  0  0  0
  9  8  1  0  0  0  0
 10  7  1  0  0  0  0
 10 12  1  0  0  0  0
 11 13  2  0  0  0  0
 11 14  1  0  0  0  0
 12 11  1  0  0  0  0
 14 22  1  0  0  0  0
 15 19  1  0  0  0  0
 15 27  1  1  0  0  0
 16 20  1  1  0  0  0
 16 19  1  0  0  0  0
 17 18  1  0  0  0  0
 17 23  1  0  0  0  0
 18 25  1  6  0  0  0
 18 16  1  0  0  0  0
 19 21  1  1  0  0  0
 22 24  2  0  0  0  0
 23 15  1  0  0  0  0
 24 20  1  0  0  0  0
 25 24  1  0  0  0  0
 27 26  1  6  0  0  0
 27 29  1  0  0  0  0
 28 29  1  0  0  0  0
 30 32  1  0  0  0  0
 30  5  1  0  0  0  0
 32 31  2  0  0  0  0
 33 34  1  0  0  0  0
 33 32  1  0  0  0  0
 34 35  1  0  0  0  0
 37 35  1  0  0  0  0
 37 38  1  0  0  0  0
 37 36  1  1  0  0  0
 38 41  1  1  0  0  0
 40 39  1  0  0  0  0
 40 38  1  0  0  0  0
 41 43  1  0  0  0  0
 42 44  2  0  0  0  0
 43 44  1  0  0  0  0
 44 45  1  0  0  0  0
 46 48  2  0  0  0  0
 47 50  1  0  0  0  0
 48 47  1  0  0  0  0
 49 45  1  0  0  0  0
 49 48  1  0  0  0  0
 50 51  1  0  0  0  0
M  END
>  <MODEL>
4

>  <REMARK>
 VINA RESULT:      -6.9      3.629      9.898
  Name = 
  18 active torsions:
  status: ('A' for Active; 'I' for Inactive)
    1  A    between atoms: C_1  and  C_51
    2  A    between atoms: C_2  and  C_23
    3  A    between atoms: C_2  and  N_49
    4  A    between atoms: C_3  and  C_45
    5  A    between atoms: C_6  and  N_34
    6  A    between atoms: C_6  and  C_41
    7  A    between atoms: N_7  and  C_32
    8  A    between atoms: C_8  and  N_22
    9  A    between atoms: C_13  and  C_17
   10  A    between atoms: C_13  and  C_31
   11  A    between atoms: N_15  and  C_38
   12  A    between atoms: C_17  and  C_47
   13  A    between atoms: C_26  and  N_40
   14  A    between atoms: O_27  and  C_51
   15  A    between atoms: C_28  and  C_29
   16  A    between atoms: C_28  and  O_30
   17  A    between atoms: C_28  and  C_32
   18  A    between atoms: C_29  and  C_31
                            x       y       z     vdW  Elec       q    Type
                         _______ _______ _______ _____ _____    ______ ____

>  <TORSDO>
F 18

$$$$
=
 OpenBabel11032419253D

 51 53  0  0  1  0  0  0  0  0999 V2000
  182.5740  178.3000  141.5340 C   0  0  0  0  0  0  0  0  0  0  0  0
  181.4050  178.7640  142.1650 C   0  0  0  0  0  3  0  0  0  0  0  0
  183.8360  178.9750  143.5080 C   0  0  0  0  0  3  0  0  0  0  0  0
  182.6670  179.4340  144.1130 C   0  0  0  0  0  3  0  0  0  0  0  0
  183.8100  178.4090  142.2220 C   0  0  0  0  0  0  0  0  0  0  0  0
  181.4490  179.3250  143.4430 C   0  0  0  0  0  3  0  0  0  0  0  0
  182.6940  178.4900  139.0930 C   0  0  0  0  0  3  0  0  0  0  0  0
  182.4770  177.7240  140.1640 C   0  0  0  0  0  0  0  0  0  0  0  0
  182.1680  176.3760  139.9860 O   0  0  0  0  0  1  0  0  0  0  0  0
  182.6060  177.9550  137.7020 C   0  0  0  0  0  2  0  0  0  0  0  0
  184.3340  176.4770  136.6070 C   0  0  0  0  0  0  0  0  0  0  0  0
  183.3460  176.7070  137.6140 N   0  0  0  0  0  2  0  0  0  0  0  0
  184.6200  177.3800  135.7750 O   0  0  0  0  0  0  0  0  0  0  0  0
  185.0210  175.2270  136.5770 N   0  0  0  0  0  2  0  0  0  0  0  0
  192.0190  176.1090  136.9860 C   0  0  1  0  0  3  0  0  0  0  0  0
  189.7640  175.2230  136.1570 C   0  0  2  0  0  3  0  0  0  0  0  0
  189.8950  176.3860  138.3840 C   0  0  0  0  0  2  0  0  0  0  0  0
  189.2040  176.3430  137.0170 C   0  0  2  0  0  3  0  0  0  0  0  0
  191.2300  175.5050  135.7940 C   0  0  1  0  0  3  0  0  0  0  0  0
  188.6430  175.0080  134.7440 S   0  0  0  0  0  0  0  0  0  0  0  0
  191.3080  176.3820  134.7060 O   0  0  0  0  0  1  0  0  0  0  0  0
  186.0800  174.9650  135.6540 C   0  0  0  0  0  3  0  0  0  0  0  0
  191.3370  175.8350  138.3390 C   0  0  0  0  0  2  0  0  0  0  0  0
  187.3150  175.4070  135.8750 C   0  0  0  0  0  0  0  0  0  0  0  0
  187.7080  176.1310  137.1230 C   0  0  0  0  0  2  0  0  0  0  0  0
  194.0910  175.9880  138.1930 O   0  0  0  0  0  1  0  0  0  0  0  0
  193.4650  175.6030  137.0030 C   0  0  2  0  0  3  0  0  0  0  0  0
  194.9530  175.0780  135.4470 C   0  0  0  0  0  1  0  0  0  0  0  0
  194.1740  176.1350  135.9220 O   0  0  0  0  0  0  0  0  0  0  0  0
  185.0150  177.8910  141.6350 N   0  0  0  0  0  2  0  0  0  0  0  0
  185.8110  179.8300  140.5770 O   0  0  0  0  0  0  0  0  0  0  0  0
  186.0040  178.6300  140.9030 C   0  0  0  0  0  0  0  0  0  0  0  0
  187.2710  177.9600  140.4960 C   0  0  0  0  0  2  0  0  0  0  0  0
  188.4600  178.5570  141.2360 C   0  0  0  0  0  2  0  0  0  0  0  0
  189.4000  177.4500  141.6860 C   0  0  0  0  0  2  0  0  0  0  0  0
  189.7480  178.9730  143.5400 O   0  0  0  0  0  1  0  0  0  0  0  0
  190.2590  177.8500  142.8830 C   0  0  1  0  0  3  0  0  0  0  0  0
  190.5490  176.6900  143.8430 C   0  0  1  0  0  3  0  0  0  0  0  0
  192.0590  175.2280  144.5250 C   0  0  0  0  0  1  0  0  0  0  0  0
  191.7330  176.0600  143.4570 O   0  0  0  0  0  0  0  0  0  0  0  0
  190.6690  177.1290  145.2990 C   0  0  0  0  0  2  0  0  0  0  0  0
  190.1930  177.7760  148.0200 O   0  0  0  0  0  0  0  0  0  0  0  0
  189.4470  176.8230  146.0240 N   0  0  0  0  0  2  0  0  0  0  0  0
  189.2520  177.2350  147.3770 C   0  0  0  0  0  0  0  0  0  0  0  0
  187.9430  176.9510  148.0450 C   0  0  0  0  0  2  0  0  0  0  0  0
  186.1310  180.1230  147.6950 O   0  0  0  0  0  0  0  0  0  0  0  0
  186.0800  178.4440  146.1050 N   0  0  0  0  0  2  0  0  0  0  0  0
  186.4680  178.9530  147.3880 C   0  0  0  0  0  0  0  0  0  0  0  0
  187.2200  178.1810  148.3360 N   0  0  0  0  0  2  0  0  0  0  0  0
  186.1340  177.0460  145.7060 C   0  0  0  0  0  2  0  0  0  0  0  0
  186.8540  176.9120  144.3780 C   0  0  0  0  0  1  0  0  0  0  0  0
  1  2  2  0  0  0  0
  1  5  1  0  0  0  0
  2  6  1  0  0  0  0
  3  4  1  0  0  0  0
  5  3  2  0  0  0  0
  6  4  2  0  0  0  0
  7  8  2  0  0  0  0
  8  1  1  0  0  0  0
  9  8  1  0  0  0  0
 10  7  1  0  0  0  0
 11 12  1  0  0  0  0
 12 10  1  0  0  0  0
 13 11  2  0  0  0  0
 14 11  1  0  0  0  0
 15 27  1  1  0  0  0
 15 23  1  0  0  0  0
 16 20  1  6  0  0  0
 16 18  1  0  0  0  0
 18 25  1  1  0  0  0
 18 17  1  0  0  0  0
 19 21  1  6  0  0  0
 19 16  1  0  0  0  0
 19 15  1  0  0  0  0
 20 24  1  0  0  0  0
 22 24  2  0  0  0  0
 22 14  1  0  0  0  0
 23 17  1  0  0  0  0
 24 25  1  0  0  0  0
 27 26  1  1  0  0  0
 28 29  1  0  0  0  0
 29 27  1  0  0  0  0
 30  5  1  0  0  0  0
 31 32  2  0  0  0  0
 32 30  1  0  0  0  0
 33 32  1  0  0  0  0
 33 34  1  0  0  0  0
 34 35  1  0  0  0  0
 35 37  1  0  0  0  0
 37 36  1  1  0  0  0
 37 38  1  0  0  0  0
 38 41  1  1  0  0  0
 40 38  1  0  0  0  0
 40 39  1  0  0  0  0
 41 43  1  0  0  0  0
 43 44  1  0  0  0  0
 44 42  2  0  0  0  0
 44 45  1  0  0  0  0
 45 49  1  0  0  0  0
 47 48  1  0  0  0  0
 48 46  2  0  0  0  0
 48 49  1  0  0  0  0
 50 47  1  0  0  0  0
 51 50  1  0  0  0  0
M  END
>  <MODEL>
5

>  <REMARK>
 VINA RESULT:      -6.6      1.814      3.418
  Name = 
  18 active torsions:
  status: ('A' for Active; 'I' for Inactive)
    1  A    between atoms: C_1  and  C_51
    2  A    between atoms: C_2  and  C_23
    3  A    between atoms: C_2  and  N_49
    4  A    between atoms: C_3  and  C_45
    5  A    between atoms: C_6  and  N_34
    6  A    between atoms: C_6  and  C_41
    7  A    between atoms: N_7  and  C_32
    8  A    between atoms: C_8  and  N_22
    9  A    between atoms: C_13  and  C_17
   10  A    between atoms: C_13  and  C_31
   11  A    between atoms: N_15  and  C_38
   12  A    between atoms: C_17  and  C_47
   13  A    between atoms: C_26  and  N_40
   14  A    between atoms: O_27  and  C_51
   15  A    between atoms: C_28  and  C_29
   16  A    between atoms: C_28  and  O_30
   17  A    between atoms: C_28  and  C_32
   18  A    between atoms: C_29  and  C_31
                            x       y       z     vdW  Elec       q    Type
                         _______ _______ _______ _____ _____    ______ ____

>  <TORSDO>
F 18

$$$$
=
 OpenBabel11032419253D

 51 53  0  0  1  0  0  0  0  0999 V2000
  181.7760  175.0880  137.1130 C   0  0  0  0  0  0  0  0  0  0  0  0
  180.4240  174.8380  136.8090 C   0  0  0  0  0  3  0  0  0  0  0  0
  182.1630  172.6810  137.0980 C   0  0  0  0  0  3  0  0  0  0  0  0
  180.8200  172.4540  136.8020 C   0  0  0  0  0  3  0  0  0  0  0  0
  182.6580  173.9870  137.2590 C   0  0  0  0  0  0  0  0  0  0  0  0
  179.9500  173.5340  136.6550 C   0  0  0  0  0  3  0  0  0  0  0  0
  182.0180  177.1380  138.4360 C   0  0  0  0  0  3  0  0  0  0  0  0
  182.2290  176.4960  137.2850 C   0  0  0  0  0  0  0  0  0  0  0  0
  182.8900  177.1550  136.2490 O   0  0  0  0  0  1  0  0  0  0  0  0
  182.4540  178.5490  138.6500 C   0  0  0  0  0  2  0  0  0  0  0  0
  183.6280  178.8410  140.8650 C   0  0  0  0  0  0  0  0  0  0  0  0
  183.6590  178.5660  139.4630 N   0  0  0  0  0  2  0  0  0  0  0  0
  182.5320  179.0450  141.4520 O   0  0  0  0  0  0  0  0  0  0  0  0
  184.8500  178.8450  141.6020 N   0  0  0  0  0  2  0  0  0  0  0  0
  189.4420  176.7880  146.5620 C   0  0  1  0  0  3  0  0  0  0  0  0
  187.5520  178.1150  145.4540 C   0  0  2  0  0  3  0  0  0  0  0  0
  189.0870  176.7190  144.0300 C   0  0  0  0  0  2  0  0  0  0  0  0
  187.6320  177.0170  144.4060 C   0  0  2  0  0  3  0  0  0  0  0  0
  188.1600  177.6350  146.7810 C   0  0  1  0  0  3  0  0  0  0  0  0
  185.8220  178.6570  145.5460 S   0  0  0  0  0  0  0  0  0  0  0  0
  187.2310  176.8760  147.5020 O   0  0  0  0  0  1  0  0  0  0  0  0
  184.8810  179.0250  143.0190 C   0  0  0  0  0  3  0  0  0  0  0  0
  190.0730  177.0270  145.1780 C   0  0  0  0  0  2  0  0  0  0  0  0
  185.7500  178.3660  143.7820 C   0  0  0  0  0  0  0  0  0  0  0  0
  186.7990  177.4600  143.2200 C   0  0  0  0  0  2  0  0  0  0  0  0
  190.2200  178.2850  148.2700 O   0  0  0  0  0  1  0  0  0  0  0  0
  190.4680  177.0460  147.6700 C   0  0  2  0  0  3  0  0  0  0  0  0
  192.2990  175.8100  147.4910 C   0  0  0  0  0  1  0  0  0  0  0  0
  191.7610  177.0490  147.1380 O   0  0  0  0  0  0  0  0  0  0  0  0
  184.0570  174.2060  137.5080 N   0  0  0  0  0  2  0  0  0  0  0  0
  184.9790  172.6840  135.9740 O   0  0  0  0  0  0  0  0  0  0  0  0
  185.1590  173.6080  136.8100 C   0  0  0  0  0  0  0  0  0  0  0  0
  186.5470  174.0660  137.0990 C   0  0  0  0  0  2  0  0  0  0  0  0
  186.6290  175.5860  137.0790 C   0  0  0  0  0  2  0  0  0  0  0  0
  187.9000  176.0280  136.3680 C   0  0  0  0  0  2  0  0  0  0  0  0
  189.6770  174.4730  135.8230 O   0  0  0  0  0  1  0  0  0  0  0  0
  189.1370  175.2680  136.8370 C   0  0  1  0  0  3  0  0  0  0  0  0
  190.1890  176.1640  137.5020 C   0  0  1  0  0  3  0  0  0  0  0  0
  189.9700  176.8100  139.6040 C   0  0  0  0  0  1  0  0  0  0  0  0
  190.3880  175.7400  138.8170 O   0  0  0  0  0  0  0  0  0  0  0  0
  191.5270  176.1660  136.7700 C   0  0  0  0  0  2  0  0  0  0  0  0
  194.3450  176.4340  136.5690 O   0  0  0  0  0  0  0  0  0  0  0  0
  192.4920  175.3380  137.4740 N   0  0  0  0  0  2  0  0  0  0  0  0
  193.8980  175.5710  137.3740 C   0  0  0  0  0  0  0  0  0  0  0  0
  194.8360  174.7280  138.1790 C   0  0  0  0  0  2  0  0  0  0  0  0
  198.3010  174.1210  137.1300 O   0  0  0  0  0  0  0  0  0  0  0  0
  196.5640  172.6530  136.7030 N   0  0  0  0  0  2  0  0  0  0  0  0
  197.0650  173.9040  137.1940 C   0  0  0  0  0  0  0  0  0  0  0  0
  196.2150  174.9170  137.7520 N   0  0  0  0  0  2  0  0  0  0  0  0
  195.1630  172.3560  136.4410 C   0  0  0  0  0  2  0  0  0  0  0  0
  194.7860  171.0310  137.0750 C   0  0  0  0  0  1  0  0  0  0  0  0
  1  5  1  0  0  0  0
  1  8  1  0  0  0  0
  2  1  2  0  0  0  0
  3  5  2  0  0  0  0
  4  3  1  0  0  0  0
  5 30  1  0  0  0  0
  6  4  2  0  0  0  0
  6  2  1  0  0  0  0
  7 10  1  0  0  0  0
  8  7  2  0  0  0  0
  9  8  1  0  0  0  0
 10 12  1  0  0  0  0
 11 13  2  0  0  0  0
 11 14  1  0  0  0  0
 12 11  1  0  0  0  0
 14 22  1  0  0  0  0
 15 19  1  0  0  0  0
 15 27  1  1  0  0  0
 16 20  1  1  0  0  0
 16 19  1  0  0  0  0
 17 18  1  0  0  0  0
 17 23  1  0  0  0  0
 18 25  1  6  0  0  0
 18 16  1  0  0  0  0
 19 21  1  6  0  0  0
 22 24  2  0  0  0  0
 23 15  1  0  0  0  0
 24 20  1  0  0  0  0
 25 24  1  0  0  0  0
 27 26  1  6  0  0  0
 29 28  1  0  0  0  0
 29 27  1  0  0  0  0
 31 32  2  0  0  0  0
 32 33  1  0  0  0  0
 32 30  1  0  0  0  0
 34 33  1  0  0  0  0
 35 37  1  0  0  0  0
 35 34  1  0  0  0  0
 37 36  1  6  0  0  0
 37 38  1  0  0  0  0
 38 41  1  6  0  0  0
 38 40  1  0  0  0  0
 40 39  1  0  0  0  0
 41 43  1  0  0  0  0
 42 44  2  0  0  0  0
 44 43  1  0  0  0  0
 44 45  1  0  0  0  0
 46 48  2  0  0  0  0
 47 48  1  0  0  0  0
 48 49  1  0  0  0  0
 49 45  1  0  0  0  0
 50 47  1  0  0  0  0
 50 51  1  0  0  0  0
M  END
>  <MODEL>
6

>  <REMARK>
 VINA RESULT:      -6.6      3.384      8.695
  Name = 
  18 active torsions:
  status: ('A' for Active; 'I' for Inactive)
    1  A    between atoms: C_1  and  C_51
    2  A    between atoms: C_2  and  C_23
    3  A    between atoms: C_2  and  N_49
    4  A    between atoms: C_3  and  C_45
    5  A    between atoms: C_6  and  N_34
    6  A    between atoms: C_6  and  C_41
    7  A    between atoms: N_7  and  C_32
    8  A    between atoms: C_8  and  N_22
    9  A    between atoms: C_13  and  C_17
   10  A    between atoms: C_13  and  C_31
   11  A    between atoms: N_15  and  C_38
   12  A    between atoms: C_17  and  C_47
   13  A    between atoms: C_26  and  N_40
   14  A    between atoms: O_27  and  C_51
   15  A    between atoms: C_28  and  C_29
   16  A    between atoms: C_28  and  O_30
   17  A    between atoms: C_28  and  C_32
   18  A    between atoms: C_29  and  C_31
                            x       y       z     vdW  Elec       q    Type
                         _______ _______ _______ _____ _____    ______ ____

>  <TORSDO>
F 18

$$$$
=
 OpenBabel11032419253D

 51 53  0  0  1  0  0  0  0  0999 V2000
  188.4170  177.6140  138.2250 C   0  0  0  0  0  0  0  0  0  0  0  0
  189.1890  177.8690  139.3740 C   0  0  0  0  0  3  0  0  0  0  0  0
  190.1920  176.1420  137.4330 C   0  0  0  0  0  3  0  0  0  0  0  0
  190.9430  176.4130  138.5760 C   0  0  0  0  0  3  0  0  0  0  0  0
  188.9320  176.7330  137.2390 C   0  0  0  0  0  0  0  0  0  0  0  0
  190.4400  177.2750  139.5490 C   0  0  0  0  0  3  0  0  0  0  0  0
  186.0590  177.9090  138.8270 C   0  0  0  0  0  3  0  0  0  0  0  0
  187.0960  178.2860  138.0770 C   0  0  0  0  0  0  0  0  0  0  0  0
  186.9330  179.3250  137.1620 O   0  0  0  0  0  1  0  0  0  0  0  0
  184.7180  178.5540  138.7110 C   0  0  0  0  0  2  0  0  0  0  0  0
  184.5260  178.7030  141.2230 C   0  0  0  0  0  0  0  0  0  0  0  0
  183.9790  178.3630  139.9470 N   0  0  0  0  0  2  0  0  0  0  0  0
  185.6730  179.2200  141.3080 O   0  0  0  0  0  0  0  0  0  0  0  0
  183.7450  178.4860  142.3970 N   0  0  0  0  0  2  0  0  0  0  0  0
  189.6460  177.0860  146.0230 C   0  0  1  0  0  3  0  0  0  0  0  0
  187.4890  178.2830  145.3320 C   0  0  2  0  0  3  0  0  0  0  0  0
  188.5490  176.6310  143.7570 C   0  0  0  0  0  2  0  0  0  0  0  0
  187.2690  177.0320  144.4980 C   0  0  2  0  0  3  0  0  0  0  0  0
  188.4750  177.9990  146.4760 C   0  0  1  0  0  3  0  0  0  0  0  0
  185.8570  178.8890  145.8480 S   0  0  0  0  0  0  0  0  0  0  0  0
  187.8170  177.3930  147.5530 O   0  0  0  0  0  1  0  0  0  0  0  0
  184.1970  178.8860  143.6930 C   0  0  0  0  0  3  0  0  0  0  0  0
  189.8290  177.0850  144.4940 C   0  0  0  0  0  2  0  0  0  0  0  0
  185.2650  178.3270  144.2570 C   0  0  0  0  0  0  0  0  0  0  0  0
  186.1120  177.3100  143.5590 C   0  0  0  0  0  2  0  0  0  0  0  0
  192.0450  177.0900  145.9380 O   0  0  0  0  0  1  0  0  0  0  0  0
  190.9530  177.4820  146.7180 C   0  0  2  0  0  3  0  0  0  0  0  0
  191.9580  175.8250  147.7920 C   0  0  0  0  0  1  0  0  0  0  0  0
  191.0400  176.8620  147.9680 O   0  0  0  0  0  0  0  0  0  0  0  0
  188.1460  176.4000  136.0830 N   0  0  0  0  0  2  0  0  0  0  0  0
  187.0220  174.5050  136.8950 O   0  0  0  0  0  0  0  0  0  0  0  0
  187.1710  175.3530  135.9770 C   0  0  0  0  0  0  0  0  0  0  0  0
  186.3370  175.2460  134.7470 C   0  0  0  0  0  2  0  0  0  0  0  0
  185.1370  176.1800  134.8260 C   0  0  0  0  0  2  0  0  0  0  0  0
  184.3830  175.9480  136.1270 C   0  0  0  0  0  2  0  0  0  0  0  0
  182.4100  175.7700  134.7290 O   0  0  0  0  0  1  0  0  0  0  0  0
  183.0060  175.3260  135.9120 C   0  0  1  0  0  3  0  0  0  0  0  0
  183.0000  173.7970  136.0320 C   0  0  1  0  0  3  0  0  0  0  0  0
  183.9880  172.2040  137.2020 C   0  0  0  0  0  1  0  0  0  0  0  0
  184.2500  173.3680  136.4840 O   0  0  0  0  0  0  0  0  0  0  0  0
  181.9210  173.2710  136.9730 C   0  0  0  0  0  2  0  0  0  0  0  0
  179.3830  174.3190  136.2580 O   0  0  0  0  0  0  0  0  0  0  0  0
  181.2570  174.3730  137.6500 N   0  0  0  0  0  2  0  0  0  0  0  0
  179.9500  174.8070  137.2740 C   0  0  0  0  0  0  0  0  0  0  0  0
  179.2910  175.9000  138.0570 C   0  0  0  0  0  2  0  0  0  0  0  0
  181.0370  177.8960  140.5940 O   0  0  0  0  0  0  0  0  0  0  0  0
  179.5870  176.1690  141.1080 N   0  0  0  0  0  2  0  0  0  0  0  0
  180.3210  176.9590  140.1630 C   0  0  0  0  0  0  0  0  0  0  0  0
  180.2750  176.7210  138.7480 N   0  0  0  0  0  2  0  0  0  0  0  0
  178.9490  174.8930  140.8180 C   0  0  0  0  0  2  0  0  0  0  0  0
  179.9640  173.7700  140.9180 C   0  0  0  0  0  1  0  0  0  0  0  0
  1  2  1  0  0  0  0
  2  6  2  0  0  0  0
  3  4  2  0  0  0  0
  4  6  1  0  0  0  0
  5  3  1  0  0  0  0
  5  1  2  0  0  0  0
  8  1  1  0  0  0  0
  8  7  2  0  0  0  0
  9  8  1  0  0  0  0
 10  7  1  0  0  0  0
 10 12  1  0  0  0  0
 11 13  2  0  0  0  0
 11 14  1  0  0  0  0
 12 11  1  0  0  0  0
 14 22  1  0  0  0  0
 15 19  1  0  0  0  0
 15 27  1  1  0  0  0
 16 20  1  1  0  0  0
 16 19  1  0  0  0  0
 17 23  1  0  0  0  0
 17 18  1  0  0  0  0
 18 25  1  6  0  0  0
 18 16  1  0  0  0  0
 19 21  1  1  0  0  0
 22 24  2  0  0  0  0
 23 15  1  0  0  0  0
 24 20  1  0  0  0  0
 25 24  1  0  0  0  0
 27 26  1  6  0  0  0
 27 29  1  0  0  0  0
 28 29  1  0  0  0  0
 30  5  1  0  0  0  0
 32 30  1  0  0  0  0
 32 31  2  0  0  0  0
 33 34  1  0  0  0  0
 33 32  1  0  0  0  0
 34 35  1  0  0  0  0
 37 36  1  6  0  0  0
 37 38  1  0  0  0  0
 37 35  1  0  0  0  0
 38 40  1  0  0  0  0
 38 41  1  1  0  0  0
 40 39  1  0  0  0  0
 41 43  1  0  0  0  0
 42 44  2  0  0  0  0
 44 43  1  0  0  0  0
 44 45  1  0  0  0  0
 45 49  1  0  0  0  0
 48 46  2  0  0  0  0
 48 47  1  0  0  0  0
 49 48  1  0  0  0  0
 50 51  1  0  0  0  0
 50 47  1  0  0  0  0
M  END
>  <MODEL>
7

>  <REMARK>
 VINA RESULT:      -6.5      3.765     10.184
  Name = 
  18 active torsions:
  status: ('A' for Active; 'I' for Inactive)
    1  A    between atoms: C_1  and  C_51
    2  A    between atoms: C_2  and  C_23
    3  A    between atoms: C_2  and  N_49
    4  A    between atoms: C_3  and  C_45
    5  A    between atoms: C_6  and  N_34
    6  A    between atoms: C_6  and  C_41
    7  A    between atoms: N_7  and  C_32
    8  A    between atoms: C_8  and  N_22
    9  A    between atoms: C_13  and  C_17
   10  A    between atoms: C_13  and  C_31
   11  A    between atoms: N_15  and  C_38
   12  A    between atoms: C_17  and  C_47
   13  A    between atoms: C_26  and  N_40
   14  A    between atoms: O_27  and  C_51
   15  A    between atoms: C_28  and  C_29
   16  A    between atoms: C_28  and  O_30
   17  A    between atoms: C_28  and  C_32
   18  A    between atoms: C_29  and  C_31
                            x       y       z     vdW  Elec       q    Type
                         _______ _______ _______ _____ _____    ______ ____

>  <TORSDO>
F 18

$$$$
=
 OpenBabel11032419253D

 51 53  0  0  1  0  0  0  0  0999 V2000
  179.8770  178.2370  136.3880 C   0  0  0  0  0  0  0  0  0  0  0  0
  178.9310  179.0000  135.6760 C   0  0  0  0  0  3  0  0  0  0  0  0
  181.0310  180.3070  136.9570 C   0  0  0  0  0  3  0  0  0  0  0  0
  180.0870  181.0440  136.2430 C   0  0  0  0  0  3  0  0  0  0  0  0
  180.9440  178.9070  137.0380 C   0  0  0  0  0  0  0  0  0  0  0  0
  179.0340  180.3900  135.6040 C   0  0  0  0  0  3  0  0  0  0  0  0
  179.7550  176.0490  135.2880 C   0  0  0  0  0  3  0  0  0  0  0  0
  179.7330  176.7550  136.4200 C   0  0  0  0  0  0  0  0  0  0  0  0
  179.5850  176.0880  137.6360 O   0  0  0  0  0  1  0  0  0  0  0  0
  179.6130  174.5630  135.2750 C   0  0  0  0  0  2  0  0  0  0  0  0
  181.9820  173.7390  135.5470 C   0  0  0  0  0  0  0  0  0  0  0  0
  180.8240  173.9650  134.7400 N   0  0  0  0  0  2  0  0  0  0  0  0
  181.9710  174.0260  136.7740 O   0  0  0  0  0  0  0  0  0  0  0  0
  183.1390  173.1490  134.9560 N   0  0  0  0  0  2  0  0  0  0  0  0
  188.3620  177.0750  137.6470 C   0  0  1  0  0  3  0  0  0  0  0  0
  186.8020  175.0700  137.3150 C   0  0  2  0  0  3  0  0  0  0  0  0
  186.1810  177.3000  136.3300 C   0  0  0  0  0  2  0  0  0  0  0  0
  186.4050  175.8110  136.0490 C   0  0  2  0  0  3  0  0  0  0  0  0
  188.1810  175.5410  137.8030 C   0  0  1  0  0  3  0  0  0  0  0  0
  186.6670  173.2920  136.9730 S   0  0  0  0  0  0  0  0  0  0  0  0
  189.2010  174.8890  137.0990 O   0  0  0  0  0  1  0  0  0  0  0  0
  184.2970  172.8150  135.7250 C   0  0  0  0  0  3  0  0  0  0  0  0
  187.0160  177.8130  137.5230 C   0  0  0  0  0  2  0  0  0  0  0  0
  185.2600  173.7060  135.9490 C   0  0  0  0  0  0  0  0  0  0  0  0
  185.1730  175.1270  135.4910 C   0  0  0  0  0  2  0  0  0  0  0  0
  189.9480  176.6410  139.3950 O   0  0  0  0  0  1  0  0  0  0  0  0
  189.1850  177.6520  138.8020 C   0  0  2  0  0  3  0  0  0  0  0  0
  188.9490  177.9220  140.9890 C   0  0  0  0  0  1  0  0  0  0  0  0
  188.3390  178.2080  139.7660 O   0  0  0  0  0  0  0  0  0  0  0  0
  181.8930  178.1680  137.8240 N   0  0  0  0  0  2  0  0  0  0  0  0
  181.6620  179.2790  139.8800 O   0  0  0  0  0  0  0  0  0  0  0  0
  182.1620  178.3270  139.2240 C   0  0  0  0  0  0  0  0  0  0  0  0
  183.0710  177.3690  139.9140 C   0  0  0  0  0  2  0  0  0  0  0  0
  184.2700  178.0950  140.5090 C   0  0  0  0  0  2  0  0  0  0  0  0
  184.1080  178.2140  142.0170 C   0  0  0  0  0  2  0  0  0  0  0  0
  185.9700  179.7500  141.7880 O   0  0  0  0  0  1  0  0  0  0  0  0
  185.2780  178.9300  142.6850 C   0  0  1  0  0  3  0  0  0  0  0  0
  184.8900  179.6670  143.9730 C   0  0  1  0  0  3  0  0  0  0  0  0
  183.0440  178.8500  144.8720 C   0  0  0  0  0  1  0  0  0  0  0  0
  183.5050  179.8370  144.0040 O   0  0  0  0  0  0  0  0  0  0  0  0
  185.3330  178.9400  145.2380 C   0  0  0  0  0  2  0  0  0  0  0  0
  186.8770  177.7170  147.2810 O   0  0  0  0  0  0  0  0  0  0  0  0
  186.6300  178.3150  145.0370 N   0  0  0  0  0  2  0  0  0  0  0  0
  187.3230  177.6620  146.1020 C   0  0  0  0  0  0  0  0  0  0  0  0
  188.6210  176.9760  145.8140 C   0  0  0  0  0  2  0  0  0  0  0  0
  191.6610  176.9200  147.8700 O   0  0  0  0  0  0  0  0  0  0  0  0
  191.6880  176.9680  145.5580 N   0  0  0  0  0  2  0  0  0  0  0  0
  190.9930  177.0110  146.8110 C   0  0  0  0  0  0  0  0  0  0  0  0
  189.5680  177.1580  146.9060 N   0  0  0  0  0  2  0  0  0  0  0  0
  191.1190  177.3400  144.2700 C   0  0  0  0  0  2  0  0  0  0  0  0
  191.3500  178.8160  144.0080 C   0  0  0  0  0  1  0  0  0  0  0  0
  1  8  1  0  0  0  0
  1  5  1  0  0  0  0
  2  1  2  0  0  0  0
  3  5  2  0  0  0  0
  4  3  1  0  0  0  0
  5 30  1  0  0  0  0
  6  2  1  0  0  0  0
  6  4  2  0  0  0  0
  7  8  2  0  0  0  0
  8  9  1  0  0  0  0
 10  7  1  0  0  0  0
 11 13  2  0  0  0  0
 12 10  1  0  0  0  0
 12 11  1  0  0  0  0
 14 11  1  0  0  0  0
 14 22  1  0  0  0  0
 15 19  1  0  0  0  0
 15 27  1  1  0  0  0
 16 20  1  6  0  0  0
 16 19  1  0  0  0  0
 17 23  1  0  0  0  0
 18 25  1  1  0  0  0
 18 17  1  0  0  0  0
 18 16  1  0  0  0  0
 19 21  1  6  0  0  0
 22 24  2  0  0  0  0
 23 15  1  0  0  0  0
 24 20  1  0  0  0  0
 25 24  1  0  0  0  0
 27 26  1  1  0  0  0
 27 29  1  0  0  0  0
 29 28  1  0  0  0  0
 30 32  1  0  0  0  0
 32 31  2  0  0  0  0
 32 33  1  0  0  0  0
 33 34  1  0  0  0  0
 34 35  1  0  0  0  0
 35 37  1  0  0  0  0
 37 36  1  6  0  0  0
 37 38  1  0  0  0  0
 38 40  1  0  0  0  0
 38 41  1  1  0  0  0
 40 39  1  0  0  0  0
 43 41  1  0  0  0  0
 43 44  1  0  0  0  0
 44 42  2  0  0  0  0
 45 44  1  0  0  0  0
 45 49  1  0  0  0  0
 47 48  1  0  0  0  0
 48 49  1  0  0  0  0
 48 46  2  0  0  0  0
 50 47  1  0  0  0  0
 51 50  1  0  0  0  0
M  END
>  <MODEL>
8

>  <REMARK>
 VINA RESULT:      -6.5      3.147      5.074
  Name = 
  18 active torsions:
  status: ('A' for Active; 'I' for Inactive)
    1  A    between atoms: C_1  and  C_51
    2  A    between atoms: C_2  and  C_23
    3  A    between atoms: C_2  and  N_49
    4  A    between atoms: C_3  and  C_45
    5  A    between atoms: C_6  and  N_34
    6  A    between atoms: C_6  and  C_41
    7  A    between atoms: N_7  and  C_32
    8  A    between atoms: C_8  and  N_22
    9  A    between atoms: C_13  and  C_17
   10  A    between atoms: C_13  and  C_31
   11  A    between atoms: N_15  and  C_38
   12  A    between atoms: C_17  and  C_47
   13  A    between atoms: C_26  and  N_40
   14  A    between atoms: O_27  and  C_51
   15  A    between atoms: C_28  and  C_29
   16  A    between atoms: C_28  and  O_30
   17  A    between atoms: C_28  and  C_32
   18  A    between atoms: C_29  and  C_31
                            x       y       z     vdW  Elec       q    Type
                         _______ _______ _______ _____ _____    ______ ____

>  <TORSDO>
F 18

$$$$
=
 OpenBabel11032419253D

 51 53  0  0  1  0  0  0  0  0999 V2000
  191.7620  173.1430  136.0280 C   0  0  0  0  0  0  0  0  0  0  0  0
  191.6380  172.1770  135.0110 C   0  0  0  0  0  3  0  0  0  0  0  0
  194.0520  172.3880  136.3840 C   0  0  0  0  0  3  0  0  0  0  0  0
  193.9070  171.4340  135.3780 C   0  0  0  0  0  3  0  0  0  0  0  0
  192.9930  173.2470  136.7240 C   0  0  0  0  0  0  0  0  0  0  0  0
  192.6990  171.3300  134.6890 C   0  0  0  0  0  3  0  0  0  0  0  0
  189.9820  174.7010  135.3820 C   0  0  0  0  0  3  0  0  0  0  0  0
  190.5940  174.0110  136.3470 C   0  0  0  0  0  0  0  0  0  0  0  0
  190.1210  174.1020  137.6550 O   0  0  0  0  0  1  0  0  0  0  0  0
  188.8100  175.5830  135.6570 C   0  0  0  0  0  2  0  0  0  0  0  0
  186.2970  175.3490  135.6220 C   0  0  0  0  0  0  0  0  0  0  0  0
  187.6030  174.7770  135.7330 N   0  0  0  0  0  2  0  0  0  0  0  0
  186.1560  176.5840  135.4170 O   0  0  0  0  0  0  0  0  0  0  0  0
  185.1550  174.4980  135.7080 N   0  0  0  0  0  2  0  0  0  0  0  0
  180.5700  177.6390  140.0720 C   0  0  1  0  0  3  0  0  0  0  0  0
  181.6570  176.8940  137.8750 C   0  0  2  0  0  3  0  0  0  0  0  0
  182.9540  176.7120  140.0240 C   0  0  0  0  0  2  0  0  0  0  0  0
  182.4480  175.9680  138.7830 C   0  0  2  0  0  3  0  0  0  0  0  0
  180.3570  177.3400  138.5640 C   0  0  1  0  0  3  0  0  0  0  0  0
  181.4380  176.0440  136.2850 S   0  0  0  0  0  0  0  0  0  0  0  0
  179.3670  176.3600  138.4300 O   0  0  0  0  0  1  0  0  0  0  0  0
  183.8260  174.9910  135.5180 C   0  0  0  0  0  3  0  0  0  0  0  0
  182.0480  177.9020  140.4140 C   0  0  0  0  0  2  0  0  0  0  0  0
  183.0720  175.3630  136.5480 C   0  0  0  0  0  0  0  0  0  0  0  0
  183.5710  175.3730  137.9580 C   0  0  0  0  0  2  0  0  0  0  0  0
  180.2420  180.0170  140.0670 O   0  0  0  0  0  1  0  0  0  0  0  0
  179.6990  178.8140  140.5290 C   0  0  2  0  0  3  0  0  0  0  0  0
  179.9510  180.1650  142.2670 C   0  0  0  0  0  1  0  0  0  0  0  0
  179.6320  178.8500  141.9240 O   0  0  0  0  0  0  0  0  0  0  0  0
  193.1770  174.2620  137.7250 N   0  0  0  0  0  2  0  0  0  0  0  0
  193.6280  176.1080  136.3450 O   0  0  0  0  0  0  0  0  0  0  0  0
  193.4100  175.6590  137.5010 C   0  0  0  0  0  0  0  0  0  0  0  0
  193.4250  176.5970  138.6590 C   0  0  0  0  0  2  0  0  0  0  0  0
  192.0250  176.7720  139.2300 C   0  0  0  0  0  2  0  0  0  0  0  0
  192.1080  177.2830  140.6610 C   0  0  0  0  0  2  0  0  0  0  0  0
  189.6950  177.2070  140.4460 O   0  0  0  0  0  1  0  0  0  0  0  0
  190.7500  177.6870  141.2270 C   0  0  1  0  0  3  0  0  0  0  0  0
  190.5810  177.3470  142.7130 C   0  0  1  0  0  3  0  0  0  0  0  0
  191.5820  175.8460  143.9890 C   0  0  0  0  0  1  0  0  0  0  0  0
  191.8230  177.0000  143.2480 O   0  0  0  0  0  0  0  0  0  0  0  0
  189.9870  178.4910  143.5280 C   0  0  0  0  0  2  0  0  0  0  0  0
  187.2590  177.9390  142.9760 O   0  0  0  0  0  0  0  0  0  0  0  0
  189.0310  177.9810  144.4970 N   0  0  0  0  0  2  0  0  0  0  0  0
  187.6870  177.6660  144.1320 C   0  0  0  0  0  0  0  0  0  0  0  0
  186.7700  177.0780  145.1590 C   0  0  0  0  0  2  0  0  0  0  0  0
  186.0160  179.8270  147.4720 O   0  0  0  0  0  0  0  0  0  0  0  0
  184.6390  179.2280  145.7130 N   0  0  0  0  0  2  0  0  0  0  0  0
  185.7920  179.0170  146.5380 C   0  0  0  0  0  0  0  0  0  0  0  0
  186.6970  177.9200  146.3450 N   0  0  0  0  0  2  0  0  0  0  0  0
  184.0790  178.2510  144.7890 C   0  0  0  0  0  2  0  0  0  0  0  0
  183.5170  178.9540  143.5690 C   0  0  0  0  0  1  0  0  0  0  0  0
  1  8  1  0  0  0  0
  1  5  1  0  0  0  0
  2  1  2  0  0  0  0
  3  5  2  0  0  0  0
  4  3  1  0  0  0  0
  5 30  1  0  0  0  0
  6  2  1  0  0  0  0
  6  4  2  0  0  0  0
  7 10  1  0  0  0  0
  7  8  2  0  0  0  0
  8  9  1  0  0  0  0
 10 12  1  0  0  0  0
 11 14  1  0  0  0  0
 11 12  1  0  0  0  0
 13 11  2  0  0  0  0
 15 23  1  0  0  0  0
 15 27  1  6  0  0  0
 16 20  1  6  0  0  0
 16 19  1  0  0  0  0
 16 18  1  0  0  0  0
 17 23  1  0  0  0  0
 18 25  1  6  0  0  0
 18 17  1  0  0  0  0
 19 21  1  1  0  0  0
 19 15  1  0  0  0  0
 20 24  1  0  0  0  0
 22 14  1  0  0  0  0
 22 24  2  0  0  0  0
 24 25  1  0  0  0  0
 27 26  1  1  0  0  0
 27 29  1  0  0  0  0
 29 28  1  0  0  0  0
 31 32  2  0  0  0  0
 32 30  1  0  0  0  0
 32 33  1  0  0  0  0
 33 34  1  0  0  0  0
 34 35  1  0  0  0  0
 35 37  1  0  0  0  0
 37 36  1  6  0  0  0
 37 38  1  0  0  0  0
 38 40  1  0  0  0  0
 38 41  1  1  0  0  0
 40 39  1  0  0  0  0
 41 43  1  0  0  0  0
 42 44  2  0  0  0  0
 44 43  1  0  0  0  0
 44 45  1  0  0  0  0
 45 49  1  0  0  0  0
 47 48  1  0  0  0  0
 48 46  2  0  0  0  0
 49 48  1  0  0  0  0
 50 47  1  0  0  0  0
 51 50  1  0  0  0  0
M  END
>  <MODEL>
9

>  <REMARK>
 VINA RESULT:      -6.3      2.793      9.859
  Name = 
  18 active torsions:
  status: ('A' for Active; 'I' for Inactive)
    1  A    between atoms: C_1  and  C_51
    2  A    between atoms: C_2  and  C_23
    3  A    between atoms: C_2  and  N_49
    4  A    between atoms: C_3  and  C_45
    5  A    between atoms: C_6  and  N_34
    6  A    between atoms: C_6  and  C_41
    7  A    between atoms: N_7  and  C_32
    8  A    between atoms: C_8  and  N_22
    9  A    between atoms: C_13  and  C_17
   10  A    between atoms: C_13  and  C_31
   11  A    between atoms: N_15  and  C_38
   12  A    between atoms: C_17  and  C_47
   13  A    between atoms: C_26  and  N_40
   14  A    between atoms: O_27  and  C_51
   15  A    between atoms: C_28  and  C_29
   16  A    between atoms: C_28  and  O_30
   17  A    between atoms: C_28  and  C_32
   18  A    between atoms: C_29  and  C_31
                            x       y       z     vdW  Elec       q    Type
                         _______ _______ _______ _____ _____    ______ ____

>  <TORSDO>
F 18

$$$$
