=
 OpenBabel11032419193D

 25 28  0  0  1  0  0  0  0  0999 V2000
  186.0500  178.1490  144.9120 C   0  0  0  0  0  2  0  0  0  0  0  0
  186.3780  177.2010  143.7770 C   0  0  1  0  0  3  0  0  0  0  0  0
  185.3200  178.9770  142.8480 C   0  0  1  0  0  3  0  0  0  0  0  0
  185.0110  179.0420  144.3230 C   0  0  0  0  0  2  0  0  0  0  0  0
  185.8650  177.7100  142.5670 O   0  0  0  0  0  0  0  0  0  0  0  0
  187.8610  176.9710  143.6940 C   0  0  0  0  0  0  0  0  0  0  0  0
  188.2990  175.9030  143.1310 N   0  0  0  0  0  2  0  0  0  0  0  0
  191.3910  176.6300  147.2830 C   0  0  0  0  0  3  0  0  0  0  0  0
  188.8260  178.0010  144.2240 C   0  0  2  0  0  3  0  0  0  0  0  0
  190.0180  176.6420  147.5860 C   0  0  0  0  0  3  0  0  0  0  0  0
  191.8310  177.0450  146.0600 N   0  0  0  0  0  0  0  0  0  0  0  0
  189.9060  178.3360  143.1800 C   0  0  0  0  0  3  0  0  0  0  0  0
  190.9390  177.4680  145.1270 C   0  0  0  0  0  0  0  0  0  0  0  0
  191.2730  177.9550  143.7740 C   0  0  0  0  0  3  0  0  0  0  0  0
  189.5950  177.4850  145.3800 C   0  0  0  0  0  0  0  0  0  0  0  0
  189.1020  177.0800  146.6200 C   0  0  0  0  0  3  0  0  0  0  0  0
  184.0620  179.2230  142.0120 C   0  0  2  0  0  3  0  0  0  0  0  0
  182.0550  179.7510  143.2570 O   0  0  0  0  0  0  0  0  0  0  0  0
  182.8200  178.6900  142.7380 C   0  0  1  0  0  3  0  0  0  0  0  0
  180.9940  179.4440  142.3920 C   0  0  0  0  0  2  0  0  0  0  0  0
  181.7390  178.3000  141.7660 C   0  0  0  0  0  2  0  0  0  0  0  0
  184.1940  178.5670  140.7540 O   0  0  0  0  0  0  0  0  0  0  0  0
  184.7780  179.1880  139.6480 C   0  0  0  0  0  0  0  0  0  0  0  0
  184.2630  180.2180  139.1390 O   0  0  0  0  0  1  0  0  0  0  0  0
  185.9470  178.6690  139.1090 O   0  0  0  0  0  0  0  0  0  0  0  0
  2  6  1  6  0  0  0
  2  1  1  0  0  0  0
  3 17  1  6  0  0  0
  3  4  1  0  0  0  0
  4  1  1  0  0  0  0
  5  3  1  0  0  0  0
  5  2  1  0  0  0  0
  7  6  2  0  0  0  0
  8 10  1  0  0  0  0
  9  6  1  6  0  0  0
  9 15  1  0  0  0  0
 11  8  2  0  0  0  0
 12 14  2  0  0  0  0
 12  9  1  0  0  0  0
 13 15  2  0  0  0  0
 13 11  1  0  0  0  0
 14 13  1  0  0  0  0
 15 16  1  0  0  0  0
 16 10  2  0  0  0  0
 17 22  1  6  0  0  0
 19 17  1  6  0  0  0
 19 18  1  0  0  0  0
 20 18  1  0  0  0  0
 21 20  1  0  0  0  0
 21 19  1  0  0  0  0
 23 22  1  0  0  0  0
 24 23  1  0  0  0  0
 25 23  2  0  0  0  0
M  END
>  <MODEL>
1

>  <REMARK>
 VINA RESULT:      -7.7      0.000      0.000
  Name = 
  6 active torsions:
  status: ('A' for Active; 'I' for Inactive)
    1  A    between atoms: O_1  and  C_2
    2  A    between atoms: O_1  and  C_13
    3  A    between atoms: C_5  and  C_17
    4  A    between atoms: C_7  and  C_13
    5  A    between atoms: C_8  and  C_17
    6  A    between atoms: C_10  and  C_13
                            x       y       z     vdW  Elec       q    Type
                         _______ _______ _______ _____ _____    ______ ____

>  <TORSDO>
F 6

$$$$
=
 OpenBabel11032419193D

 25 28  0  0  1  0  0  0  0  0999 V2000
  185.0630  178.5970  141.6520 C   0  0  0  0  0  2  0  0  0  0  0  0
  185.8650  177.9250  142.7460 C   0  0  1  0  0  3  0  0  0  0  0  0
  187.3660  178.7970  141.2890 C   0  0  1  0  0  3  0  0  0  0  0  0
  186.0520  178.7560  140.5480 C   0  0  0  0  0  2  0  0  0  0  0  0
  187.2410  178.0160  142.4530 O   0  0  0  0  0  0  0  0  0  0  0  0
  185.5450  178.5320  144.0840 C   0  0  0  0  0  0  0  0  0  0  0  0
  185.1500  179.7530  144.1400 N   0  0  0  0  0  2  0  0  0  0  0  0
  189.4370  177.7280  147.1930 C   0  0  0  0  0  3  0  0  0  0  0  0
  185.6440  177.7070  145.3410 C   0  0  2  0  0  3  0  0  0  0  0  0
  189.3790  177.1600  145.9080 C   0  0  0  0  0  3  0  0  0  0  0  0
  188.3110  178.2340  147.7750 N   0  0  0  0  0  0  0  0  0  0  0  0
  184.8470  178.3500  146.4900 C   0  0  0  0  0  3  0  0  0  0  0  0
  187.1270  178.1920  147.1090 C   0  0  0  0  0  0  0  0  0  0  0  0
  185.8340  178.6870  147.6200 C   0  0  0  0  0  3  0  0  0  0  0  0
  187.0320  177.6570  145.8550 C   0  0  0  0  0  0  0  0  0  0  0  0
  188.1560  177.1190  145.2260 C   0  0  0  0  0  3  0  0  0  0  0  0
  188.5080  178.2820  140.4110 C   0  0  2  0  0  3  0  0  0  0  0  0
  188.7950  179.1010  138.1520 O   0  0  0  0  0  0  0  0  0  0  0  0
  188.0650  178.1970  138.9440 C   0  0  1  0  0  3  0  0  0  0  0  0
  189.3940  178.0440  137.4500 C   0  0  0  0  0  2  0  0  0  0  0  0
  188.6690  177.0030  138.2550 C   0  0  0  0  0  2  0  0  0  0  0  0
  188.9060  176.9890  140.8620 O   0  0  0  0  0  0  0  0  0  0  0  0
  190.1610  176.7510  141.4250 C   0  0  0  0  0  0  0  0  0  0  0  0
  191.1640  177.4290  141.0770 O   0  0  0  0  0  0  0  0  0  0  0  0
  190.3030  175.7610  142.3870 O   0  0  0  0  0  1  0  0  0  0  0  0
  1  2  1  0  0  0  0
  2  6  1  1  0  0  0
  3 17  1  6  0  0  0
  3  5  1  0  0  0  0
  4  3  1  0  0  0  0
  4  1  1  0  0  0  0
  5  2  1  0  0  0  0
  6  7  2  0  0  0  0
  8 11  1  0  0  0  0
  9  6  1  6  0  0  0
  9 15  1  0  0  0  0
  9 12  1  0  0  0  0
 10  8  2  0  0  0  0
 12 14  2  0  0  0  0
 13 14  1  0  0  0  0
 13 11  2  0  0  0  0
 15 13  1  0  0  0  0
 16 15  2  0  0  0  0
 16 10  1  0  0  0  0
 17 22  1  1  0  0  0
 18 19  1  0  0  0  0
 19 17  1  1  0  0  0
 20 18  1  0  0  0  0
 20 21  1  0  0  0  0
 21 19  1  0  0  0  0
 22 23  1  0  0  0  0
 23 25  1  0  0  0  0
 24 23  2  0  0  0  0
M  END
>  <MODEL>
2

>  <REMARK>
 VINA RESULT:      -7.6      3.054      5.195
  Name = 
  6 active torsions:
  status: ('A' for Active; 'I' for Inactive)
    1  A    between atoms: O_1  and  C_2
    2  A    between atoms: O_1  and  C_13
    3  A    between atoms: C_5  and  C_17
    4  A    between atoms: C_7  and  C_13
    5  A    between atoms: C_8  and  C_17
    6  A    between atoms: C_10  and  C_13
                            x       y       z     vdW  Elec       q    Type
                         _______ _______ _______ _____ _____    ______ ____

>  <TORSDO>
F 6

$$$$
=
 OpenBabel11032419193D

 25 28  0  0  1  0  0  0  0  0999 V2000
  191.9040  177.5220  141.2420 C   0  0  0  0  0  2  0  0  0  0  0  0
  190.4670  177.5480  141.7190 C   0  0  1  0  0  3  0  0  0  0  0  0
  190.4740  176.4010  139.7650 C   0  0  1  0  0  3  0  0  0  0  0  0
  191.7790  177.1580  139.8010 C   0  0  0  0  0  2  0  0  0  0  0  0
  189.6360  176.9180  140.7700 O   0  0  0  0  0  0  0  0  0  0  0  0
  190.3480  176.9010  143.0710 C   0  0  0  0  0  0  0  0  0  0  0  0
  190.1390  175.6360  143.1440 N   0  0  0  0  0  2  0  0  0  0  0  0
  187.4070  177.3020  147.1520 C   0  0  0  0  0  3  0  0  0  0  0  0
  190.5160  177.7170  144.3270 C   0  0  2  0  0  3  0  0  0  0  0  0
  187.0480  177.8670  145.9150 C   0  0  0  0  0  3  0  0  0  0  0  0
  188.6960  176.9220  147.3870 N   0  0  0  0  0  0  0  0  0  0  0  0
  191.6620  177.1680  145.1960 C   0  0  0  0  0  3  0  0  0  0  0  0
  189.6380  177.0850  146.4230 C   0  0  0  0  0  0  0  0  0  0  0  0
  191.0660  176.7330  146.5460 C   0  0  0  0  0  3  0  0  0  0  0  0
  189.3270  177.6220  145.2050 C   0  0  0  0  0  0  0  0  0  0  0  0
  188.0240  178.0350  144.9230 C   0  0  0  0  0  3  0  0  0  0  0  0
  189.8100  176.5180  138.3920 C   0  0  2  0  0  3  0  0  0  0  0  0
  190.6740  174.3010  137.9500 O   0  0  0  0  0  0  0  0  0  0  0  0
  190.4820  175.5750  137.3860 C   0  0  1  0  0  3  0  0  0  0  0  0
  189.7750  173.7310  137.0350 C   0  0  0  0  0  2  0  0  0  0  0  0
  189.4940  175.0520  136.3770 C   0  0  0  0  0  2  0  0  0  0  0  0
  189.9150  177.8610  137.9280 O   0  0  0  0  0  0  0  0  0  0  0  0
  188.8330  178.7420  137.9480 C   0  0  0  0  0  0  0  0  0  0  0  0
  188.8800  179.8380  137.3290 O   0  0  0  0  0  0  0  0  0  0  0  0
  187.6860  178.4030  138.6530 O   0  0  0  0  0  1  0  0  0  0  0  0
  1  2  1  0  0  0  0
  2  6  1  1  0  0  0
  3 17  1  6  0  0  0
  3  4  1  0  0  0  0
  3  5  1  0  0  0  0
  4  1  1  0  0  0  0
  5  2  1  0  0  0  0
  6  7  2  0  0  0  0
  8 11  1  0  0  0  0
  9  6  1  6  0  0  0
  9 12  1  0  0  0  0
  9 15  1  0  0  0  0
 10  8  2  0  0  0  0
 12 14  2  0  0  0  0
 13 14  1  0  0  0  0
 13 11  2  0  0  0  0
 15 13  1  0  0  0  0
 16 15  2  0  0  0  0
 16 10  1  0  0  0  0
 17 22  1  6  0  0  0
 19 18  1  0  0  0  0
 19 17  1  1  0  0  0
 20 18  1  0  0  0  0
 21 20  1  0  0  0  0
 21 19  1  0  0  0  0
 22 23  1  0  0  0  0
 23 25  1  0  0  0  0
 24 23  2  0  0  0  0
M  END
>  <MODEL>
3

>  <REMARK>
 VINA RESULT:      -7.6      3.791      5.966
  Name = 
  6 active torsions:
  status: ('A' for Active; 'I' for Inactive)
    1  A    between atoms: O_1  and  C_2
    2  A    between atoms: O_1  and  C_13
    3  A    between atoms: C_5  and  C_17
    4  A    between atoms: C_7  and  C_13
    5  A    between atoms: C_8  and  C_17
    6  A    between atoms: C_10  and  C_13
                            x       y       z     vdW  Elec       q    Type
                         _______ _______ _______ _____ _____    ______ ____

>  <TORSDO>
F 6

$$$$
=
 OpenBabel11032419193D

 25 28  0  0  1  0  0  0  0  0999 V2000
  191.9710  177.3680  141.4680 C   0  0  0  0  0  2  0  0  0  0  0  0
  190.8450  177.7220  142.4160 C   0  0  1  0  0  3  0  0  0  0  0  0
  189.8730  176.9120  140.5370 C   0  0  1  0  0  3  0  0  0  0  0  0
  191.2870  177.2640  140.1480 C   0  0  0  0  0  2  0  0  0  0  0  0
  189.6030  177.4910  141.7910 O   0  0  0  0  0  0  0  0  0  0  0  0
  190.9700  176.9460  143.6980 C   0  0  0  0  0  0  0  0  0  0  0  0
  191.1730  175.6790  143.6450 N   0  0  0  0  0  2  0  0  0  0  0  0
  187.1830  177.3700  147.0060 C   0  0  0  0  0  3  0  0  0  0  0  0
  190.9020  177.6500  145.0280 C   0  0  2  0  0  3  0  0  0  0  0  0
  187.1810  178.0550  145.7770 C   0  0  0  0  0  3  0  0  0  0  0  0
  188.3400  176.8400  147.4970 N   0  0  0  0  0  0  0  0  0  0  0  0
  191.7550  176.9230  146.0840 C   0  0  0  0  0  3  0  0  0  0  0  0
  189.4970  176.9700  146.7960 C   0  0  0  0  0  0  0  0  0  0  0  0
  190.8180  176.4610  147.2130 C   0  0  0  0  0  3  0  0  0  0  0  0
  189.5330  177.6200  145.5940 C   0  0  0  0  0  0  0  0  0  0  0  0
  188.3770  178.1860  145.0590 C   0  0  0  0  0  3  0  0  0  0  0  0
  188.8750  177.4050  139.4870 C   0  0  2  0  0  3  0  0  0  0  0  0
  189.0360  176.9590  137.1140 O   0  0  0  0  0  0  0  0  0  0  0  0
  189.5910  177.7110  138.1650 C   0  0  1  0  0  3  0  0  0  0  0  0
  188.5720  178.1260  136.4870 C   0  0  0  0  0  2  0  0  0  0  0  0
  189.1180  179.0110  137.5720 C   0  0  0  0  0  2  0  0  0  0  0  0
  188.2310  178.5840  139.9620 O   0  0  0  0  0  0  0  0  0  0  0  0
  186.8710  178.6160  140.2730 C   0  0  0  0  0  0  0  0  0  0  0  0
  186.0000  178.6180  139.3620 O   0  0  0  0  0  0  0  0  0  0  0  0
  186.4710  178.6370  141.6020 O   0  0  0  0  0  1  0  0  0  0  0  0
  1  2  1  0  0  0  0
  2  6  1  1  0  0  0
  3 17  1  6  0  0  0
  3  5  1  0  0  0  0
  4  3  1  0  0  0  0
  4  1  1  0  0  0  0
  5  2  1  0  0  0  0
  7  6  2  0  0  0  0
  8 11  1  0  0  0  0
  9  6  1  6  0  0  0
  9 15  1  0  0  0  0
  9 12  1  0  0  0  0
 10  8  2  0  0  0  0
 12 14  2  0  0  0  0
 13 14  1  0  0  0  0
 13 11  2  0  0  0  0
 15 13  1  0  0  0  0
 16 15  2  0  0  0  0
 16 10  1  0  0  0  0
 17 22  1  1  0  0  0
 18 19  1  0  0  0  0
 19 17  1  1  0  0  0
 20 18  1  0  0  0  0
 20 21  1  0  0  0  0
 21 19  1  0  0  0  0
 22 23  1  0  0  0  0
 23 25  1  0  0  0  0
 24 23  2  0  0  0  0
M  END
>  <MODEL>
4

>  <REMARK>
 VINA RESULT:      -7.5      2.802      5.203
  Name = 
  6 active torsions:
  status: ('A' for Active; 'I' for Inactive)
    1  A    between atoms: O_1  and  C_2
    2  A    between atoms: O_1  and  C_13
    3  A    between atoms: C_5  and  C_17
    4  A    between atoms: C_7  and  C_13
    5  A    between atoms: C_8  and  C_17
    6  A    between atoms: C_10  and  C_13
                            x       y       z     vdW  Elec       q    Type
                         _______ _______ _______ _____ _____    ______ ____

>  <TORSDO>
F 6

$$$$
=
 OpenBabel11032419193D

 25 28  0  0  1  0  0  0  0  0999 V2000
  183.8060  178.9930  145.3850 C   0  0  0  0  0  2  0  0  0  0  0  0
  185.0880  178.2030  145.2320 C   0  0  1  0  0  3  0  0  0  0  0  0
  184.8650  179.4390  143.3460 C   0  0  1  0  0  3  0  0  0  0  0  0
  183.5010  179.4260  143.9910 C   0  0  0  0  0  2  0  0  0  0  0  0
  185.6560  178.4550  143.9670 O   0  0  0  0  0  0  0  0  0  0  0  0
  186.0470  178.5320  146.3420 C   0  0  0  0  0  0  0  0  0  0  0  0
  185.9890  179.6890  146.8980 N   0  0  0  0  0  2  0  0  0  0  0  0
  190.7130  177.4450  144.7590 C   0  0  0  0  0  3  0  0  0  0  0  0
  187.0350  177.5040  146.8300 C   0  0  2  0  0  3  0  0  0  0  0  0
  189.5730  177.1130  144.0050 C   0  0  0  0  0  3  0  0  0  0  0  0
  190.5960  177.7630  146.0810 N   0  0  0  0  0  0  0  0  0  0  0  0
  187.5830  177.8770  148.2190 C   0  0  0  0  0  3  0  0  0  0  0  0
  189.3740  177.7630  146.6730 C   0  0  0  0  0  0  0  0  0  0  0  0
  189.1040  178.0710  148.0910 C   0  0  0  0  0  3  0  0  0  0  0  0
  188.2410  177.4550  145.9720 C   0  0  0  0  0  0  0  0  0  0  0  0
  188.3140  177.1140  144.6210 C   0  0  0  0  0  3  0  0  0  0  0  0
  184.7640  179.1830  141.8420 C   0  0  2  0  0  3  0  0  0  0  0  0
  182.7640  179.4270  140.5010 O   0  0  0  0  0  0  0  0  0  0  0  0
  183.3790  178.6280  141.4810 C   0  0  1  0  0  3  0  0  0  0  0  0
  182.8100  178.3740  139.5750 C   0  0  0  0  0  2  0  0  0  0  0  0
  183.4840  177.4510  140.5490 C   0  0  0  0  0  2  0  0  0  0  0  0
  185.7660  178.2480  141.4520 O   0  0  0  0  0  0  0  0  0  0  0  0
  186.8800  178.6220  140.6980 C   0  0  0  0  0  0  0  0  0  0  0  0
  186.8350  178.6280  139.4390 O   0  0  0  0  0  0  0  0  0  0  0  0
  188.0490  179.0000  141.3440 O   0  0  0  0  0  1  0  0  0  0  0  0
  2  1  1  0  0  0  0
  2  6  1  1  0  0  0
  3 17  1  6  0  0  0
  3  5  1  0  0  0  0
  3  4  1  0  0  0  0
  4  1  1  0  0  0  0
  5  2  1  0  0  0  0
  6  7  2  0  0  0  0
  8 11  1  0  0  0  0
  9  6  1  6  0  0  0
  9 12  1  0  0  0  0
 10 16  1  0  0  0  0
 10  8  2  0  0  0  0
 11 13  2  0  0  0  0
 13 14  1  0  0  0  0
 14 12  2  0  0  0  0
 15 13  1  0  0  0  0
 15  9  1  0  0  0  0
 16 15  2  0  0  0  0
 17 22  1  1  0  0  0
 18 19  1  0  0  0  0
 19 17  1  6  0  0  0
 20 18  1  0  0  0  0
 20 21  1  0  0  0  0
 21 19  1  0  0  0  0
 23 25  1  0  0  0  0
 23 22  1  0  0  0  0
 24 23  2  0  0  0  0
M  END
>  <MODEL>
5

>  <REMARK>
 VINA RESULT:      -7.4      1.955      2.954
  Name = 
  6 active torsions:
  status: ('A' for Active; 'I' for Inactive)
    1  A    between atoms: O_1  and  C_2
    2  A    between atoms: O_1  and  C_13
    3  A    between atoms: C_5  and  C_17
    4  A    between atoms: C_7  and  C_13
    5  A    between atoms: C_8  and  C_17
    6  A    between atoms: C_10  and  C_13
                            x       y       z     vdW  Elec       q    Type
                         _______ _______ _______ _____ _____    ______ ____

>  <TORSDO>
F 6

$$$$
=
 OpenBabel11032419193D

 25 28  0  0  1  0  0  0  0  0999 V2000
  188.2510  178.1980  142.0630 C   0  0  0  0  0  2  0  0  0  0  0  0
  188.7540  176.7720  141.9790 C   0  0  1  0  0  3  0  0  0  0  0  0
  189.3830  177.7910  140.0550 C   0  0  1  0  0  3  0  0  0  0  0  0
  188.3050  178.6650  140.6490 C   0  0  0  0  0  2  0  0  0  0  0  0
  189.3710  176.5560  140.7300 O   0  0  0  0  0  0  0  0  0  0  0  0
  189.6910  176.4750  143.1160 C   0  0  0  0  0  0  0  0  0  0  0  0
  190.2180  175.3070  143.2050 N   0  0  0  0  0  2  0  0  0  0  0  0
  188.0360  177.2610  147.8180 C   0  0  0  0  0  3  0  0  0  0  0  0
  190.0450  177.5460  144.1160 C   0  0  2  0  0  3  0  0  0  0  0  0
  187.2280  177.5030  146.6920 C   0  0  0  0  0  3  0  0  0  0  0  0
  189.3870  177.1310  147.6810 N   0  0  0  0  0  0  0  0  0  0  0  0
  191.4800  177.3600  144.6420 C   0  0  0  0  0  3  0  0  0  0  0  0
  189.9570  177.2320  146.4520 C   0  0  0  0  0  0  0  0  0  0  0  0
  191.4000  177.1270  146.1610 C   0  0  0  0  0  3  0  0  0  0  0  0
  189.2050  177.4570  145.3330 C   0  0  0  0  0  0  0  0  0  0  0  0
  187.8210  177.6060  145.4270 C   0  0  0  0  0  3  0  0  0  0  0  0
  189.1630  177.5910  138.5550 C   0  0  2  0  0  3  0  0  0  0  0  0
  187.8280  179.0680  137.1800 O   0  0  0  0  0  0  0  0  0  0  0  0
  187.7570  178.0520  138.1490 C   0  0  1  0  0  3  0  0  0  0  0  0
  187.2240  178.2370  136.2240 C   0  0  0  0  0  2  0  0  0  0  0  0
  187.1180  177.0870  137.1860 C   0  0  0  0  0  2  0  0  0  0  0  0
  189.3210  176.2110  138.2340 O   0  0  0  0  0  0  0  0  0  0  0  0
  190.4540  175.7250  137.5790 C   0  0  0  0  0  0  0  0  0  0  0  0
  190.9890  176.3760  136.6430 O   0  0  0  0  0  0  0  0  0  0  0  0
  191.0040  174.5110  137.9700 O   0  0  0  0  0  1  0  0  0  0  0  0
  2  1  1  0  0  0  0
  2  6  1  1  0  0  0
  3 17  1  6  0  0  0
  3  4  1  0  0  0  0
  3  5  1  0  0  0  0
  4  1  1  0  0  0  0
  5  2  1  0  0  0  0
  6  7  2  0  0  0  0
  9  6  1  6  0  0  0
  9 12  1  0  0  0  0
  9 15  1  0  0  0  0
 10  8  2  0  0  0  0
 11  8  1  0  0  0  0
 12 14  2  0  0  0  0
 13 11  2  0  0  0  0
 14 13  1  0  0  0  0
 15 16  2  0  0  0  0
 15 13  1  0  0  0  0
 16 10  1  0  0  0  0
 17 22  1  1  0  0  0
 18 19  1  0  0  0  0
 19 17  1  6  0  0  0
 20 18  1  0  0  0  0
 20 21  1  0  0  0  0
 21 19  1  0  0  0  0
 23 25  1  0  0  0  0
 23 22  1  0  0  0  0
 24 23  2  0  0  0  0
M  END
>  <MODEL>
6

>  <REMARK>
 VINA RESULT:      -7.4      3.749      5.024
  Name = 
  6 active torsions:
  status: ('A' for Active; 'I' for Inactive)
    1  A    between atoms: O_1  and  C_2
    2  A    between atoms: O_1  and  C_13
    3  A    between atoms: C_5  and  C_17
    4  A    between atoms: C_7  and  C_13
    5  A    between atoms: C_8  and  C_17
    6  A    between atoms: C_10  and  C_13
                            x       y       z     vdW  Elec       q    Type
                         _______ _______ _______ _____ _____    ______ ____

>  <TORSDO>
F 6

$$$$
=
 OpenBabel11032419193D

 25 28  0  0  1  0  0  0  0  0999 V2000
  191.4070  177.8980  142.6980 C   0  0  0  0  0  2  0  0  0  0  0  0
  189.9040  177.7670  142.8200 C   0  0  1  0  0  3  0  0  0  0  0  0
  190.4960  176.6550  140.9370 C   0  0  1  0  0  3  0  0  0  0  0  0
  191.6680  177.5440  141.2740 C   0  0  0  0  0  2  0  0  0  0  0  0
  189.3930  177.0680  141.7070 O   0  0  0  0  0  0  0  0  0  0  0  0
  189.5350  177.0920  144.1120 C   0  0  0  0  0  0  0  0  0  0  0  0
  190.4470  176.8840  144.9920 N   0  0  0  0  0  2  0  0  0  0  0  0
  186.1800  179.0100  147.3560 C   0  0  0  0  0  3  0  0  0  0  0  0
  188.1060  176.7040  144.3910 C   0  0  2  0  0  3  0  0  0  0  0  0
  187.2780  178.2440  147.7850 C   0  0  0  0  0  3  0  0  0  0  0  0
  185.7900  178.9840  146.0490 N   0  0  0  0  0  0  0  0  0  0  0  0
  187.1900  177.0750  143.2110 C   0  0  0  0  0  3  0  0  0  0  0  0
  186.4670  178.2180  145.1550 C   0  0  0  0  0  0  0  0  0  0  0  0
  186.1470  178.0840  143.7200 C   0  0  0  0  0  3  0  0  0  0  0  0
  187.5450  177.4660  145.5310 C   0  0  0  0  0  0  0  0  0  0  0  0
  187.9720  177.4540  146.8580 C   0  0  0  0  0  3  0  0  0  0  0  0
  190.1680  176.7210  139.4440 C   0  0  2  0  0  3  0  0  0  0  0  0
  190.6610  174.7720  138.0960 O   0  0  0  0  0  0  0  0  0  0  0  0
  191.2150  175.9510  138.6270 C   0  0  1  0  0  3  0  0  0  0  0  0
  190.8140  175.2580  136.7880 C   0  0  0  0  0  2  0  0  0  0  0  0
  191.4010  176.5570  137.2620 C   0  0  0  0  0  2  0  0  0  0  0  0
  190.1460  178.0830  139.0240 O   0  0  0  0  0  0  0  0  0  0  0  0
  188.9710  178.7190  138.6200 C   0  0  0  0  0  0  0  0  0  0  0  0
  187.8990  178.5650  139.2650 O   0  0  0  0  0  1  0  0  0  0  0  0
  188.9840  179.5390  137.5000 O   0  0  0  0  0  0  0  0  0  0  0  0
  1  2  1  0  0  0  0
  2  6  1  1  0  0  0
  3 17  1  6  0  0  0
  3  4  1  0  0  0  0
  3  5  1  0  0  0  0
  4  1  1  0  0  0  0
  5  2  1  0  0  0  0
  6  7  2  0  0  0  0
  8 10  1  0  0  0  0
  9  6  1  6  0  0  0
  9 15  1  0  0  0  0
 11  8  2  0  0  0  0
 12 14  2  0  0  0  0
 12  9  1  0  0  0  0
 13 15  2  0  0  0  0
 13 11  1  0  0  0  0
 14 13  1  0  0  0  0
 15 16  1  0  0  0  0
 16 10  2  0  0  0  0
 17 22  1  6  0  0  0
 18 19  1  0  0  0  0
 19 17  1  1  0  0  0
 20 21  1  0  0  0  0
 20 18  1  0  0  0  0
 21 19  1  0  0  0  0
 23 22  1  0  0  0  0
 23 24  1  0  0  0  0
 25 23  2  0  0  0  0
M  END
>  <MODEL>
7

>  <REMARK>
 VINA RESULT:      -7.3      3.501      6.100
  Name = 
  6 active torsions:
  status: ('A' for Active; 'I' for Inactive)
    1  A    between atoms: O_1  and  C_2
    2  A    between atoms: O_1  and  C_13
    3  A    between atoms: C_5  and  C_17
    4  A    between atoms: C_7  and  C_13
    5  A    between atoms: C_8  and  C_17
    6  A    between atoms: C_10  and  C_13
                            x       y       z     vdW  Elec       q    Type
                         _______ _______ _______ _____ _____    ______ ____

>  <TORSDO>
F 6

$$$$
=
 OpenBabel11032419193D

 25 28  0  0  1  0  0  0  0  0999 V2000
  191.0740  177.4440  141.0550 C   0  0  0  0  0  2  0  0  0  0  0  0
  189.7850  177.8540  141.7350 C   0  0  1  0  0  3  0  0  0  0  0  0
  189.1950  176.8240  139.8050 C   0  0  1  0  0  3  0  0  0  0  0  0
  190.6530  177.1830  139.6490 C   0  0  0  0  0  2  0  0  0  0  0  0
  188.6860  177.5180  140.9180 O   0  0  0  0  0  0  0  0  0  0  0  0
  189.6780  177.2180  143.0920 C   0  0  0  0  0  0  0  0  0  0  0  0
  189.2290  176.0180  143.1880 N   0  0  0  0  0  2  0  0  0  0  0  0
  187.9950  177.0430  147.8460 C   0  0  0  0  0  3  0  0  0  0  0  0
  190.1320  177.9590  144.3230 C   0  0  2  0  0  3  0  0  0  0  0  0
  187.2570  177.6520  146.8150 C   0  0  0  0  0  3  0  0  0  0  0  0
  189.3230  176.7790  147.6790 N   0  0  0  0  0  0  0  0  0  0  0  0
  191.5160  177.4700  144.7850 C   0  0  0  0  0  3  0  0  0  0  0  0
  189.9370  177.1020  146.5110 C   0  0  0  0  0  0  0  0  0  0  0  0
  191.3640  176.8870  146.2010 C   0  0  0  0  0  3  0  0  0  0  0  0
  189.2520  177.6860  145.4830 C   0  0  0  0  0  0  0  0  0  0  0  0
  187.8950  177.9830  145.6130 C   0  0  0  0  0  3  0  0  0  0  0  0
  188.4060  177.1720  138.5420 C   0  0  2  0  0  3  0  0  0  0  0  0
  189.0370  176.6150  136.2730 O   0  0  0  0  0  0  0  0  0  0  0  0
  189.3580  177.4380  137.3670 C   0  0  1  0  0  3  0  0  0  0  0  0
  188.6750  177.7320  135.5040 C   0  0  0  0  0  2  0  0  0  0  0  0
  188.9760  178.6890  136.6220 C   0  0  0  0  0  2  0  0  0  0  0  0
  187.6150  178.3330  138.7830 O   0  0  0  0  0  0  0  0  0  0  0  0
  186.2240  178.3230  138.6680 C   0  0  0  0  0  0  0  0  0  0  0  0
  185.6590  177.7170  137.7190 O   0  0  0  0  0  0  0  0  0  0  0  0
  185.4530  178.9810  139.6160 O   0  0  0  0  0  1  0  0  0  0  0  0
  1  2  1  0  0  0  0
  2  6  1  1  0  0  0
  3 17  1  6  0  0  0
  3  5  1  0  0  0  0
  4  3  1  0  0  0  0
  4  1  1  0  0  0  0
  5  2  1  0  0  0  0
  6  7  2  0  0  0  0
  9  6  1  6  0  0  0
  9 12  1  0  0  0  0
  9 15  1  0  0  0  0
 10  8  2  0  0  0  0
 11  8  1  0  0  0  0
 12 14  2  0  0  0  0
 13 11  2  0  0  0  0
 14 13  1  0  0  0  0
 15 16  2  0  0  0  0
 15 13  1  0  0  0  0
 16 10  1  0  0  0  0
 17 22  1  1  0  0  0
 18 19  1  0  0  0  0
 19 17  1  1  0  0  0
 20 18  1  0  0  0  0
 20 21  1  0  0  0  0
 21 19  1  0  0  0  0
 23 22  1  0  0  0  0
 23 25  1  0  0  0  0
 24 23  2  0  0  0  0
M  END
>  <MODEL>
8

>  <REMARK>
 VINA RESULT:      -7.3      2.981      5.075
  Name = 
  6 active torsions:
  status: ('A' for Active; 'I' for Inactive)
    1  A    between atoms: O_1  and  C_2
    2  A    between atoms: O_1  and  C_13
    3  A    between atoms: C_5  and  C_17
    4  A    between atoms: C_7  and  C_13
    5  A    between atoms: C_8  and  C_17
    6  A    between atoms: C_10  and  C_13
                            x       y       z     vdW  Elec       q    Type
                         _______ _______ _______ _____ _____    ______ ____

>  <TORSDO>
F 6

$$$$
=
 OpenBabel11032419193D

 25 28  0  0  1  0  0  0  0  0999 V2000
  188.0990  178.2530  140.5670 C   0  0  0  0  0  2  0  0  0  0  0  0
  188.8610  177.1590  141.2860 C   0  0  1  0  0  3  0  0  0  0  0  0
  190.1350  177.7740  139.5150 C   0  0  1  0  0  3  0  0  0  0  0  0
  188.7500  178.3000  139.2270 C   0  0  0  0  0  2  0  0  0  0  0  0
  190.0460  176.8620  140.5830 O   0  0  0  0  0  0  0  0  0  0  0  0
  189.1480  177.5620  142.7060 C   0  0  0  0  0  0  0  0  0  0  0  0
  189.7580  178.6690  142.9320 N   0  0  0  0  0  2  0  0  0  0  0  0
  191.0360  176.9860  147.3500 C   0  0  0  0  0  3  0  0  0  0  0  0
  188.6890  176.6990  143.8530 C   0  0  2  0  0  3  0  0  0  0  0  0
  191.6800  176.4660  146.2130 C   0  0  0  0  0  3  0  0  0  0  0  0
  189.7270  177.3650  147.2870 N   0  0  0  0  0  0  0  0  0  0  0  0
  187.3670  177.2220  144.4450 C   0  0  0  0  0  3  0  0  0  0  0  0
  189.0410  177.2440  146.1200 C   0  0  0  0  0  0  0  0  0  0  0  0
  187.6240  177.6000  145.9140 C   0  0  0  0  0  3  0  0  0  0  0  0
  189.6350  176.7530  144.9910 C   0  0  0  0  0  0  0  0  0  0  0  0
  190.9680  176.3430  145.0120 C   0  0  0  0  0  3  0  0  0  0  0  0
  190.7360  177.1040  138.2790 C   0  0  2  0  0  3  0  0  0  0  0  0
  189.5620  176.6010  136.2240 O   0  0  0  0  0  0  0  0  0  0  0  0
  189.6890  176.2320  137.5750 C   0  0  1  0  0  3  0  0  0  0  0  0
  190.0620  175.3570  135.8090 C   0  0  0  0  0  2  0  0  0  0  0  0
  190.2480  174.8790  137.2210 C   0  0  0  0  0  2  0  0  0  0  0  0
  191.8430  176.2950  138.6700 O   0  0  0  0  0  0  0  0  0  0  0  0
  193.1620  176.7420  138.5730 C   0  0  0  0  0  0  0  0  0  0  0  0
  193.7900  177.1280  139.5950 O   0  0  0  0  0  1  0  0  0  0  0  0
  193.7930  176.7520  137.3370 O   0  0  0  0  0  0  0  0  0  0  0  0
  1  2  1  0  0  0  0
  2  6  1  1  0  0  0
  3 17  1  6  0  0  0
  3  5  1  0  0  0  0
  4  3  1  0  0  0  0
  4  1  1  0  0  0  0
  5  2  1  0  0  0  0
  6  7  2  0  0  0  0
  9  6  1  6  0  0  0
  9 12  1  0  0  0  0
  9 15  1  0  0  0  0
 10  8  2  0  0  0  0
 11  8  1  0  0  0  0
 12 14  2  0  0  0  0
 13 11  2  0  0  0  0
 14 13  1  0  0  0  0
 15 16  2  0  0  0  0
 15 13  1  0  0  0  0
 16 10  1  0  0  0  0
 17 22  1  1  0  0  0
 18 19  1  0  0  0  0
 19 17  1  1  0  0  0
 20 18  1  0  0  0  0
 20 21  1  0  0  0  0
 21 19  1  0  0  0  0
 23 22  1  0  0  0  0
 23 24  1  0  0  0  0
 25 23  2  0  0  0  0
M  END
>  <MODEL>
9

>  <REMARK>
 VINA RESULT:      -7.3      4.438      6.383
  Name = 
  6 active torsions:
  status: ('A' for Active; 'I' for Inactive)
    1  A    between atoms: O_1  and  C_2
    2  A    between atoms: O_1  and  C_13
    3  A    between atoms: C_5  and  C_17
    4  A    between atoms: C_7  and  C_13
    5  A    between atoms: C_8  and  C_17
    6  A    between atoms: C_10  and  C_13
                            x       y       z     vdW  Elec       q    Type
                         _______ _______ _______ _____ _____    ______ ____

>  <TORSDO>
F 6

$$$$
