=
 OpenBabel11042413103D

 32 38  0  0  1  0  0  0  0  0999 V2000
  187.4090  178.0190  143.4120 C   0  0  0  0  0  0  0  0  0  0  0  0
  187.9210  178.3070  140.6210 C   0  0  0  0  0  0  0  0  0  0  0  0
  182.9880  179.0800  140.0780 C   0  0  0  0  0  2  0  0  0  0  0  0
  181.8500  178.7420  143.5290 N   0  0  0  0  0  2  0  0  0  0  0  0
  179.2030  179.2120  142.9900 N   0  0  0  0  0  0  0  0  0  0  0  0
  184.2490  178.7870  140.8140 C   0  0  0  0  0  0  0  0  0  0  0  0
  188.7090  177.9620  142.8910 O   0  0  0  0  0  0  0  0  0  0  0  0
  188.1710  178.6060  139.3850 N   0  0  0  0  0  0  0  0  0  0  0  0
  181.9890  179.0690  141.1530 N   0  0  0  0  0  0  0  0  0  0  0  0
  186.3290  178.2530  142.5400 C   0  0  0  0  0  0  0  0  0  0  0  0
  179.2930  179.0030  144.3330 C   0  0  0  0  0  2  0  0  0  0  0  0
  180.4400  178.9390  143.6080 C   0  0  0  0  0  0  0  0  0  0  0  0
  185.8550  178.0020  145.2820 C   0  0  0  0  0  3  0  0  0  0  0  0
  188.9880  177.7290  141.5080 C   0  0  0  0  0  2  0  0  0  0  0  0
  185.0140  178.3650  143.0510 C   0  0  0  0  0  0  0  0  0  0  0  0
  187.1740  177.8910  144.8050 C   0  0  0  0  0  0  0  0  0  0  0  0
  185.5060  178.6940  140.3120 N   0  0  0  0  0  0  0  0  0  0  0  0
  184.7850  178.2370  144.4190 C   0  0  0  0  0  3  0  0  0  0  0  0
  186.5530  178.4240  141.1500 C   0  0  0  0  0  0  0  0  0  0  0  0
  183.9870  178.6280  142.1440 C   0  0  0  0  0  0  0  0  0  0  0  0
  182.5600  178.8180  142.2920 C   0  0  0  0  0  0  0  0  0  0  0  0
  188.2670  177.6360  145.7870 C   0  0  0  0  0  0  0  0  0  0  0  0
  189.5130  177.1280  145.3840 C   0  0  0  0  0  3  0  0  0  0  0  0
  190.2950  177.1310  147.6740 C   0  0  0  0  0  3  0  0  0  0  0  0
  188.0520  177.8780  147.1560 C   0  0  0  0  0  3  0  0  0  0  0  0
  190.5210  176.8800  146.3200 C   0  0  0  0  0  3  0  0  0  0  0  0
  189.0600  177.6300  148.0940 C   0  0  0  0  0  3  0  0  0  0  0  0
  189.4310  178.4610  138.8480 O   0  0  0  0  0  0  0  0  0  0  0  0
  189.4300  175.2960  137.2180 C   0  0  0  0  0  1  0  0  0  0  0  0
  189.7440  176.1930  138.3150 N   0  0  0  0  0  0  0  0  0  0  0  0
  189.6470  177.5580  137.7790 C   0  0  2  0  0  3  0  0  0  0  0  0
  190.9530  176.9300  137.9240 C   0  0  0  0  0  2  0  0  0  0  0  0
  1 16  1  0  0  0  0
  2 19  1  0  0  0  0
  2 14  1  0  0  0  0
  3  6  1  0  0  0  0
  3  9  1  0  0  0  0
  4 12  1  0  0  0  0
  5 12  2  0  0  0  0
  5 11  1  0  0  0  0
  6 20  2  0  0  0  0
  7  1  1  0  0  0  0
  8  2  2  0  0  0  0
  9 21  2  0  0  0  0
 10 15  1  0  0  0  0
 10  1  2  0  0  0  0
 12 11  1  0  0  0  0
 14  7  1  0  0  0  0
 15 18  2  0  0  0  0
 16 13  2  0  0  0  0
 16 22  1  0  0  0  0
 17  6  1  0  0  0  0
 17 19  2  0  0  0  0
 18 13  1  0  0  0  0
 19 10  1  0  0  0  0
 20 21  1  0  0  0  0
 20 15  1  0  0  0  0
 21  4  1  0  0  0  0
 22 25  1  0  0  0  0
 23 22  2  0  0  0  0
 23 26  1  0  0  0  0
 24 27  1  0  0  0  0
 25 27  2  0  0  0  0
 26 24  2  0  0  0  0
 28  8  1  0  0  0  0
 29 30  1  0  0  0  0
 31 32  1  0  0  0  0
 31 30  1  0  0  0  0
 31 28  1  1  0  0  0
 32 30  1  0  0  0  0
M  END
>  <MODEL>
1

>  <REMARK>
 VINA RESULT:     -11.0      0.000      0.000
  Name = 
  3 active torsions:
  status: ('A' for Active; 'I' for Inactive)
    1  A    between atoms: C_3  and  C_21
    2  A    between atoms: O_8  and  N_11
    3  A    between atoms: O_8  and  C_28
                            x       y       z     vdW  Elec       q    Type
                         _______ _______ _______ _____ _____    ______ ____

>  <TORSDO>
F 3

$$$$
=
 OpenBabel11042413103D

 32 38  0  0  1  0  0  0  0  0999 V2000
  187.7540  177.9310  142.3190 C   0  0  0  0  0  0  0  0  0  0  0  0
  185.8220  178.9470  140.4830 C   0  0  0  0  0  0  0  0  0  0  0  0
  189.0390  177.6950  136.8360 C   0  0  0  0  0  2  0  0  0  0  0  0
  191.8090  176.3420  138.7890 N   0  0  0  0  0  2  0  0  0  0  0  0
  193.3880  175.7260  136.6330 N   0  0  0  0  0  0  0  0  0  0  0  0
  188.5590  177.8450  138.2360 C   0  0  0  0  0  0  0  0  0  0  0  0
  186.5090  178.4140  142.7490 O   0  0  0  0  0  0  0  0  0  0  0  0
  184.8820  179.2480  139.6420 N   0  0  0  0  0  0  0  0  0  0  0  0
  190.3610  177.0860  137.0210 N   0  0  0  0  0  0  0  0  0  0  0  0
  188.0480  177.9210  140.9420 C   0  0  0  0  0  0  0  0  0  0  0  0
  194.0850  175.3550  137.7420 C   0  0  0  0  0  2  0  0  0  0  0  0
  192.8570  175.9050  137.9270 C   0  0  0  0  0  0  0  0  0  0  0  0
  189.9110  176.8980  142.7570 C   0  0  0  0  0  3  0  0  0  0  0  0
  185.6770  179.2550  141.9470 C   0  0  0  0  0  2  0  0  0  0  0  0
  189.2760  177.3910  140.4820 C   0  0  0  0  0  0  0  0  0  0  0  0
  188.6950  177.4130  143.2450 C   0  0  0  0  0  0  0  0  0  0  0  0
  187.3710  178.3450  138.6620 N   0  0  0  0  0  0  0  0  0  0  0  0
  190.2020  176.8850  141.3930 C   0  0  0  0  0  3  0  0  0  0  0  0
  187.0990  178.3970  140.0020 C   0  0  0  0  0  0  0  0  0  0  0  0
  189.5010  177.3780  139.1060 C   0  0  0  0  0  0  0  0  0  0  0  0
  190.6010  176.9160  138.2860 C   0  0  0  0  0  0  0  0  0  0  0  0
  188.4550  177.3980  144.7160 C   0  0  0  0  0  0  0  0  0  0  0  0
  187.1660  177.5530  145.2520 C   0  0  0  0  0  3  0  0  0  0  0  0
  188.0440  177.4020  147.5020 C   0  0  0  0  0  3  0  0  0  0  0  0
  189.5370  177.2550  145.6030 C   0  0  0  0  0  3  0  0  0  0  0  0
  186.9600  177.5520  146.6350 C   0  0  0  0  0  3  0  0  0  0  0  0
  189.3330  177.2540  146.9870 C   0  0  0  0  0  3  0  0  0  0  0  0
  183.6950  179.8090  140.0560 O   0  0  0  0  0  0  0  0  0  0  0  0
  180.3300  178.8010  140.6320 C   0  0  0  0  0  1  0  0  0  0  0  0
  181.7270  178.9380  141.0010 N   0  0  0  0  0  0  0  0  0  0  0  0
  182.4670  179.1730  139.7540 C   0  0  2  0  0  3  0  0  0  0  0  0
  182.4460  177.8410  140.3410 C   0  0  0  0  0  2  0  0  0  0  0  0
  1  7  1  0  0  0  0
  1 16  1  0  0  0  0
  2 14  1  0  0  0  0
  3  9  1  0  0  0  0
  3  6  1  0  0  0  0
  5 11  1  0  0  0  0
  5 12  2  0  0  0  0
  6 17  1  0  0  0  0
  6 20  2  0  0  0  0
  8 28  1  0  0  0  0
  8  2  2  0  0  0  0
  9 21  2  0  0  0  0
 10  1  2  0  0  0  0
 11 12  1  0  0  0  0
 12  4  1  0  0  0  0
 13 16  2  0  0  0  0
 14  7  1  0  0  0  0
 15 10  1  0  0  0  0
 15 18  2  0  0  0  0
 16 22  1  0  0  0  0
 17 19  2  0  0  0  0
 18 13  1  0  0  0  0
 19  2  1  0  0  0  0
 19 10  1  0  0  0  0
 20 15  1  0  0  0  0
 21  4  1  0  0  0  0
 21 20  1  0  0  0  0
 22 23  2  0  0  0  0
 22 25  1  0  0  0  0
 23 26  1  0  0  0  0
 25 27  2  0  0  0  0
 26 24  2  0  0  0  0
 27 24  1  0  0  0  0
 29 30  1  0  0  0  0
 31 28  1  1  0  0  0
 31 32  1  0  0  0  0
 31 30  1  0  0  0  0
 32 30  1  0  0  0  0
M  END
>  <MODEL>
2

>  <REMARK>
 VINA RESULT:     -10.3      1.922      7.245
  Name = 
  3 active torsions:
  status: ('A' for Active; 'I' for Inactive)
    1  A    between atoms: C_3  and  C_21
    2  A    between atoms: O_8  and  N_11
    3  A    between atoms: O_8  and  C_28
                            x       y       z     vdW  Elec       q    Type
                         _______ _______ _______ _____ _____    ______ ____

>  <TORSDO>
F 3

$$$$
=
 OpenBabel11042413103D

 32 38  0  0  1  0  0  0  0  0999 V2000
  186.7150  178.3670  141.5200 C   0  0  0  0  0  0  0  0  0  0  0  0
  184.4030  178.9670  143.0790 C   0  0  0  0  0  0  0  0  0  0  0  0
  187.1160  177.6600  147.0980 C   0  0  0  0  0  2  0  0  0  0  0  0
  190.2750  176.7260  145.5280 N   0  0  0  0  0  2  0  0  0  0  0  0
  191.5620  176.0870  147.8630 N   0  0  0  0  0  0  0  0  0  0  0  0
  186.8430  177.8800  145.6520 C   0  0  0  0  0  0  0  0  0  0  0  0
  185.5440  178.8750  140.9380 O   0  0  0  0  0  0  0  0  0  0  0  0
  183.4170  179.3990  143.8020 N   0  0  0  0  0  0  0  0  0  0  0  0
  188.5060  177.1890  147.0860 N   0  0  0  0  0  0  0  0  0  0  0  0
  186.7610  178.1740  142.9140 C   0  0  0  0  0  0  0  0  0  0  0  0
  192.4560  175.8720  146.8580 C   0  0  0  0  0  2  0  0  0  0  0  0
  191.2200  176.3200  146.5160 C   0  0  0  0  0  0  0  0  0  0  0  0
  189.0250  177.6250  141.3700 C   0  0  0  0  0  3  0  0  0  0  0  0
  184.2700  178.8410  141.5870 C   0  0  0  0  0  2  0  0  0  0  0  0
  187.9490  177.7110  143.5270 C   0  0  0  0  0  0  0  0  0  0  0  0
  187.8610  178.0900  140.7310 C   0  0  0  0  0  0  0  0  0  0  0  0
  185.7010  178.3370  145.0780 N   0  0  0  0  0  0  0  0  0  0  0  0
  189.0740  177.4370  142.7510 C   0  0  0  0  0  3  0  0  0  0  0  0
  185.6370  178.4850  143.7190 C   0  0  0  0  0  0  0  0  0  0  0  0
  187.9480  177.5670  144.9150 C   0  0  0  0  0  0  0  0  0  0  0  0
  188.9520  177.1450  145.8670 C   0  0  0  0  0  0  0  0  0  0  0  0
  187.8820  178.2640  139.2510 C   0  0  0  0  0  0  0  0  0  0  0  0
  186.7730  177.9330  138.4560 C   0  0  0  0  0  3  0  0  0  0  0  0
  187.9720  178.5700  136.4520 C   0  0  0  0  0  3  0  0  0  0  0  0
  189.0430  178.7430  138.6160 C   0  0  0  0  0  3  0  0  0  0  0  0
  186.8150  178.0870  137.0670 C   0  0  0  0  0  3  0  0  0  0  0  0
  189.0870  178.8980  137.2270 C   0  0  0  0  0  3  0  0  0  0  0  0
  182.2330  179.8110  143.2350 O   0  0  0  0  0  0  0  0  0  0  0  0
  179.6970  177.7700  141.7940 C   0  0  0  0  0  1  0  0  0  0  0  0
  180.4620  178.9960  141.9200 N   0  0  0  0  0  0  0  0  0  0  0  0
  181.1070  178.9520  143.2400 C   0  0  2  0  0  3  0  0  0  0  0  0
  179.8920  179.7340  143.0560 C   0  0  0  0  0  2  0  0  0  0  0  0
  1 10  1  0  0  0  0
  2 19  1  0  0  0  0
  2  8  2  0  0  0  0
  4 21  1  0  0  0  0
  4 12  1  0  0  0  0
  6  3  1  0  0  0  0
  7  1  1  0  0  0  0
  7 14  1  0  0  0  0
  9  3  1  0  0  0  0
 10 15  2  0  0  0  0
 10 19  1  0  0  0  0
 11  5  1  0  0  0  0
 12 11  1  0  0  0  0
 12  5  2  0  0  0  0
 13 18  2  0  0  0  0
 14  2  1  0  0  0  0
 15 20  1  0  0  0  0
 16 13  1  0  0  0  0
 16  1  2  0  0  0  0
 17  6  1  0  0  0  0
 18 15  1  0  0  0  0
 19 17  2  0  0  0  0
 20  6  2  0  0  0  0
 20 21  1  0  0  0  0
 21  9  2  0  0  0  0
 22 16  1  0  0  0  0
 23 22  2  0  0  0  0
 24 26  2  0  0  0  0
 24 27  1  0  0  0  0
 25 22  1  0  0  0  0
 26 23  1  0  0  0  0
 27 25  2  0  0  0  0
 28  8  1  0  0  0  0
 29 30  1  0  0  0  0
 30 32  1  0  0  0  0
 30 31  1  0  0  0  0
 31 28  1  6  0  0  0
 32 31  1  0  0  0  0
M  END
>  <MODEL>
3

>  <REMARK>
 VINA RESULT:     -10.1      3.181      8.191
  Name = 
  3 active torsions:
  status: ('A' for Active; 'I' for Inactive)
    1  A    between atoms: C_3  and  C_21
    2  A    between atoms: O_8  and  N_11
    3  A    between atoms: O_8  and  C_28
                            x       y       z     vdW  Elec       q    Type
                         _______ _______ _______ _____ _____    ______ ____

>  <TORSDO>
F 3

$$$$
=
 OpenBabel11042413103D

 32 38  0  0  1  0  0  0  0  0999 V2000
  187.3400  178.0810  142.1370 C   0  0  0  0  0  0  0  0  0  0  0  0
  185.4600  178.9950  140.1960 C   0  0  0  0  0  0  0  0  0  0  0  0
  188.8720  177.7720  136.7210 C   0  0  0  0  0  2  0  0  0  0  0  0
  191.5940  176.5510  138.8220 N   0  0  0  0  0  2  0  0  0  0  0  0
  193.2850  175.9410  136.7510 N   0  0  0  0  0  0  0  0  0  0  0  0
  188.3260  177.9360  138.0960 C   0  0  0  0  0  0  0  0  0  0  0  0
  186.0630  178.5330  142.5020 O   0  0  0  0  0  0  0  0  0  0  0  0
  184.5490  179.2480  139.3090 N   0  0  0  0  0  0  0  0  0  0  0  0
  190.2040  177.2100  136.9780 N   0  0  0  0  0  0  0  0  0  0  0  0
  187.6940  178.0520  140.7750 C   0  0  0  0  0  0  0  0  0  0  0  0
  193.9450  175.6160  137.8980 C   0  0  0  0  0  2  0  0  0  0  0  0
  192.6930  176.1310  138.0170 C   0  0  0  0  0  0  0  0  0  0  0  0
  189.5070  177.1290  142.6910 C   0  0  0  0  0  3  0  0  0  0  0  0
  185.2400  179.3290  141.6450 C   0  0  0  0  0  2  0  0  0  0  0  0
  188.9580  177.5530  140.3810 C   0  0  0  0  0  0  0  0  0  0  0  0
  188.2560  177.6140  143.1140 C   0  0  0  0  0  0  0  0  0  0  0  0
  187.1060  178.4060  138.4590 N   0  0  0  0  0  0  0  0  0  0  0  0
  189.8580  177.0960  141.3420 C   0  0  0  0  0  3  0  0  0  0  0  0
  186.7730  178.4770  139.7840 C   0  0  0  0  0  0  0  0  0  0  0  0
  189.2440  177.5180  139.0150 C   0  0  0  0  0  0  0  0  0  0  0  0
  190.3930  177.0750  138.2550 C   0  0  0  0  0  0  0  0  0  0  0  0
  187.9520  177.6220  144.5730 C   0  0  0  0  0  0  0  0  0  0  0  0
  186.7010  178.0360  145.0610 C   0  0  0  0  0  3  0  0  0  0  0  0
  187.4250  177.6600  147.3400 C   0  0  0  0  0  3  0  0  0  0  0  0
  188.9380  177.2370  145.4990 C   0  0  0  0  0  3  0  0  0  0  0  0
  186.4370  178.0520  146.4340 C   0  0  0  0  0  3  0  0  0  0  0  0
  188.6770  177.2530  146.8730 C   0  0  0  0  0  3  0  0  0  0  0  0
  183.3280  179.7780  139.6580 O   0  0  0  0  0  0  0  0  0  0  0  0
  180.6710  181.8730  138.5510 C   0  0  0  0  0  1  0  0  0  0  0  0
  181.2110  180.6800  139.1750 N   0  0  0  0  0  0  0  0  0  0  0  0
  182.6080  180.5730  138.7330 C   0  0  2  0  0  3  0  0  0  0  0  0
  181.5830  179.7660  138.0870 C   0  0  0  0  0  2  0  0  0  0  0  0
  1  7  1  0  0  0  0
  1 16  1  0  0  0  0
  2 14  1  0  0  0  0
  3  9  1  0  0  0  0
  3  6  1  0  0  0  0
  5 11  1  0  0  0  0
  5 12  2  0  0  0  0
  6 17  1  0  0  0  0
  6 20  2  0  0  0  0
  8 28  1  0  0  0  0
  8  2  2  0  0  0  0
  9 21  2  0  0  0  0
 10  1  2  0  0  0  0
 11 12  1  0  0  0  0
 12  4  1  0  0  0  0
 13 16  2  0  0  0  0
 14  7  1  0  0  0  0
 15 10  1  0  0  0  0
 15 18  2  0  0  0  0
 16 22  1  0  0  0  0
 17 19  2  0  0  0  0
 18 13  1  0  0  0  0
 19  2  1  0  0  0  0
 19 10  1  0  0  0  0
 20 15  1  0  0  0  0
 21  4  1  0  0  0  0
 21 20  1  0  0  0  0
 22 23  2  0  0  0  0
 22 25  1  0  0  0  0
 23 26  1  0  0  0  0
 25 27  2  0  0  0  0
 26 24  2  0  0  0  0
 27 24  1  0  0  0  0
 29 30  1  0  0  0  0
 31 30  1  0  0  0  0
 31 28  1  1  0  0  0
 32 31  1  0  0  0  0
 32 30  1  0  0  0  0
M  END
>  <MODEL>
4

>  <REMARK>
 VINA RESULT:      -9.7      2.539      7.297
  Name = 
  3 active torsions:
  status: ('A' for Active; 'I' for Inactive)
    1  A    between atoms: C_3  and  C_21
    2  A    between atoms: O_8  and  N_11
    3  A    between atoms: O_8  and  C_28
                            x       y       z     vdW  Elec       q    Type
                         _______ _______ _______ _____ _____    ______ ____

>  <TORSDO>
F 3

$$$$
=
 OpenBabel11042413103D

 32 38  0  0  1  0  0  0  0  0999 V2000
  186.1580  178.2690  142.0250 C   0  0  0  0  0  0  0  0  0  0  0  0
  187.6840  178.2520  139.6160 C   0  0  0  0  0  0  0  0  0  0  0  0
  191.6510  177.0860  142.4660 C   0  0  0  0  0  2  0  0  0  0  0  0
  190.1330  177.0430  145.7840 N   0  0  0  0  0  2  0  0  0  0  0  0
  192.4300  176.3810  147.1270 N   0  0  0  0  0  0  0  0  0  0  0  0
  190.2310  177.4310  142.1830 C   0  0  0  0  0  0  0  0  0  0  0  0
  185.5630  178.4850  140.7730 O   0  0  0  0  0  0  0  0  0  0  0  0
  188.3410  178.0770  138.5120 N   0  0  0  0  0  0  0  0  0  0  0  0
  191.6490  176.9210  143.9240 N   0  0  0  0  0  0  0  0  0  0  0  0
  187.5400  178.0100  142.0940 C   0  0  0  0  0  0  0  0  0  0  0  0
  191.4510  176.4900  148.0660 C   0  0  0  0  0  2  0  0  0  0  0  0
  191.1070  176.7150  146.7710 C   0  0  0  0  0  0  0  0  0  0  0  0
  186.0180  177.9970  144.4370 C   0  0  0  0  0  3  0  0  0  0  0  0
  186.3060  178.8510  139.6070 C   0  0  0  0  0  2  0  0  0  0  0  0
  188.1510  177.7390  143.3410 C   0  0  0  0  0  0  0  0  0  0  0  0
  185.3800  178.2640  143.2110 C   0  0  0  0  0  0  0  0  0  0  0  0
  189.6560  177.6770  140.9780 N   0  0  0  0  0  0  0  0  0  0  0  0
  187.3860  177.7370  144.5060 C   0  0  0  0  0  3  0  0  0  0  0  0
  188.3220  177.9710  140.9120 C   0  0  0  0  0  0  0  0  0  0  0  0
  189.5170  177.4580  143.3450 C   0  0  0  0  0  0  0  0  0  0  0  0
  190.4570  177.1300  144.3950 C   0  0  0  0  0  0  0  0  0  0  0  0
  183.9140  178.5360  143.2160 C   0  0  0  0  0  0  0  0  0  0  0  0
  183.2130  178.7620  144.4120 C   0  0  0  0  0  3  0  0  0  0  0  0
  181.1380  179.0100  143.1910 C   0  0  0  0  0  3  0  0  0  0  0  0
  183.1960  178.5430  142.0070 C   0  0  0  0  0  3  0  0  0  0  0  0
  181.8350  179.0010  144.4010 C   0  0  0  0  0  3  0  0  0  0  0  0
  181.8180  178.7810  141.9930 C   0  0  0  0  0  3  0  0  0  0  0  0
  187.7890  178.3770  137.2880 O   0  0  0  0  0  0  0  0  0  0  0  0
  186.3390  176.5560  134.5940 C   0  0  0  0  0  1  0  0  0  0  0  0
  186.3370  177.1210  135.9300 N   0  0  0  0  0  0  0  0  0  0  0  0
  187.7400  177.3920  136.2710 C   0  0  2  0  0  3  0  0  0  0  0  0
  187.0920  176.1920  136.7820 C   0  0  0  0  0  2  0  0  0  0  0  0
  1 10  2  0  0  0  0
  1 16  1  0  0  0  0
  2 19  1  0  0  0  0
  3  9  1  0  0  0  0
  4 12  1  0  0  0  0
  5 11  1  0  0  0  0
  6  3  1  0  0  0  0
  6 20  2  0  0  0  0
  7  1  1  0  0  0  0
  8  2  2  0  0  0  0
  9 21  2  0  0  0  0
 10 15  1  0  0  0  0
 12  5  2  0  0  0  0
 12 11  1  0  0  0  0
 13 18  1  0  0  0  0
 14  2  1  0  0  0  0
 14  7  1  0  0  0  0
 15 20  1  0  0  0  0
 15 18  2  0  0  0  0
 16 22  1  0  0  0  0
 16 13  2  0  0  0  0
 17  6  1  0  0  0  0
 19 17  2  0  0  0  0
 19 10  1  0  0  0  0
 20 21  1  0  0  0  0
 21  4  1  0  0  0  0
 22 23  1  0  0  0  0
 24 26  1  0  0  0  0
 25 22  2  0  0  0  0
 26 23  2  0  0  0  0
 27 25  1  0  0  0  0
 27 24  2  0  0  0  0
 28  8  1  0  0  0  0
 29 30  1  0  0  0  0
 30 31  1  0  0  0  0
 30 32  1  0  0  0  0
 31 32  1  0  0  0  0
 31 28  1  1  0  0  0
M  END
>  <MODEL>
5

>  <REMARK>
 VINA RESULT:      -9.5      3.184      6.738
  Name = 
  3 active torsions:
  status: ('A' for Active; 'I' for Inactive)
    1  A    between atoms: C_3  and  C_21
    2  A    between atoms: O_8  and  N_11
    3  A    between atoms: O_8  and  C_28
                            x       y       z     vdW  Elec       q    Type
                         _______ _______ _______ _____ _____    ______ ____

>  <TORSDO>
F 3

$$$$
=
 OpenBabel11042413103D

 32 38  0  0  1  0  0  0  0  0999 V2000
  184.0930  178.7190  142.0280 C   0  0  0  0  0  0  0  0  0  0  0  0
  185.9350  178.6290  139.8520 C   0  0  0  0  0  0  0  0  0  0  0  0
  189.5200  177.8480  143.2800 C   0  0  0  0  0  2  0  0  0  0  0  0
  187.5650  177.9370  146.3600 N   0  0  0  0  0  2  0  0  0  0  0  0
  189.6840  177.4790  148.0410 N   0  0  0  0  0  0  0  0  0  0  0  0
  188.1390  178.1010  142.7870 C   0  0  0  0  0  0  0  0  0  0  0  0
  183.6670  178.8250  140.6960 O   0  0  0  0  0  0  0  0  0  0  0  0
  186.7430  178.4180  138.8610 N   0  0  0  0  0  0  0  0  0  0  0  0
  189.3260  177.7750  144.7330 N   0  0  0  0  0  0  0  0  0  0  0  0
  185.4630  178.5360  142.2990 C   0  0  0  0  0  0  0  0  0  0  0  0
  188.5810  177.5960  148.8310 C   0  0  0  0  0  2  0  0  0  0  0  0
  188.4080  177.7210  147.4900 C   0  0  0  0  0  0  0  0  0  0  0  0
  183.6370  178.5920  144.4130 C   0  0  0  0  0  3  0  0  0  0  0  0
  184.5460  179.1550  139.6180 C   0  0  0  0  0  2  0  0  0  0  0  0
  185.9080  178.3760  143.6320 C   0  0  0  0  0  0  0  0  0  0  0  0
  183.1620  178.7490  143.0970 C   0  0  0  0  0  0  0  0  0  0  0  0
  187.7240  178.2410  141.5020 N   0  0  0  0  0  0  0  0  0  0  0  0
  184.9920  178.4070  144.6820 C   0  0  0  0  0  3  0  0  0  0  0  0
  186.4000  178.4630  141.2380 C   0  0  0  0  0  0  0  0  0  0  0  0
  187.2720  178.1660  143.8380 C   0  0  0  0  0  0  0  0  0  0  0  0
  188.0730  177.9530  145.0250 C   0  0  0  0  0  0  0  0  0  0  0  0
  181.6990  178.9460  142.8870 C   0  0  0  0  0  0  0  0  0  0  0  0
  181.1860  179.3840  141.6550 C   0  0  0  0  0  3  0  0  0  0  0  0
  178.9330  179.3450  142.5380 C   0  0  0  0  0  3  0  0  0  0  0  0
  180.8000  178.7220  143.9460 C   0  0  0  0  0  3  0  0  0  0  0  0
  179.8130  179.5790  141.4790 C   0  0  0  0  0  3  0  0  0  0  0  0
  179.4260  178.9170  143.7720 C   0  0  0  0  0  3  0  0  0  0  0  0
  186.3520  178.6120  137.5550 O   0  0  0  0  0  0  0  0  0  0  0  0
  186.1500  176.3480  134.8160 C   0  0  0  0  0  1  0  0  0  0  0  0
  185.8230  176.7990  136.1550 N   0  0  0  0  0  0  0  0  0  0  0  0
  186.8560  177.7730  136.5320 C   0  0  2  0  0  3  0  0  0  0  0  0
  186.9440  176.4040  137.0190 C   0  0  0  0  0  2  0  0  0  0  0  0
  1 10  2  0  0  0  0
  1 16  1  0  0  0  0
  2 19  1  0  0  0  0
  3  9  1  0  0  0  0
  4 12  1  0  0  0  0
  5 11  1  0  0  0  0
  6  3  1  0  0  0  0
  6 20  2  0  0  0  0
  7  1  1  0  0  0  0
  8  2  2  0  0  0  0
  9 21  2  0  0  0  0
 10 15  1  0  0  0  0
 12  5  2  0  0  0  0
 12 11  1  0  0  0  0
 13 18  1  0  0  0  0
 14  2  1  0  0  0  0
 14  7  1  0  0  0  0
 15 20  1  0  0  0  0
 15 18  2  0  0  0  0
 16 13  2  0  0  0  0
 17  6  1  0  0  0  0
 19 17  2  0  0  0  0
 19 10  1  0  0  0  0
 20 21  1  0  0  0  0
 21  4  1  0  0  0  0
 22 16  1  0  0  0  0
 22 25  1  0  0  0  0
 23 22  2  0  0  0  0
 24 27  1  0  0  0  0
 26 23  1  0  0  0  0
 26 24  2  0  0  0  0
 27 25  2  0  0  0  0
 28  8  1  0  0  0  0
 29 30  1  0  0  0  0
 30 31  1  0  0  0  0
 30 32  1  0  0  0  0
 31 32  1  0  0  0  0
 31 28  1  1  0  0  0
M  END
>  <MODEL>
6

>  <REMARK>
 VINA RESULT:      -9.4      2.965      6.553
  Name = 
  3 active torsions:
  status: ('A' for Active; 'I' for Inactive)
    1  A    between atoms: C_3  and  C_21
    2  A    between atoms: O_8  and  N_11
    3  A    between atoms: O_8  and  C_28
                            x       y       z     vdW  Elec       q    Type
                         _______ _______ _______ _____ _____    ______ ____

>  <TORSDO>
F 3

$$$$
=
 OpenBabel11042413103D

 32 38  0  0  1  0  0  0  0  0999 V2000
  188.3310  177.8730  142.1960 C   0  0  0  0  0  0  0  0  0  0  0  0
  189.2610  177.7320  144.8890 C   0  0  0  0  0  0  0  0  0  0  0  0
  184.5180  178.6240  146.2790 C   0  0  0  0  0  2  0  0  0  0  0  0
  182.8910  178.9410  143.0290 N   0  0  0  0  0  2  0  0  0  0  0  0
  180.3760  179.3930  144.0260 N   0  0  0  0  0  0  0  0  0  0  0  0
  185.6440  178.4230  145.3260 C   0  0  0  0  0  0  0  0  0  0  0  0
  189.6660  177.5700  142.5010 O   0  0  0  0  0  0  0  0  0  0  0  0
  189.6440  177.5010  146.1050 N   0  0  0  0  0  0  0  0  0  0  0  0
  183.3790  178.8380  145.3790 N   0  0  0  0  0  0  0  0  0  0  0  0
  187.4180  178.0870  143.2460 C   0  0  0  0  0  0  0  0  0  0  0  0
  180.2650  179.4210  142.6680 C   0  0  0  0  0  2  0  0  0  0  0  0
  181.4970  179.1940  143.1940 C   0  0  0  0  0  0  0  0  0  0  0  0
  186.5230  178.1850  140.6010 C   0  0  0  0  0  3  0  0  0  0  0  0
  190.2600  177.8450  143.7720 C   0  0  0  0  0  2  0  0  0  0  0  0
  186.0560  178.3430  142.9620 C   0  0  0  0  0  0  0  0  0  0  0  0
  187.8820  177.9220  140.8510 C   0  0  0  0  0  0  0  0  0  0  0  0
  186.9450  178.1660  145.6140 N   0  0  0  0  0  0  0  0  0  0  0  0
  185.6170  178.3930  141.6410 C   0  0  0  0  0  3  0  0  0  0  0  0
  187.8440  178.0000  144.5960 C   0  0  0  0  0  0  0  0  0  0  0  0
  185.1910  178.5160  144.0430 C   0  0  0  0  0  0  0  0  0  0  0  0
  183.7700  178.7740  144.1420 C   0  0  0  0  0  0  0  0  0  0  0  0
  188.7920  177.7130  139.6890 C   0  0  0  0  0  0  0  0  0  0  0  0
  188.6050  178.3970  138.4770 C   0  0  0  0  0  3  0  0  0  0  0  0
  190.5080  177.2640  137.5010 C   0  0  0  0  0  3  0  0  0  0  0  0
  189.8510  176.7910  139.7820 C   0  0  0  0  0  3  0  0  0  0  0  0
  189.4580  178.1780  137.3910 C   0  0  0  0  0  3  0  0  0  0  0  0
  190.7050  176.5700  138.6970 C   0  0  0  0  0  3  0  0  0  0  0  0
  190.9690  177.2950  146.4180 O   0  0  0  0  0  0  0  0  0  0  0  0
  192.9910  175.7460  148.9050 C   0  0  0  0  0  1  0  0  0  0  0  0
  192.7720  176.3820  147.6190 N   0  0  0  0  0  0  0  0  0  0  0  0
  191.3300  176.2910  147.3490 C   0  0  2  0  0  3  0  0  0  0  0  0
  192.2430  175.3460  146.7220 C   0  0  0  0  0  2  0  0  0  0  0  0
  1  7  1  0  0  0  0
  1 10  1  0  0  0  0
  2  8  2  0  0  0  0
  4 12  1  0  0  0  0
  4 21  1  0  0  0  0
  6 17  1  0  0  0  0
  6  3  1  0  0  0  0
  7 14  1  0  0  0  0
  8 28  1  0  0  0  0
  9  3  1  0  0  0  0
 10 19  1  0  0  0  0
 11 12  1  0  0  0  0
 11  5  1  0  0  0  0
 12  5  2  0  0  0  0
 13 16  1  0  0  0  0
 13 18  2  0  0  0  0
 14  2  1  0  0  0  0
 15 10  2  0  0  0  0
 15 20  1  0  0  0  0
 16  1  2  0  0  0  0
 18 15  1  0  0  0  0
 19  2  1  0  0  0  0
 19 17  2  0  0  0  0
 20 21  1  0  0  0  0
 20  6  2  0  0  0  0
 21  9  2  0  0  0  0
 22 25  1  0  0  0  0
 22 16  1  0  0  0  0
 23 22  2  0  0  0  0
 24 27  1  0  0  0  0
 26 24  2  0  0  0  0
 26 23  1  0  0  0  0
 27 25  2  0  0  0  0
 30 29  1  0  0  0  0
 31 28  1  6  0  0  0
 31 30  1  0  0  0  0
 32 31  1  0  0  0  0
 32 30  1  0  0  0  0
M  END
>  <MODEL>
7

>  <REMARK>
 VINA RESULT:      -9.4      2.772      6.083
  Name = 
  3 active torsions:
  status: ('A' for Active; 'I' for Inactive)
    1  A    between atoms: C_3  and  C_21
    2  A    between atoms: O_8  and  N_11
    3  A    between atoms: O_8  and  C_28
                            x       y       z     vdW  Elec       q    Type
                         _______ _______ _______ _____ _____    ______ ____

>  <TORSDO>
F 3

$$$$
=
 OpenBabel11042413103D

 32 38  0  0  1  0  0  0  0  0999 V2000
  186.4410  178.3180  140.4270 C   0  0  0  0  0  0  0  0  0  0  0  0
  188.9430  177.8250  139.1490 C   0  0  0  0  0  0  0  0  0  0  0  0
  190.8760  177.3020  143.7550 C   0  0  0  0  0  2  0  0  0  0  0  0
  187.9300  177.9220  145.8170 N   0  0  0  0  0  2  0  0  0  0  0  0
  189.2020  177.5700  148.2220 N   0  0  0  0  0  0  0  0  0  0  0  0
  189.8160  177.5690  142.7440 C   0  0  0  0  0  0  0  0  0  0  0  0
  186.5590  178.2680  139.0310 O   0  0  0  0  0  0  0  0  0  0  0  0
  190.0370  177.4350  138.5730 N   0  0  0  0  0  0  0  0  0  0  0  0
  190.1440  177.4380  145.0200 N   0  0  0  0  0  0  0  0  0  0  0  0
  187.5810  178.0910  141.2210 C   0  0  0  0  0  0  0  0  0  0  0  0
  187.9030  177.8580  148.5100 C   0  0  0  0  0  2  0  0  0  0  0  0
  188.2600  177.8110  147.2000 C   0  0  0  0  0  0  0  0  0  0  0  0
  185.1120  178.5410  142.4510 C   0  0  0  0  0  3  0  0  0  0  0  0
  187.8080  178.3960  138.3460 C   0  0  0  0  0  2  0  0  0  0  0  0
  187.4740  178.0860  142.6320 C   0  0  0  0  0  0  0  0  0  0  0  0
  185.1850  178.5460  141.0460 C   0  0  0  0  0  0  0  0  0  0  0  0
  189.9310  177.5580  141.3920 N   0  0  0  0  0  0  0  0  0  0  0  0
  186.2400  178.3140  143.2390 C   0  0  0  0  0  3  0  0  0  0  0  0
  188.8340  177.8200  140.6170 C   0  0  0  0  0  0  0  0  0  0  0  0
  188.6300  177.8260  143.3680 C   0  0  0  0  0  0  0  0  0  0  0  0
  188.9000  177.7270  144.7870 C   0  0  0  0  0  0  0  0  0  0  0  0
  183.9380  178.8000  140.2700 C   0  0  0  0  0  0  0  0  0  0  0  0
  183.8640  179.8250  139.3120 C   0  0  0  0  0  3  0  0  0  0  0  0
  181.5530  179.2760  138.8490 C   0  0  0  0  0  3  0  0  0  0  0  0
  182.7900  178.0230  140.5100 C   0  0  0  0  0  3  0  0  0  0  0  0
  182.6820  180.0600  138.6040 C   0  0  0  0  0  3  0  0  0  0  0  0
  181.6060  178.2570  139.8030 C   0  0  0  0  0  3  0  0  0  0  0  0
  190.1860  177.4740  137.2060 O   0  0  0  0  0  0  0  0  0  0  0  0
  190.2530  175.0560  134.5940 C   0  0  0  0  0  1  0  0  0  0  0  0
  189.5970  175.8320  135.6290 N   0  0  0  0  0  0  0  0  0  0  0  0
  190.6590  176.3340  136.5110 C   0  0  2  0  0  3  0  0  0  0  0  0
  189.8870  175.1640  136.9050 C   0  0  0  0  0  2  0  0  0  0  0  0
  1 16  2  0  0  0  0
  1 10  1  0  0  0  0
  2 19  1  0  0  0  0
  3  9  1  0  0  0  0
  4 12  1  0  0  0  0
  5 11  1  0  0  0  0
  6 20  1  0  0  0  0
  6  3  1  0  0  0  0
  7  1  1  0  0  0  0
  8  2  2  0  0  0  0
 10 15  1  0  0  0  0
 12  5  2  0  0  0  0
 12 11  1  0  0  0  0
 13 18  2  0  0  0  0
 14  7  1  0  0  0  0
 14  2  1  0  0  0  0
 15 18  1  0  0  0  0
 15 20  2  0  0  0  0
 16 13  1  0  0  0  0
 17  6  2  0  0  0  0
 19 10  2  0  0  0  0
 19 17  1  0  0  0  0
 20 21  1  0  0  0  0
 21  9  2  0  0  0  0
 21  4  1  0  0  0  0
 22 25  1  0  0  0  0
 22 16  1  0  0  0  0
 23 22  2  0  0  0  0
 24 27  1  0  0  0  0
 26 24  2  0  0  0  0
 26 23  1  0  0  0  0
 27 25  2  0  0  0  0
 28  8  1  0  0  0  0
 29 30  1  0  0  0  0
 30 31  1  0  0  0  0
 30 32  1  0  0  0  0
 31 32  1  0  0  0  0
 31 28  1  1  0  0  0
M  END
>  <MODEL>
8

>  <REMARK>
 VINA RESULT:      -9.1      3.179      6.549
  Name = 
  3 active torsions:
  status: ('A' for Active; 'I' for Inactive)
    1  A    between atoms: C_3  and  C_21
    2  A    between atoms: O_8  and  N_11
    3  A    between atoms: O_8  and  C_28
                            x       y       z     vdW  Elec       q    Type
                         _______ _______ _______ _____ _____    ______ ____

>  <TORSDO>
F 3

$$$$
=
 OpenBabel11042413103D

 32 38  0  0  1  0  0  0  0  0999 V2000
  186.1240  178.3170  140.3150 C   0  0  0  0  0  0  0  0  0  0  0  0
  183.3550  178.9220  140.6390 C   0  0  0  0  0  0  0  0  0  0  0  0
  184.1730  178.7110  145.5900 C   0  0  0  0  0  2  0  0  0  0  0  0
  187.7250  177.8780  145.6700 N   0  0  0  0  0  2  0  0  0  0  0  0
  187.9340  177.8390  148.4040 N   0  0  0  0  0  0  0  0  0  0  0  0
  184.5240  178.6250  144.1460 C   0  0  0  0  0  0  0  0  0  0  0  0
  185.2900  178.5670  139.2160 O   0  0  0  0  0  0  0  0  0  0  0  0
  182.1450  179.3620  140.7910 N   0  0  0  0  0  0  0  0  0  0  0  0
  185.4540  178.4120  146.2420 N   0  0  0  0  0  0  0  0  0  0  0  0
  185.5880  178.3930  141.6150 C   0  0  0  0  0  0  0  0  0  0  0  0
  189.1720  177.5470  147.9170 C   0  0  0  0  0  2  0  0  0  0  0  0
  188.1810  177.7760  147.0170 C   0  0  0  0  0  0  0  0  0  0  0  0
  188.3050  177.8360  141.2750 C   0  0  0  0  0  3  0  0  0  0  0  0
  183.8630  178.5070  139.2870 C   0  0  0  0  0  2  0  0  0  0  0  0
  186.4230  178.1940  142.7400 C   0  0  0  0  0  0  0  0  0  0  0  0
  187.5020  178.0350  140.1360 C   0  0  0  0  0  0  0  0  0  0  0  0
  183.7150  178.8300  143.0760 N   0  0  0  0  0  0  0  0  0  0  0  0
  187.7770  177.9150  142.5630 C   0  0  0  0  0  3  0  0  0  0  0  0
  184.2210  178.7150  141.8110 C   0  0  0  0  0  0  0  0  0  0  0  0
  185.8450  178.3120  144.0040 C   0  0  0  0  0  0  0  0  0  0  0  0
  186.3700  178.1940  145.3480 C   0  0  0  0  0  0  0  0  0  0  0  0
  188.1360  177.9320  138.7910 C   0  0  0  0  0  0  0  0  0  0  0  0
  188.8550  179.0030  138.2340 C   0  0  0  0  0  3  0  0  0  0  0  0
  189.2890  177.7160  136.2310 C   0  0  0  0  0  3  0  0  0  0  0  0
  187.9980  176.7530  138.0370 C   0  0  0  0  0  3  0  0  0  0  0  0
  189.4300  178.8960  136.9640 C   0  0  0  0  0  3  0  0  0  0  0  0
  188.5720  176.6440  136.7660 C   0  0  0  0  0  3  0  0  0  0  0  0
  181.2950  179.5200  139.7200 O   0  0  0  0  0  0  0  0  0  0  0  0
  179.3020  181.8740  137.9420 C   0  0  0  0  0  1  0  0  0  0  0  0
  180.2640  180.7920  138.0320 N   0  0  0  0  0  0  0  0  0  0  0  0
  180.7730  180.8000  139.4110 C   0  0  2  0  0  3  0  0  0  0  0  0
  181.5610  181.4070  138.3470 C   0  0  0  0  0  2  0  0  0  0  0  0
  1 10  1  0  0  0  0
  2  8  2  0  0  0  0
  2 19  1  0  0  0  0
  3  9  1  0  0  0  0
  4 12  1  0  0  0  0
  6  3  1  0  0  0  0
  7 14  1  0  0  0  0
  7  1  1  0  0  0  0
 10 19  2  0  0  0  0
 10 15  1  0  0  0  0
 11  5  1  0  0  0  0
 12 11  1  0  0  0  0
 12  5  2  0  0  0  0
 13 18  2  0  0  0  0
 14  2  1  0  0  0  0
 15 20  2  0  0  0  0
 16  1  2  0  0  0  0
 16 13  1  0  0  0  0
 17  6  2  0  0  0  0
 18 15  1  0  0  0  0
 19 17  1  0  0  0  0
 20  6  1  0  0  0  0
 20 21  1  0  0  0  0
 21  4  1  0  0  0  0
 21  9  2  0  0  0  0
 22 16  1  0  0  0  0
 23 22  1  0  0  0  0
 24 27  2  0  0  0  0
 24 26  1  0  0  0  0
 25 22  2  0  0  0  0
 26 23  2  0  0  0  0
 27 25  1  0  0  0  0
 28  8  1  0  0  0  0
 29 30  1  0  0  0  0
 30 32  1  0  0  0  0
 30 31  1  0  0  0  0
 31 28  1  6  0  0  0
 32 31  1  0  0  0  0
M  END
>  <MODEL>
9

>  <REMARK>
 VINA RESULT:      -9.0      3.028      7.332
  Name = 
  3 active torsions:
  status: ('A' for Active; 'I' for Inactive)
    1  A    between atoms: C_3  and  C_21
    2  A    between atoms: O_8  and  N_11
    3  A    between atoms: O_8  and  C_28
                            x       y       z     vdW  Elec       q    Type
                         _______ _______ _______ _____ _____    ______ ____

>  <TORSDO>
F 3

$$$$
