=
 OpenBabel11032419203D

 25 27  0  0  1  0  0  0  0  0999 V2000
  186.2950  178.1250  142.6780 C   0  0  0  0  0  0  0  0  0  0  0  0
  186.2200  178.3480  146.4570 C   0  0  0  0  0  0  0  0  0  0  0  0
  187.8370  177.4660  144.4450 N   0  0  0  0  0  0  0  0  0  0  0  0
  185.8190  178.4640  145.0810 C   0  0  0  0  0  0  0  0  0  0  0  0
  185.0090  178.6290  142.3680 C   0  0  0  0  0  0  0  0  0  0  0  0
  188.2080  177.3530  145.7430 N   0  0  0  0  0  0  0  0  0  0  0  0
  187.4680  177.7660  146.7850 C   0  0  0  0  0  0  0  0  0  0  0  0
  185.4590  178.7550  147.3780 O   0  0  0  0  0  0  0  0  0  0  0  0
  184.5700  178.9900  144.7430 C   0  0  0  0  0  3  0  0  0  0  0  0
  186.6780  178.0180  144.0310 C   0  0  0  0  0  0  0  0  0  0  0  0
  189.0570  176.7990  144.0180 C   0  0  0  0  0  2  0  0  0  0  0  0
  187.8640  177.6270  147.9730 O   0  0  0  0  0  0  0  0  0  0  0  0
  189.4530  176.7000  145.3640 C   0  0  1  0  0  3  0  0  0  0  0  0
  184.1720  179.0650  143.4090 C   0  0  0  0  0  3  0  0  0  0  0  0
  184.9100  179.6760  140.2340 O   0  0  0  0  0  0  0  0  0  0  0  0
  184.5040  178.7410  140.9760 C   0  0  0  0  0  0  0  0  0  0  0  0
  183.5530  177.8190  140.4520 N   0  0  0  0  0  1  0  0  0  0  0  0
  190.6440  177.6180  145.6400 C   0  0  1  0  0  3  0  0  0  0  0  0
  191.4060  177.1080  146.7690 N   0  0  0  0  0  1  0  0  0  0  0  0
  191.8010  179.0220  144.0920 O   0  0  0  0  0  1  0  0  0  0  0  0
  191.5470  177.6890  144.4190 C   0  0  0  0  0  2  0  0  0  0  0  0
  187.1650  177.7480  141.6520 O   0  0  0  0  0  0  0  0  0  0  0  0
  188.1280  178.6490  141.1240 C   0  0  0  0  0  2  0  0  0  0  0  0
  188.8490  179.0320  138.8860 O   0  0  0  0  0  1  0  0  0  0  0  0
  188.7600  178.0580  139.8790 C   0  0  0  0  0  2  0  0  0  0  0  0
  1 10  1  0  0  0  0
  2  7  1  0  0  0  0
  2  8  2  0  0  0  0
  3  6  1  0  0  0  0
  4  2  1  0  0  0  0
  5  1  2  0  0  0  0
  5 14  1  0  0  0  0
  6  7  1  0  0  0  0
  7 12  2  0  0  0  0
  9  4  1  0  0  0  0
 10  3  1  0  0  0  0
 10  4  2  0  0  0  0
 11  3  1  0  0  0  0
 11 13  1  0  0  0  0
 13 18  1  6  0  0  0
 13  6  1  0  0  0  0
 14  9  2  0  0  0  0
 15 16  2  0  0  0  0
 16  5  1  0  0  0  0
 17 16  1  0  0  0  0
 18 19  1  1  0  0  0
 20 21  1  0  0  0  0
 21 18  1  0  0  0  0
 22  1  1  0  0  0  0
 23 22  1  0  0  0  0
 24 25  1  0  0  0  0
 25 23  1  0  0  0  0
M  END
>  <MODEL>
1

>  <REMARK>
 VINA RESULT:      -8.2      0.000      0.000
  Name = 
  6 active torsions:
  status: ('A' for Active; 'I' for Inactive)
    1  A    between atoms: C_1  and  O_22
    2  A    between atoms: C_5  and  C_10
    3  A    between atoms: CA_15  and  C_20
    4  A    between atoms: CA_15  and  C_25
    5  A    between atoms: C_16  and  C_24
    6  A    between atoms: O_22  and  C_24
                            x       y       z     vdW  Elec       q    Type
                         _______ _______ _______ _____ _____    ______ ____

>  <TORSDO>
F 6

$$$$
=
 OpenBabel11032419203D

 25 27  0  0  1  0  0  0  0  0999 V2000
  185.4220  178.1990  144.0010 C   0  0  0  0  0  0  0  0  0  0  0  0
  187.9890  177.6630  146.7320 C   0  0  0  0  0  0  0  0  0  0  0  0
  187.6690  177.2610  144.0530 N   0  0  0  0  0  0  0  0  0  0  0  0
  186.7690  178.0350  146.0690 C   0  0  0  0  0  0  0  0  0  0  0  0
  184.3410  178.7040  144.7640 C   0  0  0  0  0  0  0  0  0  0  0  0
  188.8150  176.9060  144.6840 N   0  0  0  0  0  0  0  0  0  0  0  0
  189.0460  177.0760  145.9960 C   0  0  0  0  0  0  0  0  0  0  0  0
  188.1210  177.8490  147.9730 O   0  0  0  0  0  0  0  0  0  0  0  0
  185.6990  178.5690  146.7900 C   0  0  0  0  0  3  0  0  0  0  0  0
  186.6140  177.8400  144.6630 C   0  0  0  0  0  0  0  0  0  0  0  0
  188.1770  176.7390  142.7940 C   0  0  0  0  0  2  0  0  0  0  0  0
  190.1310  176.7180  146.5270 O   0  0  0  0  0  0  0  0  0  0  0  0
  189.3760  176.3900  143.4430 C   0  0  1  0  0  3  0  0  0  0  0  0
  184.5050  178.8920  146.1470 C   0  0  0  0  0  3  0  0  0  0  0  0
  182.9180  180.1550  143.5270 O   0  0  0  0  0  0  0  0  0  0  0  0
  183.0350  179.0720  144.1610 C   0  0  0  0  0  0  0  0  0  0  0  0
  181.8920  178.2310  144.2910 N   0  0  0  0  0  1  0  0  0  0  0  0
  190.5230  177.2790  142.9630 C   0  0  1  0  0  3  0  0  0  0  0  0
  191.7670  176.8530  143.5820 N   0  0  0  0  0  1  0  0  0  0  0  0
  191.9580  177.5340  141.0700 O   0  0  0  0  0  1  0  0  0  0  0  0
  190.6610  177.1900  141.4510 C   0  0  0  0  0  2  0  0  0  0  0  0
  185.3000  178.0660  142.6160 O   0  0  0  0  0  0  0  0  0  0  0  0
  185.6730  179.1140  141.7330 C   0  0  0  0  0  2  0  0  0  0  0  0
  185.6780  178.9510  139.3560 O   0  0  0  0  0  1  0  0  0  0  0  0
  184.8410  179.0430  140.4670 C   0  0  0  0  0  2  0  0  0  0  0  0
  1 10  2  0  0  0  0
  1  5  1  0  0  0  0
  2  8  2  0  0  0  0
  3 10  1  0  0  0  0
  3  6  1  0  0  0  0
  4  2  1  0  0  0  0
  4  9  2  0  0  0  0
  5 14  2  0  0  0  0
  6  7  1  0  0  0  0
  7 12  2  0  0  0  0
  7  2  1  0  0  0  0
 10  4  1  0  0  0  0
 11 13  1  0  0  0  0
 11  3  1  0  0  0  0
 13 18  1  6  0  0  0
 13  6  1  0  0  0  0
 14  9  1  0  0  0  0
 15 16  2  0  0  0  0
 16 17  1  0  0  0  0
 16  5  1  0  0  0  0
 18 19  1  1  0  0  0
 20 21  1  0  0  0  0
 21 18  1  0  0  0  0
 22  1  1  0  0  0  0
 23 22  1  0  0  0  0
 24 25  1  0  0  0  0
 25 23  1  0  0  0  0
M  END
>  <MODEL>
2

>  <REMARK>
 VINA RESULT:      -8.0      1.953      2.669
  Name = 
  6 active torsions:
  status: ('A' for Active; 'I' for Inactive)
    1  A    between atoms: C_1  and  O_22
    2  A    between atoms: C_5  and  C_10
    3  A    between atoms: CA_15  and  C_20
    4  A    between atoms: CA_15  and  C_25
    5  A    between atoms: C_16  and  C_24
    6  A    between atoms: O_22  and  C_24
                            x       y       z     vdW  Elec       q    Type
                         _______ _______ _______ _____ _____    ______ ____

>  <TORSDO>
F 6

$$$$
=
 OpenBabel11032419203D

 25 27  0  0  1  0  0  0  0  0999 V2000
  188.1360  177.3370  143.0890 C   0  0  0  0  0  0  0  0  0  0  0  0
  185.6770  178.4040  145.7620 C   0  0  0  0  0  0  0  0  0  0  0  0
  185.9220  178.3490  143.0460 N   0  0  0  0  0  0  0  0  0  0  0  0
  186.8640  177.8860  145.1370 C   0  0  0  0  0  0  0  0  0  0  0  0
  189.2260  176.9250  143.8950 C   0  0  0  0  0  0  0  0  0  0  0  0
  184.8090  178.8430  143.6400 N   0  0  0  0  0  0  0  0  0  0  0  0
  184.6150  178.9000  144.9680 C   0  0  0  0  0  0  0  0  0  0  0  0
  185.5800  178.4290  147.0210 O   0  0  0  0  0  0  0  0  0  0  0  0
  187.9400  177.4390  145.9080 C   0  0  0  0  0  3  0  0  0  0  0  0
  186.9780  177.8410  143.7150 C   0  0  0  0  0  0  0  0  0  0  0  0
  185.3890  178.6740  141.7330 C   0  0  0  0  0  2  0  0  0  0  0  0
  183.5600  179.3780  145.4630 O   0  0  0  0  0  0  0  0  0  0  0  0
  184.2230  179.1670  142.3470 C   0  0  1  0  0  3  0  0  0  0  0  0
  189.1020  176.9730  145.2940 C   0  0  0  0  0  3  0  0  0  0  0  0
  190.5540  175.2530  142.8490 O   0  0  0  0  0  0  0  0  0  0  0  0
  190.5000  176.4180  143.3270 C   0  0  0  0  0  0  0  0  0  0  0  0
  191.6810  177.2150  143.3160 N   0  0  0  0  0  1  0  0  0  0  0  0
  183.0350  178.2530  142.0510 C   0  0  1  0  0  3  0  0  0  0  0  0
  181.8190  178.8380  142.5920 N   0  0  0  0  0  1  0  0  0  0  0  0
  182.3500  179.2240  139.9790 O   0  0  0  0  0  1  0  0  0  0  0  0
  182.8750  178.0650  140.5510 C   0  0  0  0  0  2  0  0  0  0  0  0
  188.2180  177.2350  141.6990 O   0  0  0  0  0  0  0  0  0  0  0  0
  188.8650  178.2290  140.9170 C   0  0  0  0  0  2  0  0  0  0  0  0
  189.0550  179.0970  138.7060 O   0  0  0  0  0  1  0  0  0  0  0  0
  188.4260  178.1150  139.4700 C   0  0  0  0  0  2  0  0  0  0  0  0
  1 10  2  0  0  0  0
  1  5  1  0  0  0  0
  2  8  2  0  0  0  0
  3  6  1  0  0  0  0
  3 10  1  0  0  0  0
  4  2  1  0  0  0  0
  4  9  2  0  0  0  0
  5 14  2  0  0  0  0
  6  7  1  0  0  0  0
  7 12  2  0  0  0  0
  7  2  1  0  0  0  0
 10  4  1  0  0  0  0
 11 13  1  0  0  0  0
 11  3  1  0  0  0  0
 13 18  1  6  0  0  0
 13  6  1  0  0  0  0
 14  9  1  0  0  0  0
 15 16  2  0  0  0  0
 16  5  1  0  0  0  0
 17 16  1  0  0  0  0
 18 19  1  6  0  0  0
 20 21  1  0  0  0  0
 21 18  1  0  0  0  0
 22  1  1  0  0  0  0
 23 22  1  0  0  0  0
 24 25  1  0  0  0  0
 25 23  1  0  0  0  0
M  END
>  <MODEL>
3

>  <REMARK>
 VINA RESULT:      -7.7      1.894      5.548
  Name = 
  6 active torsions:
  status: ('A' for Active; 'I' for Inactive)
    1  A    between atoms: C_1  and  O_22
    2  A    between atoms: C_5  and  C_10
    3  A    between atoms: CA_15  and  C_20
    4  A    between atoms: CA_15  and  C_25
    5  A    between atoms: C_16  and  C_24
    6  A    between atoms: O_22  and  C_24
                            x       y       z     vdW  Elec       q    Type
                         _______ _______ _______ _____ _____    ______ ____

>  <TORSDO>
F 6

$$$$
=
 OpenBabel11032419203D

 25 27  0  0  1  0  0  0  0  0999 V2000
  188.3340  177.7710  144.8670 C   0  0  0  0  0  0  0  0  0  0  0  0
  185.4190  178.3920  142.5320 C   0  0  0  0  0  0  0  0  0  0  0  0
  188.1420  178.2340  142.4830 N   0  0  0  0  0  0  0  0  0  0  0  0
  186.1660  178.1290  143.7320 C   0  0  0  0  0  0  0  0  0  0  0  0
  187.6530  177.6750  146.1040 C   0  0  0  0  0  0  0  0  0  0  0  0
  187.4330  178.4890  141.3560 N   0  0  0  0  0  0  0  0  0  0  0  0
  186.0940  178.5770  141.3020 C   0  0  0  0  0  0  0  0  0  0  0  0
  184.1590  178.4680  142.5710 O   0  0  0  0  0  0  0  0  0  0  0  0
  185.5170  177.9920  144.9620 C   0  0  0  0  0  3  0  0  0  0  0  0
  187.5900  178.0280  143.6970 C   0  0  0  0  0  0  0  0  0  0  0  0
  189.3910  178.3480  141.7470 C   0  0  0  0  0  2  0  0  0  0  0  0
  185.4920  178.8240  140.2240 O   0  0  0  0  0  0  0  0  0  0  0  0
  188.6570  178.5900  140.5720 C   0  0  1  0  0  3  0  0  0  0  0  0
  186.2510  177.7750  146.1270 C   0  0  0  0  0  3  0  0  0  0  0  0
  188.7360  176.2850  147.7030 O   0  0  0  0  0  0  0  0  0  0  0  0
  188.3540  177.4460  147.3930 C   0  0  0  0  0  0  0  0  0  0  0  0
  188.6020  178.5110  148.3050 N   0  0  0  0  0  1  0  0  0  0  0  0
  188.7770  177.4080  139.6120 C   0  0  1  0  0  3  0  0  0  0  0  0
  187.9690  177.6520  138.4280 N   0  0  0  0  0  1  0  0  0  0  0  0
  190.5390  175.8530  139.1810 O   0  0  0  0  0  1  0  0  0  0  0  0
  190.2270  177.2130  139.1970 C   0  0  0  0  0  2  0  0  0  0  0  0
  189.7210  177.6090  144.8170 O   0  0  0  0  0  0  0  0  0  0  0  0
  190.3130  176.3410  144.5760 C   0  0  0  0  0  2  0  0  0  0  0  0
  191.7730  177.0090  146.3370 O   0  0  0  0  0  1  0  0  0  0  0  0
  191.7260  176.3190  145.1260 C   0  0  0  0  0  2  0  0  0  0  0  0
  1  5  1  0  0  0  0
  2  8  2  0  0  0  0
  2  4  1  0  0  0  0
  3 10  1  0  0  0  0
  4  9  2  0  0  0  0
  5 14  2  0  0  0  0
  5 16  1  0  0  0  0
  6  3  1  0  0  0  0
  7  6  1  0  0  0  0
  7  2  1  0  0  0  0
  9 14  1  0  0  0  0
 10  4  1  0  0  0  0
 10  1  2  0  0  0  0
 11  3  1  0  0  0  0
 12  7  2  0  0  0  0
 13 18  1  6  0  0  0
 13  6  1  0  0  0  0
 13 11  1  0  0  0  0
 16 15  2  0  0  0  0
 16 17  1  0  0  0  0
 18 19  1  6  0  0  0
 20 21  1  0  0  0  0
 21 18  1  0  0  0  0
 22  1  1  0  0  0  0
 23 22  1  0  0  0  0
 23 25  1  0  0  0  0
 25 24  1  0  0  0  0
M  END
>  <MODEL>
4

>  <REMARK>
 VINA RESULT:      -7.5      2.076      5.693
  Name = 
  6 active torsions:
  status: ('A' for Active; 'I' for Inactive)
    1  A    between atoms: C_1  and  O_22
    2  A    between atoms: C_5  and  C_10
    3  A    between atoms: CA_15  and  C_20
    4  A    between atoms: CA_15  and  C_25
    5  A    between atoms: C_16  and  C_24
    6  A    between atoms: O_22  and  C_24
                            x       y       z     vdW  Elec       q    Type
                         _______ _______ _______ _____ _____    ______ ____

>  <TORSDO>
F 6

$$$$
=
 OpenBabel11032419203D

 25 27  0  0  1  0  0  0  0  0999 V2000
  189.2810  177.2360  142.0440 C   0  0  0  0  0  0  0  0  0  0  0  0
  185.8400  178.8080  142.1890 C   0  0  0  0  0  0  0  0  0  0  0  0
  187.5720  177.4140  143.7700 N   0  0  0  0  0  0  0  0  0  0  0  0
  187.1170  178.3770  141.6870 C   0  0  0  0  0  0  0  0  0  0  0  0
  189.6100  177.4670  140.6860 C   0  0  0  0  0  0  0  0  0  0  0  0
  186.3650  177.8160  144.2360 N   0  0  0  0  0  0  0  0  0  0  0  0
  185.4630  178.5070  143.5190 C   0  0  0  0  0  0  0  0  0  0  0  0
  185.0470  179.4480  141.4440 O   0  0  0  0  0  0  0  0  0  0  0  0
  187.4830  178.6240  140.3610 C   0  0  0  0  0  3  0  0  0  0  0  0
  188.0270  177.6650  142.5250 C   0  0  0  0  0  0  0  0  0  0  0  0
  187.8640  176.7570  145.0340 C   0  0  0  0  0  2  0  0  0  0  0  0
  184.3520  178.8480  144.0070 O   0  0  0  0  0  0  0  0  0  0  0  0
  186.6200  177.1930  145.5270 C   0  0  1  0  0  3  0  0  0  0  0  0
  188.7060  178.1700  139.8710 C   0  0  0  0  0  3  0  0  0  0  0  0
  191.9740  177.5530  140.4350 O   0  0  0  0  0  0  0  0  0  0  0  0
  190.8890  177.0180  140.0810 C   0  0  0  0  0  0  0  0  0  0  0  0
  190.9250  175.9950  139.0900 N   0  0  0  0  0  1  0  0  0  0  0  0
  186.8160  178.2560  146.6070 C   0  0  1  0  0  3  0  0  0  0  0  0
  185.5220  178.7610  147.0390 N   0  0  0  0  0  1  0  0  0  0  0  0
  188.3780  178.6280  148.3750 O   0  0  0  0  0  1  0  0  0  0  0  0
  187.5470  177.6650  147.8020 C   0  0  0  0  0  2  0  0  0  0  0  0
  190.1950  176.5970  142.8860 O   0  0  0  0  0  0  0  0  0  0  0  0
  191.0920  177.3320  143.7050 C   0  0  0  0  0  2  0  0  0  0  0  0
  191.6890  177.1280  146.0030 O   0  0  0  0  0  1  0  0  0  0  0  0
  191.6500  176.4360  144.7930 C   0  0  0  0  0  2  0  0  0  0  0  0
  1 10  1  0  0  0  0
  1 22  1  0  0  0  0
  2  7  1  0  0  0  0
  3  6  1  0  0  0  0
  3 11  1  0  0  0  0
  4  2  1  0  0  0  0
  4 10  2  0  0  0  0
  5  1  2  0  0  0  0
  6 13  1  0  0  0  0
  7 12  2  0  0  0  0
  7  6  1  0  0  0  0
  8  2  2  0  0  0  0
  9  4  1  0  0  0  0
 10  3  1  0  0  0  0
 11 13  1  0  0  0  0
 13 18  1  1  0  0  0
 14  9  2  0  0  0  0
 14  5  1  0  0  0  0
 16 15  2  0  0  0  0
 16  5  1  0  0  0  0
 17 16  1  0  0  0  0
 18 19  1  1  0  0  0
 18 21  1  0  0  0  0
 21 20  1  0  0  0  0
 22 23  1  0  0  0  0
 23 25  1  0  0  0  0
 25 24  1  0  0  0  0
M  END
>  <MODEL>
5

>  <REMARK>
 VINA RESULT:      -7.4      2.273      5.009
  Name = 
  6 active torsions:
  status: ('A' for Active; 'I' for Inactive)
    1  A    between atoms: C_1  and  O_22
    2  A    between atoms: C_5  and  C_10
    3  A    between atoms: CA_15  and  C_20
    4  A    between atoms: CA_15  and  C_25
    5  A    between atoms: C_16  and  C_24
    6  A    between atoms: O_22  and  C_24
                            x       y       z     vdW  Elec       q    Type
                         _______ _______ _______ _____ _____    ______ ____

>  <TORSDO>
F 6

$$$$
=
 OpenBabel11032419203D

 25 27  0  0  1  0  0  0  0  0999 V2000
  187.3170  178.2000  145.1640 C   0  0  0  0  0  0  0  0  0  0  0  0
  190.7610  176.6300  145.2420 C   0  0  0  0  0  0  0  0  0  0  0  0
  188.8160  177.3180  143.4590 N   0  0  0  0  0  0  0  0  0  0  0  0
  189.5320  177.2320  145.6840 C   0  0  0  0  0  0  0  0  0  0  0  0
  187.0790  178.3620  146.5510 C   0  0  0  0  0  0  0  0  0  0  0  0
  189.9720  176.7430  143.0480 N   0  0  0  0  0  0  0  0  0  0  0  0
  190.9740  176.3810  143.8660 C   0  0  0  0  0  0  0  0  0  0  0  0
  191.6500  176.3100  146.0800 O   0  0  0  0  0  0  0  0  0  0  0  0
  189.2870  177.4380  147.0440 C   0  0  0  0  0  3  0  0  0  0  0  0
  188.5260  177.6090  144.7440 C   0  0  0  0  0  0  0  0  0  0  0  0
  188.3170  177.3370  142.0930 C   0  0  0  0  0  2  0  0  0  0  0  0
  192.0250  175.8430  143.4240 O   0  0  0  0  0  0  0  0  0  0  0  0
  189.5260  176.7600  141.6620 C   0  0  1  0  0  3  0  0  0  0  0  0
  188.0780  177.9880  147.4670 C   0  0  0  0  0  3  0  0  0  0  0  0
  185.8410  180.0520  147.6780 O   0  0  0  0  0  0  0  0  0  0  0  0
  185.8210  178.9370  147.0890 C   0  0  0  0  0  0  0  0  0  0  0  0
  184.5780  178.2530  146.9680 N   0  0  0  0  0  1  0  0  0  0  0  0
  190.3390  177.7670  140.8490 C   0  0  1  0  0  3  0  0  0  0  0  0
  191.7360  177.3630  140.8220 N   0  0  0  0  0  1  0  0  0  0  0  0
  189.0550  179.0010  139.2570 O   0  0  0  0  0  1  0  0  0  0  0  0
  189.8120  177.8410  139.4250 C   0  0  0  0  0  2  0  0  0  0  0  0
  186.3630  178.6250  144.2360 O   0  0  0  0  0  0  0  0  0  0  0  0
  185.3420  177.7560  143.7680 C   0  0  0  0  0  2  0  0  0  0  0  0
  184.0860  179.7720  143.9630 O   0  0  0  0  0  1  0  0  0  0  0  0
  184.1640  178.5680  143.2650 C   0  0  0  0  0  2  0  0  0  0  0  0
  1  5  1  0  0  0  0
  2  4  1  0  0  0  0
  2  8  2  0  0  0  0
  3 10  1  0  0  0  0
  4  9  2  0  0  0  0
  5 16  1  0  0  0  0
  5 14  2  0  0  0  0
  6  3  1  0  0  0  0
  6  7  1  0  0  0  0
  7  2  1  0  0  0  0
  9 14  1  0  0  0  0
 10  1  2  0  0  0  0
 10  4  1  0  0  0  0
 11  3  1  0  0  0  0
 12  7  2  0  0  0  0
 13 18  1  6  0  0  0
 13 11  1  0  0  0  0
 13  6  1  0  0  0  0
 16 15  2  0  0  0  0
 17 16  1  0  0  0  0
 18 19  1  6  0  0  0
 20 21  1  0  0  0  0
 21 18  1  0  0  0  0
 22  1  1  0  0  0  0
 23 22  1  0  0  0  0
 25 23  1  0  0  0  0
 25 24  1  0  0  0  0
M  END
>  <MODEL>
6

>  <REMARK>
 VINA RESULT:      -7.2      2.304      5.059
  Name = 
  6 active torsions:
  status: ('A' for Active; 'I' for Inactive)
    1  A    between atoms: C_1  and  O_22
    2  A    between atoms: C_5  and  C_10
    3  A    between atoms: CA_15  and  C_20
    4  A    between atoms: CA_15  and  C_25
    5  A    between atoms: C_16  and  C_24
    6  A    between atoms: O_22  and  C_24
                            x       y       z     vdW  Elec       q    Type
                         _______ _______ _______ _____ _____    ______ ____

>  <TORSDO>
F 6

$$$$
=
 OpenBabel11032419203D

 25 27  0  0  1  0  0  0  0  0999 V2000
  189.4650  177.1270  145.5540 C   0  0  0  0  0  0  0  0  0  0  0  0
  189.6780  177.6910  141.8170 C   0  0  0  0  0  0  0  0  0  0  0  0
  187.8170  177.5180  143.8040 N   0  0  0  0  0  0  0  0  0  0  0  0
  190.0700  177.4420  143.1770 C   0  0  0  0  0  0  0  0  0  0  0  0
  190.8280  176.8850  145.8530 C   0  0  0  0  0  0  0  0  0  0  0  0
  187.4520  177.7460  142.5190 N   0  0  0  0  0  0  0  0  0  0  0  0
  188.3100  177.8480  141.4900 C   0  0  0  0  0  0  0  0  0  0  0  0
  190.5490  177.7630  140.9060 O   0  0  0  0  0  0  0  0  0  0  0  0
  191.4120  177.2360  143.5070 C   0  0  0  0  0  3  0  0  0  0  0  0
  189.0930  177.3720  144.2160 C   0  0  0  0  0  0  0  0  0  0  0  0
  186.4230  177.5060  144.2180 C   0  0  0  0  0  2  0  0  0  0  0  0
  187.9090  178.0540  140.3140 O   0  0  0  0  0  0  0  0  0  0  0  0
  186.0430  177.7640  142.8890 C   0  0  1  0  0  3  0  0  0  0  0  0
  191.7800  176.9570  144.8230 C   0  0  0  0  0  3  0  0  0  0  0  0
  191.4020  177.5030  148.0770 O   0  0  0  0  0  0  0  0  0  0  0  0
  191.3080  176.5790  147.2240 C   0  0  0  0  0  0  0  0  0  0  0  0
  191.6810  175.2590  147.6060 N   0  0  0  0  0  1  0  0  0  0  0  0
  185.4730  179.1760  142.7600 C   0  0  1  0  0  3  0  0  0  0  0  0
  184.9590  179.3780  141.4150 N   0  0  0  0  0  1  0  0  0  0  0  0
  183.1410  178.9390  143.2200 O   0  0  0  0  0  1  0  0  0  0  0  0
  184.3480  179.3830  143.7620 C   0  0  0  0  0  2  0  0  0  0  0  0
  188.5130  177.1230  146.5770 O   0  0  0  0  0  0  0  0  0  0  0  0
  188.1810  178.3070  147.2870 C   0  0  0  0  0  2  0  0  0  0  0  0
  186.0500  179.3740  147.2620 O   0  0  0  0  0  1  0  0  0  0  0  0
  186.7320  178.2530  147.7320 C   0  0  0  0  0  2  0  0  0  0  0  0
  1  5  1  0  0  0  0
  1 22  1  0  0  0  0
  2  4  1  0  0  0  0
  3 10  1  0  0  0  0
  3 11  1  0  0  0  0
  4  9  2  0  0  0  0
  4 10  1  0  0  0  0
  5 16  1  0  0  0  0
  6 13  1  0  0  0  0
  6  3  1  0  0  0  0
  7  2  1  0  0  0  0
  7  6  1  0  0  0  0
  8  2  2  0  0  0  0
  9 14  1  0  0  0  0
 10  1  2  0  0  0  0
 12  7  2  0  0  0  0
 13 18  1  1  0  0  0
 13 11  1  0  0  0  0
 14  5  2  0  0  0  0
 16 17  1  0  0  0  0
 16 15  2  0  0  0  0
 18 19  1  6  0  0  0
 18 21  1  0  0  0  0
 20 21  1  0  0  0  0
 22 23  1  0  0  0  0
 23 25  1  0  0  0  0
 24 25  1  0  0  0  0
M  END
>  <MODEL>
7

>  <REMARK>
 VINA RESULT:      -7.1      1.691      6.973
  Name = 
  6 active torsions:
  status: ('A' for Active; 'I' for Inactive)
    1  A    between atoms: C_1  and  O_22
    2  A    between atoms: C_5  and  C_10
    3  A    between atoms: CA_15  and  C_20
    4  A    between atoms: CA_15  and  C_25
    5  A    between atoms: C_16  and  C_24
    6  A    between atoms: O_22  and  C_24
                            x       y       z     vdW  Elec       q    Type
                         _______ _______ _______ _____ _____    ______ ____

>  <TORSDO>
F 6

$$$$
=
 OpenBabel11032419203D

 25 27  0  0  1  0  0  0  0  0999 V2000
  186.7470  178.2550  143.8500 C   0  0  0  0  0  0  0  0  0  0  0  0
  184.7490  178.6280  140.6550 C   0  0  0  0  0  0  0  0  0  0  0  0
  187.3350  178.3960  141.4900 N   0  0  0  0  0  0  0  0  0  0  0  0
  185.0670  178.5110  142.0530 C   0  0  0  0  0  0  0  0  0  0  0  0
  185.7100  178.3450  144.8100 C   0  0  0  0  0  0  0  0  0  0  0  0
  187.0300  178.5140  140.1750 N   0  0  0  0  0  0  0  0  0  0  0  0
  185.7830  178.6280  139.6900 C   0  0  0  0  0  0  0  0  0  0  0  0
  183.5470  178.7410  140.2840 O   0  0  0  0  0  0  0  0  0  0  0  0
  184.0610  178.5590  143.0210 C   0  0  0  0  0  3  0  0  0  0  0  0
  186.4210  178.3700  142.4830 C   0  0  0  0  0  0  0  0  0  0  0  0
  188.7550  178.3770  141.1800 C   0  0  0  0  0  2  0  0  0  0  0  0
  185.5630  178.7420  138.4550 O   0  0  0  0  0  0  0  0  0  0  0  0
  188.4400  178.4770  139.8120 C   0  0  1  0  0  3  0  0  0  0  0  0
  184.3810  178.4830  144.3750 C   0  0  0  0  0  3  0  0  0  0  0  0
  186.4210  177.2170  146.7800 O   0  0  0  0  0  0  0  0  0  0  0  0
  185.9600  178.2750  146.2720 C   0  0  0  0  0  0  0  0  0  0  0  0
  185.6800  179.3770  147.1290 N   0  0  0  0  0  1  0  0  0  0  0  0
  188.7740  177.1730  139.0900 C   0  0  1  0  0  3  0  0  0  0  0  0
  188.2880  177.2320  137.7200 N   0  0  0  0  0  1  0  0  0  0  0  0
  190.5540  175.5910  138.8990 O   0  0  0  0  0  1  0  0  0  0  0  0
  190.2770  176.9470  139.0780 C   0  0  0  0  0  2  0  0  0  0  0  0
  188.0660  178.0530  144.2610 O   0  0  0  0  0  0  0  0  0  0  0  0
  188.6390  176.7540  144.3090 C   0  0  0  0  0  2  0  0  0  0  0  0
  190.5570  178.1680  144.2890 O   0  0  0  0  0  1  0  0  0  0  0  0
  190.1370  176.8590  144.5180 C   0  0  0  0  0  2  0  0  0  0  0  0
  1 22  1  0  0  0  0
  1  5  1  0  0  0  0
  2  4  1  0  0  0  0
  3 10  1  0  0  0  0
  4 10  1  0  0  0  0
  4  9  2  0  0  0  0
  5 16  1  0  0  0  0
  6  3  1  0  0  0  0
  7  6  1  0  0  0  0
  7  2  1  0  0  0  0
  8  2  2  0  0  0  0
  9 14  1  0  0  0  0
 10  1  2  0  0  0  0
 11  3  1  0  0  0  0
 12  7  2  0  0  0  0
 13 18  1  6  0  0  0
 13  6  1  0  0  0  0
 13 11  1  0  0  0  0
 14  5  2  0  0  0  0
 16 15  2  0  0  0  0
 16 17  1  0  0  0  0
 18 19  1  6  0  0  0
 20 21  1  0  0  0  0
 21 18  1  0  0  0  0
 22 23  1  0  0  0  0
 23 25  1  0  0  0  0
 24 25  1  0  0  0  0
M  END
>  <MODEL>
8

>  <REMARK>
 VINA RESULT:      -6.9      2.149      5.575
  Name = 
  6 active torsions:
  status: ('A' for Active; 'I' for Inactive)
    1  A    between atoms: C_1  and  O_22
    2  A    between atoms: C_5  and  C_10
    3  A    between atoms: CA_15  and  C_20
    4  A    between atoms: CA_15  and  C_25
    5  A    between atoms: C_16  and  C_24
    6  A    between atoms: O_22  and  C_24
                            x       y       z     vdW  Elec       q    Type
                         _______ _______ _______ _____ _____    ______ ____

>  <TORSDO>
F 6

$$$$
=
 OpenBabel11032419203D

 25 27  0  0  1  0  0  0  0  0999 V2000
  188.8140  177.4380  140.9280 C   0  0  0  0  0  0  0  0  0  0  0  0
  187.6690  177.4240  144.5360 C   0  0  0  0  0  0  0  0  0  0  0  0
  186.8470  178.2910  142.0840 N   0  0  0  0  0  0  0  0  0  0  0  0
  188.4760  177.2060  143.3660 C   0  0  0  0  0  0  0  0  0  0  0  0
  190.0900  176.8390  141.0640 C   0  0  0  0  0  0  0  0  0  0  0  0
  186.0930  178.5000  143.1900 N   0  0  0  0  0  0  0  0  0  0  0  0
  186.4300  178.1000  144.4270 C   0  0  0  0  0  0  0  0  0  0  0  0
  188.0640  177.0240  145.6660 O   0  0  0  0  0  0  0  0  0  0  0  0
  189.7230  176.5850  143.4650 C   0  0  0  0  0  3  0  0  0  0  0  0
  188.0320  177.6450  142.0820 C   0  0  0  0  0  0  0  0  0  0  0  0
  185.8810  179.0070  141.2660 C   0  0  0  0  0  2  0  0  0  0  0  0
  185.6890  178.3310  145.4200 O   0  0  0  0  0  0  0  0  0  0  0  0
  185.0870  179.2060  142.4090 C   0  0  1  0  0  3  0  0  0  0  0  0
  190.5170  176.4110  142.3330 C   0  0  0  0  0  3  0  0  0  0  0  0
  192.0700  177.2800  139.8200 O   0  0  0  0  0  0  0  0  0  0  0  0
  191.0010  176.6170  139.9120 C   0  0  0  0  0  0  0  0  0  0  0  0
  190.6930  175.6750  138.8900 N   0  0  0  0  0  1  0  0  0  0  0  0
  183.8030  178.3810  142.3190 C   0  0  1  0  0  3  0  0  0  0  0  0
  182.8990  178.7610  143.3930 N   0  0  0  0  0  1  0  0  0  0  0  0
  181.7850  178.9710  141.1860 O   0  0  0  0  0  1  0  0  0  0  0  0
  183.1190  178.6170  140.9820 C   0  0  0  0  0  2  0  0  0  0  0  0
  188.3470  177.8100  139.6650 O   0  0  0  0  0  0  0  0  0  0  0  0
  188.9350  178.8810  138.9410 C   0  0  0  0  0  2  0  0  0  0  0  0
  187.7990  179.4160  136.9160 O   0  0  0  0  0  1  0  0  0  0  0  0
  188.8140  178.6240  137.4510 C   0  0  0  0  0  2  0  0  0  0  0  0
  1  5  2  0  0  0  0
  1 10  1  0  0  0  0
  2  8  2  0  0  0  0
  3  6  1  0  0  0  0
  4  9  1  0  0  0  0
  4  2  1  0  0  0  0
  5 14  1  0  0  0  0
  6  7  1  0  0  0  0
  7  2  1  0  0  0  0
  7 12  2  0  0  0  0
 10  3  1  0  0  0  0
 10  4  2  0  0  0  0
 11  3  1  0  0  0  0
 11 13  1  0  0  0  0
 13 18  1  6  0  0  0
 13  6  1  0  0  0  0
 14  9  2  0  0  0  0
 15 16  2  0  0  0  0
 16  5  1  0  0  0  0
 17 16  1  0  0  0  0
 18 19  1  1  0  0  0
 21 20  1  0  0  0  0
 21 18  1  0  0  0  0
 22  1  1  0  0  0  0
 23 22  1  0  0  0  0
 24 25  1  0  0  0  0
 25 23  1  0  0  0  0
M  END
>  <MODEL>
9

>  <REMARK>
 VINA RESULT:      -6.9      2.544      5.575
  Name = 
  6 active torsions:
  status: ('A' for Active; 'I' for Inactive)
    1  A    between atoms: C_1  and  O_22
    2  A    between atoms: C_5  and  C_10
    3  A    between atoms: CA_15  and  C_20
    4  A    between atoms: CA_15  and  C_25
    5  A    between atoms: C_16  and  C_24
    6  A    between atoms: O_22  and  C_24
                            x       y       z     vdW  Elec       q    Type
                         _______ _______ _______ _____ _____    ______ ____

>  <TORSDO>
F 6

$$$$
