=
 OpenBabel11032419123D

 58 61  0  0  1  0  0  0  0  0999 V2000
  189.7450  178.8420  143.5400 F   0  0  0  0  0  0  0  0  0  0  0  0
  192.1050  175.1380  144.2950 C   0  0  0  0  0  1  0  0  0  0  0  0
  190.2440  176.5920  140.7000 C   0  0  2  0  0  3  0  0  0  0  0  0
  190.6990  176.6600  142.9710 C   0  0  0  0  0  0  0  0  0  0  0  0
  191.2030  176.3180  144.1640 C   0  0  0  0  0  0  0  0  0  0  0  0
  189.8340  177.7580  142.7380 N   0  0  0  0  0  0  0  0  0  0  0  0
  189.5300  177.8080  141.3150 C   0  0  2  0  0  3  0  0  0  0  0  0
  190.9720  175.9420  141.7830 N   0  0  0  0  0  2  0  0  0  0  0  0
  190.8640  177.0740  145.4040 C   0  0  0  0  0  1  0  0  0  0  0  0
  191.2110  177.0410  139.6160 C   0  0  0  0  0  2  0  0  0  0  0  0
  190.8560  176.3850  138.2930 C   0  0  2  0  0  3  0  0  0  0  0  0
  192.8510  175.4200  137.4870 O   0  0  0  0  0  0  0  0  0  0  0  0
  192.0640  176.3500  137.4190 C   0  0  0  0  0  3  0  0  0  0  0  0
  189.7410  177.1740  137.6190 C   0  0  0  0  0  2  0  0  0  0  0  0
  189.0530  174.8250  137.1910 C   0  0  0  0  0  1  0  0  0  0  0  0
  188.8680  176.2720  136.7620 C   0  0  1  0  0  3  0  0  0  0  0  0
  187.4180  176.6820  136.9420 C   0  0  0  0  0  2  0  0  0  0  0  0
  186.7650  176.7440  135.6810 O   0  0  0  0  0  0  0  0  0  0  0  0
  185.1460  175.1790  135.1770 O   0  0  0  0  0  0  0  0  0  0  0  0
  184.4000  177.3150  135.7560 N   0  0  0  0  0  2  0  0  0  0  0  0
  185.4350  176.3570  135.5240 C   0  0  0  0  0  0  0  0  0  0  0  0
  179.6030  180.0690  136.9760 C   0  0  0  0  0  2  0  0  0  0  0  0
  179.9710  178.0860  135.5850 C   0  0  0  0  0  2  0  0  0  0  0  0
  180.3300  179.5490  135.7440 C   0  0  2  0  0  3  0  0  0  0  0  0
  181.6390  177.8780  137.4390 C   0  0  2  0  0  3  0  0  0  0  0  0
  182.5840  178.7350  138.3000 C   0  0  0  0  0  2  0  0  0  0  0  0
  182.9840  176.9930  135.6520 C   0  0  1  0  0  3  0  0  0  0  0  0
  182.4210  176.6510  137.0410 C   0  0  2  0  0  3  0  0  0  0  0  0
  182.3710  180.2450  138.2500 C   0  0  0  0  0  2  0  0  0  0  0  0
  181.3600  178.4680  136.0740 C   0  0  1  0  0  0  0  0  0  0  0  0
  180.9540  180.6290  138.6410 C   0  0  0  0  0  2  0  0  0  0  0  0
  182.2970  178.1020  135.1050 O   0  0  0  0  0  0  0  0  0  0  0  0
  180.2970  181.1500  137.5240 O   0  0  0  0  0  0  0  0  0  0  0  0
  181.5060  175.4240  136.9700 C   0  0  1  0  0  3  0  0  0  0  0  0
  182.2610  174.2570  137.1090 O   0  0  0  0  0  1  0  0  0  0  0  0
  180.4620  175.4800  138.0760 C   0  0  0  0  0  2  0  0  0  0  0  0
  181.1170  175.2480  139.4250 C   0  0  0  0  0  2  0  0  0  0  0  0
  180.4750  176.0190  140.3930 O   0  0  0  0  0  1  0  0  0  0  0  0
  188.0340  177.6570  141.0820 C   0  0  0  0  0  2  0  0  0  0  0  0
  187.2890  178.9420  141.3940 C   0  0  0  0  0  2  0  0  0  0  0  0
  185.9570  178.9560  140.6660 C   0  0  0  0  0  2  0  0  0  0  0  0
  183.5910  177.4910  141.2640 O   0  0  0  0  0  0  0  0  0  0  0  0
  184.9010  179.4010  141.5640 N   0  0  0  0  0  2  0  0  0  0  0  0
  183.7320  178.6150  141.8190 C   0  0  0  0  0  0  0  0  0  0  0  0
  181.4400  179.0160  142.3890 N   0  0  0  0  0  0  0  0  0  0  0  0
  182.6920  179.1120  142.7340 C   0  0  0  0  0  0  0  0  0  0  0  0
  180.3200  179.4800  143.2060 C   0  0  1  0  0  3  0  0  0  0  0  0
  179.2050  179.9820  142.3080 C   0  0  0  0  0  2  0  0  0  0  0  0
  179.5770  181.1930  141.7220 O   0  0  0  0  0  1  0  0  0  0  0  0
  179.4060  177.5040  144.6750 N   0  0  0  0  0  0  0  0  0  0  0  0
  179.8080  178.3760  144.0280 C   0  0  0  0  0  0  0  0  0  0  0  0
  183.0930  179.7550  144.0290 C   0  0  0  0  0  2  0  0  0  0  0  0
  183.6050  178.7060  144.9950 C   0  0  0  0  0  2  0  0  0  0  0  0
  184.9990  179.0860  145.4490 C   0  0  0  0  0  2  0  0  0  0  0  0
  185.3210  178.4240  146.7810 C   0  0  0  0  0  2  0  0  0  0  0  0
  186.7610  177.9220  146.8240 C   0  0  0  0  0  2  0  0  0  0  0  0
  187.4260  178.0140  145.4580 C   0  0  0  0  0  2  0  0  0  0  0  0
  187.2320  176.7220  144.6820 C   0  0  0  0  0  1  0  0  0  0  0  0
  3 10  1  6  0  0  0
  3  7  1  0  0  0  0
  3  8  1  0  0  0  0
  4  5  2  0  0  0  0
  5  2  1  0  0  0  0
  5  9  1  0  0  0  0
  6  4  1  0  0  0  0
  6  1  1  0  0  0  0
  7 39  1  1  0  0  0
  7  6  1  0  0  0  0
  8  4  1  0  0  0  0
 11 13  1  6  0  0  0
 11 10  1  0  0  0  0
 13 12  2  0  0  0  0
 14 11  1  0  0  0  0
 16 17  1  0  0  0  0
 16 15  1  1  0  0  0
 16 14  1  0  0  0  0
 18 17  1  0  0  0  0
 19 21  2  0  0  0  0
 21 18  1  0  0  0  0
 21 20  1  0  0  0  0
 22 33  1  0  0  0  0
 24 23  1  6  0  0  0
 24 30  1  0  0  0  0
 24 22  1  0  0  0  0
 25 26  1  1  0  0  0
 27 20  1  1  0  0  0
 27 28  1  0  0  0  0
 28 34  1  6  0  0  0
 28 25  1  0  0  0  0
 29 26  1  0  0  0  0
 29 31  1  0  0  0  0
 30 23  1  6  0  0  0
 30 25  1  0  0  0  0
 32 27  1  0  0  0  0
 32 30  1  0  0  0  0
 33 31  1  0  0  0  0
 34 35  1  1  0  0  0
 34 36  1  0  0  0  0
 36 37  1  0  0  0  0
 37 38  1  0  0  0  0
 39 40  1  0  0  0  0
 41 40  1  0  0  0  0
 41 43  1  0  0  0  0
 42 44  2  0  0  0  0
 43 44  1  0  0  0  0
 44 46  1  0  0  0  0
 45 46  2  0  0  0  0
 45 47  1  0  0  0  0
 46 52  1  0  0  0  0
 47 48  1  6  0  0  0
 47 51  1  0  0  0  0
 49 48  1  0  0  0  0
 51 50  3  0  0  0  0
 52 53  1  0  0  0  0
 53 54  1  0  0  0  0
 54 55  1  0  0  0  0
 55 56  1  0  0  0  0
 57 56  1  0  0  0  0
 58 57  1  0  0  0  0
M  END
>  <MODEL>
1

>  <REMARK>
 VINA RESULT:      -6.2      0.000      0.000
  Name = 
  26 active torsions:
  status: ('A' for Active; 'I' for Inactive)
    1  A    between atoms: C_1  and  C_30
    2  A    between atoms: C_1  and  C_45
    3  A    between atoms: C_1  and  C_58
    4  A    between atoms: CA_3  and  N_29
    5  A    between atoms: CA_3  and  C_33
    6  A    between atoms: CA_3  and  C_56
    7  A    between atoms: C_9  and  C_24
    8  A    between atoms: C_9  and  C_36
    9  A    between atoms: N_10  and  C_19
   10  A    between atoms: C_12  and  C_39
   11  A    between atoms: C_12  and  C_48
   12  A    between atoms: C_15  and  C_36
   13  A    between atoms: C_16  and  C_58
   14  A    between atoms: N_22  and  C_55
   15  A    between atoms: C_23  and  C_49
   16  A    between atoms: C_25  and  C_41
   17  A    between atoms: C_25  and  C_51
   18  A    between atoms: C_26  and  C_34
   19  A    between atoms: C_30  and  C_31
   20  A    between atoms: C_31  and  C_43
   21  A    between atoms: C_34  and  C_39
   22  A    between atoms: C_38  and  O_53
   23  A    between atoms: C_42  and  C_48
   24  A    between atoms: C_42  and  C_49
   25  A    between atoms: C_43  and  O_53
   26  A    between atoms: C_51  and  C_55
                            x       y       z     vdW  Elec       q    Type
                         _______ _______ _______ _____ _____    ______ ____

>  <TORSDO>
F 26

$$$$
=
 OpenBabel11032419123D

 58 61  0  0  1  0  0  0  0  0999 V2000
  189.2650  179.2530  142.7460 F   0  0  0  0  0  0  0  0  0  0  0  0
  191.9100  175.8000  143.7110 C   0  0  0  0  0  1  0  0  0  0  0  0
  189.4930  176.5960  140.2430 C   0  0  2  0  0  3  0  0  0  0  0  0
  190.2530  177.0410  142.3870 C   0  0  0  0  0  0  0  0  0  0  0  0
  190.9350  176.9120  143.5330 C   0  0  0  0  0  0  0  0  0  0  0  0
  189.3030  178.0580  142.1160 N   0  0  0  0  0  0  0  0  0  0  0  0
  188.8040  177.8700  140.7610 C   0  0  2  0  0  3  0  0  0  0  0  0
  190.3990  176.1520  141.2970 N   0  0  0  0  0  2  0  0  0  0  0  0
  190.7280  177.8450  144.6780 C   0  0  0  0  0  1  0  0  0  0  0  0
  190.2760  176.8970  138.9750 C   0  0  0  0  0  2  0  0  0  0  0  0
  189.9920  175.8410  137.9220 C   0  0  2  0  0  3  0  0  0  0  0  0
  191.7880  175.7400  136.3990 O   0  0  0  0  0  0  0  0  0  0  0  0
  191.2820  175.2910  137.4130 C   0  0  0  0  0  3  0  0  0  0  0  0
  189.1980  176.4630  136.7800 C   0  0  0  0  0  2  0  0  0  0  0  0
  188.5160  174.0740  136.7460 C   0  0  0  0  0  1  0  0  0  0  0  0
  188.2880  175.4410  136.1190 C   0  0  1  0  0  3  0  0  0  0  0  0
  186.8460  175.8670  136.3230 C   0  0  0  0  0  2  0  0  0  0  0  0
  186.7150  176.5910  137.5390 O   0  0  0  0  0  0  0  0  0  0  0  0
  185.7350  178.6680  137.7650 O   0  0  0  0  0  0  0  0  0  0  0  0
  184.3530  176.8130  138.0800 N   0  0  0  0  0  2  0  0  0  0  0  0
  185.6170  177.4110  137.7900 C   0  0  0  0  0  0  0  0  0  0  0  0
  178.9710  175.5100  139.2760 C   0  0  0  0  0  2  0  0  0  0  0  0
  180.1640  177.6370  139.5020 C   0  0  0  0  0  2  0  0  0  0  0  0
  180.1510  176.1930  139.9550 C   0  0  2  0  0  3  0  0  0  0  0  0
  181.1390  176.5780  137.4540 C   0  0  2  0  0  3  0  0  0  0  0  0
  181.5570  175.2040  136.9020 C   0  0  0  0  0  2  0  0  0  0  0  0
  183.1430  177.5890  138.3190 C   0  0  1  0  0  3  0  0  0  0  0  0
  182.2370  177.5420  137.0770 C   0  0  2  0  0  3  0  0  0  0  0  0
  181.0740  173.9820  137.6770 C   0  0  0  0  0  2  0  0  0  0  0  0
  181.2100  176.6730  138.9620 C   0  0  1  0  0  0  0  0  0  0  0  0
  179.5610  173.9580  137.8090 C   0  0  0  0  0  2  0  0  0  0  0  0
  182.4660  177.0550  139.4400 O   0  0  0  0  0  0  0  0  0  0  0  0
  179.2160  174.1410  139.1490 O   0  0  0  0  0  0  0  0  0  0  0  0
  181.6620  178.9280  136.7720 C   0  0  1  0  0  3  0  0  0  0  0  0
  180.2660  178.8690  136.7430 O   0  0  0  0  0  1  0  0  0  0  0  0
  182.0990  179.9260  137.8330 C   0  0  0  0  0  2  0  0  0  0  0  0
  181.0130  180.9620  138.0550 C   0  0  0  0  0  2  0  0  0  0  0  0
  181.5220  182.2340  137.7960 O   0  0  0  0  0  1  0  0  0  0  0  0
  187.3010  177.6330  140.7730 C   0  0  0  0  0  2  0  0  0  0  0  0
  186.6320  178.3530  141.9300 C   0  0  0  0  0  2  0  0  0  0  0  0
  185.8890  179.5730  141.4180 C   0  0  0  0  0  2  0  0  0  0  0  0
  183.8690  177.6270  141.8980 O   0  0  0  0  0  0  0  0  0  0  0  0
  184.6860  179.7930  142.2080 N   0  0  0  0  0  2  0  0  0  0  0  0
  183.7040  178.7690  142.4080 C   0  0  0  0  0  0  0  0  0  0  0  0
  181.3560  179.1900  142.6150 N   0  0  0  0  0  0  0  0  0  0  0  0
  182.5040  179.0430  143.2130 C   0  0  0  0  0  0  0  0  0  0  0  0
  180.0970  179.4730  143.3020 C   0  0  1  0  0  3  0  0  0  0  0  0
  179.0540  179.9220  142.2960 C   0  0  0  0  0  2  0  0  0  0  0  0
  179.3110  181.2360  141.9000 O   0  0  0  0  0  1  0  0  0  0  0  0
  179.2350  177.3100  144.5170 N   0  0  0  0  0  0  0  0  0  0  0  0
  179.6140  178.2640  143.9810 C   0  0  0  0  0  0  0  0  0  0  0  0
  182.6280  179.1860  144.7010 C   0  0  0  0  0  2  0  0  0  0  0  0
  183.8410  178.4240  145.1980 C   0  0  0  0  0  2  0  0  0  0  0  0
  184.9670  179.4010  145.4630 C   0  0  0  0  0  2  0  0  0  0  0  0
  186.2880  178.6590  145.6050 C   0  0  0  0  0  2  0  0  0  0  0  0
  186.6900  178.5070  147.0690 C   0  0  0  0  0  2  0  0  0  0  0  0
  187.8630  177.5500  147.2300 C   0  0  0  0  0  2  0  0  0  0  0  0
  188.8340  178.0660  148.2790 C   0  0  0  0  0  1  0  0  0  0  0  0
  3 10  1  6  0  0  0
  3  7  1  0  0  0  0
  3  8  1  0  0  0  0
  4  5  2  0  0  0  0
  5  2  1  0  0  0  0
  5  9  1  0  0  0  0
  6  4  1  0  0  0  0
  6  1  1  0  0  0  0
  7 39  1  1  0  0  0
  7  6  1  0  0  0  0
  8  4  1  0  0  0  0
 11 14  1  6  0  0  0
 11 10  1  0  0  0  0
 12 13  2  0  0  0  0
 13 11  1  0  0  0  0
 16 17  1  0  0  0  0
 16 15  1  1  0  0  0
 16 14  1  0  0  0  0
 17 18  1  0  0  0  0
 18 21  1  0  0  0  0
 19 21  2  0  0  0  0
 21 20  1  0  0  0  0
 23 24  1  0  0  0  0
 24 22  1  6  0  0  0
 25 26  1  1  0  0  0
 25 30  1  0  0  0  0
 26 29  1  0  0  0  0
 27 20  1  6  0  0  0
 27 32  1  0  0  0  0
 28 34  1  1  0  0  0
 28 25  1  0  0  0  0
 28 27  1  0  0  0  0
 29 31  1  0  0  0  0
 30 32  1  0  0  0  0
 30 23  1  1  0  0  0
 30 24  1  0  0  0  0
 31 33  1  0  0  0  0
 33 22  1  0  0  0  0
 34 35  1  1  0  0  0
 34 36  1  0  0  0  0
 36 37  1  0  0  0  0
 38 37  1  0  0  0  0
 39 40  1  0  0  0  0
 41 40  1  0  0  0  0
 41 43  1  0  0  0  0
 42 44  2  0  0  0  0
 43 44  1  0  0  0  0
 44 46  1  0  0  0  0
 45 46  2  0  0  0  0
 45 47  1  0  0  0  0
 46 52  1  0  0  0  0
 47 48  1  6  0  0  0
 47 51  1  0  0  0  0
 49 48  1  0  0  0  0
 51 50  3  0  0  0  0
 52 53  1  0  0  0  0
 53 54  1  0  0  0  0
 54 55  1  0  0  0  0
 55 56  1  0  0  0  0
 56 57  1  0  0  0  0
 57 58  1  0  0  0  0
M  END
>  <MODEL>
2

>  <REMARK>
 VINA RESULT:      -4.5      1.370      2.920
  Name = 
  26 active torsions:
  status: ('A' for Active; 'I' for Inactive)
    1  A    between atoms: C_1  and  C_30
    2  A    between atoms: C_1  and  C_45
    3  A    between atoms: C_1  and  C_58
    4  A    between atoms: CA_3  and  N_29
    5  A    between atoms: CA_3  and  C_33
    6  A    between atoms: CA_3  and  C_56
    7  A    between atoms: C_9  and  C_24
    8  A    between atoms: C_9  and  C_36
    9  A    between atoms: N_10  and  C_19
   10  A    between atoms: C_12  and  C_39
   11  A    between atoms: C_12  and  C_48
   12  A    between atoms: C_15  and  C_36
   13  A    between atoms: C_16  and  C_58
   14  A    between atoms: N_22  and  C_55
   15  A    between atoms: C_23  and  C_49
   16  A    between atoms: C_25  and  C_41
   17  A    between atoms: C_25  and  C_51
   18  A    between atoms: C_26  and  C_34
   19  A    between atoms: C_30  and  C_31
   20  A    between atoms: C_31  and  C_43
   21  A    between atoms: C_34  and  C_39
   22  A    between atoms: C_38  and  O_53
   23  A    between atoms: C_42  and  C_48
   24  A    between atoms: C_42  and  C_49
   25  A    between atoms: C_43  and  O_53
   26  A    between atoms: C_51  and  C_55
                            x       y       z     vdW  Elec       q    Type
                         _______ _______ _______ _____ _____    ______ ____

>  <TORSDO>
F 26

$$$$
=
 OpenBabel11032419123D

 58 61  0  0  1  0  0  0  0  0999 V2000
  191.1510  174.7840  146.0750 F   0  0  0  0  0  0  0  0  0  0  0  0
  191.7950  177.8590  149.2340 C   0  0  0  0  0  1  0  0  0  0  0  0
  188.8840  177.6540  146.0740 C   0  0  2  0  0  3  0  0  0  0  0  0
  190.7670  176.9200  147.2080 C   0  0  0  0  0  0  0  0  0  0  0  0
  191.7440  176.8650  148.1240 C   0  0  0  0  0  0  0  0  0  0  0  0
  190.6270  176.0290  146.1150 N   0  0  0  0  0  0  0  0  0  0  0  0
  189.4340  176.4020  145.3690 C   0  0  2  0  0  3  0  0  0  0  0  0
  189.7480  177.9000  147.2230 N   0  0  0  0  0  2  0  0  0  0  0  0
  192.8260  175.8420  148.0560 C   0  0  0  0  0  1  0  0  0  0  0  0
  187.4560  177.4160  146.5360 C   0  0  0  0  0  2  0  0  0  0  0  0
  186.5130  178.3810  145.8400 C   0  0  2  0  0  3  0  0  0  0  0  0
  184.2260  178.7530  146.2770 O   0  0  0  0  0  0  0  0  0  0  0  0
  185.3540  178.6690  146.7340 C   0  0  0  0  0  3  0  0  0  0  0  0
  186.0290  177.7650  144.5330 C   0  0  0  0  0  2  0  0  0  0  0  0
  186.8390  177.9290  142.1900 C   0  0  0  0  0  1  0  0  0  0  0  0
  186.2600  178.7060  143.3620 C   0  0  1  0  0  3  0  0  0  0  0  0
  184.9330  179.3260  142.9650 C   0  0  0  0  0  2  0  0  0  0  0  0
  184.0400  178.3200  142.5050 O   0  0  0  0  0  0  0  0  0  0  0  0
  181.9590  179.3110  142.6200 O   0  0  0  0  0  0  0  0  0  0  0  0
  182.4800  178.1850  140.6420 N   0  0  0  0  0  2  0  0  0  0  0  0
  182.7970  178.6370  141.9590 C   0  0  0  0  0  0  0  0  0  0  0  0
  179.8220  176.2130  136.0440 C   0  0  0  0  0  2  0  0  0  0  0  0
  178.9640  177.5570  137.9040 C   0  0  0  0  0  2  0  0  0  0  0  0
  179.6140  176.2350  137.5530 C   0  0  2  0  0  3  0  0  0  0  0  0
  181.3150  178.3530  137.5780 C   0  0  2  0  0  3  0  0  0  0  0  0
  182.7190  177.8260  137.2350 C   0  0  0  0  0  2  0  0  0  0  0  0
  181.2220  178.4970  139.9770 C   0  0  1  0  0  3  0  0  0  0  0  0
  181.4910  179.3310  138.7130 C   0  0  2  0  0  3  0  0  0  0  0  0
  182.7990  176.4050  136.6850 C   0  0  0  0  0  2  0  0  0  0  0  0
  180.4280  177.3260  138.2480 C   0  0  1  0  0  0  0  0  0  0  0  0
  181.9520  176.2350  135.4360 C   0  0  0  0  0  2  0  0  0  0  0  0
  180.5660  177.2910  139.6380 O   0  0  0  0  0  0  0  0  0  0  0  0
  180.8900  175.3740  135.7180 O   0  0  0  0  0  0  0  0  0  0  0  0
  180.4870  180.4820  138.5980 C   0  0  1  0  0  3  0  0  0  0  0  0
  179.7700  180.6110  139.7900 O   0  0  0  0  0  1  0  0  0  0  0  0
  181.2140  181.7870  138.3070 C   0  0  0  0  0  2  0  0  0  0  0  0
  180.3920  182.6440  137.3620 C   0  0  0  0  0  2  0  0  0  0  0  0
  179.1250  182.8530  137.9050 O   0  0  0  0  0  1  0  0  0  0  0  0
  189.7930  176.7740  143.9380 C   0  0  0  0  0  2  0  0  0  0  0  0
  190.4090  178.1590  143.8580 C   0  0  0  0  0  2  0  0  0  0  0  0
  191.6880  178.1090  143.0430 C   0  0  0  0  0  2  0  0  0  0  0  0
  193.3150  178.2520  140.7130 O   0  0  0  0  0  0  0  0  0  0  0  0
  191.4730  177.3430  141.8230 N   0  0  0  0  0  2  0  0  0  0  0  0
  192.3300  177.4660  140.6820 C   0  0  0  0  0  0  0  0  0  0  0  0
  193.0480  176.4060  138.6590 N   0  0  0  0  0  0  0  0  0  0  0  0
  192.0670  176.6700  139.4720 C   0  0  0  0  0  0  0  0  0  0  0  0
  192.9120  175.6350  137.4240 C   0  0  1  0  0  3  0  0  0  0  0  0
  193.4900  176.4220  136.2620 C   0  0  0  0  0  2  0  0  0  0  0  0
  194.6160  175.7680  135.7600 O   0  0  0  0  0  1  0  0  0  0  0  0
  194.2070  173.3610  137.6390 N   0  0  0  0  0  0  0  0  0  0  0  0
  193.6370  174.3640  137.5440 C   0  0  0  0  0  0  0  0  0  0  0  0
  190.6690  176.2120  139.1780 C   0  0  0  0  0  2  0  0  0  0  0  0
  190.0840  177.0210  138.0380 C   0  0  0  0  0  2  0  0  0  0  0  0
  189.1080  178.0350  138.5970 C   0  0  0  0  0  2  0  0  0  0  0  0
  188.2360  178.5990  137.4850 C   0  0  0  0  0  2  0  0  0  0  0  0
  186.7740  178.1980  137.6610 C   0  0  0  0  0  2  0  0  0  0  0  0
  186.3780  177.0890  136.6980 C   0  0  0  0  0  2  0  0  0  0  0  0
  187.4800  176.8470  135.6790 C   0  0  0  0  0  1  0  0  0  0  0  0
  1  6  1  0  0  0  0
  3 10  1  1  0  0  0
  3  8  1  0  0  0  0
  4  8  1  0  0  0  0
  4  5  2  0  0  0  0
  5  2  1  0  0  0  0
  6  4  1  0  0  0  0
  7 39  1  6  0  0  0
  7  3  1  0  0  0  0
  7  6  1  0  0  0  0
  9  5  1  0  0  0  0
 11 14  1  6  0  0  0
 11 10  1  0  0  0  0
 11 13  1  0  0  0  0
 12 13  2  0  0  0  0
 16 15  1  6  0  0  0
 16 14  1  0  0  0  0
 17 16  1  0  0  0  0
 18 17  1  0  0  0  0
 20 21  1  0  0  0  0
 21 18  1  0  0  0  0
 21 19  2  0  0  0  0
 24 22  1  6  0  0  0
 24 23  1  0  0  0  0
 24 30  1  0  0  0  0
 25 26  1  1  0  0  0
 25 30  1  0  0  0  0
 25 28  1  0  0  0  0
 27 20  1  6  0  0  0
 28 34  1  6  0  0  0
 28 27  1  0  0  0  0
 29 26  1  0  0  0  0
 30 23  1  1  0  0  0
 30 32  1  0  0  0  0
 31 33  1  0  0  0  0
 31 29  1  0  0  0  0
 32 27  1  0  0  0  0
 33 22  1  0  0  0  0
 34 35  1  1  0  0  0
 36 34  1  0  0  0  0
 37 38  1  0  0  0  0
 37 36  1  0  0  0  0
 40 39  1  0  0  0  0
 41 40  1  0  0  0  0
 43 41  1  0  0  0  0
 44 42  2  0  0  0  0
 44 43  1  0  0  0  0
 45 46  2  0  0  0  0
 46 44  1  0  0  0  0
 47 48  1  6  0  0  0
 47 51  1  0  0  0  0
 47 45  1  0  0  0  0
 49 48  1  0  0  0  0
 51 50  3  0  0  0  0
 52 46  1  0  0  0  0
 53 54  1  0  0  0  0
 53 52  1  0  0  0  0
 55 56  1  0  0  0  0
 55 54  1  0  0  0  0
 57 56  1  0  0  0  0
 58 57  1  0  0  0  0
M  END
>  <MODEL>
3

>  <REMARK>
 VINA RESULT:      -4.3      2.359      8.227
  Name = 
  26 active torsions:
  status: ('A' for Active; 'I' for Inactive)
    1  A    between atoms: C_1  and  C_30
    2  A    between atoms: C_1  and  C_45
    3  A    between atoms: C_1  and  C_58
    4  A    between atoms: CA_3  and  N_29
    5  A    between atoms: CA_3  and  C_33
    6  A    between atoms: CA_3  and  C_56
    7  A    between atoms: C_9  and  C_24
    8  A    between atoms: C_9  and  C_36
    9  A    between atoms: N_10  and  C_19
   10  A    between atoms: C_12  and  C_39
   11  A    between atoms: C_12  and  C_48
   12  A    between atoms: C_15  and  C_36
   13  A    between atoms: C_16  and  C_58
   14  A    between atoms: N_22  and  C_55
   15  A    between atoms: C_23  and  C_49
   16  A    between atoms: C_25  and  C_41
   17  A    between atoms: C_25  and  C_51
   18  A    between atoms: C_26  and  C_34
   19  A    between atoms: C_30  and  C_31
   20  A    between atoms: C_31  and  C_43
   21  A    between atoms: C_34  and  C_39
   22  A    between atoms: C_38  and  O_53
   23  A    between atoms: C_42  and  C_48
   24  A    between atoms: C_42  and  C_49
   25  A    between atoms: C_43  and  O_53
   26  A    between atoms: C_51  and  C_55
                            x       y       z     vdW  Elec       q    Type
                         _______ _______ _______ _____ _____    ______ ____

>  <TORSDO>
F 26

$$$$
=
 OpenBabel11032419123D

 58 61  0  0  1  0  0  0  0  0999 V2000
  182.6080  179.9890  139.1350 F   0  0  0  0  0  0  0  0  0  0  0  0
  179.1070  182.6850  138.5630 C   0  0  0  0  0  1  0  0  0  0  0  0
  179.5730  179.1750  141.0060 C   0  0  2  0  0  3  0  0  0  0  0  0
  180.2790  180.6950  139.4060 C   0  0  0  0  0  0  0  0  0  0  0  0
  180.2690  181.7520  138.5810 C   0  0  0  0  0  0  0  0  0  0  0  0
  181.3300  179.7490  139.5000 N   0  0  0  0  0  0  0  0  0  0  0  0
  180.9770  178.7730  140.5220 C   0  0  2  0  0  3  0  0  0  0  0  0
  179.2160  180.3930  140.2880 N   0  0  0  0  0  2  0  0  0  0  0  0
  181.3900  182.0190  137.6350 C   0  0  0  0  0  1  0  0  0  0  0  0
  179.5850  179.4370  142.5030 C   0  0  0  0  0  2  0  0  0  0  0  0
  180.6380  178.5730  143.1760 C   0  0  2  0  0  3  0  0  0  0  0  0
  179.6710  176.7880  144.3750 O   0  0  0  0  0  0  0  0  0  0  0  0
  180.0540  177.9460  144.3980 C   0  0  0  0  0  3  0  0  0  0  0  0
  181.8380  179.4340  143.5490 C   0  0  0  0  0  2  0  0  0  0  0  0
  183.9780  179.1030  142.3300 C   0  0  0  0  0  1  0  0  0  0  0  0
  183.1280  178.6320  143.5000 C   0  0  1  0  0  3  0  0  0  0  0  0
  183.8820  178.8390  144.8010 C   0  0  0  0  0  2  0  0  0  0  0  0
  185.2500  179.1160  144.5370 O   0  0  0  0  0  0  0  0  0  0  0  0
  186.4150  177.1560  144.8940 O   0  0  0  0  0  0  0  0  0  0  0  0
  186.7280  178.2040  142.8310 N   0  0  0  0  0  2  0  0  0  0  0  0
  186.1350  178.1200  144.1280 C   0  0  0  0  0  0  0  0  0  0  0  0
  191.8230  176.2570  144.3600 C   0  0  0  0  0  2  0  0  0  0  0  0
  190.1540  175.2880  142.8520 C   0  0  0  0  0  2  0  0  0  0  0  0
  190.3910  175.7450  144.2750 C   0  0  2  0  0  3  0  0  0  0  0  0
  189.9630  177.7590  142.5040 C   0  0  2  0  0  3  0  0  0  0  0  0
  190.0150  179.0840  143.2830 C   0  0  0  0  0  2  0  0  0  0  0  0
  187.6340  177.1920  142.3050 C   0  0  1  0  0  3  0  0  0  0  0  0
  188.7940  177.8670  141.5560 C   0  0  2  0  0  3  0  0  0  0  0  0
  190.5690  179.0180  144.7040 C   0  0  0  0  0  2  0  0  0  0  0  0
  189.5160  176.5800  143.3400 C   0  0  1  0  0  0  0  0  0  0  0  0
  191.9710  178.4350  144.7380 C   0  0  0  0  0  2  0  0  0  0  0  0
  188.1300  176.4140  143.3770 O   0  0  0  0  0  0  0  0  0  0  0  0
  191.9370  177.1990  145.3850 O   0  0  0  0  0  0  0  0  0  0  0  0
  189.0910  177.1370  140.2420 C   0  0  1  0  0  3  0  0  0  0  0  0
  188.2970  177.6570  139.2180 O   0  0  0  0  0  1  0  0  0  0  0  0
  190.5580  177.2980  139.8700 C   0  0  0  0  0  2  0  0  0  0  0  0
  190.8160  176.7060  138.4970 C   0  0  0  0  0  2  0  0  0  0  0  0
  190.2750  175.4230  138.4330 O   0  0  0  0  0  1  0  0  0  0  0  0
  180.8980  177.3760  139.9230 C   0  0  0  0  0  2  0  0  0  0  0  0
  179.4640  176.9760  139.6280 C   0  0  0  0  0  2  0  0  0  0  0  0
  179.3110  176.6520  138.1540 C   0  0  0  0  0  2  0  0  0  0  0  0
  181.3700  177.4530  136.3610 O   0  0  0  0  0  0  0  0  0  0  0  0
  180.4120  175.8070  137.7120 N   0  0  0  0  0  2  0  0  0  0  0  0
  181.4160  176.2730  136.8020 C   0  0  0  0  0  0  0  0  0  0  0  0
  182.5550  174.1670  136.8610 N   0  0  0  0  0  0  0  0  0  0  0  0
  182.5060  175.3780  136.3840 C   0  0  0  0  0  0  0  0  0  0  0  0
  183.5900  173.1890  136.5290 C   0  0  1  0  0  3  0  0  0  0  0  0
  184.5530  173.0470  137.6930 C   0  0  0  0  0  2  0  0  0  0  0  0
  185.8210  172.7060  137.2210 O   0  0  0  0  0  1  0  0  0  0  0  0
  182.4930  170.8540  136.0400 N   0  0  0  0  0  0  0  0  0  0  0  0
  182.9770  171.8830  136.2560 C   0  0  0  0  0  0  0  0  0  0  0  0
  183.5620  175.8870  135.4480 C   0  0  0  0  0  2  0  0  0  0  0  0
  184.4110  176.9350  136.1400 C   0  0  0  0  0  2  0  0  0  0  0  0
  185.7600  176.3360  136.4830 C   0  0  0  0  0  2  0  0  0  0  0  0
  186.8760  177.3060  136.1240 C   0  0  0  0  0  2  0  0  0  0  0  0
  187.6420  176.8450  134.8880 C   0  0  0  0  0  2  0  0  0  0  0  0
  187.4100  175.3680  134.6050 C   0  0  0  0  0  2  0  0  0  0  0  0
  188.5030  174.5230  135.2390 C   0  0  0  0  0  1  0  0  0  0  0  0
  1  6  1  0  0  0  0
  2  5  1  0  0  0  0
  3 10  1  1  0  0  0
  4  6  1  0  0  0  0
  4  8  1  0  0  0  0
  5  4  2  0  0  0  0
  6  7  1  0  0  0  0
  7 39  1  6  0  0  0
  7  3  1  0  0  0  0
  8  3  1  0  0  0  0
  9  5  1  0  0  0  0
 11 10  1  1  0  0  0
 11 14  1  0  0  0  0
 11 13  1  0  0  0  0
 12 13  2  0  0  0  0
 16 15  1  6  0  0  0
 16 14  1  0  0  0  0
 16 17  1  0  0  0  0
 18 17  1  0  0  0  0
 20 21  1  0  0  0  0
 21 18  1  0  0  0  0
 21 19  2  0  0  0  0
 22 33  1  0  0  0  0
 24 23  1  6  0  0  0
 24 22  1  0  0  0  0
 25 26  1  1  0  0  0
 25 30  1  0  0  0  0
 26 29  1  0  0  0  0
 27 20  1  1  0  0  0
 27 32  1  0  0  0  0
 28 34  1  6  0  0  0
 28 27  1  0  0  0  0
 28 25  1  0  0  0  0
 29 31  1  0  0  0  0
 30 23  1  6  0  0  0
 30 32  1  0  0  0  0
 30 24  1  0  0  0  0
 31 33  1  0  0  0  0
 34 35  1  6  0  0  0
 36 34  1  0  0  0  0
 37 36  1  0  0  0  0
 38 37  1  0  0  0  0
 40 39  1  0  0  0  0
 41 40  1  0  0  0  0
 42 44  2  0  0  0  0
 43 41  1  0  0  0  0
 44 43  1  0  0  0  0
 46 44  1  0  0  0  0
 46 45  2  0  0  0  0
 47 51  1  1  0  0  0
 47 45  1  0  0  0  0
 47 48  1  0  0  0  0
 49 48  1  0  0  0  0
 50 51  3  0  0  0  0
 52 53  1  0  0  0  0
 52 46  1  0  0  0  0
 53 54  1  0  0  0  0
 55 54  1  0  0  0  0
 56 55  1  0  0  0  0
 57 56  1  0  0  0  0
 57 58  1  0  0  0  0
M  END
>  <MODEL>
4

>  <REMARK>
 VINA RESULT:      -4.0      2.925     10.461
  Name = 
  26 active torsions:
  status: ('A' for Active; 'I' for Inactive)
    1  A    between atoms: C_1  and  C_30
    2  A    between atoms: C_1  and  C_45
    3  A    between atoms: C_1  and  C_58
    4  A    between atoms: CA_3  and  N_29
    5  A    between atoms: CA_3  and  C_33
    6  A    between atoms: CA_3  and  C_56
    7  A    between atoms: C_9  and  C_24
    8  A    between atoms: C_9  and  C_36
    9  A    between atoms: N_10  and  C_19
   10  A    between atoms: C_12  and  C_39
   11  A    between atoms: C_12  and  C_48
   12  A    between atoms: C_15  and  C_36
   13  A    between atoms: C_16  and  C_58
   14  A    between atoms: N_22  and  C_55
   15  A    between atoms: C_23  and  C_49
   16  A    between atoms: C_25  and  C_41
   17  A    between atoms: C_25  and  C_51
   18  A    between atoms: C_26  and  C_34
   19  A    between atoms: C_30  and  C_31
   20  A    between atoms: C_31  and  C_43
   21  A    between atoms: C_34  and  C_39
   22  A    between atoms: C_38  and  O_53
   23  A    between atoms: C_42  and  C_48
   24  A    between atoms: C_42  and  C_49
   25  A    between atoms: C_43  and  O_53
   26  A    between atoms: C_51  and  C_55
                            x       y       z     vdW  Elec       q    Type
                         _______ _______ _______ _____ _____    ______ ____

>  <TORSDO>
F 26

$$$$
=
 OpenBabel11032419123D

 58 61  0  0  1  0  0  0  0  0999 V2000
  183.6120  180.0020  139.4250 F   0  0  0  0  0  0  0  0  0  0  0  0
  180.3880  182.6450  137.8530 C   0  0  0  0  0  1  0  0  0  0  0  0
  180.4150  178.4140  138.6300 C   0  0  2  0  0  3  0  0  0  0  0  0
  181.4180  180.4960  138.4580 C   0  0  0  0  0  0  0  0  0  0  0  0
  181.5610  181.8100  138.2390 C   0  0  0  0  0  0  0  0  0  0  0  0
  182.4650  179.6150  138.8260 N   0  0  0  0  0  0  0  0  0  0  0  0
  181.9040  178.2820  138.9930 C   0  0  2  0  0  3  0  0  0  0  0  0
  180.1800  179.8230  138.3340 N   0  0  0  0  0  2  0  0  0  0  0  0
  182.8890  182.4820  138.3400 C   0  0  0  0  0  1  0  0  0  0  0  0
  179.5450  177.9740  139.7960 C   0  0  0  0  0  2  0  0  0  0  0  0
  180.3730  177.9000  141.0670 C   0  0  2  0  0  3  0  0  0  0  0  0
  179.0880  175.9680  141.4840 O   0  0  0  0  0  0  0  0  0  0  0  0
  179.8450  176.8100  141.9380 C   0  0  0  0  0  3  0  0  0  0  0  0
  180.3040  179.2370  141.7960 C   0  0  0  0  0  2  0  0  0  0  0  0
  181.0730  178.4810  144.0350 C   0  0  0  0  0  1  0  0  0  0  0  0
  181.4060  179.3550  142.8360 C   0  0  1  0  0  3  0  0  0  0  0  0
  182.7140  178.9010  142.2150 C   0  0  0  0  0  2  0  0  0  0  0  0
  183.3980  178.0210  143.0970 O   0  0  0  0  0  0  0  0  0  0  0  0
  184.0960  179.1220  145.0010 O   0  0  0  0  0  0  0  0  0  0  0  0
  185.7620  178.2030  143.6470 N   0  0  0  0  0  2  0  0  0  0  0  0
  184.3940  178.4750  143.9590 C   0  0  0  0  0  0  0  0  0  0  0  0
  191.3690  177.3990  143.5410 C   0  0  0  0  0  2  0  0  0  0  0  0
  190.0320  179.0150  144.8080 C   0  0  0  0  0  2  0  0  0  0  0  0
  190.3850  178.5550  143.4100 C   0  0  2  0  0  3  0  0  0  0  0  0
  188.6090  176.9590  144.7040 C   0  0  2  0  0  3  0  0  0  0  0  0
  188.2270  175.8150  143.7480 C   0  0  0  0  0  2  0  0  0  0  0  0
  186.8670  178.6050  144.5060 C   0  0  1  0  0  3  0  0  0  0  0  0
  187.3280  177.4130  145.3600 C   0  0  2  0  0  3  0  0  0  0  0  0
  189.0940  175.6500  142.5030 C   0  0  0  0  0  2  0  0  0  0  0  0
  189.0100  178.2340  143.9960 C   0  0  1  0  0  0  0  0  0  0  0  0
  190.5580  175.4550  142.8550 C   0  0  0  0  0  2  0  0  0  0  0  0
  187.9320  179.0720  143.7010 O   0  0  0  0  0  0  0  0  0  0  0  0
  191.2840  176.5670  142.4240 O   0  0  0  0  0  0  0  0  0  0  0  0
  187.5830  177.8460  146.8070 C   0  0  1  0  0  3  0  0  0  0  0  0
  186.3670  178.0570  147.4620 O   0  0  0  0  0  1  0  0  0  0  0  0
  188.3720  176.7760  147.5460 C   0  0  0  0  0  2  0  0  0  0  0  0
  189.6610  177.3600  148.0930 C   0  0  0  0  0  2  0  0  0  0  0  0
  190.7490  176.6830  147.5440 O   0  0  0  0  0  1  0  0  0  0  0  0
  182.5510  177.3030  138.0240 C   0  0  0  0  0  2  0  0  0  0  0  0
  182.2220  177.6460  136.5830 C   0  0  0  0  0  2  0  0  0  0  0  0
  183.4560  177.4740  135.7160 C   0  0  0  0  0  2  0  0  0  0  0  0
  186.2560  177.6780  135.2520 O   0  0  0  0  0  0  0  0  0  0  0  0
  184.4810  176.7420  136.4470 N   0  0  0  0  0  2  0  0  0  0  0  0
  185.8770  176.8890  136.1600 C   0  0  0  0  0  0  0  0  0  0  0  0
  187.9370  176.7280  137.3710 N   0  0  0  0  0  0  0  0  0  0  0  0
  186.8730  176.1240  136.9270 C   0  0  0  0  0  0  0  0  0  0  0  0
  188.9990  176.0770  138.1350 C   0  0  1  0  0  3  0  0  0  0  0  0
  190.0750  175.5720  137.1900 C   0  0  0  0  0  2  0  0  0  0  0  0
  190.3690  174.2380  137.4770 O   0  0  0  0  0  1  0  0  0  0  0  0
  190.0740  177.7890  139.8120 N   0  0  0  0  0  0  0  0  0  0  0  0
  189.6000  177.0340  139.0730 C   0  0  0  0  0  0  0  0  0  0  0  0
  186.6640  174.6550  137.1510 C   0  0  0  0  0  2  0  0  0  0  0  0
  186.6010  173.9290  135.8220 C   0  0  0  0  0  2  0  0  0  0  0  0
  186.2080  172.4860  136.0610 C   0  0  0  0  0  2  0  0  0  0  0  0
  184.9520  172.4140  136.9160 C   0  0  0  0  0  2  0  0  0  0  0  0
  183.7070  172.1850  136.0640 C   0  0  0  0  0  2  0  0  0  0  0  0
  182.6450  171.4030  136.8240 C   0  0  0  0  0  2  0  0  0  0  0  0
  181.2740  171.6280  136.2100 C   0  0  0  0  0  1  0  0  0  0  0  0
  2  5  1  0  0  0  0
  3  7  1  0  0  0  0
  3 10  1  1  0  0  0
  4  6  1  0  0  0  0
  5  9  1  0  0  0  0
  5  4  2  0  0  0  0
  6  7  1  0  0  0  0
  6  1  1  0  0  0  0
  7 39  1  6  0  0  0
  8  4  1  0  0  0  0
  8  3  1  0  0  0  0
 11 10  1  6  0  0  0
 11 14  1  0  0  0  0
 11 13  1  0  0  0  0
 12 13  2  0  0  0  0
 14 16  1  0  0  0  0
 16 15  1  1  0  0  0
 17 16  1  0  0  0  0
 17 18  1  0  0  0  0
 18 21  1  0  0  0  0
 20 21  1  0  0  0  0
 21 19  2  0  0  0  0
 24 22  1  1  0  0  0
 24 30  1  0  0  0  0
 24 23  1  0  0  0  0
 25 26  1  6  0  0  0
 25 28  1  0  0  0  0
 27 20  1  6  0  0  0
 27 28  1  0  0  0  0
 28 34  1  1  0  0  0
 29 31  1  0  0  0  0
 29 26  1  0  0  0  0
 30 25  1  0  0  0  0
 30 23  1  1  0  0  0
 32 30  1  0  0  0  0
 32 27  1  0  0  0  0
 33 31  1  0  0  0  0
 33 22  1  0  0  0  0
 34 35  1  1  0  0  0
 34 36  1  0  0  0  0
 36 37  1  0  0  0  0
 38 37  1  0  0  0  0
 40 39  1  0  0  0  0
 41 43  1  0  0  0  0
 41 40  1  0  0  0  0
 42 44  2  0  0  0  0
 44 43  1  0  0  0  0
 44 46  1  0  0  0  0
 45 47  1  0  0  0  0
 46 52  1  0  0  0  0
 46 45  2  0  0  0  0
 47 48  1  6  0  0  0
 47 51  1  0  0  0  0
 48 49  1  0  0  0  0
 51 50  3  0  0  0  0
 53 54  1  0  0  0  0
 53 52  1  0  0  0  0
 54 55  1  0  0  0  0
 56 57  1  0  0  0  0
 56 55  1  0  0  0  0
 58 57  1  0  0  0  0
M  END
>  <MODEL>
5

>  <REMARK>
 VINA RESULT:      -3.9      3.041     10.742
  Name = 
  26 active torsions:
  status: ('A' for Active; 'I' for Inactive)
    1  A    between atoms: C_1  and  C_30
    2  A    between atoms: C_1  and  C_45
    3  A    between atoms: C_1  and  C_58
    4  A    between atoms: CA_3  and  N_29
    5  A    between atoms: CA_3  and  C_33
    6  A    between atoms: CA_3  and  C_56
    7  A    between atoms: C_9  and  C_24
    8  A    between atoms: C_9  and  C_36
    9  A    between atoms: N_10  and  C_19
   10  A    between atoms: C_12  and  C_39
   11  A    between atoms: C_12  and  C_48
   12  A    between atoms: C_15  and  C_36
   13  A    between atoms: C_16  and  C_58
   14  A    between atoms: N_22  and  C_55
   15  A    between atoms: C_23  and  C_49
   16  A    between atoms: C_25  and  C_41
   17  A    between atoms: C_25  and  C_51
   18  A    between atoms: C_26  and  C_34
   19  A    between atoms: C_30  and  C_31
   20  A    between atoms: C_31  and  C_43
   21  A    between atoms: C_34  and  C_39
   22  A    between atoms: C_38  and  O_53
   23  A    between atoms: C_42  and  C_48
   24  A    between atoms: C_42  and  C_49
   25  A    between atoms: C_43  and  O_53
   26  A    between atoms: C_51  and  C_55
                            x       y       z     vdW  Elec       q    Type
                         _______ _______ _______ _____ _____    ______ ____

>  <TORSDO>
F 26

$$$$
=
 OpenBabel11032419123D

 58 61  0  0  1  0  0  0  0  0999 V2000
  187.7940  175.6050  134.6100 F   0  0  0  0  0  0  0  0  0  0  0  0
  188.8380  179.0910  137.1820 C   0  0  0  0  0  1  0  0  0  0  0  0
  191.1660  175.6640  136.0260 C   0  0  2  0  0  3  0  0  0  0  0  0
  189.2070  176.8960  136.1380 C   0  0  0  0  0  0  0  0  0  0  0  0
  188.3610  177.8920  136.4370 C   0  0  0  0  0  0  0  0  0  0  0  0
  188.8560  175.7150  135.4380 N   0  0  0  0  0  0  0  0  0  0  0  0
  190.0530  174.8980  135.2910 C   0  0  2  0  0  3  0  0  0  0  0  0
  190.5730  176.9080  136.5030 N   0  0  0  0  0  2  0  0  0  0  0  0
  186.9170  177.8300  136.0720 C   0  0  0  0  0  1  0  0  0  0  0  0
  192.3160  175.9630  135.0780 C   0  0  0  0  0  2  0  0  0  0  0  0
  193.6280  175.9980  135.8420 C   0  0  2  0  0  3  0  0  0  0  0  0
  195.7750  176.8970  135.4660 O   0  0  0  0  0  0  0  0  0  0  0  0
  194.6630  176.6840  135.0140 C   0  0  0  0  0  3  0  0  0  0  0  0
  194.0680  174.5750  136.1620 C   0  0  0  0  0  2  0  0  0  0  0  0
  194.3110  172.8550  137.9380 C   0  0  0  0  0  1  0  0  0  0  0  0
  194.1180  174.3380  137.6620 C   0  0  1  0  0  3  0  0  0  0  0  0
  195.2780  175.1260  138.2420 C   0  0  0  0  0  2  0  0  0  0  0  0
  194.9290  175.6470  139.5170 O   0  0  0  0  0  0  0  0  0  0  0  0
  193.5590  177.3290  138.7320 O   0  0  0  0  0  0  0  0  0  0  0  0
  193.1970  176.6170  140.9260 N   0  0  0  0  0  2  0  0  0  0  0  0
  193.8880  176.5600  139.6760 C   0  0  0  0  0  0  0  0  0  0  0  0
  190.4310  178.3350  145.5620 C   0  0  0  0  0  2  0  0  0  0  0  0
  190.4540  179.2780  143.3010 C   0  0  0  0  0  2  0  0  0  0  0  0
  191.3290  178.9350  144.4880 C   0  0  2  0  0  3  0  0  0  0  0  0
  190.6260  176.8050  142.9570 C   0  0  2  0  0  3  0  0  0  0  0  0
  191.2820  175.5540  143.5700 C   0  0  0  0  0  2  0  0  0  0  0  0
  192.0750  177.5110  141.1720 C   0  0  1  0  0  3  0  0  0  0  0  0
  190.8060  176.6920  141.4640 C   0  0  2  0  0  3  0  0  0  0  0  0
  191.8710  175.7100  144.9690 C   0  0  0  0  0  2  0  0  0  0  0  0
  191.3920  178.0830  143.2210 C   0  0  1  0  0  0  0  0  0  0  0  0
  190.8360  176.1940  145.9680 C   0  0  0  0  0  2  0  0  0  0  0  0
  192.3810  178.3470  142.2710 O   0  0  0  0  0  0  0  0  0  0  0  0
  191.1710  177.4840  146.3860 O   0  0  0  0  0  0  0  0  0  0  0  0
  189.5990  177.2780  140.7260 C   0  0  1  0  0  3  0  0  0  0  0  0
  189.4240  176.6250  139.5040 O   0  0  0  0  0  1  0  0  0  0  0  0
  188.3390  177.1170  141.5650 C   0  0  0  0  0  2  0  0  0  0  0  0
  187.6210  178.4470  141.6890 C   0  0  0  0  0  2  0  0  0  0  0  0
  187.4600  179.0110  140.4240 O   0  0  0  0  0  1  0  0  0  0  0  0
  189.8660  173.5490  135.9710 C   0  0  0  0  0  2  0  0  0  0  0  0
  188.6270  173.5330  136.8470 C   0  0  0  0  0  2  0  0  0  0  0  0
  187.8940  172.2140  136.6810 C   0  0  0  0  0  2  0  0  0  0  0  0
  186.1700  171.1950  134.6600 O   0  0  0  0  0  0  0  0  0  0  0  0
  186.4590  172.4450  136.6110 N   0  0  0  0  0  2  0  0  0  0  0  0
  185.6470  171.9050  135.5630 C   0  0  0  0  0  0  0  0  0  0  0  0
  183.3760  171.1900  135.3010 N   0  0  0  0  0  0  0  0  0  0  0  0
  184.2000  172.1710  135.5370 C   0  0  0  0  0  0  0  0  0  0  0  0
  181.9220  171.3290  135.2410 C   0  0  1  0  0  3  0  0  0  0  0  0
  181.3000  170.0200  134.7920 C   0  0  0  0  0  2  0  0  0  0  0  0
  179.9220  170.0500  135.0110 O   0  0  0  0  0  1  0  0  0  0  0  0
  180.9820  171.9460  137.6140 N   0  0  0  0  0  0  0  0  0  0  0  0
  181.3970  171.6750  136.5680 C   0  0  0  0  0  0  0  0  0  0  0  0
  183.7020  173.5700  135.7450 C   0  0  0  0  0  2  0  0  0  0  0  0
  184.3390  174.5060  134.7370 C   0  0  0  0  0  2  0  0  0  0  0  0
  183.9230  175.9290  135.0460 C   0  0  0  0  0  2  0  0  0  0  0  0
  183.3590  176.0210  136.4560 C   0  0  0  0  0  2  0  0  0  0  0  0
  183.6060  177.3960  137.0690 C   0  0  0  0  0  2  0  0  0  0  0  0
  182.3020  178.1400  137.3160 C   0  0  0  0  0  2  0  0  0  0  0  0
  181.1750  177.5280  136.5000 C   0  0  0  0  0  1  0  0  0  0  0  0
  1  6  1  0  0  0  0
  3 10  1  6  0  0  0
  3  8  1  0  0  0  0
  4  5  2  0  0  0  0
  4  8  1  0  0  0  0
  5  2  1  0  0  0  0
  6  4  1  0  0  0  0
  7  6  1  0  0  0  0
  7 39  1  1  0  0  0
  7  3  1  0  0  0  0
  9  5  1  0  0  0  0
 10 11  1  0  0  0  0
 11 13  1  6  0  0  0
 11 14  1  0  0  0  0
 13 12  2  0  0  0  0
 14 16  1  0  0  0  0
 16 15  1  6  0  0  0
 16 17  1  0  0  0  0
 17 18  1  0  0  0  0
 18 21  1  0  0  0  0
 19 21  2  0  0  0  0
 21 20  1  0  0  0  0
 22 33  1  0  0  0  0
 24 23  1  6  0  0  0
 24 22  1  0  0  0  0
 25 30  1  0  0  0  0
 25 26  1  1  0  0  0
 26 29  1  0  0  0  0
 27 20  1  1  0  0  0
 27 28  1  0  0  0  0
 27 32  1  0  0  0  0
 28 34  1  6  0  0  0
 28 25  1  0  0  0  0
 29 31  1  0  0  0  0
 30 23  1  6  0  0  0
 30 24  1  0  0  0  0
 31 33  1  0  0  0  0
 32 30  1  0  0  0  0
 34 35  1  6  0  0  0
 34 36  1  0  0  0  0
 36 37  1  0  0  0  0
 38 37  1  0  0  0  0
 39 40  1  0  0  0  0
 41 40  1  0  0  0  0
 42 44  2  0  0  0  0
 43 41  1  0  0  0  0
 44 43  1  0  0  0  0
 45 46  2  0  0  0  0
 46 44  1  0  0  0  0
 46 52  1  0  0  0  0
 47 48  1  1  0  0  0
 47 45  1  0  0  0  0
 47 51  1  0  0  0  0
 48 49  1  0  0  0  0
 51 50  3  0  0  0  0
 53 54  1  0  0  0  0
 53 52  1  0  0  0  0
 54 55  1  0  0  0  0
 55 56  1  0  0  0  0
 56 57  1  0  0  0  0
 58 57  1  0  0  0  0
M  END
>  <MODEL>
6

>  <REMARK>
 VINA RESULT:      -3.3      4.357      9.611
  Name = 
  26 active torsions:
  status: ('A' for Active; 'I' for Inactive)
    1  A    between atoms: C_1  and  C_30
    2  A    between atoms: C_1  and  C_45
    3  A    between atoms: C_1  and  C_58
    4  A    between atoms: CA_3  and  N_29
    5  A    between atoms: CA_3  and  C_33
    6  A    between atoms: CA_3  and  C_56
    7  A    between atoms: C_9  and  C_24
    8  A    between atoms: C_9  and  C_36
    9  A    between atoms: N_10  and  C_19
   10  A    between atoms: C_12  and  C_39
   11  A    between atoms: C_12  and  C_48
   12  A    between atoms: C_15  and  C_36
   13  A    between atoms: C_16  and  C_58
   14  A    between atoms: N_22  and  C_55
   15  A    between atoms: C_23  and  C_49
   16  A    between atoms: C_25  and  C_41
   17  A    between atoms: C_25  and  C_51
   18  A    between atoms: C_26  and  C_34
   19  A    between atoms: C_30  and  C_31
   20  A    between atoms: C_31  and  C_43
   21  A    between atoms: C_34  and  C_39
   22  A    between atoms: C_38  and  O_53
   23  A    between atoms: C_42  and  C_48
   24  A    between atoms: C_42  and  C_49
   25  A    between atoms: C_43  and  O_53
   26  A    between atoms: C_51  and  C_55
                            x       y       z     vdW  Elec       q    Type
                         _______ _______ _______ _____ _____    ______ ____

>  <TORSDO>
F 26

$$$$
