=
 OpenBabel11042409563D

 66 72  0  0  1  0  0  0  0  0999 V2000
  194.1770  177.1260  138.2280 N   0  0  0  0  0  2  0  0  0  0  0  0
  193.0780  176.8360  139.0810 C   0  0  0  0  0  0  0  0  0  0  0  0
  190.5950  176.8780  138.5280 C   0  0  0  0  0  0  0  0  0  0  0  0
  192.0320  177.0200  141.3320 C   0  0  0  0  0  3  0  0  0  0  0  0
  190.7140  177.0480  141.0850 C   0  0  0  0  0  0  0  0  0  0  0  0
  192.4860  176.3570  136.9340 C   0  0  0  0  0  0  0  0  0  0  0  0
  190.1030  177.1620  139.7420 C   0  0  0  0  0  3  0  0  0  0  0  0
  193.1380  177.1000  140.3760 C   0  0  0  0  0  3  0  0  0  0  0  0
  191.9330  176.2030  138.3290 C   0  0  1  0  0  3  0  0  0  0  0  0
  191.8840  176.0640  135.8640 O   0  0  0  0  0  0  0  0  0  0  0  0
  193.7730  176.8590  136.9450 O   0  0  0  0  0  0  0  0  0  0  0  0
  189.1180  178.1060  136.9080 C   0  0  0  0  0  2  0  0  0  0  0  0
  186.2920  175.6250  136.5990 C   0  0  0  0  0  0  0  0  0  0  0  0
  184.1100  177.0130  136.9540 C   0  0  0  0  0  3  0  0  0  0  0  0
  185.2040  176.3260  136.7920 C   0  0  0  0  0  0  0  0  0  0  0  0
  187.6830  177.8130  136.5050 C   0  0  1  0  0  3  0  0  0  0  0  0
  189.6470  176.8610  137.4540 N   0  0  0  0  0  0  0  0  0  0  0  0
  189.2750  174.5630  136.8800 N   0  0  0  0  0  2  0  0  0  0  0  0
  187.3650  178.4790  135.1770 C   0  0  0  0  0  1  0  0  0  0  0  0
  187.4400  173.4390  136.0330 C   0  0  1  0  0  3  0  0  0  0  0  0
  186.1370  174.1340  136.4340 C   0  0  0  0  0  2  0  0  0  0  0  0
  188.3950  173.4940  137.1350 N   0  0  0  0  0  2  0  0  0  0  0  0
  188.6640  175.7940  137.3710 C   0  0  2  0  0  3  0  0  0  0  0  0
  187.6340  176.2920  136.3780 C   0  0  1  0  0  3  0  0  0  0  0  0
  182.5000  177.7760  134.9110 O   0  0  0  0  0  0  0  0  0  0  0  0
  182.6830  176.6670  135.9250 P   0  0  1  0  0  0  0  0  0  0  0  0
  182.9320  175.2020  135.1140 O   0  0  0  0  0  1  0  0  0  0  0  0
  181.1970  176.5310  136.9620 C   0  0  0  0  0  2  0  0  0  0  0  0
  181.2580  175.2730  137.8070 C   0  0  0  0  0  2  0  0  0  0  0  0
  180.1110  174.3420  135.8970 O   0  0  0  0  0  1  0  0  0  0  0  0
  180.3310  174.1710  137.2740 C   0  0  1  0  0  0  0  0  0  0  0  0
  180.9810  172.8140  137.5260 C   0  0  0  0  0  2  0  0  0  0  0  0
  182.1780  172.6830  136.8040 O   0  0  0  0  0  0  0  0  0  0  0  0
  181.0210  171.5100  135.1000 O   0  0  0  0  0  0  0  0  0  0  0  0
  182.2740  170.2760  136.6490 O   0  0  0  0  0  1  0  0  0  0  0  0
  182.0650  171.5110  136.0390 C   0  0  2  0  0  0  0  0  0  0  0  0
  182.3400  171.6150  134.5950 C   0  0  0  0  0  2  0  0  0  0  0  0
  178.9900  174.2320  138.0210 C   0  0  0  0  0  2  0  0  0  0  0  0
  179.1680  174.3480  139.5020 C   0  0  0  0  0  0  0  0  0  0  0  0
  179.5950  175.5790  140.0720 N   0  0  0  0  0  1  0  0  0  0  0  0
  179.0440  173.3290  140.2320 O   0  0  0  0  0  0  0  0  0  0  0  0
  186.9490  170.9030  135.3370 C   0  0  0  0  0  3  0  0  0  0  0  0
  187.1840  172.0450  135.6580 C   0  0  0  0  0  0  0  0  0  0  0  0
  190.1910  177.3440  143.5690 C   0  0  0  0  0  3  0  0  0  0  0  0
  186.5330  179.1060  144.4930 O   0  0  0  0  0  0  0  0  0  0  0  0
  187.9910  177.6470  143.4140 N   0  0  0  0  0  0  0  0  0  0  0  0
  186.6780  178.1100  143.7310 C   0  0  0  0  0  0  0  0  0  0  0  0
  188.4380  177.3830  142.1760 C   0  0  0  0  0  3  0  0  0  0  0  0
  189.8050  177.1890  142.2460 C   0  0  0  0  0  0  0  0  0  0  0  0
  185.5280  177.4490  143.1880 N   0  0  0  0  0  2  0  0  0  0  0  0
  189.0330  177.6410  144.2640 C   0  0  0  0  0  3  0  0  0  0  0  0
  183.6790  178.3160  141.8340 C   0  0  0  0  0  3  0  0  0  0  0  0
  181.7480  179.3130  142.9030 C   0  0  0  0  0  3  0  0  0  0  0  0
  183.5900  178.5180  144.2490 C   0  0  0  0  0  3  0  0  0  0  0  0
  184.2620  178.1030  143.0890 C   0  0  0  0  0  0  0  0  0  0  0  0
  182.3370  179.1230  144.1560 C   0  0  0  0  0  3  0  0  0  0  0  0
  182.4160  178.9100  141.7360 C   0  0  0  0  0  0  0  0  0  0  0  0
  183.6980  180.0150  139.4860 O   0  0  0  0  0  0  0  0  0  0  0  0
  182.4770  179.7070  139.3740 C   0  0  0  0  0  0  0  0  0  0  0  0
  181.7830  179.0580  140.4560 N   0  0  0  0  0  0  0  0  0  0  0  0
  179.6450  178.6300  141.2400 O   0  0  0  0  0  1  0  0  0  0  0  0
  180.4390  178.6710  140.2820 N   0  0  0  0  0  2  0  0  0  0  0  0
  181.7770  179.9910  138.0830 C   0  0  0  0  0  2  0  0  0  0  0  0
  181.4430  181.4760  137.9610 C   0  0  0  0  0  2  0  0  0  0  0  0
  179.1740  180.7680  137.7050 O   0  0  0  0  0  1  0  0  0  0  0  0
  179.9840  181.7360  138.2980 C   0  0  0  0  0  2  0  0  0  0  0  0
  1  2  1  0  0  0  0
  2  8  2  0  0  0  0
  3  7  2  0  0  0  0
  5  4  2  0  0  0  0
  5 49  1  0  0  0  0
  6 11  1  0  0  0  0
  7  5  1  0  0  0  0
  8  4  1  0  0  0  0
  9  6  1  6  0  0  0
  9  3  1  0  0  0  0
  9  2  1  0  0  0  0
 10  6  2  0  0  0  0
 11  1  1  0  0  0  0
 12 17  1  0  0  0  0
 13 15  2  0  0  0  0
 15 14  2  0  0  0  0
 16 19  1  6  0  0  0
 16 12  1  0  0  0  0
 17  3  1  0  0  0  0
 18 22  1  0  0  0  0
 20 43  1  1  0  0  0
 20 21  1  0  0  0  0
 20 22  1  0  0  0  0
 21 13  1  0  0  0  0
 23 18  1  6  0  0  0
 23 17  1  0  0  0  0
 24 16  1  0  0  0  0
 24 13  1  1  0  0  0
 24 23  1  0  0  0  0
 26 25  2  6  0  0  0
 26 14  1  0  0  0  0
 26 28  1  0  0  0  0
 27 26  1  0  0  0  0
 28 29  1  0  0  0  0
 31 30  1  6  0  0  0
 31 32  1  0  0  0  0
 31 29  1  0  0  0  0
 31 38  1  0  0  0  0
 33 32  1  0  0  0  0
 34 36  1  0  0  0  0
 36 35  1  1  0  0  0
 36 33  1  0  0  0  0
 37 34  1  0  0  0  0
 37 36  1  0  0  0  0
 38 39  1  0  0  0  0
 39 40  1  0  0  0  0
 39 41  2  0  0  0  0
 42 43  3  0  0  0  0
 44 51  2  0  0  0  0
 46 47  1  0  0  0  0
 46 51  1  0  0  0  0
 47 45  2  0  0  0  0
 48 49  2  0  0  0  0
 48 46  1  0  0  0  0
 49 44  1  0  0  0  0
 50 47  1  0  0  0  0
 52 55  1  0  0  0  0
 53 56  2  0  0  0  0
 55 50  1  0  0  0  0
 55 54  2  0  0  0  0
 56 54  1  0  0  0  0
 57 52  2  0  0  0  0
 57 53  1  0  0  0  0
 59 58  2  0  0  0  0
 59 60  1  0  0  0  0
 60 57  1  0  0  0  0
 62 60  1  0  0  0  0
 62 61  1  0  0  0  0
 63 59  1  0  0  0  0
 64 63  1  0  0  0  0
 64 66  1  0  0  0  0
 65 66  1  0  0  0  0
M  END
>  <MODEL>
1

>  <REMARK>
 VINA RESULT:      -6.0      0.000      0.000
  Name = 
  18 active torsions:
  status: ('A' for Active; 'I' for Inactive)
    1  A    between atoms: C_5  and  P_37
    2  A    between atoms: C_9  and  N_26
    3  A    between atoms: O_10  and  C_19
    4  A    between atoms: O_10  and  C_38
    5  A    between atoms: C_13  and  C_58
    6  A    between atoms: C_25  and  C_30
    7  A    between atoms: C_25  and  C_53
    8  A    between atoms: C_30  and  P_37
    9  A    between atoms: C_32  and  C_35
   10  A    between atoms: C_36  and  N_59
   11  A    between atoms: C_38  and  C_53
   12  A    between atoms: C_42  and  C_49
   13  A    between atoms: C_42  and  C_57
   14  A    between atoms: C_43  and  C_44
   15  A    between atoms: C_43  and  C_53
   16  A    between atoms: C_45  and  C_57
   17  A    between atoms: N_50  and  N_62
   18  A    between atoms: N_50  and  C_64
                            x       y       z     vdW  Elec       q    Type
                         _______ _______ _______ _____ _____    ______ ____

>  <TORSDO>
F 18

$$$$
=
 OpenBabel11042409563D

 66 72  0  0  1  0  0  0  0  0999 V2000
  191.9700  174.4180  137.3810 N   0  0  0  0  0  2  0  0  0  0  0  0
  190.6870  174.7090  136.8430 C   0  0  0  0  0  0  0  0  0  0  0  0
  188.8570  176.1760  137.8270 C   0  0  0  0  0  0  0  0  0  0  0  0
  188.6580  173.9100  135.6420 C   0  0  0  0  0  3  0  0  0  0  0  0
  187.6630  174.6600  136.1360 C   0  0  0  0  0  0  0  0  0  0  0  0
  191.3490  176.4560  138.1460 C   0  0  0  0  0  0  0  0  0  0  0  0
  187.7830  175.5810  137.2890 C   0  0  0  0  0  3  0  0  0  0  0  0
  190.0440  173.8160  136.1080 C   0  0  0  0  0  3  0  0  0  0  0  0
  190.2300  176.1020  137.1980 C   0  0  1  0  0  3  0  0  0  0  0  0
  191.4320  177.5140  138.8290 O   0  0  0  0  0  0  0  0  0  0  0  0
  192.3190  175.4730  138.1850 O   0  0  0  0  0  0  0  0  0  0  0  0
  189.5290  177.4870  139.8620 C   0  0  0  0  0  2  0  0  0  0  0  0
  186.1260  178.2240  141.3130 C   0  0  0  0  0  0  0  0  0  0  0  0
  186.2850  177.5520  143.8300 C   0  0  0  0  0  3  0  0  0  0  0  0
  186.2100  177.8720  142.5700 C   0  0  0  0  0  0  0  0  0  0  0  0
  188.6870  177.9090  141.0530 C   0  0  1  0  0  3  0  0  0  0  0  0
  188.5900  177.2120  138.7800 N   0  0  0  0  0  0  0  0  0  0  0  0
  186.5090  178.2250  138.1570 N   0  0  0  0  0  2  0  0  0  0  0  0
  189.3480  179.0700  141.7780 C   0  0  0  0  0  1  0  0  0  0  0  0
  184.8320  179.2400  139.3860 C   0  0  1  0  0  3  0  0  0  0  0  0
  184.7790  178.6800  140.8090 C   0  0  0  0  0  2  0  0  0  0  0  0
  185.1300  178.1700  138.4390 N   0  0  0  0  0  2  0  0  0  0  0  0
  187.2240  177.4850  139.1920 C   0  0  2  0  0  3  0  0  0  0  0  0
  187.3570  178.3360  140.4380 C   0  0  1  0  0  3  0  0  0  0  0  0
  185.4150  180.0180  144.5430 O   0  0  0  0  0  0  0  0  0  0  0  0
  185.5050  178.5980  145.0600 P   0  0  1  0  0  0  0  0  0  0  0  0
  183.9470  178.0140  145.3700 O   0  0  0  0  0  1  0  0  0  0  0  0
  186.4730  178.5640  146.5970 C   0  0  0  0  0  2  0  0  0  0  0  0
  187.4410  177.3950  146.5850 C   0  0  0  0  0  2  0  0  0  0  0  0
  188.9860  178.7050  147.8990 O   0  0  0  0  0  1  0  0  0  0  0  0
  188.8940  177.8450  146.7930 C   0  0  1  0  0  0  0  0  0  0  0  0
  189.7630  176.6130  147.0260 C   0  0  0  0  0  2  0  0  0  0  0  0
  190.8310  176.9020  147.8900 O   0  0  0  0  0  0  0  0  0  0  0  0
  193.1330  176.3630  148.0710 O   0  0  0  0  0  0  0  0  0  0  0  0
  191.9130  175.4570  146.2870 O   0  0  0  0  0  1  0  0  0  0  0  0
  191.8700  176.0160  147.5620 C   0  0  2  0  0  0  0  0  0  0  0  0
  192.4830  175.2520  148.6640 C   0  0  0  0  0  2  0  0  0  0  0  0
  189.3840  178.5730  145.5320 C   0  0  0  0  0  2  0  0  0  0  0  0
  190.1710  177.6780  144.6270 C   0  0  0  0  0  0  0  0  0  0  0  0
  189.5700  176.5080  144.0870 N   0  0  0  0  0  1  0  0  0  0  0  0
  191.3950  177.9020  144.4300 O   0  0  0  0  0  0  0  0  0  0  0  0
  182.5240  180.4310  138.7480 C   0  0  0  0  0  3  0  0  0  0  0  0
  183.5600  179.8790  139.0380 C   0  0  0  0  0  0  0  0  0  0  0  0
  185.8660  173.2340  135.0090 C   0  0  0  0  0  3  0  0  0  0  0  0
  181.9230  174.0460  136.0720 O   0  0  0  0  0  0  0  0  0  0  0  0
  184.1040  174.5310  135.4200 N   0  0  0  0  0  0  0  0  0  0  0  0
  182.7500  174.9100  135.6690 C   0  0  0  0  0  0  0  0  0  0  0  0
  185.1840  175.1820  135.8780 C   0  0  0  0  0  3  0  0  0  0  0  0
  186.2950  174.3960  135.6340 C   0  0  0  0  0  0  0  0  0  0  0  0
  182.3290  176.2650  135.4610 N   0  0  0  0  0  2  0  0  0  0  0  0
  184.4930  173.3510  134.9050 C   0  0  0  0  0  3  0  0  0  0  0  0
  181.0030  176.6590  137.4840 C   0  0  0  0  0  3  0  0  0  0  0  0
  178.9310  177.9070  137.3590 C   0  0  0  0  0  3  0  0  0  0  0  0
  180.1960  177.4730  135.3470 C   0  0  0  0  0  3  0  0  0  0  0  0
  181.1670  176.7960  136.1010 C   0  0  0  0  0  0  0  0  0  0  0  0
  179.0790  178.0250  135.9750 C   0  0  0  0  0  3  0  0  0  0  0  0
  179.8930  177.2240  138.1200 C   0  0  0  0  0  0  0  0  0  0  0  0
  179.6430  179.4870  139.7760 O   0  0  0  0  0  0  0  0  0  0  0  0
  179.7210  178.3560  140.3350 C   0  0  0  0  0  0  0  0  0  0  0  0
  179.7630  177.1510  139.5480 N   0  0  0  0  0  0  0  0  0  0  0  0
  180.4130  174.9340  139.7250 O   0  0  0  0  0  1  0  0  0  0  0  0
  179.7880  175.9010  140.1990 N   0  0  0  0  0  2  0  0  0  0  0  0
  179.7280  178.2890  141.8300 C   0  0  0  0  0  2  0  0  0  0  0  0
  181.1400  178.4890  142.3760 C   0  0  0  0  0  2  0  0  0  0  0  0
  180.0210  180.4510  143.1570 O   0  0  0  0  0  1  0  0  0  0  0  0
  181.2270  179.7530  143.2140 C   0  0  0  0  0  2  0  0  0  0  0  0
  1 11  1  0  0  0  0
  2  1  1  0  0  0  0
  3 17  1  0  0  0  0
  4  8  1  0  0  0  0
  4  5  2  0  0  0  0
  5  7  1  0  0  0  0
  6 11  1  0  0  0  0
  6 10  2  0  0  0  0
  7  3  2  0  0  0  0
  8  2  2  0  0  0  0
  9  2  1  1  0  0  0
  9  3  1  0  0  0  0
  9  6  1  0  0  0  0
 12 16  1  0  0  0  0
 13 15  2  0  0  0  0
 14 26  1  0  0  0  0
 15 14  2  0  0  0  0
 16 19  1  6  0  0  0
 17 23  1  0  0  0  0
 17 12  1  0  0  0  0
 18 22  1  0  0  0  0
 20 43  1  6  0  0  0
 20 21  1  0  0  0  0
 21 13  1  0  0  0  0
 22 20  1  0  0  0  0
 23 18  1  6  0  0  0
 23 24  1  0  0  0  0
 24 16  1  0  0  0  0
 24 13  1  1  0  0  0
 26 25  2  6  0  0  0
 26 27  1  0  0  0  0
 26 28  1  0  0  0  0
 29 28  1  0  0  0  0
 29 31  1  0  0  0  0
 31 32  1  0  0  0  0
 31 30  1  1  0  0  0
 32 33  1  0  0  0  0
 34 37  1  0  0  0  0
 36 35  1  6  0  0  0
 36 33  1  0  0  0  0
 36 34  1  0  0  0  0
 36 37  1  0  0  0  0
 38 31  1  0  0  0  0
 39 38  1  0  0  0  0
 40 39  1  0  0  0  0
 41 39  2  0  0  0  0
 42 43  3  0  0  0  0
 44 49  1  0  0  0  0
 46 47  1  0  0  0  0
 46 48  1  0  0  0  0
 47 45  2  0  0  0  0
 49 48  2  0  0  0  0
 49  5  1  0  0  0  0
 50 47  1  0  0  0  0
 50 55  1  0  0  0  0
 51 44  2  0  0  0  0
 51 46  1  0  0  0  0
 52 57  1  0  0  0  0
 53 57  2  0  0  0  0
 54 56  2  0  0  0  0
 54 55  1  0  0  0  0
 55 52  2  0  0  0  0
 56 53  1  0  0  0  0
 57 60  1  0  0  0  0
 58 59  2  0  0  0  0
 59 63  1  0  0  0  0
 60 62  1  0  0  0  0
 60 59  1  0  0  0  0
 61 62  1  0  0  0  0
 63 64  1  0  0  0  0
 64 66  1  0  0  0  0
 65 66  1  0  0  0  0
M  END
>  <MODEL>
2

>  <REMARK>
 VINA RESULT:      -4.9      3.094      8.829
  Name = 
  18 active torsions:
  status: ('A' for Active; 'I' for Inactive)
    1  A    between atoms: C_5  and  P_37
    2  A    between atoms: C_9  and  N_26
    3  A    between atoms: O_10  and  C_19
    4  A    between atoms: O_10  and  C_38
    5  A    between atoms: C_13  and  C_58
    6  A    between atoms: C_25  and  C_30
    7  A    between atoms: C_25  and  C_53
    8  A    between atoms: C_30  and  P_37
    9  A    between atoms: C_32  and  C_35
   10  A    between atoms: C_36  and  N_59
   11  A    between atoms: C_38  and  C_53
   12  A    between atoms: C_42  and  C_49
   13  A    between atoms: C_42  and  C_57
   14  A    between atoms: C_43  and  C_44
   15  A    between atoms: C_43  and  C_53
   16  A    between atoms: C_45  and  C_57
   17  A    between atoms: N_50  and  N_62
   18  A    between atoms: N_50  and  C_64
                            x       y       z     vdW  Elec       q    Type
                         _______ _______ _______ _____ _____    ______ ____

>  <TORSDO>
F 18

$$$$
=
 OpenBabel11042409563D

 66 72  0  0  1  0  0  0  0  0999 V2000
  193.7860  172.6360  134.9520 N   0  0  0  0  0  2  0  0  0  0  0  0
  192.3980  172.9390  134.9330 C   0  0  0  0  0  0  0  0  0  0  0  0
  191.1150  174.5720  136.4040 C   0  0  0  0  0  0  0  0  0  0  0  0
  190.0530  172.1340  134.7090 C   0  0  0  0  0  3  0  0  0  0  0  0
  189.3390  172.9700  135.4760 C   0  0  0  0  0  0  0  0  0  0  0  0
  193.5340  174.7610  135.6930 C   0  0  0  0  0  0  0  0  0  0  0  0
  189.9120  173.9820  136.3920 C   0  0  0  0  0  3  0  0  0  0  0  0
  191.5090  172.0160  134.6010 C   0  0  0  0  0  3  0  0  0  0  0  0
  192.1300  174.3780  135.2990 C   0  0  1  0  0  3  0  0  0  0  0  0
  193.8890  175.8700  136.1810 O   0  0  0  0  0  0  0  0  0  0  0  0
  194.4320  173.7400  135.4460 O   0  0  0  0  0  0  0  0  0  0  0  0
  192.5610  176.0680  137.8130 C   0  0  0  0  0  2  0  0  0  0  0  0
  190.1030  176.9790  140.5250 C   0  0  0  0  0  0  0  0  0  0  0  0
  191.3610  176.5550  142.7720 C   0  0  0  0  0  3  0  0  0  0  0  0
  190.7360  176.7510  141.6470 C   0  0  0  0  0  0  0  0  0  0  0  0
  192.3070  176.6140  139.2070 C   0  0  1  0  0  3  0  0  0  0  0  0
  191.2550  175.6980  137.2780 N   0  0  0  0  0  0  0  0  0  0  0  0
  189.0780  176.6670  137.5330 N   0  0  0  0  0  2  0  0  0  0  0  0
  193.1780  177.8320  139.4610 C   0  0  0  0  0  1  0  0  0  0  0  0
  188.0680  177.8150  139.2680 C   0  0  1  0  0  3  0  0  0  0  0  0
  188.6570  177.3980  140.6180 C   0  0  0  0  0  2  0  0  0  0  0  0
  187.9610  176.6550  138.3900 N   0  0  0  0  0  2  0  0  0  0  0  0
  190.1950  176.0250  138.2160 C   0  0  2  0  0  3  0  0  0  0  0  0
  190.8280  176.9920  139.1950 C   0  0  1  0  0  3  0  0  0  0  0  0
  191.5630  177.0790  145.4240 O   0  0  0  0  0  1  0  0  0  0  0  0
  191.1590  177.7250  144.1160 P   0  0  1  0  0  0  0  0  0  0  0  0
  192.1450  179.0700  143.8260 O   0  0  0  0  0  0  0  0  0  0  0  0
  189.4250  178.2630  144.2060 C   0  0  0  0  0  2  0  0  0  0  0  0
  188.4980  177.0630  144.1660 C   0  0  0  0  0  2  0  0  0  0  0  0
  186.3000  176.2830  144.7930 O   0  0  0  0  0  1  0  0  0  0  0  0
  187.0510  177.4370  144.5140 C   0  0  1  0  0  0  0  0  0  0  0  0
  187.0580  178.3530  145.7350 C   0  0  0  0  0  2  0  0  0  0  0  0
  186.8250  177.6290  146.9140 O   0  0  0  0  0  0  0  0  0  0  0  0
  187.5390  178.6740  148.9180 O   0  0  0  0  0  0  0  0  0  0  0  0
  189.1340  178.2380  147.2570 O   0  0  0  0  0  1  0  0  0  0  0  0
  187.8860  177.9180  147.7850 C   0  0  2  0  0  0  0  0  0  0  0  0
  187.8480  177.3070  149.1270 C   0  0  0  0  0  2  0  0  0  0  0  0
  186.4220  178.1860  143.3290 C   0  0  0  0  0  2  0  0  0  0  0  0
  184.9780  178.5020  143.5560 C   0  0  0  0  0  0  0  0  0  0  0  0
  184.5590  179.0550  144.7970 N   0  0  0  0  0  1  0  0  0  0  0  0
  184.1200  178.1800  142.6910 O   0  0  0  0  0  0  0  0  0  0  0  0
  185.6710  178.9600  139.5860 C   0  0  0  0  0  3  0  0  0  0  0  0
  186.7510  178.4310  139.4510 C   0  0  0  0  0  0  0  0  0  0  0  0
  187.2780  171.5350  135.9480 C   0  0  0  0  0  3  0  0  0  0  0  0
  183.8330  173.5670  137.1040 O   0  0  0  0  0  0  0  0  0  0  0  0
  185.7270  173.1270  135.8250 N   0  0  0  0  0  0  0  0  0  0  0  0
  184.5100  173.8320  136.0730 C   0  0  0  0  0  0  0  0  0  0  0  0
  186.9000  173.6980  135.5100 C   0  0  0  0  0  3  0  0  0  0  0  0
  187.8820  172.7270  135.5780 C   0  0  0  0  0  0  0  0  0  0  0  0
  184.0580  174.8370  135.1560 N   0  0  0  0  0  2  0  0  0  0  0  0
  185.9360  171.8280  136.1050 C   0  0  0  0  0  3  0  0  0  0  0  0
  182.4960  175.7780  136.7920 C   0  0  0  0  0  3  0  0  0  0  0  0
  181.4100  177.8990  136.3600 C   0  0  0  0  0  3  0  0  0  0  0  0
  182.9000  176.9540  134.7100 C   0  0  0  0  0  3  0  0  0  0  0  0
  183.1410  175.8580  135.5530 C   0  0  0  0  0  0  0  0  0  0  0  0
  182.0350  177.9720  135.1130 C   0  0  0  0  0  3  0  0  0  0  0  0
  181.6380  176.8030  137.2060 C   0  0  0  0  0  0  0  0  0  0  0  0
  182.1340  178.7150  139.2120 O   0  0  0  0  0  0  0  0  0  0  0  0
  181.4010  177.7290  139.5090 C   0  0  0  0  0  0  0  0  0  0  0  0
  181.0360  176.7600  138.5090 N   0  0  0  0  0  0  0  0  0  0  0  0
  180.4400  174.9140  139.7780 O   0  0  0  0  0  1  0  0  0  0  0  0
  180.1680  175.7040  138.8540 N   0  0  0  0  0  2  0  0  0  0  0  0
  180.8870  177.6080  140.9090 C   0  0  0  0  0  2  0  0  0  0  0  0
  179.7950  178.6410  141.1770 C   0  0  0  0  0  2  0  0  0  0  0  0
  181.1760  179.5680  142.8930 O   0  0  0  0  0  1  0  0  0  0  0  0
  180.3750  179.8990  141.8000 C   0  0  0  0  0  2  0  0  0  0  0  0
  1 11  1  0  0  0  0
  2  1  1  0  0  0  0
  3 17  1  0  0  0  0
  4  5  2  0  0  0  0
  5 49  1  0  0  0  0
  5  7  1  0  0  0  0
  6 10  2  0  0  0  0
  7  3  2  0  0  0  0
  8  4  1  0  0  0  0
  8  2  2  0  0  0  0
  9  2  1  1  0  0  0
  9  6  1  0  0  0  0
  9  3  1  0  0  0  0
 11  6  1  0  0  0  0
 12 16  1  0  0  0  0
 13 21  1  0  0  0  0
 13 15  2  0  0  0  0
 14 26  1  0  0  0  0
 15 14  2  0  0  0  0
 16 19  1  6  0  0  0
 17 12  1  0  0  0  0
 17 23  1  0  0  0  0
 18 22  1  0  0  0  0
 20 43  1  1  0  0  0
 20 21  1  0  0  0  0
 22 20  1  0  0  0  0
 23 18  1  6  0  0  0
 23 24  1  0  0  0  0
 24 16  1  0  0  0  0
 24 13  1  1  0  0  0
 26 27  2  6  0  0  0
 26 28  1  0  0  0  0
 26 25  1  0  0  0  0
 29 28  1  0  0  0  0
 29 31  1  0  0  0  0
 31 30  1  1  0  0  0
 31 32  1  0  0  0  0
 32 33  1  0  0  0  0
 33 36  1  0  0  0  0
 34 37  1  0  0  0  0
 36 35  1  6  0  0  0
 36 34  1  0  0  0  0
 36 37  1  0  0  0  0
 38 39  1  0  0  0  0
 38 31  1  0  0  0  0
 39 40  1  0  0  0  0
 41 39  2  0  0  0  0
 43 42  3  0  0  0  0
 44 51  2  0  0  0  0
 46 47  1  0  0  0  0
 46 51  1  0  0  0  0
 47 45  2  0  0  0  0
 48 49  2  0  0  0  0
 48 46  1  0  0  0  0
 49 44  1  0  0  0  0
 50 55  1  0  0  0  0
 50 47  1  0  0  0  0
 52 57  1  0  0  0  0
 53 57  2  0  0  0  0
 54 56  2  0  0  0  0
 54 55  1  0  0  0  0
 55 52  2  0  0  0  0
 56 53  1  0  0  0  0
 57 60  1  0  0  0  0
 58 59  2  0  0  0  0
 59 63  1  0  0  0  0
 60 62  1  0  0  0  0
 60 59  1  0  0  0  0
 62 61  1  0  0  0  0
 63 64  1  0  0  0  0
 64 66  1  0  0  0  0
 66 65  1  0  0  0  0
M  END
>  <MODEL>
3

>  <REMARK>
 VINA RESULT:      -4.3      2.968      8.250
  Name = 
  18 active torsions:
  status: ('A' for Active; 'I' for Inactive)
    1  A    between atoms: C_5  and  P_37
    2  A    between atoms: C_9  and  N_26
    3  A    between atoms: O_10  and  C_19
    4  A    between atoms: O_10  and  C_38
    5  A    between atoms: C_13  and  C_58
    6  A    between atoms: C_25  and  C_30
    7  A    between atoms: C_25  and  C_53
    8  A    between atoms: C_30  and  P_37
    9  A    between atoms: C_32  and  C_35
   10  A    between atoms: C_36  and  N_59
   11  A    between atoms: C_38  and  C_53
   12  A    between atoms: C_42  and  C_49
   13  A    between atoms: C_42  and  C_57
   14  A    between atoms: C_43  and  C_44
   15  A    between atoms: C_43  and  C_53
   16  A    between atoms: C_45  and  C_57
   17  A    between atoms: N_50  and  N_62
   18  A    between atoms: N_50  and  C_64
                            x       y       z     vdW  Elec       q    Type
                         _______ _______ _______ _____ _____    ______ ____

>  <TORSDO>
F 18

$$$$
=
 OpenBabel11042409563D

 66 72  0  0  1  0  0  0  0  0999 V2000
  187.4650  179.0950  147.6420 N   0  0  0  0  0  2  0  0  0  0  0  0
  186.3950  178.7050  146.7910 C   0  0  0  0  0  0  0  0  0  0  0  0
  186.5160  177.6900  144.4610 C   0  0  0  0  0  0  0  0  0  0  0  0
  184.1260  179.1790  145.8820 C   0  0  0  0  0  3  0  0  0  0  0  0
  184.1490  178.6600  144.6460 C   0  0  0  0  0  0  0  0  0  0  0  0
  188.2130  177.4190  146.3160 C   0  0  0  0  0  0  0  0  0  0  0  0
  185.3540  178.1350  143.9660 C   0  0  0  0  0  3  0  0  0  0  0  0
  185.2410  179.3540  146.8150 C   0  0  0  0  0  3  0  0  0  0  0  0
  186.7550  177.5110  145.9440 C   0  0  1  0  0  3  0  0  0  0  0  0
  189.0540  176.6210  145.8170 O   0  0  0  0  0  0  0  0  0  0  0  0
  188.5480  178.3250  147.3040 O   0  0  0  0  0  0  0  0  0  0  0  0
  188.4120  176.1030  144.0160 C   0  0  0  0  0  2  0  0  0  0  0  0
  189.8460  177.6640  140.8950 C   0  0  0  0  0  0  0  0  0  0  0  0
  192.4110  177.8640  141.3360 C   0  0  0  0  0  3  0  0  0  0  0  0
  191.1280  177.7730  141.1300 C   0  0  0  0  0  0  0  0  0  0  0  0
  189.5740  176.2420  143.0480 C   0  0  1  0  0  3  0  0  0  0  0  0
  187.3750  177.0110  143.5380 N   0  0  0  0  0  0  0  0  0  0  0  0
  186.6980  177.6640  141.3340 N   0  0  0  0  0  2  0  0  0  0  0  0
  190.1780  174.8800  142.7540 C   0  0  0  0  0  1  0  0  0  0  0  0
  187.8560  177.9020  139.3460 C   0  0  1  0  0  3  0  0  0  0  0  0
  189.3250  178.2440  139.6040 C   0  0  0  0  0  2  0  0  0  0  0  0
  187.0060  178.5860  140.3150 N   0  0  0  0  0  2  0  0  0  0  0  0
  187.7830  177.6680  142.3080 C   0  0  2  0  0  3  0  0  0  0  0  0
  188.9440  176.8430  141.7940 C   0  0  1  0  0  3  0  0  0  0  0  0
  194.1510  178.7730  139.4670 O   0  0  0  0  0  0  0  0  0  0  0  0
  193.5530  177.4910  140.0050 P   0  0  1  0  0  0  0  0  0  0  0  0
  194.7900  176.5030  140.6040 O   0  0  0  0  0  1  0  0  0  0  0  0
  192.6790  176.6140  138.6740 C   0  0  0  0  0  2  0  0  0  0  0  0
  193.5810  176.4580  137.4650 C   0  0  0  0  0  2  0  0  0  0  0  0
  192.9000  175.3920  135.4080 O   0  0  0  0  0  1  0  0  0  0  0  0
  193.3290  175.1390  136.7210 C   0  0  1  0  0  0  0  0  0  0  0  0
  194.6240  174.3330  136.6920 C   0  0  0  0  0  2  0  0  0  0  0  0
  195.6800  175.0480  137.2780 O   0  0  0  0  0  0  0  0  0  0  0  0
  197.3870  173.4570  137.6970 O   0  0  0  0  0  0  0  0  0  0  0  0
  195.5040  173.4670  139.0920 O   0  0  0  0  0  1  0  0  0  0  0  0
  196.2950  174.1850  138.1980 C   0  0  2  0  0  0  0  0  0  0  0  0
  197.6740  174.5020  138.6090 C   0  0  0  0  0  2  0  0  0  0  0  0
  192.2540  174.3340  137.4680 C   0  0  0  0  0  2  0  0  0  0  0  0
  190.9960  174.1890  136.6710 C   0  0  0  0  0  0  0  0  0  0  0  0
  189.9590  175.1540  136.7980 N   0  0  0  0  0  1  0  0  0  0  0  0
  190.8110  173.1580  135.9710 O   0  0  0  0  0  0  0  0  0  0  0  0
  187.1700  178.6200  136.8620 C   0  0  0  0  0  3  0  0  0  0  0  0
  187.4720  178.2830  137.9840 C   0  0  0  0  0  0  0  0  0  0  0  0
  181.9260  179.7520  144.0130 C   0  0  0  0  0  3  0  0  0  0  0  0
  180.7830  179.4410  140.0210 O   0  0  0  0  0  0  0  0  0  0  0  0
  181.5770  178.7030  142.0810 N   0  0  0  0  0  0  0  0  0  0  0  0
  181.1150  178.4660  140.7510 C   0  0  0  0  0  0  0  0  0  0  0  0
  182.6900  178.1780  142.6160 C   0  0  0  0  0  3  0  0  0  0  0  0
  182.9290  178.8140  143.8200 C   0  0  0  0  0  0  0  0  0  0  0  0
  181.0250  177.1270  140.2440 N   0  0  0  0  0  2  0  0  0  0  0  0
  181.1100  179.6610  142.9010 C   0  0  0  0  0  3  0  0  0  0  0  0
  182.0850  176.1670  138.2550 C   0  0  0  0  0  3  0  0  0  0  0  0
  180.9590  176.2510  136.1130 C   0  0  0  0  0  3  0  0  0  0  0  0
  179.9290  177.2560  138.0530 C   0  0  0  0  0  3  0  0  0  0  0  0
  181.0160  176.8540  138.8420 C   0  0  0  0  0  0  0  0  0  0  0  0
  179.9010  176.9570  136.6910 C   0  0  0  0  0  3  0  0  0  0  0  0
  182.0560  175.8520  136.8920 C   0  0  0  0  0  0  0  0  0  0  0  0
  182.2670  173.0560  137.1460 O   0  0  0  0  0  0  0  0  0  0  0  0
  183.1990  173.6630  136.5470 C   0  0  0  0  0  0  0  0  0  0  0  0
  183.1140  175.0790  136.3050 N   0  0  0  0  0  0  0  0  0  0  0  0
  184.4080  176.9240  135.7580 O   0  0  0  0  0  1  0  0  0  0  0  0
  184.1400  175.7200  135.5810 N   0  0  0  0  0  2  0  0  0  0  0  0
  184.3740  172.8770  136.0570 C   0  0  0  0  0  2  0  0  0  0  0  0
  185.3700  172.6260  137.1870 C   0  0  0  0  0  2  0  0  0  0  0  0
  187.2280  173.3780  135.8860 O   0  0  0  0  0  1  0  0  0  0  0  0
  186.5540  173.5740  137.0910 C   0  0  0  0  0  2  0  0  0  0  0  0
  2  8  2  0  0  0  0
  2  1  1  0  0  0  0
  4  8  1  0  0  0  0
  5  4  2  0  0  0  0
  6 11  1  0  0  0  0
  7  3  2  0  0  0  0
  7  5  1  0  0  0  0
  9  3  1  6  0  0  0
  9  6  1  0  0  0  0
  9  2  1  0  0  0  0
 10  6  2  0  0  0  0
 11  1  1  0  0  0  0
 13 15  2  0  0  0  0
 15 14  2  0  0  0  0
 16 19  1  6  0  0  0
 16 12  1  0  0  0  0
 17 12  1  0  0  0  0
 17  3  1  0  0  0  0
 20 43  1  6  0  0  0
 20 21  1  0  0  0  0
 20 22  1  0  0  0  0
 21 13  1  0  0  0  0
 22 18  1  0  0  0  0
 23 18  1  6  0  0  0
 23 17  1  0  0  0  0
 24 13  1  1  0  0  0
 24 23  1  0  0  0  0
 24 16  1  0  0  0  0
 26 25  2  6  0  0  0
 26 27  1  0  0  0  0
 26 14  1  0  0  0  0
 28 26  1  0  0  0  0
 29 28  1  0  0  0  0
 31 30  1  6  0  0  0
 31 29  1  0  0  0  0
 31 38  1  0  0  0  0
 32 31  1  0  0  0  0
 32 33  1  0  0  0  0
 33 36  1  0  0  0  0
 34 36  1  0  0  0  0
 34 37  1  0  0  0  0
 36 37  1  0  0  0  0
 36 35  1  1  0  0  0
 39 40  1  0  0  0  0
 39 38  1  0  0  0  0
 41 39  2  0  0  0  0
 42 43  3  0  0  0  0
 45 47  2  0  0  0  0
 46 48  1  0  0  0  0
 46 51  1  0  0  0  0
 47 46  1  0  0  0  0
 48 49  2  0  0  0  0
 49 44  1  0  0  0  0
 49  5  1  0  0  0  0
 50 47  1  0  0  0  0
 51 44  2  0  0  0  0
 52 55  1  0  0  0  0
 53 56  2  0  0  0  0
 53 57  1  0  0  0  0
 54 55  2  0  0  0  0
 55 50  1  0  0  0  0
 56 54  1  0  0  0  0
 57 52  2  0  0  0  0
 59 58  2  0  0  0  0
 60 59  1  0  0  0  0
 60 57  1  0  0  0  0
 62 61  1  0  0  0  0
 62 60  1  0  0  0  0
 63 59  1  0  0  0  0
 63 64  1  0  0  0  0
 65 66  1  0  0  0  0
 66 64  1  0  0  0  0
M  END
>  <MODEL>
4

>  <REMARK>
 VINA RESULT:      -4.0      2.864      9.562
  Name = 
  18 active torsions:
  status: ('A' for Active; 'I' for Inactive)
    1  A    between atoms: C_5  and  P_37
    2  A    between atoms: C_9  and  N_26
    3  A    between atoms: O_10  and  C_19
    4  A    between atoms: O_10  and  C_38
    5  A    between atoms: C_13  and  C_58
    6  A    between atoms: C_25  and  C_30
    7  A    between atoms: C_25  and  C_53
    8  A    between atoms: C_30  and  P_37
    9  A    between atoms: C_32  and  C_35
   10  A    between atoms: C_36  and  N_59
   11  A    between atoms: C_38  and  C_53
   12  A    between atoms: C_42  and  C_49
   13  A    between atoms: C_42  and  C_57
   14  A    between atoms: C_43  and  C_44
   15  A    between atoms: C_43  and  C_53
   16  A    between atoms: C_45  and  C_57
   17  A    between atoms: N_50  and  N_62
   18  A    between atoms: N_50  and  C_64
                            x       y       z     vdW  Elec       q    Type
                         _______ _______ _______ _____ _____    ______ ____

>  <TORSDO>
F 18

$$$$
=
 OpenBabel11042409563D

 66 72  0  0  1  0  0  0  0  0999 V2000
  186.2980  177.8080  147.2040 N   0  0  0  0  0  2  0  0  0  0  0  0
  187.1280  178.1210  146.0940 C   0  0  0  0  0  0  0  0  0  0  0  0
  186.4570  178.4510  143.6620 C   0  0  0  0  0  0  0  0  0  0  0  0
  189.2830  177.7860  144.8940 C   0  0  0  0  0  3  0  0  0  0  0  0
  188.9720  177.9500  143.6000 C   0  0  0  0  0  0  0  0  0  0  0  0
  185.0370  178.9330  145.6980 C   0  0  0  0  0  0  0  0  0  0  0  0
  187.5980  178.0800  143.0660 C   0  0  0  0  0  3  0  0  0  0  0  0
  188.3790  177.6920  146.0420 C   0  0  0  0  0  3  0  0  0  0  0  0
  186.4120  178.9770  145.0800 C   0  0  1  0  0  3  0  0  0  0  0  0
  183.9880  179.4290  145.2020 O   0  0  0  0  0  0  0  0  0  0  0  0
  185.0430  178.2800  146.9150 O   0  0  0  0  0  0  0  0  0  0  0  0
  183.9900  178.7740  143.3160 C   0  0  0  0  0  2  0  0  0  0  0  0
  183.6380  177.3840  139.8260 C   0  0  0  0  0  0  0  0  0  0  0  0
  181.6390  175.7100  139.9460 C   0  0  0  0  0  3  0  0  0  0  0  0
  182.6440  176.5360  139.8990 C   0  0  0  0  0  0  0  0  0  0  0  0
  183.0940  178.2240  142.2200 C   0  0  1  0  0  3  0  0  0  0  0  0
  185.3500  178.7180  142.7930 N   0  0  0  0  0  0  0  0  0  0  0  0
  186.2440  179.0340  140.5910 N   0  0  0  0  0  2  0  0  0  0  0  0
  181.8220  179.0490  142.1180 C   0  0  0  0  0  1  0  0  0  0  0  0
  185.3910  178.6220  138.4810 C   0  0  1  0  0  3  0  0  0  0  0  0
  184.3740  177.4790  138.5140 C   0  0  0  0  0  2  0  0  0  0  0  0
  186.4930  178.3370  139.3940 N   0  0  0  0  0  2  0  0  0  0  0  0
  185.3650  178.2240  141.4270 C   0  0  2  0  0  3  0  0  0  0  0  0
  183.9330  178.3540  140.9510 C   0  0  1  0  0  3  0  0  0  0  0  0
  179.2170  176.4310  138.9650 O   0  0  0  0  0  1  0  0  0  0  0  0
  180.4650  175.6600  138.5920 P   0  0  1  0  0  0  0  0  0  0  0  0
  181.1720  176.3650  137.2250 O   0  0  0  0  0  0  0  0  0  0  0  0
  180.0320  173.9350  138.2180 C   0  0  0  0  0  2  0  0  0  0  0  0
  179.5560  173.8100  136.7830 C   0  0  0  0  0  2  0  0  0  0  0  0
  180.0700  172.9210  134.5970 O   0  0  0  0  0  1  0  0  0  0  0  0
  180.4920  172.9340  135.9370 C   0  0  1  0  0  0  0  0  0  0  0  0
  181.9080  173.4970  136.0240 C   0  0  0  0  0  2  0  0  0  0  0  0
  182.8330  172.6410  135.4080 O   0  0  0  0  0  0  0  0  0  0  0  0
  184.9920  171.8600  135.9970 O   0  0  0  0  0  0  0  0  0  0  0  0
  184.1680  173.7760  137.0680 O   0  0  0  0  0  1  0  0  0  0  0  0
  184.0900  172.9360  135.9590 C   0  0  2  0  0  0  0  0  0  0  0  0
  185.2550  172.8870  135.0560 C   0  0  0  0  0  2  0  0  0  0  0  0
  180.4860  171.5020  136.4930 C   0  0  0  0  0  2  0  0  0  0  0  0
  180.3900  170.4720  135.4130 C   0  0  0  0  0  0  0  0  0  0  0  0
  179.1220  170.1340  134.8650 N   0  0  0  0  0  1  0  0  0  0  0  0
  181.4150  169.8290  135.0630 O   0  0  0  0  0  0  0  0  0  0  0  0
  186.3000  178.9660  135.9890 C   0  0  0  0  0  3  0  0  0  0  0  0
  185.9020  178.8160  137.1210 C   0  0  0  0  0  0  0  0  0  0  0  0
  191.4150  177.6970  142.8930 C   0  0  0  0  0  3  0  0  0  0  0  0
  192.1060  175.6860  139.3130 O   0  0  0  0  0  0  0  0  0  0  0  0
  191.0930  177.2180  140.7430 N   0  0  0  0  0  0  0  0  0  0  0  0
  191.3200  176.6640  139.4460 C   0  0  0  0  0  0  0  0  0  0  0  0
  189.8860  177.4750  141.2720 C   0  0  0  0  0  3  0  0  0  0  0  0
  190.0600  177.7770  142.6100 C   0  0  0  0  0  0  0  0  0  0  0  0
  190.6590  177.2160  138.3000 N   0  0  0  0  0  2  0  0  0  0  0  0
  192.0240  177.3330  141.7070 C   0  0  0  0  0  3  0  0  0  0  0  0
  191.4340  175.5050  136.7260 C   0  0  0  0  0  3  0  0  0  0  0  0
  190.0950  174.9330  134.7920 C   0  0  0  0  0  3  0  0  0  0  0  0
  189.3470  176.6640  136.3010 C   0  0  0  0  0  3  0  0  0  0  0  0
  190.4830  176.4620  137.0990 C   0  0  0  0  0  0  0  0  0  0  0  0
  189.1550  175.9020  135.1480 C   0  0  0  0  0  3  0  0  0  0  0  0
  191.2390  174.7290  135.5790 C   0  0  0  0  0  0  0  0  0  0  0  0
  194.0080  174.9170  136.0510 O   0  0  0  0  0  0  0  0  0  0  0  0
  193.5860  173.8980  135.4370 C   0  0  0  0  0  0  0  0  0  0  0  0
  192.1750  173.6940  135.2380 N   0  0  0  0  0  0  0  0  0  0  0  0
  191.9710  171.3910  135.0750 O   0  0  0  0  0  1  0  0  0  0  0  0
  191.7280  172.5180  134.6020 N   0  0  0  0  0  2  0  0  0  0  0  0
  194.5750  172.8840  134.9550 C   0  0  0  0  0  2  0  0  0  0  0  0
  195.5980  172.5640  136.0420 C   0  0  0  0  0  2  0  0  0  0  0  0
  194.8290  171.0180  137.6950 O   0  0  0  0  0  1  0  0  0  0  0  0
  195.4980  171.1100  136.4750 C   0  0  0  0  0  2  0  0  0  0  0  0
  2  1  1  0  0  0  0
  4  8  1  0  0  0  0
  5  4  2  0  0  0  0
  6 11  1  0  0  0  0
  7  5  1  0  0  0  0
  7  3  2  0  0  0  0
  8  2  2  0  0  0  0
  9  3  1  6  0  0  0
  9  6  1  0  0  0  0
  9  2  1  0  0  0  0
 10  6  2  0  0  0  0
 11  1  1  0  0  0  0
 13 15  2  0  0  0  0
 15 14  2  0  0  0  0
 16 19  1  6  0  0  0
 16 12  1  0  0  0  0
 17 12  1  0  0  0  0
 17  3  1  0  0  0  0
 20 43  1  6  0  0  0
 20 21  1  0  0  0  0
 20 22  1  0  0  0  0
 21 13  1  0  0  0  0
 22 18  1  0  0  0  0
 23 18  1  6  0  0  0
 23 17  1  0  0  0  0
 24 13  1  6  0  0  0
 24 23  1  0  0  0  0
 24 16  1  0  0  0  0
 26 27  2  6  0  0  0
 26 25  1  0  0  0  0
 26 14  1  0  0  0  0
 28 26  1  0  0  0  0
 29 28  1  0  0  0  0
 31 30  1  6  0  0  0
 31 32  1  0  0  0  0
 31 38  1  0  0  0  0
 31 29  1  0  0  0  0
 33 36  1  0  0  0  0
 33 32  1  0  0  0  0
 36 34  1  0  0  0  0
 36 35  1  1  0  0  0
 37 36  1  0  0  0  0
 37 34  1  0  0  0  0
 39 38  1  0  0  0  0
 40 39  1  0  0  0  0
 41 39  2  0  0  0  0
 42 43  3  0  0  0  0
 45 47  2  0  0  0  0
 46 48  1  0  0  0  0
 46 51  1  0  0  0  0
 47 46  1  0  0  0  0
 48 49  2  0  0  0  0
 49 44  1  0  0  0  0
 49  5  1  0  0  0  0
 50 47  1  0  0  0  0
 51 44  2  0  0  0  0
 52 55  1  0  0  0  0
 53 56  2  0  0  0  0
 53 57  1  0  0  0  0
 54 55  2  0  0  0  0
 55 50  1  0  0  0  0
 56 54  1  0  0  0  0
 57 52  2  0  0  0  0
 59 58  2  0  0  0  0
 60 59  1  0  0  0  0
 60 57  1  0  0  0  0
 62 61  1  0  0  0  0
 62 60  1  0  0  0  0
 63 59  1  0  0  0  0
 63 64  1  0  0  0  0
 64 66  1  0  0  0  0
 66 65  1  0  0  0  0
M  END
>  <MODEL>
5

>  <REMARK>
 VINA RESULT:      -3.8      2.728      8.583
  Name = 
  18 active torsions:
  status: ('A' for Active; 'I' for Inactive)
    1  A    between atoms: C_5  and  P_37
    2  A    between atoms: C_9  and  N_26
    3  A    between atoms: O_10  and  C_19
    4  A    between atoms: O_10  and  C_38
    5  A    between atoms: C_13  and  C_58
    6  A    between atoms: C_25  and  C_30
    7  A    between atoms: C_25  and  C_53
    8  A    between atoms: C_30  and  P_37
    9  A    between atoms: C_32  and  C_35
   10  A    between atoms: C_36  and  N_59
   11  A    between atoms: C_38  and  C_53
   12  A    between atoms: C_42  and  C_49
   13  A    between atoms: C_42  and  C_57
   14  A    between atoms: C_43  and  C_44
   15  A    between atoms: C_43  and  C_53
   16  A    between atoms: C_45  and  C_57
   17  A    between atoms: N_50  and  N_62
   18  A    between atoms: N_50  and  C_64
                            x       y       z     vdW  Elec       q    Type
                         _______ _______ _______ _____ _____    ______ ____

>  <TORSDO>
F 18

$$$$
