=
 OpenBabel11042410563D

 26 28  0  0  1  0  0  0  0  0999 V2000
  189.8840  177.0840  141.3840 N   0  0  0  0  0  0  0  0  0  0  0  0
  190.5540  177.7760  140.2900 C   0  0  0  0  0  1  0  0  0  0  0  0
  187.4980  177.5870  141.5790 C   0  0  2  0  0  3  0  0  0  0  0  0
  188.9120  178.0010  141.9820 C   0  0  2  0  0  3  0  0  0  0  0  0
  188.1840  178.7550  140.8900 C   0  0  0  0  0  2  0  0  0  0  0  0
  186.4640  177.5930  143.8980 C   0  0  0  0  0  0  0  0  0  0  0  0
  184.4960  179.4080  143.0900 C   0  0  0  0  0  3  0  0  0  0  0  0
  185.4560  178.9780  142.1710 C   0  0  0  0  0  0  0  0  0  0  0  0
  183.5690  179.3880  145.3130 O   0  0  0  0  0  1  0  0  0  0  0  0
  184.5210  178.9480  144.4060 C   0  0  0  0  0  0  0  0  0  0  0  0
  187.4010  176.6590  144.3220 O   0  0  0  0  0  1  0  0  0  0  0  0
  185.4980  178.0360  144.8050 C   0  0  0  0  0  3  0  0  0  0  0  0
  185.3750  179.4410  140.8250 N   0  0  0  0  0  1  0  0  0  0  0  0
  186.4760  178.0850  142.5740 C   0  0  0  0  0  0  0  0  0  0  0  0
  190.9060  176.6710  142.3590 C   0  0  2  0  0  3  0  0  0  0  0  0
  190.4810  175.5340  143.0500 O   0  0  0  0  0  1  0  0  0  0  0  0
  191.3050  177.7820  143.3390 C   0  0  0  0  0  2  0  0  0  0  0  0
  190.0320  177.7240  145.4850 N   0  0  0  0  0  0  0  0  0  0  0  0
  192.0470  175.6600  147.7390 C   0  0  0  0  0  1  0  0  0  0  0  0
  190.2530  177.1420  146.6790 C   0  0  1  0  0  3  0  0  0  0  0  0
  191.9790  176.5610  145.4080 N   0  0  0  0  0  0  0  0  0  0  0  0
  191.4340  176.4390  146.6290 C   0  0  0  0  0  0  0  0  0  0  0  0
  191.0960  177.3400  144.7460 C   0  0  0  0  0  0  0  0  0  0  0  0
  187.8980  177.2140  147.4280 C   0  0  0  0  0  1  0  0  0  0  0  0
  189.6180  178.5650  148.5970 C   0  0  0  0  0  1  0  0  0  0  0  0
  189.3500  177.2670  147.8620 C   0  0  0  0  0  3  0  0  0  0  0  0
  1 15  1  0  0  0  0
  2  1  1  0  0  0  0
  3  4  1  0  0  0  0
  3 14  1  1  0  0  0
  4  1  1  6  0  0  0
  5  3  1  0  0  0  0
  5  4  1  0  0  0  0
  6 11  1  0  0  0  0
  6 12  1  0  0  0  0
  7 10  1  0  0  0  0
  8 14  1  0  0  0  0
  8  7  2  0  0  0  0
 10 12  2  0  0  0  0
 10  9  1  0  0  0  0
 13  8  1  0  0  0  0
 14  6  2  0  0  0  0
 15 16  1  1  0  0  0
 15 17  1  0  0  0  0
 17 23  1  0  0  0  0
 18 20  1  0  0  0  0
 20 26  1  1  0  0  0
 21 22  2  0  0  0  0
 22 20  1  0  0  0  0
 22 19  1  0  0  0  0
 23 21  1  0  0  0  0
 23 18  2  0  0  0  0
 24 26  1  0  0  0  0
 26 25  1  0  0  0  0
M  END
>  <MODEL>
1

>  <REMARK>
 VINA RESULT:      -8.2      0.000      0.000
  Name = 
  6 active torsions:
  status: ('A' for Active; 'I' for Inactive)
    1  A    between atoms: N_7  and  C_14
    2  A    between atoms: N_7  and  C_23
    3  A    between atoms: C_10  and  C_21
    4  A    between atoms: C_11  and  C_26
    5  A    between atoms: C_14  and  C_24
    6  A    between atoms: C_17  and  C_24
                            x       y       z     vdW  Elec       q    Type
                         _______ _______ _______ _____ _____    ______ ____

>  <TORSDO>
F 6

$$$$
=
 OpenBabel11042410563D

 26 28  0  0  1  0  0  0  0  0999 V2000
  184.3810  178.4750  143.8110 N   0  0  0  0  0  0  0  0  0  0  0  0
  183.4070  179.3870  144.3980 C   0  0  0  0  0  1  0  0  0  0  0  0
  186.0790  177.5230  145.2930 C   0  0  2  0  0  3  0  0  0  0  0  0
  185.6800  178.7250  144.4380 C   0  0  2  0  0  3  0  0  0  0  0  0
  185.5180  178.7790  145.9420 C   0  0  0  0  0  2  0  0  0  0  0  0
  188.4160  177.0750  144.4080 C   0  0  0  0  0  0  0  0  0  0  0  0
  189.5380  177.5790  146.9200 C   0  0  0  0  0  3  0  0  0  0  0  0
  188.1540  177.6760  146.7500 C   0  0  0  0  0  0  0  0  0  0  0  0
  191.7320  177.1590  146.0200 O   0  0  0  0  0  1  0  0  0  0  0  0
  190.3590  177.2440  145.8440 C   0  0  0  0  0  0  0  0  0  0  0  0
  187.8880  176.7760  143.1580 O   0  0  0  0  0  1  0  0  0  0  0  0
  189.7970  176.9840  144.5940 C   0  0  0  0  0  3  0  0  0  0  0  0
  187.3440  177.9840  147.8820 N   0  0  0  0  0  1  0  0  0  0  0  0
  187.5770  177.4550  145.4780 C   0  0  0  0  0  0  0  0  0  0  0  0
  184.4250  178.7230  142.3610 C   0  0  2  0  0  3  0  0  0  0  0  0
  184.1740  177.5390  141.6630 O   0  0  0  0  0  1  0  0  0  0  0  0
  185.7350  179.3630  141.8860 C   0  0  0  0  0  2  0  0  0  0  0  0
  187.3920  178.4830  140.2410 N   0  0  0  0  0  0  0  0  0  0  0  0
  185.4890  177.9370  137.1620 C   0  0  0  0  0  1  0  0  0  0  0  0
  187.3080  178.1020  138.9530 C   0  0  1  0  0  3  0  0  0  0  0  0
  185.2500  178.7070  139.5290 N   0  0  0  0  0  0  0  0  0  0  0  0
  186.0090  178.2390  138.5230 C   0  0  0  0  0  0  0  0  0  0  0  0
  186.1250  178.8330  140.5500 C   0  0  0  0  0  0  0  0  0  0  0  0
  189.5060  176.9710  139.0190 C   0  0  0  0  0  1  0  0  0  0  0  0
  189.0830  178.7760  137.3700 C   0  0  0  0  0  1  0  0  0  0  0  0
  188.4620  177.6230  138.1330 C   0  0  0  0  0  3  0  0  0  0  0  0
  1  2  1  0  0  0  0
  3 14  1  1  0  0  0
  3  5  1  0  0  0  0
  4  1  1  6  0  0  0
  4  3  1  0  0  0  0
  4  5  1  0  0  0  0
  6 12  2  0  0  0  0
  6 14  1  0  0  0  0
  8  7  1  0  0  0  0
  8 13  1  0  0  0  0
 10  9  1  0  0  0  0
 10  7  2  0  0  0  0
 11  6  1  0  0  0  0
 12 10  1  0  0  0  0
 14  8  2  0  0  0  0
 15 16  1  6  0  0  0
 15  1  1  0  0  0  0
 17 15  1  0  0  0  0
 18 23  2  0  0  0  0
 19 22  1  0  0  0  0
 20 26  1  6  0  0  0
 20 18  1  0  0  0  0
 21 23  1  0  0  0  0
 22 20  1  0  0  0  0
 22 21  2  0  0  0  0
 23 17  1  0  0  0  0
 25 26  1  0  0  0  0
 26 24  1  0  0  0  0
M  END
>  <MODEL>
2

>  <REMARK>
 VINA RESULT:      -7.9      2.369      7.245
  Name = 
  6 active torsions:
  status: ('A' for Active; 'I' for Inactive)
    1  A    between atoms: N_7  and  C_14
    2  A    between atoms: N_7  and  C_23
    3  A    between atoms: C_10  and  C_21
    4  A    between atoms: C_11  and  C_26
    5  A    between atoms: C_14  and  C_24
    6  A    between atoms: C_17  and  C_24
                            x       y       z     vdW  Elec       q    Type
                         _______ _______ _______ _____ _____    ______ ____

>  <TORSDO>
F 6

$$$$
=
 OpenBabel11042410563D

 26 28  0  0  1  0  0  0  0  0999 V2000
  188.8360  177.9060  145.4830 N   0  0  0  0  0  0  0  0  0  0  0  0
  189.1300  177.0210  146.6030 C   0  0  0  0  0  1  0  0  0  0  0  0
  186.5310  178.6680  145.1810 C   0  0  2  0  0  3  0  0  0  0  0  0
  187.5280  177.5370  144.9370 C   0  0  2  0  0  3  0  0  0  0  0  0
  186.5200  177.4270  146.0600 C   0  0  0  0  0  2  0  0  0  0  0  0
  185.6580  178.5170  142.8010 C   0  0  0  0  0  0  0  0  0  0  0  0
  183.0160  178.7690  143.6820 C   0  0  0  0  0  3  0  0  0  0  0  0
  184.0570  178.7810  144.6130 C   0  0  0  0  0  0  0  0  0  0  0  0
  182.2450  178.6030  141.4060 O   0  0  0  0  0  1  0  0  0  0  0  0
  183.2860  178.6220  142.3220 C   0  0  0  0  0  0  0  0  0  0  0  0
  186.9610  178.4320  142.3260 O   0  0  0  0  0  1  0  0  0  0  0  0
  184.6050  178.5050  141.8840 C   0  0  0  0  0  3  0  0  0  0  0  0
  183.7440  178.9710  145.9910 N   0  0  0  0  0  1  0  0  0  0  0  0
  185.3950  178.6220  144.1850 C   0  0  0  0  0  0  0  0  0  0  0  0
  189.9030  177.7480  144.4820 C   0  0  2  0  0  3  0  0  0  0  0  0
  190.1060  178.9510  143.8010 O   0  0  0  0  0  1  0  0  0  0  0  0
  189.6540  176.6020  143.4940 C   0  0  0  0  0  2  0  0  0  0  0  0
  189.5410  177.0380  141.0390 N   0  0  0  0  0  0  0  0  0  0  0  0
  193.0190  177.4640  139.9800 C   0  0  0  0  0  1  0  0  0  0  0  0
  190.4710  177.2670  140.0940 C   0  0  1  0  0  3  0  0  0  0  0  0
  191.6000  177.0280  141.9920 N   0  0  0  0  0  0  0  0  0  0  0  0
  191.7180  177.2600  140.6740 C   0  0  0  0  0  0  0  0  0  0  0  0
  190.2660  176.9070  142.1710 C   0  0  0  0  0  0  0  0  0  0  0  0
  189.0910  178.5260  138.4750 C   0  0  0  0  0  1  0  0  0  0  0  0
  189.7360  176.1780  138.0000 C   0  0  0  0  0  1  0  0  0  0  0  0
  190.1730  177.4780  138.6450 C   0  0  0  0  0  3  0  0  0  0  0  0
  1  2  1  0  0  0  0
  3 14  1  6  0  0  0
  3  5  1  0  0  0  0
  4  3  1  0  0  0  0
  4  1  1  1  0  0  0
  4  5  1  0  0  0  0
  6 14  1  0  0  0  0
  7  8  1  0  0  0  0
  8 13  1  0  0  0  0
  9 10  1  0  0  0  0
 10  7  2  0  0  0  0
 11  6  1  0  0  0  0
 12 10  1  0  0  0  0
 12  6  2  0  0  0  0
 14  8  2  0  0  0  0
 15 16  1  6  0  0  0
 15  1  1  0  0  0  0
 17 15  1  0  0  0  0
 18 23  2  0  0  0  0
 19 22  1  0  0  0  0
 20 26  1  6  0  0  0
 20 22  1  0  0  0  0
 20 18  1  0  0  0  0
 21 23  1  0  0  0  0
 22 21  2  0  0  0  0
 23 17  1  0  0  0  0
 24 26  1  0  0  0  0
 25 26  1  0  0  0  0
M  END
>  <MODEL>
3

>  <REMARK>
 VINA RESULT:      -7.8      2.247      5.189
  Name = 
  6 active torsions:
  status: ('A' for Active; 'I' for Inactive)
    1  A    between atoms: N_7  and  C_14
    2  A    between atoms: N_7  and  C_23
    3  A    between atoms: C_10  and  C_21
    4  A    between atoms: C_11  and  C_26
    5  A    between atoms: C_14  and  C_24
    6  A    between atoms: C_17  and  C_24
                            x       y       z     vdW  Elec       q    Type
                         _______ _______ _______ _____ _____    ______ ____

>  <TORSDO>
F 6

$$$$
=
 OpenBabel11042410563D

 26 28  0  0  1  0  0  0  0  0999 V2000
  188.8990  177.7720  144.7840 N   0  0  0  0  0  0  0  0  0  0  0  0
  189.3810  176.9590  145.8940 C   0  0  0  0  0  1  0  0  0  0  0  0
  186.6430  178.6950  144.9940 C   0  0  2  0  0  3  0  0  0  0  0  0
  187.4780  177.4820  144.5860 C   0  0  2  0  0  3  0  0  0  0  0  0
  186.7640  177.4950  145.9200 C   0  0  0  0  0  2  0  0  0  0  0  0
  185.2210  178.7680  142.8920 C   0  0  0  0  0  0  0  0  0  0  0  0
  182.8670  178.7560  144.4020 C   0  0  0  0  0  3  0  0  0  0  0  0
  184.1040  178.7220  145.0520 C   0  0  0  0  0  0  0  0  0  0  0  0
  181.5700  178.8090  142.3730 O   0  0  0  0  0  1  0  0  0  0  0  0
  182.8020  178.7840  143.0100 C   0  0  0  0  0  0  0  0  0  0  0  0
  186.3700  178.8180  142.1120 O   0  0  0  0  0  1  0  0  0  0  0  0
  183.9770  178.7990  142.2580 C   0  0  0  0  0  3  0  0  0  0  0  0
  184.1310  178.7320  146.4770 N   0  0  0  0  0  1  0  0  0  0  0  0
  185.3010  178.6950  144.3000 C   0  0  0  0  0  0  0  0  0  0  0  0
  189.6910  177.4330  143.5910 C   0  0  2  0  0  3  0  0  0  0  0  0
  190.1700  178.5970  142.9840 O   0  0  0  0  0  1  0  0  0  0  0  0
  188.9340  176.5670  142.5760 C   0  0  0  0  0  2  0  0  0  0  0  0
  190.5320  176.3630  140.6700 N   0  0  0  0  0  0  0  0  0  0  0  0
  189.1540  178.4940  138.0320 C   0  0  0  0  0  1  0  0  0  0  0  0
  190.5780  176.9010  139.4370 C   0  0  1  0  0  3  0  0  0  0  0  0
  188.7200  177.6930  140.3600 N   0  0  0  0  0  0  0  0  0  0  0  0
  189.4800  177.7070  139.2520 C   0  0  0  0  0  0  0  0  0  0  0  0
  189.3900  176.8630  141.1890 C   0  0  0  0  0  0  0  0  0  0  0  0
  191.5570  175.2610  137.8660 C   0  0  0  0  0  1  0  0  0  0  0  0
  193.0260  176.8340  139.1010 C   0  0  0  0  0  1  0  0  0  0  0  0
  191.6710  176.6580  138.4470 C   0  0  0  0  0  3  0  0  0  0  0  0
  1  2  1  0  0  0  0
  3 14  1  6  0  0  0
  3  5  1  0  0  0  0
  4  1  1  1  0  0  0
  4  3  1  0  0  0  0
  4  5  1  0  0  0  0
  6 14  1  0  0  0  0
  7  8  1  0  0  0  0
  8 13  1  0  0  0  0
  9 10  1  0  0  0  0
 10  7  2  0  0  0  0
 11  6  1  0  0  0  0
 12  6  2  0  0  0  0
 12 10  1  0  0  0  0
 14  8  2  0  0  0  0
 15 16  1  6  0  0  0
 15  1  1  0  0  0  0
 17 15  1  0  0  0  0
 18 23  2  0  0  0  0
 19 22  1  0  0  0  0
 20 26  1  1  0  0  0
 20 18  1  0  0  0  0
 21 23  1  0  0  0  0
 22 20  1  0  0  0  0
 22 21  2  0  0  0  0
 23 17  1  0  0  0  0
 24 26  1  0  0  0  0
 26 25  1  0  0  0  0
M  END
>  <MODEL>
4

>  <REMARK>
 VINA RESULT:      -7.7      2.290      5.629
  Name = 
  6 active torsions:
  status: ('A' for Active; 'I' for Inactive)
    1  A    between atoms: N_7  and  C_14
    2  A    between atoms: N_7  and  C_23
    3  A    between atoms: C_10  and  C_21
    4  A    between atoms: C_11  and  C_26
    5  A    between atoms: C_14  and  C_24
    6  A    between atoms: C_17  and  C_24
                            x       y       z     vdW  Elec       q    Type
                         _______ _______ _______ _____ _____    ______ ____

>  <TORSDO>
F 6

$$$$
=
 OpenBabel11042410563D

 26 28  0  0  1  0  0  0  0  0999 V2000
  187.1720  177.9820  147.0520 N   0  0  0  0  0  0  0  0  0  0  0  0
  187.5800  178.1890  148.4360 C   0  0  0  0  0  1  0  0  0  0  0  0
  188.8130  176.8670  145.6210 C   0  0  2  0  0  3  0  0  0  0  0  0
  188.3370  178.2010  146.1930 C   0  0  2  0  0  3  0  0  0  0  0  0
  189.5460  177.5110  146.7870 C   0  0  0  0  0  2  0  0  0  0  0  0
  188.9290  176.9880  143.0870 C   0  0  0  0  0  0  0  0  0  0  0  0
  191.6980  177.3810  143.1650 C   0  0  0  0  0  3  0  0  0  0  0  0
  190.9880  177.2310  144.3600 C   0  0  0  0  0  0  0  0  0  0  0  0
  191.7440  177.5040  140.7600 O   0  0  0  0  0  1  0  0  0  0  0  0
  191.0330  177.3460  141.9400 C   0  0  0  0  0  0  0  0  0  0  0  0
  187.5630  176.7520  143.0100 O   0  0  0  0  0  1  0  0  0  0  0  0
  189.6530  177.1410  141.9030 C   0  0  0  0  0  3  0  0  0  0  0  0
  191.7070  177.2340  145.5910 N   0  0  0  0  0  1  0  0  0  0  0  0
  189.5840  177.0640  144.3370 C   0  0  0  0  0  0  0  0  0  0  0  0
  186.0910  178.9320  146.7470 C   0  0  2  0  0  3  0  0  0  0  0  0
  186.0500  179.9420  147.7120 O   0  0  0  0  0  1  0  0  0  0  0  0
  184.7150  178.2700  146.6000 C   0  0  0  0  0  2  0  0  0  0  0  0
  184.9010  178.5490  144.1260 N   0  0  0  0  0  0  0  0  0  0  0  0
  181.5170  179.3700  142.9970 C   0  0  0  0  0  1  0  0  0  0  0  0
  184.0170  178.8540  143.1580 C   0  0  1  0  0  3  0  0  0  0  0  0
  182.8440  178.8190  145.0440 N   0  0  0  0  0  0  0  0  0  0  0  0
  182.7710  179.0180  143.7170 C   0  0  0  0  0  0  0  0  0  0  0  0
  184.1480  178.5310  145.2470 C   0  0  0  0  0  0  0  0  0  0  0  0
  183.8020  177.8390  140.9140 C   0  0  0  0  0  1  0  0  0  0  0  0
  185.8650  179.0710  141.5310 C   0  0  0  0  0  1  0  0  0  0  0  0
  184.3620  179.0010  141.7120 C   0  0  0  0  0  3  0  0  0  0  0  0
  1  2  1  0  0  0  0
  3 14  1  6  0  0  0
  3  4  1  0  0  0  0
  3  5  1  0  0  0  0
  4  5  1  0  0  0  0
  4  1  1  1  0  0  0
  6 14  1  0  0  0  0
  7  8  1  0  0  0  0
  8 13  1  0  0  0  0
  9 10  1  0  0  0  0
 10  7  2  0  0  0  0
 11  6  1  0  0  0  0
 12 10  1  0  0  0  0
 12  6  2  0  0  0  0
 14  8  2  0  0  0  0
 15  1  1  0  0  0  0
 15 16  1  1  0  0  0
 17 15  1  0  0  0  0
 18 23  2  0  0  0  0
 19 22  1  0  0  0  0
 20 26  1  1  0  0  0
 20 22  1  0  0  0  0
 20 18  1  0  0  0  0
 21 23  1  0  0  0  0
 22 21  2  0  0  0  0
 23 17  1  0  0  0  0
 24 26  1  0  0  0  0
 25 26  1  0  0  0  0
M  END
>  <MODEL>
5

>  <REMARK>
 VINA RESULT:      -7.7      2.137      7.220
  Name = 
  6 active torsions:
  status: ('A' for Active; 'I' for Inactive)
    1  A    between atoms: N_7  and  C_14
    2  A    between atoms: N_7  and  C_23
    3  A    between atoms: C_10  and  C_21
    4  A    between atoms: C_11  and  C_26
    5  A    between atoms: C_14  and  C_24
    6  A    between atoms: C_17  and  C_24
                            x       y       z     vdW  Elec       q    Type
                         _______ _______ _______ _____ _____    ______ ____

>  <TORSDO>
F 6

$$$$
=
 OpenBabel11042410563D

 26 28  0  0  1  0  0  0  0  0999 V2000
  189.2210  177.2230  143.7760 N   0  0  0  0  0  0  0  0  0  0  0  0
  189.9320  176.7230  144.9460 C   0  0  0  0  0  1  0  0  0  0  0  0
  187.2290  178.3890  144.5860 C   0  0  2  0  0  3  0  0  0  0  0  0
  187.7840  177.0840  144.0170 C   0  0  2  0  0  3  0  0  0  0  0  0
  187.5020  177.2050  145.4990 C   0  0  0  0  0  2  0  0  0  0  0  0
  185.2540  178.4770  142.9930 C   0  0  0  0  0  0  0  0  0  0  0  0
  183.4820  178.9350  145.1080 C   0  0  0  0  0  3  0  0  0  0  0  0
  184.8460  178.7830  145.3710 C   0  0  0  0  0  0  0  0  0  0  0  0
  181.6440  178.9910  143.5510 O   0  0  0  0  0  1  0  0  0  0  0  0
  183.0010  178.8480  143.8020 C   0  0  0  0  0  0  0  0  0  0  0  0
  186.1110  178.2930  141.9150 O   0  0  0  0  0  1  0  0  0  0  0  0
  183.8870  178.6280  142.7470 C   0  0  0  0  0  3  0  0  0  0  0  0
  185.3050  178.9170  146.7140 N   0  0  0  0  0  1  0  0  0  0  0  0
  185.7480  178.5190  144.3150 C   0  0  0  0  0  0  0  0  0  0  0  0
  189.6510  176.4350  142.6090 C   0  0  2  0  0  3  0  0  0  0  0  0
  190.2550  175.2470  143.0270 O   0  0  0  0  0  1  0  0  0  0  0  0
  190.5730  177.2030  141.6540 C   0  0  0  0  0  2  0  0  0  0  0  0
  189.1580  177.7640  139.6760 N   0  0  0  0  0  0  0  0  0  0  0  0
  190.1700  175.3970  137.0740 C   0  0  0  0  0  1  0  0  0  0  0  0
  189.0590  177.2560  138.4330 C   0  0  1  0  0  3  0  0  0  0  0  0
  190.6480  176.0700  139.4330 N   0  0  0  0  0  0  0  0  0  0  0  0
  189.9620  176.2300  138.2890 C   0  0  0  0  0  0  0  0  0  0  0  0
  190.1350  177.0230  140.2420 C   0  0  0  0  0  0  0  0  0  0  0  0
  188.5680  179.0580  136.8130 C   0  0  0  0  0  1  0  0  0  0  0  0
  186.7150  177.9030  137.9910 C   0  0  0  0  0  1  0  0  0  0  0  0
  188.0990  177.7390  137.3950 C   0  0  0  0  0  3  0  0  0  0  0  0
  1  2  1  0  0  0  0
  3 14  1  6  0  0  0
  3  5  1  0  0  0  0
  4  1  1  1  0  0  0
  4  3  1  0  0  0  0
  4  5  1  0  0  0  0
  6 14  1  0  0  0  0
  7  8  1  0  0  0  0
  8 13  1  0  0  0  0
  9 10  1  0  0  0  0
 10  7  2  0  0  0  0
 11  6  1  0  0  0  0
 12  6  2  0  0  0  0
 12 10  1  0  0  0  0
 14  8  2  0  0  0  0
 15 16  1  1  0  0  0
 15  1  1  0  0  0  0
 17 15  1  0  0  0  0
 18 23  2  0  0  0  0
 19 22  1  0  0  0  0
 20 26  1  1  0  0  0
 20 18  1  0  0  0  0
 21 23  1  0  0  0  0
 22 20  1  0  0  0  0
 22 21  2  0  0  0  0
 23 17  1  0  0  0  0
 24 26  1  0  0  0  0
 26 25  1  0  0  0  0
M  END
>  <MODEL>
6

>  <REMARK>
 VINA RESULT:      -7.6      2.373      5.755
  Name = 
  6 active torsions:
  status: ('A' for Active; 'I' for Inactive)
    1  A    between atoms: N_7  and  C_14
    2  A    between atoms: N_7  and  C_23
    3  A    between atoms: C_10  and  C_21
    4  A    between atoms: C_11  and  C_26
    5  A    between atoms: C_14  and  C_24
    6  A    between atoms: C_17  and  C_24
                            x       y       z     vdW  Elec       q    Type
                         _______ _______ _______ _____ _____    ______ ____

>  <TORSDO>
F 6

$$$$
=
 OpenBabel11042410563D

 26 28  0  0  1  0  0  0  0  0999 V2000
  188.9050  177.1780  141.1170 N   0  0  0  0  0  0  0  0  0  0  0  0
  188.3960  177.9960  140.0220 C   0  0  0  0  0  1  0  0  0  0  0  0
  187.6850  176.9990  143.2300 C   0  0  2  0  0  3  0  0  0  0  0  0
  188.6120  177.8640  142.3770 C   0  0  2  0  0  3  0  0  0  0  0  0
  187.1350  178.1840  142.4510 C   0  0  0  0  0  2  0  0  0  0  0  0
  189.0110  177.0800  145.3930 C   0  0  0  0  0  0  0  0  0  0  0  0
  186.8160  178.1220  146.7790 C   0  0  0  0  0  3  0  0  0  0  0  0
  186.7000  177.8390  145.4160 C   0  0  0  0  0  0  0  0  0  0  0  0
  188.1280  178.1910  148.7980 O   0  0  0  0  0  1  0  0  0  0  0  0
  188.0200  177.8980  147.4460 C   0  0  0  0  0  0  0  0  0  0  0  0
  190.1070  176.5230  144.7460 O   0  0  0  0  0  1  0  0  0  0  0  0
  189.1100  177.3700  146.7560 C   0  0  0  0  0  3  0  0  0  0  0  0
  185.4420  178.0440  144.7760 N   0  0  0  0  0  1  0  0  0  0  0  0
  187.8110  177.3420  144.6960 C   0  0  0  0  0  0  0  0  0  0  0  0
  190.3530  177.0030  140.9220 C   0  0  2  0  0  3  0  0  0  0  0  0
  191.0560  177.6130  141.9650 O   0  0  0  0  0  1  0  0  0  0  0  0
  190.8570  177.5070  139.5640 C   0  0  0  0  0  2  0  0  0  0  0  0
  192.6000  176.1810  138.3680 N   0  0  0  0  0  0  0  0  0  0  0  0
  190.7740  173.4830  136.6990 C   0  0  0  0  0  1  0  0  0  0  0  0
  192.5580  175.0860  137.5860 C   0  0  1  0  0  3  0  0  0  0  0  0
  190.4550  175.4640  138.1890 N   0  0  0  0  0  0  0  0  0  0  0  0
  191.2570  174.6540  137.4790 C   0  0  0  0  0  0  0  0  0  0  0  0
  191.3090  176.3690  138.7160 C   0  0  0  0  0  0  0  0  0  0  0  0
  194.5740  173.7020  137.9550 C   0  0  0  0  0  1  0  0  0  0  0  0
  194.6060  175.5260  136.2730 C   0  0  0  0  0  1  0  0  0  0  0  0
  193.7510  174.4640  136.9340 C   0  0  0  0  0  3  0  0  0  0  0  0
  2  1  1  0  0  0  0
  3 14  1  1  0  0  0
  4  1  1  6  0  0  0
  4  5  1  0  0  0  0
  4  3  1  0  0  0  0
  5  3  1  0  0  0  0
  6 12  1  0  0  0  0
  7 10  1  0  0  0  0
  8  7  2  0  0  0  0
 10  9  1  0  0  0  0
 11  6  1  0  0  0  0
 12 10  2  0  0  0  0
 13  8  1  0  0  0  0
 14  6  2  0  0  0  0
 14  8  1  0  0  0  0
 15  1  1  0  0  0  0
 15 16  1  1  0  0  0
 17 15  1  0  0  0  0
 18 23  2  0  0  0  0
 19 22  1  0  0  0  0
 20 26  1  6  0  0  0
 20 18  1  0  0  0  0
 21 23  1  0  0  0  0
 22 20  1  0  0  0  0
 22 21  2  0  0  0  0
 23 17  1  0  0  0  0
 25 26  1  0  0  0  0
 26 24  1  0  0  0  0
M  END
>  <MODEL>
7

>  <REMARK>
 VINA RESULT:      -7.6      3.288      6.576
  Name = 
  6 active torsions:
  status: ('A' for Active; 'I' for Inactive)
    1  A    between atoms: N_7  and  C_14
    2  A    between atoms: N_7  and  C_23
    3  A    between atoms: C_10  and  C_21
    4  A    between atoms: C_11  and  C_26
    5  A    between atoms: C_14  and  C_24
    6  A    between atoms: C_17  and  C_24
                            x       y       z     vdW  Elec       q    Type
                         _______ _______ _______ _____ _____    ______ ____

>  <TORSDO>
F 6

$$$$
=
 OpenBabel11042410563D

 26 28  0  0  1  0  0  0  0  0999 V2000
  188.6190  177.4860  144.2800 N   0  0  0  0  0  0  0  0  0  0  0  0
  189.1030  176.8830  145.5160 C   0  0  0  0  0  1  0  0  0  0  0  0
  186.4900  178.6380  144.6340 C   0  0  2  0  0  3  0  0  0  0  0  0
  187.1650  177.3280  144.2300 C   0  0  2  0  0  3  0  0  0  0  0  0
  186.5870  177.4840  145.6190 C   0  0  0  0  0  2  0  0  0  0  0  0
  183.9740  178.8140  144.9230 C   0  0  0  0  0  0  0  0  0  0  0  0
  183.5800  178.7020  142.1560 C   0  0  0  0  0  3  0  0  0  0  0  0
  184.8770  178.6460  142.6710 C   0  0  0  0  0  0  0  0  0  0  0  0
  181.2010  178.8890  142.4920 O   0  0  0  0  0  1  0  0  0  0  0  0
  182.4860  178.8250  143.0120 C   0  0  0  0  0  0  0  0  0  0  0  0
  184.1310  178.8290  146.3040 O   0  0  0  0  0  1  0  0  0  0  0  0
  182.6840  178.8720  144.3920 C   0  0  0  0  0  3  0  0  0  0  0  0
  185.9680  178.4820  141.7680 N   0  0  0  0  0  1  0  0  0  0  0  0
  185.0940  178.7330  144.0660 C   0  0  0  0  0  0  0  0  0  0  0  0
  189.2750  176.8050  143.1520 C   0  0  2  0  0  3  0  0  0  0  0  0
  190.0530  175.7420  143.6180 O   0  0  0  0  0  1  0  0  0  0  0  0
  190.1120  177.7410  142.2710 C   0  0  0  0  0  2  0  0  0  0  0  0
  189.0130  178.0560  140.0520 N   0  0  0  0  0  0  0  0  0  0  0  0
  190.5330  175.5450  137.8660 C   0  0  0  0  0  1  0  0  0  0  0  0
  189.1380  177.4440  138.8600 C   0  0  1  0  0  3  0  0  0  0  0  0
  190.5940  176.4360  140.2010 N   0  0  0  0  0  0  0  0  0  0  0  0
  190.0960  176.4620  138.9530 C   0  0  0  0  0  0  0  0  0  0  0  0
  189.9160  177.4210  140.8300 C   0  0  0  0  0  0  0  0  0  0  0  0
  188.8520  179.0650  137.0150 C   0  0  0  0  0  1  0  0  0  0  0  0
  186.8740  177.9380  138.0010 C   0  0  0  0  0  1  0  0  0  0  0  0
  188.3390  177.7840  137.6450 C   0  0  0  0  0  3  0  0  0  0  0  0
  1  2  1  0  0  0  0
  3 14  1  6  0  0  0
  3  5  1  0  0  0  0
  4  1  1  1  0  0  0
  4  3  1  0  0  0  0
  4  5  1  0  0  0  0
  6 11  1  0  0  0  0
  7  8  2  0  0  0  0
  7 10  1  0  0  0  0
  8 14  1  0  0  0  0
  9 10  1  0  0  0  0
 10 12  2  0  0  0  0
 12  6  1  0  0  0  0
 13  8  1  0  0  0  0
 14  6  2  0  0  0  0
 15 16  1  1  0  0  0
 15  1  1  0  0  0  0
 17 15  1  0  0  0  0
 18 23  2  0  0  0  0
 19 22  1  0  0  0  0
 20 26  1  1  0  0  0
 20 22  1  0  0  0  0
 20 18  1  0  0  0  0
 21 23  1  0  0  0  0
 22 21  2  0  0  0  0
 23 17  1  0  0  0  0
 24 26  1  0  0  0  0
 26 25  1  0  0  0  0
M  END
>  <MODEL>
8

>  <REMARK>
 VINA RESULT:      -7.5      2.052      5.539
  Name = 
  6 active torsions:
  status: ('A' for Active; 'I' for Inactive)
    1  A    between atoms: N_7  and  C_14
    2  A    between atoms: N_7  and  C_23
    3  A    between atoms: C_10  and  C_21
    4  A    between atoms: C_11  and  C_26
    5  A    between atoms: C_14  and  C_24
    6  A    between atoms: C_17  and  C_24
                            x       y       z     vdW  Elec       q    Type
                         _______ _______ _______ _____ _____    ______ ____

>  <TORSDO>
F 6

$$$$
=
 OpenBabel11042410563D

 26 28  0  0  1  0  0  0  0  0999 V2000
  185.3870  178.8860  145.6100 N   0  0  0  0  0  0  0  0  0  0  0  0
  184.9340  178.6140  146.9690 C   0  0  0  0  0  1  0  0  0  0  0  0
  183.8690  179.4980  143.7920 C   0  0  2  0  0  3  0  0  0  0  0  0
  184.3840  178.3660  144.6790 C   0  0  2  0  0  3  0  0  0  0  0  0
  183.0420  179.0020  144.9670 C   0  0  0  0  0  2  0  0  0  0  0  0
  184.1800  178.5150  141.4720 C   0  0  0  0  0  0  0  0  0  0  0  0
  181.4200  178.5380  141.0180 C   0  0  0  0  0  3  0  0  0  0  0  0
  181.9230  179.0020  142.2370 C   0  0  0  0  0  0  0  0  0  0  0  0
  181.7750  177.5890  138.8330 O   0  0  0  0  0  1  0  0  0  0  0  0
  182.2840  178.0550  140.0360 C   0  0  0  0  0  0  0  0  0  0  0  0
  185.5580  178.5290  141.6470 O   0  0  0  0  0  1  0  0  0  0  0  0
  183.6610  178.0530  140.2600 C   0  0  0  0  0  3  0  0  0  0  0  0
  181.0120  179.5230  143.2020 N   0  0  0  0  0  1  0  0  0  0  0  0
  183.3130  178.9660  142.4920 C   0  0  0  0  0  0  0  0  0  0  0  0
  186.6900  178.2290  145.4220 C   0  0  2  0  0  3  0  0  0  0  0  0
  186.5450  177.0930  144.6210 O   0  0  0  0  0  1  0  0  0  0  0  0
  187.3970  177.8760  146.7370 C   0  0  0  0  0  2  0  0  0  0  0  0
  189.4460  177.7560  145.3170 N   0  0  0  0  0  0  0  0  0  0  0  0
  191.9260  176.0020  147.3610 C   0  0  0  0  0  1  0  0  0  0  0  0
  190.6740  177.2360  145.5030 C   0  0  1  0  0  3  0  0  0  0  0  0
  189.5740  176.8490  147.3930 N   0  0  0  0  0  0  0  0  0  0  0  0
  190.7480  176.6870  146.7620 C   0  0  0  0  0  0  0  0  0  0  0  0
  188.8180  177.5060  146.4870 C   0  0  0  0  0  0  0  0  0  0  0  0
  191.6800  178.5080  143.6370 C   0  0  0  0  0  1  0  0  0  0  0  0
  191.6730  176.0270  143.5930 C   0  0  0  0  0  1  0  0  0  0  0  0
  191.7640  177.2510  144.4820 C   0  0  0  0  0  3  0  0  0  0  0  0
  1  2  1  0  0  0  0
  3 14  1  6  0  0  0
  3  4  1  0  0  0  0
  3  5  1  0  0  0  0
  4  5  1  0  0  0  0
  4  1  1  1  0  0  0
  6 11  1  0  0  0  0
  6 14  1  0  0  0  0
  7  8  1  0  0  0  0
  8 14  2  0  0  0  0
  8 13  1  0  0  0  0
  9 10  1  0  0  0  0
 10 12  1  0  0  0  0
 10  7  2  0  0  0  0
 12  6  2  0  0  0  0
 15 16  1  1  0  0  0
 15  1  1  0  0  0  0
 15 17  1  0  0  0  0
 18 20  1  0  0  0  0
 18 23  2  0  0  0  0
 20 26  1  6  0  0  0
 20 22  1  0  0  0  0
 22 19  1  0  0  0  0
 22 21  2  0  0  0  0
 23 17  1  0  0  0  0
 23 21  1  0  0  0  0
 24 26  1  0  0  0  0
 25 26  1  0  0  0  0
M  END
>  <MODEL>
9

>  <REMARK>
 VINA RESULT:      -7.5      2.667      4.714
  Name = 
  6 active torsions:
  status: ('A' for Active; 'I' for Inactive)
    1  A    between atoms: N_7  and  C_14
    2  A    between atoms: N_7  and  C_23
    3  A    between atoms: C_10  and  C_21
    4  A    between atoms: C_11  and  C_26
    5  A    between atoms: C_14  and  C_24
    6  A    between atoms: C_17  and  C_24
                            x       y       z     vdW  Elec       q    Type
                         _______ _______ _______ _____ _____    ______ ____

>  <TORSDO>
F 6

$$$$
