=
 OpenBabel11042410553D

 26 28  0  0  1  0  0  0  0  0999 V2000
  186.5630  177.7790  144.4630 C   0  0  0  0  0  3  0  0  0  0  0  0
  185.8010  178.5620  147.0870 C   0  0  0  0  0  3  0  0  0  0  0  0
  187.0600  178.0300  146.8210 C   0  0  0  0  0  0  0  0  0  0  0  0
  191.4210  176.6920  146.1340 C   0  0  0  0  0  3  0  0  0  0  0  0
  187.4360  177.6460  145.5420 C   0  0  0  0  0  0  0  0  0  0  0  0
  189.6740  176.9980  144.3710 C   0  0  2  0  0  3  0  0  0  0  0  0
  184.9060  178.6950  146.0120 C   0  0  0  0  0  3  0  0  0  0  0  0
  191.0600  176.6140  144.8420 C   0  0  0  0  0  3  0  0  0  0  0  0
  188.2000  177.8180  147.7050 C   0  0  0  0  0  0  0  0  0  0  0  0
  188.7730  177.1410  145.5130 N   0  0  0  0  0  0  0  0  0  0  0  0
  188.2750  178.0780  148.9330 O   0  0  0  0  0  0  0  0  0  0  0  0
  189.2490  177.2920  146.8450 C   0  0  0  0  0  0  0  0  0  0  0  0
  185.2840  178.3070  144.7100 C   0  0  0  0  0  3  0  0  0  0  0  0
  190.4930  177.1060  147.1530 N   0  0  0  0  0  0  0  0  0  0  0  0
  189.1680  175.9790  143.4670 N   0  0  0  0  0  2  0  0  0  0  0  0
  189.0430  176.6000  142.1580 C   0  0  0  0  0  2  0  0  0  0  0  0
  189.3930  178.0730  142.2480 C   0  0  0  0  0  2  0  0  0  0  0  0
  188.4140  178.8950  141.4290 C   0  0  0  0  0  2  0  0  0  0  0  0
  187.9980  178.1380  140.1780 C   0  0  1  0  0  3  0  0  0  0  0  0
  186.0040  178.7870  140.8890 C   0  0  0  0  0  1  0  0  0  0  0  0
  186.7600  178.6050  139.7300 O   0  0  0  0  0  0  0  0  0  0  0  0
  189.0390  178.3430  139.0860 C   0  0  0  0  0  2  0  0  0  0  0  0
  190.7290  176.4730  138.8410 C   0  0  0  0  0  0  0  0  0  0  0  0
  189.4650  177.0640  138.5340 N   0  0  0  0  0  2  0  0  0  0  0  0
  191.0880  175.2320  138.2470 N   0  0  0  0  0  1  0  0  0  0  0  0
  191.5260  177.0390  139.6350 O   0  0  0  0  0  0  0  0  0  0  0  0
  1 13  2  0  0  0  0
  1  5  1  0  0  0  0
  3  2  1  0  0  0  0
  3  9  1  0  0  0  0
  4 14  1  0  0  0  0
  5  3  2  0  0  0  0
  6 15  1  6  0  0  0
  6  8  1  0  0  0  0
  6 10  1  0  0  0  0
  7  2  2  0  0  0  0
  8  4  2  0  0  0  0
  9 11  2  0  0  0  0
 10  5  1  0  0  0  0
 10 12  1  0  0  0  0
 12 14  2  0  0  0  0
 12  9  1  0  0  0  0
 13  7  1  0  0  0  0
 16 17  1  0  0  0  0
 16 15  1  0  0  0  0
 18 17  1  0  0  0  0
 19 22  1  6  0  0  0
 19 18  1  0  0  0  0
 21 19  1  0  0  0  0
 21 20  1  0  0  0  0
 23 26  2  0  0  0  0
 24 23  1  0  0  0  0
 24 22  1  0  0  0  0
 25 23  1  0  0  0  0
M  END
>  <MODEL>
1

>  <REMARK>
 VINA RESULT:      -8.3      0.000      0.000
  Name = 
  8 active torsions:
  status: ('A' for Active; 'I' for Inactive)
    1  A    between atoms: C_2  and  C_12
    2  A    between atoms: C_2  and  O_20
    3  A    between atoms: C_2  and  C_26
    4  A    between atoms: N_7  and  C_11
    5  A    between atoms: N_7  and  C_15
    6  A    between atoms: N_9  and  C_12
    7  A    between atoms: C_15  and  C_16
    8  A    between atoms: C_16  and  C_26
                            x       y       z     vdW  Elec       q    Type
                         _______ _______ _______ _____ _____    ______ ____

>  <TORSDO>
F 8

$$$$
=
 OpenBabel11042410553D

 26 28  0  0  1  0  0  0  0  0999 V2000
  186.5410  177.8800  144.1980 C   0  0  0  0  0  3  0  0  0  0  0  0
  185.6650  178.5070  146.8290 C   0  0  0  0  0  3  0  0  0  0  0  0
  186.9380  177.9990  146.5860 C   0  0  0  0  0  0  0  0  0  0  0  0
  191.3340  176.7280  146.0060 C   0  0  0  0  0  3  0  0  0  0  0  0
  187.3690  177.6900  145.3030 C   0  0  0  0  0  0  0  0  0  0  0  0
  189.6590  177.1240  144.1920 C   0  0  2  0  0  3  0  0  0  0  0  0
  184.8130  178.6950  145.7260 C   0  0  0  0  0  3  0  0  0  0  0  0
  191.0270  176.7220  144.6970 C   0  0  0  0  0  3  0  0  0  0  0  0
  188.0420  177.7430  147.5020 C   0  0  0  0  0  0  0  0  0  0  0  0
  188.7110  177.1960  145.3020 N   0  0  0  0  0  0  0  0  0  0  0  0
  188.0640  177.9330  148.7460 O   0  0  0  0  0  0  0  0  0  0  0  0
  189.1300  177.2740  146.6580 C   0  0  0  0  0  0  0  0  0  0  0  0
  185.2480  178.3850  144.4210 C   0  0  0  0  0  3  0  0  0  0  0  0
  190.3620  177.0780  147.0070 N   0  0  0  0  0  0  0  0  0  0  0  0
  189.1990  176.1550  143.2110 N   0  0  0  0  0  2  0  0  0  0  0  0
  189.8740  176.4660  141.9620 C   0  0  0  0  0  2  0  0  0  0  0  0
  189.0250  177.4130  141.1350 C   0  0  0  0  0  2  0  0  0  0  0  0
  189.7650  177.8110  139.8700 C   0  0  0  0  0  2  0  0  0  0  0  0
  188.8160  178.4700  138.8810 C   0  0  1  0  0  3  0  0  0  0  0  0
  189.9970  177.2610  137.4500 C   0  0  0  0  0  1  0  0  0  0  0  0
  189.4070  178.5150  137.6160 O   0  0  0  0  0  0  0  0  0  0  0  0
  187.5210  177.6730  138.8050 C   0  0  0  0  0  2  0  0  0  0  0  0
  185.4970  178.9710  139.5990 C   0  0  0  0  0  0  0  0  0  0  0  0
  186.3880  178.5550  138.5620 N   0  0  0  0  0  2  0  0  0  0  0  0
  184.3960  179.8150  139.2840 N   0  0  0  0  0  1  0  0  0  0  0  0
  185.6780  178.5990  140.7880 O   0  0  0  0  0  0  0  0  0  0  0  0
  1 13  2  0  0  0  0
  1  5  1  0  0  0  0
  3  2  1  0  0  0  0
  3  9  1  0  0  0  0
  4 14  1  0  0  0  0
  5  3  2  0  0  0  0
  6 15  1  6  0  0  0
  6  8  1  0  0  0  0
  6 10  1  0  0  0  0
  7  2  2  0  0  0  0
  8  4  2  0  0  0  0
  9 11  2  0  0  0  0
 10  5  1  0  0  0  0
 10 12  1  0  0  0  0
 12 14  2  0  0  0  0
 12  9  1  0  0  0  0
 13  7  1  0  0  0  0
 16 15  1  0  0  0  0
 17 16  1  0  0  0  0
 18 17  1  0  0  0  0
 19 22  1  6  0  0  0
 19 18  1  0  0  0  0
 20 21  1  0  0  0  0
 21 19  1  0  0  0  0
 23 26  2  0  0  0  0
 24 22  1  0  0  0  0
 24 23  1  0  0  0  0
 25 23  1  0  0  0  0
M  END
>  <MODEL>
2

>  <REMARK>
 VINA RESULT:      -8.2      1.651      2.819
  Name = 
  8 active torsions:
  status: ('A' for Active; 'I' for Inactive)
    1  A    between atoms: C_2  and  C_12
    2  A    between atoms: C_2  and  O_20
    3  A    between atoms: C_2  and  C_26
    4  A    between atoms: N_7  and  C_11
    5  A    between atoms: N_7  and  C_15
    6  A    between atoms: N_9  and  C_12
    7  A    between atoms: C_15  and  C_16
    8  A    between atoms: C_16  and  C_26
                            x       y       z     vdW  Elec       q    Type
                         _______ _______ _______ _____ _____    ______ ____

>  <TORSDO>
F 8

$$$$
=
 OpenBabel11042410553D

 26 28  0  0  1  0  0  0  0  0999 V2000
  186.7000  177.9300  144.3500 C   0  0  0  0  0  3  0  0  0  0  0  0
  185.6630  178.4830  146.9390 C   0  0  0  0  0  3  0  0  0  0  0  0
  186.9500  177.9820  146.7600 C   0  0  0  0  0  0  0  0  0  0  0  0
  191.3770  176.7320  146.4140 C   0  0  0  0  0  3  0  0  0  0  0  0
  187.4600  177.7100  145.4980 C   0  0  0  0  0  0  0  0  0  0  0  0
  189.8140  177.1770  144.5130 C   0  0  2  0  0  3  0  0  0  0  0  0
  184.8800  178.7010  145.7920 C   0  0  0  0  0  3  0  0  0  0  0  0
  191.1500  176.7620  145.0900 C   0  0  0  0  0  3  0  0  0  0  0  0
  187.9970  177.7020  147.7340 C   0  0  0  0  0  0  0  0  0  0  0  0
  188.8000  177.2170  145.5650 N   0  0  0  0  0  0  0  0  0  0  0  0
  187.9420  177.8570  148.9820 O   0  0  0  0  0  0  0  0  0  0  0  0
  189.1350  177.2570  146.9460 C   0  0  0  0  0  0  0  0  0  0  0  0
  185.3950  178.4270  144.5070 C   0  0  0  0  0  3  0  0  0  0  0  0
  190.3440  177.0520  147.3640 N   0  0  0  0  0  0  0  0  0  0  0  0
  189.4170  176.2350  143.4800 N   0  0  0  0  0  2  0  0  0  0  0  0
  190.4920  176.2040  142.5010 C   0  0  0  0  0  2  0  0  0  0  0  0
  190.3800  177.3980  141.5700 C   0  0  0  0  0  2  0  0  0  0  0  0
  188.9840  177.4700  140.9790 C   0  0  0  0  0  2  0  0  0  0  0  0
  189.0510  177.5670  139.4630 C   0  0  1  0  0  3  0  0  0  0  0  0
  189.0900  178.8990  137.6940 C   0  0  0  0  0  1  0  0  0  0  0  0
  188.8050  178.8810  139.0600 O   0  0  0  0  0  0  0  0  0  0  0  0
  190.4320  177.1430  138.9830 C   0  0  0  0  0  2  0  0  0  0  0  0
  190.4480  175.1390  137.4350 C   0  0  0  0  0  0  0  0  0  0  0  0
  190.4760  175.7060  138.7470 N   0  0  0  0  0  2  0  0  0  0  0  0
  190.4690  173.7250  137.2800 N   0  0  0  0  0  1  0  0  0  0  0  0
  190.4060  175.8780  136.4160 O   0  0  0  0  0  0  0  0  0  0  0  0
  1 13  2  0  0  0  0
  1  5  1  0  0  0  0
  3  2  1  0  0  0  0
  3  9  1  0  0  0  0
  4 14  1  0  0  0  0
  5 10  1  0  0  0  0
  5  3  2  0  0  0  0
  6 15  1  6  0  0  0
  6  8  1  0  0  0  0
  6 10  1  0  0  0  0
  7  2  2  0  0  0  0
  8  4  2  0  0  0  0
  9 11  2  0  0  0  0
 10 12  1  0  0  0  0
 12 14  2  0  0  0  0
 12  9  1  0  0  0  0
 13  7  1  0  0  0  0
 16 15  1  0  0  0  0
 17 16  1  0  0  0  0
 18 17  1  0  0  0  0
 19 22  1  1  0  0  0
 19 18  1  0  0  0  0
 20 21  1  0  0  0  0
 21 19  1  0  0  0  0
 23 24  1  0  0  0  0
 24 22  1  0  0  0  0
 25 23  1  0  0  0  0
 26 23  2  0  0  0  0
M  END
>  <MODEL>
3

>  <REMARK>
 VINA RESULT:      -8.2      1.256      1.530
  Name = 
  8 active torsions:
  status: ('A' for Active; 'I' for Inactive)
    1  A    between atoms: C_2  and  C_12
    2  A    between atoms: C_2  and  O_20
    3  A    between atoms: C_2  and  C_26
    4  A    between atoms: N_7  and  C_11
    5  A    between atoms: N_7  and  C_15
    6  A    between atoms: N_9  and  C_12
    7  A    between atoms: C_15  and  C_16
    8  A    between atoms: C_16  and  C_26
                            x       y       z     vdW  Elec       q    Type
                         _______ _______ _______ _____ _____    ______ ____

>  <TORSDO>
F 8

$$$$
=
 OpenBabel11042410553D

 26 28  0  0  1  0  0  0  0  0999 V2000
  185.9930  177.8140  142.8940 C   0  0  0  0  0  3  0  0  0  0  0  0
  184.0810  178.9990  144.6340 C   0  0  0  0  0  3  0  0  0  0  0  0
  185.2940  178.5070  145.1090 C   0  0  0  0  0  0  0  0  0  0  0  0
  189.3990  177.3440  146.8630 C   0  0  0  0  0  3  0  0  0  0  0  0
  186.2300  177.9280  144.2640 C   0  0  0  0  0  0  0  0  0  0  0  0
  188.7340  177.2250  144.4550 C   0  0  2  0  0  3  0  0  0  0  0  0
  183.8220  178.8830  143.2570 C   0  0  0  0  0  3  0  0  0  0  0  0
  189.7060  177.0170  145.5960 C   0  0  0  0  0  3  0  0  0  0  0  0
  185.8570  178.5250  146.4530 C   0  0  0  0  0  0  0  0  0  0  0  0
  187.3980  177.5100  144.9750 N   0  0  0  0  0  0  0  0  0  0  0  0
  185.3370  179.0020  147.4950 O   0  0  0  0  0  0  0  0  0  0  0  0
  187.1740  177.9230  146.3170 C   0  0  0  0  0  0  0  0  0  0  0  0
  184.7710  178.2960  142.3940 C   0  0  0  0  0  3  0  0  0  0  0  0
  188.1070  177.8720  147.2140 N   0  0  0  0  0  0  0  0  0  0  0  0
  188.6960  176.0330  143.6250 N   0  0  0  0  0  2  0  0  0  0  0  0
  189.9030  176.0450  142.8150 C   0  0  0  0  0  2  0  0  0  0  0  0
  190.0800  177.4060  142.1680 C   0  0  0  0  0  2  0  0  0  0  0  0
  191.1330  177.3330  141.0760 C   0  0  0  0  0  2  0  0  0  0  0  0
  190.4770  177.2980  139.7040 C   0  0  1  0  0  3  0  0  0  0  0  0
  191.2750  176.1930  137.9580 C   0  0  0  0  0  1  0  0  0  0  0  0
  190.5870  176.0160  139.1590 O   0  0  0  0  0  0  0  0  0  0  0  0
  189.0050  177.6670  139.8300 C   0  0  0  0  0  2  0  0  0  0  0  0
  187.8320  178.2820  137.6720 C   0  0  0  0  0  0  0  0  0  0  0  0
  188.6280  178.6320  138.8060 N   0  0  0  0  0  2  0  0  0  0  0  0
  187.5220  179.2710  136.6980 N   0  0  0  0  0  1  0  0  0  0  0  0
  187.4030  177.1070  137.5270 O   0  0  0  0  0  0  0  0  0  0  0  0
  1  5  1  0  0  0  0
  2  3  1  0  0  0  0
  3  9  1  0  0  0  0
  4 14  1  0  0  0  0
  5 10  1  0  0  0  0
  5  3  2  0  0  0  0
  6 15  1  6  0  0  0
  6 10  1  0  0  0  0
  6  8  1  0  0  0  0
  7  2  2  0  0  0  0
  8  4  2  0  0  0  0
  9 11  2  0  0  0  0
 10 12  1  0  0  0  0
 12  9  1  0  0  0  0
 12 14  2  0  0  0  0
 13  1  2  0  0  0  0
 13  7  1  0  0  0  0
 16 15  1  0  0  0  0
 17 16  1  0  0  0  0
 18 17  1  0  0  0  0
 19 22  1  1  0  0  0
 19 18  1  0  0  0  0
 20 21  1  0  0  0  0
 21 19  1  0  0  0  0
 23 24  1  0  0  0  0
 24 22  1  0  0  0  0
 25 23  1  0  0  0  0
 26 23  2  0  0  0  0
M  END
>  <MODEL>
4

>  <REMARK>
 VINA RESULT:      -7.9      1.728      2.985
  Name = 
  8 active torsions:
  status: ('A' for Active; 'I' for Inactive)
    1  A    between atoms: C_2  and  C_12
    2  A    between atoms: C_2  and  O_20
    3  A    between atoms: C_2  and  C_26
    4  A    between atoms: N_7  and  C_11
    5  A    between atoms: N_7  and  C_15
    6  A    between atoms: N_9  and  C_12
    7  A    between atoms: C_15  and  C_16
    8  A    between atoms: C_16  and  C_26
                            x       y       z     vdW  Elec       q    Type
                         _______ _______ _______ _____ _____    ______ ____

>  <TORSDO>
F 8

$$$$
=
 OpenBabel11042410553D

 26 28  0  0  1  0  0  0  0  0999 V2000
  188.4370  177.0310  143.4540 C   0  0  0  0  0  3  0  0  0  0  0  0
  191.1830  176.3180  143.6420 C   0  0  0  0  0  3  0  0  0  0  0  0
  190.4780  176.8040  144.7410 C   0  0  0  0  0  0  0  0  0  0  0  0
  188.2710  177.9860  148.6150 C   0  0  0  0  0  3  0  0  0  0  0  0
  189.1380  177.1540  144.6530 C   0  0  0  0  0  0  0  0  0  0  0  0
  187.2410  177.7080  146.3540 C   0  0  2  0  0  3  0  0  0  0  0  0
  190.4930  176.1970  142.4240 C   0  0  0  0  0  3  0  0  0  0  0  0
  187.1860  178.0540  147.8260 C   0  0  0  0  0  3  0  0  0  0  0  0
  190.9000  176.9940  146.1230 C   0  0  0  0  0  0  0  0  0  0  0  0
  188.6290  177.6140  145.9080 N   0  0  0  0  0  0  0  0  0  0  0  0
  192.0320  176.7530  146.6180 O   0  0  0  0  0  0  0  0  0  0  0  0
  189.7130  177.4700  146.8160 C   0  0  0  0  0  0  0  0  0  0  0  0
  189.1310  176.5510  142.3300 C   0  0  0  0  0  3  0  0  0  0  0  0
  189.5620  177.6210  148.0940 N   0  0  0  0  0  0  0  0  0  0  0  0
  186.5430  178.7270  145.5880 N   0  0  0  0  0  2  0  0  0  0  0  0
  185.1220  178.5370  145.8270 C   0  0  0  0  0  2  0  0  0  0  0  0
  184.3300  178.9580  144.6030 C   0  0  0  0  0  2  0  0  0  0  0  0
  185.1180  178.6560  143.3410 C   0  0  0  0  0  2  0  0  0  0  0  0
  184.1810  178.2730  142.2060 C   0  0  1  0  0  3  0  0  0  0  0  0
  182.2140  178.7490  141.3070 C   0  0  0  0  0  1  0  0  0  0  0  0
  182.8700  178.6280  142.5330 O   0  0  0  0  0  0  0  0  0  0  0  0
  184.5970  178.9970  140.9330 C   0  0  0  0  0  2  0  0  0  0  0  0
  186.7030  178.6280  139.5750 C   0  0  0  0  0  0  0  0  0  0  0  0
  186.0460  178.9950  140.7900 N   0  0  0  0  0  2  0  0  0  0  0  0
  188.1240  178.6260  139.5160 N   0  0  0  0  0  1  0  0  0  0  0  0
  186.0350  178.3070  138.5570 O   0  0  0  0  0  0  0  0  0  0  0  0
  1  5  1  0  0  0  0
  2  3  1  0  0  0  0
  3  9  1  0  0  0  0
  5  3  2  0  0  0  0
  5 10  1  0  0  0  0
  6 15  1  6  0  0  0
  6  8  1  0  0  0  0
  7  2  2  0  0  0  0
  8  4  2  0  0  0  0
  9 11  2  0  0  0  0
  9 12  1  0  0  0  0
 10  6  1  0  0  0  0
 10 12  1  0  0  0  0
 12 14  2  0  0  0  0
 13  7  1  0  0  0  0
 13  1  2  0  0  0  0
 14  4  1  0  0  0  0
 15 16  1  0  0  0  0
 17 16  1  0  0  0  0
 18 17  1  0  0  0  0
 19 22  1  6  0  0  0
 19 21  1  0  0  0  0
 19 18  1  0  0  0  0
 20 21  1  0  0  0  0
 23 24  1  0  0  0  0
 24 22  1  0  0  0  0
 25 23  1  0  0  0  0
 26 23  2  0  0  0  0
M  END
>  <MODEL>
5

>  <REMARK>
 VINA RESULT:      -7.7      2.298      4.426
  Name = 
  8 active torsions:
  status: ('A' for Active; 'I' for Inactive)
    1  A    between atoms: C_2  and  C_12
    2  A    between atoms: C_2  and  O_20
    3  A    between atoms: C_2  and  C_26
    4  A    between atoms: N_7  and  C_11
    5  A    between atoms: N_7  and  C_15
    6  A    between atoms: N_9  and  C_12
    7  A    between atoms: C_15  and  C_16
    8  A    between atoms: C_16  and  C_26
                            x       y       z     vdW  Elec       q    Type
                         _______ _______ _______ _____ _____    ______ ____

>  <TORSDO>
F 8

$$$$
=
 OpenBabel11042410553D

 26 28  0  0  1  0  0  0  0  0999 V2000
  188.8050  176.7970  143.1130 C   0  0  0  0  0  3  0  0  0  0  0  0
  190.9690  176.5040  144.9340 C   0  0  0  0  0  3  0  0  0  0  0  0
  189.7510  177.0500  145.3300 C   0  0  0  0  0  0  0  0  0  0  0  0
  185.6960  178.4940  146.9900 C   0  0  0  0  0  3  0  0  0  0  0  0
  188.6920  177.1960  144.4450 C   0  0  0  0  0  0  0  0  0  0  0  0
  186.1500  177.7370  144.6500 C   0  0  2  0  0  3  0  0  0  0  0  0
  191.1020  176.1060  143.5920 C   0  0  0  0  0  3  0  0  0  0  0  0
  185.2550  178.2920  145.7370 C   0  0  0  0  0  3  0  0  0  0  0  0
  189.3030  177.5050  146.6400 C   0  0  0  0  0  0  0  0  0  0  0  0
  187.5460  177.7680  145.0800 N   0  0  0  0  0  0  0  0  0  0  0  0
  189.9540  177.4980  147.7170 O   0  0  0  0  0  0  0  0  0  0  0  0
  187.9200  177.9130  146.4440 C   0  0  0  0  0  0  0  0  0  0  0  0
  190.0290  176.2510  142.6890 C   0  0  0  0  0  3  0  0  0  0  0  0
  187.0620  178.2340  147.3600 N   0  0  0  0  0  0  0  0  0  0  0  0
  185.9890  178.5230  143.4380 N   0  0  0  0  0  2  0  0  0  0  0  0
  184.6030  178.9620  143.4000 C   0  0  0  0  0  2  0  0  0  0  0  0
  183.9970  178.6450  142.0460 C   0  0  0  0  0  2  0  0  0  0  0  0
  184.9930  178.9530  140.9420 C   0  0  0  0  0  2  0  0  0  0  0  0
  184.3080  178.9330  139.5840 C   0  0  1  0  0  3  0  0  0  0  0  0
  182.8490  180.3680  138.7370 C   0  0  0  0  0  1  0  0  0  0  0  0
  184.1920  180.2360  139.0930 O   0  0  0  0  0  0  0  0  0  0  0  0
  185.1270  178.0980  138.6100 C   0  0  0  0  0  2  0  0  0  0  0  0
  187.4890  178.2550  137.7090 C   0  0  0  0  0  0  0  0  0  0  0  0
  186.2570  178.8640  138.1000 N   0  0  0  0  0  2  0  0  0  0  0  0
  188.5590  179.0670  137.2420 N   0  0  0  0  0  1  0  0  0  0  0  0
  187.6350  177.0050  137.7710 O   0  0  0  0  0  0  0  0  0  0  0  0
  1  5  1  0  0  0  0
  2  3  1  0  0  0  0
  3  9  1  0  0  0  0
  4 14  1  0  0  0  0
  5 10  1  0  0  0  0
  5  3  2  0  0  0  0
  6 15  1  6  0  0  0
  6 10  1  0  0  0  0
  6  8  1  0  0  0  0
  7  2  2  0  0  0  0
  8  4  2  0  0  0  0
  9 11  2  0  0  0  0
 10 12  1  0  0  0  0
 12  9  1  0  0  0  0
 12 14  2  0  0  0  0
 13  1  2  0  0  0  0
 13  7  1  0  0  0  0
 16 15  1  0  0  0  0
 17 16  1  0  0  0  0
 18 17  1  0  0  0  0
 19 22  1  6  0  0  0
 19 18  1  0  0  0  0
 20 21  1  0  0  0  0
 21 19  1  0  0  0  0
 23 26  2  0  0  0  0
 23 24  1  0  0  0  0
 24 22  1  0  0  0  0
 25 23  1  0  0  0  0
M  END
>  <MODEL>
6

>  <REMARK>
 VINA RESULT:      -7.6      2.223      4.213
  Name = 
  8 active torsions:
  status: ('A' for Active; 'I' for Inactive)
    1  A    between atoms: C_2  and  C_12
    2  A    between atoms: C_2  and  O_20
    3  A    between atoms: C_2  and  C_26
    4  A    between atoms: N_7  and  C_11
    5  A    between atoms: N_7  and  C_15
    6  A    between atoms: N_9  and  C_12
    7  A    between atoms: C_15  and  C_16
    8  A    between atoms: C_16  and  C_26
                            x       y       z     vdW  Elec       q    Type
                         _______ _______ _______ _____ _____    ______ ____

>  <TORSDO>
F 8

$$$$
=
 OpenBabel11042410553D

 26 28  0  0  1  0  0  0  0  0999 V2000
  188.2720  176.9880  143.5410 C   0  0  0  0  0  3  0  0  0  0  0  0
  191.0420  176.3480  143.5560 C   0  0  0  0  0  3  0  0  0  0  0  0
  190.3900  176.7960  144.7020 C   0  0  0  0  0  0  0  0  0  0  0  0
  188.3830  177.8520  148.7190 C   0  0  0  0  0  3  0  0  0  0  0  0
  189.0390  177.1100  144.6990 C   0  0  0  0  0  0  0  0  0  0  0  0
  187.2300  177.5830  146.5170 C   0  0  2  0  0  3  0  0  0  0  0  0
  190.2850  176.2280  142.3770 C   0  0  0  0  0  3  0  0  0  0  0  0
  187.2520  177.9030  147.9950 C   0  0  0  0  0  3  0  0  0  0  0  0
  190.8870  176.9740  146.0610 C   0  0  0  0  0  0  0  0  0  0  0  0
  188.5920  177.5350  145.9890 N   0  0  0  0  0  0  0  0  0  0  0  0
  192.0520  176.7560  146.4850 O   0  0  0  0  0  0  0  0  0  0  0  0
  189.7310  177.4060  146.8300 C   0  0  0  0  0  0  0  0  0  0  0  0
  188.9110  176.5450  142.3700 C   0  0  0  0  0  3  0  0  0  0  0  0
  189.6500  177.5310  148.1170 N   0  0  0  0  0  0  0  0  0  0  0  0
  186.4620  178.5950  145.8110 N   0  0  0  0  0  2  0  0  0  0  0  0
  185.1900  178.7190  146.5030 C   0  0  0  0  0  2  0  0  0  0  0  0
  184.0470  178.6240  145.5090 C   0  0  0  0  0  2  0  0  0  0  0  0
  184.5920  178.5260  144.0950 C   0  0  0  0  0  2  0  0  0  0  0  0
  183.5830  179.0680  143.0950 C   0  0  1  0  0  3  0  0  0  0  0  0
  185.2070  178.8020  141.6140 C   0  0  0  0  0  1  0  0  0  0  0  0
  183.8500  178.5530  141.8250 O   0  0  0  0  0  0  0  0  0  0  0  0
  182.1760  178.6650  143.5170 C   0  0  0  0  0  2  0  0  0  0  0  0
  180.5010  179.7430  141.9540 C   0  0  0  0  0  0  0  0  0  0  0  0
  181.2200  179.7130  143.1890 N   0  0  0  0  0  2  0  0  0  0  0  0
  179.6000  180.8110  141.6900 N   0  0  0  0  0  1  0  0  0  0  0  0
  180.6570  178.8320  141.0980 O   0  0  0  0  0  0  0  0  0  0  0  0
  1  5  1  0  0  0  0
  2  3  1  0  0  0  0
  3  9  1  0  0  0  0
  5  3  2  0  0  0  0
  5 10  1  0  0  0  0
  6 15  1  6  0  0  0
  6  8  1  0  0  0  0
  7  2  2  0  0  0  0
  8  4  2  0  0  0  0
  9 11  2  0  0  0  0
  9 12  1  0  0  0  0
 10  6  1  0  0  0  0
 10 12  1  0  0  0  0
 12 14  2  0  0  0  0
 13  7  1  0  0  0  0
 13  1  2  0  0  0  0
 14  4  1  0  0  0  0
 15 16  1  0  0  0  0
 17 16  1  0  0  0  0
 18 17  1  0  0  0  0
 19 22  1  1  0  0  0
 19 18  1  0  0  0  0
 20 21  1  0  0  0  0
 21 19  1  0  0  0  0
 23 24  1  0  0  0  0
 24 22  1  0  0  0  0
 25 23  1  0  0  0  0
 26 23  2  0  0  0  0
M  END
>  <MODEL>
7

>  <REMARK>
 VINA RESULT:      -7.5      3.553      6.134
  Name = 
  8 active torsions:
  status: ('A' for Active; 'I' for Inactive)
    1  A    between atoms: C_2  and  C_12
    2  A    between atoms: C_2  and  O_20
    3  A    between atoms: C_2  and  C_26
    4  A    between atoms: N_7  and  C_11
    5  A    between atoms: N_7  and  C_15
    6  A    between atoms: N_9  and  C_12
    7  A    between atoms: C_15  and  C_16
    8  A    between atoms: C_16  and  C_26
                            x       y       z     vdW  Elec       q    Type
                         _______ _______ _______ _____ _____    ______ ____

>  <TORSDO>
F 8

$$$$
=
 OpenBabel11042410553D

 26 28  0  0  1  0  0  0  0  0999 V2000
  188.9700  177.4080  145.3680 C   0  0  0  0  0  3  0  0  0  0  0  0
  187.7420  177.8260  147.8970 C   0  0  0  0  0  3  0  0  0  0  0  0
  187.0470  178.0250  146.7070 C   0  0  0  0  0  0  0  0  0  0  0  0
  184.4120  178.3470  142.9350 C   0  0  0  0  0  3  0  0  0  0  0  0
  187.6430  177.8230  145.4700 C   0  0  0  0  0  0  0  0  0  0  0  0
  186.8080  177.6350  143.0070 C   0  0  2  0  0  3  0  0  0  0  0  0
  189.0840  177.4160  147.8110 C   0  0  0  0  0  3  0  0  0  0  0  0
  185.5230  177.9670  142.2810 C   0  0  0  0  0  3  0  0  0  0  0  0
  185.6570  178.3980  146.4780 C   0  0  0  0  0  0  0  0  0  0  0  0
  186.7330  178.0790  144.3980 N   0  0  0  0  0  0  0  0  0  0  0  0
  184.7730  178.6290  147.3440 O   0  0  0  0  0  0  0  0  0  0  0  0
  185.4990  178.3910  145.0320 C   0  0  0  0  0  0  0  0  0  0  0  0
  189.6930  177.2080  146.5560 C   0  0  0  0  0  3  0  0  0  0  0  0
  184.3940  178.5010  144.3650 N   0  0  0  0  0  0  0  0  0  0  0  0
  187.9250  178.2830  142.3410 N   0  0  0  0  0  2  0  0  0  0  0  0
  187.4790  178.6210  141.0000 C   0  0  0  0  0  2  0  0  0  0  0  0
  188.6600  178.6290  140.0470 C   0  0  0  0  0  2  0  0  0  0  0  0
  188.6190  177.4020  139.1540 C   0  0  0  0  0  2  0  0  0  0  0  0
  190.0050  176.7910  139.0220 C   0  0  1  0  0  3  0  0  0  0  0  0
  189.6470  176.6410  136.8420 C   0  0  0  0  0  1  0  0  0  0  0  0
  190.5560  177.1270  137.7830 O   0  0  0  0  0  0  0  0  0  0  0  0
  190.9050  177.3170  140.1330 C   0  0  0  0  0  2  0  0  0  0  0  0
  191.3310  176.7570  142.5650 C   0  0  0  0  0  0  0  0  0  0  0  0
  190.9610  176.3720  141.2390 N   0  0  0  0  0  2  0  0  0  0  0  0
  191.3880  175.7760  143.5930 N   0  0  0  0  0  1  0  0  0  0  0  0
  191.6050  177.9570  142.8320 O   0  0  0  0  0  0  0  0  0  0  0  0
  1  5  2  0  0  0  0
  1 13  1  0  0  0  0
  3  2  2  0  0  0  0
  4 14  1  0  0  0  0
  5  3  1  0  0  0  0
  6 15  1  6  0  0  0
  6 10  1  0  0  0  0
  7  2  1  0  0  0  0
  8  4  2  0  0  0  0
  8  6  1  0  0  0  0
  9  3  1  0  0  0  0
  9 11  2  0  0  0  0
 10 12  1  0  0  0  0
 10  5  1  0  0  0  0
 12  9  1  0  0  0  0
 13  7  2  0  0  0  0
 14 12  2  0  0  0  0
 16 15  1  0  0  0  0
 17 16  1  0  0  0  0
 18 17  1  0  0  0  0
 19 18  1  1  0  0  0
 19 22  1  0  0  0  0
 20 21  1  0  0  0  0
 21 19  1  0  0  0  0
 22 24  1  0  0  0  0
 23 26  2  0  0  0  0
 23 25  1  0  0  0  0
 24 23  1  0  0  0  0
M  END
>  <MODEL>
8

>  <REMARK>
 VINA RESULT:      -7.4      2.126      4.047
  Name = 
  8 active torsions:
  status: ('A' for Active; 'I' for Inactive)
    1  A    between atoms: C_2  and  C_12
    2  A    between atoms: C_2  and  O_20
    3  A    between atoms: C_2  and  C_26
    4  A    between atoms: N_7  and  C_11
    5  A    between atoms: N_7  and  C_15
    6  A    between atoms: N_9  and  C_12
    7  A    between atoms: C_15  and  C_16
    8  A    between atoms: C_16  and  C_26
                            x       y       z     vdW  Elec       q    Type
                         _______ _______ _______ _____ _____    ______ ____

>  <TORSDO>
F 8

$$$$
=
 OpenBabel11042410553D

 26 28  0  0  1  0  0  0  0  0999 V2000
  189.2980  177.1640  144.2940 C   0  0  0  0  0  3  0  0  0  0  0  0
  190.2280  177.0940  146.9800 C   0  0  0  0  0  3  0  0  0  0  0  0
  188.9450  177.5350  146.6630 C   0  0  0  0  0  0  0  0  0  0  0  0
  184.5270  178.6350  145.9220 C   0  0  0  0  0  3  0  0  0  0  0  0
  188.4880  177.5720  145.3530 C   0  0  0  0  0  0  0  0  0  0  0  0
  186.1730  177.8850  144.1950 C   0  0  2  0  0  3  0  0  0  0  0  0
  191.0610  176.6890  145.9220 C   0  0  0  0  0  3  0  0  0  0  0  0
  184.8100  178.3740  144.6350 C   0  0  0  0  0  3  0  0  0  0  0  0
  187.8560  177.9670  147.5290 C   0  0  0  0  0  0  0  0  0  0  0  0
  187.1420  178.0470  145.2770 N   0  0  0  0  0  0  0  0  0  0  0  0
  187.8580  178.0360  148.7860 O   0  0  0  0  0  0  0  0  0  0  0  0
  186.7480  178.2470  146.6290 C   0  0  0  0  0  0  0  0  0  0  0  0
  190.5990  176.7230  144.5900 C   0  0  0  0  0  3  0  0  0  0  0  0
  185.5210  178.5040  146.9540 N   0  0  0  0  0  0  0  0  0  0  0  0
  186.6050  178.6350  143.0280 N   0  0  0  0  0  2  0  0  0  0  0  0
  185.4050  179.0140  142.3000 C   0  0  0  0  0  2  0  0  0  0  0  0
  185.6770  178.9990  140.8080 C   0  0  0  0  0  2  0  0  0  0  0  0
  187.1150  178.5910  140.5420 C   0  0  0  0  0  2  0  0  0  0  0  0
  187.2490  177.9750  139.1590 C   0  0  1  0  0  3  0  0  0  0  0  0
  186.8720  178.2770  136.9980 C   0  0  0  0  0  1  0  0  0  0  0  0
  186.4030  178.6330  138.2630 O   0  0  0  0  0  0  0  0  0  0  0  0
  188.6890  178.1030  138.6780 C   0  0  0  0  0  2  0  0  0  0  0  0
  190.5110  177.0520  140.0880 C   0  0  0  0  0  0  0  0  0  0  0  0
  189.6080  178.1230  139.8080 N   0  0  0  0  0  2  0  0  0  0  0  0
  191.3640  177.1290  141.2230 N   0  0  0  0  0  1  0  0  0  0  0  0
  190.5610  176.0410  139.3370 O   0  0  0  0  0  0  0  0  0  0  0  0
  1 13  2  0  0  0  0
  1  5  1  0  0  0  0
  3  2  1  0  0  0  0
  3  9  1  0  0  0  0
  4 14  1  0  0  0  0
  5  3  2  0  0  0  0
  6 15  1  6  0  0  0
  6  8  1  0  0  0  0
  6 10  1  0  0  0  0
  7  2  2  0  0  0  0
  8  4  2  0  0  0  0
  9 11  2  0  0  0  0
 10  5  1  0  0  0  0
 10 12  1  0  0  0  0
 12 14  2  0  0  0  0
 12  9  1  0  0  0  0
 13  7  1  0  0  0  0
 16 15  1  0  0  0  0
 17 16  1  0  0  0  0
 18 17  1  0  0  0  0
 19 22  1  6  0  0  0
 19 18  1  0  0  0  0
 20 21  1  0  0  0  0
 21 19  1  0  0  0  0
 22 24  1  0  0  0  0
 23 25  1  0  0  0  0
 24 23  1  0  0  0  0
 26 23  2  0  0  0  0
M  END
>  <MODEL>
9

>  <REMARK>
 VINA RESULT:      -7.3      1.645      3.635
  Name = 
  8 active torsions:
  status: ('A' for Active; 'I' for Inactive)
    1  A    between atoms: C_2  and  C_12
    2  A    between atoms: C_2  and  O_20
    3  A    between atoms: C_2  and  C_26
    4  A    between atoms: N_7  and  C_11
    5  A    between atoms: N_7  and  C_15
    6  A    between atoms: N_9  and  C_12
    7  A    between atoms: C_15  and  C_16
    8  A    between atoms: C_16  and  C_26
                            x       y       z     vdW  Elec       q    Type
                         _______ _______ _______ _____ _____    ______ ____

>  <TORSDO>
F 8

$$$$
