=
 OpenBabel11042409573D

 38 41  0  0  1  0  0  0  0  0999 V2000
  189.6580  177.5170  143.9870 C   0  0  0  0  0  0  0  0  0  0  0  0
  190.1660  177.3510  141.6210 C   0  0  0  0  0  0  0  0  0  0  0  0
  190.5530  177.1840  139.0930 C   0  0  0  0  0  3  0  0  0  0  0  0
  190.4900  177.2020  143.0160 N   0  0  0  0  0  0  0  0  0  0  0  0
  188.9810  177.8230  141.3130 C   0  0  0  0  0  0  0  0  0  0  0  0
  188.4670  177.9900  140.0040 C   0  0  0  0  0  0  0  0  0  0  0  0
  191.1130  176.9520  140.5030 C   0  0  0  0  0  3  0  0  0  0  0  0
  187.9890  178.1840  142.2520 C   0  0  0  0  0  0  0  0  0  0  0  0
  187.2110  178.4310  140.0940 C   0  0  0  0  0  3  0  0  0  0  0  0
  190.0560  177.3390  145.3470 N   0  0  0  0  0  2  0  0  0  0  0  0
  189.3110  177.6530  138.8520 C   0  0  0  0  0  0  0  0  0  0  0  0
  188.2550  178.0680  143.7220 C   0  0  0  0  0  3  0  0  0  0  0  0
  186.9120  178.5530  141.5530 C   0  0  0  0  0  0  0  0  0  0  0  0
  185.6190  178.9800  142.1170 C   0  0  0  0  0  0  0  0  0  0  0  0
  185.4920  180.1310  142.6180 O   0  0  0  0  0  0  0  0  0  0  0  0
  184.4590  178.0330  142.1230 C   0  0  1  0  0  3  0  0  0  0  0  0
  183.4010  178.5210  143.0990 C   0  0  0  0  0  1  0  0  0  0  0  0
  183.8730  177.9030  140.7270 C   0  0  0  0  0  2  0  0  0  0  0  0
  182.9270  178.9880  140.4720 N   0  0  0  0  0  2  0  0  0  0  0  0
  182.9680  178.4600  138.0700 C   0  0  0  0  0  1  0  0  0  0  0  0
  183.1310  179.5390  139.1290 C   0  0  0  0  0  0  0  0  0  0  0  0
  184.3980  180.1170  139.0230 O   0  0  0  0  0  1  0  0  0  0  0  0
  182.0880  180.6090  138.8810 C   0  0  0  0  0  1  0  0  0  0  0  0
  191.3510  176.7890  145.7170 C   0  0  0  0  0  2  0  0  0  0  0  0
  192.4040  175.5880  147.6260 C   0  0  0  0  0  1  0  0  0  0  0  0
  191.4730  176.7190  147.2270 C   0  0  0  0  0  2  0  0  0  0  0  0
  188.8410  177.8680  137.4560 C   0  0  0  0  0  2  0  0  0  0  0  0
  188.2580  176.6390  136.9420 N   0  0  0  0  0  2  0  0  0  0  0  0
  186.3270  175.1990  136.4060 N   0  0  0  0  0  2  0  0  0  0  0  0
  186.8450  176.4600  136.8390 C   0  0  0  0  0  0  0  0  0  0  0  0
  186.0620  177.4020  137.1370 O   0  0  0  0  0  0  0  0  0  0  0  0
  184.9010  174.9550  136.2460 C   0  0  0  0  0  2  0  0  0  0  0  0
  182.9070  174.3390  137.5480 O   0  0  0  0  0  0  0  0  0  0  0  0
  184.3250  174.3270  137.5170 C   0  0  1  0  0  3  0  0  0  0  0  0
  184.8970  172.9300  137.7920 C   0  0  0  0  0  2  0  0  0  0  0  0
  184.2860  171.9020  136.8460 C   0  0  0  0  0  2  0  0  0  0  0  0
  182.7680  172.0300  136.8470 C   0  0  0  0  0  2  0  0  0  0  0  0
  182.4020  173.4800  136.5470 C   0  0  0  0  0  2  0  0  0  0  0  0
  1 10  1  0  0  0  0
  2  4  1  0  0  0  0
  3  7  1  0  0  0  0
  4  1  2  0  0  0  0
  5  2  1  0  0  0  0
  5  8  1  0  0  0  0
  6  9  1  0  0  0  0
  6  5  2  0  0  0  0
  7  2  2  0  0  0  0
  8 12  2  0  0  0  0
  9 13  2  0  0  0  0
 10 24  1  0  0  0  0
 11  3  2  0  0  0  0
 11  6  1  0  0  0  0
 12  1  1  0  0  0  0
 13 14  1  0  0  0  0
 13  8  1  0  0  0  0
 14 16  1  0  0  0  0
 14 15  2  0  0  0  0
 16 17  1  1  0  0  0
 18 16  1  0  0  0  0
 19 18  1  0  0  0  0
 20 21  1  0  0  0  0
 21 19  1  0  0  0  0
 22 21  1  0  0  0  0
 23 21  1  0  0  0  0
 24 26  1  0  0  0  0
 26 25  1  0  0  0  0
 27 11  1  0  0  0  0
 28 27  1  0  0  0  0
 29 30  1  0  0  0  0
 30 28  1  0  0  0  0
 30 31  2  0  0  0  0
 32 29  1  0  0  0  0
 34 32  1  6  0  0  0
 34 33  1  0  0  0  0
 34 35  1  0  0  0  0
 36 37  1  0  0  0  0
 36 35  1  0  0  0  0
 38 37  1  0  0  0  0
 38 33  1  0  0  0  0
M  END
>  <MODEL>
1

>  <REMARK>
 VINA RESULT:      -7.8      0.000      0.000
  Name = 
  11 active torsions:
  status: ('A' for Active; 'I' for Inactive)
    1  A    between atoms: C_1  and  C_6
    2  A    between atoms: C_1  and  C_36
    3  A    between atoms: N_4  and  C_38
    4  A    between atoms: C_6  and  C_10
    5  A    between atoms: C_7  and  C_22
    6  A    between atoms: N_9  and  C_10
    7  A    between atoms: N_9  and  C_11
    8  A    between atoms: N_12  and  C_22
    9  A    between atoms: N_28  and  C_34
   10  A    between atoms: C_30  and  C_38
   11  A    between atoms: C_34  and  C_37
                            x       y       z     vdW  Elec       q    Type
                         _______ _______ _______ _____ _____    ______ ____

>  <TORSDO>
F 11

$$$$
=
 OpenBabel11042409573D

 38 41  0  0  1  0  0  0  0  0999 V2000
  189.7700  177.2130  144.2770 C   0  0  0  0  0  0  0  0  0  0  0  0
  187.4230  177.7950  144.4710 C   0  0  0  0  0  0  0  0  0  0  0  0
  184.9510  178.4710  144.5360 C   0  0  0  0  0  3  0  0  0  0  0  0
  188.6980  177.4110  145.0170 N   0  0  0  0  0  0  0  0  0  0  0  0
  187.3330  177.9520  143.1710 C   0  0  0  0  0  0  0  0  0  0  0  0
  186.1830  178.3740  142.4620 C   0  0  0  0  0  0  0  0  0  0  0  0
  186.1990  178.0600  145.3300 C   0  0  0  0  0  2  0  0  0  0  0  0
  188.4040  177.7880  142.2650 C   0  0  0  0  0  0  0  0  0  0  0  0
  186.4960  178.4790  141.1690 C   0  0  0  0  0  3  0  0  0  0  0  0
  191.0000  176.8350  144.8960 N   0  0  0  0  0  2  0  0  0  0  0  0
  184.9410  178.6360  143.1970 C   0  0  0  0  0  0  0  0  0  0  0  0
  189.7610  177.3790  142.7550 C   0  0  0  0  0  2  0  0  0  0  0  0
  187.9360  178.0970  141.0530 C   0  0  0  0  0  0  0  0  0  0  0  0
  188.7120  178.1010  139.8000 C   0  0  0  0  0  0  0  0  0  0  0  0
  188.9400  179.1840  139.1960 O   0  0  0  0  0  0  0  0  0  0  0  0
  189.2070  176.8090  139.2250 C   0  0  1  0  0  3  0  0  0  0  0  0
  188.5390  176.5520  137.8860 C   0  0  0  0  0  1  0  0  0  0  0  0
  190.7180  176.8440  139.0660 C   0  0  0  0  0  2  0  0  0  0  0  0
  191.0790  176.8060  137.6500 N   0  0  0  0  0  2  0  0  0  0  0  0
  192.3050  175.5780  135.9070 C   0  0  0  0  0  1  0  0  0  0  0  0
  192.0520  175.7400  137.3980 C   0  0  0  0  0  0  0  0  0  0  0  0
  191.6050  174.5310  137.9350 O   0  0  0  0  0  1  0  0  0  0  0  0
  193.3610  176.1110  138.0630 C   0  0  0  0  0  1  0  0  0  0  0  0
  191.1350  176.6830  146.3360 C   0  0  0  0  0  2  0  0  0  0  0  0
  192.6580  175.7570  148.0730 C   0  0  0  0  0  1  0  0  0  0  0  0
  192.1510  175.6010  146.6510 C   0  0  0  0  0  2  0  0  0  0  0  0
  183.6870  179.0220  142.4930 C   0  0  0  0  0  2  0  0  0  0  0  0
  183.2500  177.9310  141.6390 N   0  0  0  0  0  2  0  0  0  0  0  0
  182.3840  177.0430  139.5040 N   0  0  0  0  0  2  0  0  0  0  0  0
  182.8890  178.1400  140.2730 C   0  0  0  0  0  0  0  0  0  0  0  0
  183.0060  179.2820  139.7520 O   0  0  0  0  0  0  0  0  0  0  0  0
  182.0290  177.1740  138.0990 C   0  0  0  0  0  2  0  0  0  0  0  0
  182.3900  176.1370  135.8980 O   0  0  0  0  0  0  0  0  0  0  0  0
  182.6290  176.0210  137.2910 C   0  0  1  0  0  3  0  0  0  0  0  0
  184.1140  175.7970  137.6050 C   0  0  0  0  0  2  0  0  0  0  0  0
  184.9720  176.8760  136.9560 C   0  0  0  0  0  2  0  0  0  0  0  0
  184.6010  177.0240  135.4860 C   0  0  0  0  0  2  0  0  0  0  0  0
  183.0950  177.2470  135.3840 C   0  0  0  0  0  2  0  0  0  0  0  0
  1 10  1  0  0  0  0
  1  4  2  0  0  0  0
  2  4  1  0  0  0  0
  2  7  1  0  0  0  0
  3  7  1  0  0  0  0
  5  2  2  0  0  0  0
  6  5  1  0  0  0  0
  6 11  1  0  0  0  0
  8 12  1  0  0  0  0
  8  5  1  0  0  0  0
  9  6  2  0  0  0  0
 10 24  1  0  0  0  0
 11  3  2  0  0  0  0
 12  1  1  0  0  0  0
 13  9  1  0  0  0  0
 13  8  2  0  0  0  0
 14 13  1  0  0  0  0
 15 14  2  0  0  0  0
 16 17  1  6  0  0  0
 16 14  1  0  0  0  0
 18 16  1  0  0  0  0
 19 18  1  0  0  0  0
 20 21  1  0  0  0  0
 21 19  1  0  0  0  0
 21 22  1  0  0  0  0
 21 23  1  0  0  0  0
 24 26  1  0  0  0  0
 26 25  1  0  0  0  0
 27 11  1  0  0  0  0
 28 27  1  0  0  0  0
 29 30  1  0  0  0  0
 30 28  1  0  0  0  0
 31 30  2  0  0  0  0
 32 29  1  0  0  0  0
 33 34  1  0  0  0  0
 34 35  1  0  0  0  0
 34 32  1  1  0  0  0
 36 35  1  0  0  0  0
 37 36  1  0  0  0  0
 38 37  1  0  0  0  0
 38 33  1  0  0  0  0
M  END
>  <MODEL>
2

>  <REMARK>
 VINA RESULT:      -7.8      2.130      5.576
  Name = 
  11 active torsions:
  status: ('A' for Active; 'I' for Inactive)
    1  A    between atoms: C_1  and  C_6
    2  A    between atoms: C_1  and  C_36
    3  A    between atoms: N_4  and  C_38
    4  A    between atoms: C_6  and  C_10
    5  A    between atoms: C_7  and  C_22
    6  A    between atoms: N_9  and  C_10
    7  A    between atoms: N_9  and  C_11
    8  A    between atoms: N_12  and  C_22
    9  A    between atoms: N_28  and  C_34
   10  A    between atoms: C_30  and  C_38
   11  A    between atoms: C_34  and  C_37
                            x       y       z     vdW  Elec       q    Type
                         _______ _______ _______ _____ _____    ______ ____

>  <TORSDO>
F 11

$$$$
=
 OpenBabel11042409573D

 38 41  0  0  1  0  0  0  0  0999 V2000
  191.4200  176.4530  146.6830 C   0  0  0  0  0  0  0  0  0  0  0  0
  189.1240  177.1580  147.0270 C   0  0  0  0  0  0  0  0  0  0  0  0
  186.7020  177.9660  147.2520 C   0  0  0  0  0  3  0  0  0  0  0  0
  190.4060  176.6930  147.4890 N   0  0  0  0  0  0  0  0  0  0  0  0
  188.9680  177.3490  145.7380 C   0  0  0  0  0  0  0  0  0  0  0  0
  187.8040  177.8500  145.1070 C   0  0  0  0  0  0  0  0  0  0  0  0
  187.9690  177.4690  147.9630 C   0  0  0  0  0  2  0  0  0  0  0  0
  189.9740  177.1480  144.7670 C   0  0  0  0  0  0  0  0  0  0  0  0
  188.0470  177.9680  143.8000 C   0  0  0  0  0  3  0  0  0  0  0  0
  192.6600  175.9940  147.2200 N   0  0  0  0  0  2  0  0  0  0  0  0
  186.6230  178.1620  145.9200 C   0  0  0  0  0  0  0  0  0  0  0  0
  191.3310  176.6550  145.1680 C   0  0  0  0  0  2  0  0  0  0  0  0
  189.4540  177.5100  143.5910 C   0  0  0  0  0  0  0  0  0  0  0  0
  190.1550  177.5000  142.2950 C   0  0  0  0  0  0  0  0  0  0  0  0
  191.3910  177.7440  142.2380 O   0  0  0  0  0  0  0  0  0  0  0  0
  189.3910  177.2280  141.0350 C   0  0  1  0  0  3  0  0  0  0  0  0
  188.3960  178.3470  140.7840 C   0  0  0  0  0  1  0  0  0  0  0  0
  190.3420  177.0880  139.8580 C   0  0  0  0  0  2  0  0  0  0  0  0
  189.8760  177.8980  138.7330 N   0  0  0  0  0  2  0  0  0  0  0  0
  189.2100  177.8930  136.3650 C   0  0  0  0  0  1  0  0  0  0  0  0
  189.6260  177.0520  137.5630 C   0  0  0  0  0  0  0  0  0  0  0  0
  188.6360  176.1070  137.8430 O   0  0  0  0  0  1  0  0  0  0  0  0
  190.9060  176.3230  137.2090 C   0  0  0  0  0  1  0  0  0  0  0  0
  192.8710  175.8020  148.6470 C   0  0  0  0  0  2  0  0  0  0  0  0
  194.1400  177.0340  150.3980 C   0  0  0  0  0  1  0  0  0  0  0  0
  193.0700  177.1430  149.3280 C   0  0  0  0  0  2  0  0  0  0  0  0
  185.3540  178.6330  145.2980 C   0  0  0  0  0  2  0  0  0  0  0  0
  185.3610  178.3240  143.8780 N   0  0  0  0  0  2  0  0  0  0  0  0
  184.2520  178.1380  141.6810 N   0  0  0  0  0  2  0  0  0  0  0  0
  184.2160  178.5400  143.0540 C   0  0  0  0  0  0  0  0  0  0  0  0
  183.1780  179.0720  143.5340 O   0  0  0  0  0  0  0  0  0  0  0  0
  183.1350  178.3580  140.7740 C   0  0  0  0  0  2  0  0  0  0  0  0
  184.8970  179.1860  139.2690 O   0  0  0  0  0  0  0  0  0  0  0  0
  183.5400  179.3270  139.6600 C   0  0  1  0  0  3  0  0  0  0  0  0
  182.5840  179.2740  138.4610 C   0  0  0  0  0  2  0  0  0  0  0  0
  182.8240  178.0150  137.6370 C   0  0  0  0  0  2  0  0  0  0  0  0
  184.3080  177.8640  137.3320 C   0  0  0  0  0  2  0  0  0  0  0  0
  185.0840  177.9340  138.6440 C   0  0  0  0  0  2  0  0  0  0  0  0
  1 10  1  0  0  0  0
  1  4  2  0  0  0  0
  2  4  1  0  0  0  0
  2  7  1  0  0  0  0
  3  7  1  0  0  0  0
  5  2  2  0  0  0  0
  6  5  1  0  0  0  0
  6 11  1  0  0  0  0
  8 12  1  0  0  0  0
  8  5  1  0  0  0  0
  9  6  2  0  0  0  0
 10 24  1  0  0  0  0
 11  3  2  0  0  0  0
 12  1  1  0  0  0  0
 13  9  1  0  0  0  0
 13  8  2  0  0  0  0
 14 13  1  0  0  0  0
 15 14  2  0  0  0  0
 16 17  1  6  0  0  0
 16 14  1  0  0  0  0
 18 16  1  0  0  0  0
 19 18  1  0  0  0  0
 20 21  1  0  0  0  0
 21 22  1  0  0  0  0
 21 19  1  0  0  0  0
 23 21  1  0  0  0  0
 24 26  1  0  0  0  0
 26 25  1  0  0  0  0
 27 11  1  0  0  0  0
 28 27  1  0  0  0  0
 29 30  1  0  0  0  0
 30 31  2  0  0  0  0
 30 28  1  0  0  0  0
 32 29  1  0  0  0  0
 33 34  1  0  0  0  0
 34 32  1  1  0  0  0
 35 34  1  0  0  0  0
 36 35  1  0  0  0  0
 37 36  1  0  0  0  0
 37 38  1  0  0  0  0
 38 33  1  0  0  0  0
M  END
>  <MODEL>
3

>  <REMARK>
 VINA RESULT:      -7.6      2.730      6.022
  Name = 
  11 active torsions:
  status: ('A' for Active; 'I' for Inactive)
    1  A    between atoms: C_1  and  C_6
    2  A    between atoms: C_1  and  C_36
    3  A    between atoms: N_4  and  C_38
    4  A    between atoms: C_6  and  C_10
    5  A    between atoms: C_7  and  C_22
    6  A    between atoms: N_9  and  C_10
    7  A    between atoms: N_9  and  C_11
    8  A    between atoms: N_12  and  C_22
    9  A    between atoms: N_28  and  C_34
   10  A    between atoms: C_30  and  C_38
   11  A    between atoms: C_34  and  C_37
                            x       y       z     vdW  Elec       q    Type
                         _______ _______ _______ _____ _____    ______ ____

>  <TORSDO>
F 11

$$$$
=
 OpenBabel11042409573D

 38 41  0  0  1  0  0  0  0  0999 V2000
  192.3380  176.3950  137.8850 C   0  0  0  0  0  0  0  0  0  0  0  0
  190.1620  177.0210  137.0120 C   0  0  0  0  0  0  0  0  0  0  0  0
  187.8090  177.6710  136.2320 C   0  0  0  0  0  3  0  0  0  0  0  0
  191.5090  176.5330  136.8700 N   0  0  0  0  0  0  0  0  0  0  0  0
  189.7490  177.3410  138.2160 C   0  0  0  0  0  0  0  0  0  0  0  0
  188.4490  177.7860  138.5570 C   0  0  0  0  0  0  0  0  0  0  0  0
  189.1970  177.1420  135.8460 C   0  0  0  0  0  3  0  0  0  0  0  0
  190.5260  177.2270  139.3900 C   0  0  0  0  0  0  0  0  0  0  0  0
  188.3900  177.9480  139.8810 C   0  0  0  0  0  3  0  0  0  0  0  0
  193.6590  175.9030  137.6600 N   0  0  0  0  0  2  0  0  0  0  0  0
  187.4470  177.9580  137.5000 C   0  0  0  0  0  0  0  0  0  0  0  0
  191.9410  176.7370  139.3230 C   0  0  0  0  0  3  0  0  0  0  0  0
  189.7390  177.5840  140.4100 C   0  0  0  0  0  0  0  0  0  0  0  0
  190.1170  177.5880  141.8340 C   0  0  0  0  0  0  0  0  0  0  0  0
  191.3250  177.7160  142.1720 O   0  0  0  0  0  0  0  0  0  0  0  0
  189.0650  177.4090  142.8860 C   0  0  1  0  0  3  0  0  0  0  0  0
  188.7660  175.9310  143.0690 C   0  0  0  0  0  1  0  0  0  0  0  0
  189.5180  178.0260  144.1990 C   0  0  0  0  0  2  0  0  0  0  0  0
  189.6410  176.9930  145.2260 N   0  0  0  0  0  2  0  0  0  0  0  0
  190.9550  176.7950  147.2970 C   0  0  0  0  0  1  0  0  0  0  0  0
  190.9950  176.9910  145.7890 C   0  0  0  0  0  0  0  0  0  0  0  0
  191.6540  178.1840  145.4850 O   0  0  0  0  0  1  0  0  0  0  0  0
  191.7700  175.8400  145.1810 C   0  0  0  0  0  1  0  0  0  0  0  0
  194.1340  175.5110  136.3420 C   0  0  0  0  0  2  0  0  0  0  0  0
  194.7500  173.6160  137.8310 C   0  0  0  0  0  1  0  0  0  0  0  0
  194.8180  174.1600  136.4160 C   0  0  0  0  0  2  0  0  0  0  0  0
  186.0850  178.4820  137.7980 C   0  0  0  0  0  2  0  0  0  0  0  0
  185.5800  177.8680  139.0150 N   0  0  0  0  0  2  0  0  0  0  0  0
  184.4170  177.9710  141.1890 N   0  0  0  0  0  2  0  0  0  0  0  0
  184.8160  178.6050  139.9690 C   0  0  0  0  0  0  0  0  0  0  0  0
  184.5030  179.8050  139.7440 O   0  0  0  0  0  0  0  0  0  0  0  0
  183.6090  178.6490  142.1920 C   0  0  0  0  0  2  0  0  0  0  0  0
  183.8180  180.0490  144.2040 O   0  0  0  0  0  0  0  0  0  0  0  0
  184.4880  179.5590  143.0530 C   0  0  1  0  0  3  0  0  0  0  0  0
  185.8360  178.9150  143.4000 C   0  0  0  0  0  2  0  0  0  0  0  0
  185.6620  177.8440  144.4710 C   0  0  0  0  0  2  0  0  0  0  0  0
  184.8520  178.3970  145.6360 C   0  0  0  0  0  2  0  0  0  0  0  0
  183.5530  178.9810  145.0900 C   0  0  0  0  0  2  0  0  0  0  0  0
  1 12  1  0  0  0  0
  2  5  1  0  0  0  0
  3 11  2  0  0  0  0
  4  2  1  0  0  0  0
  4  1  2  0  0  0  0
  5  6  2  0  0  0  0
  5  8  1  0  0  0  0
  6  9  1  0  0  0  0
  7  3  1  0  0  0  0
  7  2  2  0  0  0  0
  8 13  1  0  0  0  0
  9 13  2  0  0  0  0
 10  1  1  0  0  0  0
 11 27  1  0  0  0  0
 11  6  1  0  0  0  0
 12  8  2  0  0  0  0
 13 14  1  0  0  0  0
 14 15  2  0  0  0  0
 14 16  1  0  0  0  0
 16 17  1  1  0  0  0
 16 18  1  0  0  0  0
 18 19  1  0  0  0  0
 19 21  1  0  0  0  0
 21 20  1  0  0  0  0
 22 21  1  0  0  0  0
 23 21  1  0  0  0  0
 24 26  1  0  0  0  0
 24 10  1  0  0  0  0
 26 25  1  0  0  0  0
 27 28  1  0  0  0  0
 28 30  1  0  0  0  0
 29 32  1  0  0  0  0
 30 29  1  0  0  0  0
 31 30  2  0  0  0  0
 33 38  1  0  0  0  0
 34 32  1  1  0  0  0
 34 35  1  0  0  0  0
 34 33  1  0  0  0  0
 35 36  1  0  0  0  0
 36 37  1  0  0  0  0
 38 37  1  0  0  0  0
M  END
>  <MODEL>
4

>  <REMARK>
 VINA RESULT:      -7.4      3.050      7.361
  Name = 
  11 active torsions:
  status: ('A' for Active; 'I' for Inactive)
    1  A    between atoms: C_1  and  C_6
    2  A    between atoms: C_1  and  C_36
    3  A    between atoms: N_4  and  C_38
    4  A    between atoms: C_6  and  C_10
    5  A    between atoms: C_7  and  C_22
    6  A    between atoms: N_9  and  C_10
    7  A    between atoms: N_9  and  C_11
    8  A    between atoms: N_12  and  C_22
    9  A    between atoms: N_28  and  C_34
   10  A    between atoms: C_30  and  C_38
   11  A    between atoms: C_34  and  C_37
                            x       y       z     vdW  Elec       q    Type
                         _______ _______ _______ _____ _____    ______ ____

>  <TORSDO>
F 11

$$$$
=
 OpenBabel11042409573D

 38 41  0  0  1  0  0  0  0  0999 V2000
  187.3090  177.6580  145.1490 C   0  0  0  0  0  0  0  0  0  0  0  0
  189.1450  177.3230  143.5980 C   0  0  0  0  0  0  0  0  0  0  0  0
  190.9820  176.9680  141.8460 C   0  0  0  0  0  3  0  0  0  0  0  0
  188.5560  177.3040  144.9110 N   0  0  0  0  0  0  0  0  0  0  0  0
  188.3950  177.7140  142.5950 C   0  0  0  0  0  0  0  0  0  0  0  0
  188.7810  177.7490  141.2320 C   0  0  0  0  0  0  0  0  0  0  0  0
  190.5700  176.8780  143.3220 C   0  0  0  0  0  2  0  0  0  0  0  0
  187.0420  178.1040  142.7050 C   0  0  0  0  0  0  0  0  0  0  0  0
  187.7330  178.1380  140.5040 C   0  0  0  0  0  3  0  0  0  0  0  0
  186.8000  177.6100  146.4820 N   0  0  0  0  0  2  0  0  0  0  0  0
  190.1460  177.3590  140.8620 C   0  0  0  0  0  0  0  0  0  0  0  0
  186.3610  178.1210  144.0400 C   0  0  0  0  0  2  0  0  0  0  0  0
  186.6130  178.3650  141.4670 C   0  0  0  0  0  0  0  0  0  0  0  0
  185.2480  178.7770  141.0930 C   0  0  0  0  0  0  0  0  0  0  0  0
  185.0640  179.8140  140.3990 O   0  0  0  0  0  0  0  0  0  0  0  0
  184.0720  177.9770  141.5610 C   0  0  1  0  0  3  0  0  0  0  0  0
  183.2260  178.8110  142.5070 C   0  0  0  0  0  1  0  0  0  0  0  0
  183.2420  177.5100  140.3770 C   0  0  0  0  0  2  0  0  0  0  0  0
  182.0560  178.3520  140.2280 N   0  0  0  0  0  2  0  0  0  0  0  0
  180.5250  178.3180  138.3030 C   0  0  0  0  0  1  0  0  0  0  0  0
  181.8860  178.7510  138.8280 C   0  0  0  0  0  0  0  0  0  0  0  0
  182.8950  178.2010  138.0340 O   0  0  0  0  0  1  0  0  0  0  0  0
  181.9690  180.2610  138.7410 C   0  0  0  0  0  1  0  0  0  0  0  0
  187.5990  177.1520  147.6080 C   0  0  0  0  0  2  0  0  0  0  0  0
  189.5910  178.3940  148.4340 C   0  0  0  0  0  1  0  0  0  0  0  0
  188.0740  178.3390  148.4240 C   0  0  0  0  0  2  0  0  0  0  0  0
  190.6200  177.4360  139.4530 C   0  0  0  0  0  2  0  0  0  0  0  0
  191.9850  176.9430  139.3680 N   0  0  0  0  0  2  0  0  0  0  0  0
  193.8340  175.8370  138.1630 N   0  0  0  0  0  2  0  0  0  0  0  0
  192.5110  176.3840  138.1640 C   0  0  0  0  0  0  0  0  0  0  0  0
  191.8130  176.3650  137.1140 O   0  0  0  0  0  0  0  0  0  0  0  0
  194.4470  175.2830  136.9650 C   0  0  0  0  0  2  0  0  0  0  0  0
  195.9120  173.4270  136.2870 O   0  0  0  0  0  0  0  0  0  0  0  0
  194.9570  173.8660  137.2390 C   0  0  1  0  0  3  0  0  0  0  0  0
  195.4540  173.6900  138.6800 C   0  0  0  0  0  2  0  0  0  0  0  0
  196.8110  174.3590  138.8660 C   0  0  0  0  0  2  0  0  0  0  0  0
  197.7630  173.9270  137.7600 C   0  0  0  0  0  2  0  0  0  0  0  0
  197.0950  174.1880  136.4140 C   0  0  0  0  0  2  0  0  0  0  0  0
  1 10  1  0  0  0  0
  2  4  1  0  0  0  0
  3  7  1  0  0  0  0
  4  1  2  0  0  0  0
  5  8  1  0  0  0  0
  5  2  2  0  0  0  0
  6  5  1  0  0  0  0
  7  2  1  0  0  0  0
  8 12  1  0  0  0  0
  9  6  2  0  0  0  0
  9 13  1  0  0  0  0
 10 24  1  0  0  0  0
 11  6  1  0  0  0  0
 11  3  2  0  0  0  0
 12  1  1  0  0  0  0
 13  8  2  0  0  0  0
 14 13  1  0  0  0  0
 14 16  1  0  0  0  0
 15 14  2  0  0  0  0
 16 17  1  1  0  0  0
 18 16  1  0  0  0  0
 19 18  1  0  0  0  0
 20 21  1  0  0  0  0
 21 19  1  0  0  0  0
 22 21  1  0  0  0  0
 23 21  1  0  0  0  0
 24 26  1  0  0  0  0
 26 25  1  0  0  0  0
 27 11  1  0  0  0  0
 28 27  1  0  0  0  0
 29 30  1  0  0  0  0
 30 28  1  0  0  0  0
 31 30  2  0  0  0  0
 32 29  1  0  0  0  0
 33 38  1  0  0  0  0
 33 34  1  0  0  0  0
 34 32  1  6  0  0  0
 34 35  1  0  0  0  0
 35 36  1  0  0  0  0
 37 36  1  0  0  0  0
 38 37  1  0  0  0  0
M  END
>  <MODEL>
5

>  <REMARK>
 VINA RESULT:      -7.4      3.773      6.054
  Name = 
  11 active torsions:
  status: ('A' for Active; 'I' for Inactive)
    1  A    between atoms: C_1  and  C_6
    2  A    between atoms: C_1  and  C_36
    3  A    between atoms: N_4  and  C_38
    4  A    between atoms: C_6  and  C_10
    5  A    between atoms: C_7  and  C_22
    6  A    between atoms: N_9  and  C_10
    7  A    between atoms: N_9  and  C_11
    8  A    between atoms: N_12  and  C_22
    9  A    between atoms: N_28  and  C_34
   10  A    between atoms: C_30  and  C_38
   11  A    between atoms: C_34  and  C_37
                            x       y       z     vdW  Elec       q    Type
                         _______ _______ _______ _____ _____    ______ ____

>  <TORSDO>
F 11

$$$$
=
 OpenBabel11042409573D

 38 41  0  0  1  0  0  0  0  0999 V2000
  186.8110  178.6260  140.3960 C   0  0  0  0  0  0  0  0  0  0  0  0
  188.5240  177.7650  138.9090 C   0  0  0  0  0  0  0  0  0  0  0  0
  190.4360  176.8910  137.4440 C   0  0  0  0  0  3  0  0  0  0  0  0
  187.2050  178.2690  139.1910 N   0  0  0  0  0  0  0  0  0  0  0  0
  189.3680  177.6610  139.9080 C   0  0  0  0  0  0  0  0  0  0  0  0
  190.7160  177.2380  139.8160 C   0  0  0  0  0  0  0  0  0  0  0  0
  188.9860  177.3900  137.5120 C   0  0  0  0  0  3  0  0  0  0  0  0
  189.0830  178.0220  141.2430 C   0  0  0  0  0  0  0  0  0  0  0  0
  191.2710  177.3250  141.0270 C   0  0  0  0  0  3  0  0  0  0  0  0
  185.4850  179.1180  140.5930 N   0  0  0  0  0  2  0  0  0  0  0  0
  191.2550  176.8320  138.5140 C   0  0  0  0  0  0  0  0  0  0  0  0
  187.7290  178.5450  141.6180 C   0  0  0  0  0  3  0  0  0  0  0  0
  190.2060  177.8330  141.9430 C   0  0  0  0  0  0  0  0  0  0  0  0
  190.3880  178.1120  143.3790 C   0  0  0  0  0  0  0  0  0  0  0  0
  190.8090  179.2380  143.7600 O   0  0  0  0  0  0  0  0  0  0  0  0
  190.1010  177.0440  144.3880 C   0  0  1  0  0  3  0  0  0  0  0  0
  191.2960  176.8690  145.3080 C   0  0  0  0  0  1  0  0  0  0  0  0
  188.8590  177.3930  145.1920 C   0  0  0  0  0  2  0  0  0  0  0  0
  189.2370  177.9420  146.4930 N   0  0  0  0  0  2  0  0  0  0  0  0
  188.5310  178.2740  148.8260 C   0  0  0  0  0  1  0  0  0  0  0  0
  188.2660  177.5460  147.5170 C   0  0  0  0  0  0  0  0  0  0  0  0
  188.3100  176.1660  147.7270 O   0  0  0  0  0  1  0  0  0  0  0  0
  186.8780  177.9200  147.0390 C   0  0  0  0  0  1  0  0  0  0  0  0
  184.5390  179.2730  139.4990 C   0  0  0  0  0  2  0  0  0  0  0  0
  183.1770  178.3960  141.3880 C   0  0  0  0  0  1  0  0  0  0  0  0
  183.1350  178.9550  139.9780 C   0  0  0  0  0  2  0  0  0  0  0  0
  192.6470  176.3220  138.3750 C   0  0  0  0  0  2  0  0  0  0  0  0
  192.7110  175.3660  137.2810 N   0  0  0  0  0  2  0  0  0  0  0  0
  193.9580  174.0180  135.6330 N   0  0  0  0  0  2  0  0  0  0  0  0
  193.9550  174.8930  136.7650 C   0  0  0  0  0  0  0  0  0  0  0  0
  195.0410  175.2510  137.2970 O   0  0  0  0  0  0  0  0  0  0  0  0
  195.1850  173.4700  135.0740 C   0  0  0  0  0  2  0  0  0  0  0  0
  196.3830  171.3480  134.7340 O   0  0  0  0  0  0  0  0  0  0  0  0
  195.1560  171.9410  135.1300 C   0  0  1  0  0  3  0  0  0  0  0  0
  194.6720  171.4140  136.4870 C   0  0  0  0  0  2  0  0  0  0  0  0
  195.7590  171.5660  137.5440 C   0  0  0  0  0  2  0  0  0  0  0  0
  197.0750  171.0020  137.0250 C   0  0  0  0  0  2  0  0  0  0  0  0
  197.3860  171.6530  135.6810 C   0  0  0  0  0  2  0  0  0  0  0  0
  1 10  1  0  0  0  0
  1 12  1  0  0  0  0
  2  4  1  0  0  0  0
  2  5  1  0  0  0  0
  3  7  1  0  0  0  0
  3 11  2  0  0  0  0
  4  1  2  0  0  0  0
  5  8  1  0  0  0  0
  6  5  2  0  0  0  0
  6  9  1  0  0  0  0
  7  2  2  0  0  0  0
  8 12  2  0  0  0  0
  8 13  1  0  0  0  0
  9 13  2  0  0  0  0
 11  6  1  0  0  0  0
 13 14  1  0  0  0  0
 14 15  2  0  0  0  0
 14 16  1  0  0  0  0
 16 18  1  0  0  0  0
 16 17  1  1  0  0  0
 18 19  1  0  0  0  0
 19 21  1  0  0  0  0
 21 22  1  0  0  0  0
 21 20  1  0  0  0  0
 23 21  1  0  0  0  0
 24 26  1  0  0  0  0
 24 10  1  0  0  0  0
 26 25  1  0  0  0  0
 27 11  1  0  0  0  0
 28 27  1  0  0  0  0
 29 30  1  0  0  0  0
 30 28  1  0  0  0  0
 30 31  2  0  0  0  0
 32 29  1  0  0  0  0
 33 34  1  0  0  0  0
 33 38  1  0  0  0  0
 34 32  1  1  0  0  0
 34 35  1  0  0  0  0
 35 36  1  0  0  0  0
 37 36  1  0  0  0  0
 38 37  1  0  0  0  0
M  END
>  <MODEL>
6

>  <REMARK>
 VINA RESULT:      -7.3      4.814      8.270
  Name = 
  11 active torsions:
  status: ('A' for Active; 'I' for Inactive)
    1  A    between atoms: C_1  and  C_6
    2  A    between atoms: C_1  and  C_36
    3  A    between atoms: N_4  and  C_38
    4  A    between atoms: C_6  and  C_10
    5  A    between atoms: C_7  and  C_22
    6  A    between atoms: N_9  and  C_10
    7  A    between atoms: N_9  and  C_11
    8  A    between atoms: N_12  and  C_22
    9  A    between atoms: N_28  and  C_34
   10  A    between atoms: C_30  and  C_38
   11  A    between atoms: C_34  and  C_37
                            x       y       z     vdW  Elec       q    Type
                         _______ _______ _______ _____ _____    ______ ____

>  <TORSDO>
F 11

$$$$
=
 OpenBabel11042409573D

 38 41  0  0  1  0  0  0  0  0999 V2000
  187.8590  177.4390  145.4430 C   0  0  0  0  0  0  0  0  0  0  0  0
  185.8470  178.1720  144.3020 C   0  0  0  0  0  0  0  0  0  0  0  0
  183.8080  178.9790  142.9760 C   0  0  0  0  0  3  0  0  0  0  0  0
  186.6010  177.8290  145.4800 N   0  0  0  0  0  0  0  0  0  0  0  0
  186.4510  178.0870  143.1400 C   0  0  0  0  0  0  0  0  0  0  0  0
  185.8910  178.4310  141.8860 C   0  0  0  0  0  0  0  0  0  0  0  0
  184.4090  178.6580  144.3510 C   0  0  0  0  0  2  0  0  0  0  0  0
  187.7970  177.7000  142.9590 C   0  0  0  0  0  0  0  0  0  0  0  0
  186.8270  178.2750  140.9470 C   0  0  0  0  0  3  0  0  0  0  0  0
  188.5380  177.1180  146.6580 N   0  0  0  0  0  2  0  0  0  0  0  0
  184.5000  178.8910  141.8210 C   0  0  0  0  0  0  0  0  0  0  0  0
  188.6440  177.3180  144.1360 C   0  0  0  0  0  2  0  0  0  0  0  0
  188.0560  177.8010  141.6530 C   0  0  0  0  0  0  0  0  0  0  0  0
  189.3510  177.5290  141.0030 C   0  0  0  0  0  0  0  0  0  0  0  0
  190.4190  177.5680  141.6720 O   0  0  0  0  0  0  0  0  0  0  0  0
  189.4020  177.2330  139.5360 C   0  0  1  0  0  3  0  0  0  0  0  0
  189.4400  178.5320  138.7490 C   0  0  0  0  0  1  0  0  0  0  0  0
  190.6150  176.3780  139.2090 C   0  0  0  0  0  2  0  0  0  0  0  0
  191.1160  176.7000  137.8730 N   0  0  0  0  0  2  0  0  0  0  0  0
  190.0050  174.6050  137.2210 C   0  0  0  0  0  1  0  0  0  0  0  0
  191.2370  175.4840  137.0650 C   0  0  0  0  0  0  0  0  0  0  0  0
  192.3780  174.7650  137.4290 O   0  0  0  0  0  1  0  0  0  0  0  0
  191.3570  175.8790  135.6080 C   0  0  0  0  0  1  0  0  0  0  0  0
  187.9020  177.2320  147.9620 C   0  0  0  0  0  2  0  0  0  0  0  0
  190.0960  178.2740  148.5030 C   0  0  0  0  0  1  0  0  0  0  0  0
  188.6070  178.2870  148.7930 C   0  0  0  0  0  2  0  0  0  0  0  0
  183.8460  179.2050  140.5210 C   0  0  0  0  0  2  0  0  0  0  0  0
  183.4870  177.9710  139.8420 N   0  0  0  0  0  2  0  0  0  0  0  0
  183.6160  176.4170  137.9290 N   0  0  0  0  0  2  0  0  0  0  0  0
  184.0700  177.6020  138.5920 C   0  0  0  0  0  0  0  0  0  0  0  0
  184.9680  178.3180  138.0720 O   0  0  0  0  0  0  0  0  0  0  0  0
  184.1870  175.9610  136.6700 C   0  0  0  0  0  2  0  0  0  0  0  0
  184.2940  174.0090  135.1770 O   0  0  0  0  0  0  0  0  0  0  0  0
  183.8180  174.4970  136.4210 C   0  0  1  0  0  3  0  0  0  0  0  0
  184.2160  173.5850  137.5890 C   0  0  0  0  0  2  0  0  0  0  0  0
  185.7210  173.3450  137.5970 C   0  0  0  0  0  2  0  0  0  0  0  0
  186.1890  172.9200  136.2120 C   0  0  0  0  0  2  0  0  0  0  0  0
  185.7050  173.9520  135.1970 C   0  0  0  0  0  2  0  0  0  0  0  0
  1  4  2  0  0  0  0
  1 10  1  0  0  0  0
  2  7  1  0  0  0  0
  2  4  1  0  0  0  0
  3  7  1  0  0  0  0
  5  2  2  0  0  0  0
  6  5  1  0  0  0  0
  8  5  1  0  0  0  0
  8 12  1  0  0  0  0
  9 13  1  0  0  0  0
  9  6  2  0  0  0  0
 10 24  1  0  0  0  0
 11  6  1  0  0  0  0
 11  3  2  0  0  0  0
 12  1  1  0  0  0  0
 13  8  2  0  0  0  0
 14 13  1  0  0  0  0
 14 15  2  0  0  0  0
 16 17  1  6  0  0  0
 16 14  1  0  0  0  0
 18 16  1  0  0  0  0
 19 18  1  0  0  0  0
 21 20  1  0  0  0  0
 21 22  1  0  0  0  0
 21 19  1  0  0  0  0
 23 21  1  0  0  0  0
 24 26  1  0  0  0  0
 25 26  1  0  0  0  0
 27 11  1  0  0  0  0
 28 27  1  0  0  0  0
 29 30  1  0  0  0  0
 30 28  1  0  0  0  0
 31 30  2  0  0  0  0
 32 29  1  0  0  0  0
 33 38  1  0  0  0  0
 33 34  1  0  0  0  0
 34 32  1  1  0  0  0
 34 35  1  0  0  0  0
 35 36  1  0  0  0  0
 37 36  1  0  0  0  0
 38 37  1  0  0  0  0
M  END
>  <MODEL>
7

>  <REMARK>
 VINA RESULT:      -7.1      2.449      5.266
  Name = 
  11 active torsions:
  status: ('A' for Active; 'I' for Inactive)
    1  A    between atoms: C_1  and  C_6
    2  A    between atoms: C_1  and  C_36
    3  A    between atoms: N_4  and  C_38
    4  A    between atoms: C_6  and  C_10
    5  A    between atoms: C_7  and  C_22
    6  A    between atoms: N_9  and  C_10
    7  A    between atoms: N_9  and  C_11
    8  A    between atoms: N_12  and  C_22
    9  A    between atoms: N_28  and  C_34
   10  A    between atoms: C_30  and  C_38
   11  A    between atoms: C_34  and  C_37
                            x       y       z     vdW  Elec       q    Type
                         _______ _______ _______ _____ _____    ______ ____

>  <TORSDO>
F 11

$$$$
=
 OpenBabel11042409573D

 38 41  0  0  1  0  0  0  0  0999 V2000
  188.4380  177.1220  145.6020 C   0  0  0  0  0  0  0  0  0  0  0  0
  186.6790  177.8240  144.0850 C   0  0  0  0  0  0  0  0  0  0  0  0
  184.9290  178.6000  142.3810 C   0  0  0  0  0  3  0  0  0  0  0  0
  187.1910  177.4900  145.3890 N   0  0  0  0  0  0  0  0  0  0  0  0
  187.5020  177.7540  143.0660 C   0  0  0  0  0  0  0  0  0  0  0  0
  187.1960  178.0920  141.7250 C   0  0  0  0  0  0  0  0  0  0  0  0
  185.2510  178.2840  143.8480 C   0  0  0  0  0  2  0  0  0  0  0  0
  188.8650  177.3900  143.1550 C   0  0  0  0  0  0  0  0  0  0  0  0
  188.3020  177.9560  140.9900 C   0  0  0  0  0  3  0  0  0  0  0  0
  188.8680  176.8090  146.9270 N   0  0  0  0  0  2  0  0  0  0  0  0
  185.8380  178.5280  141.3860 C   0  0  0  0  0  0  0  0  0  0  0  0
  189.4690  177.0200  144.4760 C   0  0  0  0  0  2  0  0  0  0  0  0
  189.3750  177.5010  141.9260 C   0  0  0  0  0  0  0  0  0  0  0  0
  190.7780  177.2540  141.5450 C   0  0  0  0  0  0  0  0  0  0  0  0
  191.6130  176.8720  142.4100 O   0  0  0  0  0  0  0  0  0  0  0  0
  191.2200  177.4840  140.1330 C   0  0  1  0  0  3  0  0  0  0  0  0
  192.7350  177.4180  140.0510 C   0  0  0  0  0  1  0  0  0  0  0  0
  190.5920  176.4570  139.2060 C   0  0  0  0  0  2  0  0  0  0  0  0
  190.7800  176.8530  137.8110 N   0  0  0  0  0  2  0  0  0  0  0  0
  189.1730  178.6750  137.4270 C   0  0  0  0  0  1  0  0  0  0  0  0
  189.4950  177.2060  137.2020 C   0  0  0  0  0  0  0  0  0  0  0  0
  188.4700  176.4130  137.7240 O   0  0  0  0  0  1  0  0  0  0  0  0
  189.5830  176.9620  135.7090 C   0  0  0  0  0  1  0  0  0  0  0  0
  187.9850  176.9070  148.0800 C   0  0  0  0  0  2  0  0  0  0  0  0
  189.7480  178.5110  148.7970 C   0  0  0  0  0  1  0  0  0  0  0  0
  188.2650  178.1880  148.8410 C   0  0  0  0  0  2  0  0  0  0  0  0
  185.4480  178.8350  139.9820 C   0  0  0  0  0  2  0  0  0  0  0  0
  184.0000  178.8180  139.8610 N   0  0  0  0  0  2  0  0  0  0  0  0
  181.8480  179.8690  139.2620 N   0  0  0  0  0  2  0  0  0  0  0  0
  183.2790  179.9040  139.2780 C   0  0  0  0  0  0  0  0  0  0  0  0
  183.8980  180.8880  138.7900 O   0  0  0  0  0  0  0  0  0  0  0  0
  181.0490  180.9230  138.6550 C   0  0  0  0  0  2  0  0  0  0  0  0
  179.2460  181.2590  137.0160 O   0  0  0  0  0  0  0  0  0  0  0  0
  179.8910  180.3180  137.8590 C   0  0  1  0  0  3  0  0  0  0  0  0
  180.3010  179.0490  137.1000 C   0  0  0  0  0  2  0  0  0  0  0  0
  181.1370  179.4010  135.8750 C   0  0  0  0  0  2  0  0  0  0  0  0
  180.4420  180.4850  135.0630 C   0  0  0  0  0  2  0  0  0  0  0  0
  180.1270  181.6580  135.9870 C   0  0  0  0  0  2  0  0  0  0  0  0
  1 10  1  0  0  0  0
  2  4  1  0  0  0  0
  3  7  1  0  0  0  0
  4  1  2  0  0  0  0
  5  8  1  0  0  0  0
  5  2  2  0  0  0  0
  6  5  1  0  0  0  0
  7  2  1  0  0  0  0
  8 12  1  0  0  0  0
  9  6  2  0  0  0  0
  9 13  1  0  0  0  0
 10 24  1  0  0  0  0
 11  6  1  0  0  0  0
 11  3  2  0  0  0  0
 12  1  1  0  0  0  0
 13  8  2  0  0  0  0
 14 13  1  0  0  0  0
 14 15  2  0  0  0  0
 16 17  1  1  0  0  0
 16 14  1  0  0  0  0
 18 16  1  0  0  0  0
 19 18  1  0  0  0  0
 21 20  1  0  0  0  0
 21 22  1  0  0  0  0
 21 19  1  0  0  0  0
 23 21  1  0  0  0  0
 24 26  1  0  0  0  0
 25 26  1  0  0  0  0
 27 11  1  0  0  0  0
 28 27  1  0  0  0  0
 29 30  1  0  0  0  0
 30 28  1  0  0  0  0
 31 30  2  0  0  0  0
 32 29  1  0  0  0  0
 33 34  1  0  0  0  0
 34 32  1  6  0  0  0
 35 34  1  0  0  0  0
 36 35  1  0  0  0  0
 37 36  1  0  0  0  0
 37 38  1  0  0  0  0
 38 33  1  0  0  0  0
M  END
>  <MODEL>
8

>  <REMARK>
 VINA RESULT:      -7.1      3.317      6.025
  Name = 
  11 active torsions:
  status: ('A' for Active; 'I' for Inactive)
    1  A    between atoms: C_1  and  C_6
    2  A    between atoms: C_1  and  C_36
    3  A    between atoms: N_4  and  C_38
    4  A    between atoms: C_6  and  C_10
    5  A    between atoms: C_7  and  C_22
    6  A    between atoms: N_9  and  C_10
    7  A    between atoms: N_9  and  C_11
    8  A    between atoms: N_12  and  C_22
    9  A    between atoms: N_28  and  C_34
   10  A    between atoms: C_30  and  C_38
   11  A    between atoms: C_34  and  C_37
                            x       y       z     vdW  Elec       q    Type
                         _______ _______ _______ _____ _____    ______ ____

>  <TORSDO>
F 11

$$$$
=
 OpenBabel11042409573D

 38 41  0  0  1  0  0  0  0  0999 V2000
  189.3810  177.1770  145.0160 C   0  0  0  0  0  0  0  0  0  0  0  0
  187.0730  177.8580  144.7020 C   0  0  0  0  0  0  0  0  0  0  0  0
  184.6740  178.6250  144.2290 C   0  0  0  0  0  3  0  0  0  0  0  0
  188.2000  177.4840  145.5150 N   0  0  0  0  0  0  0  0  0  0  0  0
  187.2400  177.8930  143.4000 C   0  0  0  0  0  0  0  0  0  0  0  0
  186.2680  178.2860  142.4480 C   0  0  0  0  0  0  0  0  0  0  0  0
  185.7250  178.2480  145.2820 C   0  0  0  0  0  2  0  0  0  0  0  0
  188.4530  177.6040  142.7360 C   0  0  0  0  0  0  0  0  0  0  0  0
  186.8250  178.2550  141.2360 C   0  0  0  0  0  3  0  0  0  0  0  0
  190.4490  176.8160  145.8920 N   0  0  0  0  0  2  0  0  0  0  0  0
  184.9250  178.6610  142.9040 C   0  0  0  0  0  0  0  0  0  0  0  0
  189.6680  177.1970  143.5130 C   0  0  0  0  0  2  0  0  0  0  0  0
  188.2390  177.8120  141.4340 C   0  0  0  0  0  0  0  0  0  0  0  0
  189.2370  177.6670  140.3590 C   0  0  0  0  0  0  0  0  0  0  0  0
  190.4680  177.7530  140.6180 O   0  0  0  0  0  0  0  0  0  0  0  0
  188.7870  177.4470  138.9470 C   0  0  1  0  0  3  0  0  0  0  0  0
  189.0580  178.6920  138.1200 C   0  0  0  0  0  1  0  0  0  0  0  0
  189.4960  176.2450  138.3460 C   0  0  0  0  0  2  0  0  0  0  0  0
  190.7070  176.6710  137.6450 N   0  0  0  0  0  2  0  0  0  0  0  0
  190.5030  174.9390  135.9100 C   0  0  0  0  0  1  0  0  0  0  0  0
  191.3660  175.5210  137.0190 C   0  0  0  0  0  0  0  0  0  0  0  0
  191.6410  174.5350  137.9700 O   0  0  0  0  0  1  0  0  0  0  0  0
  192.6740  175.9850  136.4100 C   0  0  0  0  0  1  0  0  0  0  0  0
  190.3010  176.7990  147.3390 C   0  0  0  0  0  2  0  0  0  0  0  0
  192.4960  175.6270  147.4060 C   0  0  0  0  0  1  0  0  0  0  0  0
  191.6660  176.7510  148.0000 C   0  0  0  0  0  2  0  0  0  0  0  0
  183.8500  179.0220  141.9390 C   0  0  0  0  0  2  0  0  0  0  0  0
  183.1300  177.8250  141.5380 N   0  0  0  0  0  2  0  0  0  0  0  0
  182.3280  176.2310  139.8320 N   0  0  0  0  0  2  0  0  0  0  0  0
  183.1240  177.3680  140.1850 C   0  0  0  0  0  0  0  0  0  0  0  0
  183.8050  177.9660  139.3080 O   0  0  0  0  0  0  0  0  0  0  0  0
  182.2990  175.6890  138.4820 C   0  0  0  0  0  2  0  0  0  0  0  0
  180.6780  174.9090  136.8040 O   0  0  0  0  0  0  0  0  0  0  0  0
  180.8840  175.7780  137.9060 C   0  0  1  0  0  3  0  0  0  0  0  0
  179.8020  175.6120  138.9820 C   0  0  0  0  0  2  0  0  0  0  0  0
  179.6830  174.1530  139.4060 C   0  0  0  0  0  2  0  0  0  0  0  0
  179.5650  173.2600  138.1780 C   0  0  0  0  0  2  0  0  0  0  0  0
  180.7290  173.5670  137.2400 C   0  0  0  0  0  2  0  0  0  0  0  0
  1  4  2  0  0  0  0
  1 10  1  0  0  0  0
  2  7  1  0  0  0  0
  2  4  1  0  0  0  0
  3  7  1  0  0  0  0
  5  2  2  0  0  0  0
  6 11  1  0  0  0  0
  6  5  1  0  0  0  0
  8  5  1  0  0  0  0
  8 12  1  0  0  0  0
  9 13  1  0  0  0  0
  9  6  2  0  0  0  0
 10 24  1  0  0  0  0
 11  3  2  0  0  0  0
 12  1  1  0  0  0  0
 13  8  2  0  0  0  0
 14 15  2  0  0  0  0
 14 13  1  0  0  0  0
 16 17  1  6  0  0  0
 16 14  1  0  0  0  0
 18 16  1  0  0  0  0
 19 18  1  0  0  0  0
 20 21  1  0  0  0  0
 21 19  1  0  0  0  0
 21 22  1  0  0  0  0
 23 21  1  0  0  0  0
 24 26  1  0  0  0  0
 25 26  1  0  0  0  0
 27 11  1  0  0  0  0
 28 27  1  0  0  0  0
 29 30  1  0  0  0  0
 30 28  1  0  0  0  0
 31 30  2  0  0  0  0
 32 29  1  0  0  0  0
 33 38  1  0  0  0  0
 33 34  1  0  0  0  0
 34 32  1  1  0  0  0
 34 35  1  0  0  0  0
 35 36  1  0  0  0  0
 37 36  1  0  0  0  0
 38 37  1  0  0  0  0
M  END
>  <MODEL>
9

>  <REMARK>
 VINA RESULT:      -7.0      2.472      5.456
  Name = 
  11 active torsions:
  status: ('A' for Active; 'I' for Inactive)
    1  A    between atoms: C_1  and  C_6
    2  A    between atoms: C_1  and  C_36
    3  A    between atoms: N_4  and  C_38
    4  A    between atoms: C_6  and  C_10
    5  A    between atoms: C_7  and  C_22
    6  A    between atoms: N_9  and  C_10
    7  A    between atoms: N_9  and  C_11
    8  A    between atoms: N_12  and  C_22
    9  A    between atoms: N_28  and  C_34
   10  A    between atoms: C_30  and  C_38
   11  A    between atoms: C_34  and  C_37
                            x       y       z     vdW  Elec       q    Type
                         _______ _______ _______ _____ _____    ______ ____

>  <TORSDO>
F 11

$$$$
