=
 OpenBabel11042411303D

 55 62  0  0  1  0  0  0  0  0999 V2000
  186.5270  178.4630  140.6580 C   0  0  0  0  0  3  0  0  0  0  0  0
  190.7420  176.7650  139.6500 C   0  0  0  0  0  2  0  0  0  0  0  0
  191.6860  176.8160  142.6270 O   0  0  0  0  0  1  0  0  0  0  0  0
  189.9930  177.3460  145.6580 C   0  0  0  0  0  3  0  0  0  0  0  0
  190.0460  177.1280  147.0430 C   0  0  0  0  0  3  0  0  0  0  0  0
  187.5770  177.5180  145.7780 C   0  0  0  0  0  0  0  0  0  0  0  0
  187.6300  177.2980  147.1500 C   0  0  0  0  0  3  0  0  0  0  0  0
  189.8530  178.2140  142.9420 N   0  0  0  0  0  2  0  0  0  0  0  0
  188.8620  177.1010  147.7840 C   0  0  0  0  0  3  0  0  0  0  0  0
  185.3180  178.4570  138.5000 C   0  0  0  0  0  3  0  0  0  0  0  0
  188.7600  177.5480  145.0210 C   0  0  0  0  0  0  0  0  0  0  0  0
  187.1950  176.7640  137.3400 C   0  0  0  0  0  0  0  0  0  0  0  0
  187.1820  177.7660  141.5850 C   0  0  0  0  0  3  0  0  0  0  0  0
  187.3420  177.1510  138.6770 C   0  0  0  0  0  3  0  0  0  0  0  0
  186.1590  178.0620  143.8900 C   0  0  0  0  0  0  0  0  0  0  0  0
  190.5540  177.4210  138.2890 C   0  0  0  0  0  2  0  0  0  0  0  0
  186.3150  177.7440  145.1410 N   0  0  0  0  0  0  0  0  0  0  0  0
  190.7220  177.8440  140.7130 C   0  0  0  0  0  2  0  0  0  0  0  0
  190.4660  177.2190  142.0730 C   0  0  1  0  0  3  0  0  0  0  0  0
  185.1830  178.0590  137.2040 N   0  0  0  0  0  0  0  0  0  0  0  0
  190.6010  176.4010  137.1610 C   0  0  1  0  0  3  0  0  0  0  0  0
  186.3920  178.0020  139.2720 C   0  0  0  0  0  0  0  0  0  0  0  0
  188.6640  177.5980  143.5200 C   0  0  1  0  0  3  0  0  0  0  0  0
  187.3850  178.2800  142.9880 C   0  0  1  0  0  3  0  0  0  0  0  0
  189.4100  176.6730  136.2390 C   0  0  0  0  0  2  0  0  0  0  0  0
  188.1940  175.8670  136.6890 C   0  0  0  0  0  2  0  0  0  0  0  0
  186.0930  177.2300  136.6150 C   0  0  0  0  0  3  0  0  0  0  0  0
  184.3840  178.1580  142.1410 C   0  0  0  0  0  3  0  0  0  0  0  0
  182.1670  179.0470  142.6020 C   0  0  0  0  0  0  0  0  0  0  0  0
  183.8590  178.9830  144.3550 C   0  0  0  0  0  3  0  0  0  0  0  0
  182.5640  179.2900  143.9280 C   0  0  0  0  0  3  0  0  0  0  0  0
  183.0890  178.4710  141.7150 C   0  0  0  0  0  3  0  0  0  0  0  0
  184.7900  178.4360  143.4600 C   0  0  0  0  0  0  0  0  0  0  0  0
  180.8360  179.3820  142.1600 N   0  0  0  0  0  0  0  0  0  0  0  0
  180.0510  180.3790  142.8470 C   0  0  0  0  0  1  0  0  0  0  0  0
  180.2200  178.6900  141.0380 C   0  0  0  0  0  1  0  0  0  0  0  0
  192.3520  175.2670  135.2680 S   0  0  0  0  0  0  0  0  0  0  0  0
  191.9330  176.6000  136.4400 C   0  0  2  0  0  3  0  0  0  0  0  0
  193.6170  175.3910  136.5720 C   0  0  2  0  0  0  0  0  0  0  0  0
  193.0060  176.4130  137.3290 O   0  0  0  0  0  0  0  0  0  0  0  0
  194.8220  175.8390  136.0520 F   0  0  0  0  0  0  0  0  0  0  0  0
  195.2640  172.9640  139.1460 O   0  0  0  0  0  0  0  0  0  0  0  0
  193.7770  174.0800  137.3860 C   0  0  1  0  0  0  0  0  0  0  0  0
  195.6070  175.2900  138.7030 O   0  0  0  0  0  1  0  0  0  0  0  0
  194.8490  174.1420  138.4780 C   0  0  1  0  0  0  0  0  0  0  0  0
  195.6420  173.0510  137.7970 C   0  0  2  0  0  0  0  0  0  0  0  0
  192.5690  173.6620  137.9650 O   0  0  0  0  0  1  0  0  0  0  0  0
  194.5260  172.8830  136.7540 C   0  0  2  0  0  3  0  0  0  0  0  0
  197.4000  174.7830  137.2030 N   0  0  0  0  0  2  0  0  0  0  0  0
  198.6460  175.1480  136.8440 O   0  0  0  0  0  1  0  0  0  0  0  0
  197.0840  173.4280  137.5270 C   0  0  0  0  0  0  0  0  0  0  0  0
  197.9930  172.5600  137.5260 O   0  0  0  0  0  0  0  0  0  0  0  0
  194.9720  172.9120  135.3030 C   0  0  0  0  0  0  0  0  0  0  0  0
  194.9310  171.8620  134.5940 O   0  0  0  0  0  0  0  0  0  0  0  0
  195.6340  174.0450  134.8040 O   0  0  0  0  0  1  0  0  0  0  0  0
  1 13  2  0  0  0  0
  2 18  1  0  0  0  0
  4  5  1  0  0  0  0
  5  9  2  0  0  0  0
  6  7  2  0  0  0  0
  7  9  1  0  0  0  0
 10 22  1  0  0  0  0
 11  4  2  0  0  0  0
 11  6  1  0  0  0  0
 12 14  1  0  0  0  0
 14 22  2  0  0  0  0
 15 17  2  0  0  0  0
 16  2  1  0  0  0  0
 17  6  1  0  0  0  0
 18 19  1  0  0  0  0
 19  3  1  1  0  0  0
 19  8  1  0  0  0  0
 20 10  2  0  0  0  0
 21 25  1  6  0  0  0
 21 16  1  0  0  0  0
 22  1  1  0  0  0  0
 23  8  1  6  0  0  0
 23 11  1  0  0  0  0
 24 13  1  6  0  0  0
 24 23  1  0  0  0  0
 24 15  1  0  0  0  0
 25 26  1  0  0  0  0
 26 12  1  0  0  0  0
 27 20  1  0  0  0  0
 27 12  2  0  0  0  0
 28 33  1  0  0  0  0
 29 31  2  0  0  0  0
 31 30  1  0  0  0  0
 32 28  2  0  0  0  0
 32 29  1  0  0  0  0
 33 15  1  0  0  0  0
 33 30  2  0  0  0  0
 34 29  1  0  0  0  0
 34 35  1  0  0  0  0
 36 34  1  0  0  0  0
 37 39  1  0  0  0  0
 38 37  1  6  0  0  0
 38 21  1  0  0  0  0
 38 40  1  0  0  0  0
 39 41  1  6  0  0  0
 39 40  1  0  0  0  0
 39 43  1  0  0  0  0
 43 47  1  1  0  0  0
 43 45  1  0  0  0  0
 45 44  1  1  0  0  0
 45 42  1  0  0  0  0
 46 51  1  6  0  0  0
 46 45  1  0  0  0  0
 46 42  1  0  0  0  0
 48 53  1  6  0  0  0
 48 43  1  0  0  0  0
 48 46  1  0  0  0  0
 49 51  1  0  0  0  0
 50 49  1  0  0  0  0
 52 51  2  0  0  0  0
 54 53  2  0  0  0  0
 55 53  1  0  0  0  0
M  END
>  <MODEL>
1

>  <REMARK>
 VINA RESULT:     -11.3      0.000      0.000
  Name = 
  6 active torsions:
  status: ('A' for Active; 'I' for Inactive)
    1  A    between atoms: C_1  and  C_53
    2  A    between atoms: C_6  and  C_20
    3  A    between atoms: C_8  and  C_43
    4  A    between atoms: N_10  and  C_32
    5  A    between atoms: C_29  and  C_38
    6  A    between atoms: C_33  and  C_52
                            x       y       z     vdW  Elec       q    Type
                         _______ _______ _______ _____ _____    ______ ____

>  <TORSDO>
F 6

$$$$
=
 OpenBabel11042411303D

 55 62  0  0  1  0  0  0  0  0999 V2000
  185.2530  178.5200  140.2210 C   0  0  0  0  0  3  0  0  0  0  0  0
  189.2240  176.6990  138.6160 C   0  0  0  0  0  2  0  0  0  0  0  0
  190.6440  176.8560  141.3930 O   0  0  0  0  0  1  0  0  0  0  0  0
  189.4760  177.5460  144.6340 C   0  0  0  0  0  3  0  0  0  0  0  0
  189.7520  177.3850  145.9990 C   0  0  0  0  0  3  0  0  0  0  0  0
  187.1150  177.7700  145.1380 C   0  0  0  0  0  0  0  0  0  0  0  0
  187.3890  177.6070  146.4920 C   0  0  0  0  0  3  0  0  0  0  0  0
  188.9050  178.3020  141.9410 N   0  0  0  0  0  2  0  0  0  0  0  0
  188.7060  177.4130  146.9240 C   0  0  0  0  0  3  0  0  0  0  0  0
  183.7070  178.4480  138.2910 C   0  0  0  0  0  3  0  0  0  0  0  0
  188.1580  177.7450  144.1980 C   0  0  0  0  0  0  0  0  0  0  0  0
  185.3470  176.6700  136.9180 C   0  0  0  0  0  0  0  0  0  0  0  0
  186.0420  177.8500  141.0590 C   0  0  0  0  0  3  0  0  0  0  0  0
  185.7150  177.1110  138.1940 C   0  0  0  0  0  3  0  0  0  0  0  0
  185.4140  178.2620  143.4840 C   0  0  0  0  0  0  0  0  0  0  0  0
  188.8240  177.3010  137.2760 C   0  0  0  0  0  2  0  0  0  0  0  0
  185.7690  177.9940  144.7060 N   0  0  0  0  0  0  0  0  0  0  0  0
  189.3920  177.8220  139.6190 C   0  0  0  0  0  2  0  0  0  0  0  0
  189.3540  177.2600  141.0290 C   0  0  1  0  0  3  0  0  0  0  0  0
  183.3560  177.9980  137.0540 N   0  0  0  0  0  0  0  0  0  0  0  0
  188.6730  176.2340  136.2020 C   0  0  1  0  0  3  0  0  0  0  0  0
  184.8870  178.0040  138.8970 C   0  0  0  0  0  0  0  0  0  0  0  0
  187.8190  177.7340  142.7320 C   0  0  1  0  0  3  0  0  0  0  0  0
  186.4780  178.4180  142.3850 C   0  0  1  0  0  3  0  0  0  0  0  0
  187.3500  176.4910  135.4750 C   0  0  0  0  0  2  0  0  0  0  0  0
  186.2150  175.7280  136.1530 C   0  0  0  0  0  2  0  0  0  0  0  0
  184.1470  177.1280  136.3620 C   0  0  0  0  0  3  0  0  0  0  0  0
  183.3430  178.2200  142.0950 C   0  0  0  0  0  3  0  0  0  0  0  0
  181.2760  179.2680  142.8310 C   0  0  0  0  0  0  0  0  0  0  0  0
  183.2660  179.3460  144.2360 C   0  0  0  0  0  3  0  0  0  0  0  0
  181.9210  179.6590  144.0170 C   0  0  0  0  0  3  0  0  0  0  0  0
  181.9990  178.5390  141.8760 C   0  0  0  0  0  3  0  0  0  0  0  0
  183.9970  178.6440  143.2670 C   0  0  0  0  0  0  0  0  0  0  0  0
  179.8930  179.6080  142.6020 N   0  0  0  0  0  0  0  0  0  0  0  0
  179.4000  179.8680  141.2700 C   0  0  0  0  0  1  0  0  0  0  0  0
  178.9590  179.7490  143.7090 C   0  0  0  0  0  1  0  0  0  0  0  0
  190.5550  174.7890  134.6840 S   0  0  0  0  0  0  0  0  0  0  0  0
  189.8710  176.3770  135.2650 C   0  0  2  0  0  3  0  0  0  0  0  0
  191.8120  175.7240  135.6130 C   0  0  2  0  0  0  0  0  0  0  0  0
  191.0010  176.8190  135.9760 O   0  0  0  0  0  0  0  0  0  0  0  0
  192.8350  176.1450  134.7770 F   0  0  0  0  0  0  0  0  0  0  0  0
  194.1140  175.0760  138.6970 O   0  0  0  0  0  0  0  0  0  0  0  0
  192.3420  174.9560  136.8530 C   0  0  1  0  0  0  0  0  0  0  0  0
  193.7960  177.0090  137.3220 O   0  0  0  0  0  1  0  0  0  0  0  0
  193.3780  175.7270  137.6770 C   0  0  1  0  0  0  0  0  0  0  0  0
  194.4260  174.6780  137.3870 C   0  0  2  0  0  0  0  0  0  0  0  0
  191.3070  174.5420  137.7050 O   0  0  0  0  0  1  0  0  0  0  0  0
  193.3780  173.8240  136.6570 C   0  0  2  0  0  3  0  0  0  0  0  0
  196.9540  174.8990  137.3990 N   0  0  0  0  0  2  0  0  0  0  0  0
  198.1070  175.4620  136.9880 O   0  0  0  0  0  1  0  0  0  0  0  0
  195.7040  175.2420  136.8000 C   0  0  0  0  0  0  0  0  0  0  0  0
  195.6740  176.0490  135.8380 O   0  0  0  0  0  0  0  0  0  0  0  0
  193.7690  173.3480  135.2680 C   0  0  0  0  0  0  0  0  0  0  0  0
  194.6410  173.9740  134.5940 O   0  0  0  0  0  0  0  0  0  0  0  0
  193.0120  172.3460  134.6410 O   0  0  0  0  0  1  0  0  0  0  0  0
  1 13  2  0  0  0  0
  2 18  1  0  0  0  0
  4  5  1  0  0  0  0
  5  9  2  0  0  0  0
  6  7  2  0  0  0  0
  7  9  1  0  0  0  0
 10 22  1  0  0  0  0
 11  4  2  0  0  0  0
 11  6  1  0  0  0  0
 12 14  1  0  0  0  0
 14 22  2  0  0  0  0
 15 17  2  0  0  0  0
 16  2  1  0  0  0  0
 17  6  1  0  0  0  0
 18 19  1  0  0  0  0
 19  3  1  1  0  0  0
 19  8  1  0  0  0  0
 20 10  2  0  0  0  0
 21 25  1  6  0  0  0
 21 16  1  0  0  0  0
 22  1  1  0  0  0  0
 23  8  1  6  0  0  0
 23 11  1  0  0  0  0
 24 13  1  6  0  0  0
 24 23  1  0  0  0  0
 24 15  1  0  0  0  0
 25 26  1  0  0  0  0
 26 12  1  0  0  0  0
 27 12  2  0  0  0  0
 27 20  1  0  0  0  0
 28 33  1  0  0  0  0
 29 31  2  0  0  0  0
 31 30  1  0  0  0  0
 32 28  2  0  0  0  0
 32 29  1  0  0  0  0
 33 15  1  0  0  0  0
 33 30  2  0  0  0  0
 34 29  1  0  0  0  0
 34 36  1  0  0  0  0
 35 34  1  0  0  0  0
 37 39  1  0  0  0  0
 38 37  1  1  0  0  0
 38 40  1  0  0  0  0
 38 21  1  0  0  0  0
 39 41  1  6  0  0  0
 39 40  1  0  0  0  0
 39 43  1  0  0  0  0
 43 45  1  0  0  0  0
 43 47  1  1  0  0  0
 45 44  1  6  0  0  0
 45 42  1  0  0  0  0
 46 51  1  6  0  0  0
 46 45  1  0  0  0  0
 46 42  1  0  0  0  0
 48 53  1  6  0  0  0
 48 43  1  0  0  0  0
 48 46  1  0  0  0  0
 50 49  1  0  0  0  0
 51 49  1  0  0  0  0
 52 51  2  0  0  0  0
 54 53  2  0  0  0  0
 55 53  1  0  0  0  0
M  END
>  <MODEL>
2

>  <REMARK>
 VINA RESULT:     -11.3      1.387      1.817
  Name = 
  6 active torsions:
  status: ('A' for Active; 'I' for Inactive)
    1  A    between atoms: C_1  and  C_53
    2  A    between atoms: C_6  and  C_20
    3  A    between atoms: C_8  and  C_43
    4  A    between atoms: N_10  and  C_32
    5  A    between atoms: C_29  and  C_38
    6  A    between atoms: C_33  and  C_52
                            x       y       z     vdW  Elec       q    Type
                         _______ _______ _______ _____ _____    ______ ____

>  <TORSDO>
F 6

$$$$
=
 OpenBabel11042411303D

 55 62  0  0  1  0  0  0  0  0999 V2000
  185.4890  178.1770  138.2550 C   0  0  0  0  0  3  0  0  0  0  0  0
  189.7440  177.0420  139.7620 C   0  0  0  0  0  2  0  0  0  0  0  0
  189.1400  177.8980  142.7050 O   0  0  0  0  0  1  0  0  0  0  0  0
  186.1770  178.7780  144.3730 C   0  0  0  0  0  3  0  0  0  0  0  0
  185.5690  178.8780  145.6330 C   0  0  0  0  0  3  0  0  0  0  0  0
  183.9960  178.5590  143.3380 C   0  0  0  0  0  0  0  0  0  0  0  0
  183.3930  178.6550  144.5880 C   0  0  0  0  0  3  0  0  0  0  0  0
  187.3180  178.9990  141.7660 N   0  0  0  0  0  2  0  0  0  0  0  0
  184.1770  178.8130  145.7360 C   0  0  0  0  0  3  0  0  0  0  0  0
  185.4660  177.4970  135.8770 C   0  0  0  0  0  3  0  0  0  0  0  0
  185.3930  178.6250  143.2200 C   0  0  0  0  0  0  0  0  0  0  0  0
  187.7460  175.9360  136.1990 C   0  0  0  0  0  0  0  0  0  0  0  0
  185.6500  177.8200  139.5290 C   0  0  0  0  0  3  0  0  0  0  0  0
  187.2140  176.6250  137.2960 C   0  0  0  0  0  3  0  0  0  0  0  0
  183.6340  178.4320  140.9450 C   0  0  0  0  0  0  0  0  0  0  0  0
  190.2020  177.3450  138.3420 C   0  0  0  0  0  2  0  0  0  0  0  0
  183.1850  178.4240  142.1660 N   0  0  0  0  0  0  0  0  0  0  0  0
  189.1660  178.3060  140.3640 C   0  0  0  0  0  2  0  0  0  0  0  0
  188.3180  177.9580  141.5740 C   0  0  1  0  0  3  0  0  0  0  0  0
  185.9880  176.8100  134.8230 N   0  0  0  0  0  0  0  0  0  0  0  0
  190.8320  176.1270  137.6820 C   0  0  1  0  0  3  0  0  0  0  0  0
  186.0580  177.4100  137.1420 C   0  0  0  0  0  0  0  0  0  0  0  0
  186.0280  178.3300  141.8880 C   0  0  1  0  0  3  0  0  0  0  0  0
  185.1310  178.6530  140.6720 C   0  0  1  0  0  3  0  0  0  0  0  0
  190.2180  175.9870  136.2870 C   0  0  0  0  0  2  0  0  0  0  0  0
  188.9750  175.1030  136.3400 C   0  0  0  0  0  2  0  0  0  0  0  0
  187.1070  176.0400  134.9580 C   0  0  0  0  0  3  0  0  0  0  0  0
  182.6230  179.5410  138.9530 C   0  0  0  0  0  3  0  0  0  0  0  0
  180.7770  178.5450  137.7230 C   0  0  0  0  0  0  0  0  0  0  0  0
  181.7190  177.4110  139.6620 C   0  0  0  0  0  3  0  0  0  0  0  0
  180.8030  177.4540  138.6080 C   0  0  0  0  0  3  0  0  0  0  0  0
  181.7020  179.5840  137.9020 C   0  0  0  0  0  3  0  0  0  0  0  0
  182.6230  178.4640  139.8600 C   0  0  0  0  0  0  0  0  0  0  0  0
  179.8180  178.5950  136.6470 N   0  0  0  0  0  0  0  0  0  0  0  0
  179.0260  179.7780  136.4060 C   0  0  0  0  0  1  0  0  0  0  0  0
  179.5800  177.4370  135.7980 C   0  0  0  0  0  1  0  0  0  0  0  0
  193.0660  176.1230  135.9660 S   0  0  0  0  0  0  0  0  0  0  0  0
  192.3360  176.3890  137.6160 C   0  0  2  0  0  3  0  0  0  0  0  0
  193.8260  175.0060  137.1880 C   0  0  2  0  0  0  0  0  0  0  0  0
  193.0400  175.3810  138.2970 O   0  0  0  0  0  0  0  0  0  0  0  0
  195.1530  175.3420  137.4080 F   0  0  0  0  0  0  0  0  0  0  0  0
  194.3830  171.1600  137.5380 O   0  0  0  0  0  0  0  0  0  0  0  0
  193.6470  173.5070  136.8280 C   0  0  1  0  0  0  0  0  0  0  0  0
  194.9300  172.9880  138.9810 O   0  0  0  0  0  1  0  0  0  0  0  0
  194.2660  172.5380  137.8400 C   0  0  1  0  0  0  0  0  0  0  0  0
  195.2160  172.0090  136.7910 C   0  0  2  0  0  0  0  0  0  0  0  0
  192.3010  173.1610  136.6390 O   0  0  0  0  0  1  0  0  0  0  0  0
  194.5350  172.8830  135.7260 C   0  0  2  0  0  3  0  0  0  0  0  0
  197.2760  173.3260  137.4700 N   0  0  0  0  0  2  0  0  0  0  0  0
  198.5930  173.4340  137.7330 O   0  0  0  0  0  1  0  0  0  0  0  0
  196.6710  172.0590  137.2090 C   0  0  0  0  0  0  0  0  0  0  0  0
  197.3640  171.0130  137.2720 O   0  0  0  0  0  0  0  0  0  0  0  0
  195.4650  173.7400  134.8860 C   0  0  0  0  0  0  0  0  0  0  0  0
  196.6340  173.3360  134.6010 O   0  0  0  0  0  0  0  0  0  0  0  0
  195.1180  175.0710  134.6060 O   0  0  0  0  0  1  0  0  0  0  0  0
  1 13  2  0  0  0  0
  2 18  1  0  0  0  0
  4  5  1  0  0  0  0
  5  9  2  0  0  0  0
  6  7  2  0  0  0  0
  7  9  1  0  0  0  0
 10 22  1  0  0  0  0
 11  6  1  0  0  0  0
 11  4  2  0  0  0  0
 12 26  1  0  0  0  0
 12 14  1  0  0  0  0
 15 17  2  0  0  0  0
 16  2  1  0  0  0  0
 17  6  1  0  0  0  0
 18 19  1  0  0  0  0
 19  8  1  0  0  0  0
 19  3  1  1  0  0  0
 20 27  1  0  0  0  0
 20 10  2  0  0  0  0
 21 25  1  6  0  0  0
 21 16  1  0  0  0  0
 22 14  2  0  0  0  0
 22  1  1  0  0  0  0
 23  8  1  6  0  0  0
 23 11  1  0  0  0  0
 24 13  1  6  0  0  0
 24 15  1  0  0  0  0
 24 23  1  0  0  0  0
 25 26  1  0  0  0  0
 27 12  2  0  0  0  0
 28 33  1  0  0  0  0
 29 32  1  0  0  0  0
 29 31  2  0  0  0  0
 30 33  2  0  0  0  0
 31 30  1  0  0  0  0
 32 28  2  0  0  0  0
 33 15  1  0  0  0  0
 34 29  1  0  0  0  0
 35 34  1  0  0  0  0
 36 34  1  0  0  0  0
 37 39  1  0  0  0  0
 38 37  1  6  0  0  0
 38 21  1  0  0  0  0
 38 40  1  0  0  0  0
 39 41  1  1  0  0  0
 39 40  1  0  0  0  0
 42 45  1  0  0  0  0
 43 47  1  6  0  0  0
 43 39  1  0  0  0  0
 43 45  1  0  0  0  0
 45 44  1  1  0  0  0
 46 51  1  1  0  0  0
 46 42  1  0  0  0  0
 46 45  1  0  0  0  0
 48 53  1  1  0  0  0
 48 46  1  0  0  0  0
 48 43  1  0  0  0  0
 49 50  1  0  0  0  0
 51 52  2  0  0  0  0
 51 49  1  0  0  0  0
 54 53  2  0  0  0  0
 55 53  1  0  0  0  0
M  END
>  <MODEL>
3

>  <REMARK>
 VINA RESULT:      -9.5      2.027      3.176
  Name = 
  6 active torsions:
  status: ('A' for Active; 'I' for Inactive)
    1  A    between atoms: C_1  and  C_53
    2  A    between atoms: C_6  and  C_20
    3  A    between atoms: C_8  and  C_43
    4  A    between atoms: N_10  and  C_32
    5  A    between atoms: C_29  and  C_38
    6  A    between atoms: C_33  and  C_52
                            x       y       z     vdW  Elec       q    Type
                         _______ _______ _______ _____ _____    ______ ____

>  <TORSDO>
F 6

$$$$
=
 OpenBabel11042411303D

 55 62  0  0  1  0  0  0  0  0999 V2000
  185.8720  175.5480  137.6340 C   0  0  0  0  0  3  0  0  0  0  0  0
  188.7020  173.0290  134.9310 C   0  0  0  0  0  2  0  0  0  0  0  0
  186.6400  170.7050  134.6060 O   0  0  0  0  0  1  0  0  0  0  0  0
  183.2400  170.4000  135.4340 C   0  0  0  0  0  3  0  0  0  0  0  0
  182.0600  169.6960  135.1520 C   0  0  0  0  0  3  0  0  0  0  0  0
  181.9290  172.2780  136.2310 C   0  0  0  0  0  0  0  0  0  0  0  0
  180.7590  171.5810  135.9470 C   0  0  0  0  0  3  0  0  0  0  0  0
  185.5800  171.7020  136.4230 N   0  0  0  0  0  2  0  0  0  0  0  0
  180.8220  170.2920  135.4070 C   0  0  0  0  0  3  0  0  0  0  0  0
  187.1040  177.6550  138.0370 C   0  0  0  0  0  3  0  0  0  0  0  0
  183.1790  171.6910  135.9810 C   0  0  0  0  0  0  0  0  0  0  0  0
  188.8770  177.1300  135.9600 C   0  0  0  0  0  0  0  0  0  0  0  0
  185.3400  174.7040  136.7510 C   0  0  0  0  0  3  0  0  0  0  0  0
  187.8470  176.2250  136.2390 C   0  0  0  0  0  3  0  0  0  0  0  0
  182.8790  174.2810  137.2080 C   0  0  0  0  0  0  0  0  0  0  0  0
  189.8380  173.7230  135.6700 C   0  0  0  0  0  2  0  0  0  0  0  0
  181.8550  173.5860  136.8080 N   0  0  0  0  0  0  0  0  0  0  0  0
  187.8910  172.2310  135.9310 C   0  0  0  0  0  2  0  0  0  0  0  0
  186.5340  171.8930  135.3390 C   0  0  1  0  0  3  0  0  0  0  0  0
  188.1030  178.5320  137.7430 N   0  0  0  0  0  0  0  0  0  0  0  0
  190.7230  174.5180  134.7220 C   0  0  1  0  0  3  0  0  0  0  0  0
  186.9430  176.4870  137.2830 C   0  0  0  0  0  0  0  0  0  0  0  0
  184.4200  172.5310  136.1170 C   0  0  1  0  0  3  0  0  0  0  0  0
  184.2950  173.6870  137.1340 C   0  0  1  0  0  3  0  0  0  0  0  0
  190.9350  175.9040  135.3370 C   0  0  0  0  0  2  0  0  0  0  0  0
  189.8510  176.8680  134.8600 C   0  0  0  0  0  2  0  0  0  0  0  0
  188.9860  178.2940  136.7300 C   0  0  0  0  0  3  0  0  0  0  0  0
  182.2860  176.7030  137.2230 C   0  0  0  0  0  3  0  0  0  0  0  0
  181.9480  177.9350  139.2930 C   0  0  0  0  0  0  0  0  0  0  0  0
  182.5280  175.5690  139.3470 C   0  0  0  0  0  3  0  0  0  0  0  0
  182.2170  176.7580  140.0120 C   0  0  0  0  0  3  0  0  0  0  0  0
  181.9790  177.8930  137.8910 C   0  0  0  0  0  3  0  0  0  0  0  0
  182.5890  175.5350  137.9460 C   0  0  0  0  0  0  0  0  0  0  0  0
  181.6440  179.1640  139.9840 N   0  0  0  0  0  0  0  0  0  0  0  0
  181.5710  179.2120  141.4240 C   0  0  0  0  0  1  0  0  0  0  0  0
  181.3520  180.3860  139.2500 C   0  0  0  0  0  1  0  0  0  0  0  0
  192.1800  172.3280  135.7300 S   0  0  0  0  0  0  0  0  0  0  0  0
  192.0360  173.7480  134.5940 C   0  0  2  0  0  3  0  0  0  0  0  0
  193.5050  173.5360  136.0470 C   0  0  2  0  0  0  0  0  0  0  0  0
  193.1030  174.5060  135.1060 O   0  0  0  0  0  0  0  0  0  0  0  0
  194.7430  173.0170  135.6970 F   0  0  0  0  0  0  0  0  0  0  0  0
  194.4640  175.9430  138.9650 O   0  0  0  0  0  0  0  0  0  0  0  0
  193.4850  174.0880  137.4970 C   0  0  1  0  0  0  0  0  0  0  0  0
  194.8170  176.0820  136.6030 O   0  0  0  0  0  1  0  0  0  0  0  0
  194.2030  175.4300  137.6720 C   0  0  1  0  0  0  0  0  0  0  0  0
  195.2030  174.8020  138.6150 C   0  0  2  0  0  0  0  0  0  0  0  0
  192.1830  174.2050  138.0050 O   0  0  0  0  0  1  0  0  0  0  0  0
  194.4330  173.4730  138.5540 C   0  0  2  0  0  3  0  0  0  0  0  0
  197.6410  175.1430  139.2300 N   0  0  0  0  0  2  0  0  0  0  0  0
  198.9160  175.4620  138.9330 O   0  0  0  0  0  1  0  0  0  0  0  0
  196.6450  175.0330  138.2130 C   0  0  0  0  0  0  0  0  0  0  0  0
  196.9660  175.1870  137.0080 O   0  0  0  0  0  0  0  0  0  0  0  0
  195.2680  172.2440  138.2410 C   0  0  0  0  0  0  0  0  0  0  0  0
  194.8990  171.0960  138.6340 O   0  0  0  0  0  1  0  0  0  0  0  0
  196.5570  172.3990  137.7070 O   0  0  0  0  0  0  0  0  0  0  0  0
  2 16  1  0  0  0  0
  2 18  1  0  0  0  0
  4 11  1  0  0  0  0
  5  9  1  0  0  0  0
  5  4  2  0  0  0  0
  6 17  1  0  0  0  0
  7  6  1  0  0  0  0
  9  7  2  0  0  0  0
 11  6  2  0  0  0  0
 12 14  2  0  0  0  0
 12 27  1  0  0  0  0
 13  1  2  0  0  0  0
 14 22  1  0  0  0  0
 15 33  1  0  0  0  0
 17 15  2  0  0  0  0
 19  3  1  1  0  0  0
 19 18  1  0  0  0  0
 19  8  1  0  0  0  0
 20 10  1  0  0  0  0
 21 25  1  1  0  0  0
 21 16  1  0  0  0  0
 22  1  1  0  0  0  0
 22 10  2  0  0  0  0
 23 11  1  1  0  0  0
 23  8  1  0  0  0  0
 23 24  1  0  0  0  0
 24 13  1  6  0  0  0
 24 15  1  0  0  0  0
 26 25  1  0  0  0  0
 26 12  1  0  0  0  0
 27 20  2  0  0  0  0
 28 32  2  0  0  0  0
 28 33  1  0  0  0  0
 29 34  1  0  0  0  0
 29 31  2  0  0  0  0
 30 31  1  0  0  0  0
 32 29  1  0  0  0  0
 33 30  2  0  0  0  0
 34 35  1  0  0  0  0
 36 34  1  0  0  0  0
 37 39  1  0  0  0  0
 38 21  1  0  0  0  0
 38 40  1  1  0  0  0
 38 37  1  0  0  0  0
 39 41  1  6  0  0  0
 39 43  1  0  0  0  0
 40 39  1  0  0  0  0
 43 45  1  0  0  0  0
 43 47  1  1  0  0  0
 43 48  1  0  0  0  0
 45 44  1  6  0  0  0
 45 46  1  0  0  0  0
 45 42  1  0  0  0  0
 46 51  1  6  0  0  0
 46 42  1  0  0  0  0
 48 53  1  6  0  0  0
 48 46  1  0  0  0  0
 50 49  1  0  0  0  0
 51 49  1  0  0  0  0
 52 51  2  0  0  0  0
 53 54  1  0  0  0  0
 55 53  2  0  0  0  0
M  END
>  <MODEL>
4

>  <REMARK>
 VINA RESULT:      -8.6      3.970      6.649
  Name = 
  6 active torsions:
  status: ('A' for Active; 'I' for Inactive)
    1  A    between atoms: C_1  and  C_53
    2  A    between atoms: C_6  and  C_20
    3  A    between atoms: C_8  and  C_43
    4  A    between atoms: N_10  and  C_32
    5  A    between atoms: C_29  and  C_38
    6  A    between atoms: C_33  and  C_52
                            x       y       z     vdW  Elec       q    Type
                         _______ _______ _______ _____ _____    ______ ____

>  <TORSDO>
F 6

$$$$
