=
 OpenBabel11042412283D

 26 31  0  0  1  0  0  0  0  0999 V2000
  191.4080  177.8590  144.2240 C   0  0  1  0  0  3  0  0  0  0  0  0
  189.8290  177.7020  142.4180 C   0  0  2  0  0  0  0  0  0  0  0  0
  190.1850  178.0780  145.0120 N   0  0  0  0  0  0  0  0  0  0  0  0
  187.5910  176.2190  143.2780 C   0  0  0  0  0  2  0  0  0  0  0  0
  189.8520  176.3550  142.8800 O   0  0  0  0  0  0  0  0  0  0  0  0
  189.3870  177.8340  148.7220 C   0  0  0  0  0  2  0  0  0  0  0  0
  187.9780  177.9580  146.2500 C   0  0  0  0  0  0  0  0  0  0  0  0
  189.4500  177.9880  146.2400 C   0  0  0  0  0  0  0  0  0  0  0  0
  187.9530  178.1520  148.6350 N   0  0  0  0  0  0  0  0  0  0  0  0
  189.0360  178.7750  143.0900 C   0  0  0  0  0  2  0  0  0  0  0  0
  186.8220  177.2660  144.0250 C   0  0  0  0  0  0  0  0  0  0  0  0
  187.2820  178.1600  147.5220 C   0  0  0  0  0  3  0  0  0  0  0  0
  188.6650  176.6920  142.2640 C   0  0  2  0  0  3  0  0  0  0  0  0
  190.1060  177.9710  147.4010 C   0  0  0  0  0  3  0  0  0  0  0  0
  187.3290  177.6310  145.1720 C   0  0  0  0  0  0  0  0  0  0  0  0
  190.4110  178.6170  143.6080 C   0  0  1  0  0  0  0  0  0  0  0  0
  192.4160  178.6980  144.6950 O   0  0  0  0  0  1  0  0  0  0  0  0
  184.5840  178.4810  144.2870 C   0  0  0  0  0  3  0  0  0  0  0  0
  183.2130  179.0160  142.2920 C   0  0  0  0  0  2  0  0  0  0  0  0
  185.6550  177.9480  143.4210 C   0  0  0  0  0  0  0  0  0  0  0  0
  183.4700  179.0050  143.7740 C   0  0  0  0  0  3  0  0  0  0  0  0
  184.4410  178.8090  141.5240 N   0  0  0  0  0  0  0  0  0  0  0  0
  185.5720  178.1370  142.0980 C   0  0  0  0  0  3  0  0  0  0  0  0
  184.4130  179.0520  140.0920 C   0  0  0  0  0  2  0  0  0  0  0  0
  185.3730  178.1450  138.0000 C   0  0  0  0  0  1  0  0  0  0  0  0
  185.6650  178.4940  139.4430 C   0  0  0  0  0  2  0  0  0  0  0  0
  1 17  1  1  0  0  0
  1  3  1  0  0  0  0
  2  5  1  0  0  0  0
  2 10  1  1  0  0  0
  2 16  1  0  0  0  0
  3  8  1  0  0  0  0
  4 11  1  0  0  0  0
  7 12  1  0  0  0  0
  8  7  1  0  0  0  0
  8 14  2  0  0  0  0
  9  6  1  0  0  0  0
 11 15  2  0  0  0  0
 12  9  2  0  0  0  0
 13  2  1  0  0  0  0
 13  5  1  0  0  0  0
 13  4  1  1  0  0  0
 14  6  1  0  0  0  0
 15  7  2  0  0  0  0
 16 10  1  6  0  0  0
 16  1  1  0  0  0  0
 16  3  1  0  0  0  0
 19 21  1  0  0  0  0
 20 11  1  0  0  0  0
 20 18  1  0  0  0  0
 21 18  2  0  0  0  0
 22 23  1  0  0  0  0
 22 19  1  0  0  0  0
 23 20  2  0  0  0  0
 24 22  1  0  0  0  0
 25 26  1  0  0  0  0
 26 24  1  0  0  0  0
M  END
>  <MODEL>
1

>  <REMARK>
 VINA RESULT:      -7.8      0.000      0.000
  Name = 
  3 active torsions:
  status: ('A' for Active; 'I' for Inactive)
    1  A    between atoms: C_9  and  C_14
    2  A    between atoms: C_19  and  C_22
    3  A    between atoms: C_22  and  N_23
                            x       y       z     vdW  Elec       q    Type
                         _______ _______ _______ _____ _____    ______ ____

>  <TORSDO>
F 3

$$$$
=
 OpenBabel11042412283D

 26 31  0  0  1  0  0  0  0  0999 V2000
  189.4590  177.6850  146.9380 C   0  0  1  0  0  3  0  0  0  0  0  0
  190.9040  177.1470  145.0940 C   0  0  2  0  0  0  0  0  0  0  0  0
  188.4930  177.9290  145.8530 N   0  0  0  0  0  0  0  0  0  0  0  0
  189.4560  175.6490  143.1950 C   0  0  0  0  0  2  0  0  0  0  0  0
  190.2790  175.8900  145.3290 O   0  0  0  0  0  0  0  0  0  0  0  0
  184.7020  178.1810  145.7360 C   0  0  0  0  0  2  0  0  0  0  0  0
  186.8650  177.8330  143.9160 C   0  0  0  0  0  0  0  0  0  0  0  0
  187.1510  177.9690  145.3550 C   0  0  0  0  0  0  0  0  0  0  0  0
  184.5630  178.3770  144.2850 N   0  0  0  0  0  0  0  0  0  0  0  0
  190.2460  178.2470  144.3270 C   0  0  0  0  0  2  0  0  0  0  0  0
  188.7260  176.7360  142.4680 C   0  0  0  0  0  0  0  0  0  0  0  0
  185.5240  178.1710  143.4340 C   0  0  0  0  0  3  0  0  0  0  0  0
  190.7040  176.0440  144.0260 C   0  0  2  0  0  3  0  0  0  0  0  0
  186.1390  178.1730  146.2000 C   0  0  0  0  0  3  0  0  0  0  0  0
  187.7500  177.3040  143.1260 C   0  0  0  0  0  0  0  0  0  0  0  0
  189.9740  178.2690  145.7800 C   0  0  1  0  0  0  0  0  0  0  0  0
  189.2980  178.6570  147.9240 O   0  0  0  0  0  1  0  0  0  0  0  0
  188.4040  178.2600  140.4360 C   0  0  0  0  0  3  0  0  0  0  0  0
  189.8730  178.0230  138.4530 C   0  0  0  0  0  2  0  0  0  0  0  0
  189.1890  177.2340  141.1520 C   0  0  0  0  0  0  0  0  0  0  0  0
  188.7320  178.6530  139.2040 C   0  0  0  0  0  3  0  0  0  0  0  0
  190.7830  177.3040  139.3450 N   0  0  0  0  0  0  0  0  0  0  0  0
  190.3380  176.8070  140.6160 C   0  0  0  0  0  3  0  0  0  0  0  0
  192.0660  176.8660  138.8220 C   0  0  0  0  0  2  0  0  0  0  0  0
  191.7310  174.7620  137.5660 C   0  0  0  0  0  1  0  0  0  0  0  0
  191.8880  176.2620  137.4430 C   0  0  0  0  0  2  0  0  0  0  0  0
  1 17  1  1  0  0  0
  2 10  1  6  0  0  0
  2  5  1  0  0  0  0
  2 16  1  0  0  0  0
  3  1  1  0  0  0  0
  6 14  1  0  0  0  0
  7  8  1  0  0  0  0
  8  3  1  0  0  0  0
  8 14  2  0  0  0  0
  9  6  1  0  0  0  0
 11 15  2  0  0  0  0
 11  4  1  0  0  0  0
 12  7  1  0  0  0  0
 12  9  2  0  0  0  0
 13  4  1  6  0  0  0
 13  2  1  0  0  0  0
 13  5  1  0  0  0  0
 15  7  2  0  0  0  0
 16 10  1  1  0  0  0
 16  3  1  0  0  0  0
 16  1  1  0  0  0  0
 18 20  1  0  0  0  0
 19 21  1  0  0  0  0
 19 22  1  0  0  0  0
 20 11  1  0  0  0  0
 21 18  2  0  0  0  0
 22 23  1  0  0  0  0
 23 20  2  0  0  0  0
 24 22  1  0  0  0  0
 26 25  1  0  0  0  0
 26 24  1  0  0  0  0
M  END
>  <MODEL>
2

>  <REMARK>
 VINA RESULT:      -7.7      2.841      4.751
  Name = 
  3 active torsions:
  status: ('A' for Active; 'I' for Inactive)
    1  A    between atoms: C_9  and  C_14
    2  A    between atoms: C_19  and  C_22
    3  A    between atoms: C_22  and  N_23
                            x       y       z     vdW  Elec       q    Type
                         _______ _______ _______ _____ _____    ______ ____

>  <TORSDO>
F 3

$$$$
=
 OpenBabel11042412283D

 26 31  0  0  1  0  0  0  0  0999 V2000
  191.5480  176.6620  146.3660 C   0  0  1  0  0  3  0  0  0  0  0  0
  191.5780  176.4380  143.9730 C   0  0  2  0  0  0  0  0  0  0  0  0
  190.1990  177.1890  146.1030 N   0  0  0  0  0  0  0  0  0  0  0  0
  189.0760  175.4690  143.1070 C   0  0  0  0  0  2  0  0  0  0  0  0
  190.9880  175.2010  144.3570 O   0  0  0  0  0  0  0  0  0  0  0  0
  187.1190  177.6930  148.2730 C   0  0  0  0  0  2  0  0  0  0  0  0
  187.7740  177.6060  145.5030 C   0  0  0  0  0  0  0  0  0  0  0  0
  188.8410  177.4160  146.5000 C   0  0  0  0  0  0  0  0  0  0  0  0
  186.2210  178.2000  147.2250 N   0  0  0  0  0  0  0  0  0  0  0  0
  190.8050  177.7150  143.8990 C   0  0  0  0  0  2  0  0  0  0  0  0
  188.2650  176.7290  143.1040 C   0  0  0  0  0  0  0  0  0  0  0  0
  186.4790  178.1210  145.9530 C   0  0  0  0  0  3  0  0  0  0  0  0
  190.6210  175.6010  143.0890 C   0  0  2  0  0  3  0  0  0  0  0  0
  188.5380  177.4980  147.7970 C   0  0  0  0  0  3  0  0  0  0  0  0
  187.9500  177.2030  144.2800 C   0  0  0  0  0  0  0  0  0  0  0  0
  191.4110  177.4450  145.2200 C   0  0  1  0  0  0  0  0  0  0  0  0
  192.1450  177.4100  147.3800 O   0  0  0  0  0  1  0  0  0  0  0  0
  186.7630  178.2920  141.7420 C   0  0  0  0  0  3  0  0  0  0  0  0
  187.2180  178.6780  139.3360 C   0  0  0  0  0  2  0  0  0  0  0  0
  187.9820  177.4650  141.8510 C   0  0  0  0  0  0  0  0  0  0  0  0
  186.4210  178.8810  140.5950 C   0  0  0  0  0  3  0  0  0  0  0  0
  188.5590  178.1610  139.6160 N   0  0  0  0  0  0  0  0  0  0  0  0
  188.8380  177.4360  140.8230 C   0  0  0  0  0  3  0  0  0  0  0  0
  189.5390  178.1590  138.5440 C   0  0  0  0  0  2  0  0  0  0  0  0
  188.9790  177.9650  136.1420 C   0  0  0  0  0  1  0  0  0  0  0  0
  188.9930  178.8950  137.3360 C   0  0  0  0  0  2  0  0  0  0  0  0
  1 17  1  1  0  0  0
  2 10  1  1  0  0  0
  2  5  1  0  0  0  0
  2 16  1  0  0  0  0
  3  1  1  0  0  0  0
  3  8  1  0  0  0  0
  7 12  1  0  0  0  0
  7  8  1  0  0  0  0
  8 14  2  0  0  0  0
  9  6  1  0  0  0  0
 11  4  1  0  0  0  0
 11 15  2  0  0  0  0
 12  9  2  0  0  0  0
 13  4  1  1  0  0  0
 13  2  1  0  0  0  0
 13  5  1  0  0  0  0
 14  6  1  0  0  0  0
 15  7  2  0  0  0  0
 16 10  1  6  0  0  0
 16  3  1  0  0  0  0
 16  1  1  0  0  0  0
 18 20  1  0  0  0  0
 19 22  1  0  0  0  0
 19 21  1  0  0  0  0
 20 11  1  0  0  0  0
 21 18  2  0  0  0  0
 22 23  1  0  0  0  0
 23 20  2  0  0  0  0
 24 22  1  0  0  0  0
 25 26  1  0  0  0  0
 26 24  1  0  0  0  0
M  END
>  <MODEL>
3

>  <REMARK>
 VINA RESULT:      -7.3      2.160      2.962
  Name = 
  3 active torsions:
  status: ('A' for Active; 'I' for Inactive)
    1  A    between atoms: C_9  and  C_14
    2  A    between atoms: C_19  and  C_22
    3  A    between atoms: C_22  and  N_23
                            x       y       z     vdW  Elec       q    Type
                         _______ _______ _______ _____ _____    ______ ____

>  <TORSDO>
F 3

$$$$
=
 OpenBabel11042412283D

 26 31  0  0  1  0  0  0  0  0999 V2000
  190.8340  176.7380  139.6000 C   0  0  1  0  0  3  0  0  0  0  0  0
  191.6350  176.7570  141.8670 C   0  0  2  0  0  0  0  0  0  0  0  0
  189.5710  177.1210  140.2520 N   0  0  0  0  0  0  0  0  0  0  0  0
  190.5560  178.9920  143.2050 C   0  0  0  0  0  2  0  0  0  0  0  0
  191.8240  178.1190  141.4970 O   0  0  0  0  0  0  0  0  0  0  0  0
  186.3580  178.7150  138.9900 C   0  0  0  0  0  2  0  0  0  0  0  0
  187.6500  178.2250  141.4800 C   0  0  0  0  0  0  0  0  0  0  0  0
  188.3020  177.7870  140.2340 C   0  0  0  0  0  0  0  0  0  0  0  0
  185.6590  178.7950  140.2820 N   0  0  0  0  0  0  0  0  0  0  0  0
  190.3090  176.2090  142.2820 C   0  0  0  0  0  2  0  0  0  0  0  0
  189.1920  178.4840  143.5590 C   0  0  0  0  0  0  0  0  0  0  0  0
  186.2430  178.6280  141.4300 C   0  0  0  0  0  3  0  0  0  0  0  0
  191.6490  177.9500  142.8550 C   0  0  2  0  0  3  0  0  0  0  0  0
  187.6750  177.9810  139.0730 C   0  0  0  0  0  3  0  0  0  0  0  0
  188.3530  178.3670  142.5640 C   0  0  0  0  0  0  0  0  0  0  0  0
  190.5720  176.1330  140.8300 C   0  0  1  0  0  0  0  0  0  0  0  0
  190.5650  175.8420  138.5670 O   0  0  0  0  0  1  0  0  0  0  0  0
  187.4680  177.8360  145.3380 C   0  0  0  0  0  3  0  0  0  0  0  0
  188.1900  177.3490  147.6590 C   0  0  0  0  0  2  0  0  0  0  0  0
  188.8750  177.9990  144.9220 C   0  0  0  0  0  0  0  0  0  0  0  0
  187.1440  177.5050  146.5890 C   0  0  0  0  0  3  0  0  0  0  0  0
  189.5290  177.1750  147.0920 N   0  0  0  0  0  0  0  0  0  0  0  0
  189.8470  177.6540  145.7770 C   0  0  0  0  0  3  0  0  0  0  0  0
  190.6050  176.7510  147.9710 C   0  0  0  0  0  2  0  0  0  0  0  0
  192.8050  175.6280  148.0960 C   0  0  0  0  0  1  0  0  0  0  0  0
  191.6620  176.0060  147.1790 C   0  0  0  0  0  2  0  0  0  0  0  0
  1 17  1  6  0  0  0
  1  3  1  0  0  0  0
  1 16  1  0  0  0  0
  2 10  1  6  0  0  0
  2 13  1  0  0  0  0
  3 16  1  0  0  0  0
  4 11  1  0  0  0  0
  5  2  1  0  0  0  0
  5 13  1  0  0  0  0
  6 14  1  0  0  0  0
  6  9  1  0  0  0  0
  7 15  2  0  0  0  0
  8  3  1  0  0  0  0
  8  7  1  0  0  0  0
  9 12  2  0  0  0  0
 11 20  1  0  0  0  0
 12  7  1  0  0  0  0
 13  4  1  6  0  0  0
 14  8  2  0  0  0  0
 15 11  2  0  0  0  0
 16  2  1  0  0  0  0
 16 10  1  1  0  0  0
 18 21  2  0  0  0  0
 20 18  1  0  0  0  0
 20 23  2  0  0  0  0
 21 19  1  0  0  0  0
 22 19  1  0  0  0  0
 22 24  1  0  0  0  0
 23 22  1  0  0  0  0
 26 24  1  0  0  0  0
 26 25  1  0  0  0  0
M  END
>  <MODEL>
4

>  <REMARK>
 VINA RESULT:      -7.1      2.230      6.489
  Name = 
  3 active torsions:
  status: ('A' for Active; 'I' for Inactive)
    1  A    between atoms: C_9  and  C_14
    2  A    between atoms: C_19  and  C_22
    3  A    between atoms: C_22  and  N_23
                            x       y       z     vdW  Elec       q    Type
                         _______ _______ _______ _____ _____    ______ ____

>  <TORSDO>
F 3

$$$$
=
 OpenBabel11042412283D

 26 31  0  0  1  0  0  0  0  0999 V2000
  187.4790  177.9590  146.6140 C   0  0  1  0  0  3  0  0  0  0  0  0
  185.1570  178.4530  146.2320 C   0  0  2  0  0  0  0  0  0  0  0  0
  187.4890  177.8240  145.1490 N   0  0  0  0  0  0  0  0  0  0  0  0
  184.9320  180.1170  143.9680 C   0  0  0  0  0  2  0  0  0  0  0  0
  185.7400  179.7440  146.0880 O   0  0  0  0  0  0  0  0  0  0  0  0
  190.2520  177.8570  142.5380 C   0  0  0  0  0  2  0  0  0  0  0  0
  187.4170  178.1070  142.6330 C   0  0  0  0  0  0  0  0  0  0  0  0
  188.1620  177.9000  143.8860 C   0  0  0  0  0  0  0  0  0  0  0  0
  189.3990  177.7220  141.3480 N   0  0  0  0  0  0  0  0  0  0  0  0
  185.1760  177.4310  145.1420 C   0  0  0  0  0  2  0  0  0  0  0  0
  185.0290  179.1130  142.8620 C   0  0  0  0  0  0  0  0  0  0  0  0
  188.1100  177.8850  141.3620 C   0  0  0  0  0  3  0  0  0  0  0  0
  184.5630  179.6030  145.3840 C   0  0  2  0  0  3  0  0  0  0  0  0
  189.4860  177.7430  143.8340 C   0  0  0  0  0  3  0  0  0  0  0  0
  186.2130  178.5960  142.6670 C   0  0  0  0  0  0  0  0  0  0  0  0
  186.3440  177.3790  146.0470 C   0  0  1  0  0  0  0  0  0  0  0  0
  188.2860  176.9690  147.1730 O   0  0  0  0  0  1  0  0  0  0  0  0
  183.9740  177.7790  140.9480 C   0  0  0  0  0  3  0  0  0  0  0  0
  181.5330  177.9020  140.5370 C   0  0  0  0  0  2  0  0  0  0  0  0
  183.8260  178.6280  142.1470 C   0  0  0  0  0  0  0  0  0  0  0  0
  182.9190  177.4130  140.2190 C   0  0  0  0  0  3  0  0  0  0  0  0
  181.4370  178.4200  141.9030 N   0  0  0  0  0  0  0  0  0  0  0  0
  182.5960  178.9040  142.5970 C   0  0  0  0  0  3  0  0  0  0  0  0
  180.1190  178.6850  142.4540 C   0  0  0  0  0  2  0  0  0  0  0  0
  178.9380  179.3070  144.5360 C   0  0  0  0  0  1  0  0  0  0  0  0
  180.1650  178.6280  143.9690 C   0  0  0  0  0  2  0  0  0  0  0  0
  1 17  1  1  0  0  0
  2 10  1  6  0  0  0
  3 16  1  0  0  0  0
  3  1  1  0  0  0  0
  5  2  1  0  0  0  0
  6 14  1  0  0  0  0
  7 15  2  0  0  0  0
  7  8  1  0  0  0  0
  8  3  1  0  0  0  0
  9 12  2  0  0  0  0
  9  6  1  0  0  0  0
 11  4  1  0  0  0  0
 12  7  1  0  0  0  0
 13  4  1  6  0  0  0
 13  5  1  0  0  0  0
 13  2  1  0  0  0  0
 14  8  2  0  0  0  0
 15 11  2  0  0  0  0
 16 10  1  1  0  0  0
 16  2  1  0  0  0  0
 16  1  1  0  0  0  0
 18 20  1  0  0  0  0
 19 22  1  0  0  0  0
 20 23  2  0  0  0  0
 20 11  1  0  0  0  0
 21 19  1  0  0  0  0
 21 18  2  0  0  0  0
 22 24  1  0  0  0  0
 22 23  1  0  0  0  0
 24 26  1  0  0  0  0
 26 25  1  0  0  0  0
M  END
>  <MODEL>
5

>  <REMARK>
 VINA RESULT:      -7.1      2.592      4.945
  Name = 
  3 active torsions:
  status: ('A' for Active; 'I' for Inactive)
    1  A    between atoms: C_9  and  C_14
    2  A    between atoms: C_19  and  C_22
    3  A    between atoms: C_22  and  N_23
                            x       y       z     vdW  Elec       q    Type
                         _______ _______ _______ _____ _____    ______ ____

>  <TORSDO>
F 3

$$$$
=
 OpenBabel11042412283D

 26 31  0  0  1  0  0  0  0  0999 V2000
  191.0570  176.6590  139.8810 C   0  0  1  0  0  3  0  0  0  0  0  0
  191.7880  176.6940  142.1720 C   0  0  2  0  0  0  0  0  0  0  0  0
  189.7810  177.0710  140.4890 N   0  0  0  0  0  0  0  0  0  0  0  0
  190.7060  178.9620  143.4490 C   0  0  0  0  0  2  0  0  0  0  0  0
  192.0110  178.0470  141.7910 O   0  0  0  0  0  0  0  0  0  0  0  0
  186.6350  178.7010  139.1100 C   0  0  0  0  0  2  0  0  0  0  0  0
  187.8430  178.2210  141.6440 C   0  0  0  0  0  0  0  0  0  0  0  0
  188.5250  177.7570  140.4240 C   0  0  0  0  0  0  0  0  0  0  0  0
  185.8990  178.8090  140.3780 N   0  0  0  0  0  0  0  0  0  0  0  0
  190.4410  176.1720  142.5520 C   0  0  0  0  0  2  0  0  0  0  0  0
  189.3230  178.4810  143.7670 C   0  0  0  0  0  0  0  0  0  0  0  0
  186.4450  178.6460  141.5460 C   0  0  0  0  0  3  0  0  0  0  0  0
  191.7920  177.8980  143.1450 C   0  0  2  0  0  3  0  0  0  0  0  0
  187.9370  177.9470  139.2410 C   0  0  0  0  0  3  0  0  0  0  0  0
  188.5140  178.3650  142.7470 C   0  0  0  0  0  0  0  0  0  0  0  0
  190.7470  176.0740  141.1090 C   0  0  1  0  0  0  0  0  0  0  0  0
  190.8060  175.7550  138.8510 O   0  0  0  0  0  1  0  0  0  0  0  0
  190.0000  177.4960  146.0310 C   0  0  0  0  0  3  0  0  0  0  0  0
  188.2650  176.8190  147.6670 C   0  0  0  0  0  2  0  0  0  0  0  0
  188.9570  178.0170  145.1250 C   0  0  0  0  0  0  0  0  0  0  0  0
  189.6930  176.9710  147.2180 C   0  0  0  0  0  3  0  0  0  0  0  0
  187.3560  177.6660  146.8930 N   0  0  0  0  0  0  0  0  0  0  0  0
  187.6980  178.1080  145.5710 C   0  0  0  0  0  3  0  0  0  0  0  0
  185.9930  177.8360  147.3670 C   0  0  0  0  0  2  0  0  0  0  0  0
  184.2540  178.6390  145.8030 C   0  0  0  0  0  1  0  0  0  0  0  0
  185.3700  179.0640  146.7320 C   0  0  0  0  0  2  0  0  0  0  0  0
  1 17  1  6  0  0  0
  1  3  1  0  0  0  0
  1 16  1  0  0  0  0
  2 10  1  6  0  0  0
  2 13  1  0  0  0  0
  3 16  1  0  0  0  0
  4 11  1  0  0  0  0
  5  2  1  0  0  0  0
  5 13  1  0  0  0  0
  6 14  1  0  0  0  0
  6  9  1  0  0  0  0
  7 15  2  0  0  0  0
  8  3  1  0  0  0  0
  8  7  1  0  0  0  0
  9 12  2  0  0  0  0
 11 20  1  0  0  0  0
 12  7  1  0  0  0  0
 13  4  1  6  0  0  0
 14  8  2  0  0  0  0
 15 11  2  0  0  0  0
 16  2  1  0  0  0  0
 16 10  1  1  0  0  0
 18 21  2  0  0  0  0
 20 23  2  0  0  0  0
 20 18  1  0  0  0  0
 21 19  1  0  0  0  0
 22 24  1  0  0  0  0
 22 19  1  0  0  0  0
 23 22  1  0  0  0  0
 25 26  1  0  0  0  0
 26 24  1  0  0  0  0
M  END
>  <MODEL>
6

>  <REMARK>
 VINA RESULT:      -7.1      2.069      5.866
  Name = 
  3 active torsions:
  status: ('A' for Active; 'I' for Inactive)
    1  A    between atoms: C_9  and  C_14
    2  A    between atoms: C_19  and  C_22
    3  A    between atoms: C_22  and  N_23
                            x       y       z     vdW  Elec       q    Type
                         _______ _______ _______ _____ _____    ______ ____

>  <TORSDO>
F 3

$$$$
=
 OpenBabel11042412283D

 26 31  0  0  1  0  0  0  0  0999 V2000
  189.5340  177.6850  146.9000 C   0  0  1  0  0  3  0  0  0  0  0  0
  190.7800  177.1610  144.9110 C   0  0  2  0  0  0  0  0  0  0  0  0
  188.4670  177.9570  145.9230 N   0  0  0  0  0  0  0  0  0  0  0  0
  189.1280  175.7100  143.1470 C   0  0  0  0  0  2  0  0  0  0  0  0
  190.1660  175.9070  145.1890 O   0  0  0  0  0  0  0  0  0  0  0  0
  184.6870  178.2500  146.1930 C   0  0  0  0  0  2  0  0  0  0  0  0
  186.6500  177.9090  144.1590 C   0  0  0  0  0  0  0  0  0  0  0  0
  187.0820  178.0190  145.5630 C   0  0  0  0  0  0  0  0  0  0  0  0
  184.4040  178.4710  144.7670 N   0  0  0  0  0  0  0  0  0  0  0  0
  190.0610  178.2810  144.2320 C   0  0  0  0  0  2  0  0  0  0  0  0
  188.3420  176.8160  142.5130 C   0  0  0  0  0  0  0  0  0  0  0  0
  185.2720  178.2690  143.8210 C   0  0  0  0  0  3  0  0  0  0  0  0
  190.4590  176.0780  143.8530 C   0  0  2  0  0  3  0  0  0  0  0  0
  186.1630  178.2190  146.5090 C   0  0  0  0  0  3  0  0  0  0  0  0
  187.4450  177.3830  143.2750 C   0  0  0  0  0  0  0  0  0  0  0  0
  189.9370  178.2820  145.7050 C   0  0  1  0  0  0  0  0  0  0  0  0
  189.4860  178.6420  147.9120 O   0  0  0  0  0  1  0  0  0  0  0  0
  190.0780  177.3250  140.7020 C   0  0  0  0  0  3  0  0  0  0  0  0
  189.4310  178.5970  138.6740 C   0  0  0  0  0  2  0  0  0  0  0  0
  188.6760  177.3310  141.1650 C   0  0  0  0  0  0  0  0  0  0  0  0
  190.4290  177.8780  139.5390 C   0  0  0  0  0  3  0  0  0  0  0  0
  188.0530  178.2460  139.0240 N   0  0  0  0  0  0  0  0  0  0  0  0
  187.7200  177.7600  140.3320 C   0  0  0  0  0  3  0  0  0  0  0  0
  186.9860  178.6450  138.1220 C   0  0  0  0  0  2  0  0  0  0  0  0
  187.0270  176.3580  137.1810 C   0  0  0  0  0  1  0  0  0  0  0  0
  187.0530  177.8330  136.8430 C   0  0  0  0  0  2  0  0  0  0  0  0
  1 17  1  1  0  0  0
  2 10  1  6  0  0  0
  2  5  1  0  0  0  0
  2 16  1  0  0  0  0
  3  1  1  0  0  0  0
  6 14  1  0  0  0  0
  7  8  1  0  0  0  0
  8  3  1  0  0  0  0
  8 14  2  0  0  0  0
  9  6  1  0  0  0  0
 11  4  1  0  0  0  0
 11 15  2  0  0  0  0
 12  7  1  0  0  0  0
 12  9  2  0  0  0  0
 13  4  1  6  0  0  0
 13  2  1  0  0  0  0
 13  5  1  0  0  0  0
 15  7  2  0  0  0  0
 16 10  1  6  0  0  0
 16  3  1  0  0  0  0
 16  1  1  0  0  0  0
 18 20  1  0  0  0  0
 19 22  1  0  0  0  0
 19 21  1  0  0  0  0
 20 11  1  0  0  0  0
 21 18  2  0  0  0  0
 22 23  1  0  0  0  0
 23 20  2  0  0  0  0
 24 22  1  0  0  0  0
 26 25  1  0  0  0  0
 26 24  1  0  0  0  0
M  END
>  <MODEL>
7

>  <REMARK>
 VINA RESULT:      -6.8      2.182      3.952
  Name = 
  3 active torsions:
  status: ('A' for Active; 'I' for Inactive)
    1  A    between atoms: C_9  and  C_14
    2  A    between atoms: C_19  and  C_22
    3  A    between atoms: C_22  and  N_23
                            x       y       z     vdW  Elec       q    Type
                         _______ _______ _______ _____ _____    ______ ____

>  <TORSDO>
F 3

$$$$
=
 OpenBabel11042412283D

 26 31  0  0  1  0  0  0  0  0999 V2000
  180.1980  178.8340  141.7010 C   0  0  1  0  0  3  0  0  0  0  0  0
  180.8280  178.7060  139.3840 C   0  0  2  0  0  0  0  0  0  0  0  0
  181.6360  178.5910  141.9010 N   0  0  0  0  0  0  0  0  0  0  0  0
  183.2620  180.0790  139.0150 C   0  0  0  0  0  2  0  0  0  0  0  0
  181.0530  180.0860  139.6540 O   0  0  0  0  0  0  0  0  0  0  0  0
  183.9890  179.1000  144.8440 C   0  0  0  0  0  2  0  0  0  0  0  0
  184.1640  178.6470  142.0380 C   0  0  0  0  0  0  0  0  0  0  0  0
  182.8370  178.7310  142.6700 C   0  0  0  0  0  0  0  0  0  0  0  0
  185.2280  178.6640  144.1820 N   0  0  0  0  0  0  0  0  0  0  0  0
  181.8010  177.6380  139.7640 C   0  0  0  0  0  2  0  0  0  0  0  0
  184.2470  179.0460  139.4690 C   0  0  0  0  0  0  0  0  0  0  0  0
  185.3410  178.5040  142.8970 C   0  0  0  0  0  3  0  0  0  0  0  0
  181.8380  179.6030  138.6280 C   0  0  2  0  0  3  0  0  0  0  0  0
  182.7590  178.9030  143.9910 C   0  0  0  0  0  3  0  0  0  0  0  0
  184.2850  178.8240  140.7550 C   0  0  0  0  0  0  0  0  0  0  0  0
  180.7990  177.9490  140.8060 C   0  0  1  0  0  0  0  0  0  0  0  0
  179.4730  178.1220  142.6550 O   0  0  0  0  0  1  0  0  0  0  0  0
  184.2880  177.3890  137.5170 C   0  0  0  0  0  3  0  0  0  0  0  0
  186.4270  176.3680  136.7910 C   0  0  0  0  0  2  0  0  0  0  0  0
  185.0080  178.2230  138.5010 C   0  0  0  0  0  0  0  0  0  0  0  0
  184.9380  176.5550  136.7030 C   0  0  0  0  0  3  0  0  0  0  0  0
  187.0730  177.4630  137.5160 N   0  0  0  0  0  0  0  0  0  0  0  0
  186.3460  178.2570  138.4650 C   0  0  0  0  0  3  0  0  0  0  0  0
  188.5210  177.5710  137.4630 C   0  0  0  0  0  2  0  0  0  0  0  0
  189.8950  177.6600  139.5190 C   0  0  0  0  0  1  0  0  0  0  0  0
  189.0180  178.4650  138.5830 C   0  0  0  0  0  2  0  0  0  0  0  0
  1  3  1  0  0  0  0
  1 17  1  1  0  0  0
  2  5  1  0  0  0  0
  2 10  1  1  0  0  0
  2 16  1  0  0  0  0
  3  8  1  0  0  0  0
  4 11  1  0  0  0  0
  7  8  1  0  0  0  0
  7 12  1  0  0  0  0
  8 14  2  0  0  0  0
  9  6  1  0  0  0  0
 11 15  2  0  0  0  0
 12  9  2  0  0  0  0
 13  4  1  1  0  0  0
 13  2  1  0  0  0  0
 13  5  1  0  0  0  0
 14  6  1  0  0  0  0
 15  7  2  0  0  0  0
 16 10  1  1  0  0  0
 16  1  1  0  0  0  0
 16  3  1  0  0  0  0
 18 20  1  0  0  0  0
 19 22  1  0  0  0  0
 20 11  1  0  0  0  0
 21 19  1  0  0  0  0
 21 18  2  0  0  0  0
 22 23  1  0  0  0  0
 23 20  2  0  0  0  0
 24 22  1  0  0  0  0
 24 26  1  0  0  0  0
 26 25  1  0  0  0  0
M  END
>  <MODEL>
8

>  <REMARK>
 VINA RESULT:      -6.8      4.720      7.492
  Name = 
  3 active torsions:
  status: ('A' for Active; 'I' for Inactive)
    1  A    between atoms: C_9  and  C_14
    2  A    between atoms: C_19  and  C_22
    3  A    between atoms: C_22  and  N_23
                            x       y       z     vdW  Elec       q    Type
                         _______ _______ _______ _____ _____    ______ ____

>  <TORSDO>
F 3

$$$$
=
 OpenBabel11042412283D

 26 31  0  0  1  0  0  0  0  0999 V2000
  180.7850  176.9070  138.5640 C   0  0  1  0  0  3  0  0  0  0  0  0
  183.1650  177.0310  138.2470 C   0  0  2  0  0  0  0  0  0  0  0  0
  181.1380  177.3900  139.9090 N   0  0  0  0  0  0  0  0  0  0  0  0
  184.1320  179.3930  139.4440 C   0  0  0  0  0  2  0  0  0  0  0  0
  182.7730  178.3560  137.9050 O   0  0  0  0  0  0  0  0  0  0  0  0
  179.1540  179.0510  142.6950 C   0  0  0  0  0  2  0  0  0  0  0  0
  181.8810  178.6570  141.9720 C   0  0  0  0  0  0  0  0  0  0  0  0
  180.8220  178.1120  141.1060 C   0  0  0  0  0  0  0  0  0  0  0  0
  180.2660  179.2450  143.6380 N   0  0  0  0  0  0  0  0  0  0  0  0
  183.3220  176.5720  139.6600 C   0  0  0  0  0  2  0  0  0  0  0  0
  184.2200  178.9730  140.8790 C   0  0  0  0  0  0  0  0  0  0  0  0
  181.5180  179.1220  143.3130 C   0  0  0  0  0  3  0  0  0  0  0  0
  184.0710  178.2800  138.3650 C   0  0  2  0  0  3  0  0  0  0  0  0
  179.5470  178.2620  141.4680 C   0  0  0  0  0  3  0  0  0  0  0  0
  183.0790  178.8340  141.5000 C   0  0  0  0  0  0  0  0  0  0  0  0
  181.9630  176.3930  139.1090 C   0  0  1  0  0  0  0  0  0  0  0  0
  179.7660  175.9620  138.6670 O   0  0  0  0  0  1  0  0  0  0  0  0
  186.7520  178.6410  140.6990 C   0  0  0  0  0  3  0  0  0  0  0  0
  188.0050  177.5670  142.5490 C   0  0  0  0  0  2  0  0  0  0  0  0
  185.5100  178.5890  141.4960 C   0  0  0  0  0  0  0  0  0  0  0  0
  187.9130  178.2010  141.1890 C   0  0  0  0  0  3  0  0  0  0  0  0
  186.8400  177.8810  143.3780 N   0  0  0  0  0  0  0  0  0  0  0  0
  185.5830  178.2410  142.7870 C   0  0  0  0  0  3  0  0  0  0  0  0
  186.8930  177.5690  144.7960 C   0  0  0  0  0  2  0  0  0  0  0  0
  185.7990  178.8810  146.5850 C   0  0  0  0  0  1  0  0  0  0  0  0
  185.5680  177.9030  145.4530 C   0  0  0  0  0  2  0  0  0  0  0  0
  1 17  1  1  0  0  0
  1 16  1  0  0  0  0
  1  3  1  0  0  0  0
  2 13  1  0  0  0  0
  2 16  1  0  0  0  0
  2 10  1  1  0  0  0
  3  8  1  0  0  0  0
  4 11  1  0  0  0  0
  5  2  1  0  0  0  0
  5 13  1  0  0  0  0
  6  9  1  0  0  0  0
  7 12  1  0  0  0  0
  8 14  2  0  0  0  0
  8  7  1  0  0  0  0
 11 20  1  0  0  0  0
 11 15  2  0  0  0  0
 12  9  2  0  0  0  0
 13  4  1  1  0  0  0
 14  6  1  0  0  0  0
 15  7  2  0  0  0  0
 16 10  1  1  0  0  0
 16  3  1  0  0  0  0
 18 21  2  0  0  0  0
 18 20  1  0  0  0  0
 19 22  1  0  0  0  0
 20 23  2  0  0  0  0
 21 19  1  0  0  0  0
 22 24  1  0  0  0  0
 23 22  1  0  0  0  0
 24 26  1  0  0  0  0
 26 25  1  0  0  0  0
M  END
>  <MODEL>
9

>  <REMARK>
 VINA RESULT:      -6.6      3.771      8.043
  Name = 
  3 active torsions:
  status: ('A' for Active; 'I' for Inactive)
    1  A    between atoms: C_9  and  C_14
    2  A    between atoms: C_19  and  C_22
    3  A    between atoms: C_22  and  N_23
                            x       y       z     vdW  Elec       q    Type
                         _______ _______ _______ _____ _____    ______ ____

>  <TORSDO>
F 3

$$$$
