=
 OpenBabel11042412043D

 30 31  0  0  1  0  0  0  0  0999 V2000
  191.0800  176.2370  143.1440 C   0  0  0  0  0  2  0  0  0  0  0  0
  187.8410  177.4660  143.1020 C   0  0  0  0  0  0  0  0  0  0  0  0
  189.1700  177.1250  140.9700 C   0  0  0  0  0  0  0  0  0  0  0  0
  189.7830  175.9890  143.0920 C   0  0  0  0  0  2  0  0  0  0  0  0
  189.9280  176.3700  140.3000 O   0  0  0  0  0  0  0  0  0  0  0  0
  190.0990  177.2390  145.5370 C   0  0  0  0  0  0  0  0  0  0  0  0
  191.7540  175.7910  144.3930 C   0  0  0  0  0  2  0  0  0  0  0  0
  191.2920  176.6640  145.5570 C   0  0  0  0  0  0  0  0  0  0  0  0
  188.9150  176.8370  142.3620 N   0  0  0  0  0  0  0  0  0  0  0  0
  187.8940  177.8370  144.4090 C   0  0  0  0  0  3  0  0  0  0  0  0
  188.9120  177.8030  145.5080 C   0  0  0  0  0  3  0  0  0  0  0  0
  193.1530  176.2110  148.9340 C   0  0  0  0  0  1  0  0  0  0  0  0
  192.2640  175.8750  147.7910 C   0  0  0  0  0  0  0  0  0  0  0  0
  192.0980  176.8250  146.7310 N   0  0  0  0  0  2  0  0  0  0  0  0
  191.6780  174.7620  147.7710 O   0  0  0  0  0  0  0  0  0  0  0  0
  186.5260  177.6800  142.4230 C   0  0  0  0  0  2  0  0  0  0  0  0
  185.6010  178.4490  143.3050 C   0  0  0  0  0  0  0  0  0  0  0  0
  185.0990  179.6550  143.0000 N   0  0  0  0  0  0  0  0  0  0  0  0
  184.3220  179.0710  144.9330 C   0  0  0  0  0  3  0  0  0  0  0  0
  185.1360  178.0250  144.5320 C   0  0  0  0  0  3  0  0  0  0  0  0
  184.3400  179.9930  143.9970 O   0  0  0  0  0  0  0  0  0  0  0  0
  188.6190  178.3590  140.3200 C   0  0  0  0  0  2  0  0  0  0  0  0
  186.7140  178.5200  138.8070 N   0  0  0  0  0  1  0  0  0  0  0  0
  188.0950  178.0780  138.9210 C   0  0  1  0  0  3  0  0  0  0  0  0
  188.9540  178.8210  137.9110 C   0  0  0  0  0  2  0  0  0  0  0  0
  189.4250  177.8930  136.8030 C   0  0  0  0  0  2  0  0  0  0  0  0
  189.0920  176.5160  137.1320 N   0  0  0  0  0  2  0  0  0  0  0  0
  191.3550  176.1840  136.9920 C   0  0  0  0  0  1  0  0  0  0  0  0
  189.8960  174.3710  137.0800 C   0  0  0  0  0  1  0  0  0  0  0  0
  190.0630  175.7050  136.5300 N   0  0  0  0  0  0  0  0  0  0  0  0
  1  7  1  0  0  0  0
  2 10  2  0  0  0  0
  3  9  1  0  0  0  0
  4  1  1  0  0  0  0
  5  3  2  0  0  0  0
  6  8  2  0  0  0  0
  7  8  1  0  0  0  0
  8 14  1  0  0  0  0
  9  4  1  0  0  0  0
  9  2  1  0  0  0  0
 10 11  1  0  0  0  0
 11  6  2  0  0  0  0
 13 12  1  0  0  0  0
 14 13  1  0  0  0  0
 15 13  2  0  0  0  0
 16  2  1  0  0  0  0
 16 17  1  0  0  0  0
 17 20  1  0  0  0  0
 18 17  2  0  0  0  0
 18 21  1  0  0  0  0
 20 19  2  0  0  0  0
 21 19  1  0  0  0  0
 22  3  1  0  0  0  0
 24 23  1  1  0  0  0
 24 22  1  0  0  0  0
 25 24  1  0  0  0  0
 26 27  1  0  0  0  0
 26 25  1  0  0  0  0
 30 28  1  0  0  0  0
 30 29  1  0  0  0  0
 30 27  1  0  0  0  0
M  END
>  <MODEL>
1

>  <REMARK>
 VINA RESULT:      -7.4      0.000      0.000
  Name = 
  9 active torsions:
  status: ('A' for Active; 'I' for Inactive)
    1  A    between atoms: C_2  and  C_19
    2  A    between atoms: C_3  and  C_22
    3  A    between atoms: C_5  and  N_11
    4  A    between atoms: C_5  and  C_15
    5  A    between atoms: C_8  and  C_19
    6  A    between atoms: N_11  and  N_26
    7  A    between atoms: N_14  and  C_18
    8  A    between atoms: C_15  and  C_17
    9  A    between atoms: C_17  and  C_22
                            x       y       z     vdW  Elec       q    Type
                         _______ _______ _______ _____ _____    ______ ____

>  <TORSDO>
F 9

$$$$
=
 OpenBabel11042412043D

 30 31  0  0  1  0  0  0  0  0999 V2000
  187.0320  178.6050  140.5810 C   0  0  0  0  0  2  0  0  0  0  0  0
  189.6800  177.2300  142.3400 C   0  0  0  0  0  0  0  0  0  0  0  0
  189.7960  177.6200  139.8380 C   0  0  0  0  0  0  0  0  0  0  0  0
  188.1420  178.7930  141.2730 C   0  0  0  0  0  2  0  0  0  0  0  0
  189.5780  178.4060  138.8750 O   0  0  0  0  0  0  0  0  0  0  0  0
  186.4550  177.5710  143.0890 C   0  0  0  0  0  0  0  0  0  0  0  0
  185.7910  179.0880  141.2440 C   0  0  0  0  0  2  0  0  0  0  0  0
  185.4830  178.2010  142.4480 C   0  0  0  0  0  0  0  0  0  0  0  0
  189.2350  177.9030  141.1380 N   0  0  0  0  0  0  0  0  0  0  0  0
  188.8860  176.8670  143.3830 C   0  0  0  0  0  3  0  0  0  0  0  0
  187.4280  176.9540  143.7210 C   0  0  0  0  0  3  0  0  0  0  0  0
  182.0820  178.7320  144.2450 C   0  0  0  0  0  1  0  0  0  0  0  0
  183.4770  179.0170  143.8150 C   0  0  0  0  0  0  0  0  0  0  0  0
  184.1490  178.0830  142.9620 N   0  0  0  0  0  2  0  0  0  0  0  0
  184.0390  180.0730  144.2040 O   0  0  0  0  0  0  0  0  0  0  0  0
  191.1390  176.9520  142.5140 C   0  0  0  0  0  2  0  0  0  0  0  0
  191.4450  176.6290  143.9380 C   0  0  0  0  0  0  0  0  0  0  0  0
  191.8720  175.4310  144.3630 N   0  0  0  0  0  0  0  0  0  0  0  0
  191.7350  176.7450  146.0770 C   0  0  0  0  0  3  0  0  0  0  0  0
  191.3400  177.5110  144.9930 C   0  0  0  0  0  3  0  0  0  0  0  0
  192.0340  175.5400  145.6460 O   0  0  0  0  0  0  0  0  0  0  0  0
  190.5660  176.3590  139.5840 C   0  0  0  0  0  2  0  0  0  0  0  0
  192.8540  176.7110  138.8180 N   0  0  0  0  0  1  0  0  0  0  0  0
  191.4850  176.4880  138.3800 C   0  0  1  0  0  3  0  0  0  0  0  0
  191.4130  175.2100  137.5610 C   0  0  0  0  0  2  0  0  0  0  0  0
  190.0200  175.0010  136.9900 C   0  0  0  0  0  2  0  0  0  0  0  0
  189.7070  176.0580  136.0420 N   0  0  0  0  0  2  0  0  0  0  0  0
  187.7740  175.6480  137.2010 C   0  0  0  0  0  1  0  0  0  0  0  0
  187.9520  177.5140  135.8200 C   0  0  0  0  0  1  0  0  0  0  0  0
  188.3110  176.1110  135.9330 N   0  0  0  0  0  0  0  0  0  0  0  0
  1  7  1  0  0  0  0
  1  4  1  0  0  0  0
  2 16  1  0  0  0  0
  2 10  2  0  0  0  0
  3  9  1  0  0  0  0
  5  3  2  0  0  0  0
  6 11  2  0  0  0  0
  7  8  1  0  0  0  0
  8 14  1  0  0  0  0
  8  6  2  0  0  0  0
  9  4  1  0  0  0  0
  9  2  1  0  0  0  0
 10 11  1  0  0  0  0
 13 15  2  0  0  0  0
 13 12  1  0  0  0  0
 14 13  1  0  0  0  0
 16 17  1  0  0  0  0
 17 18  2  0  0  0  0
 17 20  1  0  0  0  0
 18 21  1  0  0  0  0
 20 19  2  0  0  0  0
 21 19  1  0  0  0  0
 22  3  1  0  0  0  0
 24 23  1  1  0  0  0
 24 22  1  0  0  0  0
 25 24  1  0  0  0  0
 26 25  1  0  0  0  0
 27 26  1  0  0  0  0
 29 30  1  0  0  0  0
 30 27  1  0  0  0  0
 30 28  1  0  0  0  0
M  END
>  <MODEL>
2

>  <REMARK>
 VINA RESULT:      -7.4      1.763      5.925
  Name = 
  9 active torsions:
  status: ('A' for Active; 'I' for Inactive)
    1  A    between atoms: C_2  and  C_19
    2  A    between atoms: C_3  and  C_22
    3  A    between atoms: C_5  and  N_11
    4  A    between atoms: C_5  and  C_15
    5  A    between atoms: C_8  and  C_19
    6  A    between atoms: N_11  and  N_26
    7  A    between atoms: N_14  and  C_18
    8  A    between atoms: C_15  and  C_17
    9  A    between atoms: C_17  and  C_22
                            x       y       z     vdW  Elec       q    Type
                         _______ _______ _______ _____ _____    ______ ____

>  <TORSDO>
F 9

$$$$
=
 OpenBabel11042412043D

 30 31  0  0  1  0  0  0  0  0999 V2000
  188.7480  176.6780  142.0740 C   0  0  0  0  0  2  0  0  0  0  0  0
  189.9450  177.2760  145.2690 C   0  0  0  0  0  0  0  0  0  0  0  0
  187.4630  177.2480  144.7540 C   0  0  0  0  0  0  0  0  0  0  0  0
  189.1270  176.1920  143.2430 C   0  0  0  0  0  2  0  0  0  0  0  0
  186.5060  176.6660  144.1730 O   0  0  0  0  0  0  0  0  0  0  0  0
  191.4140  177.4150  142.2850 C   0  0  0  0  0  0  0  0  0  0  0  0
  189.6390  176.3330  140.9330 C   0  0  0  0  0  2  0  0  0  0  0  0
  190.9650  177.0730  141.0870 C   0  0  0  0  0  0  0  0  0  0  0  0
  188.8240  176.8810  144.4430 N   0  0  0  0  0  0  0  0  0  0  0  0
  191.1800  177.6170  144.8150 C   0  0  0  0  0  3  0  0  0  0  0  0
  191.8500  177.7450  143.4800 C   0  0  0  0  0  3  0  0  0  0  0  0
  192.9000  176.9640  137.7220 C   0  0  0  0  0  1  0  0  0  0  0  0
  192.0040  176.5050  138.8160 C   0  0  0  0  0  0  0  0  0  0  0  0
  191.7970  177.3510  139.9520 N   0  0  0  0  0  2  0  0  0  0  0  0
  191.4400  175.3830  138.7220 O   0  0  0  0  0  0  0  0  0  0  0  0
  189.7870  177.2580  146.7560 C   0  0  0  0  0  2  0  0  0  0  0  0
  191.0380  176.7710  147.4090 C   0  0  0  0  0  0  0  0  0  0  0  0
  191.7720  177.4990  148.2630 N   0  0  0  0  0  0  0  0  0  0  0  0
  192.7150  175.5630  148.0430 C   0  0  0  0  0  3  0  0  0  0  0  0
  191.5930  175.5220  147.2310 C   0  0  0  0  0  3  0  0  0  0  0  0
  192.7650  176.7430  148.6200 O   0  0  0  0  0  0  0  0  0  0  0  0
  187.1600  178.3730  145.6980 C   0  0  0  0  0  2  0  0  0  0  0  0
  185.3700  178.9700  147.2420 N   0  0  0  0  0  1  0  0  0  0  0  0
  185.6640  178.5820  145.8720 C   0  0  1  0  0  3  0  0  0  0  0  0
  185.2020  179.6730  144.9200 C   0  0  0  0  0  2  0  0  0  0  0  0
  184.3990  179.0930  143.7680 C   0  0  0  0  0  2  0  0  0  0  0  0
  185.0800  179.3500  142.5080 N   0  0  0  0  0  2  0  0  0  0  0  0
  183.1240  178.5650  141.6100 C   0  0  0  0  0  1  0  0  0  0  0  0
  184.9940  178.8980  140.2640 C   0  0  0  0  0  1  0  0  0  0  0  0
  184.5700  178.4380  141.5750 N   0  0  0  0  0  0  0  0  0  0  0  0
  1  4  1  0  0  0  0
  2 16  1  0  0  0  0
  3 22  1  0  0  0  0
  4  9  1  0  0  0  0
  5  3  2  0  0  0  0
  6 11  2  0  0  0  0
  7  8  1  0  0  0  0
  7  1  1  0  0  0  0
  8  6  2  0  0  0  0
  9  3  1  0  0  0  0
  9  2  1  0  0  0  0
 10  2  2  0  0  0  0
 11 10  1  0  0  0  0
 12 13  1  0  0  0  0
 13 14  1  0  0  0  0
 14  8  1  0  0  0  0
 15 13  2  0  0  0  0
 16 17  1  0  0  0  0
 17 18  2  0  0  0  0
 18 21  1  0  0  0  0
 19 21  1  0  0  0  0
 20 17  1  0  0  0  0
 20 19  2  0  0  0  0
 22 24  1  0  0  0  0
 24 23  1  1  0  0  0
 25 24  1  0  0  0  0
 26 25  1  0  0  0  0
 27 26  1  0  0  0  0
 29 30  1  0  0  0  0
 30 28  1  0  0  0  0
 30 27  1  0  0  0  0
M  END
>  <MODEL>
3

>  <REMARK>
 VINA RESULT:      -7.2      2.353      6.937
  Name = 
  9 active torsions:
  status: ('A' for Active; 'I' for Inactive)
    1  A    between atoms: C_2  and  C_19
    2  A    between atoms: C_3  and  C_22
    3  A    between atoms: C_5  and  N_11
    4  A    between atoms: C_5  and  C_15
    5  A    between atoms: C_8  and  C_19
    6  A    between atoms: N_11  and  N_26
    7  A    between atoms: N_14  and  C_18
    8  A    between atoms: C_15  and  C_17
    9  A    between atoms: C_17  and  C_22
                            x       y       z     vdW  Elec       q    Type
                         _______ _______ _______ _____ _____    ______ ____

>  <TORSDO>
F 9

$$$$
=
 OpenBabel11042412043D

 30 31  0  0  1  0  0  0  0  0999 V2000
  184.0290  178.7080  144.8520 C   0  0  0  0  0  2  0  0  0  0  0  0
  184.6340  178.9420  141.4480 C   0  0  0  0  0  0  0  0  0  0  0  0
  182.2820  178.9820  142.3950 C   0  0  0  0  0  0  0  0  0  0  0  0
  184.2700  179.4730  143.8010 C   0  0  0  0  0  2  0  0  0  0  0  0
  181.4980  179.4380  143.2720 O   0  0  0  0  0  0  0  0  0  0  0  0
  186.5310  177.8940  143.9750 C   0  0  0  0  0  0  0  0  0  0  0  0
  185.1210  178.6690  145.8610 C   0  0  0  0  0  2  0  0  0  0  0  0
  186.3180  177.9190  145.2820 C   0  0  0  0  0  0  0  0  0  0  0  0
  183.7080  179.1630  142.5390 N   0  0  0  0  0  0  0  0  0  0  0  0
  185.8810  178.4130  141.5660 C   0  0  0  0  0  3  0  0  0  0  0  0
  186.7350  177.8800  142.6770 C   0  0  0  0  0  3  0  0  0  0  0  0
  189.5500  176.7550  147.0920 C   0  0  0  0  0  1  0  0  0  0  0  0
  188.7000  177.4950  146.1230 C   0  0  0  0  0  0  0  0  0  0  0  0
  187.2830  177.2880  146.1340 N   0  0  0  0  0  2  0  0  0  0  0  0
  189.2390  178.2940  145.3130 O   0  0  0  0  0  0  0  0  0  0  0  0
  184.2470  179.3800  140.0720 C   0  0  0  0  0  2  0  0  0  0  0  0
  184.8800  178.5020  139.0460 C   0  0  0  0  0  0  0  0  0  0  0  0
  186.1420  178.6410  138.6120 N   0  0  0  0  0  0  0  0  0  0  0  0
  185.2560  176.9570  137.5810 C   0  0  0  0  0  3  0  0  0  0  0  0
  184.2650  177.4380  138.4200 C   0  0  0  0  0  3  0  0  0  0  0  0
  186.3290  177.7000  137.7380 O   0  0  0  0  0  0  0  0  0  0  0  0
  181.7140  178.1810  141.2610 C   0  0  0  0  0  2  0  0  0  0  0  0
  180.8250  178.8450  139.0900 N   0  0  0  0  0  1  0  0  0  0  0  0
  180.6180  178.9370  140.5260 C   0  0  1  0  0  3  0  0  0  0  0  0
  179.2700  178.3340  140.8890 C   0  0  0  0  0  2  0  0  0  0  0  0
  179.1250  176.9330  140.3190 C   0  0  0  0  0  2  0  0  0  0  0  0
  179.1700  175.9520  141.3920 N   0  0  0  0  0  2  0  0  0  0  0  0
  180.0110  174.5250  139.8090 C   0  0  0  0  0  1  0  0  0  0  0  0
  179.2180  173.7060  141.8390 C   0  0  0  0  0  1  0  0  0  0  0  0
  178.9680  174.6960  140.8060 N   0  0  0  0  0  0  0  0  0  0  0  0
  1  7  1  0  0  0  0
  2 10  2  0  0  0  0
  2  9  1  0  0  0  0
  3  9  1  0  0  0  0
  3  5  2  0  0  0  0
  4  1  1  0  0  0  0
  6  8  2  0  0  0  0
  8  7  1  0  0  0  0
  8 14  1  0  0  0  0
  9  4  1  0  0  0  0
 10 11  1  0  0  0  0
 11  6  2  0  0  0  0
 13 14  1  0  0  0  0
 13 12  1  0  0  0  0
 15 13  2  0  0  0  0
 16  2  1  0  0  0  0
 17 16  1  0  0  0  0
 18 17  2  0  0  0  0
 19 21  1  0  0  0  0
 19 20  2  0  0  0  0
 20 17  1  0  0  0  0
 21 18  1  0  0  0  0
 22  3  1  0  0  0  0
 24 23  1  6  0  0  0
 24 25  1  0  0  0  0
 24 22  1  0  0  0  0
 26 25  1  0  0  0  0
 26 27  1  0  0  0  0
 28 30  1  0  0  0  0
 30 27  1  0  0  0  0
 30 29  1  0  0  0  0
M  END
>  <MODEL>
4

>  <REMARK>
 VINA RESULT:      -6.9      4.367      7.296
  Name = 
  9 active torsions:
  status: ('A' for Active; 'I' for Inactive)
    1  A    between atoms: C_2  and  C_19
    2  A    between atoms: C_3  and  C_22
    3  A    between atoms: C_5  and  N_11
    4  A    between atoms: C_5  and  C_15
    5  A    between atoms: C_8  and  C_19
    6  A    between atoms: N_11  and  N_26
    7  A    between atoms: N_14  and  C_18
    8  A    between atoms: C_15  and  C_17
    9  A    between atoms: C_17  and  C_22
                            x       y       z     vdW  Elec       q    Type
                         _______ _______ _______ _____ _____    ______ ____

>  <TORSDO>
F 9

$$$$
=
 OpenBabel11042412043D

 30 31  0  0  1  0  0  0  0  0999 V2000
  186.9480  178.6250  140.5900 C   0  0  0  0  0  2  0  0  0  0  0  0
  189.6270  177.3340  142.3660 C   0  0  0  0  0  0  0  0  0  0  0  0
  189.7140  177.6420  139.8510 C   0  0  0  0  0  0  0  0  0  0  0  0
  188.0630  178.8460  141.2630 C   0  0  0  0  0  2  0  0  0  0  0  0
  189.4780  178.3930  138.8640 O   0  0  0  0  0  0  0  0  0  0  0  0
  186.4060  177.6700  143.1360 C   0  0  0  0  0  0  0  0  0  0  0  0
  185.7090  179.1190  141.2490 C   0  0  0  0  0  2  0  0  0  0  0  0
  185.4210  178.2690  142.4840 C   0  0  0  0  0  0  0  0  0  0  0  0
  189.1630  177.9620  141.1470 N   0  0  0  0  0  0  0  0  0  0  0  0
  188.8470  176.9990  143.4280 C   0  0  0  0  0  3  0  0  0  0  0  0
  187.3920  177.0830  143.7780 C   0  0  0  0  0  3  0  0  0  0  0  0
  182.0630  178.7900  144.3630 C   0  0  0  0  0  1  0  0  0  0  0  0
  183.4560  179.0640  143.9220 C   0  0  0  0  0  0  0  0  0  0  0  0
  184.0950  178.1560  143.0160 N   0  0  0  0  0  2  0  0  0  0  0  0
  184.0480  180.0900  144.3470 O   0  0  0  0  0  0  0  0  0  0  0  0
  191.0900  177.0750  142.5330 C   0  0  0  0  0  2  0  0  0  0  0  0
  191.3970  176.6980  143.9440 C   0  0  0  0  0  0  0  0  0  0  0  0
  191.8920  175.5080  144.3130 N   0  0  0  0  0  0  0  0  0  0  0  0
  191.6520  176.7200  146.0900 C   0  0  0  0  0  3  0  0  0  0  0  0
  191.2240  177.5150  145.0400 C   0  0  0  0  0  3  0  0  0  0  0  0
  192.0310  175.5590  145.6020 O   0  0  0  0  0  0  0  0  0  0  0  0
  190.4930  176.3800  139.6310 C   0  0  0  0  0  2  0  0  0  0  0  0
  192.8230  176.8700  139.1060 N   0  0  0  0  0  1  0  0  0  0  0  0
  191.5300  176.5380  138.5290 C   0  0  1  0  0  3  0  0  0  0  0  0
  191.6350  175.2340  137.7560 C   0  0  0  0  0  2  0  0  0  0  0  0
  192.9500  175.1490  136.9990 C   0  0  0  0  0  2  0  0  0  0  0  0
  193.6760  173.9530  137.3960 N   0  0  0  0  0  2  0  0  0  0  0  0
  192.9250  172.5660  135.7340 C   0  0  0  0  0  1  0  0  0  0  0  0
  194.3390  174.3470  135.2390 C   0  0  0  0  0  1  0  0  0  0  0  0
  194.0760  173.3080  136.2180 N   0  0  0  0  0  0  0  0  0  0  0  0
  1  7  1  0  0  0  0
  1  4  1  0  0  0  0
  2 16  1  0  0  0  0
  2 10  2  0  0  0  0
  3  9  1  0  0  0  0
  5  3  2  0  0  0  0
  6 11  2  0  0  0  0
  7  8  1  0  0  0  0
  8 14  1  0  0  0  0
  8  6  2  0  0  0  0
  9  4  1  0  0  0  0
  9  2  1  0  0  0  0
 10 11  1  0  0  0  0
 13 15  2  0  0  0  0
 13 12  1  0  0  0  0
 14 13  1  0  0  0  0
 16 17  1  0  0  0  0
 17 18  2  0  0  0  0
 17 20  1  0  0  0  0
 18 21  1  0  0  0  0
 20 19  2  0  0  0  0
 21 19  1  0  0  0  0
 22  3  1  0  0  0  0
 24 23  1  1  0  0  0
 24 22  1  0  0  0  0
 25 24  1  0  0  0  0
 26 27  1  0  0  0  0
 26 25  1  0  0  0  0
 28 30  1  0  0  0  0
 29 30  1  0  0  0  0
 30 27  1  0  0  0  0
M  END
>  <MODEL>
5

>  <REMARK>
 VINA RESULT:      -6.9      2.222      6.102
  Name = 
  9 active torsions:
  status: ('A' for Active; 'I' for Inactive)
    1  A    between atoms: C_2  and  C_19
    2  A    between atoms: C_3  and  C_22
    3  A    between atoms: C_5  and  N_11
    4  A    between atoms: C_5  and  C_15
    5  A    between atoms: C_8  and  C_19
    6  A    between atoms: N_11  and  N_26
    7  A    between atoms: N_14  and  C_18
    8  A    between atoms: C_15  and  C_17
    9  A    between atoms: C_17  and  C_22
                            x       y       z     vdW  Elec       q    Type
                         _______ _______ _______ _____ _____    ______ ____

>  <TORSDO>
F 9

$$$$
=
 OpenBabel11042412043D

 30 31  0  0  1  0  0  0  0  0999 V2000
  187.0240  178.1460  141.6610 C   0  0  0  0  0  2  0  0  0  0  0  0
  189.7210  177.3860  139.6230 C   0  0  0  0  0  0  0  0  0  0  0  0
  187.4240  177.8830  138.6720 C   0  0  0  0  0  0  0  0  0  0  0  0
  188.0670  178.5710  140.9700 C   0  0  0  0  0  2  0  0  0  0  0  0
  186.4050  178.6270  138.6910 O   0  0  0  0  0  0  0  0  0  0  0  0
  189.1910  176.9140  142.8750 C   0  0  0  0  0  0  0  0  0  0  0  0
  187.1470  178.2920  143.1360 C   0  0  0  0  0  2  0  0  0  0  0  0
  188.1980  177.3140  143.6550 C   0  0  0  0  0  0  0  0  0  0  0  0
  188.4020  177.9750  139.7290 N   0  0  0  0  0  0  0  0  0  0  0  0
  190.4110  176.8060  140.6410 C   0  0  0  0  0  3  0  0  0  0  0  0
  190.1750  176.5270  142.0940 C   0  0  0  0  0  3  0  0  0  0  0  0
  188.8460  176.7550  147.4420 C   0  0  0  0  0  1  0  0  0  0  0  0
  189.0060  177.3410  146.0850 C   0  0  0  0  0  0  0  0  0  0  0  0
  188.1840  176.8600  145.0150 N   0  0  0  0  0  2  0  0  0  0  0  0
  189.8550  178.2510  145.9010 O   0  0  0  0  0  0  0  0  0  0  0  0
  190.4420  177.4620  138.3150 C   0  0  0  0  0  2  0  0  0  0  0  0
  191.1540  176.1810  138.0360 C   0  0  0  0  0  0  0  0  0  0  0  0
  190.5520  174.9840  137.9690 N   0  0  0  0  0  0  0  0  0  0  0  0
  192.6640  174.6990  137.5930 C   0  0  0  0  0  3  0  0  0  0  0  0
  192.5070  176.0590  137.8030 C   0  0  0  0  0  3  0  0  0  0  0  0
  191.4870  174.1240  137.7030 O   0  0  0  0  0  0  0  0  0  0  0  0
  187.5490  176.8540  137.5880 C   0  0  0  0  0  2  0  0  0  0  0  0
  188.0830  177.5640  135.3170 N   0  0  0  0  0  1  0  0  0  0  0  0
  186.9980  177.3550  136.2630 C   0  0  1  0  0  3  0  0  0  0  0  0
  186.0270  176.3260  135.7080 C   0  0  0  0  0  2  0  0  0  0  0  0
  185.9010  175.1320  136.6390 C   0  0  0  0  0  2  0  0  0  0  0  0
  184.5270  175.0020  137.0990 N   0  0  0  0  0  2  0  0  0  0  0  0
  183.5820  172.9640  136.6470 C   0  0  0  0  0  1  0  0  0  0  0  0
  185.7070  173.1010  137.5870 C   0  0  0  0  0  1  0  0  0  0  0  0
  184.3860  173.7030  137.6050 N   0  0  0  0  0  0  0  0  0  0  0  0
  1  7  1  0  0  0  0
  2  9  1  0  0  0  0
  2 10  2  0  0  0  0
  3  5  2  0  0  0  0
  3  9  1  0  0  0  0
  4  1  1  0  0  0  0
  6  8  2  0  0  0  0
  7  8  1  0  0  0  0
  8 14  1  0  0  0  0
  9  4  1  0  0  0  0
 10 11  1  0  0  0  0
 11  6  2  0  0  0  0
 13 12  1  0  0  0  0
 14 13  1  0  0  0  0
 15 13  2  0  0  0  0
 16  2  1  0  0  0  0
 17 16  1  0  0  0  0
 18 17  2  0  0  0  0
 19 21  1  0  0  0  0
 19 20  2  0  0  0  0
 20 17  1  0  0  0  0
 21 18  1  0  0  0  0
 22  3  1  0  0  0  0
 24 23  1  6  0  0  0
 24 22  1  0  0  0  0
 25 24  1  0  0  0  0
 25 26  1  0  0  0  0
 26 27  1  0  0  0  0
 27 30  1  0  0  0  0
 28 30  1  0  0  0  0
 29 30  1  0  0  0  0
M  END
>  <MODEL>
6

>  <REMARK>
 VINA RESULT:      -6.9      2.908      5.831
  Name = 
  9 active torsions:
  status: ('A' for Active; 'I' for Inactive)
    1  A    between atoms: C_2  and  C_19
    2  A    between atoms: C_3  and  C_22
    3  A    between atoms: C_5  and  N_11
    4  A    between atoms: C_5  and  C_15
    5  A    between atoms: C_8  and  C_19
    6  A    between atoms: N_11  and  N_26
    7  A    between atoms: N_14  and  C_18
    8  A    between atoms: C_15  and  C_17
    9  A    between atoms: C_17  and  C_22
                            x       y       z     vdW  Elec       q    Type
                         _______ _______ _______ _____ _____    ______ ____

>  <TORSDO>
F 9

$$$$
=
 OpenBabel11042412043D

 30 31  0  0  1  0  0  0  0  0999 V2000
  185.6560  178.4650  139.1940 C   0  0  0  0  0  2  0  0  0  0  0  0
  182.6140  177.9540  140.7720 C   0  0  0  0  0  0  0  0  0  0  0  0
  184.5950  178.9730  141.9830 C   0  0  0  0  0  0  0  0  0  0  0  0
  184.4570  178.9270  139.5040 C   0  0  0  0  0  2  0  0  0  0  0  0
  185.5420  179.8060  141.9550 O   0  0  0  0  0  0  0  0  0  0  0  0
  183.9080  176.6890  137.9780 C   0  0  0  0  0  0  0  0  0  0  0  0
  185.8670  178.1900  137.7480 C   0  0  0  0  0  2  0  0  0  0  0  0
  185.0270  176.9840  137.3350 C   0  0  0  0  0  0  0  0  0  0  0  0
  183.8820  178.6520  140.7690 N   0  0  0  0  0  0  0  0  0  0  0  0
  182.2150  177.0380  139.8500 C   0  0  0  0  0  3  0  0  0  0  0  0
  182.7960  176.4080  138.6200 C   0  0  0  0  0  3  0  0  0  0  0  0
  186.6190  174.4340  134.8780 C   0  0  0  0  0  1  0  0  0  0  0  0
  186.3940  175.1720  136.1480 C   0  0  0  0  0  0  0  0  0  0  0  0
  185.3830  176.1850  136.1990 N   0  0  0  0  0  2  0  0  0  0  0  0
  187.0910  174.8910  137.1580 O   0  0  0  0  0  0  0  0  0  0  0  0
  181.6080  178.2890  141.8260 C   0  0  0  0  0  2  0  0  0  0  0  0
  180.8110  179.4850  141.4260 C   0  0  0  0  0  0  0  0  0  0  0  0
  180.2610  180.3470  142.2940 N   0  0  0  0  0  0  0  0  0  0  0  0
  179.7910  181.0160  140.2910 C   0  0  0  0  0  3  0  0  0  0  0  0
  180.5430  179.8640  140.1280 C   0  0  0  0  0  3  0  0  0  0  0  0
  179.6610  181.2480  141.5780 O   0  0  0  0  0  0  0  0  0  0  0  0
  184.2870  178.2680  143.2710 C   0  0  0  0  0  2  0  0  0  0  0  0
  184.3480  178.8290  145.6430 N   0  0  0  0  0  1  0  0  0  0  0  0
  185.1340  178.7920  144.4200 C   0  0  1  0  0  3  0  0  0  0  0  0
  186.3330  177.8760  144.6100 C   0  0  0  0  0  2  0  0  0  0  0  0
  186.7050  177.7560  146.0780 C   0  0  0  0  0  2  0  0  0  0  0  0
  188.1480  177.8490  146.2360 N   0  0  0  0  0  2  0  0  0  0  0  0
  189.8490  176.7860  147.3420 C   0  0  0  0  0  1  0  0  0  0  0  0
  188.4380  178.2530  148.4720 C   0  0  0  0  0  1  0  0  0  0  0  0
  188.4680  177.2240  147.4480 N   0  0  0  0  0  0  0  0  0  0  0  0
  1  4  1  0  0  0  0
  2 16  1  0  0  0  0
  3 22  1  0  0  0  0
  4  9  1  0  0  0  0
  5  3  2  0  0  0  0
  6 11  2  0  0  0  0
  7  1  1  0  0  0  0
  8  7  1  0  0  0  0
  8  6  2  0  0  0  0
  9  2  1  0  0  0  0
  9  3  1  0  0  0  0
 10  2  2  0  0  0  0
 11 10  1  0  0  0  0
 12 13  1  0  0  0  0
 13 14  1  0  0  0  0
 13 15  2  0  0  0  0
 14  8  1  0  0  0  0
 17 16  1  0  0  0  0
 17 18  2  0  0  0  0
 19 21  1  0  0  0  0
 20 19  2  0  0  0  0
 20 17  1  0  0  0  0
 21 18  1  0  0  0  0
 22 24  1  0  0  0  0
 24 25  1  0  0  0  0
 24 23  1  1  0  0  0
 25 26  1  0  0  0  0
 26 27  1  0  0  0  0
 27 30  1  0  0  0  0
 28 30  1  0  0  0  0
 30 29  1  0  0  0  0
M  END
>  <MODEL>
7

>  <REMARK>
 VINA RESULT:      -6.8      3.873      8.723
  Name = 
  9 active torsions:
  status: ('A' for Active; 'I' for Inactive)
    1  A    between atoms: C_2  and  C_19
    2  A    between atoms: C_3  and  C_22
    3  A    between atoms: C_5  and  N_11
    4  A    between atoms: C_5  and  C_15
    5  A    between atoms: C_8  and  C_19
    6  A    between atoms: N_11  and  N_26
    7  A    between atoms: N_14  and  C_18
    8  A    between atoms: C_15  and  C_17
    9  A    between atoms: C_17  and  C_22
                            x       y       z     vdW  Elec       q    Type
                         _______ _______ _______ _____ _____    ______ ____

>  <TORSDO>
F 9

$$$$
=
 OpenBabel11042412043D

 30 31  0  0  1  0  0  0  0  0999 V2000
  185.5380  178.4620  139.3370 C   0  0  0  0  0  2  0  0  0  0  0  0
  182.5470  178.1890  141.0630 C   0  0  0  0  0  0  0  0  0  0  0  0
  184.6690  179.0040  142.1850 C   0  0  0  0  0  0  0  0  0  0  0  0
  184.4030  179.0220  139.7160 C   0  0  0  0  0  2  0  0  0  0  0  0
  185.6850  179.7500  142.1210 O   0  0  0  0  0  0  0  0  0  0  0  0
  183.5790  176.8730  138.1840 C   0  0  0  0  0  0  0  0  0  0  0  0
  185.6510  178.1990  137.8770 C   0  0  0  0  0  2  0  0  0  0  0  0
  184.6870  177.0810  137.4890 C   0  0  0  0  0  0  0  0  0  0  0  0
  183.8710  178.7720  141.0050 N   0  0  0  0  0  0  0  0  0  0  0  0
  182.0210  177.3320  140.1480 C   0  0  0  0  0  3  0  0  0  0  0  0
  182.4810  176.6780  138.8800 C   0  0  0  0  0  3  0  0  0  0  0  0
  185.8870  174.4250  134.9240 C   0  0  0  0  0  1  0  0  0  0  0  0
  185.7870  175.1490  136.2180 C   0  0  0  0  0  0  0  0  0  0  0  0
  184.9120  176.2770  136.3230 N   0  0  0  0  0  2  0  0  0  0  0  0
  186.4680  174.7540  137.2000 O   0  0  0  0  0  0  0  0  0  0  0  0
  181.6290  178.5900  142.1730 C   0  0  0  0  0  2  0  0  0  0  0  0
  180.7160  179.6830  141.7270 C   0  0  0  0  0  0  0  0  0  0  0  0
  180.0560  180.4990  142.5630 N   0  0  0  0  0  0  0  0  0  0  0  0
  179.5620  181.0670  140.5340 C   0  0  0  0  0  3  0  0  0  0  0  0
  180.4380  180.0010  140.4150 C   0  0  0  0  0  3  0  0  0  0  0  0
  179.3780  181.3120  141.8130 O   0  0  0  0  0  0  0  0  0  0  0  0
  184.3650  178.3030  143.4760 C   0  0  0  0  0  2  0  0  0  0  0  0
  184.6380  179.0020  145.7960 N   0  0  0  0  0  1  0  0  0  0  0  0
  185.3520  178.6770  144.5710 C   0  0  1  0  0  3  0  0  0  0  0  0
  186.2860  177.5040  144.8190 C   0  0  0  0  0  2  0  0  0  0  0  0
  187.5900  177.6710  144.0570 C   0  0  0  0  0  2  0  0  0  0  0  0
  188.0200  176.3890  143.5210 N   0  0  0  0  0  2  0  0  0  0  0  0
  189.1910  178.0900  142.5280 C   0  0  0  0  0  1  0  0  0  0  0  0
  190.1750  176.0030  142.8440 C   0  0  0  0  0  1  0  0  0  0  0  0
  188.9290  176.6610  142.4900 N   0  0  0  0  0  0  0  0  0  0  0  0
  1  4  1  0  0  0  0
  2 16  1  0  0  0  0
  3 22  1  0  0  0  0
  4  9  1  0  0  0  0
  5  3  2  0  0  0  0
  6 11  2  0  0  0  0
  7  1  1  0  0  0  0
  8  7  1  0  0  0  0
  8  6  2  0  0  0  0
  9  2  1  0  0  0  0
  9  3  1  0  0  0  0
 10  2  2  0  0  0  0
 11 10  1  0  0  0  0
 12 13  1  0  0  0  0
 13 14  1  0  0  0  0
 13 15  2  0  0  0  0
 14  8  1  0  0  0  0
 17 16  1  0  0  0  0
 17 18  2  0  0  0  0
 19 21  1  0  0  0  0
 20 19  2  0  0  0  0
 20 17  1  0  0  0  0
 21 18  1  0  0  0  0
 22 24  1  0  0  0  0
 24 25  1  0  0  0  0
 24 23  1  1  0  0  0
 26 25  1  0  0  0  0
 27 26  1  0  0  0  0
 30 28  1  0  0  0  0
 30 29  1  0  0  0  0
 30 27  1  0  0  0  0
M  END
>  <MODEL>
8

>  <REMARK>
 VINA RESULT:      -6.8      3.745      8.098
  Name = 
  9 active torsions:
  status: ('A' for Active; 'I' for Inactive)
    1  A    between atoms: C_2  and  C_19
    2  A    between atoms: C_3  and  C_22
    3  A    between atoms: C_5  and  N_11
    4  A    between atoms: C_5  and  C_15
    5  A    between atoms: C_8  and  C_19
    6  A    between atoms: N_11  and  N_26
    7  A    between atoms: N_14  and  C_18
    8  A    between atoms: C_15  and  C_17
    9  A    between atoms: C_17  and  C_22
                            x       y       z     vdW  Elec       q    Type
                         _______ _______ _______ _____ _____    ______ ____

>  <TORSDO>
F 9

$$$$
=
 OpenBabel11042412043D

 30 31  0  0  1  0  0  0  0  0999 V2000
  185.6310  178.1210  144.3160 C   0  0  0  0  0  2  0  0  0  0  0  0
  187.3210  177.9590  141.2950 C   0  0  0  0  0  0  0  0  0  0  0  0
  188.5220  177.7170  143.5150 C   0  0  0  0  0  0  0  0  0  0  0  0
  186.0690  177.3850  143.3090 C   0  0  0  0  0  2  0  0  0  0  0  0
  188.5380  177.1910  144.6620 O   0  0  0  0  0  0  0  0  0  0  0  0
  184.3160  179.1460  142.0990 C   0  0  0  0  0  0  0  0  0  0  0  0
  184.1510  178.2450  144.4030 C   0  0  0  0  0  2  0  0  0  0  0  0
  183.6460  179.0960  143.2410 C   0  0  0  0  0  0  0  0  0  0  0  0
  187.3240  177.6550  142.7110 N   0  0  0  0  0  0  0  0  0  0  0  0
  186.3190  178.5890  140.6260 C   0  0  0  0  0  3  0  0  0  0  0  0
  184.9880  179.1850  140.9700 C   0  0  0  0  0  3  0  0  0  0  0  0
  179.9470  180.2440  142.9650 C   0  0  0  0  0  1  0  0  0  0  0  0
  181.1450  179.3840  142.7730 C   0  0  0  0  0  0  0  0  0  0  0  0
  182.4000  179.8010  143.3220 N   0  0  0  0  0  2  0  0  0  0  0  0
  181.0330  178.3030  142.1380 O   0  0  0  0  0  0  0  0  0  0  0  0
  188.4680  177.4980  140.4550 C   0  0  0  0  0  2  0  0  0  0  0  0
  188.3700  178.0650  139.0790 C   0  0  0  0  0  0  0  0  0  0  0  0
  188.9550  179.2080  138.6930 N   0  0  0  0  0  0  0  0  0  0  0  0
  187.9000  178.3830  136.9930 C   0  0  0  0  0  3  0  0  0  0  0  0
  187.6810  177.4930  138.0310 C   0  0  0  0  0  3  0  0  0  0  0  0
  188.6520  179.3640  137.4410 O   0  0  0  0  0  0  0  0  0  0  0  0
  189.7300  178.4740  143.0480 C   0  0  0  0  0  2  0  0  0  0  0  0
  191.7290  177.5900  141.9680 N   0  0  0  0  0  1  0  0  0  0  0  0
  191.0080  177.6700  143.2280 C   0  0  1  0  0  3  0  0  0  0  0  0
  191.8780  178.3500  144.2730 C   0  0  0  0  0  2  0  0  0  0  0  0
  191.6100  177.7880  145.6600 C   0  0  0  0  0  2  0  0  0  0  0  0
  191.7280  176.3380  145.6410 N   0  0  0  0  0  2  0  0  0  0  0  0
  192.5100  175.7330  147.7080 C   0  0  0  0  0  1  0  0  0  0  0  0
  190.5330  176.9450  147.4990 C   0  0  0  0  0  1  0  0  0  0  0  0
  191.3130  175.8780  146.8970 N   0  0  0  0  0  0  0  0  0  0  0  0
  1  7  1  0  0  0  0
  2  9  1  0  0  0  0
  3  5  2  0  0  0  0
  4  1  1  0  0  0  0
  6  8  2  0  0  0  0
  8 14  1  0  0  0  0
  8  7  1  0  0  0  0
  9  4  1  0  0  0  0
  9  3  1  0  0  0  0
 10 11  1  0  0  0  0
 10  2  2  0  0  0  0
 11  6  2  0  0  0  0
 13 12  1  0  0  0  0
 13 14  1  0  0  0  0
 15 13  2  0  0  0  0
 16  2  1  0  0  0  0
 17 16  1  0  0  0  0
 18 17  2  0  0  0  0
 19 21  1  0  0  0  0
 19 20  2  0  0  0  0
 20 17  1  0  0  0  0
 21 18  1  0  0  0  0
 22 24  1  0  0  0  0
 22  3  1  0  0  0  0
 24 23  1  6  0  0  0
 24 25  1  0  0  0  0
 25 26  1  0  0  0  0
 27 26  1  0  0  0  0
 27 30  1  0  0  0  0
 30 29  1  0  0  0  0
 30 28  1  0  0  0  0
M  END
>  <MODEL>
9

>  <REMARK>
 VINA RESULT:      -6.7      2.402      7.880
  Name = 
  9 active torsions:
  status: ('A' for Active; 'I' for Inactive)
    1  A    between atoms: C_2  and  C_19
    2  A    between atoms: C_3  and  C_22
    3  A    between atoms: C_5  and  N_11
    4  A    between atoms: C_5  and  C_15
    5  A    between atoms: C_8  and  C_19
    6  A    between atoms: N_11  and  N_26
    7  A    between atoms: N_14  and  C_18
    8  A    between atoms: C_15  and  C_17
    9  A    between atoms: C_17  and  C_22
                            x       y       z     vdW  Elec       q    Type
                         _______ _______ _______ _____ _____    ______ ____

>  <TORSDO>
F 9

$$$$
