=
 OpenBabel11032421073D

 54 59  0  0  1  0  0  0  0  0999 V2000
  184.9140  178.7060  140.5240 C   0  0  0  0  0  3  0  0  0  0  0  0
  184.9150  178.8200  139.1950 C   0  0  0  0  0  0  0  0  0  0  0  0
  183.6810  178.8400  138.4690 N   0  0  0  0  0  2  0  0  0  0  0  0
  181.7710  179.1160  139.9530 C   0  0  1  0  0  3  0  0  0  0  0  0
  182.4510  178.2120  138.9390 C   0  0  1  0  0  3  0  0  0  0  0  0
  181.1970  178.9980  138.5490 C   0  0  2  0  0  3  0  0  0  0  0  0
  180.7520  180.2320  136.4130 C   0  0  0  0  0  2  0  0  0  0  0  0
  179.4980  182.3990  136.3290 C   0  0  0  0  0  3  0  0  0  0  0  0
  181.4670  180.2860  137.7730 C   0  0  1  0  0  3  0  0  0  0  0  0
  181.0490  181.4360  138.5750 N   0  0  0  0  0  2  0  0  0  0  0  0
  181.4570  182.6510  137.8800 C   0  0  0  0  0  2  0  0  0  0  0  0
  180.3600  183.1940  136.9920 C   0  0  0  0  0  0  0  0  0  0  0  0
  179.3870  180.9060  136.4600 C   0  0  0  0  0  2  0  0  0  0  0  0
  179.6170  185.4490  137.5680 O   0  0  0  0  0  0  0  0  0  0  0  0
  180.3250  184.6050  136.7400 N   0  0  0  0  0  0  0  0  0  0  0  0
  180.9390  185.0860  135.7660 O   0  0  0  0  0  0  0  0  0  0  0  0
  180.4380  177.2180  140.5280 O   0  0  0  0  0  0  0  0  0  0  0  0
  180.9640  178.2980  140.9070 C   0  0  0  0  0  0  0  0  0  0  0  0
  180.8290  178.7080  142.2630 N   0  0  0  0  0  1  0  0  0  0  0  0
  186.1290  178.9150  138.5070 O   0  0  0  0  0  0  0  0  0  0  0  0
  186.5770  177.9040  137.6090 C   0  0  1  0  0  3  0  0  0  0  0  0
  188.7120  179.0900  136.9540 C   0  0  0  0  0  2  0  0  0  0  0  0
  189.5350  178.0370  137.6960 C   0  0  1  0  0  3  0  0  0  0  0  0
  187.3870  178.5070  136.4570 C   0  0  0  0  0  2  0  0  0  0  0  0
  188.7230  177.4510  138.8570 C   0  0  0  0  0  2  0  0  0  0  0  0
  187.4020  176.8600  138.3620 C   0  0  0  0  0  2  0  0  0  0  0  0
  189.9350  177.0250  136.8170 O   0  0  0  0  0  0  0  0  0  0  0  0
  191.0790  176.4740  137.3940 C   0  0  0  0  0  2  0  0  0  0  0  0
  190.9930  174.9650  137.3410 C   0  0  0  0  0  2  0  0  0  0  0  0
  192.1530  174.4110  137.8800 O   0  0  0  0  0  0  0  0  0  0  0  0
  193.1210  175.4050  137.7330 C   0  0  0  0  0  2  0  0  0  0  0  0
  196.3150  173.6040  136.7600 C   0  0  0  0  0  2  0  0  0  0  0  0
  197.2540  174.3210  137.7290 C   0  0  0  0  0  2  0  0  0  0  0  0
  196.5940  174.3550  139.1030 C   0  0  0  0  0  2  0  0  0  0  0  0
  194.4810  174.8010  137.8090 C   0  0  0  0  0  0  0  0  0  0  0  0
  194.9870  174.2240  136.7570 N   0  0  0  0  0  0  0  0  0  0  0  0
  195.2690  174.9570  138.9970 N   0  0  0  0  0  2  0  0  0  0  0  0
  186.1730  178.6810  141.3210 C   0  0  0  0  0  2  0  0  0  0  0  0
  185.5960  178.2460  143.8890 C   0  0  0  0  0  0  0  0  0  0  0  0
  185.8530  178.4390  142.7270 C   0  0  0  0  0  0  0  0  0  0  0  0
  185.2940  178.0200  145.3050 C   0  0  0  0  0  2  0  0  0  0  0  0
  186.5680  177.6850  146.0760 C   0  0  1  0  0  3  0  0  0  0  0  0
  187.7960  177.7010  145.1550 C   0  0  0  0  0  2  0  0  0  0  0  0
  188.3770  176.8340  148.1370 C   0  0  0  0  0  2  0  0  0  0  0  0
  189.4100  176.8460  147.0030 C   0  0  0  0  0  2  0  0  0  0  0  0
  189.1370  177.8800  145.8850 C   0  0  1  0  0  3  0  0  0  0  0  0
  187.6970  178.0810  148.2770 O   0  0  0  0  0  0  0  0  0  0  0  0
  186.7710  178.5130  147.3240 C   0  0  0  0  0  0  0  0  0  0  0  0
  186.1560  179.6760  147.5080 C   0  0  0  0  0  2  0  0  0  0  0  0
  189.7740  177.7210  143.5570 C   0  0  0  0  0  2  0  0  0  0  0  0
  190.8910  176.9950  142.8510 C   0  0  0  0  0  2  0  0  0  0  0  0
  190.2340  178.0010  144.9140 N   0  0  0  0  0  0  0  0  0  0  0  0
  191.6070  176.2610  143.9530 C   0  0  0  0  0  2  0  0  0  0  0  0
  191.2650  177.0120  145.2250 C   0  0  0  0  0  2  0  0  0  0  0  0
  1 38  1  0  0  0  0
  2  1  2  0  0  0  0
  3  2  1  0  0  0  0
  4 18  1  1  0  0  0
  5  3  1  6  0  0  0
  5  4  1  0  0  0  0
  6  9  1  6  0  0  0
  6  5  1  0  0  0  0
  6  4  1  0  0  0  0
  7 13  1  0  0  0  0
  8 13  1  0  0  0  0
  8 12  2  0  0  0  0
  9  7  1  6  0  0  0
  9 10  1  0  0  0  0
 11 10  1  0  0  0  0
 12 11  1  0  0  0  0
 15 12  1  0  0  0  0
 15 14  2  0  0  0  0
 16 15  2  0  0  0  0
 17 18  2  0  0  0  0
 18 19  1  0  0  0  0
 20  2  1  0  0  0  0
 21 26  1  0  0  0  0
 21 20  1  1  0  0  0
 22 23  1  0  0  0  0
 23 27  1  6  0  0  0
 23 25  1  0  0  0  0
 24 22  1  0  0  0  0
 24 21  1  0  0  0  0
 26 25  1  0  0  0  0
 27 28  1  0  0  0  0
 29 28  1  0  0  0  0
 29 30  1  0  0  0  0
 31 35  1  0  0  0  0
 31 30  1  0  0  0  0
 32 33  1  0  0  0  0
 33 34  1  0  0  0  0
 35 37  1  0  0  0  0
 36 32  1  0  0  0  0
 36 35  2  0  0  0  0
 37 34  1  0  0  0  0
 38 40  1  0  0  0  0
 39 41  1  0  0  0  0
 40 39  3  0  0  0  0
 42 41  1  6  0  0  0
 42 48  1  0  0  0  0
 43 46  1  0  0  0  0
 43 42  1  0  0  0  0
 44 47  1  0  0  0  0
 45 44  1  0  0  0  0
 46 52  1  6  0  0  0
 46 45  1  0  0  0  0
 48 49  2  0  0  0  0
 48 47  1  0  0  0  0
 50 52  1  0  0  0  0
 51 50  1  0  0  0  0
 51 53  1  0  0  0  0
 52 54  1  0  0  0  0
 53 54  1  0  0  0  0
M  END
>  <MODEL>
1

>  <REMARK>
 VINA RESULT:      -8.5      0.000      0.000
  Name = 
  18 active torsions:
  status: ('A' for Active; 'I' for Inactive)
    1  A    between atoms: O_1  and  C_34
    2  A    between atoms: O_1  and  C_35
    3  A    between atoms: C_6  and  C_7
    4  A    between atoms: C_7  and  C_28
    5  A    between atoms: C_10  and  C_17
    6  A    between atoms: C_10  and  O_37
    7  A    between atoms: C_13  and  C_16
    8  A    between atoms: C_14  and  C_34
    9  A    between atoms: C_14  and  O_37
   10  A    between atoms: C_18  and  C_25
   11  A    between atoms: C_19  and  O_27
   12  A    between atoms: N_20  and  C_31
   13  A    between atoms: C_23  and  O_27
   14  A    between atoms: C_23  and  N_38
   15  A    between atoms: C_24  and  N_38
   16  A    between atoms: C_25  and  C_30
   17  A    between atoms: C_32  and  C_39
   18  A    between atoms: C_46  and  N_53
                            x       y       z     vdW  Elec       q    Type
                         _______ _______ _______ _____ _____    ______ ____

>  <TORSDO>
F 18

$$$$
=
 OpenBabel11032421073D

 54 59  0  0  1  0  0  0  0  0999 V2000
  185.0050  178.7550  140.2890 C   0  0  0  0  0  3  0  0  0  0  0  0
  185.0210  178.8210  138.9580 C   0  0  0  0  0  0  0  0  0  0  0  0
  183.7950  178.8130  138.2170 N   0  0  0  0  0  2  0  0  0  0  0  0
  183.0870  176.5090  138.5580 C   0  0  1  0  0  3  0  0  0  0  0  0
  183.2560  177.6320  137.5500 C   0  0  1  0  0  3  0  0  0  0  0  0
  181.8600  177.2530  138.0510 C   0  0  2  0  0  3  0  0  0  0  0  0
  179.7880  178.2890  139.0080 C   0  0  0  0  0  2  0  0  0  0  0  0
  178.9310  177.7520  141.3000 C   0  0  0  0  0  3  0  0  0  0  0  0
  181.3130  178.1550  139.1560 C   0  0  1  0  0  3  0  0  0  0  0  0
  181.6980  177.6160  140.4610 N   0  0  0  0  0  2  0  0  0  0  0  0
  181.2980  178.5720  141.4860 C   0  0  0  0  0  2  0  0  0  0  0  0
  179.9280  178.2640  142.0480 C   0  0  0  0  0  0  0  0  0  0  0  0
  179.0400  177.2860  139.8750 C   0  0  0  0  0  2  0  0  0  0  0  0
  179.3380  179.9700  143.6940 O   0  0  0  0  0  0  0  0  0  0  0  0
  179.6400  178.6590  143.3960 N   0  0  0  0  0  0  0  0  0  0  0  0
  179.6590  177.8160  144.3160 O   0  0  0  0  0  0  0  0  0  0  0  0
  184.2250  174.4700  138.0480 O   0  0  0  0  0  0  0  0  0  0  0  0
  183.2030  175.1860  137.8740 C   0  0  0  0  0  0  0  0  0  0  0  0
  182.1350  174.7030  137.0650 N   0  0  0  0  0  1  0  0  0  0  0  0
  186.2420  178.8930  138.2800 O   0  0  0  0  0  0  0  0  0  0  0  0
  186.6080  177.9600  137.2680 C   0  0  1  0  0  3  0  0  0  0  0  0
  188.9320  178.8890  136.9100 C   0  0  0  0  0  2  0  0  0  0  0  0
  189.5400  177.6300  137.5310 C   0  0  1  0  0  3  0  0  0  0  0  0
  187.5790  178.5880  136.2620 C   0  0  0  0  0  2  0  0  0  0  0  0
  188.5680  177.0190  138.5470 C   0  0  0  0  0  2  0  0  0  0  0  0
  187.2180  176.7090  137.8990 C   0  0  0  0  0  2  0  0  0  0  0  0
  189.8570  176.7020  136.5340 O   0  0  0  0  0  0  0  0  0  0  0  0
  190.6620  175.7530  137.1640 C   0  0  0  0  0  2  0  0  0  0  0  0
  191.9160  175.5330  136.3480 C   0  0  0  0  0  2  0  0  0  0  0  0
  193.0070  176.0990  137.0050 O   0  0  0  0  0  0  0  0  0  0  0  0
  194.0840  175.8970  136.1420 C   0  0  0  0  0  2  0  0  0  0  0  0
  196.0560  174.1320  138.8590 C   0  0  0  0  0  2  0  0  0  0  0  0
  196.7400  173.0950  137.9710 C   0  0  0  0  0  2  0  0  0  0  0  0
  197.2940  173.8040  136.7400 C   0  0  0  0  0  2  0  0  0  0  0  0
  195.1510  175.1220  136.8350 C   0  0  0  0  0  0  0  0  0  0  0  0
  195.0440  174.8820  138.1100 N   0  0  0  0  0  0  0  0  0  0  0  0
  196.2260  174.5490  136.0790 N   0  0  0  0  0  2  0  0  0  0  0  0
  186.2540  178.7600  141.1010 C   0  0  0  0  0  2  0  0  0  0  0  0
  185.6670  178.1830  143.6380 C   0  0  0  0  0  0  0  0  0  0  0  0
  185.9320  178.4390  142.4900 C   0  0  0  0  0  0  0  0  0  0  0  0
  185.3470  177.8860  145.0370 C   0  0  0  0  0  2  0  0  0  0  0  0
  186.6210  177.6020  145.8280 C   0  0  1  0  0  3  0  0  0  0  0  0
  187.8670  177.7290  144.9400 C   0  0  0  0  0  2  0  0  0  0  0  0
  188.4320  176.7870  147.9030 C   0  0  0  0  0  2  0  0  0  0  0  0
  189.4890  176.9060  146.7960 C   0  0  0  0  0  2  0  0  0  0  0  0
  189.1770  177.9620  145.7100 C   0  0  1  0  0  3  0  0  0  0  0  0
  187.6720  177.9840  148.0700 O   0  0  0  0  0  0  0  0  0  0  0  0
  186.7440  178.3930  147.1100 C   0  0  0  0  0  0  0  0  0  0  0  0
  186.0530  179.5080  147.3200 C   0  0  0  0  0  2  0  0  0  0  0  0
  189.8320  178.1190  143.3860 C   0  0  0  0  0  2  0  0  0  0  0  0
  190.9330  177.4680  142.5890 C   0  0  0  0  0  2  0  0  0  0  0  0
  190.2870  178.1870  144.7720 N   0  0  0  0  0  0  0  0  0  0  0  0
  191.6160  176.5620  143.5780 C   0  0  0  0  0  2  0  0  0  0  0  0
  191.2840  177.1320  144.9430 C   0  0  0  0  0  2  0  0  0  0  0  0
  1 38  1  0  0  0  0
  2  1  2  0  0  0  0
  3  2  1  0  0  0  0
  4 18  1  6  0  0  0
  5  6  1  0  0  0  0
  5  3  1  1  0  0  0
  5  4  1  0  0  0  0
  6  4  1  0  0  0  0
  6  9  1  1  0  0  0
  7 13  1  0  0  0  0
  8 12  2  0  0  0  0
  9  7  1  1  0  0  0
  9 10  1  0  0  0  0
 10 11  1  0  0  0  0
 11 12  1  0  0  0  0
 12 15  1  0  0  0  0
 13  8  1  0  0  0  0
 15 14  2  0  0  0  0
 15 16  2  0  0  0  0
 18 17  2  0  0  0  0
 19 18  1  0  0  0  0
 20  2  1  0  0  0  0
 21 26  1  0  0  0  0
 21 20  1  1  0  0  0
 22 23  1  0  0  0  0
 23 27  1  6  0  0  0
 23 25  1  0  0  0  0
 24 22  1  0  0  0  0
 24 21  1  0  0  0  0
 26 25  1  0  0  0  0
 27 28  1  0  0  0  0
 29 30  1  0  0  0  0
 29 28  1  0  0  0  0
 31 35  1  0  0  0  0
 31 30  1  0  0  0  0
 33 32  1  0  0  0  0
 34 33  1  0  0  0  0
 35 36  2  0  0  0  0
 36 32  1  0  0  0  0
 37 34  1  0  0  0  0
 37 35  1  0  0  0  0
 38 40  1  0  0  0  0
 39 41  1  0  0  0  0
 40 39  3  0  0  0  0
 42 41  1  6  0  0  0
 42 48  1  0  0  0  0
 43 46  1  0  0  0  0
 43 42  1  0  0  0  0
 44 47  1  0  0  0  0
 45 44  1  0  0  0  0
 46 52  1  6  0  0  0
 46 45  1  0  0  0  0
 48 49  2  0  0  0  0
 48 47  1  0  0  0  0
 50 52  1  0  0  0  0
 51 50  1  0  0  0  0
 51 53  1  0  0  0  0
 52 54  1  0  0  0  0
 53 54  1  0  0  0  0
M  END
>  <MODEL>
2

>  <REMARK>
 VINA RESULT:      -8.4      2.549      3.381
  Name = 
  18 active torsions:
  status: ('A' for Active; 'I' for Inactive)
    1  A    between atoms: O_1  and  C_34
    2  A    between atoms: O_1  and  C_35
    3  A    between atoms: C_6  and  C_7
    4  A    between atoms: C_7  and  C_28
    5  A    between atoms: C_10  and  C_17
    6  A    between atoms: C_10  and  O_37
    7  A    between atoms: C_13  and  C_16
    8  A    between atoms: C_14  and  C_34
    9  A    between atoms: C_14  and  O_37
   10  A    between atoms: C_18  and  C_25
   11  A    between atoms: C_19  and  O_27
   12  A    between atoms: N_20  and  C_31
   13  A    between atoms: C_23  and  O_27
   14  A    between atoms: C_23  and  N_38
   15  A    between atoms: C_24  and  N_38
   16  A    between atoms: C_25  and  C_30
   17  A    between atoms: C_32  and  C_39
   18  A    between atoms: C_46  and  N_53
                            x       y       z     vdW  Elec       q    Type
                         _______ _______ _______ _____ _____    ______ ____

>  <TORSDO>
F 18

$$$$
=
 OpenBabel11032421073D

 54 59  0  0  1  0  0  0  0  0999 V2000
  184.9560  178.7940  140.4970 C   0  0  0  0  0  3  0  0  0  0  0  0
  185.0330  178.6750  139.1710 C   0  0  0  0  0  0  0  0  0  0  0  0
  183.8470  178.4830  138.3910 N   0  0  0  0  0  2  0  0  0  0  0  0
  181.7170  179.0740  137.3710 C   0  0  1  0  0  3  0  0  0  0  0  0
  182.6140  179.2390  138.5860 C   0  0  1  0  0  3  0  0  0  0  0  0
  181.3750  178.3430  138.6600 C   0  0  2  0  0  3  0  0  0  0  0  0
  181.2990  176.1090  139.7940 C   0  0  0  0  0  2  0  0  0  0  0  0
  179.8340  174.2340  139.0090 C   0  0  0  0  0  3  0  0  0  0  0  0
  181.6560  176.8510  138.4950 C   0  0  1  0  0  3  0  0  0  0  0  0
  180.9140  176.3390  137.3420 N   0  0  0  0  0  2  0  0  0  0  0  0
  181.3170  174.9570  137.1150 C   0  0  0  0  0  2  0  0  0  0  0  0
  180.4040  173.9760  137.8160 C   0  0  0  0  0  0  0  0  0  0  0  0
  179.8870  175.5380  139.7540 C   0  0  0  0  0  2  0  0  0  0  0  0
  180.9210  171.5880  137.7820 O   0  0  0  0  0  0  0  0  0  0  0  0
  180.2500  172.6670  137.2500 N   0  0  0  0  0  0  0  0  0  0  0  0
  179.5010  172.4910  136.2680 O   0  0  0  0  0  0  0  0  0  0  0  0
  179.7130  180.1700  136.6660 O   0  0  0  0  0  0  0  0  0  0  0  0
  180.8420  180.2750  137.2160 C   0  0  0  0  0  0  0  0  0  0  0  0
  181.2570  181.5340  137.7360 N   0  0  0  0  0  1  0  0  0  0  0  0
  186.2790  178.7320  138.5390 O   0  0  0  0  0  0  0  0  0  0  0  0
  186.5370  178.0720  137.3030 C   0  0  1  0  0  3  0  0  0  0  0  0
  188.9120  178.9090  137.0730 C   0  0  0  0  0  2  0  0  0  0  0  0
  189.4430  177.4960  137.3170 C   0  0  1  0  0  3  0  0  0  0  0  0
  187.5180  178.8750  136.4430 C   0  0  0  0  0  2  0  0  0  0  0  0
  188.4640  176.7060  138.1920 C   0  0  0  0  0  2  0  0  0  0  0  0
  187.0720  176.6630  137.5600 C   0  0  0  0  0  2  0  0  0  0  0  0
  189.6540  176.8400  136.1000 O   0  0  0  0  0  0  0  0  0  0  0  0
  190.5350  175.8000  136.3960 C   0  0  0  0  0  2  0  0  0  0  0  0
  191.8020  176.3690  136.9960 C   0  0  0  0  0  2  0  0  0  0  0  0
  192.7290  175.3450  137.1880 O   0  0  0  0  0  0  0  0  0  0  0  0
  193.8490  175.7390  136.4550 C   0  0  0  0  0  2  0  0  0  0  0  0
  197.4360  174.5900  136.9030 C   0  0  0  0  0  2  0  0  0  0  0  0
  197.5030  174.7280  138.4230 C   0  0  0  0  0  2  0  0  0  0  0  0
  196.2500  174.0980  139.0200 C   0  0  0  0  0  2  0  0  0  0  0  0
  195.0790  175.1530  137.0570 C   0  0  0  0  0  0  0  0  0  0  0  0
  196.1890  175.1540  136.3780 N   0  0  0  0  0  0  0  0  0  0  0  0
  195.0630  174.6960  138.4170 N   0  0  0  0  0  2  0  0  0  0  0  0
  186.1620  178.9950  141.3480 C   0  0  0  0  0  2  0  0  0  0  0  0
  185.6230  178.2030  143.8380 C   0  0  0  0  0  0  0  0  0  0  0  0
  185.8700  178.5650  142.7150 C   0  0  0  0  0  0  0  0  0  0  0  0
  185.3130  177.7540  145.1980 C   0  0  0  0  0  2  0  0  0  0  0  0
  186.5970  177.5330  145.9930 C   0  0  1  0  0  3  0  0  0  0  0  0
  187.8330  177.6000  145.0850 C   0  0  0  0  0  2  0  0  0  0  0  0
  188.4340  176.8810  148.1020 C   0  0  0  0  0  2  0  0  0  0  0  0
  189.4780  176.9230  146.9780 C   0  0  0  0  0  2  0  0  0  0  0  0
  189.1500  177.8950  145.8210 C   0  0  1  0  0  3  0  0  0  0  0  0
  187.6710  178.0840  148.1900 O   0  0  0  0  0  0  0  0  0  0  0  0
  186.7300  178.4180  147.2130 C   0  0  0  0  0  0  0  0  0  0  0  0
  186.0360  179.5430  147.3470 C   0  0  0  0  0  2  0  0  0  0  0  0
  189.7430  178.1690  143.4910 C   0  0  0  0  0  2  0  0  0  0  0  0
  190.7200  177.4530  142.5950 C   0  0  0  0  0  2  0  0  0  0  0  0
  190.2490  178.0540  144.8560 N   0  0  0  0  0  0  0  0  0  0  0  0
  191.3070  176.3810  143.4730 C   0  0  0  0  0  2  0  0  0  0  0  0
  191.1000  176.8660  144.8940 C   0  0  0  0  0  2  0  0  0  0  0  0
  1 38  1  0  0  0  0
  2  1  2  0  0  0  0
  3  2  1  0  0  0  0
  4 18  1  1  0  0  0
  4  5  1  0  0  0  0
  4  6  1  0  0  0  0
  5  3  1  6  0  0  0
  5  6  1  0  0  0  0
  6  9  1  6  0  0  0
  8 13  1  0  0  0  0
  9  7  1  1  0  0  0
 10  9  1  0  0  0  0
 11 10  1  0  0  0  0
 11 12  1  0  0  0  0
 12  8  2  0  0  0  0
 13  7  1  0  0  0  0
 15 14  2  0  0  0  0
 15 12  1  0  0  0  0
 16 15  2  0  0  0  0
 17 18  2  0  0  0  0
 18 19  1  0  0  0  0
 20  2  1  0  0  0  0
 21 26  1  0  0  0  0
 21 20  1  1  0  0  0
 22 23  1  0  0  0  0
 23 27  1  6  0  0  0
 23 25  1  0  0  0  0
 24 22  1  0  0  0  0
 24 21  1  0  0  0  0
 26 25  1  0  0  0  0
 27 28  1  0  0  0  0
 28 29  1  0  0  0  0
 29 30  1  0  0  0  0
 31 35  1  0  0  0  0
 31 30  1  0  0  0  0
 32 33  1  0  0  0  0
 33 34  1  0  0  0  0
 35 37  1  0  0  0  0
 36 32  1  0  0  0  0
 36 35  2  0  0  0  0
 37 34  1  0  0  0  0
 38 40  1  0  0  0  0
 39 41  1  0  0  0  0
 40 39  3  0  0  0  0
 42 41  1  6  0  0  0
 42 48  1  0  0  0  0
 43 46  1  0  0  0  0
 43 42  1  0  0  0  0
 44 47  1  0  0  0  0
 45 44  1  0  0  0  0
 46 52  1  6  0  0  0
 46 45  1  0  0  0  0
 48 49  2  0  0  0  0
 48 47  1  0  0  0  0
 50 52  1  0  0  0  0
 51 53  1  0  0  0  0
 51 50  1  0  0  0  0
 52 54  1  0  0  0  0
 53 54  1  0  0  0  0
M  END
>  <MODEL>
3

>  <REMARK>
 VINA RESULT:      -8.1      2.245      4.138
  Name = 
  18 active torsions:
  status: ('A' for Active; 'I' for Inactive)
    1  A    between atoms: O_1  and  C_34
    2  A    between atoms: O_1  and  C_35
    3  A    between atoms: C_6  and  C_7
    4  A    between atoms: C_7  and  C_28
    5  A    between atoms: C_10  and  C_17
    6  A    between atoms: C_10  and  O_37
    7  A    between atoms: C_13  and  C_16
    8  A    between atoms: C_14  and  C_34
    9  A    between atoms: C_14  and  O_37
   10  A    between atoms: C_18  and  C_25
   11  A    between atoms: C_19  and  O_27
   12  A    between atoms: N_20  and  C_31
   13  A    between atoms: C_23  and  O_27
   14  A    between atoms: C_23  and  N_38
   15  A    between atoms: C_24  and  N_38
   16  A    between atoms: C_25  and  C_30
   17  A    between atoms: C_32  and  C_39
   18  A    between atoms: C_46  and  N_53
                            x       y       z     vdW  Elec       q    Type
                         _______ _______ _______ _____ _____    ______ ____

>  <TORSDO>
F 18

$$$$
=
 OpenBabel11032421073D

 54 59  0  0  1  0  0  0  0  0999 V2000
  185.0380  178.8990  140.4400 C   0  0  0  0  0  3  0  0  0  0  0  0
  185.0550  178.7290  139.1180 C   0  0  0  0  0  0  0  0  0  0  0  0
  183.8320  178.7270  138.3710 N   0  0  0  0  0  2  0  0  0  0  0  0
  181.6270  179.4460  137.6330 C   0  0  1  0  0  3  0  0  0  0  0  0
  182.6360  179.4630  138.7680 C   0  0  1  0  0  3  0  0  0  0  0  0
  181.3940  178.5730  138.8570 C   0  0  2  0  0  3  0  0  0  0  0  0
  181.5720  176.2440  139.7660 C   0  0  0  0  0  2  0  0  0  0  0  0
  179.9720  174.4170  139.1520 C   0  0  0  0  0  3  0  0  0  0  0  0
  181.6330  177.1080  138.4960 C   0  0  1  0  0  3  0  0  0  0  0  0
  180.6550  176.6880  137.4920 N   0  0  0  0  0  2  0  0  0  0  0  0
  180.9990  175.3400  137.0540 C   0  0  0  0  0  2  0  0  0  0  0  0
  180.2640  174.2800  137.8440 C   0  0  0  0  0  0  0  0  0  0  0  0
  180.1880  175.6490  139.9850 C   0  0  0  0  0  2  0  0  0  0  0  0
  180.8870  172.4790  136.3150 O   0  0  0  0  0  0  0  0  0  0  0  0
  179.9900  173.0250  137.2070 N   0  0  0  0  0  0  0  0  0  0  0  0
  178.9320  172.4120  137.4560 O   0  0  0  0  0  0  0  0  0  0  0  0
  179.7410  180.7550  136.9690 O   0  0  0  0  0  0  0  0  0  0  0  0
  180.7620  180.6620  137.7000 C   0  0  0  0  0  0  0  0  0  0  0  0
  181.0580  181.6990  138.6300 N   0  0  0  0  0  1  0  0  0  0  0  0
  186.2730  178.5460  138.4560 O   0  0  0  0  0  0  0  0  0  0  0  0
  186.3490  178.0630  137.1180 C   0  0  1  0  0  3  0  0  0  0  0  0
  188.8400  178.4250  136.8700 C   0  0  0  0  0  2  0  0  0  0  0  0
  189.0660  176.9130  136.8540 C   0  0  1  0  0  3  0  0  0  0  0  0
  187.4520  178.7820  136.3330 C   0  0  0  0  0  2  0  0  0  0  0  0
  187.9680  176.2040  137.6550 C   0  0  0  0  0  2  0  0  0  0  0  0
  186.5800  176.5520  137.1150 C   0  0  0  0  0  2  0  0  0  0  0  0
  189.0960  176.4410  135.5380 O   0  0  0  0  0  0  0  0  0  0  0  0
  190.2930  175.7330  135.4340 C   0  0  0  0  0  2  0  0  0  0  0  0
  190.0290  174.2600  135.6540 C   0  0  0  0  0  2  0  0  0  0  0  0
  188.8090  173.9120  135.0780 O   0  0  0  0  0  0  0  0  0  0  0  0
  188.5410  172.6310  135.5610 C   0  0  0  0  0  2  0  0  0  0  0  0
  185.4270  172.8940  137.7100 C   0  0  0  0  0  2  0  0  0  0  0  0
  184.4130  173.0530  136.5790 C   0  0  0  0  0  2  0  0  0  0  0  0
  184.7140  172.0070  135.5120 C   0  0  0  0  0  2  0  0  0  0  0  0
  187.1230  172.5450  136.0080 C   0  0  0  0  0  0  0  0  0  0  0  0
  186.8000  172.9540  137.2000 N   0  0  0  0  0  0  0  0  0  0  0  0
  186.1070  172.1200  135.0900 N   0  0  0  0  0  2  0  0  0  0  0  0
  186.2840  178.9080  141.2570 C   0  0  0  0  0  2  0  0  0  0  0  0
  185.7170  178.1840  143.7610 C   0  0  0  0  0  0  0  0  0  0  0  0
  185.9680  178.5140  142.6290 C   0  0  0  0  0  0  0  0  0  0  0  0
  185.4230  177.7760  145.1370 C   0  0  0  0  0  2  0  0  0  0  0  0
  186.7160  177.5420  145.9130 C   0  0  1  0  0  3  0  0  0  0  0  0
  187.9440  177.6800  145.0020 C   0  0  0  0  0  2  0  0  0  0  0  0
  188.5800  176.8240  147.9760 C   0  0  0  0  0  2  0  0  0  0  0  0
  189.6160  176.9430  146.8490 C   0  0  0  0  0  2  0  0  0  0  0  0
  189.2600  177.9650  145.7440 C   0  0  1  0  0  3  0  0  0  0  0  0
  187.7930  178.0040  148.1280 O   0  0  0  0  0  0  0  0  0  0  0  0
  186.8390  178.3670  147.1750 C   0  0  0  0  0  0  0  0  0  0  0  0
  186.1230  179.4690  147.3690 C   0  0  0  0  0  2  0  0  0  0  0  0
  189.8570  178.1620  143.4080 C   0  0  0  0  0  2  0  0  0  0  0  0
  190.9290  177.5140  142.5700 C   0  0  0  0  0  2  0  0  0  0  0  0
  190.3480  178.1950  144.7830 N   0  0  0  0  0  0  0  0  0  0  0  0
  191.6260  176.5790  143.5220 C   0  0  0  0  0  2  0  0  0  0  0  0
  191.3360  177.1250  144.9070 C   0  0  0  0  0  2  0  0  0  0  0  0
  1 38  1  0  0  0  0
  2  1  2  0  0  0  0
  3  2  1  0  0  0  0
  4 18  1  1  0  0  0
  4  5  1  0  0  0  0
  4  6  1  0  0  0  0
  5  3  1  6  0  0  0
  5  6  1  0  0  0  0
  6  9  1  6  0  0  0
  7 13  1  0  0  0  0
  8 13  1  0  0  0  0
  9  7  1  1  0  0  0
 10  9  1  0  0  0  0
 11 10  1  0  0  0  0
 11 12  1  0  0  0  0
 12  8  2  0  0  0  0
 14 15  2  0  0  0  0
 15 16  2  0  0  0  0
 15 12  1  0  0  0  0
 17 18  2  0  0  0  0
 18 19  1  0  0  0  0
 20  2  1  0  0  0  0
 21 20  1  1  0  0  0
 23 27  1  6  0  0  0
 23 22  1  0  0  0  0
 23 25  1  0  0  0  0
 24 22  1  0  0  0  0
 24 21  1  0  0  0  0
 26 21  1  0  0  0  0
 26 25  1  0  0  0  0
 28 27  1  0  0  0  0
 28 29  1  0  0  0  0
 30 31  1  0  0  0  0
 30 29  1  0  0  0  0
 31 35  1  0  0  0  0
 33 32  1  0  0  0  0
 34 33  1  0  0  0  0
 35 36  2  0  0  0  0
 36 32  1  0  0  0  0
 37 34  1  0  0  0  0
 37 35  1  0  0  0  0
 38 40  1  0  0  0  0
 39 41  1  0  0  0  0
 40 39  3  0  0  0  0
 42 41  1  6  0  0  0
 42 48  1  0  0  0  0
 43 46  1  0  0  0  0
 43 42  1  0  0  0  0
 44 47  1  0  0  0  0
 45 44  1  0  0  0  0
 46 52  1  6  0  0  0
 46 45  1  0  0  0  0
 48 49  2  0  0  0  0
 48 47  1  0  0  0  0
 50 52  1  0  0  0  0
 51 50  1  0  0  0  0
 51 53  1  0  0  0  0
 52 54  1  0  0  0  0
 53 54  1  0  0  0  0
M  END
>  <MODEL>
4

>  <REMARK>
 VINA RESULT:      -8.0      3.042      5.470
  Name = 
  18 active torsions:
  status: ('A' for Active; 'I' for Inactive)
    1  A    between atoms: O_1  and  C_34
    2  A    between atoms: O_1  and  C_35
    3  A    between atoms: C_6  and  C_7
    4  A    between atoms: C_7  and  C_28
    5  A    between atoms: C_10  and  C_17
    6  A    between atoms: C_10  and  O_37
    7  A    between atoms: C_13  and  C_16
    8  A    between atoms: C_14  and  C_34
    9  A    between atoms: C_14  and  O_37
   10  A    between atoms: C_18  and  C_25
   11  A    between atoms: C_19  and  O_27
   12  A    between atoms: N_20  and  C_31
   13  A    between atoms: C_23  and  O_27
   14  A    between atoms: C_23  and  N_38
   15  A    between atoms: C_24  and  N_38
   16  A    between atoms: C_25  and  C_30
   17  A    between atoms: C_32  and  C_39
   18  A    between atoms: C_46  and  N_53
                            x       y       z     vdW  Elec       q    Type
                         _______ _______ _______ _____ _____    ______ ____

>  <TORSDO>
F 18

$$$$
=
 OpenBabel11032421073D

 54 59  0  0  1  0  0  0  0  0999 V2000
  188.5050  177.3220  139.3130 C   0  0  0  0  0  3  0  0  0  0  0  0
  189.6460  177.0800  139.9590 C   0  0  0  0  0  0  0  0  0  0  0  0
  190.5670  176.1030  139.4600 N   0  0  0  0  0  2  0  0  0  0  0  0
  192.1520  175.0730  137.9260 C   0  0  1  0  0  3  0  0  0  0  0  0
  191.5740  176.3800  138.4410 C   0  0  1  0  0  3  0  0  0  0  0  0
  191.1780  175.8560  137.0580 C   0  0  2  0  0  3  0  0  0  0  0  0
  188.9670  175.7190  135.8860 C   0  0  0  0  0  2  0  0  0  0  0  0
  188.2290  173.6960  134.6050 C   0  0  0  0  0  3  0  0  0  0  0  0
  189.8330  175.1320  137.0120 C   0  0  1  0  0  3  0  0  0  0  0  0
  190.0590  173.6960  136.8470 N   0  0  0  0  0  2  0  0  0  0  0  0
  188.7750  173.0150  136.9610 C   0  0  0  0  0  2  0  0  0  0  0  0
  188.1200  172.8080  135.6130 C   0  0  0  0  0  0  0  0  0  0  0  0
  189.0960  174.9240  134.5940 C   0  0  0  0  0  2  0  0  0  0  0  0
  185.9330  171.8760  135.0490 O   0  0  0  0  0  0  0  0  0  0  0  0
  187.2380  171.6890  135.4490 N   0  0  0  0  0  0  0  0  0  0  0  0
  187.6460  170.5310  135.6670 O   0  0  0  0  0  0  0  0  0  0  0  0
  194.3350  176.0310  138.0920 O   0  0  0  0  0  0  0  0  0  0  0  0
  193.5500  175.2870  137.4460 C   0  0  0  0  0  0  0  0  0  0  0  0
  194.0200  174.6080  136.2870 N   0  0  0  0  0  1  0  0  0  0  0  0
  189.9420  177.7790  141.1330 O   0  0  0  0  0  0  0  0  0  0  0  0
  189.2860  177.5070  142.3680 C   0  0  1  0  0  3  0  0  0  0  0  0
  190.9060  175.7150  143.1140 C   0  0  0  0  0  2  0  0  0  0  0  0
  191.4300  176.6360  144.2170 C   0  0  1  0  0  3  0  0  0  0  0  0
  189.4510  176.0370  142.7700 C   0  0  0  0  0  2  0  0  0  0  0  0
  191.2760  178.1030  143.8000 C   0  0  0  0  0  2  0  0  0  0  0  0
  189.8200  178.4300  143.4630 C   0  0  0  0  0  2  0  0  0  0  0  0
  190.7510  176.3920  145.4160 O   0  0  0  0  0  0  0  0  0  0  0  0
  191.5950  176.8750  146.4150 C   0  0  0  0  0  2  0  0  0  0  0  0
  190.8370  176.9530  147.7220 C   0  0  0  0  0  2  0  0  0  0  0  0
  189.7570  177.8230  147.5850 O   0  0  0  0  0  0  0  0  0  0  0  0
  188.6310  177.0240  147.7800 C   0  0  0  0  0  2  0  0  0  0  0  0
  185.5600  178.9460  146.6570 C   0  0  0  0  0  2  0  0  0  0  0  0
  185.8670  178.9620  145.1610 C   0  0  0  0  0  2  0  0  0  0  0  0
  186.2830  177.5570  144.7400 C   0  0  0  0  0  2  0  0  0  0  0  0
  187.5050  177.5210  146.9400 C   0  0  0  0  0  0  0  0  0  0  0  0
  186.6920  178.4160  147.4220 N   0  0  0  0  0  0  0  0  0  0  0  0
  187.3900  177.1000  145.5740 N   0  0  0  0  0  2  0  0  0  0  0  0
  187.5170  178.3290  139.7940 C   0  0  0  0  0  2  0  0  0  0  0  0
  185.3120  178.1810  138.2990 C   0  0  0  0  0  0  0  0  0  0  0  0
  186.3080  178.2530  138.9740 C   0  0  0  0  0  0  0  0  0  0  0  0
  184.1020  178.0800  137.4780 C   0  0  0  0  0  2  0  0  0  0  0  0
  182.9060  177.6790  138.3360 C   0  0  1  0  0  3  0  0  0  0  0  0
  182.9520  178.3640  139.7100 C   0  0  0  0  0  2  0  0  0  0  0  0
  180.5630  176.3350  139.3110 C   0  0  0  0  0  2  0  0  0  0  0  0
  180.8840  177.0780  140.6150 C   0  0  0  0  0  2  0  0  0  0  0  0
  181.5960  178.4390  140.4300 C   0  0  1  0  0  3  0  0  0  0  0  0
  180.4480  177.2110  138.1910 O   0  0  0  0  0  0  0  0  0  0  0  0
  181.5680  177.8490  137.6510 C   0  0  0  0  0  0  0  0  0  0  0  0
  181.4100  178.6450  136.6000 C   0  0  0  0  0  2  0  0  0  0  0  0
  182.8430  178.7390  142.4810 C   0  0  0  0  0  2  0  0  0  0  0  0
  182.4250  178.8400  143.9250 C   0  0  0  0  0  2  0  0  0  0  0  0
  181.7210  179.2110  141.6750 N   0  0  0  0  0  0  0  0  0  0  0  0
  180.9310  178.6580  143.8890 C   0  0  0  0  0  2  0  0  0  0  0  0
  180.5140  179.0290  142.4790 C   0  0  0  0  0  2  0  0  0  0  0  0
  1 38  1  0  0  0  0
  1  2  2  0  0  0  0
  2 20  1  0  0  0  0
  3  2  1  0  0  0  0
  4 18  1  6  0  0  0
  4  5  1  0  0  0  0
  5  3  1  1  0  0  0
  6  9  1  1  0  0  0
  6  4  1  0  0  0  0
  6  5  1  0  0  0  0
  8 12  2  0  0  0  0
  9  7  1  6  0  0  0
 10 11  1  0  0  0  0
 10  9  1  0  0  0  0
 12 11  1  0  0  0  0
 13  8  1  0  0  0  0
 13  7  1  0  0  0  0
 14 15  2  0  0  0  0
 15 12  1  0  0  0  0
 15 16  2  0  0  0  0
 18 17  2  0  0  0  0
 19 18  1  0  0  0  0
 21 20  1  6  0  0  0
 21 24  1  0  0  0  0
 21 26  1  0  0  0  0
 22 23  1  0  0  0  0
 23 27  1  1  0  0  0
 24 22  1  0  0  0  0
 25 23  1  0  0  0  0
 26 25  1  0  0  0  0
 27 28  1  0  0  0  0
 28 29  1  0  0  0  0
 30 29  1  0  0  0  0
 30 31  1  0  0  0  0
 32 36  1  0  0  0  0
 33 32  1  0  0  0  0
 34 33  1  0  0  0  0
 34 37  1  0  0  0  0
 35 36  2  0  0  0  0
 35 31  1  0  0  0  0
 37 35  1  0  0  0  0
 39 40  3  0  0  0  0
 40 38  1  0  0  0  0
 41 39  1  0  0  0  0
 42 41  1  6  0  0  0
 42 43  1  0  0  0  0
 44 45  1  0  0  0  0
 46 43  1  1  0  0  0
 46 45  1  0  0  0  0
 46 52  1  0  0  0  0
 47 44  1  0  0  0  0
 48 47  1  0  0  0  0
 48 42  1  0  0  0  0
 49 48  2  0  0  0  0
 50 51  1  0  0  0  0
 52 54  1  0  0  0  0
 52 50  1  0  0  0  0
 53 51  1  0  0  0  0
 54 53  1  0  0  0  0
M  END
>  <MODEL>
5

>  <REMARK>
 VINA RESULT:      -7.7      2.987     10.494
  Name = 
  18 active torsions:
  status: ('A' for Active; 'I' for Inactive)
    1  A    between atoms: O_1  and  C_34
    2  A    between atoms: O_1  and  C_35
    3  A    between atoms: C_6  and  C_7
    4  A    between atoms: C_7  and  C_28
    5  A    between atoms: C_10  and  C_17
    6  A    between atoms: C_10  and  O_37
    7  A    between atoms: C_13  and  C_16
    8  A    between atoms: C_14  and  C_34
    9  A    between atoms: C_14  and  O_37
   10  A    between atoms: C_18  and  C_25
   11  A    between atoms: C_19  and  O_27
   12  A    between atoms: N_20  and  C_31
   13  A    between atoms: C_23  and  O_27
   14  A    between atoms: C_23  and  N_38
   15  A    between atoms: C_24  and  N_38
   16  A    between atoms: C_25  and  C_30
   17  A    between atoms: C_32  and  C_39
   18  A    between atoms: C_46  and  N_53
                            x       y       z     vdW  Elec       q    Type
                         _______ _______ _______ _____ _____    ______ ____

>  <TORSDO>
F 18

$$$$
=
 OpenBabel11032421073D

 54 59  0  0  1  0  0  0  0  0999 V2000
  187.3710  178.1400  140.9530 C   0  0  0  0  0  3  0  0  0  0  0  0
  186.6130  178.5750  139.9470 C   0  0  0  0  0  0  0  0  0  0  0  0
  185.2520  178.9600  140.1790 N   0  0  0  0  0  2  0  0  0  0  0  0
  183.0040  178.9260  141.1130 C   0  0  1  0  0  3  0  0  0  0  0  0
  184.4350  178.4410  141.2710 C   0  0  1  0  0  3  0  0  0  0  0  0
  183.3460  177.4790  140.7910 C   0  0  2  0  0  3  0  0  0  0  0  0
  182.8440  175.8320  138.9700 C   0  0  0  0  0  2  0  0  0  0  0  0
  180.9970  176.1600  137.3090 C   0  0  0  0  0  3  0  0  0  0  0  0
  183.3050  177.2660  139.2790 C   0  0  1  0  0  3  0  0  0  0  0  0
  182.4360  178.2720  138.6680 N   0  0  0  0  0  2  0  0  0  0  0  0
  182.5360  178.1430  137.2190 C   0  0  0  0  0  2  0  0  0  0  0  0
  181.4620  177.2400  136.6530 C   0  0  0  0  0  0  0  0  0  0  0  0
  181.3440  175.7580  138.7150 C   0  0  0  0  0  2  0  0  0  0  0  0
  179.9610  176.7590  134.7860 O   0  0  0  0  0  0  0  0  0  0  0  0
  181.0210  177.4690  135.3080 N   0  0  0  0  0  0  0  0  0  0  0  0
  181.5930  178.3170  134.5940 O   0  0  0  0  0  0  0  0  0  0  0  0
  181.1040  178.8100  142.5580 O   0  0  0  0  0  0  0  0  0  0  0  0
  182.3430  179.0110  142.4500 C   0  0  0  0  0  0  0  0  0  0  0  0
  183.1190  179.2670  143.6160 N   0  0  0  0  0  1  0  0  0  0  0  0
  187.1460  178.6490  138.6560 O   0  0  0  0  0  0  0  0  0  0  0  0
  186.5160  178.0370  137.5350 C   0  0  1  0  0  3  0  0  0  0  0  0
  188.5780  178.0300  136.0720 C   0  0  0  0  0  2  0  0  0  0  0  0
  188.6560  176.5060  136.1750 C   0  0  1  0  0  3  0  0  0  0  0  0
  187.1370  178.5200  136.2200 C   0  0  0  0  0  2  0  0  0  0  0  0
  188.0480  176.0330  137.5000 C   0  0  0  0  0  2  0  0  0  0  0  0
  186.6040  176.5150  137.6470 C   0  0  0  0  0  2  0  0  0  0  0  0
  187.9980  175.9120  135.0930 O   0  0  0  0  0  0  0  0  0  0  0  0
  188.2930  174.5520  135.1920 C   0  0  0  0  0  2  0  0  0  0  0  0
  187.1340  173.7440  134.6520 C   0  0  0  0  0  2  0  0  0  0  0  0
  186.3460  173.2920  135.7090 O   0  0  0  0  0  0  0  0  0  0  0  0
  185.1610  174.0200  135.6040 C   0  0  0  0  0  2  0  0  0  0  0  0
  183.0870  171.1700  137.0080 C   0  0  0  0  0  2  0  0  0  0  0  0
  181.7620  171.9210  137.1190 C   0  0  0  0  0  2  0  0  0  0  0  0
  181.5270  172.6810  135.8180 C   0  0  0  0  0  2  0  0  0  0  0  0
  183.9990  173.1440  135.9270 C   0  0  0  0  0  0  0  0  0  0  0  0
  184.1810  172.0810  136.6560 N   0  0  0  0  0  0  0  0  0  0  0  0
  182.6770  173.5340  135.5330 N   0  0  0  0  0  2  0  0  0  0  0  0
  188.7900  177.7280  140.7590 C   0  0  0  0  0  2  0  0  0  0  0  0
  190.2570  178.5680  142.8240 C   0  0  0  0  0  0  0  0  0  0  0  0
  189.5900  178.1910  141.8930 C   0  0  0  0  0  0  0  0  0  0  0  0
  191.0780  179.0190  143.9500 C   0  0  0  0  0  2  0  0  0  0  0  0
  190.7410  178.2240  145.2090 C   0  0  1  0  0  3  0  0  0  0  0  0
  189.2330  178.2500  145.4960 C   0  0  0  0  0  2  0  0  0  0  0  0
  190.9780  176.7540  147.6650 C   0  0  0  0  0  2  0  0  0  0  0  0
  189.4650  176.9970  147.7600 C   0  0  0  0  0  2  0  0  0  0  0  0
  188.7380  177.1090  146.4000 C   0  0  1  0  0  3  0  0  0  0  0  0
  191.3600  176.1310  146.4390 O   0  0  0  0  0  0  0  0  0  0  0  0
  191.3090  176.8230  145.2260 C   0  0  0  0  0  0  0  0  0  0  0  0
  191.6870  176.2010  144.1150 C   0  0  0  0  0  2  0  0  0  0  0  0
  186.6510  177.5600  145.2610 C   0  0  0  0  0  2  0  0  0  0  0  0
  185.4600  178.4140  145.6120 C   0  0  0  0  0  2  0  0  0  0  0  0
  187.2720  177.1520  146.5180 N   0  0  0  0  0  0  0  0  0  0  0  0
  185.8390  179.0540  146.9210 C   0  0  0  0  0  2  0  0  0  0  0  0
  186.8990  178.1500  147.5190 C   0  0  0  0  0  2  0  0  0  0  0  0
  2  3  1  0  0  0  0
  2  1  2  0  0  0  0
  4  5  1  0  0  0  0
  4 18  1  1  0  0  0
  5  3  1  6  0  0  0
  6  9  1  6  0  0  0
  6  4  1  0  0  0  0
  6  5  1  0  0  0  0
  8 13  1  0  0  0  0
  9  7  1  1  0  0  0
 10  9  1  0  0  0  0
 11 10  1  0  0  0  0
 12 11  1  0  0  0  0
 12  8  2  0  0  0  0
 13  7  1  0  0  0  0
 14 15  2  0  0  0  0
 15 12  1  0  0  0  0
 16 15  2  0  0  0  0
 18 17  2  0  0  0  0
 18 19  1  0  0  0  0
 20  2  1  0  0  0  0
 21 26  1  0  0  0  0
 21 20  1  1  0  0  0
 22 23  1  0  0  0  0
 22 24  1  0  0  0  0
 23 27  1  6  0  0  0
 23 25  1  0  0  0  0
 24 21  1  0  0  0  0
 25 26  1  0  0  0  0
 27 28  1  0  0  0  0
 29 28  1  0  0  0  0
 29 30  1  0  0  0  0
 31 30  1  0  0  0  0
 31 35  1  0  0  0  0
 32 33  1  0  0  0  0
 34 33  1  0  0  0  0
 35 36  2  0  0  0  0
 36 32  1  0  0  0  0
 37 34  1  0  0  0  0
 37 35  1  0  0  0  0
 38  1  1  0  0  0  0
 38 40  1  0  0  0  0
 39 41  1  0  0  0  0
 40 39  3  0  0  0  0
 42 41  1  6  0  0  0
 42 48  1  0  0  0  0
 42 43  1  0  0  0  0
 44 45  1  0  0  0  0
 46 43  1  1  0  0  0
 46 52  1  0  0  0  0
 46 45  1  0  0  0  0
 47 44  1  0  0  0  0
 48 47  1  0  0  0  0
 49 48  2  0  0  0  0
 50 51  1  0  0  0  0
 50 52  1  0  0  0  0
 51 53  1  0  0  0  0
 52 54  1  0  0  0  0
 53 54  1  0  0  0  0
M  END
>  <MODEL>
6

>  <REMARK>
 VINA RESULT:      -7.6      4.152      6.146
  Name = 
  18 active torsions:
  status: ('A' for Active; 'I' for Inactive)
    1  A    between atoms: O_1  and  C_34
    2  A    between atoms: O_1  and  C_35
    3  A    between atoms: C_6  and  C_7
    4  A    between atoms: C_7  and  C_28
    5  A    between atoms: C_10  and  C_17
    6  A    between atoms: C_10  and  O_37
    7  A    between atoms: C_13  and  C_16
    8  A    between atoms: C_14  and  C_34
    9  A    between atoms: C_14  and  O_37
   10  A    between atoms: C_18  and  C_25
   11  A    between atoms: C_19  and  O_27
   12  A    between atoms: N_20  and  C_31
   13  A    between atoms: C_23  and  O_27
   14  A    between atoms: C_23  and  N_38
   15  A    between atoms: C_24  and  N_38
   16  A    between atoms: C_25  and  C_30
   17  A    between atoms: C_32  and  C_39
   18  A    between atoms: C_46  and  N_53
                            x       y       z     vdW  Elec       q    Type
                         _______ _______ _______ _____ _____    ______ ____

>  <TORSDO>
F 18

$$$$
=
 OpenBabel11032421073D

 54 59  0  0  1  0  0  0  0  0999 V2000
  188.7780  177.1430  138.8950 C   0  0  0  0  0  3  0  0  0  0  0  0
  189.9380  176.8040  139.4580 C   0  0  0  0  0  0  0  0  0  0  0  0
  190.7940  175.8430  138.8300 N   0  0  0  0  0  2  0  0  0  0  0  0
  190.3730  175.3040  136.4930 C   0  0  1  0  0  3  0  0  0  0  0  0
  190.3200  174.8000  137.9250 C   0  0  1  0  0  3  0  0  0  0  0  0
  191.4110  174.3000  136.9740 C   0  0  2  0  0  3  0  0  0  0  0  0
  193.8180  173.9750  137.5900 C   0  0  0  0  0  2  0  0  0  0  0  0
  195.6960  174.3130  135.9670 C   0  0  0  0  0  3  0  0  0  0  0  0
  192.7620  174.9940  137.1320 C   0  0  1  0  0  3  0  0  0  0  0  0
  193.1270  175.6430  135.8720 N   0  0  0  0  0  2  0  0  0  0  0  0
  194.3390  176.4230  136.0940 C   0  0  0  0  0  2  0  0  0  0  0  0
  195.5890  175.6390  135.7580 C   0  0  0  0  0  0  0  0  0  0  0  0
  194.5960  173.3940  136.4170 C   0  0  0  0  0  2  0  0  0  0  0  0
  196.7070  177.7310  135.1710 O   0  0  0  0  0  0  0  0  0  0  0  0
  196.7500  176.3630  135.3270 N   0  0  0  0  0  0  0  0  0  0  0  0
  197.8150  175.7580  135.0910 O   0  0  0  0  0  0  0  0  0  0  0  0
  188.5220  175.2850  134.9820 O   0  0  0  0  0  0  0  0  0  0  0  0
  189.3350  174.6130  135.6710 C   0  0  0  0  0  0  0  0  0  0  0  0
  189.2930  173.1910  135.6190 N   0  0  0  0  0  1  0  0  0  0  0  0
  190.3170  177.3840  140.6720 O   0  0  0  0  0  0  0  0  0  0  0  0
  189.6220  177.1310  141.8890 C   0  0  1  0  0  3  0  0  0  0  0  0
  191.6670  176.4190  143.1940 C   0  0  0  0  0  2  0  0  0  0  0  0
  191.5800  177.6900  144.0410 C   0  0  1  0  0  3  0  0  0  0  0  0
  190.2880  176.0010  142.6810 C   0  0  0  0  0  2  0  0  0  0  0  0
  190.9280  178.8190  143.2350 C   0  0  0  0  0  2  0  0  0  0  0  0
  189.5450  178.4060  142.7280 C   0  0  0  0  0  2  0  0  0  0  0  0
  190.8580  177.4440  145.2130 O   0  0  0  0  0  0  0  0  0  0  0  0
  191.6700  176.5970  145.9670 C   0  0  0  0  0  2  0  0  0  0  0  0
  191.0600  176.4000  147.3370 C   0  0  0  0  0  2  0  0  0  0  0  0
  190.1410  177.4170  147.5900 O   0  0  0  0  0  0  0  0  0  0  0  0
  188.9190  176.7620  147.7430 C   0  0  0  0  0  2  0  0  0  0  0  0
  186.6560  177.8790  144.9120 C   0  0  0  0  0  2  0  0  0  0  0  0
  185.4530  178.2820  145.7620 C   0  0  0  0  0  2  0  0  0  0  0  0
  185.9500  179.1210  146.9340 C   0  0  0  0  0  2  0  0  0  0  0  0
  187.8600  177.4820  146.9830 C   0  0  0  0  0  0  0  0  0  0  0  0
  187.6740  177.2060  145.7250 N   0  0  0  0  0  0  0  0  0  0  0  0
  186.9800  178.3880  147.6620 N   0  0  0  0  0  2  0  0  0  0  0  0
  187.8550  178.1380  139.5120 C   0  0  0  0  0  2  0  0  0  0  0  0
  185.5510  178.1730  138.1670 C   0  0  0  0  0  0  0  0  0  0  0  0
  186.5920  178.1510  138.7750 C   0  0  0  0  0  0  0  0  0  0  0  0
  184.2850  178.2130  137.4310 C   0  0  0  0  0  2  0  0  0  0  0  0
  183.1430  177.6970  138.3030 C   0  0  1  0  0  3  0  0  0  0  0  0
  183.1220  178.4020  139.6670 C   0  0  0  0  0  2  0  0  0  0  0  0
  180.9640  176.1220  139.3120 C   0  0  0  0  0  2  0  0  0  0  0  0
  181.2100  176.9130  140.6030 C   0  0  0  0  0  2  0  0  0  0  0  0
  181.7700  178.3400  140.3950 C   0  0  1  0  0  3  0  0  0  0  0  0
  180.7500  176.9650  138.1810 O   0  0  0  0  0  0  0  0  0  0  0  0
  181.7910  177.7120  137.6250 C   0  0  0  0  0  0  0  0  0  0  0  0
  181.5420  178.4720  136.5650 C   0  0  0  0  0  2  0  0  0  0  0  0
  182.8960  178.6930  142.5070 C   0  0  0  0  0  2  0  0  0  0  0  0
  182.3950  178.8190  143.9230 C   0  0  0  0  0  2  0  0  0  0  0  0
  181.8180  179.1390  141.6290 N   0  0  0  0  0  0  0  0  0  0  0  0
  180.9070  178.6240  143.8060 C   0  0  0  0  0  2  0  0  0  0  0  0
  180.5690  178.9620  142.3670 C   0  0  0  0  0  2  0  0  0  0  0  0
  1  2  2  0  0  0  0
  1 38  1  0  0  0  0
  2 20  1  0  0  0  0
  3  2  1  0  0  0  0
  4 18  1  6  0  0  0
  4  6  1  0  0  0  0
  4  5  1  0  0  0  0
  5  3  1  1  0  0  0
  6  9  1  1  0  0  0
  6  5  1  0  0  0  0
  8 13  1  0  0  0  0
  9  7  1  6  0  0  0
 10 11  1  0  0  0  0
 10  9  1  0  0  0  0
 12  8  2  0  0  0  0
 12 11  1  0  0  0  0
 13  7  1  0  0  0  0
 14 15  2  0  0  0  0
 15 12  1  0  0  0  0
 16 15  2  0  0  0  0
 17 18  2  0  0  0  0
 19 18  1  0  0  0  0
 21 20  1  6  0  0  0
 21 24  1  0  0  0  0
 21 26  1  0  0  0  0
 22 23  1  0  0  0  0
 23 27  1  1  0  0  0
 24 22  1  0  0  0  0
 25 23  1  0  0  0  0
 26 25  1  0  0  0  0
 27 28  1  0  0  0  0
 28 29  1  0  0  0  0
 29 30  1  0  0  0  0
 30 31  1  0  0  0  0
 32 36  1  0  0  0  0
 32 33  1  0  0  0  0
 33 34  1  0  0  0  0
 34 37  1  0  0  0  0
 35 37  1  0  0  0  0
 35 31  1  0  0  0  0
 36 35  2  0  0  0  0
 39 40  3  0  0  0  0
 40 38  1  0  0  0  0
 41 39  1  0  0  0  0
 42 41  1  6  0  0  0
 42 43  1  0  0  0  0
 44 45  1  0  0  0  0
 46 43  1  1  0  0  0
 46 45  1  0  0  0  0
 46 52  1  0  0  0  0
 47 44  1  0  0  0  0
 48 47  1  0  0  0  0
 48 42  1  0  0  0  0
 49 48  2  0  0  0  0
 50 51  1  0  0  0  0
 52 54  1  0  0  0  0
 52 50  1  0  0  0  0
 53 51  1  0  0  0  0
 54 53  1  0  0  0  0
M  END
>  <MODEL>
7

>  <REMARK>
 VINA RESULT:      -7.6      3.011     11.144
  Name = 
  18 active torsions:
  status: ('A' for Active; 'I' for Inactive)
    1  A    between atoms: O_1  and  C_34
    2  A    between atoms: O_1  and  C_35
    3  A    between atoms: C_6  and  C_7
    4  A    between atoms: C_7  and  C_28
    5  A    between atoms: C_10  and  C_17
    6  A    between atoms: C_10  and  O_37
    7  A    between atoms: C_13  and  C_16
    8  A    between atoms: C_14  and  C_34
    9  A    between atoms: C_14  and  O_37
   10  A    between atoms: C_18  and  C_25
   11  A    between atoms: C_19  and  O_27
   12  A    between atoms: N_20  and  C_31
   13  A    between atoms: C_23  and  O_27
   14  A    between atoms: C_23  and  N_38
   15  A    between atoms: C_24  and  N_38
   16  A    between atoms: C_25  and  C_30
   17  A    between atoms: C_32  and  C_39
   18  A    between atoms: C_46  and  N_53
                            x       y       z     vdW  Elec       q    Type
                         _______ _______ _______ _____ _____    ______ ____

>  <TORSDO>
F 18

$$$$
=
 OpenBabel11032421073D

 54 59  0  0  1  0  0  0  0  0999 V2000
  189.4510  177.3480  138.5550 C   0  0  0  0  0  3  0  0  0  0  0  0
  190.2850  176.7090  139.3770 C   0  0  0  0  0  0  0  0  0  0  0  0
  191.1270  175.6600  138.8830 N   0  0  0  0  0  2  0  0  0  0  0  0
  192.4600  174.4050  137.2790 C   0  0  1  0  0  3  0  0  0  0  0  0
  191.9580  175.7790  137.6900 C   0  0  1  0  0  3  0  0  0  0  0  0
  191.3540  175.0710  136.4740 C   0  0  2  0  0  3  0  0  0  0  0  0
  188.8670  175.2160  136.2000 C   0  0  0  0  0  2  0  0  0  0  0  0
  187.5540  173.5950  134.8120 C   0  0  0  0  0  3  0  0  0  0  0  0
  190.0270  174.3640  136.7420 C   0  0  1  0  0  3  0  0  0  0  0  0
  190.0580  173.0270  136.1490 N   0  0  0  0  0  2  0  0  0  0  0  0
  188.8460  172.3210  136.5490 C   0  0  0  0  0  2  0  0  0  0  0  0
  187.7380  172.4700  135.5300 C   0  0  0  0  0  0  0  0  0  0  0  0
  188.4590  174.7950  134.7950 C   0  0  0  0  0  2  0  0  0  0  0  0
  185.4570  171.6370  135.7930 O   0  0  0  0  0  0  0  0  0  0  0  0
  186.7670  171.4210  135.4240 N   0  0  0  0  0  0  0  0  0  0  0  0
  187.0980  170.2980  134.9930 O   0  0  0  0  0  0  0  0  0  0  0  0
  193.8980  174.0540  135.4030 O   0  0  0  0  0  0  0  0  0  0  0  0
  193.7640  174.5320  136.5610 C   0  0  0  0  0  0  0  0  0  0  0  0
  194.8440  175.2400  137.1590 N   0  0  0  0  0  1  0  0  0  0  0  0
  190.3330  177.0610  140.7290 O   0  0  0  0  0  0  0  0  0  0  0  0
  189.6680  176.3060  141.7370 C   0  0  1  0  0  3  0  0  0  0  0  0
  191.1680  177.0530  143.6310 C   0  0  0  0  0  2  0  0  0  0  0  0
  190.0170  177.8580  144.2360 C   0  0  1  0  0  3  0  0  0  0  0  0
  190.6460  175.8590  142.8290 C   0  0  0  0  0  2  0  0  0  0  0  0
  189.0530  178.3140  143.1350 C   0  0  0  0  0  2  0  0  0  0  0  0
  188.5230  177.1210  142.3380 C   0  0  0  0  0  2  0  0  0  0  0  0
  189.3430  177.0940  145.1940 O   0  0  0  0  0  0  0  0  0  0  0  0
  189.8070  177.5620  146.4230 C   0  0  0  0  0  2  0  0  0  0  0  0
  188.6990  177.4700  147.4490 C   0  0  0  0  0  2  0  0  0  0  0  0
  187.5010  177.1410  146.8160 O   0  0  0  0  0  0  0  0  0  0  0  0
  186.6340  178.1860  147.1340 C   0  0  0  0  0  2  0  0  0  0  0  0
  183.4670  178.9950  145.2080 C   0  0  0  0  0  2  0  0  0  0  0  0
  184.1330  179.5350  143.9440 C   0  0  0  0  0  2  0  0  0  0  0  0
  185.2420  178.5730  143.5350 C   0  0  0  0  0  2  0  0  0  0  0  0
  185.6860  178.4170  146.0080 C   0  0  0  0  0  0  0  0  0  0  0  0
  184.4570  178.7580  146.2640 N   0  0  0  0  0  0  0  0  0  0  0  0
  186.1570  178.3720  144.6540 N   0  0  0  0  0  2  0  0  0  0  0  0
  188.5570  178.4440  139.0240 C   0  0  0  0  0  2  0  0  0  0  0  0
  186.0970  178.0530  138.0670 C   0  0  0  0  0  0  0  0  0  0  0  0
  187.2080  178.2270  138.5030 C   0  0  0  0  0  0  0  0  0  0  0  0
  184.7500  177.8540  137.5280 C   0  0  0  0  0  2  0  0  0  0  0  0
  183.6970  178.1810  138.5840 C   0  0  1  0  0  3  0  0  0  0  0  0
  182.6780  179.2010  138.0570 C   0  0  0  0  0  2  0  0  0  0  0  0
  182.2840  178.3610  141.0770 C   0  0  0  0  0  2  0  0  0  0  0  0
  181.4600  179.4260  140.3400 C   0  0  0  0  0  2  0  0  0  0  0  0
  181.3400  179.2140  138.8130 C   0  0  1  0  0  3  0  0  0  0  0  0
  182.3190  177.1140  140.3840 O   0  0  0  0  0  0  0  0  0  0  0  0
  183.0350  176.9660  139.1930 C   0  0  0  0  0  0  0  0  0  0  0  0
  183.0460  175.7810  138.5940 C   0  0  0  0  0  2  0  0  0  0  0  0
  180.6680  180.2510  136.7330 C   0  0  0  0  0  2  0  0  0  0  0  0
  180.4000  181.6830  136.3460 C   0  0  0  0  0  2  0  0  0  0  0  0
  180.3960  180.1350  138.1630 N   0  0  0  0  0  0  0  0  0  0  0  0
  180.6950  182.4640  137.5980 C   0  0  0  0  0  2  0  0  0  0  0  0
  180.5550  181.4710  138.7350 C   0  0  0  0  0  2  0  0  0  0  0  0
  1 38  1  0  0  0  0
  1  2  2  0  0  0  0
  2 20  1  0  0  0  0
  3  2  1  0  0  0  0
  4 18  1  6  0  0  0
  4  5  1  0  0  0  0
  5  3  1  1  0  0  0
  6  9  1  1  0  0  0
  6  4  1  0  0  0  0
  6  5  1  0  0  0  0
  8 12  2  0  0  0  0
  9  7  1  6  0  0  0
 10 11  1  0  0  0  0
 10  9  1  0  0  0  0
 12 11  1  0  0  0  0
 13  8  1  0  0  0  0
 13  7  1  0  0  0  0
 15 12  1  0  0  0  0
 15 14  2  0  0  0  0
 16 15  2  0  0  0  0
 17 18  2  0  0  0  0
 18 19  1  0  0  0  0
 21 20  1  6  0  0  0
 21 26  1  0  0  0  0
 21 24  1  0  0  0  0
 22 23  1  0  0  0  0
 23 27  1  1  0  0  0
 24 22  1  0  0  0  0
 25 23  1  0  0  0  0
 26 25  1  0  0  0  0
 27 28  1  0  0  0  0
 28 29  1  0  0  0  0
 30 31  1  0  0  0  0
 30 29  1  0  0  0  0
 32 36  1  0  0  0  0
 33 32  1  0  0  0  0
 34 33  1  0  0  0  0
 34 37  1  0  0  0  0
 35 36  2  0  0  0  0
 35 31  1  0  0  0  0
 37 35  1  0  0  0  0
 39 40  3  0  0  0  0
 40 38  1  0  0  0  0
 41 39  1  0  0  0  0
 42 41  1  6  0  0  0
 42 48  1  0  0  0  0
 43 42  1  0  0  0  0
 45 44  1  0  0  0  0
 46 43  1  6  0  0  0
 46 45  1  0  0  0  0
 47 44  1  0  0  0  0
 48 47  1  0  0  0  0
 49 48  2  0  0  0  0
 50 52  1  0  0  0  0
 51 50  1  0  0  0  0
 51 53  1  0  0  0  0
 52 54  1  0  0  0  0
 52 46  1  0  0  0  0
 53 54  1  0  0  0  0
M  END
>  <MODEL>
8

>  <REMARK>
 VINA RESULT:      -7.5      2.862     10.917
  Name = 
  18 active torsions:
  status: ('A' for Active; 'I' for Inactive)
    1  A    between atoms: O_1  and  C_34
    2  A    between atoms: O_1  and  C_35
    3  A    between atoms: C_6  and  C_7
    4  A    between atoms: C_7  and  C_28
    5  A    between atoms: C_10  and  C_17
    6  A    between atoms: C_10  and  O_37
    7  A    between atoms: C_13  and  C_16
    8  A    between atoms: C_14  and  C_34
    9  A    between atoms: C_14  and  O_37
   10  A    between atoms: C_18  and  C_25
   11  A    between atoms: C_19  and  O_27
   12  A    between atoms: N_20  and  C_31
   13  A    between atoms: C_23  and  O_27
   14  A    between atoms: C_23  and  N_38
   15  A    between atoms: C_24  and  N_38
   16  A    between atoms: C_25  and  C_30
   17  A    between atoms: C_32  and  C_39
   18  A    between atoms: C_46  and  N_53
                            x       y       z     vdW  Elec       q    Type
                         _______ _______ _______ _____ _____    ______ ____

>  <TORSDO>
F 18

$$$$
=
 OpenBabel11032421073D

 54 59  0  0  1  0  0  0  0  0999 V2000
  188.3240  178.3900  140.4020 C   0  0  0  0  0  3  0  0  0  0  0  0
  189.1960  177.3890  140.5230 C   0  0  0  0  0  0  0  0  0  0  0  0
  189.7300  176.7470  139.3580 N   0  0  0  0  0  2  0  0  0  0  0  0
  189.7100  177.4320  137.0220 C   0  0  1  0  0  3  0  0  0  0  0  0
  189.0070  176.6210  138.0970 C   0  0  1  0  0  3  0  0  0  0  0  0
  189.8260  175.9150  137.0130 C   0  0  2  0  0  3  0  0  0  0  0  0
  191.4250  173.9960  137.2140 C   0  0  0  0  0  2  0  0  0  0  0  0
  193.5700  173.8710  135.9260 C   0  0  0  0  0  3  0  0  0  0  0  0
  191.2330  175.5040  137.4430 C   0  0  1  0  0  3  0  0  0  0  0  0
  192.2180  176.3050  136.7160 N   0  0  0  0  0  2  0  0  0  0  0  0
  193.5390  176.0030  137.2540 C   0  0  0  0  0  2  0  0  0  0  0  0
  194.2330  174.9070  136.4750 C   0  0  0  0  0  0  0  0  0  0  0  0
  192.0780  173.7010  135.8700 C   0  0  0  0  0  2  0  0  0  0  0  0
  196.3990  174.8850  137.6050 O   0  0  0  0  0  0  0  0  0  0  0  0
  195.6660  174.9020  136.4380 N   0  0  0  0  0  0  0  0  0  0  0  0
  196.2670  174.9110  135.3450 O   0  0  0  0  0  0  0  0  0  0  0  0
  188.9080  177.5970  134.7770 O   0  0  0  0  0  0  0  0  0  0  0  0
  188.7250  177.8770  135.9920 C   0  0  0  0  0  0  0  0  0  0  0  0
  187.5470  178.5740  136.3830 N   0  0  0  0  0  1  0  0  0  0  0  0
  189.5890  176.9590  141.7940 O   0  0  0  0  0  0  0  0  0  0  0  0
  190.8370  177.3280  142.3720 C   0  0  1  0  0  3  0  0  0  0  0  0
  189.8500  178.2850  144.4940 C   0  0  0  0  0  2  0  0  0  0  0  0
  190.4350  177.1250  145.3000 C   0  0  1  0  0  3  0  0  0  0  0  0
  190.6940  178.5750  143.2510 C   0  0  0  0  0  2  0  0  0  0  0  0
  190.5600  175.8770  144.4180 C   0  0  0  0  0  2  0  0  0  0  0  0
  191.4090  176.1620  143.1790 C   0  0  0  0  0  2  0  0  0  0  0  0
  191.6810  177.4790  145.8280 O   0  0  0  0  0  0  0  0  0  0  0  0
  191.6500  177.0460  147.1530 C   0  0  0  0  0  2  0  0  0  0  0  0
  190.2220  176.7460  147.5520 C   0  0  0  0  0  2  0  0  0  0  0  0
  189.6150  177.9060  148.0290 O   0  0  0  0  0  0  0  0  0  0  0  0
  188.3630  177.4910  148.4820 C   0  0  0  0  0  2  0  0  0  0  0  0
  185.5200  179.3500  146.7950 C   0  0  0  0  0  2  0  0  0  0  0  0
  185.8740  178.9940  145.3520 C   0  0  0  0  0  2  0  0  0  0  0  0
  186.1710  177.5010  145.2830 C   0  0  0  0  0  2  0  0  0  0  0  0
  187.3150  177.8730  147.4950 C   0  0  0  0  0  0  0  0  0  0  0  0
  186.5740  178.9190  147.7180 N   0  0  0  0  0  0  0  0  0  0  0  0
  187.2040  177.1590  146.2560 N   0  0  0  0  0  2  0  0  0  0  0  0
  187.7430  179.0860  141.5840 C   0  0  0  0  0  2  0  0  0  0  0  0
  185.1340  178.5490  141.7420 C   0  0  0  0  0  0  0  0  0  0  0  0
  186.3130  178.7940  141.6660 C   0  0  0  0  0  0  0  0  0  0  0  0
  183.7050  178.2430  141.8460 C   0  0  0  0  0  2  0  0  0  0  0  0
  183.0540  178.2560  140.4660 C   0  0  1  0  0  3  0  0  0  0  0  0
  183.0510  176.8540  139.8400 C   0  0  0  0  0  2  0  0  0  0  0  0
  181.8990  179.1440  137.9920 C   0  0  0  0  0  2  0  0  0  0  0  0
  182.0880  177.6800  137.5720 C   0  0  0  0  0  2  0  0  0  0  0  0
  182.0070  176.6560  138.7280 C   0  0  1  0  0  3  0  0  0  0  0  0
  181.1500  179.2790  139.1980 O   0  0  0  0  0  0  0  0  0  0  0  0
  181.6890  178.9060  140.4320 C   0  0  0  0  0  0  0  0  0  0  0  0
  180.9550  179.0630  141.5280 C   0  0  0  0  0  2  0  0  0  0  0  0
  183.3230  174.8500  137.8020 C   0  0  0  0  0  2  0  0  0  0  0  0
  183.1080  173.9250  136.6310 C   0  0  0  0  0  2  0  0  0  0  0  0
  182.0040  175.2570  138.2760 N   0  0  0  0  0  0  0  0  0  0  0  0
  181.8080  174.3890  136.0300 C   0  0  0  0  0  2  0  0  0  0  0  0
  181.0850  175.1170  137.1470 C   0  0  0  0  0  2  0  0  0  0  0  0
  1  2  2  0  0  0  0
  1 38  1  0  0  0  0
  2 20  1  0  0  0  0
  3  2  1  0  0  0  0
  4 18  1  6  0  0  0
  4  5  1  0  0  0  0
  5  3  1  1  0  0  0
  6  4  1  0  0  0  0
  6  9  1  1  0  0  0
  6  5  1  0  0  0  0
  8 12  2  0  0  0  0
  9  7  1  6  0  0  0
 10 11  1  0  0  0  0
 10  9  1  0  0  0  0
 12 11  1  0  0  0  0
 13  8  1  0  0  0  0
 13  7  1  0  0  0  0
 15 12  1  0  0  0  0
 15 14  2  0  0  0  0
 16 15  2  0  0  0  0
 17 18  2  0  0  0  0
 18 19  1  0  0  0  0
 21 20  1  1  0  0  0
 21 26  1  0  0  0  0
 21 24  1  0  0  0  0
 22 23  1  0  0  0  0
 23 27  1  6  0  0  0
 24 22  1  0  0  0  0
 25 23  1  0  0  0  0
 26 25  1  0  0  0  0
 27 28  1  0  0  0  0
 28 29  1  0  0  0  0
 29 30  1  0  0  0  0
 30 31  1  0  0  0  0
 32 36  1  0  0  0  0
 33 32  1  0  0  0  0
 34 33  1  0  0  0  0
 34 37  1  0  0  0  0
 35 36  2  0  0  0  0
 35 31  1  0  0  0  0
 37 35  1  0  0  0  0
 38 40  1  0  0  0  0
 39 41  1  0  0  0  0
 40 39  3  0  0  0  0
 42 41  1  1  0  0  0
 43 42  1  0  0  0  0
 44 47  1  0  0  0  0
 45 44  1  0  0  0  0
 46 45  1  6  0  0  0
 46 43  1  0  0  0  0
 47 48  1  0  0  0  0
 48 42  1  0  0  0  0
 48 49  2  0  0  0  0
 50 52  1  0  0  0  0
 51 50  1  0  0  0  0
 52 46  1  0  0  0  0
 53 51  1  0  0  0  0
 53 54  1  0  0  0  0
 54 52  1  0  0  0  0
M  END
>  <MODEL>
9

>  <REMARK>
 VINA RESULT:      -7.4      3.005     10.870
  Name = 
  18 active torsions:
  status: ('A' for Active; 'I' for Inactive)
    1  A    between atoms: O_1  and  C_34
    2  A    between atoms: O_1  and  C_35
    3  A    between atoms: C_6  and  C_7
    4  A    between atoms: C_7  and  C_28
    5  A    between atoms: C_10  and  C_17
    6  A    between atoms: C_10  and  O_37
    7  A    between atoms: C_13  and  C_16
    8  A    between atoms: C_14  and  C_34
    9  A    between atoms: C_14  and  O_37
   10  A    between atoms: C_18  and  C_25
   11  A    between atoms: C_19  and  O_27
   12  A    between atoms: N_20  and  C_31
   13  A    between atoms: C_23  and  O_27
   14  A    between atoms: C_23  and  N_38
   15  A    between atoms: C_24  and  N_38
   16  A    between atoms: C_25  and  C_30
   17  A    between atoms: C_32  and  C_39
   18  A    between atoms: C_46  and  N_53
                            x       y       z     vdW  Elec       q    Type
                         _______ _______ _______ _____ _____    ______ ____

>  <TORSDO>
F 18

$$$$
