=
 OpenBabel11042410293D

 35 37  0  0  1  0  0  0  0  0999 V2000
  187.5520  176.9300  143.7610 C   0  0  0  0  0  2  0  0  0  0  0  0
  186.9200  178.7050  148.2470 F   0  0  0  0  0  0  0  0  0  0  0  0
  185.2110  178.9930  146.6620 N   0  0  0  0  0  0  0  0  0  0  0  0
  184.6890  178.8240  145.4170 C   0  0  0  0  0  0  0  0  0  0  0  0
  186.7040  177.6460  144.7630 C   0  0  0  0  0  0  0  0  0  0  0  0
  183.3940  179.3420  145.1260 N   0  0  0  0  0  1  0  0  0  0  0  0
  186.4400  178.5170  146.9950 C   0  0  0  0  0  0  0  0  0  0  0  0
  187.2070  177.8360  146.0500 C   0  0  0  0  0  3  0  0  0  0  0  0
  185.4240  178.1390  144.4330 C   0  0  0  0  0  0  0  0  0  0  0  0
  184.8470  177.9310  143.0650 C   0  0  0  0  0  2  0  0  0  0  0  0
  185.2350  179.0740  142.1460 C   0  0  0  0  0  2  0  0  0  0  0  0
  183.5720  177.9460  140.5980 O   0  0  0  0  0  0  0  0  0  0  0  0
  184.4900  178.9510  140.8640 C   0  0  0  0  0  0  0  0  0  0  0  0
  183.7710  179.3640  138.8560 N   0  0  0  0  0  2  0  0  0  0  0  0
  184.6220  179.7750  139.8870 N   0  0  0  0  0  0  0  0  0  0  0  0
  183.0560  178.1720  139.2950 C   0  0  1  0  0  3  0  0  0  0  0  0
  183.4010  176.9970  138.3980 C   0  0  0  0  0  2  0  0  0  0  0  0
  183.5490  177.4340  137.0830 O   0  0  0  0  0  1  0  0  0  0  0  0
  188.9130  177.5940  143.6450 C   0  0  0  0  0  2  0  0  0  0  0  0
  191.9220  175.3490  144.0720 C   0  0  0  0  0  2  0  0  0  0  0  0
  191.8160  175.4190  145.5970 C   0  0  0  0  0  2  0  0  0  0  0  0
  190.6080  177.6430  145.2990 C   0  0  0  0  0  2  0  0  0  0  0  0
  189.9100  176.7890  144.3350 N   0  0  0  0  0  0  0  0  0  0  0  0
  191.6890  176.8690  146.0670 C   0  0  0  0  0  2  0  0  0  0  0  0
  190.8630  176.2130  143.3670 C   0  0  1  0  0  3  0  0  0  0  0  0
  191.7010  177.4810  142.3440 S   0  0  0  0  0  0  0  0  0  0  0  0
  191.1120  176.7250  140.8040 C   0  0  0  0  0  2  0  0  0  0  0  0
  190.2110  177.7000  140.0750 C   0  0  0  0  0  2  0  0  0  0  0  0
  189.7290  177.0900  138.7690 C   0  0  0  0  0  2  0  0  0  0  0  0
  187.8470  178.0320  139.7880 C   0  0  0  0  0  1  0  0  0  0  0  0
  188.2960  177.2920  138.6210 N   0  0  0  0  0  0  0  0  0  0  0  0
  189.1180  179.6280  137.2830 O   0  0  0  0  0  1  0  0  0  0  0  0
  188.0480  178.3200  137.2190 P   0  0  0  0  0  0  0  0  0  0  0  0
  186.6270  178.8390  137.1920 O   0  0  0  0  0  1  0  0  0  0  0  0
  188.3450  177.4320  135.8110 O   0  0  0  0  0  0  0  0  0  0  0  0
  1  5  1  0  0  0  0
  3  7  1  0  0  0  0
  4  3  2  0  0  0  0
  5  8  1  0  0  0  0
  6  4  1  0  0  0  0
  7  2  1  0  0  0  0
  8  7  2  0  0  0  0
  9  5  2  0  0  0  0
  9  4  1  0  0  0  0
 10  9  1  0  0  0  0
 11 10  1  0  0  0  0
 12 13  1  0  0  0  0
 13 11  1  0  0  0  0
 14 16  1  0  0  0  0
 14 15  1  0  0  0  0
 15 13  2  0  0  0  0
 16 17  1  6  0  0  0
 16 12  1  0  0  0  0
 18 17  1  0  0  0  0
 19  1  1  0  0  0  0
 19 23  1  0  0  0  0
 20 21  1  0  0  0  0
 21 24  1  0  0  0  0
 22 24  1  0  0  0  0
 23 22  1  0  0  0  0
 25 26  1  1  0  0  0
 25 20  1  0  0  0  0
 25 23  1  0  0  0  0
 27 26  1  0  0  0  0
 28 27  1  0  0  0  0
 29 28  1  0  0  0  0
 31 29  1  0  0  0  0
 31 30  1  0  0  0  0
 33 32  1  0  0  0  0
 33 31  1  0  0  0  0
 34 33  1  0  0  0  0
 35 33  2  0  0  0  0
M  END
>  <MODEL>
1

>  <REMARK>
 VINA RESULT:      -7.9      0.000      0.000
  Name = 
  13 active torsions:
  status: ('A' for Active; 'I' for Inactive)
    1  A    between atoms: C_2  and  C_12
    2  A    between atoms: C_2  and  C_22
    3  A    between atoms: S_6  and  C_22
    4  A    between atoms: S_6  and  C_28
    5  A    between atoms: C_9  and  C_34
    6  A    between atoms: C_10  and  N_23
    7  A    between atoms: C_10  and  C_35
    8  A    between atoms: C_12  and  N_21
    9  A    between atoms: C_13  and  C_14
   10  A    between atoms: C_14  and  C_17
   11  A    between atoms: P_15  and  N_21
   12  A    between atoms: C_17  and  C_32
   13  A    between atoms: C_20  and  C_35
                            x       y       z     vdW  Elec       q    Type
                         _______ _______ _______ _____ _____    ______ ____

>  <TORSDO>
F 13

$$$$
=
 OpenBabel11042410293D

 35 37  0  0  1  0  0  0  0  0999 V2000
  187.3120  177.1040  143.4100 C   0  0  0  0  0  2  0  0  0  0  0  0
  186.0820  179.2760  147.5870 F   0  0  0  0  0  0  0  0  0  0  0  0
  184.5590  179.3100  145.7990 N   0  0  0  0  0  0  0  0  0  0  0  0
  184.1950  178.9900  144.5280 C   0  0  0  0  0  0  0  0  0  0  0  0
  186.3220  177.8660  144.2310 C   0  0  0  0  0  0  0  0  0  0  0  0
  182.9210  179.4040  144.0410 N   0  0  0  0  0  1  0  0  0  0  0  0
  185.7610  178.9380  146.3150 C   0  0  0  0  0  0  0  0  0  0  0  0
  186.6620  178.2110  145.5390 C   0  0  0  0  0  3  0  0  0  0  0  0
  185.0690  178.2520  143.7100 C   0  0  0  0  0  0  0  0  0  0  0  0
  184.6660  177.8780  142.3150 C   0  0  0  0  0  2  0  0  0  0  0  0
  185.0720  178.9640  141.3360 C   0  0  0  0  0  2  0  0  0  0  0  0
  184.0020  180.1440  139.3620 O   0  0  0  0  0  0  0  0  0  0  0  0
  183.9800  179.1670  140.3460 C   0  0  0  0  0  0  0  0  0  0  0  0
  182.1200  178.9060  139.2540 N   0  0  0  0  0  2  0  0  0  0  0  0
  182.9180  178.4450  140.3060 N   0  0  0  0  0  0  0  0  0  0  0  0
  182.8090  180.0140  138.6030 C   0  0  1  0  0  3  0  0  0  0  0  0
  181.9850  181.2830  138.7250 C   0  0  0  0  0  2  0  0  0  0  0  0
  180.8010  181.0140  139.4080 O   0  0  0  0  0  1  0  0  0  0  0  0
  188.6130  177.8780  143.2900 C   0  0  0  0  0  2  0  0  0  0  0  0
  191.6390  175.6730  143.7910 C   0  0  0  0  0  2  0  0  0  0  0  0
  191.6810  175.9900  145.2870 C   0  0  0  0  0  2  0  0  0  0  0  0
  190.4590  178.1600  144.7470 C   0  0  0  0  0  2  0  0  0  0  0  0
  189.6680  177.1750  144.0050 N   0  0  0  0  0  0  0  0  0  0  0  0
  191.6050  177.4980  145.5270 C   0  0  0  0  0  2  0  0  0  0  0  0
  190.5220  176.4320  143.0580 C   0  0  1  0  0  3  0  0  0  0  0  0
  191.2630  177.5030  141.7690 S   0  0  0  0  0  0  0  0  0  0  0  0
  190.2100  176.7880  140.4750 C   0  0  0  0  0  2  0  0  0  0  0  0
  189.7820  177.8770  139.5140 C   0  0  0  0  0  2  0  0  0  0  0  0
  188.2660  177.9500  139.4490 C   0  0  0  0  0  2  0  0  0  0  0  0
  189.0570  178.9980  137.5150 C   0  0  0  0  0  1  0  0  0  0  0  0
  187.8480  178.6220  138.2290 N   0  0  0  0  0  0  0  0  0  0  0  0
  187.7240  175.9280  137.4220 O   0  0  0  0  0  1  0  0  0  0  0  0
  186.9990  177.4450  137.2400 P   0  0  0  0  0  0  0  0  0  0  0  0
  187.0470  177.8480  135.7830 O   0  0  0  0  0  0  0  0  0  0  0  0
  185.3860  177.3490  137.7400 O   0  0  0  0  0  1  0  0  0  0  0  0
  1  5  1  0  0  0  0
  3  7  1  0  0  0  0
  4  3  2  0  0  0  0
  5  8  1  0  0  0  0
  6  4  1  0  0  0  0
  7  2  1  0  0  0  0
  8  7  2  0  0  0  0
  9  5  2  0  0  0  0
  9  4  1  0  0  0  0
 10  9  1  0  0  0  0
 11 10  1  0  0  0  0
 12 13  1  0  0  0  0
 13 11  1  0  0  0  0
 14 15  1  0  0  0  0
 15 13  2  0  0  0  0
 16 17  1  1  0  0  0
 16 14  1  0  0  0  0
 16 12  1  0  0  0  0
 17 18  1  0  0  0  0
 19  1  1  0  0  0  0
 19 23  1  0  0  0  0
 20 21  1  0  0  0  0
 21 24  1  0  0  0  0
 22 24  1  0  0  0  0
 23 22  1  0  0  0  0
 25 26  1  6  0  0  0
 25 20  1  0  0  0  0
 25 23  1  0  0  0  0
 27 26  1  0  0  0  0
 28 27  1  0  0  0  0
 29 28  1  0  0  0  0
 30 31  1  0  0  0  0
 31 29  1  0  0  0  0
 33 32  1  0  0  0  0
 33 35  1  0  0  0  0
 33 31  1  0  0  0  0
 34 33  2  0  0  0  0
M  END
>  <MODEL>
2

>  <REMARK>
 VINA RESULT:      -7.9      1.536      1.897
  Name = 
  13 active torsions:
  status: ('A' for Active; 'I' for Inactive)
    1  A    between atoms: C_2  and  C_12
    2  A    between atoms: C_2  and  C_22
    3  A    between atoms: S_6  and  C_22
    4  A    between atoms: S_6  and  C_28
    5  A    between atoms: C_9  and  C_34
    6  A    between atoms: C_10  and  N_23
    7  A    between atoms: C_10  and  C_35
    8  A    between atoms: C_12  and  N_21
    9  A    between atoms: C_13  and  C_14
   10  A    between atoms: C_14  and  C_17
   11  A    between atoms: P_15  and  N_21
   12  A    between atoms: C_17  and  C_32
   13  A    between atoms: C_20  and  C_35
                            x       y       z     vdW  Elec       q    Type
                         _______ _______ _______ _____ _____    ______ ____

>  <TORSDO>
F 13

$$$$
=
 OpenBabel11042410293D

 35 37  0  0  1  0  0  0  0  0999 V2000
  187.3530  176.9930  143.6300 C   0  0  0  0  0  2  0  0  0  0  0  0
  185.5340  178.5400  147.8690 F   0  0  0  0  0  0  0  0  0  0  0  0
  184.3320  178.9650  145.8960 N   0  0  0  0  0  0  0  0  0  0  0  0
  184.1720  178.8800  144.5480 C   0  0  0  0  0  0  0  0  0  0  0  0
  186.2720  177.6780  144.4020 C   0  0  0  0  0  0  0  0  0  0  0  0
  183.0150  179.4520  143.9440 N   0  0  0  0  0  1  0  0  0  0  0  0
  185.4150  178.4350  146.5240 C   0  0  0  0  0  0  0  0  0  0  0  0
  186.4030  177.7830  145.7870 C   0  0  0  0  0  3  0  0  0  0  0  0
  185.1400  178.2270  143.7640 C   0  0  0  0  0  0  0  0  0  0  0  0
  184.9600  178.1110  142.2800 C   0  0  0  0  0  2  0  0  0  0  0  0
  185.7190  179.2140  141.5660 C   0  0  0  0  0  2  0  0  0  0  0  0
  187.1850  178.3030  139.7070 O   0  0  0  0  0  0  0  0  0  0  0  0
  185.9740  178.8050  140.1580 C   0  0  0  0  0  0  0  0  0  0  0  0
  185.6620  178.4010  138.0460 N   0  0  0  0  0  2  0  0  0  0  0  0
  185.0860  178.8700  139.2310 N   0  0  0  0  0  0  0  0  0  0  0  0
  187.0380  178.0070  138.3260 C   0  0  1  0  0  3  0  0  0  0  0  0
  187.9990  178.8590  137.5160 C   0  0  0  0  0  2  0  0  0  0  0  0
  188.1330  178.3290  136.2330 O   0  0  0  0  0  1  0  0  0  0  0  0
  188.6460  177.7860  143.7070 C   0  0  0  0  0  2  0  0  0  0  0  0
  191.8030  175.7250  143.9610 C   0  0  0  0  0  2  0  0  0  0  0  0
  191.6500  175.5920  145.4780 C   0  0  0  0  0  2  0  0  0  0  0  0
  190.2860  177.7440  145.4160 C   0  0  0  0  0  2  0  0  0  0  0  0
  189.6810  176.9720  144.3270 N   0  0  0  0  0  0  0  0  0  0  0  0
  191.4010  176.9570  146.1210 C   0  0  0  0  0  2  0  0  0  0  0  0
  190.7020  176.5930  143.3320 C   0  0  1  0  0  3  0  0  0  0  0  0
  191.4700  178.0390  142.5070 S   0  0  0  0  0  0  0  0  0  0  0  0
  191.7120  177.1150  140.9640 C   0  0  0  0  0  2  0  0  0  0  0  0
  190.4460  177.1760  140.1350 C   0  0  0  0  0  2  0  0  0  0  0  0
  190.7740  176.9740  138.6650 C   0  0  0  0  0  2  0  0  0  0  0  0
  190.0860  175.0310  137.5620 C   0  0  0  0  0  1  0  0  0  0  0  0
  191.1230  175.5840  138.4160 N   0  0  0  0  0  0  0  0  0  0  0  0
  193.6350  176.8050  138.0580 O   0  0  0  0  0  1  0  0  0  0  0  0
  192.6210  175.5700  137.5000 P   0  0  0  0  0  0  0  0  0  0  0  0
  192.3410  175.7830  136.0290 O   0  0  0  0  0  0  0  0  0  0  0  0
  193.3960  174.0820  137.7110 O   0  0  0  0  0  1  0  0  0  0  0  0
  1 19  1  0  0  0  0
  1  5  1  0  0  0  0
  3  7  1  0  0  0  0
  4  3  2  0  0  0  0
  5  8  1  0  0  0  0
  6  4  1  0  0  0  0
  7  2  1  0  0  0  0
  8  7  2  0  0  0  0
  9  5  2  0  0  0  0
  9  4  1  0  0  0  0
 10  9  1  0  0  0  0
 11 10  1  0  0  0  0
 12 13  1  0  0  0  0
 13 11  1  0  0  0  0
 14 16  1  0  0  0  0
 14 15  1  0  0  0  0
 15 13  2  0  0  0  0
 16 17  1  6  0  0  0
 16 12  1  0  0  0  0
 18 17  1  0  0  0  0
 19 23  1  0  0  0  0
 20 21  1  0  0  0  0
 21 24  1  0  0  0  0
 22 24  1  0  0  0  0
 23 22  1  0  0  0  0
 25 26  1  1  0  0  0
 25 20  1  0  0  0  0
 25 23  1  0  0  0  0
 27 26  1  0  0  0  0
 28 27  1  0  0  0  0
 29 28  1  0  0  0  0
 30 31  1  0  0  0  0
 31 29  1  0  0  0  0
 33 35  1  0  0  0  0
 33 32  1  0  0  0  0
 33 31  1  0  0  0  0
 34 33  2  0  0  0  0
M  END
>  <MODEL>
3

>  <REMARK>
 VINA RESULT:      -7.7      2.222      2.791
  Name = 
  13 active torsions:
  status: ('A' for Active; 'I' for Inactive)
    1  A    between atoms: C_2  and  C_12
    2  A    between atoms: C_2  and  C_22
    3  A    between atoms: S_6  and  C_22
    4  A    between atoms: S_6  and  C_28
    5  A    between atoms: C_9  and  C_34
    6  A    between atoms: C_10  and  N_23
    7  A    between atoms: C_10  and  C_35
    8  A    between atoms: C_12  and  N_21
    9  A    between atoms: C_13  and  C_14
   10  A    between atoms: C_14  and  C_17
   11  A    between atoms: P_15  and  N_21
   12  A    between atoms: C_17  and  C_32
   13  A    between atoms: C_20  and  C_35
                            x       y       z     vdW  Elec       q    Type
                         _______ _______ _______ _____ _____    ______ ____

>  <TORSDO>
F 13

$$$$
=
 OpenBabel11042410293D

 35 37  0  0  1  0  0  0  0  0999 V2000
  188.2300  177.0520  142.5650 C   0  0  0  0  0  2  0  0  0  0  0  0
  189.0570  178.3080  137.9370 F   0  0  0  0  0  0  0  0  0  0  0  0
  190.8840  177.7680  139.3110 N   0  0  0  0  0  0  0  0  0  0  0  0
  191.4160  177.3790  140.5010 C   0  0  0  0  0  0  0  0  0  0  0  0
  189.1830  177.2840  141.4360 C   0  0  0  0  0  0  0  0  0  0  0  0
  192.8290  177.2320  140.6200 N   0  0  0  0  0  1  0  0  0  0  0  0
  189.5440  177.9220  139.1400 C   0  0  0  0  0  0  0  0  0  0  0  0
  188.6720  177.6820  140.2010 C   0  0  0  0  0  3  0  0  0  0  0  0
  190.5740  177.1220  141.5970 C   0  0  0  0  0  0  0  0  0  0  0  0
  191.1520  176.6730  142.9060 C   0  0  0  0  0  2  0  0  0  0  0  0
  191.3100  177.8520  143.8480 C   0  0  0  0  0  2  0  0  0  0  0  0
  189.6220  177.5330  145.7140 O   0  0  0  0  0  0  0  0  0  0  0  0
  190.9150  177.4410  145.2220 C   0  0  0  0  0  0  0  0  0  0  0  0
  191.0300  176.6710  147.2510 N   0  0  0  0  0  2  0  0  0  0  0  0
  191.7390  176.9510  146.0780 N   0  0  0  0  0  0  0  0  0  0  0  0
  189.6320  177.0300  147.0420 C   0  0  1  0  0  3  0  0  0  0  0  0
  189.2260  178.1280  148.0080 C   0  0  0  0  0  2  0  0  0  0  0  0
  188.2240  177.6630  148.8580 O   0  0  0  0  0  1  0  0  0  0  0  0
  187.0560  178.0130  142.4760 C   0  0  0  0  0  2  0  0  0  0  0  0
  184.9190  179.5900  145.1630 C   0  0  0  0  0  2  0  0  0  0  0  0
  185.7930  178.9970  146.2710 C   0  0  0  0  0  2  0  0  0  0  0  0
  186.4670  177.1820  144.6140 C   0  0  0  0  0  2  0  0  0  0  0  0
  186.6380  178.3990  143.8150 N   0  0  0  0  0  0  0  0  0  0  0  0
  186.0150  177.5010  146.0470 C   0  0  0  0  0  2  0  0  0  0  0  0
  185.3780  179.1630  143.7590 C   0  0  1  0  0  3  0  0  0  0  0  0
  184.0210  178.2500  142.9330 S   0  0  0  0  0  0  0  0  0  0  0  0
  182.8120  178.7860  144.1740 C   0  0  0  0  0  2  0  0  0  0  0  0
  181.4630  178.9810  143.5140 C   0  0  0  0  0  2  0  0  0  0  0  0
  181.6090  178.9330  142.0030 C   0  0  0  0  0  2  0  0  0  0  0  0
  180.3700  180.0380  140.3560 C   0  0  0  0  0  1  0  0  0  0  0  0
  180.3010  179.0000  141.3710 N   0  0  0  0  0  0  0  0  0  0  0  0
  179.2550  176.3960  141.5900 O   0  0  0  0  0  1  0  0  0  0  0  0
  180.0330  177.4740  140.5440 P   0  0  0  0  0  0  0  0  0  0  0  0
  181.3510  176.8750  140.1030 O   0  0  0  0  0  1  0  0  0  0  0  0
  179.0550  177.7320  139.1890 O   0  0  0  0  0  0  0  0  0  0  0  0
  2  7  1  0  0  0  0
  3  4  1  0  0  0  0
  4  6  1  0  0  0  0
  4  9  2  0  0  0  0
  5  9  1  0  0  0  0
  5  1  1  0  0  0  0
  7  3  2  0  0  0  0
  7  8  1  0  0  0  0
  8  5  2  0  0  0  0
  9 10  1  0  0  0  0
 10 11  1  0  0  0  0
 11 13  1  0  0  0  0
 12 16  1  0  0  0  0
 13 12  1  0  0  0  0
 13 15  2  0  0  0  0
 15 14  1  0  0  0  0
 16 14  1  0  0  0  0
 16 17  1  1  0  0  0
 17 18  1  0  0  0  0
 19  1  1  0  0  0  0
 19 23  1  0  0  0  0
 20 21  1  0  0  0  0
 22 24  1  0  0  0  0
 23 22  1  0  0  0  0
 24 21  1  0  0  0  0
 25 26  1  1  0  0  0
 25 23  1  0  0  0  0
 25 20  1  0  0  0  0
 26 27  1  0  0  0  0
 28 27  1  0  0  0  0
 29 28  1  0  0  0  0
 30 31  1  0  0  0  0
 31 29  1  0  0  0  0
 33 31  1  0  0  0  0
 33 32  1  0  0  0  0
 34 33  1  0  0  0  0
 35 33  2  0  0  0  0
M  END
>  <MODEL>
4

>  <REMARK>
 VINA RESULT:      -7.3      4.131      8.263
  Name = 
  13 active torsions:
  status: ('A' for Active; 'I' for Inactive)
    1  A    between atoms: C_2  and  C_12
    2  A    between atoms: C_2  and  C_22
    3  A    between atoms: S_6  and  C_22
    4  A    between atoms: S_6  and  C_28
    5  A    between atoms: C_9  and  C_34
    6  A    between atoms: C_10  and  N_23
    7  A    between atoms: C_10  and  C_35
    8  A    between atoms: C_12  and  N_21
    9  A    between atoms: C_13  and  C_14
   10  A    between atoms: C_14  and  C_17
   11  A    between atoms: P_15  and  N_21
   12  A    between atoms: C_17  and  C_32
   13  A    between atoms: C_20  and  C_35
                            x       y       z     vdW  Elec       q    Type
                         _______ _______ _______ _____ _____    ______ ____

>  <TORSDO>
F 13

$$$$
=
 OpenBabel11042410293D

 35 37  0  0  1  0  0  0  0  0999 V2000
  189.1620  176.7180  142.0460 C   0  0  0  0  0  2  0  0  0  0  0  0
  192.0670  176.9910  145.9400 F   0  0  0  0  0  0  0  0  0  0  0  0
  189.7450  177.1870  146.2400 N   0  0  0  0  0  0  0  0  0  0  0  0
  188.4720  177.2110  145.7620 C   0  0  0  0  0  0  0  0  0  0  0  0
  189.3370  176.8720  143.5230 C   0  0  0  0  0  0  0  0  0  0  0  0
  187.3890  177.3960  146.6680 N   0  0  0  0  0  1  0  0  0  0  0  0
  190.8160  177.0110  145.4210 C   0  0  0  0  0  0  0  0  0  0  0  0
  190.6290  176.8510  144.0490 C   0  0  0  0  0  3  0  0  0  0  0  0
  188.2350  177.0480  144.3850 C   0  0  0  0  0  0  0  0  0  0  0  0
  186.8330  177.0530  143.8530 C   0  0  0  0  0  2  0  0  0  0  0  0
  186.3840  178.4710  143.5540 C   0  0  0  0  0  2  0  0  0  0  0  0
  183.8760  178.1680  143.3260 O   0  0  0  0  0  0  0  0  0  0  0  0
  184.9800  178.6500  144.0120 C   0  0  0  0  0  0  0  0  0  0  0  0
  183.2700  179.2350  145.2180 N   0  0  0  0  0  2  0  0  0  0  0  0
  184.6630  179.2620  145.0970 N   0  0  0  0  0  0  0  0  0  0  0  0
  182.7210  178.5110  144.0770 C   0  0  1  0  0  3  0  0  0  0  0  0
  181.8320  179.4290  143.2580 C   0  0  0  0  0  2  0  0  0  0  0  0
  180.8880  178.6740  142.5620 O   0  0  0  0  0  1  0  0  0  0  0  0
  190.3730  177.2610  141.3080 C   0  0  0  0  0  2  0  0  0  0  0  0
  189.5810  175.9280  137.8620 C   0  0  0  0  0  2  0  0  0  0  0  0
  190.9580  175.2720  137.7480 C   0  0  0  0  0  2  0  0  0  0  0  0
  191.7940  176.9930  139.4310 C   0  0  0  0  0  2  0  0  0  0  0  0
  190.5630  176.5190  140.0700 N   0  0  0  0  0  0  0  0  0  0  0  0
  192.0650  176.2640  138.1070 C   0  0  0  0  0  2  0  0  0  0  0  0
  189.4070  176.7100  139.1740 C   0  0  1  0  0  3  0  0  0  0  0  0
  189.0830  178.4720  138.7890 S   0  0  0  0  0  0  0  0  0  0  0  0
  188.5420  178.0740  137.1030 C   0  0  0  0  0  2  0  0  0  0  0  0
  187.0940  178.4830  136.9280 C   0  0  0  0  0  2  0  0  0  0  0  0
  186.2940  178.1160  138.1660 C   0  0  0  0  0  2  0  0  0  0  0  0
  184.3640  176.8650  137.7460 C   0  0  0  0  0  1  0  0  0  0  0  0
  184.8690  178.2200  137.8900 N   0  0  0  0  0  0  0  0  0  0  0  0
  183.2040  177.7300  140.1060 O   0  0  0  0  0  1  0  0  0  0  0  0
  184.1050  178.9190  139.3080 P   0  0  0  0  0  0  0  0  0  0  0  0
  183.1860  180.0520  138.9070 O   0  0  0  0  0  0  0  0  0  0  0  0
  185.2940  179.5080  140.3550 O   0  0  0  0  0  1  0  0  0  0  0  0
  1  5  1  0  0  0  0
  4  3  1  0  0  0  0
  4  6  1  0  0  0  0
  5  8  2  0  0  0  0
  5  9  1  0  0  0  0
  7  2  1  0  0  0  0
  7  3  2  0  0  0  0
  8  7  1  0  0  0  0
  9  4  2  0  0  0  0
 10  9  1  0  0  0  0
 11 10  1  0  0  0  0
 11 13  1  0  0  0  0
 12 13  1  0  0  0  0
 12 16  1  0  0  0  0
 13 15  2  0  0  0  0
 15 14  1  0  0  0  0
 16 17  1  6  0  0  0
 16 14  1  0  0  0  0
 18 17  1  0  0  0  0
 19  1  1  0  0  0  0
 20 25  1  0  0  0  0
 21 20  1  0  0  0  0
 21 24  1  0  0  0  0
 22 23  1  0  0  0  0
 23 19  1  0  0  0  0
 24 22  1  0  0  0  0
 25 26  1  6  0  0  0
 25 23  1  0  0  0  0
 27 26  1  0  0  0  0
 28 27  1  0  0  0  0
 28 29  1  0  0  0  0
 30 31  1  0  0  0  0
 31 29  1  0  0  0  0
 31 33  1  0  0  0  0
 33 32  1  0  0  0  0
 33 35  1  0  0  0  0
 34 33  2  0  0  0  0
M  END
>  <MODEL>
5

>  <REMARK>
 VINA RESULT:      -7.3      2.593      4.865
  Name = 
  13 active torsions:
  status: ('A' for Active; 'I' for Inactive)
    1  A    between atoms: C_2  and  C_12
    2  A    between atoms: C_2  and  C_22
    3  A    between atoms: S_6  and  C_22
    4  A    between atoms: S_6  and  C_28
    5  A    between atoms: C_9  and  C_34
    6  A    between atoms: C_10  and  N_23
    7  A    between atoms: C_10  and  C_35
    8  A    between atoms: C_12  and  N_21
    9  A    between atoms: C_13  and  C_14
   10  A    between atoms: C_14  and  C_17
   11  A    between atoms: P_15  and  N_21
   12  A    between atoms: C_17  and  C_32
   13  A    between atoms: C_20  and  C_35
                            x       y       z     vdW  Elec       q    Type
                         _______ _______ _______ _____ _____    ______ ____

>  <TORSDO>
F 13

$$$$
=
 OpenBabel11042410293D

 35 37  0  0  1  0  0  0  0  0999 V2000
  188.4980  176.8810  142.4440 C   0  0  0  0  0  2  0  0  0  0  0  0
  192.0540  177.3830  145.7280 F   0  0  0  0  0  0  0  0  0  0  0  0
  189.8200  177.4710  146.4510 N   0  0  0  0  0  0  0  0  0  0  0  0
  188.4810  177.4210  146.2160 C   0  0  0  0  0  0  0  0  0  0  0  0
  188.9350  177.0750  143.8610 C   0  0  0  0  0  0  0  0  0  0  0  0
  187.5750  177.5730  147.3060 N   0  0  0  0  0  1  0  0  0  0  0  0
  190.7290  177.3290  145.4500 C   0  0  0  0  0  0  0  0  0  0  0  0
  190.3010  177.1300  144.1380 C   0  0  0  0  0  3  0  0  0  0  0  0
  188.0030  177.2170  144.9100 C   0  0  0  0  0  0  0  0  0  0  0  0
  186.5290  177.1410  144.6470 C   0  0  0  0  0  2  0  0  0  0  0  0
  185.9410  178.5330  144.5120 C   0  0  0  0  0  2  0  0  0  0  0  0
  185.0480  178.0410  142.1900 O   0  0  0  0  0  0  0  0  0  0  0  0
  184.8710  178.5180  143.4790 C   0  0  0  0  0  0  0  0  0  0  0  0
  182.9400  178.7700  142.5160 N   0  0  0  0  0  2  0  0  0  0  0  0
  183.6760  178.9400  143.6930 N   0  0  0  0  0  0  0  0  0  0  0  0
  183.8080  178.1690  141.5110 C   0  0  1  0  0  3  0  0  0  0  0  0
  183.9660  179.1090  140.3300 C   0  0  0  0  0  2  0  0  0  0  0  0
  185.3180  179.3750  140.1160 O   0  0  0  0  0  1  0  0  0  0  0  0
  189.2970  177.7770  141.5140 C   0  0  0  0  0  2  0  0  0  0  0  0
  189.6450  176.3090  138.0490 C   0  0  0  0  0  2  0  0  0  0  0  0
  190.9650  175.6300  138.4190 C   0  0  0  0  0  2  0  0  0  0  0  0
  191.2480  177.4100  140.2200 C   0  0  0  0  0  2  0  0  0  0  0  0
  189.8630  176.9800  140.4350 N   0  0  0  0  0  0  0  0  0  0  0  0
  191.9190  176.6210  139.0870 C   0  0  0  0  0  2  0  0  0  0  0  0
  189.0720  177.1490  139.2020 C   0  0  1  0  0  3  0  0  0  0  0  0
  188.9390  178.8970  138.6680 S   0  0  0  0  0  0  0  0  0  0  0  0
  188.6360  178.4190  136.9450 C   0  0  0  0  0  2  0  0  0  0  0  0
  187.1780  178.6520  136.6050 C   0  0  0  0  0  2  0  0  0  0  0  0
  186.5750  177.3950  136.0010 C   0  0  0  0  0  2  0  0  0  0  0  0
  184.6310  177.0320  137.2480 C   0  0  0  0  0  1  0  0  0  0  0  0
  185.9930  176.5670  137.0450 N   0  0  0  0  0  0  0  0  0  0  0  0
  186.2340  174.9250  134.7710 O   0  0  0  0  0  0  0  0  0  0  0  0
  185.9000  174.9250  136.4290 P   0  0  0  0  0  0  0  0  0  0  0  0
  184.5190  174.3530  136.6580 O   0  0  0  0  0  1  0  0  0  0  0  0
  187.0420  173.9620  137.2220 O   0  0  0  0  0  1  0  0  0  0  0  0
  1  5  1  0  0  0  0
  4  3  1  0  0  0  0
  4  6  1  0  0  0  0
  5  8  2  0  0  0  0
  5  9  1  0  0  0  0
  7  2  1  0  0  0  0
  7  3  2  0  0  0  0
  8  7  1  0  0  0  0
  9  4  2  0  0  0  0
 10  9  1  0  0  0  0
 11 10  1  0  0  0  0
 12 13  1  0  0  0  0
 13 15  2  0  0  0  0
 13 11  1  0  0  0  0
 14 15  1  0  0  0  0
 16 17  1  6  0  0  0
 16 12  1  0  0  0  0
 16 14  1  0  0  0  0
 18 17  1  0  0  0  0
 19  1  1  0  0  0  0
 20 21  1  0  0  0  0
 20 25  1  0  0  0  0
 21 24  1  0  0  0  0
 22 23  1  0  0  0  0
 23 19  1  0  0  0  0
 24 22  1  0  0  0  0
 25 26  1  6  0  0  0
 25 23  1  0  0  0  0
 27 26  1  0  0  0  0
 28 27  1  0  0  0  0
 29 28  1  0  0  0  0
 29 31  1  0  0  0  0
 31 30  1  0  0  0  0
 32 33  2  0  0  0  0
 33 34  1  0  0  0  0
 33 31  1  0  0  0  0
 33 35  1  0  0  0  0
M  END
>  <MODEL>
6

>  <REMARK>
 VINA RESULT:      -7.2      2.519      4.329
  Name = 
  13 active torsions:
  status: ('A' for Active; 'I' for Inactive)
    1  A    between atoms: C_2  and  C_12
    2  A    between atoms: C_2  and  C_22
    3  A    between atoms: S_6  and  C_22
    4  A    between atoms: S_6  and  C_28
    5  A    between atoms: C_9  and  C_34
    6  A    between atoms: C_10  and  N_23
    7  A    between atoms: C_10  and  C_35
    8  A    between atoms: C_12  and  N_21
    9  A    between atoms: C_13  and  C_14
   10  A    between atoms: C_14  and  C_17
   11  A    between atoms: P_15  and  N_21
   12  A    between atoms: C_17  and  C_32
   13  A    between atoms: C_20  and  C_35
                            x       y       z     vdW  Elec       q    Type
                         _______ _______ _______ _____ _____    ______ ____

>  <TORSDO>
F 13

$$$$
=
 OpenBabel11042410293D

 35 37  0  0  1  0  0  0  0  0999 V2000
  190.9230  177.1730  140.0870 C   0  0  0  0  0  2  0  0  0  0  0  0
  187.9670  179.2910  136.8530 F   0  0  0  0  0  0  0  0  0  0  0  0
  189.3180  177.5000  136.1540 N   0  0  0  0  0  0  0  0  0  0  0  0
  190.2460  176.5340  136.3920 C   0  0  0  0  0  0  0  0  0  0  0  0
  190.3660  177.2570  138.7020 C   0  0  0  0  0  0  0  0  0  0  0  0
  190.6490  175.6770  135.3270 N   0  0  0  0  0  1  0  0  0  0  0  0
  188.8950  178.3440  137.1320 C   0  0  0  0  0  0  0  0  0  0  0  0
  189.4120  178.2360  138.4220 C   0  0  0  0  0  3  0  0  0  0  0  0
  190.7920  176.3840  137.6790 C   0  0  0  0  0  0  0  0  0  0  0  0
  191.7990  175.3080  137.9530 C   0  0  0  0  0  2  0  0  0  0  0  0
  193.1560  175.6960  137.3950 C   0  0  0  0  0  2  0  0  0  0  0  0
  195.1790  175.4520  138.9040 O   0  0  0  0  0  0  0  0  0  0  0  0
  194.2140  174.9020  138.0750 C   0  0  0  0  0  0  0  0  0  0  0  0
  195.4120  173.2150  138.7370 N   0  0  0  0  0  2  0  0  0  0  0  0
  194.3230  173.6260  137.9630 N   0  0  0  0  0  0  0  0  0  0  0  0
  195.9910  174.3880  139.3800 C   0  0  1  0  0  3  0  0  0  0  0  0
  197.4210  174.5880  138.9120 C   0  0  0  0  0  2  0  0  0  0  0  0
  198.0240  175.6020  139.6540 O   0  0  0  0  0  1  0  0  0  0  0  0
  189.8010  177.1480  141.1100 C   0  0  0  0  0  2  0  0  0  0  0  0
  189.8550  178.1340  144.7570 C   0  0  0  0  0  2  0  0  0  0  0  0
  191.3030  177.6650  144.9110 C   0  0  0  0  0  2  0  0  0  0  0  0
  190.8890  176.1060  142.9380 C   0  0  0  0  0  2  0  0  0  0  0  0
  190.3470  177.3730  142.4400 N   0  0  0  0  0  0  0  0  0  0  0  0
  191.4810  176.2550  144.3470 C   0  0  0  0  0  2  0  0  0  0  0  0
  189.2990  177.8800  143.3470 C   0  0  1  0  0  3  0  0  0  0  0  0
  187.8490  176.7650  143.4600 S   0  0  0  0  0  0  0  0  0  0  0  0
  187.3070  177.5190  145.0190 C   0  0  0  0  0  2  0  0  0  0  0  0
  186.0030  178.2560  144.7970 C   0  0  0  0  0  2  0  0  0  0  0  0
  185.6330  178.2310  143.3240 C   0  0  0  0  0  2  0  0  0  0  0  0
  183.5830  179.0970  144.0390 C   0  0  0  0  0  1  0  0  0  0  0  0
  184.1930  178.1040  143.1710 N   0  0  0  0  0  0  0  0  0  0  0  0
  185.0860  179.3850  140.8290 O   0  0  0  0  0  1  0  0  0  0  0  0
  183.7950  178.5360  141.5160 P   0  0  0  0  0  0  0  0  0  0  0  0
  182.5550  179.4030  141.4820 O   0  0  0  0  0  1  0  0  0  0  0  0
  183.5190  177.1300  140.6190 O   0  0  0  0  0  0  0  0  0  0  0  0
  1 19  1  0  0  0  0
  2  7  1  0  0  0  0
  3  4  2  0  0  0  0
  3  7  1  0  0  0  0
  4  9  1  0  0  0  0
  5  1  1  0  0  0  0
  6  4  1  0  0  0  0
  7  8  2  0  0  0  0
  8  5  1  0  0  0  0
  9 10  1  0  0  0  0
  9  5  2  0  0  0  0
 11 10  1  0  0  0  0
 11 13  1  0  0  0  0
 12 16  1  0  0  0  0
 13 12  1  0  0  0  0
 14 16  1  0  0  0  0
 15 13  2  0  0  0  0
 15 14  1  0  0  0  0
 16 17  1  6  0  0  0
 17 18  1  0  0  0  0
 19 23  1  0  0  0  0
 20 21  1  0  0  0  0
 22 24  1  0  0  0  0
 23 22  1  0  0  0  0
 23 25  1  0  0  0  0
 24 21  1  0  0  0  0
 25 26  1  1  0  0  0
 25 20  1  0  0  0  0
 26 27  1  0  0  0  0
 28 27  1  0  0  0  0
 29 28  1  0  0  0  0
 31 29  1  0  0  0  0
 31 30  1  0  0  0  0
 32 33  1  0  0  0  0
 33 31  1  0  0  0  0
 34 33  1  0  0  0  0
 35 33  2  0  0  0  0
M  END
>  <MODEL>
7

>  <REMARK>
 VINA RESULT:      -7.1      4.326      8.637
  Name = 
  13 active torsions:
  status: ('A' for Active; 'I' for Inactive)
    1  A    between atoms: C_2  and  C_12
    2  A    between atoms: C_2  and  C_22
    3  A    between atoms: S_6  and  C_22
    4  A    between atoms: S_6  and  C_28
    5  A    between atoms: C_9  and  C_34
    6  A    between atoms: C_10  and  N_23
    7  A    between atoms: C_10  and  C_35
    8  A    between atoms: C_12  and  N_21
    9  A    between atoms: C_13  and  C_14
   10  A    between atoms: C_14  and  C_17
   11  A    between atoms: P_15  and  N_21
   12  A    between atoms: C_17  and  C_32
   13  A    between atoms: C_20  and  C_35
                            x       y       z     vdW  Elec       q    Type
                         _______ _______ _______ _____ _____    ______ ____

>  <TORSDO>
F 13

$$$$
=
 OpenBabel11042410293D

 35 37  0  0  1  0  0  0  0  0999 V2000
  187.5600  176.4660  144.1390 C   0  0  0  0  0  2  0  0  0  0  0  0
  190.1230  177.7290  148.0780 F   0  0  0  0  0  0  0  0  0  0  0  0
  187.9240  178.5240  147.8520 N   0  0  0  0  0  0  0  0  0  0  0  0
  186.7450  178.6140  147.1790 C   0  0  0  0  0  0  0  0  0  0  0  0
  187.6560  177.1870  145.4460 C   0  0  0  0  0  0  0  0  0  0  0  0
  185.6840  179.3910  147.7300 N   0  0  0  0  0  1  0  0  0  0  0  0
  188.9670  177.7950  147.3750 C   0  0  0  0  0  0  0  0  0  0  0  0
  188.8500  177.1140  146.1630 C   0  0  0  0  0  3  0  0  0  0  0  0
  186.5790  177.9410  145.9560 C   0  0  0  0  0  0  0  0  0  0  0  0
  185.2760  178.0190  145.2190 C   0  0  0  0  0  2  0  0  0  0  0  0
  185.2770  179.1980  144.2620 C   0  0  0  0  0  2  0  0  0  0  0  0
  184.7970  178.5530  141.8570 O   0  0  0  0  0  0  0  0  0  0  0  0
  184.3630  178.9090  143.1240 C   0  0  0  0  0  0  0  0  0  0  0  0
  182.5460  178.6200  141.9690 N   0  0  0  0  0  2  0  0  0  0  0  0
  183.0820  178.9540  143.2170 N   0  0  0  0  0  0  0  0  0  0  0  0
  183.6460  178.3380  141.0540 C   0  0  1  0  0  3  0  0  0  0  0  0
  183.6330  179.3280  139.9030 C   0  0  0  0  0  2  0  0  0  0  0  0
  184.9320  179.7530  139.6310 O   0  0  0  0  0  1  0  0  0  0  0  0
  187.8940  177.4010  142.9900 C   0  0  0  0  0  2  0  0  0  0  0  0
  190.8740  176.9350  140.7150 C   0  0  0  0  0  2  0  0  0  0  0  0
  191.8480  177.0460  141.8900 C   0  0  0  0  0  2  0  0  0  0  0  0
  190.0490  178.3780  143.1090 C   0  0  0  0  0  2  0  0  0  0  0  0
  189.2880  177.2290  142.6090 N   0  0  0  0  0  0  0  0  0  0  0  0
  191.5360  178.2790  142.7400 C   0  0  0  0  0  2  0  0  0  0  0  0
  189.4100  177.1260  141.1420 C   0  0  1  0  0  3  0  0  0  0  0  0
  188.7070  178.5700  140.2600 S   0  0  0  0  0  0  0  0  0  0  0  0
  189.5810  178.1460  138.7280 C   0  0  0  0  0  2  0  0  0  0  0  0
  189.0020  178.9440  137.5790 C   0  0  0  0  0  2  0  0  0  0  0  0
  188.2440  178.0260  136.6350 C   0  0  0  0  0  2  0  0  0  0  0  0
  186.0470  177.4520  137.1900 C   0  0  0  0  0  1  0  0  0  0  0  0
  187.4380  177.0830  137.3940 N   0  0  0  0  0  0  0  0  0  0  0  0
  187.7060  175.6320  134.9960 O   0  0  0  0  0  0  0  0  0  0  0  0
  187.6700  175.4950  136.6810 P   0  0  0  0  0  0  0  0  0  0  0  0
  186.5420  174.5680  137.0800 O   0  0  0  0  0  1  0  0  0  0  0  0
  189.1380  174.8480  137.2140 O   0  0  0  0  0  1  0  0  0  0  0  0
  1  5  1  0  0  0  0
  4  6  1  0  0  0  0
  4  3  2  0  0  0  0
  5  9  2  0  0  0  0
  5  8  1  0  0  0  0
  7  3  1  0  0  0  0
  7  2  1  0  0  0  0
  8  7  2  0  0  0  0
  9  4  1  0  0  0  0
 10  9  1  0  0  0  0
 11 10  1  0  0  0  0
 12 13  1  0  0  0  0
 13 15  2  0  0  0  0
 13 11  1  0  0  0  0
 14 15  1  0  0  0  0
 16 17  1  6  0  0  0
 16 12  1  0  0  0  0
 16 14  1  0  0  0  0
 18 17  1  0  0  0  0
 19  1  1  0  0  0  0
 20 25  1  0  0  0  0
 20 21  1  0  0  0  0
 21 24  1  0  0  0  0
 23 19  1  0  0  0  0
 23 22  1  0  0  0  0
 24 22  1  0  0  0  0
 25 26  1  6  0  0  0
 25 23  1  0  0  0  0
 27 26  1  0  0  0  0
 28 27  1  0  0  0  0
 29 31  1  0  0  0  0
 29 28  1  0  0  0  0
 30 31  1  0  0  0  0
 32 33  2  0  0  0  0
 33 34  1  0  0  0  0
 33 35  1  0  0  0  0
 33 31  1  0  0  0  0
M  END
>  <MODEL>
8

>  <REMARK>
 VINA RESULT:      -7.1      2.288      2.923
  Name = 
  13 active torsions:
  status: ('A' for Active; 'I' for Inactive)
    1  A    between atoms: C_2  and  C_12
    2  A    between atoms: C_2  and  C_22
    3  A    between atoms: S_6  and  C_22
    4  A    between atoms: S_6  and  C_28
    5  A    between atoms: C_9  and  C_34
    6  A    between atoms: C_10  and  N_23
    7  A    between atoms: C_10  and  C_35
    8  A    between atoms: C_12  and  N_21
    9  A    between atoms: C_13  and  C_14
   10  A    between atoms: C_14  and  C_17
   11  A    between atoms: P_15  and  N_21
   12  A    between atoms: C_17  and  C_32
   13  A    between atoms: C_20  and  C_35
                            x       y       z     vdW  Elec       q    Type
                         _______ _______ _______ _____ _____    ______ ____

>  <TORSDO>
F 13

$$$$
=
 OpenBabel11042410293D

 35 37  0  0  1  0  0  0  0  0999 V2000
  188.2950  177.9220  141.3350 C   0  0  0  0  0  2  0  0  0  0  0  0
  192.0550  178.6090  144.3470 F   0  0  0  0  0  0  0  0  0  0  0  0
  189.9580  178.0620  145.2550 N   0  0  0  0  0  0  0  0  0  0  0  0
  188.6390  177.7560  145.1270 C   0  0  0  0  0  0  0  0  0  0  0  0
  188.8560  177.9510  142.7210 C   0  0  0  0  0  0  0  0  0  0  0  0
  187.8650  177.5020  146.2960 N   0  0  0  0  0  1  0  0  0  0  0  0
  190.7450  178.3110  144.1740 C   0  0  0  0  0  0  0  0  0  0  0  0
  190.2060  178.2600  142.8900 C   0  0  0  0  0  3  0  0  0  0  0  0
  188.0530  177.6880  143.8500 C   0  0  0  0  0  0  0  0  0  0  0  0
  186.6050  177.3310  143.7000 C   0  0  0  0  0  2  0  0  0  0  0  0
  185.7340  178.5620  143.8770 C   0  0  0  0  0  2  0  0  0  0  0  0
  184.8040  178.2450  141.5380 O   0  0  0  0  0  0  0  0  0  0  0  0
  184.6270  178.5280  142.8840 C   0  0  0  0  0  0  0  0  0  0  0  0
  182.6350  178.6270  142.0220 N   0  0  0  0  0  2  0  0  0  0  0  0
  183.3980  178.7490  143.1880 N   0  0  0  0  0  0  0  0  0  0  0  0
  183.5260  178.2840  140.9200 C   0  0  1  0  0  3  0  0  0  0  0  0
  183.5000  179.3770  139.8680 C   0  0  0  0  0  2  0  0  0  0  0  0
  184.8030  179.7530  139.5440 O   0  0  0  0  0  1  0  0  0  0  0  0
  189.4100  178.0130  140.3080 C   0  0  0  0  0  2  0  0  0  0  0  0
  189.1760  178.0980  136.5380 C   0  0  0  0  0  2  0  0  0  0  0  0
  187.7590  178.6720  136.5920 C   0  0  0  0  0  2  0  0  0  0  0  0
  187.5430  177.6220  138.9040 C   0  0  0  0  0  2  0  0  0  0  0  0
  188.8440  178.2900  138.9960 N   0  0  0  0  0  0  0  0  0  0  0  0
  186.8780  177.8570  137.5400 C   0  0  0  0  0  2  0  0  0  0  0  0
  189.7490  177.8090  137.9350 C   0  0  1  0  0  3  0  0  0  0  0  0
  190.1310  176.0220  138.0730 S   0  0  0  0  0  0  0  0  0  0  0  0
  191.2470  176.0810  136.6440 C   0  0  0  0  0  2  0  0  0  0  0  0
  192.6800  176.1780  137.1260 C   0  0  0  0  0  2  0  0  0  0  0  0
  193.1680  174.8170  137.5910 C   0  0  0  0  0  2  0  0  0  0  0  0
  194.7780  175.6160  136.0960 C   0  0  0  0  0  1  0  0  0  0  0  0
  194.4290  174.4890  136.9450 N   0  0  0  0  0  0  0  0  0  0  0  0
  195.7820  172.7730  138.7190 O   0  0  0  0  0  1  0  0  0  0  0  0
  195.6530  174.3770  138.1990 P   0  0  0  0  0  0  0  0  0  0  0  0
  195.2840  175.2530  139.3760 O   0  0  0  0  0  1  0  0  0  0  0  0
  197.1430  174.8770  137.5760 O   0  0  0  0  0  0  0  0  0  0  0  0
  1  5  1  0  0  0  0
  4  3  1  0  0  0  0
  4  6  1  0  0  0  0
  5  8  2  0  0  0  0
  5  9  1  0  0  0  0
  7  2  1  0  0  0  0
  7  3  2  0  0  0  0
  8  7  1  0  0  0  0
  9  4  2  0  0  0  0
 10  9  1  0  0  0  0
 10 11  1  0  0  0  0
 12 13  1  0  0  0  0
 13 15  2  0  0  0  0
 13 11  1  0  0  0  0
 14 15  1  0  0  0  0
 16 17  1  6  0  0  0
 16 12  1  0  0  0  0
 16 14  1  0  0  0  0
 18 17  1  0  0  0  0
 19  1  1  0  0  0  0
 20 21  1  0  0  0  0
 20 25  1  0  0  0  0
 21 24  1  0  0  0  0
 22 23  1  0  0  0  0
 23 19  1  0  0  0  0
 24 22  1  0  0  0  0
 25 26  1  1  0  0  0
 25 23  1  0  0  0  0
 27 28  1  0  0  0  0
 27 26  1  0  0  0  0
 28 29  1  0  0  0  0
 30 31  1  0  0  0  0
 31 29  1  0  0  0  0
 31 33  1  0  0  0  0
 33 32  1  0  0  0  0
 33 34  1  0  0  0  0
 35 33  2  0  0  0  0
M  END
>  <MODEL>
9

>  <REMARK>
 VINA RESULT:      -7.1      4.041      5.817
  Name = 
  13 active torsions:
  status: ('A' for Active; 'I' for Inactive)
    1  A    between atoms: C_2  and  C_12
    2  A    between atoms: C_2  and  C_22
    3  A    between atoms: S_6  and  C_22
    4  A    between atoms: S_6  and  C_28
    5  A    between atoms: C_9  and  C_34
    6  A    between atoms: C_10  and  N_23
    7  A    between atoms: C_10  and  C_35
    8  A    between atoms: C_12  and  N_21
    9  A    between atoms: C_13  and  C_14
   10  A    between atoms: C_14  and  C_17
   11  A    between atoms: P_15  and  N_21
   12  A    between atoms: C_17  and  C_32
   13  A    between atoms: C_20  and  C_35
                            x       y       z     vdW  Elec       q    Type
                         _______ _______ _______ _____ _____    ______ ____

>  <TORSDO>
F 13

$$$$
