=
 OpenBabel11042409563D

 66 75  0  0  1  0  0  0  0  0999 V2000
  184.2120  178.8750  138.4030 C   0  0  0  0  0  0  0  0  0  0  0  0
  186.4600  178.1560  138.9850 C   0  0  0  0  0  0  0  0  0  0  0  0
  188.8310  176.8230  138.2240 C   0  0  0  0  0  0  0  0  0  0  0  0
  185.2720  178.8200  139.3430 C   0  0  0  0  0  0  0  0  0  0  0  0
  188.7030  177.3890  139.5040 C   0  0  0  0  0  3  0  0  0  0  0  0
  186.5830  177.6000  137.6920 C   0  0  0  0  0  0  0  0  0  0  0  0
  185.5570  177.6940  136.8080 N   0  0  0  0  0  0  0  0  0  0  0  0
  187.5310  178.0490  139.8810 C   0  0  0  0  0  3  0  0  0  0  0  0
  187.7610  176.9460  137.3210 C   0  0  0  0  0  3  0  0  0  0  0  0
  184.3900  178.3030  137.1370 C   0  0  0  0  0  3  0  0  0  0  0  0
  192.5130  174.9240  137.0690 C   0  0  0  0  0  3  0  0  0  0  0  0
  192.5100  176.2070  137.6140 C   0  0  0  0  0  3  0  0  0  0  0  0
  191.3040  176.8050  137.9780 C   0  0  0  0  0  3  0  0  0  0  0  0
  190.0860  174.8330  137.2420 C   0  0  0  0  0  0  0  0  0  0  0  0
  191.3110  174.2440  136.8820 C   0  0  0  0  0  3  0  0  0  0  0  0
  190.0810  176.1340  137.8060 C   0  0  0  0  0  0  0  0  0  0  0  0
  188.8830  174.1480  137.0260 O   0  0  0  0  0  0  0  0  0  0  0  0
  188.8260  172.8290  136.5010 C   0  0  0  0  0  1  0  0  0  0  0  0
  185.1780  179.4100  140.6520 N   0  0  0  0  0  2  0  0  0  0  0  0
  182.7110  178.3690  142.2380 C   0  0  0  0  0  2  0  0  0  0  0  0
  184.8000  178.7040  141.8670 C   0  0  2  0  0  3  0  0  0  0  0  0
  183.8110  177.6040  141.5230 C   0  0  0  0  0  2  0  0  0  0  0  0
  183.6980  179.4680  142.5840 C   0  0  2  0  0  3  0  0  0  0  0  0
  183.9340  179.4940  144.0640 C   0  0  0  0  0  0  0  0  0  0  0  0
  182.9960  179.1600  144.8400 O   0  0  0  0  0  0  0  0  0  0  0  0
  185.1860  179.8510  144.5740 O   0  0  0  0  0  0  0  0  0  0  0  0
  186.9490  178.2570  144.8960 C   0  0  1  0  0  3  0  0  0  0  0  0
  185.6300  177.6070  145.2480 C   0  0  0  0  0  2  0  0  0  0  0  0
  185.8540  179.0720  145.5540 C   0  0  2  0  0  3  0  0  0  0  0  0
  187.9810  177.8330  145.9320 C   0  0  0  0  0  2  0  0  0  0  0  0
  189.4660  176.9340  142.7610 C   0  0  0  0  0  2  0  0  0  0  0  0
  189.3370  177.4530  145.3370 C   0  0  2  0  0  0  0  0  0  0  0  0
  191.6330  176.4470  145.7600 C   0  0  0  0  0  2  0  0  0  0  0  0
  191.4430  178.4260  144.2810 C   0  0  0  0  0  2  0  0  0  0  0  0
  190.2610  176.8040  146.3910 C   0  0  0  0  0  2  0  0  0  0  0  0
  191.6930  176.9050  144.2870 C   0  0  2  0  0  3  0  0  0  0  0  0
  190.0480  178.7460  144.8710 C   0  0  0  0  0  2  0  0  0  0  0  0
  190.5480  176.1870  143.5270 C   0  0  2  0  0  0  0  0  0  0  0  0
  190.7380  174.8540  143.1690 O   0  0  0  0  0  1  0  0  0  0  0  0
  189.1750  176.4220  144.1750 C   0  0  2  0  0  3  0  0  0  0  0  0
  182.8690  179.4390  138.7390 C   0  0  0  0  0  2  0  0  0  0  0  0
  181.8350  179.0410  137.6970 C   0  0  0  0  0  2  0  0  0  0  0  0
  180.5500  178.7890  138.3350 N   0  0  0  0  0  0  0  0  0  0  0  0
  179.3430  180.8530  138.5840 C   0  0  0  0  0  0  0  0  0  0  0  0
  179.4200  179.6410  138.1040 C   0  0  0  0  0  3  0  0  0  0  0  0
  179.2490  182.0680  139.0560 C   0  0  0  0  0  3  0  0  0  0  0  0
  179.5120  183.2440  138.2200 C   0  0  0  0  0  0  0  0  0  0  0  0
  178.9310  184.3870  138.3950 N   0  0  0  0  0  0  0  0  0  0  0  0
  180.4530  183.2260  137.1560 N   0  0  0  0  0  0  0  0  0  0  0  0
  180.4200  184.4220  136.6790 C   0  0  0  0  0  0  0  0  0  0  0  0
  179.4570  185.3000  137.3940 C   0  0  0  0  0  2  0  0  0  0  0  0
  181.2360  184.8390  135.5910 N   0  0  0  0  0  1  0  0  0  0  0  0
  180.3490  177.5690  138.9990 N   0  0  0  0  0  2  0  0  0  0  0  0
  179.1590  177.0160  138.5020 N   0  0  0  0  0  2  0  0  0  0  0  0
  179.4920  175.7090  137.9690 C   0  0  0  0  0  2  0  0  0  0  0  0
  180.8360  175.3410  138.3900 N   0  0  0  0  0  2  0  0  0  0  0  0
  181.1150  174.0410  137.8080 C   0  0  1  0  0  3  0  0  0  0  0  0
  179.7140  172.1850  137.2580 O   0  0  0  0  0  1  0  0  0  0  0  0
  179.9070  173.5460  137.0250 C   0  0  0  0  0  2  0  0  0  0  0  0
  182.3720  174.1050  136.9400 C   0  0  0  0  0  2  0  0  0  0  0  0
  183.1080  172.7740  136.8900 C   0  0  2  0  0  3  0  0  0  0  0  0
  184.4400  172.9780  137.2900 O   0  0  0  0  0  0  0  0  0  0  0  0
  184.2120  172.8510  135.9060 C   0  0  1  0  0  3  0  0  0  0  0  0
  183.6380  170.5550  135.0230 N   0  0  0  0  0  1  0  0  0  0  0  0
  184.6210  171.4860  135.4650 C   0  0  0  0  0  0  0  0  0  0  0  0
  185.8320  171.1430  135.5100 O   0  0  0  0  0  0  0  0  0  0  0  0
  1 41  1  0  0  0  0
  1  4  1  0  0  0  0
  2  4  2  0  0  0  0
  2  8  1  0  0  0  0
  3  5  1  0  0  0  0
  4 19  1  0  0  0  0
  5  8  2  0  0  0  0
  6  2  1  0  0  0  0
  7 10  1  0  0  0  0
  7  6  2  0  0  0  0
  9  6  1  0  0  0  0
  9  3  2  0  0  0  0
 10  1  2  0  0  0  0
 11 12  1  0  0  0  0
 12 13  2  0  0  0  0
 14 16  2  0  0  0  0
 15 11  2  0  0  0  0
 15 14  1  0  0  0  0
 16 13  1  0  0  0  0
 16  3  1  0  0  0  0
 17 14  1  0  0  0  0
 18 17  1  0  0  0  0
 20 23  1  0  0  0  0
 21 19  1  6  0  0  0
 21 23  1  0  0  0  0
 22 21  1  0  0  0  0
 22 20  1  0  0  0  0
 23 24  1  1  0  0  0
 24 26  1  0  0  0  0
 24 25  2  0  0  0  0
 27 28  1  0  0  0  0
 27 29  1  0  0  0  0
 27 30  1  1  0  0  0
 28 29  1  0  0  0  0
 29 26  1  6  0  0  0
 31 38  1  0  0  0  0
 32 30  1  1  0  0  0
 32 35  1  0  0  0  0
 33 35  1  0  0  0  0
 34 37  1  0  0  0  0
 36 34  1  1  0  0  0
 36 33  1  0  0  0  0
 37 32  1  0  0  0  0
 38 39  1  6  0  0  0
 38 40  1  0  0  0  0
 38 36  1  0  0  0  0
 40 31  1  6  0  0  0
 40 32  1  0  0  0  0
 42 43  1  0  0  0  0
 42 41  1  0  0  0  0
 43 53  1  0  0  0  0
 44 46  2  0  0  0  0
 45 43  1  0  0  0  0
 45 44  2  0  0  0  0
 47 48  2  0  0  0  0
 47 46  1  0  0  0  0
 49 47  1  0  0  0  0
 50 49  2  0  0  0  0
 50 51  1  0  0  0  0
 51 48  1  0  0  0  0
 52 50  1  0  0  0  0
 54 53  1  0  0  0  0
 55 56  1  0  0  0  0
 55 54  1  0  0  0  0
 57 60  1  6  0  0  0
 57 56  1  0  0  0  0
 59 58  1  0  0  0  0
 59 57  1  0  0  0  0
 61 60  1  6  0  0  0
 61 62  1  0  0  0  0
 63 65  1  1  0  0  0
 63 61  1  0  0  0  0
 63 62  1  0  0  0  0
 64 65  1  0  0  0  0
 65 66  2  0  0  0  0
M  END
>  <MODEL>
1

>  <REMARK>
 VINA RESULT:      -7.1      0.000      0.000
  Name = 
  23 active torsions:
  status: ('A' for Active; 'I' for Inactive)
    1  A    between atoms: C_1  and  C_19
    2  A    between atoms: C_3  and  C_45
    3  A    between atoms: C_4  and  C_45
    4  A    between atoms: C_5  and  C_6
    5  A    between atoms: C_6  and  CA_58
    6  A    between atoms: C_8  and  O_18
    7  A    between atoms: C_8  and  C_62
    8  A    between atoms: C_11  and  C_53
    9  A    between atoms: C_12  and  N_61
   10  A    between atoms: C_14  and  N_33
   11  A    between atoms: C_15  and  C_43
   12  A    between atoms: O_18  and  C_28
   13  A    between atoms: C_19  and  C_22
   14  A    between atoms: C_22  and  N_33
   15  A    between atoms: C_24  and  N_61
   16  A    between atoms: C_25  and  C_60
   17  A    between atoms: C_30  and  N_31
   18  A    between atoms: C_30  and  N_39
   19  A    between atoms: N_31  and  CA_58
   20  A    between atoms: N_33  and  N_57
   21  A    between atoms: O_36  and  C_42
   22  A    between atoms: N_39  and  N_57
   23  A    between atoms: C_54  and  CA_58
                            x       y       z     vdW  Elec       q    Type
                         _______ _______ _______ _____ _____    ______ ____

>  <TORSDO>
F 23

$$$$
=
 OpenBabel11042409563D

 66 75  0  0  1  0  0  0  0  0999 V2000
  187.0820  178.3940  140.3820 C   0  0  0  0  0  0  0  0  0  0  0  0
  187.4870  177.6590  142.6620 C   0  0  0  0  0  0  0  0  0  0  0  0
  189.3480  177.0620  144.7010 C   0  0  0  0  0  0  0  0  0  0  0  0
  186.5750  177.9670  141.6350 C   0  0  0  0  0  0  0  0  0  0  0  0
  187.9680  176.9140  144.9220 C   0  0  0  0  0  3  0  0  0  0  0  0
  188.8720  177.8220  142.4360 C   0  0  0  0  0  0  0  0  0  0  0  0
  189.3190  178.2590  141.2300 N   0  0  0  0  0  0  0  0  0  0  0  0
  187.0470  177.2090  143.9140 C   0  0  0  0  0  3  0  0  0  0  0  0
  189.7860  177.5290  143.4510 C   0  0  0  0  0  3  0  0  0  0  0  0
  188.4640  178.5340  140.2130 C   0  0  0  0  0  3  0  0  0  0  0  0
  192.2820  176.1580  147.7140 C   0  0  0  0  0  3  0  0  0  0  0  0
  192.4040  175.6500  146.4210 C   0  0  0  0  0  3  0  0  0  0  0  0
  191.4380  175.9520  145.4610 C   0  0  0  0  0  3  0  0  0  0  0  0
  190.2100  177.2750  147.0910 C   0  0  0  0  0  0  0  0  0  0  0  0
  191.1930  176.9610  148.0460 C   0  0  0  0  0  3  0  0  0  0  0  0
  190.3360  176.7680  145.7730 C   0  0  0  0  0  0  0  0  0  0  0  0
  189.1080  178.0640  147.4460 O   0  0  0  0  0  0  0  0  0  0  0  0
  188.1330  177.6520  148.3950 C   0  0  0  0  0  1  0  0  0  0  0  0
  185.1680  177.8280  141.8960 N   0  0  0  0  0  2  0  0  0  0  0  0
  184.2780  179.4160  144.4200 C   0  0  0  0  0  2  0  0  0  0  0  0
  184.2850  178.8980  142.3360 C   0  0  2  0  0  3  0  0  0  0  0  0
  185.0650  179.8700  143.2030 C   0  0  0  0  0  2  0  0  0  0  0  0
  183.4960  178.4470  143.5550 C   0  0  2  0  0  3  0  0  0  0  0  0
  182.0650  178.8820  143.4650 C   0  0  0  0  0  0  0  0  0  0  0  0
  181.2660  178.5570  144.3870 O   0  0  0  0  0  0  0  0  0  0  0  0
  181.6300  179.6650  142.3920 O   0  0  0  0  0  0  0  0  0  0  0  0
  180.4520  179.9140  140.3170 C   0  0  1  0  0  3  0  0  0  0  0  0
  180.1390  178.5540  140.8990 C   0  0  0  0  0  2  0  0  0  0  0  0
  181.5190  179.1490  141.0740 C   0  0  2  0  0  3  0  0  0  0  0  0
  180.6580  179.7550  138.8170 C   0  0  0  0  0  2  0  0  0  0  0  0
  179.1930  180.9470  135.7340 C   0  0  0  0  0  2  0  0  0  0  0  0
  180.4810  181.0510  138.0260 C   0  0  2  0  0  0  0  0  0  0  0  0
  181.3850  183.3750  137.5310 C   0  0  0  0  0  2  0  0  0  0  0  0
  178.9340  183.0530  137.7180 C   0  0  0  0  0  2  0  0  0  0  0  0
  181.6030  182.0660  138.3360 C   0  0  0  0  0  2  0  0  0  0  0  0
  180.0770  183.3020  136.7140 C   0  0  2  0  0  3  0  0  0  0  0  0
  179.1560  181.7180  138.4690 C   0  0  0  0  0  2  0  0  0  0  0  0
  180.1950  182.0930  135.7510 C   0  0  2  0  0  0  0  0  0  0  0  0
  180.9620  182.2490  134.5980 O   0  0  0  0  0  1  0  0  0  0  0  0
  180.5170  180.7850  136.4870 C   0  0  2  0  0  3  0  0  0  0  0  0
  186.2010  178.6130  139.1930 C   0  0  0  0  0  2  0  0  0  0  0  0
  185.7870  177.2890  138.5700 C   0  0  0  0  0  2  0  0  0  0  0  0
  186.5790  177.0250  137.3760 N   0  0  0  0  0  0  0  0  0  0  0  0
  188.6300  175.9740  136.6920 C   0  0  0  0  0  0  0  0  0  0  0  0
  187.4780  175.9110  137.3060 C   0  0  0  0  0  3  0  0  0  0  0  0
  189.7840  176.0190  136.0830 C   0  0  0  0  0  3  0  0  0  0  0  0
  191.0410  176.1810  136.8210 C   0  0  0  0  0  0  0  0  0  0  0  0
  191.1050  176.6300  138.0330 N   0  0  0  0  0  0  0  0  0  0  0  0
  192.3010  175.8300  136.2640 N   0  0  0  0  0  0  0  0  0  0  0  0
  193.1480  176.0900  137.1980 C   0  0  0  0  0  0  0  0  0  0  0  0
  192.5040  176.6290  138.4250 C   0  0  0  0  0  2  0  0  0  0  0  0
  194.5450  175.8670  137.0530 N   0  0  0  0  0  1  0  0  0  0  0  0
  186.2870  177.7310  136.1980 N   0  0  0  0  0  2  0  0  0  0  0  0
  184.9100  177.5980  135.9640 N   0  0  0  0  0  2  0  0  0  0  0  0
  184.7170  176.3290  135.2900 C   0  0  0  0  0  2  0  0  0  0  0  0
  183.3630  175.8530  135.5300 N   0  0  0  0  0  2  0  0  0  0  0  0
  183.3830  175.1620  136.8070 C   0  0  1  0  0  3  0  0  0  0  0  0
  181.1680  176.0220  137.0530 O   0  0  0  0  0  1  0  0  0  0  0  0
  182.3500  175.7660  137.7470 C   0  0  0  0  0  2  0  0  0  0  0  0
  183.1640  173.6630  136.6040 C   0  0  0  0  0  2  0  0  0  0  0  0
  184.2380  173.0350  135.7270 C   0  0  2  0  0  3  0  0  0  0  0  0
  184.0350  171.6450  135.6870 O   0  0  0  0  0  0  0  0  0  0  0  0
  185.0610  172.1060  136.5340 C   0  0  1  0  0  3  0  0  0  0  0  0
  186.4510  171.1150  134.6720 N   0  0  0  0  0  1  0  0  0  0  0  0
  186.3800  171.8670  135.8800 C   0  0  0  0  0  0  0  0  0  0  0  0
  187.4370  172.3040  136.4080 O   0  0  0  0  0  0  0  0  0  0  0  0
  1  4  1  0  0  0  0
  2  8  1  0  0  0  0
  3  5  1  0  0  0  0
  3 16  1  0  0  0  0
  4 19  1  0  0  0  0
  4  2  2  0  0  0  0
  6  2  1  0  0  0  0
  6  9  1  0  0  0  0
  7  6  2  0  0  0  0
  8  5  2  0  0  0  0
  9  3  2  0  0  0  0
 10  1  2  0  0  0  0
 10  7  1  0  0  0  0
 11 15  1  0  0  0  0
 12 11  2  0  0  0  0
 13 16  2  0  0  0  0
 13 12  1  0  0  0  0
 14 17  1  0  0  0  0
 14 15  2  0  0  0  0
 16 14  1  0  0  0  0
 17 18  1  0  0  0  0
 21 19  1  1  0  0  0
 21 22  1  0  0  0  0
 21 23  1  0  0  0  0
 22 20  1  0  0  0  0
 23 24  1  6  0  0  0
 23 20  1  0  0  0  0
 24 25  2  0  0  0  0
 26 24  1  0  0  0  0
 27 30  1  6  0  0  0
 27 28  1  0  0  0  0
 27 29  1  0  0  0  0
 28 29  1  0  0  0  0
 29 26  1  1  0  0  0
 31 38  1  0  0  0  0
 32 35  1  0  0  0  0
 32 37  1  0  0  0  0
 32 30  1  1  0  0  0
 33 35  1  0  0  0  0
 34 37  1  0  0  0  0
 36 33  1  1  0  0  0
 36 34  1  0  0  0  0
 38 39  1  6  0  0  0
 38 40  1  0  0  0  0
 38 36  1  0  0  0  0
 40 31  1  1  0  0  0
 40 32  1  0  0  0  0
 41  1  1  0  0  0  0
 42 41  1  0  0  0  0
 43 42  1  0  0  0  0
 44 45  2  0  0  0  0
 45 43  1  0  0  0  0
 46 44  2  0  0  0  0
 46 47  1  0  0  0  0
 47 48  2  0  0  0  0
 48 51  1  0  0  0  0
 49 47  1  0  0  0  0
 49 50  2  0  0  0  0
 50 51  1  0  0  0  0
 52 50  1  0  0  0  0
 53 43  1  0  0  0  0
 54 53  1  0  0  0  0
 55 56  1  0  0  0  0
 55 54  1  0  0  0  0
 56 57  1  0  0  0  0
 57 60  1  6  0  0  0
 57 59  1  0  0  0  0
 58 59  1  0  0  0  0
 61 63  1  0  0  0  0
 61 60  1  1  0  0  0
 62 61  1  0  0  0  0
 62 63  1  0  0  0  0
 63 65  1  6  0  0  0
 64 65  1  0  0  0  0
 65 66  2  0  0  0  0
M  END
>  <MODEL>
2

>  <REMARK>
 VINA RESULT:      -6.5      2.784      8.922
  Name = 
  23 active torsions:
  status: ('A' for Active; 'I' for Inactive)
    1  A    between atoms: C_1  and  C_19
    2  A    between atoms: C_3  and  C_45
    3  A    between atoms: C_4  and  C_45
    4  A    between atoms: C_5  and  C_6
    5  A    between atoms: C_6  and  CA_58
    6  A    between atoms: C_8  and  O_18
    7  A    between atoms: C_8  and  C_62
    8  A    between atoms: C_11  and  C_53
    9  A    between atoms: C_12  and  N_61
   10  A    between atoms: C_14  and  N_33
   11  A    between atoms: C_15  and  C_43
   12  A    between atoms: O_18  and  C_28
   13  A    between atoms: C_19  and  C_22
   14  A    between atoms: C_22  and  N_33
   15  A    between atoms: C_24  and  N_61
   16  A    between atoms: C_25  and  C_60
   17  A    between atoms: C_30  and  N_31
   18  A    between atoms: C_30  and  N_39
   19  A    between atoms: N_31  and  CA_58
   20  A    between atoms: N_33  and  N_57
   21  A    between atoms: O_36  and  C_42
   22  A    between atoms: N_39  and  N_57
   23  A    between atoms: C_54  and  CA_58
                            x       y       z     vdW  Elec       q    Type
                         _______ _______ _______ _____ _____    ______ ____

>  <TORSDO>
F 23

$$$$
=
 OpenBabel11042409563D

 66 75  0  0  1  0  0  0  0  0999 V2000
  184.4310  178.9600  139.7850 C   0  0  0  0  0  0  0  0  0  0  0  0
  186.7830  178.4870  140.1740 C   0  0  0  0  0  0  0  0  0  0  0  0
  189.2400  177.5260  139.1680 C   0  0  0  0  0  0  0  0  0  0  0  0
  185.5510  178.9670  140.6550 C   0  0  0  0  0  0  0  0  0  0  0  0
  189.1320  177.9710  140.4970 C   0  0  0  0  0  3  0  0  0  0  0  0
  186.8850  178.0520  138.8340 C   0  0  0  0  0  0  0  0  0  0  0  0
  185.7970  178.0850  138.0210 N   0  0  0  0  0  0  0  0  0  0  0  0
  187.9180  178.4460  140.9950 C   0  0  0  0  0  3  0  0  0  0  0  0
  188.1050  177.5830  138.3420 C   0  0  0  0  0  3  0  0  0  0  0  0
  184.5910  178.5150  138.4670 C   0  0  0  0  0  3  0  0  0  0  0  0
  193.0320  176.1190  137.7020 C   0  0  0  0  0  3  0  0  0  0  0  0
  192.9180  176.6680  138.9790 C   0  0  0  0  0  3  0  0  0  0  0  0
  191.6790  177.1220  139.4320 C   0  0  0  0  0  3  0  0  0  0  0  0
  190.6550  176.4850  137.3200 C   0  0  0  0  0  0  0  0  0  0  0  0
  191.9110  176.0310  136.8790 C   0  0  0  0  0  3  0  0  0  0  0  0
  190.5330  177.0350  138.6220 C   0  0  0  0  0  0  0  0  0  0  0  0
  189.5420  176.4120  136.4730 O   0  0  0  0  0  0  0  0  0  0  0  0
  189.6470  176.2500  135.0650 C   0  0  0  0  0  1  0  0  0  0  0  0
  185.4750  179.4370  142.0120 N   0  0  0  0  0  2  0  0  0  0  0  0
  182.9000  179.1500  143.7360 C   0  0  0  0  0  2  0  0  0  0  0  0
  184.9080  178.6950  143.1290 C   0  0  2  0  0  3  0  0  0  0  0  0
  183.5290  178.1850  142.7470 C   0  0  0  0  0  2  0  0  0  0  0  0
  184.2760  179.6580  144.1210 C   0  0  2  0  0  3  0  0  0  0  0  0
  184.5900  179.2650  145.5320 C   0  0  0  0  0  0  0  0  0  0  0  0
  183.7580  178.5640  146.1730 O   0  0  0  0  0  0  0  0  0  0  0  0
  185.8030  179.6410  146.1170 O   0  0  0  0  0  0  0  0  0  0  0  0
  187.5420  178.0980  145.5240 C   0  0  1  0  0  3  0  0  0  0  0  0
  186.3720  177.3250  146.0910 C   0  0  0  0  0  2  0  0  0  0  0  0
  186.7140  178.6900  146.6470 C   0  0  2  0  0  3  0  0  0  0  0  0
  188.8260  177.4970  146.0800 C   0  0  0  0  0  2  0  0  0  0  0  0
  192.0080  178.4490  144.6520 C   0  0  0  0  0  2  0  0  0  0  0  0
  189.8130  177.0420  145.0060 C   0  0  2  0  0  0  0  0  0  0  0  0
  190.1380  175.7930  142.8160 C   0  0  0  0  0  2  0  0  0  0  0  0
  191.8380  175.5490  144.6020 C   0  0  0  0  0  2  0  0  0  0  0  0
  189.1070  176.2550  143.8800 C   0  0  0  0  0  2  0  0  0  0  0  0
  191.5690  176.1970  143.2290 C   0  0  2  0  0  3  0  0  0  0  0  0
  190.8250  176.0650  145.6510 C   0  0  0  0  0  2  0  0  0  0  0  0
  191.5960  177.7410  143.3700 C   0  0  2  0  0  0  0  0  0  0  0  0
  191.6680  178.5010  142.2040 O   0  0  0  0  0  1  0  0  0  0  0  0
  190.5210  178.2620  144.3350 C   0  0  2  0  0  3  0  0  0  0  0  0
  183.0550  179.3230  140.2450 C   0  0  0  0  0  2  0  0  0  0  0  0
  182.1060  179.4670  139.0650 C   0  0  0  0  0  2  0  0  0  0  0  0
  180.8840  178.7130  139.3070 N   0  0  0  0  0  0  0  0  0  0  0  0
  179.3580  180.5120  138.8420 C   0  0  0  0  0  0  0  0  0  0  0  0
  179.6000  179.2310  138.9340 C   0  0  0  0  0  3  0  0  0  0  0  0
  179.0980  181.7880  138.7450 C   0  0  0  0  0  3  0  0  0  0  0  0
  179.0490  182.4700  137.4470 C   0  0  0  0  0  0  0  0  0  0  0  0
  178.9820  181.8460  136.3150 N   0  0  0  0  0  0  0  0  0  0  0  0
  179.0480  183.8870  137.3320 N   0  0  0  0  0  0  0  0  0  0  0  0
  178.9800  184.1040  136.0650 C   0  0  0  0  0  0  0  0  0  0  0  0
  178.9340  182.8510  135.2670 C   0  0  0  0  0  2  0  0  0  0  0  0
  178.9420  185.4150  135.5110 N   0  0  0  0  0  1  0  0  0  0  0  0
  180.9810  177.3690  139.6960 N   0  0  0  0  0  2  0  0  0  0  0  0
  180.3830  176.5990  138.6860 N   0  0  0  0  0  2  0  0  0  0  0  0
  181.4160  176.3060  137.7120 C   0  0  0  0  0  2  0  0  0  0  0  0
  180.7990  175.8940  136.4600 N   0  0  0  0  0  2  0  0  0  0  0  0
  181.8390  175.9370  135.4470 C   0  0  1  0  0  3  0  0  0  0  0  0
  181.7630  178.3240  135.5100 O   0  0  0  0  0  1  0  0  0  0  0  0
  181.7390  177.2280  134.6480 C   0  0  0  0  0  2  0  0  0  0  0  0
  183.2140  175.7660  136.0900 C   0  0  0  0  0  2  0  0  0  0  0  0
  183.9810  174.5860  135.5120 C   0  0  2  0  0  3  0  0  0  0  0  0
  183.0610  173.6190  135.0730 O   0  0  0  0  0  0  0  0  0  0  0  0
  183.6960  173.3680  136.3050 C   0  0  1  0  0  3  0  0  0  0  0  0
  186.0090  172.4750  136.7880 N   0  0  0  0  0  1  0  0  0  0  0  0
  184.7660  172.3480  136.1060 C   0  0  0  0  0  0  0  0  0  0  0  0
  184.5830  171.3870  135.3120 O   0  0  0  0  0  0  0  0  0  0  0  0
  1 41  1  0  0  0  0
  1  4  1  0  0  0  0
  2  4  2  0  0  0  0
  2  8  1  0  0  0  0
  3  5  1  0  0  0  0
  4 19  1  0  0  0  0
  5  8  2  0  0  0  0
  6  2  1  0  0  0  0
  7 10  1  0  0  0  0
  7  6  2  0  0  0  0
  9  6  1  0  0  0  0
  9  3  2  0  0  0  0
 10  1  2  0  0  0  0
 11 12  1  0  0  0  0
 12 13  2  0  0  0  0
 14 16  2  0  0  0  0
 15 14  1  0  0  0  0
 15 11  2  0  0  0  0
 16  3  1  0  0  0  0
 16 13  1  0  0  0  0
 17 14  1  0  0  0  0
 18 17  1  0  0  0  0
 20 23  1  0  0  0  0
 21 19  1  6  0  0  0
 21 23  1  0  0  0  0
 22 21  1  0  0  0  0
 22 20  1  0  0  0  0
 23 24  1  1  0  0  0
 24 26  1  0  0  0  0
 24 25  2  0  0  0  0
 27 30  1  1  0  0  0
 27 28  1  0  0  0  0
 27 29  1  0  0  0  0
 28 29  1  0  0  0  0
 29 26  1  6  0  0  0
 32 37  1  0  0  0  0
 32 30  1  1  0  0  0
 33 35  1  0  0  0  0
 34 37  1  0  0  0  0
 35 32  1  0  0  0  0
 36 33  1  1  0  0  0
 36 38  1  0  0  0  0
 36 34  1  0  0  0  0
 38 39  1  6  0  0  0
 38 40  1  0  0  0  0
 38 31  1  0  0  0  0
 40 31  1  1  0  0  0
 40 32  1  0  0  0  0
 42 43  1  0  0  0  0
 42 41  1  0  0  0  0
 43 53  1  0  0  0  0
 44 45  2  0  0  0  0
 45 43  1  0  0  0  0
 46 44  2  0  0  0  0
 47 46  1  0  0  0  0
 48 47  2  0  0  0  0
 49 47  1  0  0  0  0
 50 49  2  0  0  0  0
 51 50  1  0  0  0  0
 51 48  1  0  0  0  0
 52 50  1  0  0  0  0
 54 53  1  0  0  0  0
 55 54  1  0  0  0  0
 56 55  1  0  0  0  0
 57 59  1  1  0  0  0
 57 60  1  0  0  0  0
 57 56  1  0  0  0  0
 59 58  1  0  0  0  0
 61 60  1  1  0  0  0
 61 63  1  0  0  0  0
 62 61  1  0  0  0  0
 62 63  1  0  0  0  0
 63 65  1  6  0  0  0
 65 64  1  0  0  0  0
 66 65  2  0  0  0  0
M  END
>  <MODEL>
3

>  <REMARK>
 VINA RESULT:      -6.4      1.726      2.176
  Name = 
  23 active torsions:
  status: ('A' for Active; 'I' for Inactive)
    1  A    between atoms: C_1  and  C_19
    2  A    between atoms: C_3  and  C_45
    3  A    between atoms: C_4  and  C_45
    4  A    between atoms: C_5  and  C_6
    5  A    between atoms: C_6  and  CA_58
    6  A    between atoms: C_8  and  O_18
    7  A    between atoms: C_8  and  C_62
    8  A    between atoms: C_11  and  C_53
    9  A    between atoms: C_12  and  N_61
   10  A    between atoms: C_14  and  N_33
   11  A    between atoms: C_15  and  C_43
   12  A    between atoms: O_18  and  C_28
   13  A    between atoms: C_19  and  C_22
   14  A    between atoms: C_22  and  N_33
   15  A    between atoms: C_24  and  N_61
   16  A    between atoms: C_25  and  C_60
   17  A    between atoms: C_30  and  N_31
   18  A    between atoms: C_30  and  N_39
   19  A    between atoms: N_31  and  CA_58
   20  A    between atoms: N_33  and  N_57
   21  A    between atoms: O_36  and  C_42
   22  A    between atoms: N_39  and  N_57
   23  A    between atoms: C_54  and  CA_58
                            x       y       z     vdW  Elec       q    Type
                         _______ _______ _______ _____ _____    ______ ____

>  <TORSDO>
F 23

$$$$
=
 OpenBabel11042409563D

 66 75  0  0  1  0  0  0  0  0999 V2000
  186.6960  178.1620  139.7100 C   0  0  0  0  0  0  0  0  0  0  0  0
  184.3850  178.7950  139.3020 C   0  0  0  0  0  0  0  0  0  0  0  0
  182.2010  178.9020  137.5150 C   0  0  0  0  0  0  0  0  0  0  0  0
  185.4830  178.7280  140.1800 C   0  0  0  0  0  0  0  0  0  0  0  0
  182.0900  179.4180  138.8170 C   0  0  0  0  0  3  0  0  0  0  0  0
  184.5020  178.2630  137.9980 C   0  0  0  0  0  0  0  0  0  0  0  0
  185.6710  177.7050  137.5920 N   0  0  0  0  0  0  0  0  0  0  0  0
  183.1690  179.3650  139.7020 C   0  0  0  0  0  3  0  0  0  0  0  0
  183.4160  178.3160  137.1210 C   0  0  0  0  0  3  0  0  0  0  0  0
  186.7550  177.6530  138.4070 C   0  0  0  0  0  3  0  0  0  0  0  0
  178.9320  179.1010  134.7260 C   0  0  0  0  0  3  0  0  0  0  0  0
  179.8960  180.1080  134.7720 C   0  0  0  0  0  3  0  0  0  0  0  0
  180.9450  180.0250  135.6870 C   0  0  0  0  0  3  0  0  0  0  0  0
  180.0650  177.9200  136.5290 C   0  0  0  0  0  0  0  0  0  0  0  0
  179.0150  178.0180  135.5990 C   0  0  0  0  0  3  0  0  0  0  0  0
  181.0530  178.9370  136.5710 C   0  0  0  0  0  0  0  0  0  0  0  0
  180.1220  176.8370  137.4160 O   0  0  0  0  0  0  0  0  0  0  0  0
  179.3700  176.7820  138.6210 C   0  0  0  0  0  1  0  0  0  0  0  0
  185.3340  179.2430  141.5140 N   0  0  0  0  0  2  0  0  0  0  0  0
  183.8010  179.5680  144.2030 C   0  0  0  0  0  2  0  0  0  0  0  0
  184.8260  178.4920  142.6530 C   0  0  2  0  0  3  0  0  0  0  0  0
  183.3830  178.8850  142.9120 C   0  0  0  0  0  2  0  0  0  0  0  0
  185.2430  179.1740  143.9470 C   0  0  2  0  0  3  0  0  0  0  0  0
  185.6880  178.1720  144.9670 C   0  0  0  0  0  0  0  0  0  0  0  0
  185.7840  176.9580  144.6340 O   0  0  0  0  0  0  0  0  0  0  0  0
  186.0250  178.5820  146.2610 O   0  0  0  0  0  0  0  0  0  0  0  0
  188.0380  177.4800  146.9590 C   0  0  1  0  0  3  0  0  0  0  0  0
  187.5370  178.3490  148.0910 C   0  0  0  0  0  2  0  0  0  0  0  0
  187.3690  178.8060  146.6580 C   0  0  2  0  0  3  0  0  0  0  0  0
  189.5520  177.6270  146.8800 C   0  0  0  0  0  2  0  0  0  0  0  0
  192.0740  178.7180  144.5300 C   0  0  0  0  0  2  0  0  0  0  0  0
  190.1430  177.2350  145.5260 C   0  0  2  0  0  0  0  0  0  0  0  0
  189.7590  176.0600  143.3040 C   0  0  0  0  0  2  0  0  0  0  0  0
  191.9540  175.8170  144.4290 C   0  0  0  0  0  2  0  0  0  0  0  0
  189.1240  176.4580  144.6630 C   0  0  0  0  0  2  0  0  0  0  0  0
  191.2390  176.4960  143.2440 C   0  0  2  0  0  3  0  0  0  0  0  0
  191.3290  176.2710  145.7700 C   0  0  0  0  0  2  0  0  0  0  0  0
  191.2800  178.0350  143.4260 C   0  0  2  0  0  0  0  0  0  0  0  0
  190.9530  178.8310  142.3300 O   0  0  0  0  0  1  0  0  0  0  0  0
  190.5690  178.4940  144.7080 C   0  0  2  0  0  3  0  0  0  0  0  0
  187.9520  178.1690  140.5210 C   0  0  0  0  0  2  0  0  0  0  0  0
  189.1580  178.5020  139.6560 C   0  0  0  0  0  2  0  0  0  0  0  0
  189.6830  177.2920  139.0390 N   0  0  0  0  0  0  0  0  0  0  0  0
  189.3600  175.7870  137.1920 C   0  0  0  0  0  0  0  0  0  0  0  0
  189.4670  177.0060  137.6500 C   0  0  0  0  0  3  0  0  0  0  0  0
  189.2510  174.5760  136.7160 C   0  0  0  0  0  3  0  0  0  0  0  0
  187.9470  173.9870  136.3930 C   0  0  0  0  0  0  0  0  0  0  0  0
  186.8550  174.6760  136.3060 N   0  0  0  0  0  0  0  0  0  0  0  0
  187.7840  172.6010  136.1240 N   0  0  0  0  0  0  0  0  0  0  0  0
  186.5290  172.4710  135.8690 C   0  0  0  0  0  0  0  0  0  0  0  0
  185.7860  173.7560  135.9550 C   0  0  0  0  0  2  0  0  0  0  0  0
  185.9390  171.2210  135.5310 N   0  0  0  0  0  1  0  0  0  0  0  0
  190.6080  176.5130  139.7510 N   0  0  0  0  0  2  0  0  0  0  0  0
  191.8840  177.0280  139.4760 N   0  0  0  0  0  2  0  0  0  0  0  0
  192.2880  176.4900  138.1910 C   0  0  0  0  0  2  0  0  0  0  0  0
  193.6330  175.9440  138.2950 N   0  0  0  0  0  2  0  0  0  0  0  0
  193.7950  175.0200  137.1860 C   0  0  1  0  0  3  0  0  0  0  0  0
  194.8600  176.9380  136.2400 O   0  0  0  0  0  1  0  0  0  0  0  0
  194.1520  175.7800  135.9170 C   0  0  0  0  0  2  0  0  0  0  0  0
  194.8380  173.9570  137.5280 C   0  0  0  0  0  2  0  0  0  0  0  0
  196.1670  174.5650  137.9530 C   0  0  2  0  0  3  0  0  0  0  0  0
  197.0590  173.5280  138.2730 O   0  0  0  0  0  0  0  0  0  0  0  0
  196.4590  174.1960  139.3570 C   0  0  1  0  0  3  0  0  0  0  0  0
  198.5360  175.6210  139.1780 N   0  0  0  0  0  1  0  0  0  0  0  0
  197.4450  175.1410  139.9560 C   0  0  0  0  0  0  0  0  0  0  0  0
  197.3310  175.4950  141.1600 O   0  0  0  0  0  0  0  0  0  0  0  0
  1  4  1  0  0  0  0
  1 41  1  0  0  0  0
  2  8  1  0  0  0  0
  2  4  2  0  0  0  0
  3  5  1  0  0  0  0
  4 19  1  0  0  0  0
  5  8  2  0  0  0  0
  6  2  1  0  0  0  0
  7  6  2  0  0  0  0
  7 10  1  0  0  0  0
  9  3  2  0  0  0  0
  9  6  1  0  0  0  0
 10  1  2  0  0  0  0
 11 12  2  0  0  0  0
 11 15  1  0  0  0  0
 12 13  1  0  0  0  0
 13 16  2  0  0  0  0
 14 16  1  0  0  0  0
 14 17  1  0  0  0  0
 15 14  2  0  0  0  0
 16  3  1  0  0  0  0
 17 18  1  0  0  0  0
 21 19  1  6  0  0  0
 21 22  1  0  0  0  0
 21 23  1  0  0  0  0
 22 20  1  0  0  0  0
 23 20  1  0  0  0  0
 23 24  1  1  0  0  0
 24 26  1  0  0  0  0
 25 24  2  0  0  0  0
 27 30  1  1  0  0  0
 27 28  1  0  0  0  0
 29 26  1  6  0  0  0
 29 27  1  0  0  0  0
 29 28  1  0  0  0  0
 32 37  1  0  0  0  0
 32 30  1  1  0  0  0
 33 35  1  0  0  0  0
 34 37  1  0  0  0  0
 35 32  1  0  0  0  0
 36 33  1  1  0  0  0
 36 38  1  0  0  0  0
 36 34  1  0  0  0  0
 38 39  1  6  0  0  0
 38 31  1  0  0  0  0
 38 40  1  0  0  0  0
 40 31  1  1  0  0  0
 40 32  1  0  0  0  0
 42 41  1  0  0  0  0
 43 42  1  0  0  0  0
 43 53  1  0  0  0  0
 44 45  2  0  0  0  0
 45 43  1  0  0  0  0
 46 44  2  0  0  0  0
 47 46  1  0  0  0  0
 48 47  2  0  0  0  0
 49 47  1  0  0  0  0
 50 51  1  0  0  0  0
 50 49  2  0  0  0  0
 51 48  1  0  0  0  0
 52 50  1  0  0  0  0
 54 53  1  0  0  0  0
 55 56  1  0  0  0  0
 55 54  1  0  0  0  0
 57 59  1  6  0  0  0
 57 60  1  0  0  0  0
 57 56  1  0  0  0  0
 59 58  1  0  0  0  0
 61 60  1  6  0  0  0
 61 62  1  0  0  0  0
 61 63  1  0  0  0  0
 62 63  1  0  0  0  0
 63 65  1  1  0  0  0
 64 65  1  0  0  0  0
 65 66  2  0  0  0  0
M  END
>  <MODEL>
4

>  <REMARK>
 VINA RESULT:      -6.0      3.421      9.150
  Name = 
  23 active torsions:
  status: ('A' for Active; 'I' for Inactive)
    1  A    between atoms: C_1  and  C_19
    2  A    between atoms: C_3  and  C_45
    3  A    between atoms: C_4  and  C_45
    4  A    between atoms: C_5  and  C_6
    5  A    between atoms: C_6  and  CA_58
    6  A    between atoms: C_8  and  O_18
    7  A    between atoms: C_8  and  C_62
    8  A    between atoms: C_11  and  C_53
    9  A    between atoms: C_12  and  N_61
   10  A    between atoms: C_14  and  N_33
   11  A    between atoms: C_15  and  C_43
   12  A    between atoms: O_18  and  C_28
   13  A    between atoms: C_19  and  C_22
   14  A    between atoms: C_22  and  N_33
   15  A    between atoms: C_24  and  N_61
   16  A    between atoms: C_25  and  C_60
   17  A    between atoms: C_30  and  N_31
   18  A    between atoms: C_30  and  N_39
   19  A    between atoms: N_31  and  CA_58
   20  A    between atoms: N_33  and  N_57
   21  A    between atoms: O_36  and  C_42
   22  A    between atoms: N_39  and  N_57
   23  A    between atoms: C_54  and  CA_58
                            x       y       z     vdW  Elec       q    Type
                         _______ _______ _______ _____ _____    ______ ____

>  <TORSDO>
F 23

$$$$
=
 OpenBabel11042409563D

 66 75  0  0  1  0  0  0  0  0999 V2000
  186.7780  178.0210  139.7170 C   0  0  0  0  0  0  0  0  0  0  0  0
  184.5330  178.9100  139.4410 C   0  0  0  0  0  0  0  0  0  0  0  0
  182.3100  179.3470  137.7560 C   0  0  0  0  0  0  0  0  0  0  0  0
  185.6490  178.6790  140.2670 C   0  0  0  0  0  0  0  0  0  0  0  0
  182.3000  179.7930  139.0880 C   0  0  0  0  0  3  0  0  0  0  0  0
  184.5470  178.4480  138.1070 C   0  0  0  0  0  0  0  0  0  0  0  0
  185.6360  177.7980  137.6220 N   0  0  0  0  0  0  0  0  0  0  0  0
  183.3990  179.5780  139.9220 C   0  0  0  0  0  3  0  0  0  0  0  0
  183.4420  178.6630  137.2800 C   0  0  0  0  0  3  0  0  0  0  0  0
  186.7370  177.5870  138.3860 C   0  0  0  0  0  3  0  0  0  0  0  0
  178.9370  179.8310  135.1300 C   0  0  0  0  0  3  0  0  0  0  0  0
  179.7750  178.7220  135.0210 C   0  0  0  0  0  3  0  0  0  0  0  0
  180.8660  178.5880  135.8800 C   0  0  0  0  0  3  0  0  0  0  0  0
  180.2900  180.6870  136.9650 C   0  0  0  0  0  0  0  0  0  0  0  0
  179.1940  180.8060  136.0920 C   0  0  0  0  0  3  0  0  0  0  0  0
  181.1380  179.5550  136.8640 C   0  0  0  0  0  0  0  0  0  0  0  0
  180.5500  181.6860  137.9110 O   0  0  0  0  0  0  0  0  0  0  0  0
  179.6770  181.9760  138.9940 C   0  0  0  0  0  1  0  0  0  0  0  0
  185.6020  179.1270  141.6330 N   0  0  0  0  0  2  0  0  0  0  0  0
  183.7740  179.3250  144.1440 C   0  0  0  0  0  2  0  0  0  0  0  0
  185.0910  178.3530  142.7550 C   0  0  2  0  0  3  0  0  0  0  0  0
  183.5880  178.5430  142.8550 C   0  0  0  0  0  2  0  0  0  0  0  0
  185.2750  179.1330  144.0460 C   0  0  2  0  0  3  0  0  0  0  0  0
  185.7500  178.2430  145.1540 C   0  0  0  0  0  0  0  0  0  0  0  0
  185.9640  177.0230  144.9110 O   0  0  0  0  0  0  0  0  0  0  0  0
  185.9850  178.7650  146.4300 O   0  0  0  0  0  0  0  0  0  0  0  0
  188.0010  177.5950  146.9990 C   0  0  1  0  0  3  0  0  0  0  0  0
  187.4030  178.1840  148.2570 C   0  0  0  0  0  2  0  0  0  0  0  0
  187.2960  178.9350  146.9480 C   0  0  2  0  0  3  0  0  0  0  0  0
  189.5090  177.7980  147.0470 C   0  0  0  0  0  2  0  0  0  0  0  0
  188.9070  177.5960  143.4880 C   0  0  0  0  0  2  0  0  0  0  0  0
  190.2280  177.4110  145.7560 C   0  0  2  0  0  0  0  0  0  0  0  0
  192.0700  176.0220  144.6880 C   0  0  0  0  0  2  0  0  0  0  0  0
  191.6890  178.3340  143.8820 C   0  0  0  0  0  2  0  0  0  0  0  0
  191.3500  176.3810  146.0150 C   0  0  0  0  0  2  0  0  0  0  0  0
  191.5010  176.8490  143.5160 C   0  0  2  0  0  3  0  0  0  0  0  0
  190.9200  178.6710  145.1820 C   0  0  0  0  0  2  0  0  0  0  0  0
  189.9880  176.5280  143.4090 C   0  0  2  0  0  0  0  0  0  0  0  0
  189.6160  175.3280  142.8050 O   0  0  0  0  0  1  0  0  0  0  0  0
  189.2430  176.7650  144.7310 C   0  0  2  0  0  3  0  0  0  0  0  0
  188.0560  177.8510  140.4740 C   0  0  0  0  0  2  0  0  0  0  0  0
  189.2450  178.3170  139.6480 C   0  0  0  0  0  2  0  0  0  0  0  0
  189.8510  177.1860  138.9580 N   0  0  0  0  0  0  0  0  0  0  0  0
  189.2280  175.5920  137.2700 C   0  0  0  0  0  0  0  0  0  0  0  0
  189.4630  176.8270  137.6250 C   0  0  0  0  0  3  0  0  0  0  0  0
  188.9890  174.3630  136.8970 C   0  0  0  0  0  3  0  0  0  0  0  0
  187.6220  173.8500  136.7590 C   0  0  0  0  0  0  0  0  0  0  0  0
  187.3020  172.6120  136.9580 N   0  0  0  0  0  0  0  0  0  0  0  0
  186.5260  174.6860  136.4130 N   0  0  0  0  0  0  0  0  0  0  0  0
  185.5100  173.8960  136.4080 C   0  0  0  0  0  0  0  0  0  0  0  0
  185.8690  172.4930  136.7450 C   0  0  0  0  0  2  0  0  0  0  0  0
  184.1910  174.3430  136.1180 N   0  0  0  0  0  1  0  0  0  0  0  0
  190.9910  176.5840  139.5130 N   0  0  0  0  0  2  0  0  0  0  0  0
  192.0770  176.9090  138.6860 N   0  0  0  0  0  2  0  0  0  0  0  0
  192.8110  175.6810  138.4510 C   0  0  0  0  0  2  0  0  0  0  0  0
  192.4260  175.1260  137.1610 N   0  0  0  0  0  2  0  0  0  0  0  0
  193.3370  174.0280  136.8900 C   0  0  1  0  0  3  0  0  0  0  0  0
  193.1880  171.7240  136.2750 O   0  0  0  0  0  1  0  0  0  0  0  0
  192.6580  172.9870  136.0110 C   0  0  0  0  0  2  0  0  0  0  0  0
  194.6290  174.5510  136.2630 C   0  0  0  0  0  2  0  0  0  0  0  0
  195.8670  174.0750  137.0080 C   0  0  2  0  0  3  0  0  0  0  0  0
  196.5110  175.1880  137.5760 O   0  0  0  0  0  0  0  0  0  0  0  0
  197.0780  174.6700  136.3960 C   0  0  1  0  0  3  0  0  0  0  0  0
  199.0330  173.2220  135.7180 N   0  0  0  0  0  1  0  0  0  0  0  0
  198.2900  173.8730  136.7430 C   0  0  0  0  0  0  0  0  0  0  0  0
  198.6420  173.7500  137.9470 O   0  0  0  0  0  0  0  0  0  0  0  0
  1  4  1  0  0  0  0
  1 41  1  0  0  0  0
  2  8  1  0  0  0  0
  2  4  2  0  0  0  0
  3  5  1  0  0  0  0
  4 19  1  0  0  0  0
  5  8  2  0  0  0  0
  6  2  1  0  0  0  0
  7  6  2  0  0  0  0
  7 10  1  0  0  0  0
  9  3  2  0  0  0  0
  9  6  1  0  0  0  0
 10  1  2  0  0  0  0
 11 15  1  0  0  0  0
 12 11  2  0  0  0  0
 12 13  1  0  0  0  0
 13 16  2  0  0  0  0
 14 17  1  0  0  0  0
 15 14  2  0  0  0  0
 16 14  1  0  0  0  0
 16  3  1  0  0  0  0
 17 18  1  0  0  0  0
 21 19  1  6  0  0  0
 21 22  1  0  0  0  0
 21 23  1  0  0  0  0
 22 20  1  0  0  0  0
 23 20  1  0  0  0  0
 23 24  1  1  0  0  0
 24 26  1  0  0  0  0
 25 24  2  0  0  0  0
 27 30  1  1  0  0  0
 27 28  1  0  0  0  0
 29 26  1  6  0  0  0
 29 27  1  0  0  0  0
 29 28  1  0  0  0  0
 32 35  1  0  0  0  0
 32 30  1  1  0  0  0
 33 35  1  0  0  0  0
 34 37  1  0  0  0  0
 36 34  1  1  0  0  0
 36 33  1  0  0  0  0
 37 32  1  0  0  0  0
 38 39  1  6  0  0  0
 38 31  1  0  0  0  0
 38 36  1  0  0  0  0
 38 40  1  0  0  0  0
 40 31  1  6  0  0  0
 40 32  1  0  0  0  0
 42 41  1  0  0  0  0
 43 53  1  0  0  0  0
 43 42  1  0  0  0  0
 44 45  2  0  0  0  0
 45 43  1  0  0  0  0
 46 44  2  0  0  0  0
 47 46  1  0  0  0  0
 47 48  2  0  0  0  0
 49 47  1  0  0  0  0
 50 49  2  0  0  0  0
 50 51  1  0  0  0  0
 51 48  1  0  0  0  0
 52 50  1  0  0  0  0
 54 53  1  0  0  0  0
 55 54  1  0  0  0  0
 56 55  1  0  0  0  0
 57 59  1  6  0  0  0
 57 56  1  0  0  0  0
 59 58  1  0  0  0  0
 60 57  1  0  0  0  0
 61 60  1  6  0  0  0
 61 62  1  0  0  0  0
 63 65  1  1  0  0  0
 63 61  1  0  0  0  0
 63 62  1  0  0  0  0
 64 65  1  0  0  0  0
 65 66  2  0  0  0  0
M  END
>  <MODEL>
5

>  <REMARK>
 VINA RESULT:      -5.5      3.526      8.975
  Name = 
  23 active torsions:
  status: ('A' for Active; 'I' for Inactive)
    1  A    between atoms: C_1  and  C_19
    2  A    between atoms: C_3  and  C_45
    3  A    between atoms: C_4  and  C_45
    4  A    between atoms: C_5  and  C_6
    5  A    between atoms: C_6  and  CA_58
    6  A    between atoms: C_8  and  O_18
    7  A    between atoms: C_8  and  C_62
    8  A    between atoms: C_11  and  C_53
    9  A    between atoms: C_12  and  N_61
   10  A    between atoms: C_14  and  N_33
   11  A    between atoms: C_15  and  C_43
   12  A    between atoms: O_18  and  C_28
   13  A    between atoms: C_19  and  C_22
   14  A    between atoms: C_22  and  N_33
   15  A    between atoms: C_24  and  N_61
   16  A    between atoms: C_25  and  C_60
   17  A    between atoms: C_30  and  N_31
   18  A    between atoms: C_30  and  N_39
   19  A    between atoms: N_31  and  CA_58
   20  A    between atoms: N_33  and  N_57
   21  A    between atoms: O_36  and  C_42
   22  A    between atoms: N_39  and  N_57
   23  A    between atoms: C_54  and  CA_58
                            x       y       z     vdW  Elec       q    Type
                         _______ _______ _______ _____ _____    ______ ____

>  <TORSDO>
F 23

$$$$
=
 OpenBabel11042409563D

 66 75  0  0  1  0  0  0  0  0999 V2000
  190.0050  177.5410  139.0170 C   0  0  0  0  0  0  0  0  0  0  0  0
  191.1790  176.2970  137.2910 C   0  0  0  0  0  0  0  0  0  0  0  0
  193.5490  175.0200  136.4380 C   0  0  0  0  0  0  0  0  0  0  0  0
  190.0050  176.9330  137.7360 C   0  0  0  0  0  0  0  0  0  0  0  0
  192.4190  175.0690  135.6030 C   0  0  0  0  0  3  0  0  0  0  0  0
  192.3060  176.2420  138.1400 C   0  0  0  0  0  0  0  0  0  0  0  0
  192.2600  176.8120  139.3720 N   0  0  0  0  0  0  0  0  0  0  0  0
  191.2470  175.7000  136.0250 C   0  0  0  0  0  3  0  0  0  0  0  0
  193.4740  175.6040  137.7130 C   0  0  0  0  0  3  0  0  0  0  0  0
  191.1530  177.4580  139.8150 C   0  0  0  0  0  3  0  0  0  0  0  0
  197.0980  172.9270  135.2020 C   0  0  0  0  0  3  0  0  0  0  0  0
  195.9910  172.2330  135.6890 C   0  0  0  0  0  3  0  0  0  0  0  0
  194.8520  172.9320  136.0880 C   0  0  0  0  0  3  0  0  0  0  0  0
  195.9280  175.0380  135.5210 C   0  0  0  0  0  0  0  0  0  0  0  0
  197.0670  174.3180  135.1210 C   0  0  0  0  0  3  0  0  0  0  0  0
  194.7960  174.3350  136.0070 C   0  0  0  0  0  0  0  0  0  0  0  0
  195.9200  176.4380  135.4570 O   0  0  0  0  0  0  0  0  0  0  0  0
  195.0510  177.1700  134.6030 C   0  0  0  0  0  1  0  0  0  0  0  0
  188.8570  176.9490  136.8700 N   0  0  0  0  0  2  0  0  0  0  0  0
  187.7000  174.3700  135.5690 C   0  0  0  0  0  2  0  0  0  0  0  0
  187.7380  176.0210  136.9410 C   0  0  2  0  0  3  0  0  0  0  0  0
  188.2660  174.5970  136.9600 C   0  0  0  0  0  2  0  0  0  0  0  0
  187.1700  175.7910  135.5490 C   0  0  2  0  0  3  0  0  0  0  0  0
  185.6730  175.7780  135.5720 C   0  0  0  0  0  0  0  0  0  0  0  0
  185.0710  174.6880  135.7810 O   0  0  0  0  0  0  0  0  0  0  0  0
  184.9520  176.9640  135.3970 O   0  0  0  0  0  0  0  0  0  0  0  0
  182.9070  177.9930  136.1130 C   0  0  1  0  0  3  0  0  0  0  0  0
  182.8670  176.5230  136.4680 C   0  0  0  0  0  2  0  0  0  0  0  0
  183.5470  176.9740  135.1930 C   0  0  2  0  0  3  0  0  0  0  0  0
  181.5380  178.3930  135.5810 C   0  0  0  0  0  2  0  0  0  0  0  0
  179.6440  181.3240  134.6380 C   0  0  0  0  0  2  0  0  0  0  0  0
  180.9870  179.6810  136.1920 C   0  0  2  0  0  0  0  0  0  0  0  0
  181.2300  181.4370  138.0140 C   0  0  0  0  0  2  0  0  0  0  0  0
  178.9610  180.6660  137.3830 C   0  0  0  0  0  2  0  0  0  0  0  0
  181.8250  180.1390  137.4070 C   0  0  0  0  0  2  0  0  0  0  0  0
  179.9420  181.8490  137.2690 C   0  0  2  0  0  3  0  0  0  0  0  0
  179.5620  179.4000  136.7270 C   0  0  0  0  0  2  0  0  0  0  0  0
  180.3140  182.0730  135.7810 C   0  0  2  0  0  0  0  0  0  0  0  0
  180.9490  183.2650  135.4390 O   0  0  0  0  0  1  0  0  0  0  0  0
  181.0050  180.8510  135.1580 C   0  0  2  0  0  3  0  0  0  0  0  0
  188.8550  178.3540  139.5200 C   0  0  0  0  0  2  0  0  0  0  0  0
  187.9640  177.5300  140.4360 C   0  0  0  0  0  2  0  0  0  0  0  0
  188.2410  177.8530  141.8290 N   0  0  0  0  0  0  0  0  0  0  0  0
  189.8650  178.2940  143.5460 C   0  0  0  0  0  0  0  0  0  0  0  0
  189.5820  177.8920  142.3350 C   0  0  0  0  0  3  0  0  0  0  0  0
  190.1670  178.6920  144.7530 C   0  0  0  0  0  3  0  0  0  0  0  0
  190.4590  177.7400  145.8300 C   0  0  0  0  0  0  0  0  0  0  0  0
  189.5660  177.3060  146.6610 N   0  0  0  0  0  0  0  0  0  0  0  0
  191.7560  177.1960  146.0330 N   0  0  0  0  0  0  0  0  0  0  0  0
  191.6160  176.4030  147.0380 C   0  0  0  0  0  0  0  0  0  0  0  0
  190.2250  176.3750  147.5610 C   0  0  0  0  0  2  0  0  0  0  0  0
  192.6910  175.6360  147.5670 N   0  0  0  0  0  1  0  0  0  0  0  0
  187.2040  178.3580  142.6290 N   0  0  0  0  0  2  0  0  0  0  0  0
  185.9950  177.9280  142.0620 N   0  0  0  0  0  2  0  0  0  0  0  0
  185.0600  179.0300  142.1770 C   0  0  0  0  0  2  0  0  0  0  0  0
  183.7180  178.5070  142.3930 N   0  0  0  0  0  2  0  0  0  0  0  0
  183.0170  178.6220  141.1270 C   0  0  1  0  0  3  0  0  0  0  0  0
  184.4680  179.2850  139.3490 O   0  0  0  0  0  1  0  0  0  0  0  0
  183.5870  179.7740  140.3130 C   0  0  0  0  0  2  0  0  0  0  0  0
  183.0760  177.2990  140.3650 C   0  0  0  0  0  2  0  0  0  0  0  0
  181.8360  177.0640  139.5150 C   0  0  2  0  0  3  0  0  0  0  0  0
  180.7210  176.9490  140.3620 O   0  0  0  0  0  0  0  0  0  0  0  0
  181.2440  175.7480  139.8470 C   0  0  1  0  0  3  0  0  0  0  0  0
  180.5190  173.9460  138.2320 N   0  0  0  0  0  1  0  0  0  0  0  0
  180.3700  175.2690  138.7370 C   0  0  0  0  0  0  0  0  0  0  0  0
  179.5160  176.0420  138.2260 O   0  0  0  0  0  0  0  0  0  0  0  0
  1 41  1  0  0  0  0
  1 10  1  0  0  0  0
  2  4  1  0  0  0  0
  2  6  1  0  0  0  0
  3  9  1  0  0  0  0
  4  1  2  0  0  0  0
  5  8  1  0  0  0  0
  5  3  2  0  0  0  0
  6  7  1  0  0  0  0
  7 10  2  0  0  0  0
  8  2  2  0  0  0  0
  9  6  2  0  0  0  0
 11 12  1  0  0  0  0
 12 13  2  0  0  0  0
 14 16  2  0  0  0  0
 15 11  2  0  0  0  0
 15 14  1  0  0  0  0
 16 13  1  0  0  0  0
 16  3  1  0  0  0  0
 17 14  1  0  0  0  0
 18 17  1  0  0  0  0
 19  4  1  0  0  0  0
 20 22  1  0  0  0  0
 21 19  1  6  0  0  0
 21 22  1  0  0  0  0
 23 20  1  0  0  0  0
 23 24  1  1  0  0  0
 23 21  1  0  0  0  0
 24 25  2  0  0  0  0
 26 24  1  0  0  0  0
 27 30  1  6  0  0  0
 27 28  1  0  0  0  0
 29 26  1  1  0  0  0
 29 27  1  0  0  0  0
 29 28  1  0  0  0  0
 31 38  1  0  0  0  0
 32 30  1  6  0  0  0
 32 37  1  0  0  0  0
 32 35  1  0  0  0  0
 35 33  1  0  0  0  0
 36 34  1  6  0  0  0
 36 33  1  0  0  0  0
 37 34  1  0  0  0  0
 38 39  1  6  0  0  0
 38 36  1  0  0  0  0
 40 31  1  6  0  0  0
 40 38  1  0  0  0  0
 40 32  1  0  0  0  0
 41 42  1  0  0  0  0
 42 43  1  0  0  0  0
 43 45  1  0  0  0  0
 43 53  1  0  0  0  0
 44 46  2  0  0  0  0
 45 44  2  0  0  0  0
 46 47  1  0  0  0  0
 47 49  1  0  0  0  0
 47 48  2  0  0  0  0
 48 51  1  0  0  0  0
 49 50  2  0  0  0  0
 50 51  1  0  0  0  0
 50 52  1  0  0  0  0
 54 55  1  0  0  0  0
 54 53  1  0  0  0  0
 55 56  1  0  0  0  0
 57 59  1  6  0  0  0
 57 56  1  0  0  0  0
 58 59  1  0  0  0  0
 60 57  1  0  0  0  0
 61 63  1  0  0  0  0
 61 62  1  0  0  0  0
 61 60  1  1  0  0  0
 63 65  1  6  0  0  0
 63 62  1  0  0  0  0
 64 65  1  0  0  0  0
 66 65  2  0  0  0  0
M  END
>  <MODEL>
6

>  <REMARK>
 VINA RESULT:      -5.2      3.649      9.896
  Name = 
  23 active torsions:
  status: ('A' for Active; 'I' for Inactive)
    1  A    between atoms: C_1  and  C_19
    2  A    between atoms: C_3  and  C_45
    3  A    between atoms: C_4  and  C_45
    4  A    between atoms: C_5  and  C_6
    5  A    between atoms: C_6  and  CA_58
    6  A    between atoms: C_8  and  O_18
    7  A    between atoms: C_8  and  C_62
    8  A    between atoms: C_11  and  C_53
    9  A    between atoms: C_12  and  N_61
   10  A    between atoms: C_14  and  N_33
   11  A    between atoms: C_15  and  C_43
   12  A    between atoms: O_18  and  C_28
   13  A    between atoms: C_19  and  C_22
   14  A    between atoms: C_22  and  N_33
   15  A    between atoms: C_24  and  N_61
   16  A    between atoms: C_25  and  C_60
   17  A    between atoms: C_30  and  N_31
   18  A    between atoms: C_30  and  N_39
   19  A    between atoms: N_31  and  CA_58
   20  A    between atoms: N_33  and  N_57
   21  A    between atoms: O_36  and  C_42
   22  A    between atoms: N_39  and  N_57
   23  A    between atoms: C_54  and  CA_58
                            x       y       z     vdW  Elec       q    Type
                         _______ _______ _______ _____ _____    ______ ____

>  <TORSDO>
F 23

$$$$
=
 OpenBabel11042409563D

 66 75  0  0  1  0  0  0  0  0999 V2000
  188.8060  177.7210  138.8490 C   0  0  0  0  0  0  0  0  0  0  0  0
  186.4650  178.2590  139.2210 C   0  0  0  0  0  0  0  0  0  0  0  0
  183.7960  178.1440  138.3060 C   0  0  0  0  0  0  0  0  0  0  0  0
  187.8010  178.3020  139.6630 C   0  0  0  0  0  0  0  0  0  0  0  0
  184.1130  178.7810  139.5180 C   0  0  0  0  0  3  0  0  0  0  0  0
  186.1540  177.6070  138.0080 C   0  0  0  0  0  0  0  0  0  0  0  0
  187.1400  177.0380  137.2670 N   0  0  0  0  0  0  0  0  0  0  0  0
  185.4330  178.8380  139.9710 C   0  0  0  0  0  3  0  0  0  0  0  0
  184.8310  177.5490  137.5640 C   0  0  0  0  0  3  0  0  0  0  0  0
  188.4390  177.0900  137.6540 C   0  0  0  0  0  3  0  0  0  0  0  0
  179.7540  178.0110  136.8400 C   0  0  0  0  0  3  0  0  0  0  0  0
  180.5620  179.1230  136.6100 C   0  0  0  0  0  3  0  0  0  0  0  0
  181.8690  179.1460  137.0990 C   0  0  0  0  0  3  0  0  0  0  0  0
  181.5640  176.9350  138.0640 C   0  0  0  0  0  0  0  0  0  0  0  0
  180.2510  176.9270  137.5630 C   0  0  0  0  0  3  0  0  0  0  0  0
  182.3920  178.0610  137.8230 C   0  0  0  0  0  0  0  0  0  0  0  0
  182.0420  175.8490  138.8090 O   0  0  0  0  0  0  0  0  0  0  0  0
  181.7710  174.4960  138.4690 C   0  0  0  0  0  1  0  0  0  0  0  0
  188.0930  178.9400  140.9180 N   0  0  0  0  0  2  0  0  0  0  0  0
  187.5550  176.3140  142.4990 C   0  0  0  0  0  2  0  0  0  0  0  0
  188.4200  178.2490  142.1570 C   0  0  2  0  0  3  0  0  0  0  0  0
  188.8280  176.8200  141.8440 C   0  0  0  0  0  2  0  0  0  0  0  0
  187.1470  177.7410  142.8150 C   0  0  2  0  0  3  0  0  0  0  0  0
  187.1770  177.9640  144.2960 C   0  0  0  0  0  0  0  0  0  0  0  0
  188.2760  178.2380  144.8530 O   0  0  0  0  0  0  0  0  0  0  0  0
  185.9970  177.9060  145.0440 O   0  0  0  0  0  0  0  0  0  0  0  0
  183.9470  178.6220  144.0250 C   0  0  1  0  0  3  0  0  0  0  0  0
  185.0440  179.5960  143.6570 C   0  0  0  0  0  2  0  0  0  0  0  0
  185.0360  178.9500  145.0260 C   0  0  2  0  0  3  0  0  0  0  0  0
  182.6880  179.4190  144.3400 C   0  0  0  0  0  2  0  0  0  0  0  0
  179.3190  178.1260  144.1230 C   0  0  0  0  0  2  0  0  0  0  0  0
  181.5660  179.2330  143.3190 C   0  0  2  0  0  0  0  0  0  0  0  0
  180.9530  178.9420  140.8690 C   0  0  0  0  0  2  0  0  0  0  0  0
  179.5290  180.3790  142.3010 C   0  0  0  0  0  2  0  0  0  0  0  0
  182.1170  179.1120  141.8810 C   0  0  0  0  0  2  0  0  0  0  0  0
  179.5890  179.0130  141.5880 C   0  0  2  0  0  3  0  0  0  0  0  0
  180.6730  180.4980  143.3370 C   0  0  0  0  0  2  0  0  0  0  0  0
  179.5550  177.8760  142.6410 C   0  0  2  0  0  0  0  0  0  0  0  0
  179.3050  176.5800  142.1940 O   0  0  0  0  0  1  0  0  0  0  0  0
  180.7480  177.9340  143.6060 C   0  0  2  0  0  3  0  0  0  0  0  0
  190.2620  177.8340  139.1670 C   0  0  0  0  0  2  0  0  0  0  0  0
  190.9600  176.4920  139.0150 C   0  0  0  0  0  2  0  0  0  0  0  0
  192.4050  176.6750  139.0030 N   0  0  0  0  0  0  0  0  0  0  0  0
  192.4940  177.5640  141.2350 C   0  0  0  0  0  0  0  0  0  0  0  0
  193.1080  177.1510  140.1590 C   0  0  0  0  0  3  0  0  0  0  0  0
  191.8960  177.9800  142.3200 C   0  0  0  0  0  3  0  0  0  0  0  0
  191.7850  177.1360  143.5140 C   0  0  0  0  0  0  0  0  0  0  0  0
  191.7590  175.8420  143.4730 N   0  0  0  0  0  0  0  0  0  0  0  0
  191.7200  177.6780  144.8260 N   0  0  0  0  0  0  0  0  0  0  0  0
  191.6490  176.6480  145.5940 C   0  0  0  0  0  0  0  0  0  0  0  0
  191.6610  175.3660  144.8420 C   0  0  0  0  0  2  0  0  0  0  0  0
  191.5800  176.7500  147.0120 N   0  0  0  0  0  1  0  0  0  0  0  0
  193.1460  176.1600  137.9290 N   0  0  0  0  0  2  0  0  0  0  0  0
  194.3390  175.6420  138.4560 N   0  0  0  0  0  2  0  0  0  0  0  0
  194.2550  174.1990  138.3510 C   0  0  0  0  0  2  0  0  0  0  0  0
  195.5720  173.6190  138.5670 N   0  0  0  0  0  2  0  0  0  0  0  0
  196.5310  174.7030  138.4490 C   0  0  1  0  0  3  0  0  0  0  0  0
  196.6010  175.7210  140.6100 O   0  0  0  0  0  1  0  0  0  0  0  0
  197.2980  174.8690  139.7530 C   0  0  0  0  0  2  0  0  0  0  0  0
  197.4630  174.4620  137.2630 C   0  0  0  0  0  2  0  0  0  0  0  0
  197.4650  173.0080  136.8140 C   0  0  2  0  0  3  0  0  0  0  0  0
  198.0770  172.9240  135.5520 O   0  0  0  0  0  0  0  0  0  0  0  0
  196.6700  172.8680  135.5720 C   0  0  1  0  0  3  0  0  0  0  0  0
  194.9170  171.0590  135.7550 N   0  0  0  0  0  1  0  0  0  0  0  0
  196.2340  171.4540  135.3830 C   0  0  0  0  0  0  0  0  0  0  0  0
  197.0360  170.6010  134.9210 O   0  0  0  0  0  0  0  0  0  0  0  0
  1 41  1  0  0  0  0
  1  4  1  0  0  0  0
  2  4  2  0  0  0  0
  2  8  1  0  0  0  0
  3  5  1  0  0  0  0
  4 19  1  0  0  0  0
  5  8  2  0  0  0  0
  6  2  1  0  0  0  0
  7 10  1  0  0  0  0
  7  6  2  0  0  0  0
  9  6  1  0  0  0  0
  9  3  2  0  0  0  0
 10  1  2  0  0  0  0
 11 15  1  0  0  0  0
 12 11  2  0  0  0  0
 12 13  1  0  0  0  0
 13 16  2  0  0  0  0
 14 17  1  0  0  0  0
 15 14  2  0  0  0  0
 16 14  1  0  0  0  0
 16  3  1  0  0  0  0
 18 17  1  0  0  0  0
 20 23  1  0  0  0  0
 21 19  1  6  0  0  0
 21 23  1  0  0  0  0
 22 21  1  0  0  0  0
 22 20  1  0  0  0  0
 23 24  1  1  0  0  0
 24 25  2  0  0  0  0
 24 26  1  0  0  0  0
 27 30  1  1  0  0  0
 27 29  1  0  0  0  0
 28 27  1  0  0  0  0
 28 29  1  0  0  0  0
 29 26  1  6  0  0  0
 32 37  1  0  0  0  0
 32 40  1  0  0  0  0
 32 30  1  1  0  0  0
 33 35  1  0  0  0  0
 34 37  1  0  0  0  0
 35 32  1  0  0  0  0
 36 33  1  1  0  0  0
 36 34  1  0  0  0  0
 36 38  1  0  0  0  0
 38 39  1  6  0  0  0
 38 40  1  0  0  0  0
 38 31  1  0  0  0  0
 40 31  1  1  0  0  0
 42 41  1  0  0  0  0
 43 42  1  0  0  0  0
 43 45  1  0  0  0  0
 44 46  2  0  0  0  0
 45 44  2  0  0  0  0
 46 47  1  0  0  0  0
 47 49  1  0  0  0  0
 48 47  2  0  0  0  0
 48 51  1  0  0  0  0
 49 50  2  0  0  0  0
 50 52  1  0  0  0  0
 51 50  1  0  0  0  0
 53 54  1  0  0  0  0
 53 43  1  0  0  0  0
 55 54  1  0  0  0  0
 55 56  1  0  0  0  0
 57 60  1  6  0  0  0
 57 56  1  0  0  0  0
 57 59  1  0  0  0  0
 59 58  1  0  0  0  0
 61 60  1  6  0  0  0
 62 63  1  0  0  0  0
 62 61  1  0  0  0  0
 63 65  1  1  0  0  0
 63 61  1  0  0  0  0
 65 64  1  0  0  0  0
 66 65  2  0  0  0  0
M  END
>  <MODEL>
7

>  <REMARK>
 VINA RESULT:      -5.0      4.352     10.696
  Name = 
  23 active torsions:
  status: ('A' for Active; 'I' for Inactive)
    1  A    between atoms: C_1  and  C_19
    2  A    between atoms: C_3  and  C_45
    3  A    between atoms: C_4  and  C_45
    4  A    between atoms: C_5  and  C_6
    5  A    between atoms: C_6  and  CA_58
    6  A    between atoms: C_8  and  O_18
    7  A    between atoms: C_8  and  C_62
    8  A    between atoms: C_11  and  C_53
    9  A    between atoms: C_12  and  N_61
   10  A    between atoms: C_14  and  N_33
   11  A    between atoms: C_15  and  C_43
   12  A    between atoms: O_18  and  C_28
   13  A    between atoms: C_19  and  C_22
   14  A    between atoms: C_22  and  N_33
   15  A    between atoms: C_24  and  N_61
   16  A    between atoms: C_25  and  C_60
   17  A    between atoms: C_30  and  N_31
   18  A    between atoms: C_30  and  N_39
   19  A    between atoms: N_31  and  CA_58
   20  A    between atoms: N_33  and  N_57
   21  A    between atoms: O_36  and  C_42
   22  A    between atoms: N_39  and  N_57
   23  A    between atoms: C_54  and  CA_58
                            x       y       z     vdW  Elec       q    Type
                         _______ _______ _______ _____ _____    ______ ____

>  <TORSDO>
F 23

$$$$
=
 OpenBabel11042409563D

 66 75  0  0  1  0  0  0  0  0999 V2000
  186.2840  177.8560  137.7160 C   0  0  0  0  0  0  0  0  0  0  0  0
  188.6510  177.3060  137.7730 C   0  0  0  0  0  0  0  0  0  0  0  0
  190.8640  176.0750  136.5240 C   0  0  0  0  0  0  0  0  0  0  0  0
  187.5370  177.9180  138.3780 C   0  0  0  0  0  0  0  0  0  0  0  0
  191.0020  176.7030  137.7730 C   0  0  0  0  0  3  0  0  0  0  0  0
  188.5050  176.6860  136.5120 C   0  0  0  0  0  0  0  0  0  0  0  0
  187.2950  176.6690  135.8960 N   0  0  0  0  0  0  0  0  0  0  0  0
  189.9080  177.3130  138.3910 C   0  0  0  0  0  3  0  0  0  0  0  0
  189.6060  176.0830  135.8980 C   0  0  0  0  0  3  0  0  0  0  0  0
  186.1990  177.2260  136.4690 C   0  0  0  0  0  3  0  0  0  0  0  0
  194.2940  174.3380  134.5940 C   0  0  0  0  0  3  0  0  0  0  0  0
  194.3030  175.6700  135.0060 C   0  0  0  0  0  3  0  0  0  0  0  0
  193.1780  176.2130  135.6260 C   0  0  0  0  0  3  0  0  0  0  0  0
  192.0160  174.0870  135.4170 C   0  0  0  0  0  0  0  0  0  0  0  0
  193.1590  173.5550  134.7950 C   0  0  0  0  0  3  0  0  0  0  0  0
  192.0260  175.4390  135.8470 C   0  0  0  0  0  0  0  0  0  0  0  0
  190.8730  173.2960  135.5910 O   0  0  0  0  0  0  0  0  0  0  0  0
  190.9260  171.8860  135.7670 C   0  0  0  0  0  1  0  0  0  0  0  0
  187.7130  178.5740  139.6460 N   0  0  0  0  0  2  0  0  0  0  0  0
  188.4080  178.9960  142.6500 C   0  0  0  0  0  2  0  0  0  0  0  0
  187.6750  177.9170  140.9440 C   0  0  2  0  0  3  0  0  0  0  0  0
  187.0590  178.8560  141.9660 C   0  0  0  0  0  2  0  0  0  0  0  0
  189.0240  178.0560  141.6310 C   0  0  2  0  0  3  0  0  0  0  0  0
  189.4270  176.7760  142.2960 C   0  0  0  0  0  0  0  0  0  0  0  0
  188.5450  175.9040  142.5330 O   0  0  0  0  0  0  0  0  0  0  0  0
  190.7670  176.5370  142.6180 O   0  0  0  0  0  0  0  0  0  0  0  0
  190.7720  177.6360  144.7500 C   0  0  1  0  0  3  0  0  0  0  0  0
  192.1940  177.5390  144.2450 C   0  0  0  0  0  2  0  0  0  0  0  0
  191.2140  176.4210  143.9600 C   0  0  2  0  0  3  0  0  0  0  0  0
  190.7730  177.3210  146.2400 C   0  0  0  0  0  2  0  0  0  0  0  0
  187.2470  177.0040  145.5090 C   0  0  0  0  0  2  0  0  0  0  0  0
  189.4140  177.5070  146.9130 C   0  0  2  0  0  0  0  0  0  0  0  0
  188.0880  178.7050  148.7220 C   0  0  0  0  0  2  0  0  0  0  0  0
  187.6460  176.3030  148.3000 C   0  0  0  0  0  2  0  0  0  0  0  0
  189.4780  178.5530  148.0480 C   0  0  0  0  0  2  0  0  0  0  0  0
  187.0710  177.7200  148.1060 C   0  0  2  0  0  3  0  0  0  0  0  0
  189.0080  176.1690  147.5770 C   0  0  0  0  0  2  0  0  0  0  0  0
  186.9720  178.0380  146.5910 C   0  0  2  0  0  0  0  0  0  0  0  0
  186.2120  179.1390  146.2030 O   0  0  0  0  0  1  0  0  0  0  0  0
  188.3400  178.0050  145.8940 C   0  0  2  0  0  3  0  0  0  0  0  0
  185.0210  178.3580  138.3400 C   0  0  0  0  0  2  0  0  0  0  0  0
  183.8910  177.3550  138.1650 C   0  0  0  0  0  2  0  0  0  0  0  0
  182.6560  177.8880  138.7230 N   0  0  0  0  0  0  0  0  0  0  0  0
  182.5750  180.2860  138.8780 C   0  0  0  0  0  0  0  0  0  0  0  0
  182.6370  179.1180  139.4600 C   0  0  0  0  0  3  0  0  0  0  0  0
  182.5130  181.4620  138.3130 C   0  0  0  0  0  3  0  0  0  0  0  0
  181.2580  182.2180  138.2390 C   0  0  0  0  0  0  0  0  0  0  0  0
  180.1770  181.8690  138.8590 N   0  0  0  0  0  0  0  0  0  0  0  0
  181.1380  183.4210  137.4910 N   0  0  0  0  0  0  0  0  0  0  0  0
  179.9210  183.7950  137.6800 C   0  0  0  0  0  0  0  0  0  0  0  0
  179.1630  182.8660  138.5600 C   0  0  0  0  0  2  0  0  0  0  0  0
  179.3830  184.9810  137.1080 N   0  0  0  0  0  1  0  0  0  0  0  0
  181.4340  177.3150  138.3380 N   0  0  0  0  0  2  0  0  0  0  0  0
  180.8150  176.8340  139.5020 N   0  0  0  0  0  2  0  0  0  0  0  0
  180.1360  175.6050  139.1420 C   0  0  0  0  0  2  0  0  0  0  0  0
  180.9950  174.8130  138.2740 N   0  0  0  0  0  2  0  0  0  0  0  0
  180.2650  173.5970  137.9610 C   0  0  1  0  0  3  0  0  0  0  0  0
  179.1460  174.9970  136.3810 O   0  0  0  0  0  1  0  0  0  0  0  0
  178.9540  173.9350  137.2660 C   0  0  0  0  0  2  0  0  0  0  0  0
  181.1320  172.6580  137.1220 C   0  0  0  0  0  2  0  0  0  0  0  0
  182.2490  173.3950  136.3970 C   0  0  2  0  0  3  0  0  0  0  0  0
  182.7390  172.5740  135.3660 O   0  0  0  0  0  0  0  0  0  0  0  0
  183.5170  172.6420  136.5380 C   0  0  1  0  0  3  0  0  0  0  0  0
  184.9050  174.0920  135.0060 N   0  0  0  0  0  1  0  0  0  0  0  0
  184.6880  173.5340  136.2970 C   0  0  0  0  0  0  0  0  0  0  0  0
  185.5030  173.7720  137.2270 O   0  0  0  0  0  0  0  0  0  0  0  0
  1 41  1  0  0  0  0
  1  4  1  0  0  0  0
  2  4  2  0  0  0  0
  2  8  1  0  0  0  0
  3  5  1  0  0  0  0
  4 19  1  0  0  0  0
  5  8  2  0  0  0  0
  6  2  1  0  0  0  0
  7 10  1  0  0  0  0
  7  6  2  0  0  0  0
  9  6  1  0  0  0  0
  9  3  2  0  0  0  0
 10  1  2  0  0  0  0
 11 15  2  0  0  0  0
 11 12  1  0  0  0  0
 12 13  2  0  0  0  0
 13 16  1  0  0  0  0
 14 17  1  0  0  0  0
 14 16  2  0  0  0  0
 15 14  1  0  0  0  0
 16  3  1  0  0  0  0
 17 18  1  0  0  0  0
 21 19  1  6  0  0  0
 21 23  1  0  0  0  0
 21 22  1  0  0  0  0
 22 20  1  0  0  0  0
 23 24  1  1  0  0  0
 23 20  1  0  0  0  0
 24 25  2  0  0  0  0
 24 26  1  0  0  0  0
 27 30  1  1  0  0  0
 28 27  1  0  0  0  0
 29 26  1  6  0  0  0
 29 28  1  0  0  0  0
 29 27  1  0  0  0  0
 31 38  1  0  0  0  0
 32 30  1  6  0  0  0
 32 37  1  0  0  0  0
 32 35  1  0  0  0  0
 35 33  1  0  0  0  0
 36 34  1  6  0  0  0
 36 33  1  0  0  0  0
 37 34  1  0  0  0  0
 38 39  1  6  0  0  0
 38 36  1  0  0  0  0
 40 31  1  6  0  0  0
 40 38  1  0  0  0  0
 40 32  1  0  0  0  0
 42 41  1  0  0  0  0
 42 43  1  0  0  0  0
 43 45  1  0  0  0  0
 44 45  2  0  0  0  0
 46 44  2  0  0  0  0
 47 46  1  0  0  0  0
 47 48  2  0  0  0  0
 49 50  2  0  0  0  0
 49 47  1  0  0  0  0
 50 51  1  0  0  0  0
 51 48  1  0  0  0  0
 52 50  1  0  0  0  0
 53 43  1  0  0  0  0
 53 54  1  0  0  0  0
 55 54  1  0  0  0  0
 56 55  1  0  0  0  0
 57 60  1  6  0  0  0
 57 56  1  0  0  0  0
 58 59  1  0  0  0  0
 59 57  1  0  0  0  0
 61 63  1  0  0  0  0
 61 60  1  1  0  0  0
 62 61  1  0  0  0  0
 62 63  1  0  0  0  0
 63 65  1  6  0  0  0
 64 65  1  0  0  0  0
 65 66  2  0  0  0  0
M  END
>  <MODEL>
8

>  <REMARK>
 VINA RESULT:      -4.9      1.825      3.528
  Name = 
  23 active torsions:
  status: ('A' for Active; 'I' for Inactive)
    1  A    between atoms: C_1  and  C_19
    2  A    between atoms: C_3  and  C_45
    3  A    between atoms: C_4  and  C_45
    4  A    between atoms: C_5  and  C_6
    5  A    between atoms: C_6  and  CA_58
    6  A    between atoms: C_8  and  O_18
    7  A    between atoms: C_8  and  C_62
    8  A    between atoms: C_11  and  C_53
    9  A    between atoms: C_12  and  N_61
   10  A    between atoms: C_14  and  N_33
   11  A    between atoms: C_15  and  C_43
   12  A    between atoms: O_18  and  C_28
   13  A    between atoms: C_19  and  C_22
   14  A    between atoms: C_22  and  N_33
   15  A    between atoms: C_24  and  N_61
   16  A    between atoms: C_25  and  C_60
   17  A    between atoms: C_30  and  N_31
   18  A    between atoms: C_30  and  N_39
   19  A    between atoms: N_31  and  CA_58
   20  A    between atoms: N_33  and  N_57
   21  A    between atoms: O_36  and  C_42
   22  A    between atoms: N_39  and  N_57
   23  A    between atoms: C_54  and  CA_58
                            x       y       z     vdW  Elec       q    Type
                         _______ _______ _______ _____ _____    ______ ____

>  <TORSDO>
F 23

$$$$
=
 OpenBabel11042409563D

 66 75  0  0  1  0  0  0  0  0999 V2000
  189.9870  177.5420  139.4580 C   0  0  0  0  0  0  0  0  0  0  0  0
  191.0510  176.6170  137.4780 C   0  0  0  0  0  0  0  0  0  0  0  0
  193.2940  175.3480  136.3250 C   0  0  0  0  0  0  0  0  0  0  0  0
  189.9400  177.2450  138.0720 C   0  0  0  0  0  0  0  0  0  0  0  0
  192.1810  175.6940  135.5390 C   0  0  0  0  0  3  0  0  0  0  0  0
  192.1600  176.2630  138.2780 C   0  0  0  0  0  0  0  0  0  0  0  0
  192.1590  176.5400  139.6070 N   0  0  0  0  0  0  0  0  0  0  0  0
  191.0710  176.3220  136.1090 C   0  0  0  0  0  3  0  0  0  0  0  0
  193.2640  175.6310  137.7010 C   0  0  0  0  0  3  0  0  0  0  0  0
  191.1140  177.1700  140.2000 C   0  0  0  0  0  3  0  0  0  0  0  0
  196.6360  173.2630  134.5950 C   0  0  0  0  0  3  0  0  0  0  0  0
  195.4550  172.5900  134.9050 C   0  0  0  0  0  3  0  0  0  0  0  0
  194.3860  173.2850  135.4700 C   0  0  0  0  0  3  0  0  0  0  0  0
  195.6800  175.3430  135.4260 C   0  0  0  0  0  0  0  0  0  0  0  0
  196.7480  174.6280  134.8560 C   0  0  0  0  0  3  0  0  0  0  0  0
  194.4740  174.6630  135.7330 C   0  0  0  0  0  0  0  0  0  0  0  0
  195.8150  176.7100  135.7040 O   0  0  0  0  0  0  0  0  0  0  0  0
  195.5510  177.7260  134.7470 C   0  0  0  0  0  1  0  0  0  0  0  0
  188.8060  177.5670  137.2490 N   0  0  0  0  0  2  0  0  0  0  0  0
  187.5500  175.5550  135.2330 C   0  0  0  0  0  2  0  0  0  0  0  0
  187.6470  176.7110  137.0410 C   0  0  2  0  0  3  0  0  0  0  0  0
  188.1130  175.3260  136.6250 C   0  0  0  0  0  2  0  0  0  0  0  0
  187.0820  176.9370  135.6480 C   0  0  2  0  0  3  0  0  0  0  0  0
  185.5850  176.9830  135.6730 C   0  0  0  0  0  0  0  0  0  0  0  0
  184.9460  176.7530  134.6080 O   0  0  0  0  0  0  0  0  0  0  0  0
  184.9050  177.2440  136.8660 O   0  0  0  0  0  0  0  0  0  0  0  0
  183.2520  176.9160  138.5740 C   0  0  1  0  0  3  0  0  0  0  0  0
  183.6440  175.5710  138.0060 C   0  0  0  0  0  2  0  0  0  0  0  0
  183.5830  176.7820  137.1010 C   0  0  2  0  0  3  0  0  0  0  0  0
  181.7420  176.9280  138.7730 C   0  0  0  0  0  2  0  0  0  0  0  0
  179.0970  179.3140  139.3890 C   0  0  0  0  0  2  0  0  0  0  0  0
  181.2670  177.9010  139.8510 C   0  0  2  0  0  0  0  0  0  0  0  0
  181.9190  179.3580  141.8300 C   0  0  0  0  0  2  0  0  0  0  0  0
  179.7960  178.0820  141.9260 C   0  0  0  0  0  2  0  0  0  0  0  0
  182.4370  178.3870  140.7360 C   0  0  0  0  0  2  0  0  0  0  0  0
  180.3830  179.4970  141.7550 C   0  0  2  0  0  3  0  0  0  0  0  0
  180.2930  177.1510  140.7930 C   0  0  0  0  0  2  0  0  0  0  0  0
  180.0320  180.0390  140.3460 C   0  0  2  0  0  0  0  0  0  0  0  0
  180.2130  181.4000  140.1060 O   0  0  0  0  0  1  0  0  0  0  0  0
  180.6130  179.1710  139.2210 C   0  0  2  0  0  3  0  0  0  0  0  0
  188.9160  178.3260  140.1480 C   0  0  0  0  0  2  0  0  0  0  0  0
  187.9660  177.4060  140.8990 C   0  0  0  0  0  2  0  0  0  0  0  0
  188.3000  177.3880  142.3170 N   0  0  0  0  0  0  0  0  0  0  0  0
  189.8710  177.8990  144.0640 C   0  0  0  0  0  0  0  0  0  0  0  0
  189.5450  177.9130  142.7990 C   0  0  0  0  0  3  0  0  0  0  0  0
  190.2140  177.8920  145.3240 C   0  0  0  0  0  3  0  0  0  0  0  0
  191.1460  176.8980  145.8660 C   0  0  0  0  0  0  0  0  0  0  0  0
  191.8690  176.1190  145.1260 N   0  0  0  0  0  0  0  0  0  0  0  0
  191.3480  176.7260  147.2620 N   0  0  0  0  0  0  0  0  0  0  0  0
  192.2340  175.7960  147.3460 C   0  0  0  0  0  0  0  0  0  0  0  0
  192.6690  175.2940  146.0160 C   0  0  0  0  0  2  0  0  0  0  0  0
  192.7360  175.3220  148.5890 N   0  0  0  0  0  1  0  0  0  0  0  0
  187.2990  177.0690  143.2460 N   0  0  0  0  0  2  0  0  0  0  0  0
  186.0690  177.4280  142.6740 N   0  0  0  0  0  2  0  0  0  0  0  0
  185.8230  178.8100  143.0370 C   0  0  0  0  0  2  0  0  0  0  0  0
  186.3240  179.0560  144.3810 N   0  0  0  0  0  2  0  0  0  0  0  0
  185.1640  179.2970  145.2210 C   0  0  1  0  0  3  0  0  0  0  0  0
  183.9360  181.0740  144.2000 O   0  0  0  0  0  1  0  0  0  0  0  0
  183.9690  179.6900  144.3650 C   0  0  0  0  0  2  0  0  0  0  0  0
  184.8710  178.0720  146.0870 C   0  0  0  0  0  2  0  0  0  0  0  0
  185.7060  178.0490  147.3580 C   0  0  2  0  0  3  0  0  0  0  0  0
  186.3530  179.2890  147.4990 O   0  0  0  0  0  0  0  0  0  0  0  0
  187.1370  178.2230  147.0190 C   0  0  1  0  0  3  0  0  0  0  0  0
  188.3490  178.5740  149.2070 N   0  0  0  0  0  1  0  0  0  0  0  0
  188.0050  177.7180  148.1220 C   0  0  0  0  0  0  0  0  0  0  0  0
  188.4590  176.5440  148.0830 O   0  0  0  0  0  0  0  0  0  0  0  0
  1 41  1  0  0  0  0
  1 10  1  0  0  0  0
  2  4  1  0  0  0  0
  2  6  1  0  0  0  0
  3  9  1  0  0  0  0
  4  1  2  0  0  0  0
  5  8  1  0  0  0  0
  5  3  2  0  0  0  0
  6  7  1  0  0  0  0
  7 10  2  0  0  0  0
  8  2  2  0  0  0  0
  9  6  2  0  0  0  0
 11 15  2  0  0  0  0
 11 12  1  0  0  0  0
 12 13  2  0  0  0  0
 13 16  1  0  0  0  0
 14 17  1  0  0  0  0
 14 16  2  0  0  0  0
 15 14  1  0  0  0  0
 16  3  1  0  0  0  0
 18 17  1  0  0  0  0
 19  4  1  0  0  0  0
 20 23  1  0  0  0  0
 20 22  1  0  0  0  0
 21 19  1  6  0  0  0
 22 21  1  0  0  0  0
 23 24  1  1  0  0  0
 23 21  1  0  0  0  0
 24 26  1  0  0  0  0
 25 24  2  0  0  0  0
 27 30  1  6  0  0  0
 28 27  1  0  0  0  0
 29 26  1  1  0  0  0
 29 28  1  0  0  0  0
 29 27  1  0  0  0  0
 31 38  1  0  0  0  0
 32 30  1  6  0  0  0
 32 35  1  0  0  0  0
 32 37  1  0  0  0  0
 35 33  1  0  0  0  0
 36 33  1  6  0  0  0
 36 34  1  0  0  0  0
 37 34  1  0  0  0  0
 38 39  1  6  0  0  0
 38 36  1  0  0  0  0
 40 31  1  6  0  0  0
 40 32  1  0  0  0  0
 40 38  1  0  0  0  0
 41 42  1  0  0  0  0
 42 43  1  0  0  0  0
 43 45  1  0  0  0  0
 43 53  1  0  0  0  0
 44 46  2  0  0  0  0
 45 44  2  0  0  0  0
 46 47  1  0  0  0  0
 47 49  1  0  0  0  0
 48 47  2  0  0  0  0
 48 51  1  0  0  0  0
 49 50  2  0  0  0  0
 50 52  1  0  0  0  0
 51 50  1  0  0  0  0
 54 55  1  0  0  0  0
 54 53  1  0  0  0  0
 55 56  1  0  0  0  0
 56 57  1  0  0  0  0
 57 59  1  6  0  0  0
 57 60  1  0  0  0  0
 58 59  1  0  0  0  0
 61 60  1  6  0  0  0
 61 62  1  0  0  0  0
 63 61  1  0  0  0  0
 63 62  1  0  0  0  0
 63 65  1  1  0  0  0
 65 64  1  0  0  0  0
 66 65  2  0  0  0  0
M  END
>  <MODEL>
9

>  <REMARK>
 VINA RESULT:      -4.8      4.051     10.338
  Name = 
  23 active torsions:
  status: ('A' for Active; 'I' for Inactive)
    1  A    between atoms: C_1  and  C_19
    2  A    between atoms: C_3  and  C_45
    3  A    between atoms: C_4  and  C_45
    4  A    between atoms: C_5  and  C_6
    5  A    between atoms: C_6  and  CA_58
    6  A    between atoms: C_8  and  O_18
    7  A    between atoms: C_8  and  C_62
    8  A    between atoms: C_11  and  C_53
    9  A    between atoms: C_12  and  N_61
   10  A    between atoms: C_14  and  N_33
   11  A    between atoms: C_15  and  C_43
   12  A    between atoms: O_18  and  C_28
   13  A    between atoms: C_19  and  C_22
   14  A    between atoms: C_22  and  N_33
   15  A    between atoms: C_24  and  N_61
   16  A    between atoms: C_25  and  C_60
   17  A    between atoms: C_30  and  N_31
   18  A    between atoms: C_30  and  N_39
   19  A    between atoms: N_31  and  CA_58
   20  A    between atoms: N_33  and  N_57
   21  A    between atoms: O_36  and  C_42
   22  A    between atoms: N_39  and  N_57
   23  A    between atoms: C_54  and  CA_58
                            x       y       z     vdW  Elec       q    Type
                         _______ _______ _______ _____ _____    ______ ____

>  <TORSDO>
F 23

$$$$
