=
 OpenBabel11032419503D

 27 29  0  0  0  0  0  0  0  0999 V2000
  187.7860  178.1120  140.6960 C   0  0  0  0  0  0  0  0  0  0  0  0
  189.2040  177.6430  138.7210 C   0  0  0  0  0  0  0  0  0  0  0  0
  191.1240  176.9480  137.5430 N   0  0  0  0  0  0  0  0  0  0  0  0
  189.8130  177.3000  139.9120 C   0  0  0  0  0  0  0  0  0  0  0  0
  191.7260  176.6110  138.7220 C   0  0  0  0  0  3  0  0  0  0  0  0
  187.6780  178.2680  139.0090 S   0  0  0  0  0  0  0  0  0  0  0  0
  189.8640  177.4670  137.5150 C   0  0  0  0  0  3  0  0  0  0  0  0
  189.0260  177.5530  141.0540 C   0  0  0  0  0  0  0  0  0  0  0  0
  191.0730  176.7900  139.9070 N   0  0  0  0  0  0  0  0  0  0  0  0
  185.2040  179.4210  140.1550 O   0  0  0  0  0  0  0  0  0  0  0  0
  186.7520  178.4510  141.6300 N   0  0  0  0  0  2  0  0  0  0  0  0
  185.5080  179.0930  141.3330 C   0  0  0  0  0  0  0  0  0  0  0  0
  184.5450  179.3690  142.4380 C   0  0  0  0  0  2  0  0  0  0  0  0
  184.9610  178.6940  143.6580 N   0  0  0  0  0  0  0  0  0  0  0  0
  185.1350  179.3520  144.7580 C   0  0  0  0  0  3  0  0  0  0  0  0
  185.5530  178.6710  145.9840 C   0  0  0  0  0  0  0  0  0  0  0  0
  185.9300  177.4700  145.9550 O   0  0  0  0  0  0  0  0  0  0  0  0
  185.5300  179.3560  147.1910 O   0  0  0  0  0  1  0  0  0  0  0  0
  188.7760  176.0850  143.3410 S   0  0  0  0  0  0  0  0  0  0  0  0
  189.4470  177.2900  142.4570 C   0  0  0  0  0  0  0  0  0  0  0  0
  190.4750  178.1420  143.1240 C   0  0  0  0  0  2  0  0  0  0  0  0
  190.1890  178.2380  144.6130 C   0  0  0  0  0  2  0  0  0  0  0  0
  191.2570  177.5010  145.3980 C   0  0  0  0  0  2  0  0  0  0  0  0
  190.7160  177.0440  146.6660 N   0  0  0  0  0  2  0  0  0  0  0  0
  189.2170  178.1550  148.2090 C   0  0  0  0  0  2  0  0  0  0  0  0
  188.5940  176.8370  147.8040 C   0  0  0  0  0  2  0  0  0  0  0  0
  189.3980  177.6350  146.7960 C   0  0  0  0  0  3  0  0  0  0  0  0
  1  8  2  0  0  0  0
  1 11  1  0  0  0  0
  2  6  1  0  0  0  0
  2  4  1  0  0  0  0
  3  5  2  0  0  0  0
  4  8  1  0  0  0  0
  5  9  1  0  0  0  0
  6  1  1  0  0  0  0
  7  3  1  0  0  0  0
  7  2  2  0  0  0  0
  8 20  1  0  0  0  0
  9  4  2  0  0  0  0
 10 12  2  0  0  0  0
 12 11  1  0  0  0  0
 12 13  1  0  0  0  0
 13 14  1  0  0  0  0
 14 15  2  0  0  0  0
 15 16  1  0  0  0  0
 16 18  1  0  0  0  0
 17 16  2  0  0  0  0
 20 21  1  0  0  0  0
 20 19  2  0  0  0  0
 21 22  1  0  0  0  0
 22 23  1  0  0  0  0
 23 24  1  0  0  0  0
 24 27  1  0  0  0  0
 26 25  1  0  0  0  0
 27 26  1  0  0  0  0
 27 25  1  0  0  0  0
M  END
>  <MODEL>
1

>  <REMARK>
 VINA RESULT:      -7.0      0.000      0.000
  Name = 
  10 active torsions:
  status: ('A' for Active; 'I' for Inactive)
    1  A    between atoms: C_1  and  N_17
    2  A    between atoms: C_2  and  C_11
    3  A    between atoms: C_5  and  C_13
    4  A    between atoms: C_5  and  C_16
    5  A    between atoms: N_9  and  C_10
    6  A    between atoms: C_10  and  C_23
    7  A    between atoms: C_13  and  C_19
    8  A    between atoms: C_16  and  N_25
    9  A    between atoms: C_18  and  N_25
   10  A    between atoms: C_19  and  C_26
                            x       y       z     vdW  Elec       q    Type
                         _______ _______ _______ _____ _____    ______ ____

>  <TORSDO>
F 10

$$$$
=
 OpenBabel11032419503D

 27 29  0  0  0  0  0  0  0  0999 V2000
  188.9280  177.8890  141.5100 C   0  0  0  0  0  0  0  0  0  0  0  0
  190.3840  177.2890  139.6000 C   0  0  0  0  0  0  0  0  0  0  0  0
  192.3920  176.7710  138.4800 N   0  0  0  0  0  0  0  0  0  0  0  0
  191.0740  177.3750  140.7930 C   0  0  0  0  0  0  0  0  0  0  0  0
  193.0730  176.8590  139.6610 C   0  0  0  0  0  3  0  0  0  0  0  0
  188.7610  177.6180  139.8430 S   0  0  0  0  0  0  0  0  0  0  0  0
  191.0480  176.9830  138.4220 C   0  0  0  0  0  3  0  0  0  0  0  0
  190.2670  177.7120  141.8990 C   0  0  0  0  0  0  0  0  0  0  0  0
  192.4160  177.1650  140.8170 N   0  0  0  0  0  0  0  0  0  0  0  0
  187.6170  176.1220  143.4690 O   0  0  0  0  0  0  0  0  0  0  0  0
  187.8580  178.2050  142.4130 N   0  0  0  0  0  2  0  0  0  0  0  0
  187.2410  177.3190  143.3510 C   0  0  0  0  0  0  0  0  0  0  0  0
  186.1360  177.8230  144.2170 C   0  0  0  0  0  2  0  0  0  0  0  0
  184.9150  177.9870  143.4410 N   0  0  0  0  0  0  0  0  0  0  0  0
  183.9400  178.7150  143.8790 C   0  0  0  0  0  3  0  0  0  0  0  0
  182.7130  178.8800  143.0970 C   0  0  0  0  0  0  0  0  0  0  0  0
  181.6150  179.1150  143.6660 O   0  0  0  0  0  1  0  0  0  0  0  0
  182.7630  178.7740  141.7130 O   0  0  0  0  0  0  0  0  0  0  0  0
  191.2130  179.3480  143.8700 S   0  0  0  0  0  0  0  0  0  0  0  0
  190.7590  177.8830  143.2940 C   0  0  0  0  0  0  0  0  0  0  0  0
  190.8900  176.7120  144.2110 C   0  0  0  0  0  2  0  0  0  0  0  0
  191.5730  177.1330  145.5010 C   0  0  0  0  0  2  0  0  0  0  0  0
  190.6950  176.7950  146.6910 C   0  0  0  0  0  2  0  0  0  0  0  0
  189.3060  177.0880  146.3830 N   0  0  0  0  0  2  0  0  0  0  0  0
  187.4960  178.0400  147.6790 C   0  0  0  0  0  2  0  0  0  0  0  0
  188.7830  178.2190  148.4530 C   0  0  0  0  0  2  0  0  0  0  0  0
  188.5670  176.9680  147.6250 C   0  0  0  0  0  3  0  0  0  0  0  0
  1  8  2  0  0  0  0
  1 11  1  0  0  0  0
  2  6  1  0  0  0  0
  2  4  1  0  0  0  0
  3  5  2  0  0  0  0
  4  9  2  0  0  0  0
  4  8  1  0  0  0  0
  5  9  1  0  0  0  0
  6  1  1  0  0  0  0
  7  3  1  0  0  0  0
  7  2  2  0  0  0  0
  8 20  1  0  0  0  0
 11 12  1  0  0  0  0
 12 10  2  0  0  0  0
 12 13  1  0  0  0  0
 14 15  2  0  0  0  0
 14 13  1  0  0  0  0
 16 17  1  0  0  0  0
 16 15  1  0  0  0  0
 18 16  2  0  0  0  0
 20 19  2  0  0  0  0
 20 21  1  0  0  0  0
 21 22  1  0  0  0  0
 22 23  1  0  0  0  0
 24 23  1  0  0  0  0
 24 27  1  0  0  0  0
 25 26  1  0  0  0  0
 27 25  1  0  0  0  0
 27 26  1  0  0  0  0
M  END
>  <MODEL>
2

>  <REMARK>
 VINA RESULT:      -6.9      1.991      2.672
  Name = 
  10 active torsions:
  status: ('A' for Active; 'I' for Inactive)
    1  A    between atoms: C_1  and  N_17
    2  A    between atoms: C_2  and  C_11
    3  A    between atoms: C_5  and  C_13
    4  A    between atoms: C_5  and  C_16
    5  A    between atoms: N_9  and  C_10
    6  A    between atoms: C_10  and  C_23
    7  A    between atoms: C_13  and  C_19
    8  A    between atoms: C_16  and  N_25
    9  A    between atoms: C_18  and  N_25
   10  A    between atoms: C_19  and  C_26
                            x       y       z     vdW  Elec       q    Type
                         _______ _______ _______ _____ _____    ______ ____

>  <TORSDO>
F 10

$$$$
=
 OpenBabel11032419503D

 27 29  0  0  0  0  0  0  0  0999 V2000
  185.3170  178.5810  142.1860 C   0  0  0  0  0  0  0  0  0  0  0  0
  184.6710  178.7280  144.5720 C   0  0  0  0  0  0  0  0  0  0  0  0
  184.9030  178.4710  146.9030 N   0  0  0  0  0  0  0  0  0  0  0  0
  185.9400  178.2120  144.3910 C   0  0  0  0  0  0  0  0  0  0  0  0
  186.1570  177.9600  146.7230 C   0  0  0  0  0  3  0  0  0  0  0  0
  183.9780  179.0950  143.0930 S   0  0  0  0  0  0  0  0  0  0  0  0
  184.1390  178.8610  145.8450 C   0  0  0  0  0  3  0  0  0  0  0  0
  186.3340  178.1210  143.0400 C   0  0  0  0  0  0  0  0  0  0  0  0
  186.6750  177.8260  145.4670 N   0  0  0  0  0  0  0  0  0  0  0  0
  183.4370  177.5470  140.1690 O   0  0  0  0  0  0  0  0  0  0  0  0
  185.4280  178.6440  140.7580 N   0  0  0  0  0  2  0  0  0  0  0  0
  184.4940  178.1260  139.8040 C   0  0  0  0  0  0  0  0  0  0  0  0
  184.7730  178.2840  138.3470 C   0  0  0  0  0  2  0  0  0  0  0  0
  186.1410  178.7320  138.1360 N   0  0  0  0  0  0  0  0  0  0  0  0
  186.9930  177.9950  137.5000 C   0  0  0  0  0  3  0  0  0  0  0  0
  188.3690  178.4470  137.2880 C   0  0  0  0  0  0  0  0  0  0  0  0
  188.6570  179.6720  137.3400 O   0  0  0  0  0  1  0  0  0  0  0  0
  189.3640  177.5160  137.0250 O   0  0  0  0  0  0  0  0  0  0  0  0
  188.5180  178.3660  141.4210 S   0  0  0  0  0  0  0  0  0  0  0  0
  187.6430  177.5900  142.5670 C   0  0  0  0  0  0  0  0  0  0  0  0
  188.1880  176.3060  143.0990 C   0  0  0  0  0  2  0  0  0  0  0  0
  189.7060  176.3550  143.1240 C   0  0  0  0  0  2  0  0  0  0  0  0
  190.1860  176.9760  144.4230 C   0  0  0  0  0  2  0  0  0  0  0  0
  191.3550  176.2650  144.9120 N   0  0  0  0  0  2  0  0  0  0  0  0
  192.0640  175.8010  147.1790 C   0  0  0  0  0  2  0  0  0  0  0  0
  190.7140  176.4820  147.2310 C   0  0  0  0  0  2  0  0  0  0  0  0
  191.7220  176.8820  146.1730 C   0  0  0  0  0  3  0  0  0  0  0  0
  1  8  2  0  0  0  0
  1  6  1  0  0  0  0
  2  7  1  0  0  0  0
  4  2  2  0  0  0  0
  4  9  1  0  0  0  0
  5  3  1  0  0  0  0
  6  2  1  0  0  0  0
  7  3  2  0  0  0  0
  8  4  1  0  0  0  0
  9  5  2  0  0  0  0
 11  1  1  0  0  0  0
 12 10  2  0  0  0  0
 12 11  1  0  0  0  0
 13 12  1  0  0  0  0
 14 13  1  0  0  0  0
 15 14  2  0  0  0  0
 16 17  1  0  0  0  0
 16 15  1  0  0  0  0
 18 16  2  0  0  0  0
 19 20  2  0  0  0  0
 20  8  1  0  0  0  0
 20 21  1  0  0  0  0
 21 22  1  0  0  0  0
 22 23  1  0  0  0  0
 23 24  1  0  0  0  0
 24 27  1  0  0  0  0
 25 26  1  0  0  0  0
 27 25  1  0  0  0  0
 27 26  1  0  0  0  0
M  END
>  <MODEL>
3

>  <REMARK>
 VINA RESULT:      -6.9      3.065      6.074
  Name = 
  10 active torsions:
  status: ('A' for Active; 'I' for Inactive)
    1  A    between atoms: C_1  and  N_17
    2  A    between atoms: C_2  and  C_11
    3  A    between atoms: C_5  and  C_13
    4  A    between atoms: C_5  and  C_16
    5  A    between atoms: N_9  and  C_10
    6  A    between atoms: C_10  and  C_23
    7  A    between atoms: C_13  and  C_19
    8  A    between atoms: C_16  and  N_25
    9  A    between atoms: C_18  and  N_25
   10  A    between atoms: C_19  and  C_26
                            x       y       z     vdW  Elec       q    Type
                         _______ _______ _______ _____ _____    ______ ____

>  <TORSDO>
F 10

$$$$
=
 OpenBabel11032419503D

 27 29  0  0  0  0  0  0  0  0999 V2000
  186.6920  177.7700  143.8750 C   0  0  0  0  0  0  0  0  0  0  0  0
  187.2650  177.9070  146.2800 C   0  0  0  0  0  0  0  0  0  0  0  0
  188.6310  177.7810  148.1960 N   0  0  0  0  0  0  0  0  0  0  0  0
  188.3510  177.5910  145.4870 C   0  0  0  0  0  0  0  0  0  0  0  0
  189.7040  177.4660  147.4110 C   0  0  0  0  0  3  0  0  0  0  0  0
  185.8960  178.1030  145.3370 S   0  0  0  0  0  0  0  0  0  0  0  0
  187.4010  178.0050  147.6560 C   0  0  0  0  0  3  0  0  0  0  0  0
  188.0530  177.5100  144.1110 C   0  0  0  0  0  0  0  0  0  0  0  0
  189.5640  177.3670  146.0570 N   0  0  0  0  0  0  0  0  0  0  0  0
  185.5740  180.0810  142.4310 O   0  0  0  0  0  0  0  0  0  0  0  0
  186.0870  177.7940  142.5750 N   0  0  0  0  0  2  0  0  0  0  0  0
  185.5490  178.9380  141.9020 C   0  0  0  0  0  0  0  0  0  0  0  0
  184.9560  178.7760  140.5440 C   0  0  0  0  0  2  0  0  0  0  0  0
  186.0020  178.7350  139.5330 N   0  0  0  0  0  0  0  0  0  0  0  0
  185.7790  178.2260  138.3640 C   0  0  0  0  0  3  0  0  0  0  0  0
  186.8320  178.1860  137.3480 C   0  0  0  0  0  0  0  0  0  0  0  0
  187.7240  179.0750  137.3120 O   0  0  0  0  0  1  0  0  0  0  0  0
  186.8460  177.1590  136.4140 O   0  0  0  0  0  0  0  0  0  0  0  0
  189.8400  175.7470  143.0390 S   0  0  0  0  0  0  0  0  0  0  0  0
  189.0340  177.1730  143.0430 C   0  0  0  0  0  0  0  0  0  0  0  0
  189.3460  178.1440  141.9530 C   0  0  0  0  0  2  0  0  0  0  0  0
  189.1310  177.4930  140.5970 C   0  0  0  0  0  2  0  0  0  0  0  0
  190.4310  177.4760  139.8150 C   0  0  0  0  0  2  0  0  0  0  0  0
  190.6600  176.1530  139.2600 N   0  0  0  0  0  2  0  0  0  0  0  0
  190.3910  175.0240  137.1360 C   0  0  0  0  0  2  0  0  0  0  0  0
  190.5430  176.5070  136.8730 C   0  0  0  0  0  2  0  0  0  0  0  0
  189.7950  176.0290  138.1020 C   0  0  0  0  0  3  0  0  0  0  0  0
  1  8  2  0  0  0  0
  1  6  1  0  0  0  0
  2  7  1  0  0  0  0
  4  9  1  0  0  0  0
  4  2  2  0  0  0  0
  5  3  1  0  0  0  0
  6  2  1  0  0  0  0
  7  3  2  0  0  0  0
  8  4  1  0  0  0  0
  9  5  2  0  0  0  0
 11  1  1  0  0  0  0
 12 10  2  0  0  0  0
 12 11  1  0  0  0  0
 13 12  1  0  0  0  0
 14 13  1  0  0  0  0
 15 14  2  0  0  0  0
 16 15  1  0  0  0  0
 17 16  1  0  0  0  0
 18 16  2  0  0  0  0
 19 20  2  0  0  0  0
 20  8  1  0  0  0  0
 21 20  1  0  0  0  0
 22 21  1  0  0  0  0
 23 22  1  0  0  0  0
 24 23  1  0  0  0  0
 25 27  1  0  0  0  0
 26 25  1  0  0  0  0
 26 27  1  0  0  0  0
 27 24  1  0  0  0  0
M  END
>  <MODEL>
4

>  <REMARK>
 VINA RESULT:      -6.8      2.181      6.958
  Name = 
  10 active torsions:
  status: ('A' for Active; 'I' for Inactive)
    1  A    between atoms: C_1  and  N_17
    2  A    between atoms: C_2  and  C_11
    3  A    between atoms: C_5  and  C_13
    4  A    between atoms: C_5  and  C_16
    5  A    between atoms: N_9  and  C_10
    6  A    between atoms: C_10  and  C_23
    7  A    between atoms: C_13  and  C_19
    8  A    between atoms: C_16  and  N_25
    9  A    between atoms: C_18  and  N_25
   10  A    between atoms: C_19  and  C_26
                            x       y       z     vdW  Elec       q    Type
                         _______ _______ _______ _____ _____    ______ ____

>  <TORSDO>
F 10

$$$$
=
 OpenBabel11032419503D

 27 29  0  0  0  0  0  0  0  0999 V2000
  190.3920  176.5200  142.6060 C   0  0  0  0  0  0  0  0  0  0  0  0
  190.8890  176.6350  145.0290 C   0  0  0  0  0  0  0  0  0  0  0  0
  190.5370  177.1870  147.2930 N   0  0  0  0  0  0  0  0  0  0  0  0
  189.6640  177.1860  144.7060 C   0  0  0  0  0  0  0  0  0  0  0  0
  189.3260  177.7330  146.9720 C   0  0  0  0  0  3  0  0  0  0  0  0
  191.6450  176.0560  143.6520 S   0  0  0  0  0  0  0  0  0  0  0  0
  191.3380  176.6330  146.3400 C   0  0  0  0  0  3  0  0  0  0  0  0
  189.3540  177.1300  143.3310 C   0  0  0  0  0  0  0  0  0  0  0  0
  188.8910  177.7360  145.6780 N   0  0  0  0  0  0  0  0  0  0  0  0
  192.1360  177.6770  140.5340 O   0  0  0  0  0  0  0  0  0  0  0  0
  190.3610  176.2880  141.1910 N   0  0  0  0  0  2  0  0  0  0  0  0
  191.2240  176.8720  140.2090 C   0  0  0  0  0  0  0  0  0  0  0  0
  191.0480  176.5120  138.7730 C   0  0  0  0  0  2  0  0  0  0  0  0
  189.6410  176.5640  138.4040 N   0  0  0  0  0  0  0  0  0  0  0  0
  189.1120  177.6530  137.9460 C   0  0  0  0  0  3  0  0  0  0  0  0
  187.6970  177.7040  137.5740 C   0  0  0  0  0  0  0  0  0  0  0  0
  186.9530  178.6230  138.0050 O   0  0  0  0  0  1  0  0  0  0  0  0
  187.1720  176.7260  136.7400 O   0  0  0  0  0  0  0  0  0  0  0  0
  188.1530  178.7420  141.4840 S   0  0  0  0  0  0  0  0  0  0  0  0
  188.1070  177.6620  142.7150 C   0  0  0  0  0  0  0  0  0  0  0  0
  186.7640  177.2550  143.2240 C   0  0  0  0  0  2  0  0  0  0  0  0
  185.6910  178.1600  142.6460 C   0  0  0  0  0  2  0  0  0  0  0  0
  184.5840  178.3710  143.6620 C   0  0  0  0  0  2  0  0  0  0  0  0
  184.9640  179.4110  144.6020 N   0  0  0  0  0  2  0  0  0  0  0  0
  185.7190  179.1650  146.8890 C   0  0  0  0  0  2  0  0  0  0  0  0
  185.4610  177.7870  146.3200 C   0  0  0  0  0  2  0  0  0  0  0  0
  184.5730  178.9480  145.9200 C   0  0  0  0  0  3  0  0  0  0  0  0
  1  8  2  0  0  0  0
  1  6  1  0  0  0  0
  2  7  1  0  0  0  0
  4  2  2  0  0  0  0
  4  9  1  0  0  0  0
  5  3  1  0  0  0  0
  6  2  1  0  0  0  0
  7  3  2  0  0  0  0
  8  4  1  0  0  0  0
  9  5  2  0  0  0  0
 11  1  1  0  0  0  0
 12 10  2  0  0  0  0
 12 11  1  0  0  0  0
 13 12  1  0  0  0  0
 14 13  1  0  0  0  0
 15 14  2  0  0  0  0
 16 15  1  0  0  0  0
 16 17  1  0  0  0  0
 18 16  2  0  0  0  0
 19 20  2  0  0  0  0
 20 21  1  0  0  0  0
 20  8  1  0  0  0  0
 22 21  1  0  0  0  0
 22 23  1  0  0  0  0
 23 24  1  0  0  0  0
 24 27  1  0  0  0  0
 26 25  1  0  0  0  0
 27 26  1  0  0  0  0
 27 25  1  0  0  0  0
M  END
>  <MODEL>
5

>  <REMARK>
 VINA RESULT:      -6.8      2.889      6.571
  Name = 
  10 active torsions:
  status: ('A' for Active; 'I' for Inactive)
    1  A    between atoms: C_1  and  N_17
    2  A    between atoms: C_2  and  C_11
    3  A    between atoms: C_5  and  C_13
    4  A    between atoms: C_5  and  C_16
    5  A    between atoms: N_9  and  C_10
    6  A    between atoms: C_10  and  C_23
    7  A    between atoms: C_13  and  C_19
    8  A    between atoms: C_16  and  N_25
    9  A    between atoms: C_18  and  N_25
   10  A    between atoms: C_19  and  C_26
                            x       y       z     vdW  Elec       q    Type
                         _______ _______ _______ _____ _____    ______ ____

>  <TORSDO>
F 10

$$$$
=
 OpenBabel11032419503D

 27 29  0  0  0  0  0  0  0  0999 V2000
  190.8610  177.3910  142.0120 C   0  0  0  0  0  0  0  0  0  0  0  0
  191.0000  177.1110  139.5560 C   0  0  0  0  0  0  0  0  0  0  0  0
  190.2060  176.9140  137.3450 N   0  0  0  0  0  0  0  0  0  0  0  0
  189.7060  177.2940  140.0020 C   0  0  0  0  0  0  0  0  0  0  0  0
  188.9260  177.0940  137.7890 C   0  0  0  0  0  3  0  0  0  0  0  0
  192.0680  177.1450  140.8440 S   0  0  0  0  0  0  0  0  0  0  0  0
  191.2600  176.9170  138.2080 C   0  0  0  0  0  3  0  0  0  0  0  0
  189.5980  177.4600  141.3980 C   0  0  0  0  0  0  0  0  0  0  0  0
  188.6750  177.2800  139.1170 N   0  0  0  0  0  0  0  0  0  0  0  0
  191.6940  175.3530  143.9680 O   0  0  0  0  0  0  0  0  0  0  0  0
  191.0860  177.5530  143.4190 N   0  0  0  0  0  2  0  0  0  0  0  0
  191.4880  176.5380  144.3440 C   0  0  0  0  0  0  0  0  0  0  0  0
  191.6780  176.8900  145.7810 C   0  0  0  0  0  2  0  0  0  0  0  0
  190.4220  176.7630  146.5060 N   0  0  0  0  0  0  0  0  0  0  0  0
  189.7250  177.8080  146.8180 C   0  0  0  0  0  3  0  0  0  0  0  0
  188.4620  177.6790  147.5470 C   0  0  0  0  0  0  0  0  0  0  0  0
  187.4650  177.1280  147.0100 O   0  0  0  0  0  0  0  0  0  0  0  0
  188.3630  178.1700  148.8410 O   0  0  0  0  0  1  0  0  0  0  0  0
  187.8280  176.6100  143.2950 S   0  0  0  0  0  0  0  0  0  0  0  0
  188.3220  177.6600  142.1390 C   0  0  0  0  0  0  0  0  0  0  0  0
  187.4250  178.8120  141.8260 C   0  0  0  0  0  2  0  0  0  0  0  0
  186.1740  178.3210  141.1180 C   0  0  0  0  0  2  0  0  0  0  0  0
  184.9480  179.0070  141.6910 C   0  0  0  0  0  2  0  0  0  0  0  0
  184.5670  178.3770  142.9440 N   0  0  0  0  0  2  0  0  0  0  0  0
  185.0490  178.9250  145.2520 C   0  0  0  0  0  2  0  0  0  0  0  0
  183.5530  179.0020  145.0460 C   0  0  0  0  0  2  0  0  0  0  0  0
  184.4920  179.4320  143.9370 C   0  0  0  0  0  3  0  0  0  0  0  0
  1 11  1  0  0  0  0
  2  4  1  0  0  0  0
  2  6  1  0  0  0  0
  3  5  2  0  0  0  0
  3  7  1  0  0  0  0
  4  8  1  0  0  0  0
  5  9  1  0  0  0  0
  6  1  1  0  0  0  0
  7  2  2  0  0  0  0
  8  1  2  0  0  0  0
  8 20  1  0  0  0  0
  9  4  2  0  0  0  0
 10 12  2  0  0  0  0
 11 12  1  0  0  0  0
 12 13  1  0  0  0  0
 13 14  1  0  0  0  0
 14 15  2  0  0  0  0
 15 16  1  0  0  0  0
 16 18  1  0  0  0  0
 17 16  2  0  0  0  0
 20 19  2  0  0  0  0
 21 20  1  0  0  0  0
 22 23  1  0  0  0  0
 22 21  1  0  0  0  0
 23 24  1  0  0  0  0
 24 27  1  0  0  0  0
 26 25  1  0  0  0  0
 27 26  1  0  0  0  0
 27 25  1  0  0  0  0
M  END
>  <MODEL>
6

>  <REMARK>
 VINA RESULT:      -6.8      2.156      4.806
  Name = 
  10 active torsions:
  status: ('A' for Active; 'I' for Inactive)
    1  A    between atoms: C_1  and  N_17
    2  A    between atoms: C_2  and  C_11
    3  A    between atoms: C_5  and  C_13
    4  A    between atoms: C_5  and  C_16
    5  A    between atoms: N_9  and  C_10
    6  A    between atoms: C_10  and  C_23
    7  A    between atoms: C_13  and  C_19
    8  A    between atoms: C_16  and  N_25
    9  A    between atoms: C_18  and  N_25
   10  A    between atoms: C_19  and  C_26
                            x       y       z     vdW  Elec       q    Type
                         _______ _______ _______ _____ _____    ______ ____

>  <TORSDO>
F 10

$$$$
=
 OpenBabel11032419503D

 27 29  0  0  0  0  0  0  0  0999 V2000
  185.4960  178.2420  144.6610 C   0  0  0  0  0  0  0  0  0  0  0  0
  183.4870  178.6740  143.2790 C   0  0  0  0  0  0  0  0  0  0  0  0
  182.2260  178.9350  141.3060 N   0  0  0  0  0  0  0  0  0  0  0  0
  184.6010  178.3620  142.5240 C   0  0  0  0  0  0  0  0  0  0  0  0
  183.3280  178.6280  140.5600 C   0  0  0  0  0  3  0  0  0  0  0  0
  183.8670  178.6510  144.9090 S   0  0  0  0  0  0  0  0  0  0  0  0
  182.2780  178.9660  142.6670 C   0  0  0  0  0  3  0  0  0  0  0  0
  185.7590  178.1080  143.2870 C   0  0  0  0  0  0  0  0  0  0  0  0
  184.5170  178.3460  141.1680 N   0  0  0  0  0  0  0  0  0  0  0  0
  185.6680  179.5300  147.3040 O   0  0  0  0  0  0  0  0  0  0  0  0
  186.4630  178.0160  145.6960 N   0  0  0  0  0  2  0  0  0  0  0  0
  186.5200  178.6640  146.9700 C   0  0  0  0  0  0  0  0  0  0  0  0
  187.6030  178.3010  147.9290 C   0  0  0  0  0  2  0  0  0  0  0  0
  188.8300  177.9810  147.2140 N   0  0  0  0  0  0  0  0  0  0  0  0
  189.7100  177.1820  147.7250 C   0  0  0  0  0  3  0  0  0  0  0  0
  190.9430  176.8600  147.0040 C   0  0  0  0  0  0  0  0  0  0  0  0
  192.0220  176.6790  147.6270 O   0  0  0  0  0  1  0  0  0  0  0  0
  190.9200  176.7560  145.6200 O   0  0  0  0  0  0  0  0  0  0  0  0
  187.9650  176.5000  143.2960 S   0  0  0  0  0  0  0  0  0  0  0  0
  187.0940  177.7640  142.7240 C   0  0  0  0  0  0  0  0  0  0  0  0
  187.7040  178.5850  141.6360 C   0  0  0  0  0  2  0  0  0  0  0  0
  189.0220  177.9720  141.1960 C   0  0  0  0  0  2  0  0  0  0  0  0
  188.9130  177.4690  139.7690 C   0  0  0  0  0  2  0  0  0  0  0  0
  188.1660  178.4200  138.9630 N   0  0  0  0  0  2  0  0  0  0  0  0
  187.1060  178.5610  136.7910 C   0  0  0  0  0  2  0  0  0  0  0  0
  186.0560  178.1800  137.8110 C   0  0  0  0  0  2  0  0  0  0  0  0
  187.4690  177.6520  137.9480 C   0  0  0  0  0  3  0  0  0  0  0  0
  1  6  1  0  0  0  0
  1 11  1  0  0  0  0
  2  6  1  0  0  0  0
  3  7  2  0  0  0  0
  4  2  2  0  0  0  0
  4  8  1  0  0  0  0
  5  9  2  0  0  0  0
  5  3  1  0  0  0  0
  7  2  1  0  0  0  0
  8  1  2  0  0  0  0
  9  4  1  0  0  0  0
 11 12  1  0  0  0  0
 12 10  2  0  0  0  0
 12 13  1  0  0  0  0
 14 15  2  0  0  0  0
 14 13  1  0  0  0  0
 16 17  1  0  0  0  0
 16 15  1  0  0  0  0
 18 16  2  0  0  0  0
 20  8  1  0  0  0  0
 20 19  2  0  0  0  0
 21 20  1  0  0  0  0
 22 21  1  0  0  0  0
 23 22  1  0  0  0  0
 24 23  1  0  0  0  0
 25 26  1  0  0  0  0
 25 27  1  0  0  0  0
 26 27  1  0  0  0  0
 27 24  1  0  0  0  0
M  END
>  <MODEL>
7

>  <REMARK>
 VINA RESULT:      -6.7      2.707      6.834
  Name = 
  10 active torsions:
  status: ('A' for Active; 'I' for Inactive)
    1  A    between atoms: C_1  and  N_17
    2  A    between atoms: C_2  and  C_11
    3  A    between atoms: C_5  and  C_13
    4  A    between atoms: C_5  and  C_16
    5  A    between atoms: N_9  and  C_10
    6  A    between atoms: C_10  and  C_23
    7  A    between atoms: C_13  and  C_19
    8  A    between atoms: C_16  and  N_25
    9  A    between atoms: C_18  and  N_25
   10  A    between atoms: C_19  and  C_26
                            x       y       z     vdW  Elec       q    Type
                         _______ _______ _______ _____ _____    ______ ____

>  <TORSDO>
F 10

$$$$
=
 OpenBabel11032419503D

 27 29  0  0  0  0  0  0  0  0999 V2000
  186.9300  178.4030  141.8970 C   0  0  0  0  0  0  0  0  0  0  0  0
  185.0880  178.8130  143.4990 C   0  0  0  0  0  0  0  0  0  0  0  0
  183.9850  178.8250  145.5820 N   0  0  0  0  0  0  0  0  0  0  0  0
  186.2170  178.2950  144.1020 C   0  0  0  0  0  0  0  0  0  0  0  0
  185.1020  178.3110  146.1770 C   0  0  0  0  0  3  0  0  0  0  0  0
  185.3430  179.0020  141.8550 S   0  0  0  0  0  0  0  0  0  0  0  0
  183.9510  179.0840  144.2450 C   0  0  0  0  0  3  0  0  0  0  0  0
  187.2840  178.0550  143.2120 C   0  0  0  0  0  0  0  0  0  0  0  0
  186.2170  178.0420  145.4370 N   0  0  0  0  0  0  0  0  0  0  0  0
  186.2230  178.2520  139.0420 O   0  0  0  0  0  0  0  0  0  0  0  0
  187.8120  178.3050  140.7690 N   0  0  0  0  0  2  0  0  0  0  0  0
  187.4330  178.2290  139.3910 C   0  0  0  0  0  0  0  0  0  0  0  0
  188.4910  178.1310  138.3450 C   0  0  0  0  0  2  0  0  0  0  0  0
  189.8130  178.1690  138.9530 N   0  0  0  0  0  0  0  0  0  0  0  0
  190.4950  177.0850  139.1340 C   0  0  0  0  0  3  0  0  0  0  0  0
  191.8250  177.1250  139.7450 C   0  0  0  0  0  0  0  0  0  0  0  0
  191.9730  177.5080  140.9350 O   0  0  0  0  0  1  0  0  0  0  0  0
  192.9320  176.7370  139.0020 O   0  0  0  0  0  0  0  0  0  0  0  0
  189.0830  176.0050  143.0930 S   0  0  0  0  0  0  0  0  0  0  0  0
  188.6060  177.4890  143.5970 C   0  0  0  0  0  0  0  0  0  0  0  0
  189.5340  178.2430  144.4910 C   0  0  0  0  0  2  0  0  0  0  0  0
  190.7550  177.3970  144.8100 C   0  0  0  0  0  2  0  0  0  0  0  0
  190.8270  177.1290  146.3020 C   0  0  0  0  0  2  0  0  0  0  0  0
  189.5180  176.7430  146.8010 N   0  0  0  0  0  2  0  0  0  0  0  0
  187.9240  177.4730  148.4700 C   0  0  0  0  0  2  0  0  0  0  0  0
  188.7310  178.6730  148.0230 C   0  0  0  0  0  2  0  0  0  0  0  0
  189.3930  177.3130  148.1290 C   0  0  0  0  0  3  0  0  0  0  0  0
  1  8  2  0  0  0  0
  2  4  2  0  0  0  0
  2  7  1  0  0  0  0
  3  5  1  0  0  0  0
  4  9  1  0  0  0  0
  6  1  1  0  0  0  0
  6  2  1  0  0  0  0
  7  3  2  0  0  0  0
  8 20  1  0  0  0  0
  8  4  1  0  0  0  0
  9  5  2  0  0  0  0
 10 12  2  0  0  0  0
 11  1  1  0  0  0  0
 12 11  1  0  0  0  0
 13 14  1  0  0  0  0
 13 12  1  0  0  0  0
 14 15  2  0  0  0  0
 15 16  1  0  0  0  0
 16 17  1  0  0  0  0
 18 16  2  0  0  0  0
 19 20  2  0  0  0  0
 20 21  1  0  0  0  0
 21 22  1  0  0  0  0
 22 23  1  0  0  0  0
 23 24  1  0  0  0  0
 24 27  1  0  0  0  0
 26 27  1  0  0  0  0
 26 25  1  0  0  0  0
 27 25  1  0  0  0  0
M  END
>  <MODEL>
8

>  <REMARK>
 VINA RESULT:      -6.7      2.596      5.784
  Name = 
  10 active torsions:
  status: ('A' for Active; 'I' for Inactive)
    1  A    between atoms: C_1  and  N_17
    2  A    between atoms: C_2  and  C_11
    3  A    between atoms: C_5  and  C_13
    4  A    between atoms: C_5  and  C_16
    5  A    between atoms: N_9  and  C_10
    6  A    between atoms: C_10  and  C_23
    7  A    between atoms: C_13  and  C_19
    8  A    between atoms: C_16  and  N_25
    9  A    between atoms: C_18  and  N_25
   10  A    between atoms: C_19  and  C_26
                            x       y       z     vdW  Elec       q    Type
                         _______ _______ _______ _____ _____    ______ ____

>  <TORSDO>
F 10

$$$$
=
 OpenBabel11032419503D

 27 29  0  0  0  0  0  0  0  0999 V2000
  187.2900  177.6070  144.7200 C   0  0  0  0  0  0  0  0  0  0  0  0
  188.9150  177.2720  146.5570 C   0  0  0  0  0  0  0  0  0  0  0  0
  191.0150  176.8790  147.5530 N   0  0  0  0  0  0  0  0  0  0  0  0
  189.5080  177.2640  145.3100 C   0  0  0  0  0  0  0  0  0  0  0  0
  191.5990  176.8700  146.3180 C   0  0  0  0  0  3  0  0  0  0  0  0
  187.2650  177.5150  146.4140 S   0  0  0  0  0  0  0  0  0  0  0  0
  189.6750  177.0760  147.7000 C   0  0  0  0  0  3  0  0  0  0  0  0
  188.6040  177.4570  144.2440 C   0  0  0  0  0  0  0  0  0  0  0  0
  190.8460  177.0590  145.1960 N   0  0  0  0  0  0  0  0  0  0  0  0
  184.8670  179.1560  145.3520 O   0  0  0  0  0  0  0  0  0  0  0  0
  186.1500  177.8500  143.8830 N   0  0  0  0  0  2  0  0  0  0  0  0
  184.9840  178.6070  144.2250 C   0  0  0  0  0  0  0  0  0  0  0  0
  183.8900  178.7570  143.2230 C   0  0  0  0  0  2  0  0  0  0  0  0
  184.4420  179.0070  141.8990 N   0  0  0  0  0  0  0  0  0  0  0  0
  183.7780  178.7020  140.8320 C   0  0  0  0  0  3  0  0  0  0  0  0
  184.3340  178.9540  139.5020 C   0  0  0  0  0  0  0  0  0  0  0  0
  184.5530  180.1310  139.1100 O   0  0  0  0  0  1  0  0  0  0  0  0
  184.6210  177.8850  138.6640 O   0  0  0  0  0  0  0  0  0  0  0  0
  190.0070  176.3760  142.1670 S   0  0  0  0  0  0  0  0  0  0  0  0
  188.9770  177.4790  142.8030 C   0  0  0  0  0  0  0  0  0  0  0  0
  188.4480  178.5350  141.8890 C   0  0  0  0  0  2  0  0  0  0  0  0
  188.0770  177.9250  140.5480 C   0  0  0  0  0  2  0  0  0  0  0  0
  188.8960  178.5620  139.4410 C   0  0  0  0  0  2  0  0  0  0  0  0
  188.1190  178.6150  138.2150 N   0  0  0  0  0  2  0  0  0  0  0  0
  188.4850  177.9520  135.9150 C   0  0  0  0  0  2  0  0  0  0  0  0
  189.5120  177.2570  136.7820 C   0  0  0  0  0  2  0  0  0  0  0  0
  189.0680  178.6660  137.1190 C   0  0  0  0  0  3  0  0  0  0  0  0
  1  6  1  0  0  0  0
  2  7  1  0  0  0  0
  3  7  2  0  0  0  0
  4  2  2  0  0  0  0
  5  3  1  0  0  0  0
  6  2  1  0  0  0  0
  8  1  2  0  0  0  0
  8  4  1  0  0  0  0
  9  4  1  0  0  0  0
  9  5  2  0  0  0  0
 11 12  1  0  0  0  0
 11  1  1  0  0  0  0
 12 10  2  0  0  0  0
 13 12  1  0  0  0  0
 14 13  1  0  0  0  0
 15 14  2  0  0  0  0
 16 15  1  0  0  0  0
 17 16  1  0  0  0  0
 18 16  2  0  0  0  0
 19 20  2  0  0  0  0
 20  8  1  0  0  0  0
 21 20  1  0  0  0  0
 22 21  1  0  0  0  0
 23 22  1  0  0  0  0
 24 23  1  0  0  0  0
 25 26  1  0  0  0  0
 25 27  1  0  0  0  0
 26 27  1  0  0  0  0
 27 24  1  0  0  0  0
M  END
>  <MODEL>
9

>  <REMARK>
 VINA RESULT:      -6.6      1.947      6.736
  Name = 
  10 active torsions:
  status: ('A' for Active; 'I' for Inactive)
    1  A    between atoms: C_1  and  N_17
    2  A    between atoms: C_2  and  C_11
    3  A    between atoms: C_5  and  C_13
    4  A    between atoms: C_5  and  C_16
    5  A    between atoms: N_9  and  C_10
    6  A    between atoms: C_10  and  C_23
    7  A    between atoms: C_13  and  C_19
    8  A    between atoms: C_16  and  N_25
    9  A    between atoms: C_18  and  N_25
   10  A    between atoms: C_19  and  C_26
                            x       y       z     vdW  Elec       q    Type
                         _______ _______ _______ _____ _____    ______ ____

>  <TORSDO>
F 10

$$$$
