=
 OpenBabel11032421043D

 59 61  0  0  1  0  0  0  0  0999 V2000
  188.0410  177.8310  139.9100 C   0  0  2  0  0  3  0  0  0  0  0  0
  189.7340  177.9790  141.8870 C   0  0  1  0  0  3  0  0  0  0  0  0
  187.4760  178.4050  141.1660 C   0  0  0  0  0  0  0  0  0  0  0  0
  189.5840  176.9860  140.3710 S   0  0  0  0  0  0  0  0  0  0  0  0
  188.3460  178.3580  142.3620 C   0  0  0  0  0  2  0  0  0  0  0  0
  186.2820  178.9070  141.2390 N   0  0  0  0  0  0  0  0  0  0  0  0
  189.5870  178.4810  144.6870 O   0  0  0  0  0  0  0  0  0  0  0  0
  190.2690  177.4910  144.3060 C   0  0  0  0  0  0  0  0  0  0  0  0
  190.8970  176.6370  145.2620 N   0  0  0  0  0  2  0  0  0  0  0  0
  190.4210  177.2140  142.9130 N   0  0  0  0  0  2  0  0  0  0  0  0
  192.0320  176.2370  147.3850 C   0  0  0  0  0  1  0  0  0  0  0  0
  190.8690  176.9250  146.6890 C   0  0  2  0  0  3  0  0  0  0  0  0
  189.5320  176.5270  147.3110 C   0  0  0  0  0  2  0  0  0  0  0  0
  188.8260  177.6690  147.9660 C   0  0  0  0  0  0  0  0  0  0  0  0
  189.3600  178.2760  148.9260 O   0  0  0  0  0  1  0  0  0  0  0  0
  187.5720  178.0520  147.5110 O   0  0  0  0  0  0  0  0  0  0  0  0
  188.3120  178.8600  139.0030 O   0  0  0  0  0  0  0  0  0  0  0  0
  189.2910  178.3480  138.1460 C   0  0  0  0  0  2  0  0  0  0  0  0
  189.8260  177.9010  135.7610 C   0  0  0  0  0  1  0  0  0  0  0  0
  188.6940  178.0450  136.7740 C   0  0  1  0  0  3  0  0  0  0  0  0
  187.8450  176.7710  136.8180 C   0  0  1  0  0  3  0  0  0  0  0  0
  186.4450  177.0470  136.2920 C   0  0  0  0  0  1  0  0  0  0  0  0
  188.4730  175.6760  135.9590 C   0  0  0  0  0  2  0  0  0  0  0  0
  189.0500  174.5540  136.8180 C   0  0  0  0  0  2  0  0  0  0  0  0
  190.4960  173.3160  135.2240 C   0  0  0  0  0  2  0  0  0  0  0  0
  193.1920  173.9040  135.5350 O   0  0  0  0  0  0  0  0  0  0  0  0
  190.3990  174.1940  136.3900 N   0  0  0  0  0  0  0  0  0  0  0  0
  191.4320  172.1500  135.4900 C   0  0  0  0  0  2  0  0  0  0  0  0
  191.5510  174.6960  137.1050 C   0  0  0  0  0  0  0  0  0  0  0  0
  191.3860  175.5850  137.9890 O   0  0  0  0  0  0  0  0  0  0  0  0
  192.8710  172.5700  135.1790 C   0  0  2  0  0  3  0  0  0  0  0  0
  192.9270  174.0980  136.9000 C   0  0  2  0  0  3  0  0  0  0  0  0
  195.2030  175.7930  136.4080 O   0  0  0  0  0  0  0  0  0  0  0  0
  193.6530  176.2120  138.4700 O   0  0  0  0  0  1  0  0  0  0  0  0
  194.2610  175.1070  137.6380 P   0  0  1  0  0  0  0  0  0  0  0  0
  195.6610  174.9480  139.5790 O   0  0  0  0  0  1  0  0  0  0  0  0
  195.2340  174.1390  138.6320 O   0  0  0  0  0  0  0  0  0  0  0  0
  193.9410  171.5250  135.5440 C   0  0  1  0  0  3  0  0  0  0  0  0
  194.9590  171.5450  134.5940 O   0  0  0  0  0  1  0  0  0  0  0  0
  194.5420  171.7140  136.9350 C   0  0  0  0  0  2  0  0  0  0  0  0
  195.9250  171.5390  136.8870 O   0  0  0  0  0  1  0  0  0  0  0  0
  185.4350  178.9610  140.1230 N   0  0  0  0  0  0  0  0  0  0  0  0
  184.0490  179.1630  140.2360 N   0  0  0  0  0  0  0  0  0  0  0  0
  183.1560  179.4210  139.1440 C   0  0  0  0  0  0  0  0  0  0  0  0
  182.9310  180.6560  138.7020 C   0  0  0  0  0  2  0  0  0  0  0  0
  182.2870  178.3070  138.6640 C   0  0  0  0  0  2  0  0  0  0  0  0
  180.8070  178.6090  138.8640 C   0  0  1  0  0  3  0  0  0  0  0  0
  180.1670  176.3250  137.5750 C   0  0  0  0  0  2  0  0  0  0  0  0
  179.7960  177.8940  137.5380 S   0  0  0  0  0  0  0  0  0  0  0  0
  179.5400  175.4220  136.6620 N   0  0  0  0  0  2  0  0  0  0  0  0
  180.0570  174.0880  136.9550 C   0  0  2  0  0  3  0  0  0  0  0  0
  180.0320  173.8600  138.4510 C   0  0  0  0  0  1  0  0  0  0  0  0
  181.4830  173.8390  136.4320 C   0  0  2  0  0  3  0  0  0  0  0  0
  181.5640  172.6190  135.0500 S   0  0  0  0  0  0  0  0  0  0  0  0
  181.9940  172.5310  136.8390 C   0  0  0  0  0  2  0  0  0  0  0  0
  180.3380  178.1700  140.2530 C   0  0  0  0  0  2  0  0  0  0  0  0
  180.1990  179.3210  141.2520 C   0  0  0  0  0  2  0  0  0  0  0  0
  181.1840  179.2310  142.2410 O   0  0  0  0  0  0  0  0  0  0  0  0
  180.5830  178.6410  143.2540 O   0  0  0  0  0  1  0  0  0  0  0  0
  1 17  1  6  0  0  0
  1  4  1  0  0  0  0
  1  3  1  0  0  0  0
  2  5  1  0  0  0  0
  2 10  1  1  0  0  0
  3  6  2  0  0  0  0
  3  5  1  0  0  0  0
  4  2  1  0  0  0  0
  8  7  2  0  0  0  0
  8  9  1  0  0  0  0
  9 12  1  0  0  0  0
 10  8  1  0  0  0  0
 12 13  1  0  0  0  0
 12 11  1  1  0  0  0
 13 14  1  0  0  0  0
 14 15  1  0  0  0  0
 16 14  2  0  0  0  0
 18 17  1  0  0  0  0
 20 19  1  6  0  0  0
 20 21  1  0  0  0  0
 20 18  1  0  0  0  0
 21 22  1  6  0  0  0
 23 24  1  0  0  0  0
 23 21  1  0  0  0  0
 25 28  1  0  0  0  0
 25 27  1  0  0  0  0
 26 32  1  0  0  0  0
 27 24  1  0  0  0  0
 27 29  1  0  0  0  0
 29 30  2  0  0  0  0
 31 28  1  0  0  0  0
 31 26  1  0  0  0  0
 31 38  1  1  0  0  0
 32 29  1  0  0  0  0
 32 35  1  6  0  0  0
 35 33  2  6  0  0  0
 35 34  1  0  0  0  0
 35 37  1  0  0  0  0
 37 36  1  0  0  0  0
 38 39  1  6  0  0  0
 38 40  1  0  0  0  0
 41 40  1  0  0  0  0
 42 43  2  0  0  0  0
 42  6  1  0  0  0  0
 44 43  1  0  0  0  0
 45 44  2  0  0  0  0
 46 44  1  0  0  0  0
 47 46  1  6  0  0  0
 47 56  1  0  0  0  0
 49 48  1  0  0  0  0
 49 47  1  0  0  0  0
 50 51  1  0  0  0  0
 50 48  1  0  0  0  0
 51 52  1  1  0  0  0
 53 55  1  0  0  0  0
 53 51  1  1  0  0  0
 54 53  1  0  0  0  0
 54 55  1  0  0  0  0
 56 57  1  0  0  0  0
 57 58  1  0  0  0  0
 58 59  1  0  0  0  0
M  END
>  <MODEL>
1

>  <REMARK>
 VINA RESULT:      -5.8      0.000      0.000
  Name = 
  27 active torsions:
  status: ('A' for Active; 'I' for Inactive)
    1  A    between atoms: C_1  and  C_3
    2  A    between atoms: C_1  and  C_49
    3  A    between atoms: C_4  and  C_10
    4  A    between atoms: C_4  and  C_55
    5  A    between atoms: C_5  and  O_32
    6  A    between atoms: N_8  and  N_22
    7  A    between atoms: N_8  and  N_36
    8  A    between atoms: C_11  and  C_14
    9  A    between atoms: C_11  and  O_21
   10  A    between atoms: C_13  and  N_50
   11  A    between atoms: C_14  and  C_26
   12  A    between atoms: C_15  and  N_38
   13  A    between atoms: C_16  and  N_22
   14  A    between atoms: C_16  and  C_37
   15  A    between atoms: C_19  and  C_43
   16  A    between atoms: C_19  and  C_53
   17  A    between atoms: C_23  and  C_28
   18  A    between atoms: C_23  and  C_43
   19  A    between atoms: C_26  and  S_29
   20  A    between atoms: C_26  and  C_37
   21  A    between atoms: C_28  and  O_32
   22  A    between atoms: C_31  and  C_33
   23  A    between atoms: C_33  and  N_38
   24  A    between atoms: N_40  and  C_53
   25  A    between atoms: N_42  and  C_49
   26  A    between atoms: C_57  and  P_58
   27  A    between atoms: P_58  and  O_59
                            x       y       z     vdW  Elec       q    Type
                         _______ _______ _______ _____ _____    ______ ____

>  <TORSDO>
F 27

$$$$
=
 OpenBabel11032421043D

 59 61  0  0  1  0  0  0  0  0999 V2000
  188.6460  175.5800  136.1220 C   0  0  2  0  0  3  0  0  0  0  0  0
  190.9680  174.4080  136.3010 C   0  0  1  0  0  3  0  0  0  0  0  0
  188.6550  174.1560  135.6790 C   0  0  0  0  0  0  0  0  0  0  0  0
  190.3810  176.1240  136.1660 S   0  0  0  0  0  0  0  0  0  0  0  0
  189.9780  173.4970  135.6040 C   0  0  0  0  0  2  0  0  0  0  0  0
  187.5780  173.5110  135.3510 N   0  0  0  0  0  0  0  0  0  0  0  0
  193.4540  174.8270  137.6270 O   0  0  0  0  0  0  0  0  0  0  0  0
  193.4900  174.4650  136.4190 C   0  0  0  0  0  0  0  0  0  0  0  0
  194.7410  174.2330  135.7720 N   0  0  0  0  0  2  0  0  0  0  0  0
  192.2780  174.2850  135.6850 N   0  0  0  0  0  2  0  0  0  0  0  0
  196.8410  175.4640  135.5990 C   0  0  0  0  0  1  0  0  0  0  0  0
  196.0110  174.5010  136.4310 C   0  0  2  0  0  3  0  0  0  0  0  0
  196.7740  173.2090  136.7150 C   0  0  0  0  0  2  0  0  0  0  0  0
  196.2250  172.4450  137.8750 C   0  0  0  0  0  0  0  0  0  0  0  0
  195.8560  173.0480  138.9120 O   0  0  0  0  0  1  0  0  0  0  0  0
  196.1310  171.0620  137.8030 O   0  0  0  0  0  0  0  0  0  0  0  0
  188.0850  175.6700  137.4000 O   0  0  0  0  0  0  0  0  0  0  0  0
  187.2660  176.8040  137.3650 C   0  0  0  0  0  2  0  0  0  0  0  0
  186.4590  178.2960  139.1800 C   0  0  0  0  0  1  0  0  0  0  0  0
  187.6960  177.8070  138.4330 C   0  0  1  0  0  3  0  0  0  0  0  0
  188.6970  177.1730  139.4040 C   0  0  1  0  0  3  0  0  0  0  0  0
  190.0560  177.8460  139.2810 C   0  0  0  0  0  1  0  0  0  0  0  0
  188.2170  177.3240  140.8460 C   0  0  0  0  0  2  0  0  0  0  0  0
  188.8070  178.5680  141.5050 C   0  0  0  0  0  2  0  0  0  0  0  0
  190.7770  178.2250  142.9750 C   0  0  0  0  0  2  0  0  0  0  0  0
  190.0940  178.0020  145.6580 O   0  0  0  0  0  0  0  0  0  0  0  0
  189.3220  178.2720  142.8390 N   0  0  0  0  0  0  0  0  0  0  0  0
  191.2220  176.9660  143.6990 C   0  0  0  0  0  2  0  0  0  0  0  0
  188.4120  178.0410  143.9380 C   0  0  0  0  0  0  0  0  0  0  0  0
  187.1800  178.2710  143.7750 O   0  0  0  0  0  0  0  0  0  0  0  0
  191.1800  177.2060  145.2110 C   0  0  2  0  0  3  0  0  0  0  0  0
  188.8870  177.4210  145.2360 C   0  0  2  0  0  3  0  0  0  0  0  0
  186.8780  179.0500  146.5020 O   0  0  0  0  0  1  0  0  0  0  0  0
  186.6260  176.4500  146.4220 O   0  0  0  0  0  0  0  0  0  0  0  0
  187.6540  177.5460  146.5800 P   0  0  1  0  0  0  0  0  0  0  0  0
  187.4590  177.5250  148.9700 O   0  0  0  0  0  1  0  0  0  0  0  0
  188.4190  177.3730  148.0820 O   0  0  0  0  0  0  0  0  0  0  0  0
  191.4680  175.9610  146.0700 C   0  0  1  0  0  3  0  0  0  0  0  0
  192.4450  175.1830  145.4530 O   0  0  0  0  0  1  0  0  0  0  0  0
  191.9020  176.2810  147.4980 C   0  0  0  0  0  2  0  0  0  0  0  0
  193.0860  175.6090  147.8020 O   0  0  0  0  0  1  0  0  0  0  0  0
  186.3120  174.1100  135.4080 N   0  0  0  0  0  2  0  0  0  0  0  0
  185.2920  173.6420  136.2530 N   0  0  0  0  0  2  0  0  0  0  0  0
  184.2840  172.6910  135.8880 C   0  0  0  0  0  0  0  0  0  0  0  0
  184.4120  171.3960  136.1630 C   0  0  0  0  0  2  0  0  0  0  0  0
  183.1920  173.1340  134.9710 C   0  0  0  0  0  2  0  0  0  0  0  0
  181.9560  173.5920  135.7340 C   0  0  1  0  0  3  0  0  0  0  0  0
  182.6980  176.1050  136.3850 C   0  0  0  0  0  2  0  0  0  0  0  0
  181.6150  175.3520  135.4560 S   0  0  0  0  0  0  0  0  0  0  0  0
  182.7430  177.5330  136.4140 N   0  0  0  0  0  2  0  0  0  0  0  0
  181.8470  177.9700  137.4800 C   0  0  2  0  0  3  0  0  0  0  0  0
  180.7220  178.7870  136.8820 C   0  0  0  0  0  1  0  0  0  0  0  0
  182.5380  178.7940  138.5820 C   0  0  2  0  0  3  0  0  0  0  0  0
  182.3890  178.0520  140.2650 S   0  0  0  0  0  0  0  0  0  0  0  0
  181.5700  179.4810  139.4380 C   0  0  0  0  0  2  0  0  0  0  0  0
  180.7490  172.7080  135.4080 C   0  0  0  0  0  2  0  0  0  0  0  0
  180.2210  171.9160  136.6060 C   0  0  0  0  0  2  0  0  0  0  0  0
  180.8040  172.3760  137.7910 O   0  0  0  0  0  0  0  0  0  0  0  0
  179.9180  173.2130  138.2920 O   0  0  0  0  0  1  0  0  0  0  0  0
  1  4  1  0  0  0  0
  1 17  1  1  0  0  0
  2 10  1  6  0  0  0
  3  1  1  0  0  0  0
  4  2  1  0  0  0  0
  5  3  1  0  0  0  0
  5  2  1  0  0  0  0
  6 42  1  0  0  0  0
  6  3  2  0  0  0  0
  8  7  2  0  0  0  0
  9  8  1  0  0  0  0
  9 12  1  0  0  0  0
 10  8  1  0  0  0  0
 12 11  1  6  0  0  0
 12 13  1  0  0  0  0
 13 14  1  0  0  0  0
 14 15  1  0  0  0  0
 16 14  2  0  0  0  0
 18 17  1  0  0  0  0
 18 20  1  0  0  0  0
 20 19  1  1  0  0  0
 20 21  1  0  0  0  0
 21 22  1  1  0  0  0
 21 23  1  0  0  0  0
 23 24  1  0  0  0  0
 24 27  1  0  0  0  0
 25 28  1  0  0  0  0
 27 25  1  0  0  0  0
 27 29  1  0  0  0  0
 28 31  1  0  0  0  0
 29 32  1  0  0  0  0
 30 29  2  0  0  0  0
 31 26  1  0  0  0  0
 31 38  1  1  0  0  0
 32 26  1  0  0  0  0
 32 35  1  1  0  0  0
 33 35  1  0  0  0  0
 35 34  2  6  0  0  0
 35 37  1  0  0  0  0
 37 36  1  0  0  0  0
 38 39  1  6  0  0  0
 38 40  1  0  0  0  0
 40 41  1  0  0  0  0
 42 43  1  0  0  0  0
 44 45  2  0  0  0  0
 44 43  1  0  0  0  0
 46 44  1  0  0  0  0
 47 46  1  6  0  0  0
 48 50  1  0  0  0  0
 49 47  1  0  0  0  0
 49 48  1  0  0  0  0
 50 51  1  0  0  0  0
 51 52  1  6  0  0  0
 53 51  1  6  0  0  0
 53 55  1  0  0  0  0
 53 54  1  0  0  0  0
 55 54  1  0  0  0  0
 56 47  1  0  0  0  0
 56 57  1  0  0  0  0
 57 58  1  0  0  0  0
 58 59  1  0  0  0  0
M  END
>  <MODEL>
2

>  <REMARK>
 VINA RESULT:      -5.7      3.112      8.825
  Name = 
  27 active torsions:
  status: ('A' for Active; 'I' for Inactive)
    1  A    between atoms: C_1  and  C_3
    2  A    between atoms: C_1  and  C_49
    3  A    between atoms: C_4  and  C_10
    4  A    between atoms: C_4  and  C_55
    5  A    between atoms: C_5  and  O_32
    6  A    between atoms: N_8  and  N_22
    7  A    between atoms: N_8  and  N_36
    8  A    between atoms: C_11  and  C_14
    9  A    between atoms: C_11  and  O_21
   10  A    between atoms: C_13  and  N_50
   11  A    between atoms: C_14  and  C_26
   12  A    between atoms: C_15  and  N_38
   13  A    between atoms: C_16  and  N_22
   14  A    between atoms: C_16  and  C_37
   15  A    between atoms: C_19  and  C_43
   16  A    between atoms: C_19  and  C_53
   17  A    between atoms: C_23  and  C_28
   18  A    between atoms: C_23  and  C_43
   19  A    between atoms: C_26  and  S_29
   20  A    between atoms: C_26  and  C_37
   21  A    between atoms: C_28  and  O_32
   22  A    between atoms: C_31  and  C_33
   23  A    between atoms: C_33  and  N_38
   24  A    between atoms: N_40  and  C_53
   25  A    between atoms: N_42  and  C_49
   26  A    between atoms: C_57  and  P_58
   27  A    between atoms: P_58  and  O_59
                            x       y       z     vdW  Elec       q    Type
                         _______ _______ _______ _____ _____    ______ ____

>  <TORSDO>
F 27

$$$$
=
 OpenBabel11032421043D

 59 61  0  0  1  0  0  0  0  0999 V2000
  184.3900  178.2190  140.5770 C   0  0  2  0  0  3  0  0  0  0  0  0
  184.6120  179.6520  142.7440 C   0  0  1  0  0  3  0  0  0  0  0  0
  183.1870  178.1960  141.4590 C   0  0  0  0  0  0  0  0  0  0  0  0
  185.7650  178.8530  141.5850 S   0  0  0  0  0  0  0  0  0  0  0  0
  183.3230  178.8570  142.7770 C   0  0  0  0  0  2  0  0  0  0  0  0
  182.0750  177.6180  141.1240 N   0  0  0  0  0  0  0  0  0  0  0  0
  185.9020  177.4750  144.0520 O   0  0  0  0  0  0  0  0  0  0  0  0
  185.8740  178.5840  144.6530 C   0  0  0  0  0  0  0  0  0  0  0  0
  186.5130  178.7340  145.9200 N   0  0  0  0  0  2  0  0  0  0  0  0
  185.2020  179.7010  144.0710 N   0  0  0  0  0  2  0  0  0  0  0  0
  186.5950  177.5220  148.0380 C   0  0  0  0  0  1  0  0  0  0  0  0
  187.1220  177.6090  146.6150 C   0  0  2  0  0  3  0  0  0  0  0  0
  188.6470  177.6990  146.5900 C   0  0  0  0  0  2  0  0  0  0  0  0
  189.2240  177.5200  145.2240 C   0  0  0  0  0  0  0  0  0  0  0  0
  189.8050  176.4500  144.9190 O   0  0  0  0  0  1  0  0  0  0  0  0
  189.1200  178.5450  144.2950 O   0  0  0  0  0  0  0  0  0  0  0  0
  184.1600  179.0720  139.4920 O   0  0  0  0  0  0  0  0  0  0  0  0
  185.1910  178.8020  138.5860 C   0  0  0  0  0  2  0  0  0  0  0  0
  183.6720  177.9160  136.8310 C   0  0  0  0  0  1  0  0  0  0  0  0
  184.8510  177.5780  137.7390 C   0  0  1  0  0  3  0  0  0  0  0  0
  186.0610  177.1360  136.9110 C   0  0  1  0  0  3  0  0  0  0  0  0
  185.6070  176.4170  135.6490 C   0  0  0  0  0  1  0  0  0  0  0  0
  186.9010  178.3420  136.4990 C   0  0  0  0  0  2  0  0  0  0  0  0
  188.2540  177.9150  135.9360 C   0  0  0  0  0  2  0  0  0  0  0  0
  188.5980  177.3820  138.3350 C   0  0  0  0  0  2  0  0  0  0  0  0
  190.7250  175.6460  138.7600 O   0  0  0  0  0  0  0  0  0  0  0  0
  189.0810  177.2800  136.9590 N   0  0  0  0  0  0  0  0  0  0  0  0
  189.6990  177.8520  139.2710 C   0  0  0  0  0  2  0  0  0  0  0  0
  190.3030  176.6010  136.5920 C   0  0  0  0  0  0  0  0  0  0  0  0
  190.5570  176.4090  135.3690 O   0  0  0  0  0  0  0  0  0  0  0  0
  190.5160  176.6470  139.7430 C   0  0  2  0  0  3  0  0  0  0  0  0
  191.3350  176.2220  137.6340 C   0  0  2  0  0  3  0  0  0  0  0  0
  193.6870  175.9340  135.9960 O   0  0  0  0  0  0  0  0  0  0  0  0
  193.3780  174.4820  138.1470 O   0  0  0  0  0  1  0  0  0  0  0  0
  192.6130  175.0820  136.9910 P   0  0  1  0  0  0  0  0  0  0  0  0
  192.8760  173.2150  135.5080 O   0  0  0  0  0  1  0  0  0  0  0  0
  191.8810  173.8350  136.1080 O   0  0  0  0  0  0  0  0  0  0  0  0
  191.7560  176.9980  140.5850 C   0  0  1  0  0  3  0  0  0  0  0  0
  192.5140  177.9610  139.9230 O   0  0  0  0  0  1  0  0  0  0  0  0
  191.4300  177.4890  141.9930 C   0  0  0  0  0  2  0  0  0  0  0  0
  192.1800  176.7800  142.9330 O   0  0  0  0  0  1  0  0  0  0  0  0
  181.9190  176.9820  139.8840 N   0  0  0  0  0  2  0  0  0  0  0  0
  180.7950  177.1840  139.0670 N   0  0  0  0  0  2  0  0  0  0  0  0
  180.2430  176.2200  138.1610 C   0  0  0  0  0  0  0  0  0  0  0  0
  179.0750  176.4170  137.5570 C   0  0  0  0  0  2  0  0  0  0  0  0
  180.8810  174.8720  138.0890 C   0  0  0  0  0  2  0  0  0  0  0  0
  181.1620  174.4490  136.6520 C   0  0  1  0  0  3  0  0  0  0  0  0
  183.3580  173.2100  137.6180 C   0  0  0  0  0  2  0  0  0  0  0  0
  182.9310  174.1510  136.3800 S   0  0  0  0  0  0  0  0  0  0  0  0
  184.7060  172.7490  137.7330 N   0  0  0  0  0  2  0  0  0  0  0  0
  185.2280  172.6050  136.3780 C   0  0  2  0  0  3  0  0  0  0  0  0
  184.8270  171.2520  135.8300 C   0  0  0  0  0  1  0  0  0  0  0  0
  186.7570  172.7570  136.2750 C   0  0  2  0  0  3  0  0  0  0  0  0
  187.3410  173.2450  134.5940 S   0  0  0  0  0  0  0  0  0  0  0  0
  187.3660  171.6560  135.5270 C   0  0  0  0  0  2  0  0  0  0  0  0
  180.3020  173.2470  136.2540 C   0  0  0  0  0  2  0  0  0  0  0  0
  179.8840  172.3670  137.4330 C   0  0  0  0  0  2  0  0  0  0  0  0
  179.9540  171.0150  137.0830 O   0  0  0  0  0  0  0  0  0  0  0  0
  180.7800  170.9810  136.0570 O   0  0  0  0  0  1  0  0  0  0  0  0
  1 17  1  6  0  0  0
  1  3  1  0  0  0  0
  1  4  1  0  0  0  0
  2  5  1  0  0  0  0
  2 10  1  1  0  0  0
  3  5  1  0  0  0  0
  4  2  1  0  0  0  0
  6  3  2  0  0  0  0
  7  8  2  0  0  0  0
  8  9  1  0  0  0  0
  9 12  1  0  0  0  0
 10  8  1  0  0  0  0
 12 11  1  1  0  0  0
 13 12  1  0  0  0  0
 14 13  1  0  0  0  0
 15 14  1  0  0  0  0
 16 14  2  0  0  0  0
 18 17  1  0  0  0  0
 20 19  1  6  0  0  0
 20 18  1  0  0  0  0
 21 22  1  6  0  0  0
 21 20  1  0  0  0  0
 23 21  1  0  0  0  0
 24 23  1  0  0  0  0
 24 27  1  0  0  0  0
 25 28  1  0  0  0  0
 26 31  1  0  0  0  0
 27 25  1  0  0  0  0
 28 31  1  0  0  0  0
 29 27  1  0  0  0  0
 29 32  1  0  0  0  0
 30 29  2  0  0  0  0
 31 38  1  6  0  0  0
 32 35  1  6  0  0  0
 32 26  1  0  0  0  0
 35 33  2  6  0  0  0
 35 34  1  0  0  0  0
 36 37  1  0  0  0  0
 37 35  1  0  0  0  0
 38 39  1  6  0  0  0
 38 40  1  0  0  0  0
 40 41  1  0  0  0  0
 42  6  1  0  0  0  0
 43 42  1  0  0  0  0
 44 43  1  0  0  0  0
 45 44  2  0  0  0  0
 46 44  1  0  0  0  0
 47 56  1  1  0  0  0
 47 46  1  0  0  0  0
 48 50  1  0  0  0  0
 49 47  1  0  0  0  0
 49 48  1  0  0  0  0
 51 52  1  1  0  0  0
 51 50  1  0  0  0  0
 53 51  1  6  0  0  0
 54 55  1  0  0  0  0
 54 53  1  0  0  0  0
 55 53  1  0  0  0  0
 56 57  1  0  0  0  0
 58 57  1  0  0  0  0
 59 58  1  0  0  0  0
M  END
>  <MODEL>
3

>  <REMARK>
 VINA RESULT:      -5.4      3.199      5.225
  Name = 
  27 active torsions:
  status: ('A' for Active; 'I' for Inactive)
    1  A    between atoms: C_1  and  C_3
    2  A    between atoms: C_1  and  C_49
    3  A    between atoms: C_4  and  C_10
    4  A    between atoms: C_4  and  C_55
    5  A    between atoms: C_5  and  O_32
    6  A    between atoms: N_8  and  N_22
    7  A    between atoms: N_8  and  N_36
    8  A    between atoms: C_11  and  C_14
    9  A    between atoms: C_11  and  O_21
   10  A    between atoms: C_13  and  N_50
   11  A    between atoms: C_14  and  C_26
   12  A    between atoms: C_15  and  N_38
   13  A    between atoms: C_16  and  N_22
   14  A    between atoms: C_16  and  C_37
   15  A    between atoms: C_19  and  C_43
   16  A    between atoms: C_19  and  C_53
   17  A    between atoms: C_23  and  C_28
   18  A    between atoms: C_23  and  C_43
   19  A    between atoms: C_26  and  S_29
   20  A    between atoms: C_26  and  C_37
   21  A    between atoms: C_28  and  O_32
   22  A    between atoms: C_31  and  C_33
   23  A    between atoms: C_33  and  N_38
   24  A    between atoms: N_40  and  C_53
   25  A    between atoms: N_42  and  C_49
   26  A    between atoms: C_57  and  P_58
   27  A    between atoms: P_58  and  O_59
                            x       y       z     vdW  Elec       q    Type
                         _______ _______ _______ _____ _____    ______ ____

>  <TORSDO>
F 27

$$$$
=
 OpenBabel11032421043D

 59 61  0  0  1  0  0  0  0  0999 V2000
  190.8880  177.1130  140.2100 C   0  0  2  0  0  3  0  0  0  0  0  0
  192.7350  175.8100  138.9110 C   0  0  1  0  0  3  0  0  0  0  0  0
  190.5620  176.8410  138.7810 C   0  0  0  0  0  0  0  0  0  0  0  0
  192.6800  176.8600  140.3940 S   0  0  0  0  0  0  0  0  0  0  0  0
  191.6430  176.2520  137.9580 C   0  0  0  0  0  2  0  0  0  0  0  0
  189.4080  177.1130  138.2550 N   0  0  0  0  0  0  0  0  0  0  0  0
  194.8080  173.8590  139.0240 O   0  0  0  0  0  0  0  0  0  0  0  0
  195.0140  174.8910  138.3280 C   0  0  0  0  0  0  0  0  0  0  0  0
  196.2290  175.0350  137.5950 N   0  0  0  0  0  2  0  0  0  0  0  0
  194.0330  175.9280  138.2700 N   0  0  0  0  0  2  0  0  0  0  0  0
  198.6440  174.7360  137.4030 C   0  0  0  0  0  1  0  0  0  0  0  0
  197.3120  174.0660  137.6970 C   0  0  2  0  0  3  0  0  0  0  0  0
  197.0750  172.8690  136.7790 C   0  0  0  0  0  2  0  0  0  0  0  0
  196.6610  173.2600  135.3980 C   0  0  0  0  0  0  0  0  0  0  0  0
  197.5020  173.7340  134.5970 O   0  0  0  0  0  0  0  0  0  0  0  0
  195.3390  173.1000  135.0070 O   0  0  0  0  0  1  0  0  0  0  0  0
  190.1930  176.2170  141.0300 O   0  0  0  0  0  0  0  0  0  0  0  0
  189.2020  176.9800  141.6540 C   0  0  0  0  0  2  0  0  0  0  0  0
  189.9660  175.9990  143.8060 C   0  0  0  0  0  1  0  0  0  0  0  0
  188.7430  176.3060  142.9460 C   0  0  1  0  0  3  0  0  0  0  0  0
  187.7590  177.2000  143.7060 C   0  0  1  0  0  3  0  0  0  0  0  0
  188.5090  178.2200  144.5480 C   0  0  0  0  0  1  0  0  0  0  0  0
  186.8540  177.9530  142.7340 C   0  0  0  0  0  2  0  0  0  0  0  0
  185.5460  178.3750  143.4000 C   0  0  0  0  0  2  0  0  0  0  0  0
  184.8090  178.2480  141.0330 C   0  0  0  0  0  2  0  0  0  0  0  0
  182.0460  178.1750  140.7670 O   0  0  0  0  0  0  0  0  0  0  0  0
  184.4460  178.4090  142.4410 N   0  0  0  0  0  0  0  0  0  0  0  0
  184.1690  179.3230  140.1730 C   0  0  0  0  0  2  0  0  0  0  0  0
  183.0870  178.5980  142.8950 C   0  0  0  0  0  0  0  0  0  0  0  0
  182.8410  178.5550  144.1340 O   0  0  0  0  0  0  0  0  0  0  0  0
  182.7610  178.8790  139.7660 C   0  0  2  0  0  3  0  0  0  0  0  0
  181.9780  178.9610  141.9290 C   0  0  2  0  0  3  0  0  0  0  0  0
  179.3970  180.1860  142.2980 O   0  0  0  0  0  1  0  0  0  0  0  0
  179.6220  177.5890  142.0980 O   0  0  0  0  0  0  0  0  0  0  0  0
  180.3110  178.8070  142.6660 P   0  0  1  0  0  0  0  0  0  0  0  0
  179.2130  178.3730  144.7530 O   0  0  0  0  0  1  0  0  0  0  0  0
  180.4370  178.6360  144.3460 O   0  0  0  0  0  0  0  0  0  0  0  0
  181.9430  179.9410  139.0090 C   0  0  1  0  0  3  0  0  0  0  0  0
  182.1730  179.8230  137.6410 O   0  0  0  0  0  1  0  0  0  0  0  0
  180.4420  179.8750  139.2790 C   0  0  0  0  0  2  0  0  0  0  0  0
  179.7920  179.2430  138.2190 O   0  0  0  0  0  1  0  0  0  0  0  0
  188.3670  177.6740  139.0090 N   0  0  0  0  0  2  0  0  0  0  0  0
  187.3480  178.4490  138.4300 N   0  0  0  0  0  2  0  0  0  0  0  0
  186.6250  178.1130  137.2390 C   0  0  0  0  0  0  0  0  0  0  0  0
  186.9840  178.5810  136.0470 C   0  0  0  0  0  2  0  0  0  0  0  0
  185.3070  177.4260  137.3840 C   0  0  0  0  0  2  0  0  0  0  0  0
  185.3780  175.9620  136.9670 C   0  0  1  0  0  3  0  0  0  0  0  0
  182.8620  175.2180  136.3320 C   0  0  0  0  0  2  0  0  0  0  0  0
  184.2440  175.6040  135.5960 S   0  0  0  0  0  0  0  0  0  0  0  0
  181.7100  174.8830  135.5570 N   0  0  0  0  0  2  0  0  0  0  0  0
  181.6760  173.4280  135.4430 C   0  0  2  0  0  3  0  0  0  0  0  0
  180.2550  172.9810  135.1730 C   0  0  0  0  0  1  0  0  0  0  0  0
  182.2070  172.6890  136.6850 C   0  0  2  0  0  3  0  0  0  0  0  0
  183.8770  171.9420  136.4450 S   0  0  0  0  0  0  0  0  0  0  0  0
  182.1770  171.2370  136.5120 C   0  0  0  0  0  2  0  0  0  0  0  0
  186.8180  175.5480  136.6520 C   0  0  0  0  0  2  0  0  0  0  0  0
  186.9290  174.4470  135.5970 C   0  0  0  0  0  2  0  0  0  0  0  0
  187.9820  173.5780  135.9050 O   0  0  0  0  0  0  0  0  0  0  0  0
  188.7850  174.2910  136.6690 O   0  0  0  0  0  1  0  0  0  0  0  0
  1  4  1  0  0  0  0
  1 17  1  1  0  0  0
  2 10  1  6  0  0  0
  2  4  1  0  0  0  0
  3  1  1  0  0  0  0
  5  3  1  0  0  0  0
  5  2  1  0  0  0  0
  6  3  2  0  0  0  0
  6 42  1  0  0  0  0
  8  7  2  0  0  0  0
  9 12  1  0  0  0  0
  9  8  1  0  0  0  0
 10  8  1  0  0  0  0
 12 11  1  6  0  0  0
 13 12  1  0  0  0  0
 14 13  1  0  0  0  0
 15 14  2  0  0  0  0
 16 14  1  0  0  0  0
 17 18  1  0  0  0  0
 18 20  1  0  0  0  0
 20 21  1  0  0  0  0
 20 19  1  1  0  0  0
 21 22  1  6  0  0  0
 23 24  1  0  0  0  0
 23 21  1  0  0  0  0
 25 27  1  0  0  0  0
 26 32  1  0  0  0  0
 27 29  1  0  0  0  0
 27 24  1  0  0  0  0
 28 25  1  0  0  0  0
 29 30  2  0  0  0  0
 31 38  1  1  0  0  0
 31 28  1  0  0  0  0
 31 26  1  0  0  0  0
 32 35  1  1  0  0  0
 32 29  1  0  0  0  0
 33 35  1  0  0  0  0
 35 34  2  6  0  0  0
 35 37  1  0  0  0  0
 37 36  1  0  0  0  0
 38 39  1  6  0  0  0
 38 40  1  0  0  0  0
 41 40  1  0  0  0  0
 43 42  1  0  0  0  0
 44 46  1  0  0  0  0
 44 43  1  0  0  0  0
 45 44  2  0  0  0  0
 47 56  1  6  0  0  0
 47 46  1  0  0  0  0
 49 48  1  0  0  0  0
 49 47  1  0  0  0  0
 50 48  1  0  0  0  0
 51 52  1  1  0  0  0
 51 50  1  0  0  0  0
 53 51  1  6  0  0  0
 54 55  1  0  0  0  0
 54 53  1  0  0  0  0
 55 53  1  0  0  0  0
 57 58  1  0  0  0  0
 57 56  1  0  0  0  0
 58 59  1  0  0  0  0
M  END
>  <MODEL>
4

>  <REMARK>
 VINA RESULT:      -5.3      3.635     10.116
  Name = 
  27 active torsions:
  status: ('A' for Active; 'I' for Inactive)
    1  A    between atoms: C_1  and  C_3
    2  A    between atoms: C_1  and  C_49
    3  A    between atoms: C_4  and  C_10
    4  A    between atoms: C_4  and  C_55
    5  A    between atoms: C_5  and  O_32
    6  A    between atoms: N_8  and  N_22
    7  A    between atoms: N_8  and  N_36
    8  A    between atoms: C_11  and  C_14
    9  A    between atoms: C_11  and  O_21
   10  A    between atoms: C_13  and  N_50
   11  A    between atoms: C_14  and  C_26
   12  A    between atoms: C_15  and  N_38
   13  A    between atoms: C_16  and  N_22
   14  A    between atoms: C_16  and  C_37
   15  A    between atoms: C_19  and  C_43
   16  A    between atoms: C_19  and  C_53
   17  A    between atoms: C_23  and  C_28
   18  A    between atoms: C_23  and  C_43
   19  A    between atoms: C_26  and  S_29
   20  A    between atoms: C_26  and  C_37
   21  A    between atoms: C_28  and  O_32
   22  A    between atoms: C_31  and  C_33
   23  A    between atoms: C_33  and  N_38
   24  A    between atoms: N_40  and  C_53
   25  A    between atoms: N_42  and  C_49
   26  A    between atoms: C_57  and  P_58
   27  A    between atoms: P_58  and  O_59
                            x       y       z     vdW  Elec       q    Type
                         _______ _______ _______ _____ _____    ______ ____

>  <TORSDO>
F 27

$$$$
=
 OpenBabel11032421043D

 59 61  0  0  1  0  0  0  0  0999 V2000
  188.8470  176.3560  136.6150 C   0  0  2  0  0  3  0  0  0  0  0  0
  191.0380  175.0480  136.0820 C   0  0  1  0  0  3  0  0  0  0  0  0
  188.6380  175.0810  135.8690 C   0  0  0  0  0  0  0  0  0  0  0  0
  190.6090  176.7760  136.4490 S   0  0  0  0  0  0  0  0  0  0  0  0
  189.8580  174.3860  135.3980 C   0  0  0  0  0  2  0  0  0  0  0  0
  187.4630  174.5950  135.6150 N   0  0  0  0  0  0  0  0  0  0  0  0
  193.7430  175.1940  136.9610 O   0  0  0  0  0  0  0  0  0  0  0  0
  193.5380  175.0340  135.7270 C   0  0  0  0  0  0  0  0  0  0  0  0
  194.6350  174.8880  134.8260 N   0  0  0  0  0  2  0  0  0  0  0  0
  192.2040  175.0010  135.2170 N   0  0  0  0  0  2  0  0  0  0  0  0
  196.6710  176.2150  134.5940 C   0  0  0  0  0  1  0  0  0  0  0  0
  196.0170  175.0190  135.2660 C   0  0  2  0  0  3  0  0  0  0  0  0
  196.8060  173.7360  135.0120 C   0  0  0  0  0  2  0  0  0  0  0  0
  197.1810  173.0180  136.2670 C   0  0  0  0  0  0  0  0  0  0  0  0
  197.5630  173.6630  137.2740 O   0  0  0  0  0  1  0  0  0  0  0  0
  197.1090  171.6330  136.3130 O   0  0  0  0  0  0  0  0  0  0  0  0
  188.5250  176.1700  137.9630 O   0  0  0  0  0  0  0  0  0  0  0  0
  188.1580  177.4350  138.4330 C   0  0  0  0  0  2  0  0  0  0  0  0
  188.6160  178.9080  140.3800 C   0  0  0  0  0  1  0  0  0  0  0  0
  189.2560  178.0130  139.3230 C   0  0  1  0  0  3  0  0  0  0  0  0
  190.0680  176.8950  139.9820 C   0  0  1  0  0  3  0  0  0  0  0  0
  191.4370  177.4090  140.4010 C   0  0  0  0  0  1  0  0  0  0  0  0
  189.3520  176.3710  141.2250 C   0  0  0  0  0  2  0  0  0  0  0  0
  189.9490  176.9560  142.5020 C   0  0  0  0  0  2  0  0  0  0  0  0
  187.5710  176.7750  143.1910 C   0  0  0  0  0  2  0  0  0  0  0  0
  187.2420  176.8150  145.9490 O   0  0  0  0  0  0  0  0  0  0  0  0
  188.9630  177.0040  143.5780 N   0  0  0  0  0  0  0  0  0  0  0  0
  186.6580  177.8460  143.7630 C   0  0  0  0  0  2  0  0  0  0  0  0
  189.3770  177.2700  144.9380 C   0  0  0  0  0  0  0  0  0  0  0  0
  190.6110  177.2830  145.2130 O   0  0  0  0  0  0  0  0  0  0  0  0
  186.2330  177.4500  145.1800 C   0  0  2  0  0  3  0  0  0  0  0  0
  188.3730  177.6460  146.0070 C   0  0  2  0  0  3  0  0  0  0  0  0
  190.5690  176.7970  147.6650 O   0  0  0  0  0  0  0  0  0  0  0  0
  189.2740  179.0030  148.2000 O   0  0  0  0  0  1  0  0  0  0  0  0
  189.0740  177.5930  147.6950 P   0  0  1  0  0  0  0  0  0  0  0  0
  187.3350  177.7330  149.3400 O   0  0  0  0  0  1  0  0  0  0  0  0
  188.0130  176.7800  148.7350 O   0  0  0  0  0  0  0  0  0  0  0  0
  185.4200  178.5190  145.9320 C   0  0  1  0  0  3  0  0  0  0  0  0
  186.2840  179.3730  146.6120 O   0  0  0  0  0  1  0  0  0  0  0  0
  184.4970  179.3400  145.0340 C   0  0  0  0  0  2  0  0  0  0  0  0
  183.2480  178.7250  144.9400 O   0  0  0  0  0  1  0  0  0  0  0  0
  186.2920  175.2340  136.0440 N   0  0  0  0  0  2  0  0  0  0  0  0
  185.5550  174.7920  137.1560 N   0  0  0  0  0  2  0  0  0  0  0  0
  184.3330  174.0450  137.0980 C   0  0  0  0  0  0  0  0  0  0  0  0
  184.2930  172.7460  137.3820 C   0  0  0  0  0  2  0  0  0  0  0  0
  183.1390  174.6900  136.4740 C   0  0  0  0  0  2  0  0  0  0  0  0
  181.8410  174.2620  137.1480 C   0  0  1  0  0  3  0  0  0  0  0  0
  181.4120  176.8750  137.6720 C   0  0  0  0  0  2  0  0  0  0  0  0
  181.3280  175.4500  138.4210 S   0  0  0  0  0  0  0  0  0  0  0  0
  181.0590  178.0710  138.3710 N   0  0  0  0  0  2  0  0  0  0  0  0
  181.1640  177.7820  139.7970 C   0  0  2  0  0  3  0  0  0  0  0  0
  179.8260  178.0370  140.4580 C   0  0  0  0  0  1  0  0  0  0  0  0
  182.2480  178.5970  140.5250 C   0  0  2  0  0  3  0  0  0  0  0  0
  183.5560  179.2570  139.4040 S   0  0  0  0  0  0  0  0  0  0  0  0
  183.5130  177.8680  140.6140 C   0  0  0  0  0  2  0  0  0  0  0  0
  180.7420  174.0070  136.1140 C   0  0  0  0  0  2  0  0  0  0  0  0
  180.5560  172.5310  135.7590 C   0  0  0  0  0  2  0  0  0  0  0  0
  179.5580  171.9590  136.5540 O   0  0  0  0  0  0  0  0  0  0  0  0
  180.1960  171.5120  137.6160 O   0  0  0  0  0  1  0  0  0  0  0  0
  1 17  1  1  0  0  0
  2 10  1  6  0  0  0
  2  4  1  0  0  0  0
  3  1  1  0  0  0  0
  4  1  1  0  0  0  0
  5  3  1  0  0  0  0
  5  2  1  0  0  0  0
  6  3  2  0  0  0  0
  6 42  1  0  0  0  0
  8  7  2  0  0  0  0
  9 12  1  0  0  0  0
  9  8  1  0  0  0  0
 10  8  1  0  0  0  0
 12 11  1  6  0  0  0
 13 12  1  0  0  0  0
 13 14  1  0  0  0  0
 14 16  2  0  0  0  0
 14 15  1  0  0  0  0
 17 18  1  0  0  0  0
 18 20  1  0  0  0  0
 20 21  1  0  0  0  0
 20 19  1  1  0  0  0
 21 22  1  1  0  0  0
 21 23  1  0  0  0  0
 23 24  1  0  0  0  0
 24 27  1  0  0  0  0
 25 27  1  0  0  0  0
 25 28  1  0  0  0  0
 26 32  1  0  0  0  0
 27 29  1  0  0  0  0
 28 31  1  0  0  0  0
 29 30  2  0  0  0  0
 29 32  1  0  0  0  0
 31 38  1  1  0  0  0
 31 26  1  0  0  0  0
 32 35  1  1  0  0  0
 35 33  2  6  0  0  0
 35 34  1  0  0  0  0
 35 37  1  0  0  0  0
 37 36  1  0  0  0  0
 38 39  1  6  0  0  0
 40 38  1  0  0  0  0
 41 40  1  0  0  0  0
 42 43  1  0  0  0  0
 44 43  1  0  0  0  0
 44 45  2  0  0  0  0
 46 44  1  0  0  0  0
 46 47  1  0  0  0  0
 47 56  1  6  0  0  0
 47 49  1  0  0  0  0
 48 50  1  0  0  0  0
 48 49  1  0  0  0  0
 50 51  1  0  0  0  0
 51 52  1  1  0  0  0
 53 51  1  6  0  0  0
 53 55  1  0  0  0  0
 54 53  1  0  0  0  0
 54 55  1  0  0  0  0
 57 56  1  0  0  0  0
 57 58  1  0  0  0  0
 58 59  1  0  0  0  0
M  END
>  <MODEL>
5

>  <REMARK>
 VINA RESULT:      -5.2      3.401      9.503
  Name = 
  27 active torsions:
  status: ('A' for Active; 'I' for Inactive)
    1  A    between atoms: C_1  and  C_3
    2  A    between atoms: C_1  and  C_49
    3  A    between atoms: C_4  and  C_10
    4  A    between atoms: C_4  and  C_55
    5  A    between atoms: C_5  and  O_32
    6  A    between atoms: N_8  and  N_22
    7  A    between atoms: N_8  and  N_36
    8  A    between atoms: C_11  and  C_14
    9  A    between atoms: C_11  and  O_21
   10  A    between atoms: C_13  and  N_50
   11  A    between atoms: C_14  and  C_26
   12  A    between atoms: C_15  and  N_38
   13  A    between atoms: C_16  and  N_22
   14  A    between atoms: C_16  and  C_37
   15  A    between atoms: C_19  and  C_43
   16  A    between atoms: C_19  and  C_53
   17  A    between atoms: C_23  and  C_28
   18  A    between atoms: C_23  and  C_43
   19  A    between atoms: C_26  and  S_29
   20  A    between atoms: C_26  and  C_37
   21  A    between atoms: C_28  and  O_32
   22  A    between atoms: C_31  and  C_33
   23  A    between atoms: C_33  and  N_38
   24  A    between atoms: N_40  and  C_53
   25  A    between atoms: N_42  and  C_49
   26  A    between atoms: C_57  and  P_58
   27  A    between atoms: P_58  and  O_59
                            x       y       z     vdW  Elec       q    Type
                         _______ _______ _______ _____ _____    ______ ____

>  <TORSDO>
F 27

$$$$
=
 OpenBabel11032421043D

 59 61  0  0  1  0  0  0  0  0999 V2000
  186.0210  175.8270  137.0520 C   0  0  2  0  0  3  0  0  0  0  0  0
  183.7770  176.8740  136.2380 C   0  0  1  0  0  3  0  0  0  0  0  0
  185.5410  175.3120  135.7370 C   0  0  0  0  0  0  0  0  0  0  0  0
  184.6020  176.6460  137.8430 S   0  0  0  0  0  0  0  0  0  0  0  0
  184.1920  175.7500  135.3110 C   0  0  0  0  0  2  0  0  0  0  0  0
  186.2370  174.5070  134.9960 N   0  0  0  0  0  0  0  0  0  0  0  0
  182.2380  179.0170  137.3120 O   0  0  0  0  0  0  0  0  0  0  0  0
  181.6170  177.9900  136.9230 C   0  0  0  0  0  0  0  0  0  0  0  0
  180.1920  177.9420  136.9830 N   0  0  0  0  0  2  0  0  0  0  0  0
  182.3350  176.8630  136.4190 N   0  0  0  0  0  2  0  0  0  0  0  0
  179.9980  180.3650  137.2120 C   0  0  0  0  0  1  0  0  0  0  0  0
  179.4090  179.0140  137.5830 C   0  0  2  0  0  3  0  0  0  0  0  0
  179.3080  178.8470  139.0980 C   0  0  0  0  0  2  0  0  0  0  0  0
  180.0400  179.9050  139.8560 C   0  0  0  0  0  0  0  0  0  0  0  0
  181.2050  179.6940  140.2720 O   0  0  0  0  0  1  0  0  0  0  0  0
  179.4220  181.1230  140.1040 O   0  0  0  0  0  0  0  0  0  0  0  0
  187.0520  176.7500  136.8470 O   0  0  0  0  0  0  0  0  0  0  0  0
  187.3080  177.3030  138.1060 C   0  0  0  0  0  2  0  0  0  0  0  0
  189.2570  178.8420  138.1900 C   0  0  0  0  0  1  0  0  0  0  0  0
  188.8120  177.3910  138.3550 C   0  0  1  0  0  3  0  0  0  0  0  0
  189.1640  176.8750  139.7530 C   0  0  1  0  0  3  0  0  0  0  0  0
  190.6590  176.6200  139.8640 C   0  0  0  0  0  1  0  0  0  0  0  0
  188.7720  177.8960  140.8180 C   0  0  0  0  0  2  0  0  0  0  0  0
  187.8420  177.2850  141.8630 C   0  0  0  0  0  2  0  0  0  0  0  0
  189.7290  177.6720  143.4290 C   0  0  0  0  0  2  0  0  0  0  0  0
  188.8950  178.5750  145.9200 O   0  0  0  0  0  0  0  0  0  0  0  0
  188.2830  177.6000  143.2190 N   0  0  0  0  0  0  0  0  0  0  0  0
  190.1510  176.8550  144.6380 C   0  0  0  0  0  2  0  0  0  0  0  0
  187.3150  177.8180  144.2700 C   0  0  0  0  0  0  0  0  0  0  0  0
  186.0900  177.9090  143.9690 O   0  0  0  0  0  0  0  0  0  0  0  0
  190.0170  177.7080  145.9020 C   0  0  2  0  0  3  0  0  0  0  0  0
  187.7240  177.8230  145.7280 C   0  0  2  0  0  3  0  0  0  0  0  0
  185.7900  179.9010  146.2120 O   0  0  0  0  0  0  0  0  0  0  0  0
  185.3010  177.4360  146.9290 O   0  0  0  0  0  1  0  0  0  0  0  0
  186.4130  178.4540  146.8350 P   0  0  1  0  0  0  0  0  0  0  0  0
  187.7000  177.6210  148.6800 O   0  0  0  0  0  1  0  0  0  0  0  0
  187.0460  178.7240  148.3830 O   0  0  0  0  0  0  0  0  0  0  0  0
  190.2760  176.9550  147.2190 C   0  0  1  0  0  3  0  0  0  0  0  0
  189.8550  175.6330  147.0930 O   0  0  0  0  0  1  0  0  0  0  0  0
  191.7340  176.9820  147.6720 C   0  0  0  0  0  2  0  0  0  0  0  0
  192.5030  176.1450  146.8630 O   0  0  0  0  0  1  0  0  0  0  0  0
  187.5140  174.0730  135.3760 N   0  0  0  0  0  0  0  0  0  0  0  0
  188.6880  174.7240  134.9630 N   0  0  0  0  0  0  0  0  0  0  0  0
  189.9990  174.4880  135.4930 C   0  0  0  0  0  0  0  0  0  0  0  0
  190.2040  174.2990  136.7930 C   0  0  0  0  0  2  0  0  0  0  0  0
  191.1730  174.7010  134.5950 C   0  0  0  0  0  2  0  0  0  0  0  0
  192.4930  174.6250  135.3530 C   0  0  1  0  0  3  0  0  0  0  0  0
  193.6620  172.3790  136.2880 C   0  0  0  0  0  2  0  0  0  0  0  0
  193.4430  173.1500  134.8890 S   0  0  0  0  0  0  0  0  0  0  0  0
  194.3720  171.1390  136.3160 N   0  0  0  0  0  2  0  0  0  0  0  0
  195.6210  171.3750  137.0340 C   0  0  2  0  0  3  0  0  0  0  0  0
  195.3830  172.3950  138.1270 C   0  0  0  0  0  1  0  0  0  0  0  0
  196.7780  171.8570  136.1400 C   0  0  2  0  0  3  0  0  0  0  0  0
  198.4480  171.5750  136.8730 S   0  0  0  0  0  0  0  0  0  0  0  0
  197.3990  173.0750  136.6590 C   0  0  0  0  0  2  0  0  0  0  0  0
  193.3010  175.9140  135.1820 C   0  0  0  0  0  2  0  0  0  0  0  0
  194.8000  175.6830  134.9880 C   0  0  0  0  0  2  0  0  0  0  0  0
  195.5230  176.2510  136.0420 O   0  0  0  0  0  0  0  0  0  0  0  0
  194.9400  175.7880  137.1290 O   0  0  0  0  0  1  0  0  0  0  0  0
  1 17  1  6  0  0  0
  1  4  1  0  0  0  0
  2 10  1  1  0  0  0
  2  4  1  0  0  0  0
  3  1  1  0  0  0  0
  5  3  1  0  0  0  0
  5  2  1  0  0  0  0
  6 42  1  0  0  0  0
  6  3  2  0  0  0  0
  8  9  1  0  0  0  0
  8  7  2  0  0  0  0
  9 12  1  0  0  0  0
 10  8  1  0  0  0  0
 12 11  1  1  0  0  0
 12 13  1  0  0  0  0
 13 14  1  0  0  0  0
 14 16  2  0  0  0  0
 14 15  1  0  0  0  0
 17 18  1  0  0  0  0
 18 20  1  0  0  0  0
 20 19  1  1  0  0  0
 20 21  1  0  0  0  0
 21 22  1  6  0  0  0
 21 23  1  0  0  0  0
 23 24  1  0  0  0  0
 24 27  1  0  0  0  0
 25 28  1  0  0  0  0
 27 25  1  0  0  0  0
 27 29  1  0  0  0  0
 28 31  1  0  0  0  0
 29 32  1  0  0  0  0
 30 29  2  0  0  0  0
 31 26  1  0  0  0  0
 31 38  1  1  0  0  0
 32 26  1  0  0  0  0
 32 35  1  1  0  0  0
 35 33  2  6  0  0  0
 35 34  1  0  0  0  0
 35 37  1  0  0  0  0
 37 36  1  0  0  0  0
 38 39  1  6  0  0  0
 38 40  1  0  0  0  0
 41 40  1  0  0  0  0
 43 42  2  0  0  0  0
 43 44  1  0  0  0  0
 44 45  2  0  0  0  0
 46 44  1  0  0  0  0
 47 46  1  6  0  0  0
 48 50  1  0  0  0  0
 49 47  1  0  0  0  0
 49 48  1  0  0  0  0
 50 51  1  0  0  0  0
 51 52  1  1  0  0  0
 53 55  1  0  0  0  0
 53 54  1  0  0  0  0
 53 51  1  1  0  0  0
 55 54  1  0  0  0  0
 56 47  1  0  0  0  0
 57 56  1  0  0  0  0
 57 58  1  0  0  0  0
 58 59  1  0  0  0  0
M  END
>  <MODEL>
6

>  <REMARK>
 VINA RESULT:      -5.0      3.380     11.503
  Name = 
  27 active torsions:
  status: ('A' for Active; 'I' for Inactive)
    1  A    between atoms: C_1  and  C_3
    2  A    between atoms: C_1  and  C_49
    3  A    between atoms: C_4  and  C_10
    4  A    between atoms: C_4  and  C_55
    5  A    between atoms: C_5  and  O_32
    6  A    between atoms: N_8  and  N_22
    7  A    between atoms: N_8  and  N_36
    8  A    between atoms: C_11  and  C_14
    9  A    between atoms: C_11  and  O_21
   10  A    between atoms: C_13  and  N_50
   11  A    between atoms: C_14  and  C_26
   12  A    between atoms: C_15  and  N_38
   13  A    between atoms: C_16  and  N_22
   14  A    between atoms: C_16  and  C_37
   15  A    between atoms: C_19  and  C_43
   16  A    between atoms: C_19  and  C_53
   17  A    between atoms: C_23  and  C_28
   18  A    between atoms: C_23  and  C_43
   19  A    between atoms: C_26  and  S_29
   20  A    between atoms: C_26  and  C_37
   21  A    between atoms: C_28  and  O_32
   22  A    between atoms: C_31  and  C_33
   23  A    between atoms: C_33  and  N_38
   24  A    between atoms: N_40  and  C_53
   25  A    between atoms: N_42  and  C_49
   26  A    between atoms: C_57  and  P_58
   27  A    between atoms: P_58  and  O_59
                            x       y       z     vdW  Elec       q    Type
                         _______ _______ _______ _____ _____    ______ ____

>  <TORSDO>
F 27

$$$$
=
 OpenBabel11032421043D

 59 61  0  0  1  0  0  0  0  0999 V2000
  187.7780  178.1840  139.3260 C   0  0  2  0  0  3  0  0  0  0  0  0
  185.2770  178.8290  138.9710 C   0  0  1  0  0  3  0  0  0  0  0  0
  186.9990  178.3520  140.5870 C   0  0  0  0  0  0  0  0  0  0  0  0
  186.8100  178.9760  138.0050 S   0  0  0  0  0  0  0  0  0  0  0  0
  185.6220  178.8780  140.4460 C   0  0  0  0  0  2  0  0  0  0  0  0
  187.4830  178.0790  141.7590 N   0  0  0  0  0  0  0  0  0  0  0  0
  182.4460  178.7750  139.2840 O   0  0  0  0  0  0  0  0  0  0  0  0
  182.9670  179.8420  138.8580 C   0  0  0  0  0  0  0  0  0  0  0  0
  182.1540  180.9850  138.5930 N   0  0  0  0  0  2  0  0  0  0  0  0
  184.3750  179.9170  138.6350 N   0  0  0  0  0  2  0  0  0  0  0  0
  180.2910  180.3270  140.0270 C   0  0  0  0  0  1  0  0  0  0  0  0
  180.7020  180.9400  138.6980 C   0  0  2  0  0  3  0  0  0  0  0  0
  180.0820  180.1880  137.5220 C   0  0  0  0  0  2  0  0  0  0  0  0
  179.8990  181.0420  136.3100 C   0  0  0  0  0  0  0  0  0  0  0  0
  180.0450  182.2860  136.3850 O   0  0  0  0  0  1  0  0  0  0  0  0
  179.5630  180.4520  135.1000 O   0  0  0  0  0  0  0  0  0  0  0  0
  187.9380  176.8220  139.0500 O   0  0  0  0  0  0  0  0  0  0  0  0
  189.3180  176.6010  139.0700 C   0  0  0  0  0  2  0  0  0  0  0  0
  191.4460  176.9510  137.8350 C   0  0  0  0  0  1  0  0  0  0  0  0
  189.9260  176.8960  137.7010 C   0  0  1  0  0  3  0  0  0  0  0  0
  189.5130  175.8320  136.6800 C   0  0  1  0  0  3  0  0  0  0  0  0
  189.7750  174.4380  137.2300 C   0  0  0  0  0  1  0  0  0  0  0  0
  188.0260  175.9470  136.3550 C   0  0  0  0  0  2  0  0  0  0  0  0
  187.4090  174.5800  136.0660 C   0  0  0  0  0  2  0  0  0  0  0  0
  185.6520  175.8480  134.8550 C   0  0  0  0  0  2  0  0  0  0  0  0
  183.2140  174.5180  134.7910 O   0  0  0  0  0  0  0  0  0  0  0  0
  186.0040  174.6980  135.6880 N   0  0  0  0  0  0  0  0  0  0  0  0
  184.4480  176.5850  135.4150 C   0  0  0  0  0  2  0  0  0  0  0  0
  185.0420  173.7150  136.1340 C   0  0  0  0  0  0  0  0  0  0  0  0
  185.4560  172.6640  136.7020 O   0  0  0  0  0  0  0  0  0  0  0  0
  183.1640  175.9320  134.8950 C   0  0  2  0  0  3  0  0  0  0  0  0
  183.5530  173.9730  136.0410 C   0  0  2  0  0  3  0  0  0  0  0  0
  182.2230  171.7070  134.8600 O   0  0  0  0  0  0  0  0  0  0  0  0
  183.3150  171.5240  137.2280 O   0  0  0  0  0  1  0  0  0  0  0  0
  182.5500  172.4730  136.3360 P   0  0  1  0  0  0  0  0  0  0  0  0
  181.3650  173.9990  137.7580 O   0  0  0  0  0  1  0  0  0  0  0  0
  181.0950  172.8920  137.0970 O   0  0  0  0  0  0  0  0  0  0  0  0
  181.8650  176.4920  135.5020 C   0  0  1  0  0  3  0  0  0  0  0  0
  182.0320  177.8410  135.8040 O   0  0  0  0  0  1  0  0  0  0  0  0
  180.6390  176.3210  134.6070 C   0  0  0  0  0  2  0  0  0  0  0  0
  179.9150  175.1940  134.9960 O   0  0  0  0  0  1  0  0  0  0  0  0
  188.7840  177.5830  141.9220 N   0  0  0  0  0  2  0  0  0  0  0  0
  189.6020  177.9510  143.0030 N   0  0  0  0  0  2  0  0  0  0  0  0
  190.2060  177.0430  143.9340 C   0  0  0  0  0  0  0  0  0  0  0  0
  191.2660  176.3090  143.6080 C   0  0  0  0  0  2  0  0  0  0  0  0
  189.4780  176.7460  145.2040 C   0  0  0  0  0  2  0  0  0  0  0  0
  189.8630  177.7090  146.3210 C   0  0  1  0  0  3  0  0  0  0  0  0
  187.1670  177.8490  146.3490 C   0  0  0  0  0  2  0  0  0  0  0  0
  188.4390  178.6880  146.8750 S   0  0  0  0  0  0  0  0  0  0  0  0
  185.8430  178.3160  146.6180 N   0  0  0  0  0  2  0  0  0  0  0  0
  185.0080  177.9120  145.4910 C   0  0  2  0  0  3  0  0  0  0  0  0
  185.8700  177.7820  144.2530 C   0  0  0  0  0  1  0  0  0  0  0  0
  183.8450  178.8760  145.1940 C   0  0  2  0  0  3  0  0  0  0  0  0
  183.3480  178.9140  143.4170 S   0  0  0  0  0  0  0  0  0  0  0  0
  184.2950  180.0760  144.4890 C   0  0  0  0  0  2  0  0  0  0  0  0
  190.5440  176.9690  147.4750 C   0  0  0  0  0  2  0  0  0  0  0  0
  191.5270  175.8880  147.0230 C   0  0  0  0  0  2  0  0  0  0  0  0
  192.7880  176.1080  147.5870 O   0  0  0  0  0  0  0  0  0  0  0  0
  192.9000  175.1820  148.5170 O   0  0  0  0  0  1  0  0  0  0  0  0
  1 17  1  6  0  0  0
  1  3  1  0  0  0  0
  2 10  1  6  0  0  0
  2  5  1  0  0  0  0
  3  6  2  0  0  0  0
  4  2  1  0  0  0  0
  4  1  1  0  0  0  0
  5  3  1  0  0  0  0
  6 42  1  0  0  0  0
  8  7  2  0  0  0  0
  9 12  1  0  0  0  0
  9  8  1  0  0  0  0
 10  8  1  0  0  0  0
 12 11  1  1  0  0  0
 13 12  1  0  0  0  0
 14 15  1  0  0  0  0
 14 13  1  0  0  0  0
 16 14  2  0  0  0  0
 17 18  1  0  0  0  0
 20 19  1  1  0  0  0
 20 18  1  0  0  0  0
 21 22  1  1  0  0  0
 21 20  1  0  0  0  0
 23 21  1  0  0  0  0
 24 23  1  0  0  0  0
 25 28  1  0  0  0  0
 25 27  1  0  0  0  0
 26 31  1  0  0  0  0
 26 32  1  0  0  0  0
 27 24  1  0  0  0  0
 27 29  1  0  0  0  0
 29 30  2  0  0  0  0
 31 28  1  0  0  0  0
 31 38  1  1  0  0  0
 32 29  1  0  0  0  0
 32 35  1  6  0  0  0
 35 33  2  6  0  0  0
 35 37  1  0  0  0  0
 35 34  1  0  0  0  0
 37 36  1  0  0  0  0
 38 39  1  6  0  0  0
 40 41  1  0  0  0  0
 40 38  1  0  0  0  0
 42 43  1  0  0  0  0
 43 44  1  0  0  0  0
 44 46  1  0  0  0  0
 45 44  2  0  0  0  0
 47 46  1  6  0  0  0
 47 49  1  0  0  0  0
 47 56  1  0  0  0  0
 48 50  1  0  0  0  0
 48 49  1  0  0  0  0
 51 52  1  6  0  0  0
 51 50  1  0  0  0  0
 53 51  1  6  0  0  0
 54 55  1  0  0  0  0
 54 53  1  0  0  0  0
 55 53  1  0  0  0  0
 57 56  1  0  0  0  0
 57 58  1  0  0  0  0
 58 59  1  0  0  0  0
M  END
>  <MODEL>
7

>  <REMARK>
 VINA RESULT:      -4.8      4.524     10.237
  Name = 
  27 active torsions:
  status: ('A' for Active; 'I' for Inactive)
    1  A    between atoms: C_1  and  C_3
    2  A    between atoms: C_1  and  C_49
    3  A    between atoms: C_4  and  C_10
    4  A    between atoms: C_4  and  C_55
    5  A    between atoms: C_5  and  O_32
    6  A    between atoms: N_8  and  N_22
    7  A    between atoms: N_8  and  N_36
    8  A    between atoms: C_11  and  C_14
    9  A    between atoms: C_11  and  O_21
   10  A    between atoms: C_13  and  N_50
   11  A    between atoms: C_14  and  C_26
   12  A    between atoms: C_15  and  N_38
   13  A    between atoms: C_16  and  N_22
   14  A    between atoms: C_16  and  C_37
   15  A    between atoms: C_19  and  C_43
   16  A    between atoms: C_19  and  C_53
   17  A    between atoms: C_23  and  C_28
   18  A    between atoms: C_23  and  C_43
   19  A    between atoms: C_26  and  S_29
   20  A    between atoms: C_26  and  C_37
   21  A    between atoms: C_28  and  O_32
   22  A    between atoms: C_31  and  C_33
   23  A    between atoms: C_33  and  N_38
   24  A    between atoms: N_40  and  C_53
   25  A    between atoms: N_42  and  C_49
   26  A    between atoms: C_57  and  P_58
   27  A    between atoms: P_58  and  O_59
                            x       y       z     vdW  Elec       q    Type
                         _______ _______ _______ _____ _____    ______ ____

>  <TORSDO>
F 27

$$$$
=
 OpenBabel11032421043D

 59 61  0  0  1  0  0  0  0  0999 V2000
  189.0550  176.1260  137.1820 C   0  0  2  0  0  3  0  0  0  0  0  0
  189.0720  174.1930  135.4320 C   0  0  1  0  0  3  0  0  0  0  0  0
  190.0460  175.0470  137.4630 C   0  0  0  0  0  0  0  0  0  0  0  0
  187.8740  175.4480  135.9760 S   0  0  0  0  0  0  0  0  0  0  0  0
  189.9810  173.8500  136.5950 C   0  0  0  0  0  2  0  0  0  0  0  0
  190.9160  175.1190  138.4220 N   0  0  0  0  0  0  0  0  0  0  0  0
  186.5800  173.2670  136.4530 O   0  0  0  0  0  0  0  0  0  0  0  0
  187.0990  172.6180  135.5050 C   0  0  0  0  0  0  0  0  0  0  0  0
  186.4250  171.4920  134.9460 N   0  0  0  0  0  2  0  0  0  0  0  0
  188.3710  173.0030  134.9810 N   0  0  0  0  0  2  0  0  0  0  0  0
  184.8430  169.6330  134.8940 C   0  0  0  0  0  1  0  0  0  0  0  0
  185.1790  170.9840  135.5040 C   0  0  2  0  0  3  0  0  0  0  0  0
  184.0370  171.9810  135.3150 C   0  0  0  0  0  2  0  0  0  0  0  0
  182.7530  171.5270  135.9270 C   0  0  0  0  0  0  0  0  0  0  0  0
  182.6180  171.5110  137.1750 O   0  0  0  0  0  1  0  0  0  0  0  0
  181.7100  171.1170  135.1090 O   0  0  0  0  0  0  0  0  0  0  0  0
  189.7100  177.2350  136.6370 O   0  0  0  0  0  0  0  0  0  0  0  0
  189.2150  178.3380  137.3400 C   0  0  0  0  0  2  0  0  0  0  0  0
  187.8590  178.4150  139.4210 C   0  0  0  0  0  1  0  0  0  0  0  0
  187.8520  178.0170  137.9480 C   0  0  1  0  0  3  0  0  0  0  0  0
  186.7350  178.7470  137.1970 C   0  0  1  0  0  3  0  0  0  0  0  0
  187.1600  179.0400  135.7660 C   0  0  0  0  0  1  0  0  0  0  0  0
  185.4680  177.8960  137.1560 C   0  0  0  0  0  2  0  0  0  0  0  0
  185.2880  177.0990  138.4450 C   0  0  0  0  0  2  0  0  0  0  0  0
  184.3160  178.8000  139.9690 C   0  0  0  0  0  2  0  0  0  0  0  0
  181.5860  178.4670  140.3550 O   0  0  0  0  0  0  0  0  0  0  0  0
  184.1320  177.5670  139.2050 N   0  0  0  0  0  0  0  0  0  0  0  0
  183.8350  178.6380  141.4000 C   0  0  0  0  0  2  0  0  0  0  0  0
  182.8920  176.8230  139.1810 C   0  0  0  0  0  0  0  0  0  0  0  0
  182.7640  175.8680  138.3620 O   0  0  0  0  0  0  0  0  0  0  0  0
  182.3330  178.9270  141.4690 C   0  0  2  0  0  3  0  0  0  0  0  0
  181.7960  177.0880  140.1920 C   0  0  2  0  0  3  0  0  0  0  0  0
  180.4950  174.6670  139.3300 O   0  0  0  0  0  0  0  0  0  0  0  0
  179.2830  176.3270  140.9450 O   0  0  0  0  0  1  0  0  0  0  0  0
  180.2140  176.2830  139.7560 P   0  0  1  0  0  0  0  0  0  0  0  0
  179.3280  178.3340  138.8840 O   0  0  0  0  0  1  0  0  0  0  0  0
  179.4900  177.0980  138.4590 O   0  0  0  0  0  0  0  0  0  0  0  0
  181.6860  178.6580  142.8400 C   0  0  1  0  0  3  0  0  0  0  0  0
  182.4490  179.2510  143.8420 O   0  0  0  0  0  1  0  0  0  0  0  0
  180.2410  179.1400  142.9490 C   0  0  0  0  0  2  0  0  0  0  0  0
  180.1930  180.5320  142.8660 O   0  0  0  0  0  1  0  0  0  0  0  0
  190.9970  176.2380  139.2620 N   0  0  0  0  0  2  0  0  0  0  0  0
  190.1890  176.3880  140.4020 N   0  0  0  0  0  2  0  0  0  0  0  0
  190.6400  176.2810  141.7580 C   0  0  0  0  0  0  0  0  0  0  0  0
  190.0700  175.4430  142.6200 C   0  0  0  0  0  2  0  0  0  0  0  0
  191.6010  177.3040  142.2670 C   0  0  0  0  0  2  0  0  0  0  0  0
  190.8940  178.4360  143.0030 C   0  0  1  0  0  3  0  0  0  0  0  0
  188.4980  178.2390  144.2310 C   0  0  0  0  0  2  0  0  0  0  0  0
  189.0990  178.3820  142.7410 S   0  0  0  0  0  0  0  0  0  0  0  0
  187.0840  178.1790  144.4270 N   0  0  0  0  0  2  0  0  0  0  0  0
  186.8580  177.6660  145.7750 C   0  0  2  0  0  3  0  0  0  0  0  0
  185.3990  177.8420  146.1380 C   0  0  0  0  0  1  0  0  0  0  0  0
  187.7290  178.3340  146.8550 C   0  0  2  0  0  3  0  0  0  0  0  0
  188.4660  177.1400  148.0540 S   0  0  0  0  0  0  0  0  0  0  0  0
  187.0700  178.3390  148.1610 C   0  0  0  0  0  2  0  0  0  0  0  0
  191.2650  178.4430  144.4880 C   0  0  0  0  0  2  0  0  0  0  0  0
  191.7760  177.0970  145.0040 C   0  0  0  0  0  2  0  0  0  0  0  0
  190.9210  176.5960  145.9920 O   0  0  0  0  0  0  0  0  0  0  0  0
  191.7280  176.1920  146.9530 O   0  0  0  0  0  1  0  0  0  0  0  0
  1 17  1  6  0  0  0
  1  3  1  0  0  0  0
  2 10  1  1  0  0  0
  2  4  1  0  0  0  0
  2  5  1  0  0  0  0
  3  6  2  0  0  0  0
  4  1  1  0  0  0  0
  5  3  1  0  0  0  0
  6 42  1  0  0  0  0
  8  7  2  0  0  0  0
  9 12  1  0  0  0  0
  9  8  1  0  0  0  0
 10  8  1  0  0  0  0
 12 11  1  6  0  0  0
 13 12  1  0  0  0  0
 13 14  1  0  0  0  0
 14 15  1  0  0  0  0
 16 14  2  0  0  0  0
 17 18  1  0  0  0  0
 18 20  1  0  0  0  0
 20 19  1  1  0  0  0
 21 22  1  6  0  0  0
 21 20  1  0  0  0  0
 23 21  1  0  0  0  0
 23 24  1  0  0  0  0
 24 27  1  0  0  0  0
 25 28  1  0  0  0  0
 26 31  1  0  0  0  0
 27 25  1  0  0  0  0
 28 31  1  0  0  0  0
 29 27  1  0  0  0  0
 29 32  1  0  0  0  0
 30 29  2  0  0  0  0
 31 38  1  1  0  0  0
 32 35  1  6  0  0  0
 32 26  1  0  0  0  0
 35 33  2  6  0  0  0
 35 34  1  0  0  0  0
 37 36  1  0  0  0  0
 37 35  1  0  0  0  0
 38 40  1  0  0  0  0
 38 39  1  1  0  0  0
 41 40  1  0  0  0  0
 42 43  1  0  0  0  0
 43 44  1  0  0  0  0
 44 46  1  0  0  0  0
 44 45  2  0  0  0  0
 47 46  1  6  0  0  0
 47 56  1  0  0  0  0
 48 50  1  0  0  0  0
 49 47  1  0  0  0  0
 49 48  1  0  0  0  0
 50 51  1  0  0  0  0
 51 52  1  1  0  0  0
 53 51  1  6  0  0  0
 53 54  1  0  0  0  0
 53 55  1  0  0  0  0
 54 55  1  0  0  0  0
 56 57  1  0  0  0  0
 57 58  1  0  0  0  0
 58 59  1  0  0  0  0
M  END
>  <MODEL>
8

>  <REMARK>
 VINA RESULT:      -4.8      4.073     11.379
  Name = 
  27 active torsions:
  status: ('A' for Active; 'I' for Inactive)
    1  A    between atoms: C_1  and  C_3
    2  A    between atoms: C_1  and  C_49
    3  A    between atoms: C_4  and  C_10
    4  A    between atoms: C_4  and  C_55
    5  A    between atoms: C_5  and  O_32
    6  A    between atoms: N_8  and  N_22
    7  A    between atoms: N_8  and  N_36
    8  A    between atoms: C_11  and  C_14
    9  A    between atoms: C_11  and  O_21
   10  A    between atoms: C_13  and  N_50
   11  A    between atoms: C_14  and  C_26
   12  A    between atoms: C_15  and  N_38
   13  A    between atoms: C_16  and  N_22
   14  A    between atoms: C_16  and  C_37
   15  A    between atoms: C_19  and  C_43
   16  A    between atoms: C_19  and  C_53
   17  A    between atoms: C_23  and  C_28
   18  A    between atoms: C_23  and  C_43
   19  A    between atoms: C_26  and  S_29
   20  A    between atoms: C_26  and  C_37
   21  A    between atoms: C_28  and  O_32
   22  A    between atoms: C_31  and  C_33
   23  A    between atoms: C_33  and  N_38
   24  A    between atoms: N_40  and  C_53
   25  A    between atoms: N_42  and  C_49
   26  A    between atoms: C_57  and  P_58
   27  A    between atoms: P_58  and  O_59
                            x       y       z     vdW  Elec       q    Type
                         _______ _______ _______ _____ _____    ______ ____

>  <TORSDO>
F 27

$$$$
=
 OpenBabel11032421043D

 59 61  0  0  1  0  0  0  0  0999 V2000
  186.1440  175.8820  137.0070 C   0  0  2  0  0  3  0  0  0  0  0  0
  183.9700  177.0690  136.1960 C   0  0  1  0  0  3  0  0  0  0  0  0
  185.5890  175.3470  135.7310 C   0  0  0  0  0  0  0  0  0  0  0  0
  184.8170  176.8500  137.7890 S   0  0  0  0  0  0  0  0  0  0  0  0
  184.2690  175.8730  135.3150 C   0  0  0  0  0  2  0  0  0  0  0  0
  186.1980  174.4550  135.0140 N   0  0  0  0  0  0  0  0  0  0  0  0
  182.2790  174.9880  137.1550 O   0  0  0  0  0  0  0  0  0  0  0  0
  181.7530  176.1130  136.9370 C   0  0  0  0  0  0  0  0  0  0  0  0
  180.3690  176.3290  137.2110 N   0  0  0  0  0  2  0  0  0  0  0  0
  182.5370  177.1840  136.4100 N   0  0  0  0  0  2  0  0  0  0  0  0
  180.2040  174.3770  138.6670 C   0  0  0  0  0  1  0  0  0  0  0  0
  179.4920  175.2510  137.6470 C   0  0  2  0  0  3  0  0  0  0  0  0
  178.9890  174.4290  136.4630 C   0  0  0  0  0  2  0  0  0  0  0  0
  179.5680  173.0530  136.4140 C   0  0  0  0  0  0  0  0  0  0  0  0
  180.5270  172.7970  135.6450 O   0  0  0  0  0  0  0  0  0  0  0  0
  179.0360  172.0560  137.2190 O   0  0  0  0  0  1  0  0  0  0  0  0
  187.2400  176.7080  136.7340 O   0  0  0  0  0  0  0  0  0  0  0  0
  187.5020  177.3820  137.9310 C   0  0  0  0  0  2  0  0  0  0  0  0
  189.6170  178.6810  138.0280 C   0  0  0  0  0  1  0  0  0  0  0  0
  188.9890  177.3120  138.2690 C   0  0  1  0  0  3  0  0  0  0  0  0
  189.1970  176.8710  139.7210 C   0  0  1  0  0  3  0  0  0  0  0  0
  190.6570  176.5220  139.9660 C   0  0  0  0  0  1  0  0  0  0  0  0
  188.8040  177.9890  140.6850 C   0  0  0  0  0  2  0  0  0  0  0  0
  187.7520  177.5180  141.6860 C   0  0  0  0  0  2  0  0  0  0  0  0
  189.6210  177.8180  143.2920 C   0  0  0  0  0  2  0  0  0  0  0  0
  188.7600  178.6010  145.8140 O   0  0  0  0  0  0  0  0  0  0  0  0
  188.1780  177.7630  143.0610 N   0  0  0  0  0  0  0  0  0  0  0  0
  190.0240  176.9400  144.4630 C   0  0  0  0  0  2  0  0  0  0  0  0
  187.1980  177.9350  144.1100 C   0  0  0  0  0  0  0  0  0  0  0  0
  185.9770  178.0470  143.7990 O   0  0  0  0  0  0  0  0  0  0  0  0
  189.8790  177.7300  145.7670 C   0  0  2  0  0  3  0  0  0  0  0  0
  187.5880  177.8650  145.5710 C   0  0  2  0  0  3  0  0  0  0  0  0
  185.6360  179.9110  146.1160 O   0  0  0  0  0  0  0  0  0  0  0  0
  185.1620  177.4180  146.7440 O   0  0  0  0  0  1  0  0  0  0  0  0
  186.2670  178.4480  146.6920 P   0  0  1  0  0  0  0  0  0  0  0  0
  187.7260  177.6670  148.4280 O   0  0  0  0  0  1  0  0  0  0  0  0
  186.8890  178.6680  148.2520 O   0  0  0  0  0  0  0  0  0  0  0  0
  190.1180  176.9110  147.0480 C   0  0  1  0  0  3  0  0  0  0  0  0
  189.7270  175.5910  146.8400 O   0  0  0  0  0  1  0  0  0  0  0  0
  191.5630  176.9400  147.5410 C   0  0  0  0  0  2  0  0  0  0  0  0
  192.3750  176.1940  146.6880 O   0  0  0  0  0  1  0  0  0  0  0  0
  187.4460  173.9360  135.3860 N   0  0  0  0  0  0  0  0  0  0  0  0
  188.6570  174.5640  135.0480 N   0  0  0  0  0  0  0  0  0  0  0  0
  189.9500  174.1980  135.5470 C   0  0  0  0  0  0  0  0  0  0  0  0
  190.1180  173.7450  136.7870 C   0  0  0  0  0  2  0  0  0  0  0  0
  191.1490  174.5650  134.7380 C   0  0  0  0  0  2  0  0  0  0  0  0
  192.4430  174.4000  135.5270 C   0  0  1  0  0  3  0  0  0  0  0  0
  193.7440  172.0990  136.0730 C   0  0  0  0  0  2  0  0  0  0  0  0
  193.4870  173.0910  134.8280 S   0  0  0  0  0  0  0  0  0  0  0  0
  194.5310  170.9190  135.8950 N   0  0  0  0  0  2  0  0  0  0  0  0
  195.7800  171.1220  136.6230 C   0  0  2  0  0  3  0  0  0  0  0  0
  195.5080  171.9530  137.8590 C   0  0  0  0  0  1  0  0  0  0  0  0
  196.8860  171.7990  135.7950 C   0  0  2  0  0  3  0  0  0  0  0  0
  198.5760  171.5970  136.5090 S   0  0  0  0  0  0  0  0  0  0  0  0
  197.3930  173.0080  136.4450 C   0  0  0  0  0  2  0  0  0  0  0  0
  193.1860  175.7330  135.6500 C   0  0  0  0  0  2  0  0  0  0  0  0
  194.7060  175.6070  135.5340 C   0  0  0  0  0  2  0  0  0  0  0  0
  195.3210  176.0110  136.7230 O   0  0  0  0  0  0  0  0  0  0  0  0
  194.6840  175.3480  137.6670 O   0  0  0  0  0  1  0  0  0  0  0  0
  1 17  1  6  0  0  0
  1  4  1  0  0  0  0
  2 10  1  1  0  0  0
  2  4  1  0  0  0  0
  3  1  1  0  0  0  0
  5  3  1  0  0  0  0
  5  2  1  0  0  0  0
  6 42  1  0  0  0  0
  6  3  2  0  0  0  0
  8  7  2  0  0  0  0
  8  9  1  0  0  0  0
  9 12  1  0  0  0  0
 10  8  1  0  0  0  0
 12 11  1  1  0  0  0
 13 12  1  0  0  0  0
 14 13  1  0  0  0  0
 14 16  1  0  0  0  0
 15 14  2  0  0  0  0
 17 18  1  0  0  0  0
 18 20  1  0  0  0  0
 20 19  1  1  0  0  0
 20 21  1  0  0  0  0
 21 22  1  6  0  0  0
 21 23  1  0  0  0  0
 23 24  1  0  0  0  0
 24 27  1  0  0  0  0
 25 28  1  0  0  0  0
 27 25  1  0  0  0  0
 27 29  1  0  0  0  0
 28 31  1  0  0  0  0
 29 32  1  0  0  0  0
 30 29  2  0  0  0  0
 31 26  1  0  0  0  0
 31 38  1  1  0  0  0
 32 26  1  0  0  0  0
 32 35  1  1  0  0  0
 35 33  2  6  0  0  0
 35 34  1  0  0  0  0
 35 37  1  0  0  0  0
 37 36  1  0  0  0  0
 38 39  1  6  0  0  0
 38 40  1  0  0  0  0
 41 40  1  0  0  0  0
 43 42  2  0  0  0  0
 43 44  1  0  0  0  0
 44 45  2  0  0  0  0
 46 44  1  0  0  0  0
 47 46  1  6  0  0  0
 47 56  1  0  0  0  0
 49 47  1  0  0  0  0
 49 48  1  0  0  0  0
 50 48  1  0  0  0  0
 50 51  1  0  0  0  0
 51 52  1  1  0  0  0
 53 55  1  0  0  0  0
 53 54  1  0  0  0  0
 53 51  1  1  0  0  0
 55 54  1  0  0  0  0
 57 56  1  0  0  0  0
 57 58  1  0  0  0  0
 58 59  1  0  0  0  0
M  END
>  <MODEL>
9

>  <REMARK>
 VINA RESULT:      -4.3      3.768     11.716
  Name = 
  27 active torsions:
  status: ('A' for Active; 'I' for Inactive)
    1  A    between atoms: C_1  and  C_3
    2  A    between atoms: C_1  and  C_49
    3  A    between atoms: C_4  and  C_10
    4  A    between atoms: C_4  and  C_55
    5  A    between atoms: C_5  and  O_32
    6  A    between atoms: N_8  and  N_22
    7  A    between atoms: N_8  and  N_36
    8  A    between atoms: C_11  and  C_14
    9  A    between atoms: C_11  and  O_21
   10  A    between atoms: C_13  and  N_50
   11  A    between atoms: C_14  and  C_26
   12  A    between atoms: C_15  and  N_38
   13  A    between atoms: C_16  and  N_22
   14  A    between atoms: C_16  and  C_37
   15  A    between atoms: C_19  and  C_43
   16  A    between atoms: C_19  and  C_53
   17  A    between atoms: C_23  and  C_28
   18  A    between atoms: C_23  and  C_43
   19  A    between atoms: C_26  and  S_29
   20  A    between atoms: C_26  and  C_37
   21  A    between atoms: C_28  and  O_32
   22  A    between atoms: C_31  and  C_33
   23  A    between atoms: C_33  and  N_38
   24  A    between atoms: N_40  and  C_53
   25  A    between atoms: N_42  and  C_49
   26  A    between atoms: C_57  and  P_58
   27  A    between atoms: P_58  and  O_59
                            x       y       z     vdW  Elec       q    Type
                         _______ _______ _______ _____ _____    ______ ____

>  <TORSDO>
F 27

$$$$
