=
 OpenBabel11042412443D

 57 64  0  0  1  0  0  0  0  0999 V2000
  182.1410  178.3610  136.0620 C   0  0  2  0  0  3  0  0  0  0  0  0
  181.3880  178.9930  137.2460 C   0  0  0  0  0  0  0  0  0  0  0  0
  181.4050  178.3360  134.8490 O   0  0  0  0  0  0  0  0  0  0  0  0
  179.6080  179.6410  135.6680 C   0  0  0  0  0  2  0  0  0  0  0  0
  180.1690  179.5410  137.0550 C   0  0  0  0  0  0  0  0  0  0  0  0
  180.7460  179.5590  134.6670 C   0  0  0  0  0  2  0  0  0  0  0  0
  184.9020  177.5910  135.9930 O   0  0  0  0  0  0  0  0  0  0  0  0
  184.0950  173.8980  136.2500 C   0  0  1  0  0  0  0  0  0  0  0  0
  185.1340  174.2520  137.0860 C   0  0  2  0  0  3  0  0  0  0  0  0
  184.0680  176.6540  136.1180 C   0  0  0  0  0  0  0  0  0  0  0  0
  184.3440  173.2890  135.0300 F   0  0  0  0  0  0  0  0  0  0  0  0
  182.5960  176.9130  136.3310 C   0  0  2  0  0  3  0  0  0  0  0  0
  182.6880  173.8270  136.8280 C   0  0  0  0  0  2  0  0  0  0  0  0
  181.7060  174.5460  135.9350 C   0  0  0  0  0  3  0  0  0  0  0  0
  184.5230  175.3200  136.2330 N   0  0  0  0  0  0  0  0  0  0  0  0
  181.6770  175.8760  135.7170 C   0  0  0  0  0  3  0  0  0  0  0  0
  186.5100  173.8980  136.5470 C   0  0  0  0  0  2  0  0  0  0  0  0
  187.3400  175.0930  136.5590 N   0  0  0  0  0  2  0  0  0  0  0  0
  189.2180  174.0780  137.5160 O   0  0  0  0  0  0  0  0  0  0  0  0
  188.5810  175.1410  137.2680 C   0  0  0  0  0  0  0  0  0  0  0  0
  190.5270  177.4780  139.5720 C   0  0  1  0  0  3  0  0  0  0  0  0
  189.9960  176.1740  138.9860 C   0  0  0  0  0  2  0  0  0  0  0  0
  189.1410  179.4190  137.7700 O   0  0  0  0  0  1  0  0  0  0  0  0
  187.9440  177.3720  138.1690 C   0  0  0  0  0  2  0  0  0  0  0  0
  188.4660  178.6870  138.7510 C   0  0  1  0  0  3  0  0  0  0  0  0
  189.0970  176.4410  137.7830 C   0  0  2  0  0  3  0  0  0  0  0  0
  189.3850  178.4290  139.9470 C   0  0  0  0  0  2  0  0  0  0  0  0
  191.4740  177.2100  140.7470 C   0  0  0  0  0  2  0  0  0  0  0  0
  188.8980  176.5470  143.5530 C   0  0  0  0  0  2  0  0  0  0  0  0
  190.8140  177.2310  142.0930 C   0  0  0  0  0  0  0  0  0  0  0  0
  189.9670  176.0720  142.5630 C   0  0  0  0  0  2  0  0  0  0  0  0
  191.1180  178.2140  142.9460 C   0  0  0  0  0  3  0  0  0  0  0  0
  190.5140  178.2590  144.2920 C   0  0  0  0  0  3  0  0  0  0  0  0
  189.4960  177.4520  144.5980 C   0  0  0  0  0  3  0  0  0  0  0  0
  179.7590  181.4720  138.6850 C   0  0  0  0  0  0  0  0  0  0  0  0
  179.6300  181.6500  139.9260 O   0  0  0  0  0  0  0  0  0  0  0  0
  179.4870  180.1690  138.1520 N   0  0  0  0  0  2  0  0  0  0  0  0
  179.1490  183.2720  137.0600 C   0  0  0  0  0  3  0  0  0  0  0  0
  180.7610  184.7980  136.2510 C   0  0  0  0  0  3  0  0  0  0  0  0
  181.4340  183.1140  137.7690 C   0  0  0  0  0  0  0  0  0  0  0  0
  179.4830  184.3430  136.2920 N   0  0  0  0  0  0  0  0  0  0  0  0
  182.4310  182.5270  138.4800 F   0  0  0  0  0  0  0  0  0  0  0  0
  181.7230  184.1860  136.9850 N   0  0  0  0  0  0  0  0  0  0  0  0
  180.1230  182.6160  137.8200 C   0  0  0  0  0  0  0  0  0  0  0  0
  182.0600  179.2300  138.5370 C   0  0  0  0  0  3  0  0  0  0  0  0
  182.0560  178.3550  139.4870 N   0  0  0  0  0  0  0  0  0  0  0  0
  185.0310  178.7730  144.7960 C   0  0  0  0  0  0  0  0  0  0  0  0
  182.9950  178.7970  142.9170 C   0  0  0  0  0  0  0  0  0  0  0  0
  184.4510  178.4670  140.8940 S   0  0  0  0  0  0  0  0  0  0  0  0
  184.3230  178.6690  142.5550 C   0  0  0  0  0  0  0  0  0  0  0  0
  182.7570  178.5520  140.7140 C   0  0  0  0  0  0  0  0  0  0  0  0
  185.3280  178.6430  143.4690 N   0  0  0  0  0  0  0  0  0  0  0  0
  183.6920  178.9020  145.2140 C   0  0  0  0  0  3  0  0  0  0  0  0
  182.6560  178.9160  144.2610 C   0  0  0  0  0  3  0  0  0  0  0  0
  182.1090  178.7290  141.8930 N   0  0  0  0  0  0  0  0  0  0  0  0
  185.6290  179.1490  147.0990 N   0  0  0  0  0  1  0  0  0  0  0  0
  186.1270  178.7050  145.8070 C   0  0  0  0  0  2  0  0  0  0  0  0
  1  3  1  6  0  0  0
  1 12  1  0  0  0  0
  1  2  1  0  0  0  0
  2 45  1  0  0  0  0
  4  5  1  0  0  0  0
  5  2  2  0  0  0  0
  5 37  1  0  0  0  0
  6  3  1  0  0  0  0
  6  4  1  0  0  0  0
  7 10  2  0  0  0  0
  8 11  1  6  0  0  0
  8 13  1  0  0  0  0
  8  9  1  0  0  0  0
  9 17  1  6  0  0  0
 10 15  1  0  0  0  0
 10 12  1  0  0  0  0
 12 16  1  6  0  0  0
 14 13  1  0  0  0  0
 15  8  1  0  0  0  0
 15  9  1  0  0  0  0
 16 14  2  0  0  0  0
 17 18  1  0  0  0  0
 18 20  1  0  0  0  0
 20 19  2  0  0  0  0
 21 27  1  0  0  0  0
 21 28  1  1  0  0  0
 22 21  1  0  0  0  0
 24 25  1  0  0  0  0
 25 23  1  6  0  0  0
 25 27  1  0  0  0  0
 26 20  1  1  0  0  0
 26 24  1  0  0  0  0
 26 22  1  0  0  0  0
 28 30  1  0  0  0  0
 29 34  1  0  0  0  0
 30 31  1  0  0  0  0
 30 32  2  0  0  0  0
 31 29  1  0  0  0  0
 32 33  1  0  0  0  0
 33 34  2  0  0  0  0
 35 36  2  0  0  0  0
 37 35  1  0  0  0  0
 38 44  1  0  0  0  0
 39 41  1  0  0  0  0
 39 43  2  0  0  0  0
 40 44  2  0  0  0  0
 40 42  1  0  0  0  0
 41 38  2  0  0  0  0
 43 40  1  0  0  0  0
 44 35  1  0  0  0  0
 45 46  2  0  0  0  0
 46 51  1  0  0  0  0
 47 53  1  0  0  0  0
 47 57  1  0  0  0  0
 48 54  1  0  0  0  0
 49 50  1  0  0  0  0
 50 48  2  0  0  0  0
 50 52  1  0  0  0  0
 51 49  1  0  0  0  0
 51 55  2  0  0  0  0
 52 47  2  0  0  0  0
 54 53  2  0  0  0  0
 55 48  1  0  0  0  0
 57 56  1  0  0  0  0
M  END
>  <MODEL>
1

>  <REMARK>
 VINA RESULT:      -9.4      0.000      0.000
  Name = 
  11 active torsions:
  status: ('A' for Active; 'I' for Inactive)
    1  A    between atoms: C_2  and  N_19
    2  A    between atoms: C_2  and  C_24
    3  A    between atoms: C_3  and  C_8
    4  A    between atoms: C_4  and  C_9
    5  A    between atoms: C_5  and  C_49
    6  A    between atoms: C_9  and  C_20
    7  A    between atoms: C_14  and  C_41
    8  A    between atoms: C_15  and  C_30
    9  A    between atoms: C_18  and  N_35
   10  A    between atoms: C_46  and  N_51
   11  A    between atoms: C_54  and  C_56
                            x       y       z     vdW  Elec       q    Type
                         _______ _______ _______ _____ _____    ______ ____

>  <TORSDO>
F 11

$$$$
=
 OpenBabel11042412443D

 57 64  0  0  1  0  0  0  0  0999 V2000
  190.3410  175.1810  136.7150 C   0  0  2  0  0  3  0  0  0  0  0  0
  191.4640  175.7320  137.6110 C   0  0  0  0  0  0  0  0  0  0  0  0
  190.7370  174.9170  135.3790 O   0  0  0  0  0  0  0  0  0  0  0  0
  193.0390  175.3170  135.7600 C   0  0  0  0  0  2  0  0  0  0  0  0
  192.7190  175.8440  137.1270 C   0  0  0  0  0  0  0  0  0  0  0  0
  191.9910  174.2910  135.3680 C   0  0  0  0  0  2  0  0  0  0  0  0
  187.6760  174.2270  137.1690 O   0  0  0  0  0  0  0  0  0  0  0  0
  186.0950  177.4790  136.0370 C   0  0  1  0  0  0  0  0  0  0  0  0
  185.5090  177.0030  137.1920 C   0  0  2  0  0  3  0  0  0  0  0  0
  187.7770  175.4160  136.7640 C   0  0  0  0  0  0  0  0  0  0  0  0
  185.4880  177.2880  134.8060 F   0  0  0  0  0  0  0  0  0  0  0  0
  189.1120  176.1090  136.6350 C   0  0  2  0  0  3  0  0  0  0  0  0
  187.1910  178.5290  136.1560 C   0  0  0  0  0  2  0  0  0  0  0  0
  188.3770  178.1630  135.2980 C   0  0  0  0  0  3  0  0  0  0  0  0
  186.6130  176.1970  136.5800 N   0  0  0  0  0  0  0  0  0  0  0  0
  189.1970  177.1120  135.5030 C   0  0  0  0  0  3  0  0  0  0  0  0
  184.1820  176.2980  136.9680 C   0  0  0  0  0  2  0  0  0  0  0  0
  183.1680  176.9330  137.7970 N   0  0  0  0  0  2  0  0  0  0  0  0
  182.2100  178.2050  136.0820 O   0  0  0  0  0  0  0  0  0  0  0  0
  182.3870  178.0340  137.3220 C   0  0  0  0  0  0  0  0  0  0  0  0
  181.1420  179.3510  140.6790 C   0  0  1  0  0  3  0  0  0  0  0  0
  181.7300  178.3810  139.6600 C   0  0  0  0  0  2  0  0  0  0  0  0
  180.6390  181.6890  138.8850 O   0  0  0  0  0  1  0  0  0  0  0  0
  180.4700  179.5390  137.8220 C   0  0  0  0  0  2  0  0  0  0  0  0
  179.8740  180.5220  138.8330 C   0  0  1  0  0  3  0  0  0  0  0  0
  181.8370  179.0300  138.2840 C   0  0  2  0  0  3  0  0  0  0  0  0
  179.7800  179.8850  140.2210 C   0  0  0  0  0  2  0  0  0  0  0  0
  181.0830  178.7190  142.0740 C   0  0  0  0  0  2  0  0  0  0  0  0
  184.8240  178.2550  142.9300 C   0  0  0  0  0  2  0  0  0  0  0  0
  182.3750  178.7670  142.8320 C   0  0  0  0  0  0  0  0  0  0  0  0
  183.6970  178.8920  142.1110 C   0  0  0  0  0  2  0  0  0  0  0  0
  182.3390  178.8650  144.1640 C   0  0  0  0  0  3  0  0  0  0  0  0
  183.5870  178.9430  144.9490 C   0  0  0  0  0  3  0  0  0  0  0  0
  184.7630  178.6960  144.3680 C   0  0  0  0  0  3  0  0  0  0  0  0
  194.7350  175.5070  138.6700 C   0  0  0  0  0  0  0  0  0  0  0  0
  195.1280  175.8840  139.8060 O   0  0  0  0  0  0  0  0  0  0  0  0
  193.7750  176.3180  137.9780 N   0  0  0  0  0  2  0  0  0  0  0  0
  195.0620  173.0290  138.6230 C   0  0  0  0  0  3  0  0  0  0  0  0
  196.3240  171.9860  136.9180 C   0  0  0  0  0  3  0  0  0  0  0  0
  196.0870  174.3390  136.8950 C   0  0  0  0  0  0  0  0  0  0  0  0
  195.5700  171.9080  138.0440 N   0  0  0  0  0  0  0  0  0  0  0  0
  196.3720  175.5260  136.3000 F   0  0  0  0  0  0  0  0  0  0  0  0
  196.5770  173.1930  136.3530 N   0  0  0  0  0  0  0  0  0  0  0  0
  195.3150  174.2870  138.0660 C   0  0  0  0  0  0  0  0  0  0  0  0
  191.2600  175.9210  139.0590 C   0  0  0  0  0  3  0  0  0  0  0  0
  190.6530  176.9540  139.5410 N   0  0  0  0  0  0  0  0  0  0  0  0
  189.5590  177.1990  145.5370 C   0  0  0  0  0  0  0  0  0  0  0  0
  189.1680  177.1790  142.7940 C   0  0  0  0  0  0  0  0  0  0  0  0
  191.5970  177.1890  142.1460 S   0  0  0  0  0  0  0  0  0  0  0  0
  190.4320  177.2250  143.3530 C   0  0  0  0  0  0  0  0  0  0  0  0
  190.3970  177.1120  140.9350 C   0  0  0  0  0  0  0  0  0  0  0  0
  190.6360  177.2220  144.6960 N   0  0  0  0  0  0  0  0  0  0  0  0
  188.2520  177.1480  145.0150 C   0  0  0  0  0  3  0  0  0  0  0  0
  188.0500  177.1400  143.6220 C   0  0  0  0  0  3  0  0  0  0  0  0
  189.1370  177.1120  141.4400 N   0  0  0  0  0  0  0  0  0  0  0  0
  188.4970  177.2060  147.6990 N   0  0  0  0  0  1  0  0  0  0  0  0
  189.7780  177.1560  147.0130 C   0  0  0  0  0  2  0  0  0  0  0  0
  1  3  1  6  0  0  0
  1  2  1  0  0  0  0
  2 45  1  0  0  0  0
  4  5  1  0  0  0  0
  5  2  2  0  0  0  0
  5 37  1  0  0  0  0
  6  3  1  0  0  0  0
  6  4  1  0  0  0  0
  8 11  1  6  0  0  0
  8 13  1  0  0  0  0
  8 15  1  0  0  0  0
  8  9  1  0  0  0  0
  9 17  1  6  0  0  0
 10  7  2  0  0  0  0
 12 16  1  6  0  0  0
 12  1  1  0  0  0  0
 12 10  1  0  0  0  0
 14 16  2  0  0  0  0
 14 13  1  0  0  0  0
 15 10  1  0  0  0  0
 15  9  1  0  0  0  0
 17 18  1  0  0  0  0
 19 20  2  0  0  0  0
 20 18  1  0  0  0  0
 21 28  1  1  0  0  0
 22 21  1  0  0  0  0
 24 26  1  0  0  0  0
 24 25  1  0  0  0  0
 25 23  1  1  0  0  0
 25 27  1  0  0  0  0
 26 20  1  6  0  0  0
 26 22  1  0  0  0  0
 27 21  1  0  0  0  0
 28 30  1  0  0  0  0
 29 34  1  0  0  0  0
 30 32  2  0  0  0  0
 31 30  1  0  0  0  0
 31 29  1  0  0  0  0
 32 33  1  0  0  0  0
 34 33  2  0  0  0  0
 35 36  2  0  0  0  0
 37 35  1  0  0  0  0
 39 41  1  0  0  0  0
 40 44  2  0  0  0  0
 41 38  2  0  0  0  0
 42 40  1  0  0  0  0
 43 40  1  0  0  0  0
 43 39  2  0  0  0  0
 44 38  1  0  0  0  0
 44 35  1  0  0  0  0
 45 46  2  0  0  0  0
 46 51  1  0  0  0  0
 47 57  1  0  0  0  0
 48 50  2  0  0  0  0
 48 54  1  0  0  0  0
 49 50  1  0  0  0  0
 50 52  1  0  0  0  0
 51 55  2  0  0  0  0
 51 49  1  0  0  0  0
 52 47  2  0  0  0  0
 53 47  1  0  0  0  0
 54 53  2  0  0  0  0
 55 48  1  0  0  0  0
 57 56  1  0  0  0  0
M  END
>  <MODEL>
2

>  <REMARK>
 VINA RESULT:      -9.3      3.980     10.148
  Name = 
  11 active torsions:
  status: ('A' for Active; 'I' for Inactive)
    1  A    between atoms: C_2  and  N_19
    2  A    between atoms: C_2  and  C_24
    3  A    between atoms: C_3  and  C_8
    4  A    between atoms: C_4  and  C_9
    5  A    between atoms: C_5  and  C_49
    6  A    between atoms: C_9  and  C_20
    7  A    between atoms: C_14  and  C_41
    8  A    between atoms: C_15  and  C_30
    9  A    between atoms: C_18  and  N_35
   10  A    between atoms: C_46  and  N_51
   11  A    between atoms: C_54  and  C_56
                            x       y       z     vdW  Elec       q    Type
                         _______ _______ _______ _____ _____    ______ ____

>  <TORSDO>
F 11

$$$$
=
 OpenBabel11042412443D

 57 64  0  0  1  0  0  0  0  0999 V2000
  183.4440  177.1650  136.8780 C   0  0  2  0  0  3  0  0  0  0  0  0
  182.4570  177.4640  138.0210 C   0  0  0  0  0  0  0  0  0  0  0  0
  182.8750  177.2440  135.5810 O   0  0  0  0  0  0  0  0  0  0  0  0
  180.7970  178.1080  136.3150 C   0  0  0  0  0  2  0  0  0  0  0  0
  181.1950  177.8520  137.7380 C   0  0  0  0  0  0  0  0  0  0  0  0
  182.0450  178.3690  135.4920 C   0  0  0  0  0  2  0  0  0  0  0  0
  186.0910  176.6490  135.9080 O   0  0  0  0  0  0  0  0  0  0  0  0
  185.7790  172.9090  136.4280 C   0  0  1  0  0  0  0  0  0  0  0  0
  186.9940  173.3860  136.8760 C   0  0  2  0  0  3  0  0  0  0  0  0
  185.4400  175.6450  136.3040 C   0  0  0  0  0  0  0  0  0  0  0  0
  185.6740  172.2830  135.1970 F   0  0  0  0  0  0  0  0  0  0  0  0
  184.1010  175.7750  136.9880 C   0  0  2  0  0  3  0  0  0  0  0  0
  184.6520  172.7300  137.4370 C   0  0  0  0  0  2  0  0  0  0  0  0
  183.3670  173.3250  136.9140 C   0  0  0  0  0  3  0  0  0  0  0  0
  186.0360  174.3630  136.2680 N   0  0  0  0  0  0  0  0  0  0  0  0
  183.1380  174.6380  136.7130 C   0  0  0  0  0  3  0  0  0  0  0  0
  188.1450  173.1400  135.9160 C   0  0  0  0  0  2  0  0  0  0  0  0
  189.2430  174.0320  136.2610 N   0  0  0  0  0  2  0  0  0  0  0  0
  190.9550  172.5090  135.7910 O   0  0  0  0  0  0  0  0  0  0  0  0
  190.5860  173.5590  136.3900 C   0  0  0  0  0  0  0  0  0  0  0  0
  191.7730  176.2100  138.8630 C   0  0  1  0  0  3  0  0  0  0  0  0
  190.8270  175.4360  137.9520 C   0  0  0  0  0  2  0  0  0  0  0  0
  194.2860  174.6650  138.3780 O   0  0  0  0  0  1  0  0  0  0  0  0
  192.7690  174.7480  136.5140 C   0  0  0  0  0  2  0  0  0  0  0  0
  193.7300  175.5190  137.4210 C   0  0  1  0  0  3  0  0  0  0  0  0
  191.5430  174.2620  137.2910 C   0  0  2  0  0  3  0  0  0  0  0  0
  193.0160  176.6870  138.1040 C   0  0  0  0  0  2  0  0  0  0  0  0
  191.0440  177.3580  139.5700 C   0  0  0  0  0  2  0  0  0  0  0  0
  191.5720  176.5850  143.3210 C   0  0  0  0  0  2  0  0  0  0  0  0
  190.7430  177.1050  141.0160 C   0  0  0  0  0  0  0  0  0  0  0  0
  191.7250  177.4930  142.0950 C   0  0  0  0  0  2  0  0  0  0  0  0
  189.5210  176.6830  141.3570 C   0  0  0  0  0  3  0  0  0  0  0  0
  189.1710  176.4480  142.7720 C   0  0  0  0  0  3  0  0  0  0  0  0
  190.1240  176.4390  143.7070 C   0  0  0  0  0  3  0  0  0  0  0  0
  180.1000  179.4650  139.3990 C   0  0  0  0  0  0  0  0  0  0  0  0
  179.8540  179.5260  140.6330 O   0  0  0  0  0  0  0  0  0  0  0  0
  180.2890  178.1730  138.8050 N   0  0  0  0  0  2  0  0  0  0  0  0
  178.9510  181.2270  138.0480 C   0  0  0  0  0  3  0  0  0  0  0  0
  180.1380  183.0680  137.1620 C   0  0  0  0  0  3  0  0  0  0  0  0
  181.3120  181.4380  138.4100 C   0  0  0  0  0  0  0  0  0  0  0  0
  178.9770  182.3880  137.3410 N   0  0  0  0  0  0  0  0  0  0  0  0
  182.4920  180.9950  138.9150 F   0  0  0  0  0  0  0  0  0  0  0  0
  181.2910  182.5930  137.6930 N   0  0  0  0  0  0  0  0  0  0  0  0
  180.1280  180.7090  138.5990 C   0  0  0  0  0  0  0  0  0  0  0  0
  182.9180  177.5690  139.4180 C   0  0  0  0  0  3  0  0  0  0  0  0
  183.8550  178.3840  139.7740 N   0  0  0  0  0  0  0  0  0  0  0  0
  185.5750  178.6030  145.6230 C   0  0  0  0  0  0  0  0  0  0  0  0
  184.0020  178.6740  143.3430 C   0  0  0  0  0  0  0  0  0  0  0  0
  185.8770  178.4810  141.6800 S   0  0  0  0  0  0  0  0  0  0  0  0
  185.3810  178.5960  143.2790 C   0  0  0  0  0  0  0  0  0  0  0  0
  184.2620  178.5350  141.1330 C   0  0  0  0  0  0  0  0  0  0  0  0
  186.1610  178.5480  144.3900 N   0  0  0  0  0  0  0  0  0  0  0  0
  184.1730  178.6800  145.7400 C   0  0  0  0  0  3  0  0  0  0  0  0
  183.3720  178.7180  144.5830 C   0  0  0  0  0  3  0  0  0  0  0  0
  183.3650  178.6370  142.1470 N   0  0  0  0  0  0  0  0  0  0  0  0
  187.5490  177.6240  146.5970 N   0  0  0  0  0  1  0  0  0  0  0  0
  186.4240  178.5110  146.8470 C   0  0  0  0  0  2  0  0  0  0  0  0
  1  3  1  6  0  0  0
  1 12  1  0  0  0  0
  1  2  1  0  0  0  0
  2 45  1  0  0  0  0
  4  5  1  0  0  0  0
  5  2  2  0  0  0  0
  5 37  1  0  0  0  0
  6  3  1  0  0  0  0
  6  4  1  0  0  0  0
  7 10  2  0  0  0  0
  8 11  1  6  0  0  0
  8  9  1  0  0  0  0
  8 13  1  0  0  0  0
  9 17  1  6  0  0  0
 10 12  1  0  0  0  0
 12 16  1  6  0  0  0
 14 13  1  0  0  0  0
 15 10  1  0  0  0  0
 15  8  1  0  0  0  0
 15  9  1  0  0  0  0
 16 14  2  0  0  0  0
 17 18  1  0  0  0  0
 18 20  1  0  0  0  0
 19 20  2  0  0  0  0
 21 28  1  6  0  0  0
 22 21  1  0  0  0  0
 24 26  1  0  0  0  0
 24 25  1  0  0  0  0
 25 27  1  0  0  0  0
 25 23  1  1  0  0  0
 26 20  1  6  0  0  0
 26 22  1  0  0  0  0
 27 21  1  0  0  0  0
 28 30  1  0  0  0  0
 29 34  1  0  0  0  0
 30 32  2  0  0  0  0
 30 31  1  0  0  0  0
 31 29  1  0  0  0  0
 32 33  1  0  0  0  0
 33 34  2  0  0  0  0
 35 36  2  0  0  0  0
 37 35  1  0  0  0  0
 38 44  1  0  0  0  0
 39 41  1  0  0  0  0
 39 43  2  0  0  0  0
 40 44  2  0  0  0  0
 40 42  1  0  0  0  0
 41 38  2  0  0  0  0
 43 40  1  0  0  0  0
 44 35  1  0  0  0  0
 45 46  2  0  0  0  0
 46 51  1  0  0  0  0
 47 53  1  0  0  0  0
 47 57  1  0  0  0  0
 48 54  1  0  0  0  0
 49 50  1  0  0  0  0
 50 48  2  0  0  0  0
 50 52  1  0  0  0  0
 51 49  1  0  0  0  0
 51 55  2  0  0  0  0
 52 47  2  0  0  0  0
 54 53  2  0  0  0  0
 55 48  1  0  0  0  0
 56 57  1  0  0  0  0
M  END
>  <MODEL>
3

>  <REMARK>
 VINA RESULT:      -8.9      1.873      2.474
  Name = 
  11 active torsions:
  status: ('A' for Active; 'I' for Inactive)
    1  A    between atoms: C_2  and  N_19
    2  A    between atoms: C_2  and  C_24
    3  A    between atoms: C_3  and  C_8
    4  A    between atoms: C_4  and  C_9
    5  A    between atoms: C_5  and  C_49
    6  A    between atoms: C_9  and  C_20
    7  A    between atoms: C_14  and  C_41
    8  A    between atoms: C_15  and  C_30
    9  A    between atoms: C_18  and  N_35
   10  A    between atoms: C_46  and  N_51
   11  A    between atoms: C_54  and  C_56
                            x       y       z     vdW  Elec       q    Type
                         _______ _______ _______ _____ _____    ______ ____

>  <TORSDO>
F 11

$$$$
=
 OpenBabel11042412443D

 57 64  0  0  1  0  0  0  0  0999 V2000
  182.6740  178.2180  136.2110 C   0  0  2  0  0  3  0  0  0  0  0  0
  181.8920  178.7460  137.4270 C   0  0  0  0  0  0  0  0  0  0  0  0
  181.9210  178.1700  135.0090 O   0  0  0  0  0  0  0  0  0  0  0  0
  180.0350  179.2900  135.8980 C   0  0  0  0  0  2  0  0  0  0  0  0
  180.6280  179.1950  137.2720 C   0  0  0  0  0  0  0  0  0  0  0  0
  181.1580  179.3370  134.8780 C   0  0  0  0  0  2  0  0  0  0  0  0
  184.9350  177.2580  134.7330 O   0  0  0  0  0  0  0  0  0  0  0  0
  184.5530  173.7230  136.0400 C   0  0  1  0  0  0  0  0  0  0  0  0
  185.8690  174.1360  136.0680 C   0  0  2  0  0  3  0  0  0  0  0  0
  184.3540  176.4150  135.4680 C   0  0  0  0  0  0  0  0  0  0  0  0
  184.0890  172.9060  135.0220 F   0  0  0  0  0  0  0  0  0  0  0  0
  183.2540  176.8060  136.4240 C   0  0  2  0  0  3  0  0  0  0  0  0
  183.7260  173.8450  137.3130 C   0  0  0  0  0  2  0  0  0  0  0  0
  182.3850  174.4740  137.0200 C   0  0  0  0  0  3  0  0  0  0  0  0
  184.8440  175.0890  135.5370 N   0  0  0  0  0  0  0  0  0  0  0  0
  182.1880  175.7490  136.6280 C   0  0  0  0  0  3  0  0  0  0  0  0
  186.7090  173.6030  134.9190 C   0  0  0  0  0  2  0  0  0  0  0  0
  188.0950  173.9930  135.1310 N   0  0  0  0  0  2  0  0  0  0  0  0
  188.8690  171.8550  135.6840 O   0  0  0  0  0  0  0  0  0  0  0  0
  189.0430  173.1060  135.7320 C   0  0  0  0  0  0  0  0  0  0  0  0
  190.9240  175.5050  138.0270 C   0  0  1  0  0  3  0  0  0  0  0  0
  189.7580  174.8840  137.2630 C   0  0  0  0  0  2  0  0  0  0  0  0
  193.1140  173.6780  137.1320 O   0  0  0  0  0  1  0  0  0  0  0  0
  191.3530  174.0110  135.5290 C   0  0  0  0  0  2  0  0  0  0  0  0
  192.5320  174.6260  136.2860 C   0  0  1  0  0  3  0  0  0  0  0  0
  190.2080  173.6550  136.4820 C   0  0  2  0  0  3  0  0  0  0  0  0
  192.0860  175.8500  137.0890 C   0  0  0  0  0  2  0  0  0  0  0  0
  190.4630  176.7090  138.8550 C   0  0  0  0  0  2  0  0  0  0  0  0
  186.8220  177.6900  138.0040 C   0  0  0  0  0  2  0  0  0  0  0  0
  189.3000  177.4540  138.2730 C   0  0  0  0  0  0  0  0  0  0  0  0
  187.9760  177.5190  138.9970 C   0  0  0  0  0  2  0  0  0  0  0  0
  189.4930  178.2040  137.1830 C   0  0  0  0  0  3  0  0  0  0  0  0
  188.3830  178.9770  136.5930 C   0  0  0  0  0  3  0  0  0  0  0  0
  187.1290  178.7700  137.0010 C   0  0  0  0  0  3  0  0  0  0  0  0
  180.0100  181.0650  138.9080 C   0  0  0  0  0  0  0  0  0  0  0  0
  179.9210  181.2400  140.1530 O   0  0  0  0  0  0  0  0  0  0  0  0
  179.9160  179.7270  138.4000 N   0  0  0  0  0  2  0  0  0  0  0  0
  179.0370  182.7490  137.3370 C   0  0  0  0  0  3  0  0  0  0  0  0
  180.3600  184.4680  136.4010 C   0  0  0  0  0  3  0  0  0  0  0  0
  181.3720  182.9060  137.8610 C   0  0  0  0  0  0  0  0  0  0  0  0
  179.1630  183.8460  136.5440 N   0  0  0  0  0  0  0  0  0  0  0  0
  182.4910  182.4650  138.4890 F   0  0  0  0  0  0  0  0  0  0  0  0
  181.4510  183.9980  137.0550 N   0  0  0  0  0  0  0  0  0  0  0  0
  180.1480  182.2370  138.0160 C   0  0  0  0  0  0  0  0  0  0  0  0
  182.5650  178.9980  138.7140 C   0  0  0  0  0  3  0  0  0  0  0  0
  182.3570  178.2640  139.7560 N   0  0  0  0  0  0  0  0  0  0  0  0
  185.2920  178.6950  145.0860 C   0  0  0  0  0  0  0  0  0  0  0  0
  183.2760  178.7420  143.1860 C   0  0  0  0  0  0  0  0  0  0  0  0
  184.7410  178.3330  141.1850 S   0  0  0  0  0  0  0  0  0  0  0  0
  184.6030  178.5690  142.8400 C   0  0  0  0  0  0  0  0  0  0  0  0
  183.0510  178.4630  140.9860 C   0  0  0  0  0  0  0  0  0  0  0  0
  185.5990  178.5320  143.7640 N   0  0  0  0  0  0  0  0  0  0  0  0
  183.9540  178.8700  145.4880 C   0  0  0  0  0  3  0  0  0  0  0  0
  182.9270  178.8960  144.5250 C   0  0  0  0  0  3  0  0  0  0  0  0
  182.3980  178.6810  142.1550 N   0  0  0  0  0  0  0  0  0  0  0  0
  187.5500  177.9830  145.5290 N   0  0  0  0  0  1  0  0  0  0  0  0
  186.3770  178.6150  146.1090 C   0  0  0  0  0  2  0  0  0  0  0  0
  1  3  1  6  0  0  0
  1 12  1  0  0  0  0
  1  2  1  0  0  0  0
  2 45  1  0  0  0  0
  4  5  1  0  0  0  0
  5  2  2  0  0  0  0
  5 37  1  0  0  0  0
  6  3  1  0  0  0  0
  6  4  1  0  0  0  0
  7 10  2  0  0  0  0
  8 11  1  6  0  0  0
  8  9  1  0  0  0  0
  8 13  1  0  0  0  0
  9 17  1  6  0  0  0
 10 15  1  0  0  0  0
 10 12  1  0  0  0  0
 12 16  1  6  0  0  0
 14 13  1  0  0  0  0
 15  8  1  0  0  0  0
 15  9  1  0  0  0  0
 16 14  2  0  0  0  0
 17 18  1  0  0  0  0
 18 20  1  0  0  0  0
 19 20  2  0  0  0  0
 21 28  1  6  0  0  0
 22 21  1  0  0  0  0
 24 25  1  0  0  0  0
 24 26  1  0  0  0  0
 25 27  1  0  0  0  0
 25 23  1  1  0  0  0
 26 20  1  6  0  0  0
 26 22  1  0  0  0  0
 27 21  1  0  0  0  0
 29 31  1  0  0  0  0
 30 28  1  0  0  0  0
 30 31  1  0  0  0  0
 32 30  2  0  0  0  0
 33 34  2  0  0  0  0
 33 32  1  0  0  0  0
 34 29  1  0  0  0  0
 35 36  2  0  0  0  0
 37 35  1  0  0  0  0
 38 44  1  0  0  0  0
 39 41  1  0  0  0  0
 39 43  2  0  0  0  0
 40 44  2  0  0  0  0
 40 42  1  0  0  0  0
 41 38  2  0  0  0  0
 43 40  1  0  0  0  0
 44 35  1  0  0  0  0
 45 46  2  0  0  0  0
 46 51  1  0  0  0  0
 47 53  1  0  0  0  0
 47 57  1  0  0  0  0
 48 54  1  0  0  0  0
 49 50  1  0  0  0  0
 50 48  2  0  0  0  0
 50 52  1  0  0  0  0
 51 49  1  0  0  0  0
 51 55  2  0  0  0  0
 52 47  2  0  0  0  0
 54 53  2  0  0  0  0
 55 48  1  0  0  0  0
 56 57  1  0  0  0  0
M  END
>  <MODEL>
4

>  <REMARK>
 VINA RESULT:      -8.2      1.769      2.808
  Name = 
  11 active torsions:
  status: ('A' for Active; 'I' for Inactive)
    1  A    between atoms: C_2  and  N_19
    2  A    between atoms: C_2  and  C_24
    3  A    between atoms: C_3  and  C_8
    4  A    between atoms: C_4  and  C_9
    5  A    between atoms: C_5  and  C_49
    6  A    between atoms: C_9  and  C_20
    7  A    between atoms: C_14  and  C_41
    8  A    between atoms: C_15  and  C_30
    9  A    between atoms: C_18  and  N_35
   10  A    between atoms: C_46  and  N_51
   11  A    between atoms: C_54  and  C_56
                            x       y       z     vdW  Elec       q    Type
                         _______ _______ _______ _____ _____    ______ ____

>  <TORSDO>
F 11

$$$$
=
 OpenBabel11042412443D

 57 64  0  0  1  0  0  0  0  0999 V2000
  186.6970  178.0750  137.0920 C   0  0  2  0  0  3  0  0  0  0  0  0
  187.1280  176.6050  137.2470 C   0  0  0  0  0  0  0  0  0  0  0  0
  187.6490  179.0140  137.5670 O   0  0  0  0  0  0  0  0  0  0  0  0
  189.3420  177.4110  137.9720 C   0  0  0  0  0  2  0  0  0  0  0  0
  188.3580  176.3090  137.7180 C   0  0  0  0  0  0  0  0  0  0  0  0
  188.9360  178.6320  137.1670 C   0  0  0  0  0  2  0  0  0  0  0  0
  186.4130  177.9400  139.9410 O   0  0  0  0  0  0  0  0  0  0  0  0
  182.6560  178.4140  139.7980 C   0  0  1  0  0  0  0  0  0  0  0  0
  183.2300  179.1910  140.7830 C   0  0  2  0  0  3  0  0  0  0  0  0
  185.3540  178.1440  139.2880 C   0  0  0  0  0  0  0  0  0  0  0  0
  182.0320  177.2180  140.1140 F   0  0  0  0  0  0  0  0  0  0  0  0
  185.3670  178.3990  137.8000 C   0  0  2  0  0  3  0  0  0  0  0  0
  182.3770  179.0480  138.4430 C   0  0  0  0  0  2  0  0  0  0  0  0
  182.8640  178.1580  137.3250 C   0  0  0  0  0  3  0  0  0  0  0  0
  184.1270  178.3090  139.9710 N   0  0  0  0  0  0  0  0  0  0  0  0
  184.1550  177.8740  137.0580 C   0  0  0  0  0  3  0  0  0  0  0  0
  183.0890  178.6180  142.1840 C   0  0  0  0  0  2  0  0  0  0  0  0
  184.1620  179.1430  143.0160 N   0  0  0  0  0  2  0  0  0  0  0  0
  185.5440  177.2630  142.8500 O   0  0  0  0  0  0  0  0  0  0  0  0
  185.2310  178.3140  143.4780 C   0  0  0  0  0  0  0  0  0  0  0  0
  187.9630  178.0980  146.1330 C   0  0  1  0  0  3  0  0  0  0  0  0
  187.2160  177.8190  144.8330 C   0  0  0  0  0  2  0  0  0  0  0  0
  186.0510  180.0250  147.3850 O   0  0  0  0  0  1  0  0  0  0  0  0
  185.0400  178.3730  145.9590 C   0  0  0  0  0  2  0  0  0  0  0  0
  185.7770  178.6590  147.2690 C   0  0  1  0  0  3  0  0  0  0  0  0
  185.9370  178.6450  144.7480 C   0  0  2  0  0  3  0  0  0  0  0  0
  187.0720  177.8490  147.3540 C   0  0  0  0  0  2  0  0  0  0  0  0
  189.2760  177.3100  146.1960 C   0  0  0  0  0  2  0  0  0  0  0  0
  191.5490  178.2690  143.2190 C   0  0  0  0  0  2  0  0  0  0  0  0
  190.0090  177.2190  144.8910 C   0  0  0  0  0  0  0  0  0  0  0  0
  191.3360  177.9120  144.6950 C   0  0  0  0  0  2  0  0  0  0  0  0
  189.5580  176.3800  143.9540 C   0  0  0  0  0  3  0  0  0  0  0  0
  190.2650  176.2370  142.6660 C   0  0  0  0  0  3  0  0  0  0  0  0
  191.2280  177.0970  142.3300 C   0  0  0  0  0  3  0  0  0  0  0  0
  189.8300  174.3140  137.0780 C   0  0  0  0  0  0  0  0  0  0  0  0
  189.6920  173.1090  136.7380 O   0  0  0  0  0  0  0  0  0  0  0  0
  188.7730  174.9380  137.8200 N   0  0  0  0  0  2  0  0  0  0  0  0
  192.2170  174.8700  137.5710 C   0  0  0  0  0  3  0  0  0  0  0  0
  193.4750  176.2710  136.1440 C   0  0  0  0  0  3  0  0  0  0  0  0
  191.2160  175.8190  135.6100 C   0  0  0  0  0  0  0  0  0  0  0  0
  193.3820  175.4960  137.2540 N   0  0  0  0  0  0  0  0  0  0  0  0
  190.1630  176.0110  134.7760 F   0  0  0  0  0  0  0  0  0  0  0  0
  192.3990  176.4280  135.3340 N   0  0  0  0  0  0  0  0  0  0  0  0
  191.0900  175.0210  136.7580 C   0  0  0  0  0  0  0  0  0  0  0  0
  186.3220  175.5120  136.6730 C   0  0  0  0  0  3  0  0  0  0  0  0
  185.4420  174.8670  137.3640 N   0  0  0  0  0  0  0  0  0  0  0  0
  181.8130  170.3990  135.3440 C   0  0  0  0  0  0  0  0  0  0  0  0
  184.0770  171.7990  136.1140 C   0  0  0  0  0  0  0  0  0  0  0  0
  182.9510  174.0180  136.4690 S   0  0  0  0  0  0  0  0  0  0  0  0
  182.8410  172.4090  136.0050 C   0  0  0  0  0  0  0  0  0  0  0  0
  184.6160  173.8510  136.7980 C   0  0  0  0  0  0  0  0  0  0  0  0
  181.7220  171.7300  135.6410 N   0  0  0  0  0  0  0  0  0  0  0  0
  183.0500  169.7330  135.4440 C   0  0  0  0  0  3  0  0  0  0  0  0
  184.2020  170.4420  135.8330 C   0  0  0  0  0  3  0  0  0  0  0  0
  185.0780  172.5970  136.5610 N   0  0  0  0  0  0  0  0  0  0  0  0
  179.5090  169.9770  135.9030 N   0  0  0  0  0  1  0  0  0  0  0  0
  180.5810  169.6400  134.9810 C   0  0  0  0  0  2  0  0  0  0  0  0
  1  2  1  1  0  0  0
  1  3  1  0  0  0  0
  1 12  1  0  0  0  0
  2  5  2  0  0  0  0
  5 37  1  0  0  0  0
  5  4  1  0  0  0  0
  6  3  1  0  0  0  0
  6  4  1  0  0  0  0
  8 15  1  0  0  0  0
  8 11  1  1  0  0  0
  8  9  1  0  0  0  0
  9 17  1  1  0  0  0
 10  7  2  0  0  0  0
 10 15  1  0  0  0  0
 12 16  1  6  0  0  0
 12 10  1  0  0  0  0
 13  8  1  0  0  0  0
 14 13  1  0  0  0  0
 15  9  1  0  0  0  0
 16 14  2  0  0  0  0
 17 18  1  0  0  0  0
 18 20  1  0  0  0  0
 19 20  2  0  0  0  0
 21 28  1  1  0  0  0
 21 27  1  0  0  0  0
 22 21  1  0  0  0  0
 24 25  1  0  0  0  0
 25 27  1  0  0  0  0
 25 23  1  6  0  0  0
 26 20  1  6  0  0  0
 26 22  1  0  0  0  0
 26 24  1  0  0  0  0
 29 31  1  0  0  0  0
 30 28  1  0  0  0  0
 31 30  1  0  0  0  0
 32 30  2  0  0  0  0
 33 32  1  0  0  0  0
 34 33  2  0  0  0  0
 34 29  1  0  0  0  0
 35 37  1  0  0  0  0
 36 35  2  0  0  0  0
 39 41  2  0  0  0  0
 40 44  1  0  0  0  0
 41 38  1  0  0  0  0
 42 40  1  0  0  0  0
 43 40  2  0  0  0  0
 43 39  1  0  0  0  0
 44 35  1  0  0  0  0
 44 38  2  0  0  0  0
 45  2  1  0  0  0  0
 45 46  2  0  0  0  0
 47 53  2  0  0  0  0
 47 52  1  0  0  0  0
 48 55  1  0  0  0  0
 49 51  1  0  0  0  0
 50 48  1  0  0  0  0
 50 49  1  0  0  0  0
 51 46  1  0  0  0  0
 52 50  2  0  0  0  0
 53 54  1  0  0  0  0
 54 48  2  0  0  0  0
 55 51  2  0  0  0  0
 57 47  1  0  0  0  0
 57 56  1  0  0  0  0
M  END
>  <MODEL>
5

>  <REMARK>
 VINA RESULT:      -7.9      3.364      9.117
  Name = 
  11 active torsions:
  status: ('A' for Active; 'I' for Inactive)
    1  A    between atoms: C_2  and  N_19
    2  A    between atoms: C_2  and  C_24
    3  A    between atoms: C_3  and  C_8
    4  A    between atoms: C_4  and  C_9
    5  A    between atoms: C_5  and  C_49
    6  A    between atoms: C_9  and  C_20
    7  A    between atoms: C_14  and  C_41
    8  A    between atoms: C_15  and  C_30
    9  A    between atoms: C_18  and  N_35
   10  A    between atoms: C_46  and  N_51
   11  A    between atoms: C_54  and  C_56
                            x       y       z     vdW  Elec       q    Type
                         _______ _______ _______ _____ _____    ______ ____

>  <TORSDO>
F 11

$$$$
=
 OpenBabel11042412443D

 57 64  0  0  1  0  0  0  0  0999 V2000
  180.7530  178.9460  142.3280 C   0  0  2  0  0  3  0  0  0  0  0  0
  180.3540  178.8690  140.8430 C   0  0  0  0  0  0  0  0  0  0  0  0
  180.5290  180.2130  142.9270 O   0  0  0  0  0  0  0  0  0  0  0  0
  179.3850  181.1250  141.0660 C   0  0  0  0  0  2  0  0  0  0  0  0
  179.7620  179.9260  140.2490 C   0  0  0  0  0  0  0  0  0  0  0  0
  179.2850  180.7170  142.5250 C   0  0  0  0  0  2  0  0  0  0  0  0
  181.8780  178.8990  144.9640 O   0  0  0  0  0  0  0  0  0  0  0  0
  185.4160  178.4840  143.6730 C   0  0  1  0  0  0  0  0  0  0  0  0
  185.1570  177.6370  144.7310 C   0  0  2  0  0  3  0  0  0  0  0  0
  182.6900  178.7520  144.0120 C   0  0  0  0  0  0  0  0  0  0  0  0
  186.1150  179.6650  143.8660 F   0  0  0  0  0  0  0  0  0  0  0  0
  182.2310  178.5940  142.5830 C   0  0  2  0  0  3  0  0  0  0  0  0
  185.2720  177.9430  142.2570 C   0  0  0  0  0  2  0  0  0  0  0  0
  184.4790  178.8980  141.3980 C   0  0  0  0  0  3  0  0  0  0  0  0
  184.0650  178.5580  144.2850 N   0  0  0  0  0  0  0  0  0  0  0  0
  183.1700  179.1820  141.5480 C   0  0  0  0  0  3  0  0  0  0  0  0
  185.7160  178.1200  146.0590 C   0  0  0  0  0  2  0  0  0  0  0  0
  187.0260  177.5190  146.2630 N   0  0  0  0  0  2  0  0  0  0  0  0
  187.5090  178.6500  148.2530 O   0  0  0  0  0  0  0  0  0  0  0  0
  187.9370  178.0130  147.2490 C   0  0  0  0  0  0  0  0  0  0  0  0
  191.2710  178.1070  145.3960 C   0  0  1  0  0  3  0  0  0  0  0  0
  189.7790  178.2900  145.6520 C   0  0  0  0  0  2  0  0  0  0  0  0
  192.0620  176.8870  148.0090 O   0  0  0  0  0  1  0  0  0  0  0  0
  189.8210  176.3880  147.2930 C   0  0  0  0  0  2  0  0  0  0  0  0
  191.3190  176.1950  147.0490 C   0  0  1  0  0  3  0  0  0  0  0  0
  189.4050  177.8430  147.0610 C   0  0  2  0  0  3  0  0  0  0  0  0
  191.7070  176.6580  145.6420 C   0  0  0  0  0  2  0  0  0  0  0  0
  191.6580  178.6040  144.0000 C   0  0  0  0  0  2  0  0  0  0  0  0
  188.7040  176.9710  142.1150 C   0  0  0  0  0  2  0  0  0  0  0  0
  190.8420  178.0220  142.8850 C   0  0  0  0  0  0  0  0  0  0  0  0
  189.3360  178.1390  142.8790 C   0  0  0  0  0  2  0  0  0  0  0  0
  191.4710  177.5400  141.8080 C   0  0  0  0  0  3  0  0  0  0  0  0
  190.7070  176.9840  140.6750 C   0  0  0  0  0  3  0  0  0  0  0  0
  189.3980  176.7490  140.7970 C   0  0  0  0  0  3  0  0  0  0  0  0
  180.2130  179.8620  137.7280 C   0  0  0  0  0  0  0  0  0  0  0  0
  179.7980  180.4240  136.6800 O   0  0  0  0  0  0  0  0  0  0  0  0
  179.3520  179.8370  138.8750 N   0  0  0  0  0  2  0  0  0  0  0  0
  181.6910  177.9190  137.1880 C   0  0  0  0  0  3  0  0  0  0  0  0
  184.0090  177.9730  137.6400 C   0  0  0  0  0  3  0  0  0  0  0  0
  182.6850  179.8490  138.2070 C   0  0  0  0  0  0  0  0  0  0  0  0
  182.9160  177.3300  137.1580 N   0  0  0  0  0  0  0  0  0  0  0  0
  182.6110  181.0930  138.7430 F   0  0  0  0  0  0  0  0  0  0  0  0
  183.8890  179.2200  138.1590 N   0  0  0  0  0  0  0  0  0  0  0  0
  181.5370  179.2010  137.7250 C   0  0  0  0  0  0  0  0  0  0  0  0
  180.3840  177.5890  140.1130 C   0  0  0  0  0  3  0  0  0  0  0  0
  179.3200  176.8850  139.9110 N   0  0  0  0  0  0  0  0  0  0  0  0
  179.7810  171.8080  136.5610 C   0  0  0  0  0  0  0  0  0  0  0  0
  179.2190  174.4130  137.3180 C   0  0  0  0  0  0  0  0  0  0  0  0
  179.8190  174.1550  139.7460 S   0  0  0  0  0  0  0  0  0  0  0  0
  179.6450  173.4620  138.2270 C   0  0  0  0  0  0  0  0  0  0  0  0
  179.3320  175.6780  139.1510 C   0  0  0  0  0  0  0  0  0  0  0  0
  179.9350  172.1860  137.8650 N   0  0  0  0  0  0  0  0  0  0  0  0
  179.3530  172.7420  135.5970 C   0  0  0  0  0  3  0  0  0  0  0  0
  179.0660  174.0660  135.9790 C   0  0  0  0  0  3  0  0  0  0  0  0
  179.0450  175.6590  137.8250 N   0  0  0  0  0  0  0  0  0  0  0  0
  181.4400  170.4150  135.5080 N   0  0  0  0  0  1  0  0  0  0  0  0
  180.1350  170.4170  136.1490 C   0  0  0  0  0  2  0  0  0  0  0  0
  1  2  1  6  0  0  0
  1 12  1  0  0  0  0
  1  3  1  0  0  0  0
  4  6  1  0  0  0  0
  5  2  2  0  0  0  0
  5  4  1  0  0  0  0
  6  3  1  0  0  0  0
  8 11  1  1  0  0  0
  8 15  1  0  0  0  0
  8  9  1  0  0  0  0
  9 17  1  1  0  0  0
 10 15  1  0  0  0  0
 10  7  2  0  0  0  0
 12 16  1  6  0  0  0
 12 10  1  0  0  0  0
 13  8  1  0  0  0  0
 14 16  2  0  0  0  0
 14 13  1  0  0  0  0
 15  9  1  0  0  0  0
 17 18  1  0  0  0  0
 18 20  1  0  0  0  0
 20 19  2  0  0  0  0
 21 28  1  6  0  0  0
 21 27  1  0  0  0  0
 21 22  1  0  0  0  0
 22 26  1  0  0  0  0
 25 24  1  0  0  0  0
 25 23  1  1  0  0  0
 26 20  1  6  0  0  0
 26 24  1  0  0  0  0
 27 25  1  0  0  0  0
 29 31  1  0  0  0  0
 30 28  1  0  0  0  0
 31 30  1  0  0  0  0
 32 30  2  0  0  0  0
 33 34  2  0  0  0  0
 33 32  1  0  0  0  0
 34 29  1  0  0  0  0
 35 37  1  0  0  0  0
 36 35  2  0  0  0  0
 37  5  1  0  0  0  0
 38 44  1  0  0  0  0
 39 43  2  0  0  0  0
 40 42  1  0  0  0  0
 41 38  2  0  0  0  0
 41 39  1  0  0  0  0
 43 40  1  0  0  0  0
 44 35  1  0  0  0  0
 44 40  2  0  0  0  0
 45  2  1  0  0  0  0
 46 45  2  0  0  0  0
 47 52  1  0  0  0  0
 48 55  1  0  0  0  0
 48 50  1  0  0  0  0
 50 49  1  0  0  0  0
 51 49  1  0  0  0  0
 51 46  1  0  0  0  0
 52 50  2  0  0  0  0
 53 54  1  0  0  0  0
 53 47  2  0  0  0  0
 54 48  2  0  0  0  0
 55 51  2  0  0  0  0
 56 57  1  0  0  0  0
 57 47  1  0  0  0  0
M  END
>  <MODEL>
6

>  <REMARK>
 VINA RESULT:      -7.6      3.616      7.673
  Name = 
  11 active torsions:
  status: ('A' for Active; 'I' for Inactive)
    1  A    between atoms: C_2  and  N_19
    2  A    between atoms: C_2  and  C_24
    3  A    between atoms: C_3  and  C_8
    4  A    between atoms: C_4  and  C_9
    5  A    between atoms: C_5  and  C_49
    6  A    between atoms: C_9  and  C_20
    7  A    between atoms: C_14  and  C_41
    8  A    between atoms: C_15  and  C_30
    9  A    between atoms: C_18  and  N_35
   10  A    between atoms: C_46  and  N_51
   11  A    between atoms: C_54  and  C_56
                            x       y       z     vdW  Elec       q    Type
                         _______ _______ _______ _____ _____    ______ ____

>  <TORSDO>
F 11

$$$$
=
 OpenBabel11042412443D

 57 64  0  0  1  0  0  0  0  0999 V2000
  189.2130  178.2660  138.7950 C   0  0  2  0  0  3  0  0  0  0  0  0
  189.8690  177.1400  139.6150 C   0  0  0  0  0  0  0  0  0  0  0  0
  188.2900  179.0570  139.5260 O   0  0  0  0  0  0  0  0  0  0  0  0
  188.7850  178.0750  141.6220 C   0  0  0  0  0  2  0  0  0  0  0  0
  189.6110  177.0300  140.9360 C   0  0  0  0  0  0  0  0  0  0  0  0
  188.8100  179.3480  140.7940 C   0  0  0  0  0  2  0  0  0  0  0  0
  186.4490  177.5100  138.8740 O   0  0  0  0  0  0  0  0  0  0  0  0
  186.5270  176.0710  135.3700 C   0  0  1  0  0  0  0  0  0  0  0  0
  185.4030  176.8440  135.5780 C   0  0  2  0  0  3  0  0  0  0  0  0
  187.0590  177.2720  137.7960 C   0  0  0  0  0  0  0  0  0  0  0  0
  186.4580  174.6890  135.4410 F   0  0  0  0  0  0  0  0  0  0  0  0
  188.4660  177.7560  137.5470 C   0  0  2  0  0  3  0  0  0  0  0  0
  187.7330  176.7080  134.6940 C   0  0  0  0  0  2  0  0  0  0  0  0
  189.0000  176.3900  135.4500 C   0  0  0  0  0  3  0  0  0  0  0  0
  186.3660  176.6830  136.7130 N   0  0  0  0  0  0  0  0  0  0  0  0
  189.3070  176.8370  136.6840 C   0  0  0  0  0  3  0  0  0  0  0  0
  184.1450  176.0420  135.8620 C   0  0  0  0  0  2  0  0  0  0  0  0
  183.3700  176.7310  136.8840 N   0  0  0  0  0  2  0  0  0  0  0  0
  182.0600  177.9780  135.4000 O   0  0  0  0  0  0  0  0  0  0  0  0
  182.5230  177.8390  136.5670 C   0  0  0  0  0  0  0  0  0  0  0  0
  181.6930  179.2190  140.0270 C   0  0  1  0  0  3  0  0  0  0  0  0
  182.0190  178.1980  138.9420 C   0  0  0  0  0  2  0  0  0  0  0  0
  181.6960  181.7050  138.3670 O   0  0  0  0  0  1  0  0  0  0  0  0
  181.0130  179.7120  137.2080 C   0  0  0  0  0  2  0  0  0  0  0  0
  180.6830  180.7460  138.2850 C   0  0  1  0  0  3  0  0  0  0  0  0
  182.2390  178.8800  137.5960 C   0  0  2  0  0  3  0  0  0  0  0  0
  180.4790  180.0720  139.6440 C   0  0  0  0  0  2  0  0  0  0  0  0
  181.5240  178.5410  141.3900 C   0  0  0  0  0  2  0  0  0  0  0  0
  185.0940  178.2650  142.8490 C   0  0  0  0  0  2  0  0  0  0  0  0
  182.6890  178.7150  142.3180 C   0  0  0  0  0  0  0  0  0  0  0  0
  184.1040  178.7640  141.7910 C   0  0  0  0  0  2  0  0  0  0  0  0
  182.4540  178.9960  143.6040 C   0  0  0  0  0  3  0  0  0  0  0  0
  183.5700  179.2030  144.5470 C   0  0  0  0  0  3  0  0  0  0  0  0
  184.8190  178.8990  144.1870 C   0  0  0  0  0  3  0  0  0  0  0  0
  190.5900  176.0750  143.1010 C   0  0  0  0  0  0  0  0  0  0  0  0
  191.6480  175.5160  143.4920 O   0  0  0  0  0  0  0  0  0  0  0  0
  190.2570  176.0050  141.7070 N   0  0  0  0  0  2  0  0  0  0  0  0
  188.3480  176.3860  144.1640 C   0  0  0  0  0  3  0  0  0  0  0  0
  188.0390  177.8780  145.9710 C   0  0  0  0  0  3  0  0  0  0  0  0
  190.1910  177.6650  145.0130 C   0  0  0  0  0  0  0  0  0  0  0  0
  187.5450  176.9650  145.0960 N   0  0  0  0  0  0  0  0  0  0  0  0
  191.4940  178.0450  144.9980 F   0  0  0  0  0  0  0  0  0  0  0  0
  189.3500  178.2210  145.9250 N   0  0  0  0  0  0  0  0  0  0  0  0
  189.7030  176.7280  144.0890 C   0  0  0  0  0  0  0  0  0  0  0  0
  190.9570  176.3210  139.0500 C   0  0  0  0  0  3  0  0  0  0  0  0
  192.0490  176.8430  138.5990 N   0  0  0  0  0  0  0  0  0  0  0  0
  196.4510  173.1130  136.6170 C   0  0  0  0  0  0  0  0  0  0  0  0
  194.9830  174.8180  138.2340 C   0  0  0  0  0  0  0  0  0  0  0  0
  193.2480  175.4350  136.5220 S   0  0  0  0  0  0  0  0  0  0  0  0
  194.6500  174.5980  136.9100 C   0  0  0  0  0  0  0  0  0  0  0  0
  193.1310  176.0520  138.1090 C   0  0  0  0  0  0  0  0  0  0  0  0
  195.3550  173.7540  136.1120 N   0  0  0  0  0  0  0  0  0  0  0  0
  196.8280  173.3030  137.9610 C   0  0  0  0  0  3  0  0  0  0  0  0
  196.0850  174.1690  138.7840 C   0  0  0  0  0  3  0  0  0  0  0  0
  194.1360  175.6290  138.9150 N   0  0  0  0  0  0  0  0  0  0  0  0
  198.5860  172.5920  135.6320 N   0  0  0  0  0  1  0  0  0  0  0  0
  197.2060  172.1550  135.7560 C   0  0  0  0  0  2  0  0  0  0  0  0
  1  3  1  1  0  0  0
  1  2  1  0  0  0  0
  2  5  2  0  0  0  0
  3  6  1  0  0  0  0
  5  4  1  0  0  0  0
  5 37  1  0  0  0  0
  6  4  1  0  0  0  0
  8 11  1  6  0  0  0
  8  9  1  0  0  0  0
  8 15  1  0  0  0  0
  9 17  1  1  0  0  0
  9 15  1  0  0  0  0
 10  7  2  0  0  0  0
 12 16  1  1  0  0  0
 12 10  1  0  0  0  0
 12  1  1  0  0  0  0
 13  8  1  0  0  0  0
 13 14  1  0  0  0  0
 14 16  2  0  0  0  0
 15 10  1  0  0  0  0
 17 18  1  0  0  0  0
 19 20  2  0  0  0  0
 20 18  1  0  0  0  0
 21 28  1  1  0  0  0
 22 21  1  0  0  0  0
 24 26  1  0  0  0  0
 24 25  1  0  0  0  0
 25 23  1  1  0  0  0
 25 27  1  0  0  0  0
 26 20  1  6  0  0  0
 26 22  1  0  0  0  0
 27 21  1  0  0  0  0
 28 30  1  0  0  0  0
 29 34  1  0  0  0  0
 30 32  2  0  0  0  0
 31 30  1  0  0  0  0
 31 29  1  0  0  0  0
 32 33  1  0  0  0  0
 34 33  2  0  0  0  0
 35 36  2  0  0  0  0
 35 44  1  0  0  0  0
 37 35  1  0  0  0  0
 38 41  1  0  0  0  0
 40 43  2  0  0  0  0
 41 39  2  0  0  0  0
 42 40  1  0  0  0  0
 43 39  1  0  0  0  0
 44 38  2  0  0  0  0
 44 40  1  0  0  0  0
 45  2  1  0  0  0  0
 46 45  2  0  0  0  0
 47 53  1  0  0  0  0
 48 54  1  0  0  0  0
 48 55  1  0  0  0  0
 49 50  1  0  0  0  0
 49 51  1  0  0  0  0
 50 48  2  0  0  0  0
 51 46  1  0  0  0  0
 51 55  2  0  0  0  0
 52 47  2  0  0  0  0
 52 50  1  0  0  0  0
 53 54  2  0  0  0  0
 56 57  1  0  0  0  0
 57 47  1  0  0  0  0
M  END
>  <MODEL>
7

>  <REMARK>
 VINA RESULT:      -7.4      4.223     10.197
  Name = 
  11 active torsions:
  status: ('A' for Active; 'I' for Inactive)
    1  A    between atoms: C_2  and  N_19
    2  A    between atoms: C_2  and  C_24
    3  A    between atoms: C_3  and  C_8
    4  A    between atoms: C_4  and  C_9
    5  A    between atoms: C_5  and  C_49
    6  A    between atoms: C_9  and  C_20
    7  A    between atoms: C_14  and  C_41
    8  A    between atoms: C_15  and  C_30
    9  A    between atoms: C_18  and  N_35
   10  A    between atoms: C_46  and  N_51
   11  A    between atoms: C_54  and  C_56
                            x       y       z     vdW  Elec       q    Type
                         _______ _______ _______ _____ _____    ______ ____

>  <TORSDO>
F 11

$$$$
=
 OpenBabel11042412443D

 57 64  0  0  1  0  0  0  0  0999 V2000
  182.5620  178.4370  136.5410 C   0  0  2  0  0  3  0  0  0  0  0  0
  181.7900  178.9870  137.7550 C   0  0  0  0  0  0  0  0  0  0  0  0
  181.8210  178.4360  135.3310 O   0  0  0  0  0  0  0  0  0  0  0  0
  179.9770  179.6310  136.2130 C   0  0  0  0  0  2  0  0  0  0  0  0
  180.5500  179.4930  137.5920 C   0  0  0  0  0  0  0  0  0  0  0  0
  181.1120  179.6380  135.2050 C   0  0  0  0  0  2  0  0  0  0  0  0
  184.8470  177.4210  135.1400 O   0  0  0  0  0  0  0  0  0  0  0  0
  184.2670  173.8750  136.3410 C   0  0  1  0  0  0  0  0  0  0  0  0
  185.5960  174.2340  136.4370 C   0  0  2  0  0  3  0  0  0  0  0  0
  184.2010  176.5850  135.8280 C   0  0  0  0  0  0  0  0  0  0  0  0
  183.8170  173.1010  135.2830 F   0  0  0  0  0  0  0  0  0  0  0  0
  183.0760  176.9980  136.7450 C   0  0  2  0  0  3  0  0  0  0  0  0
  183.3890  174.0010  137.5790 C   0  0  0  0  0  2  0  0  0  0  0  0
  182.0890  174.6910  137.2440 C   0  0  0  0  0  3  0  0  0  0  0  0
  184.6340  175.2400  135.8860 N   0  0  0  0  0  0  0  0  0  0  0  0
  181.9600  175.9810  136.8750 C   0  0  0  0  0  3  0  0  0  0  0  0
  186.4640  173.6940  135.3130 C   0  0  0  0  0  2  0  0  0  0  0  0
  187.7220  174.4260  135.2990 N   0  0  0  0  0  2  0  0  0  0  0  0
  188.7440  173.1930  137.0040 O   0  0  0  0  0  0  0  0  0  0  0  0
  188.7030  174.2580  136.3260 C   0  0  0  0  0  0  0  0  0  0  0  0
  192.0540  176.0670  136.5680 C   0  0  1  0  0  3  0  0  0  0  0  0
  191.0490  174.9720  136.2260 C   0  0  0  0  0  2  0  0  0  0  0  0
  190.2190  178.0060  137.9130 O   0  0  0  0  0  1  0  0  0  0  0  0
  189.6020  175.6940  138.1490 C   0  0  0  0  0  2  0  0  0  0  0  0
  190.6010  176.7980  138.5020 C   0  0  1  0  0  3  0  0  0  0  0  0
  189.6400  175.3710  136.6540 C   0  0  2  0  0  3  0  0  0  0  0  0
  192.0150  176.4160  138.0600 C   0  0  0  0  0  2  0  0  0  0  0  0
  193.4610  175.6920  136.0920 C   0  0  0  0  0  2  0  0  0  0  0  0
  193.2570  171.8700  135.5460 C   0  0  0  0  0  2  0  0  0  0  0  0
  193.7830  174.2310  136.1930 C   0  0  0  0  0  0  0  0  0  0  0  0
  193.5140  173.2940  135.0400 C   0  0  0  0  0  2  0  0  0  0  0  0
  194.4650  173.7920  137.2550 C   0  0  0  0  0  3  0  0  0  0  0  0
  194.8280  172.3670  137.3820 C   0  0  0  0  0  3  0  0  0  0  0  0
  194.2950  171.4620  136.5580 C   0  0  0  0  0  3  0  0  0  0  0  0
  179.9580  181.3880  139.2110 C   0  0  0  0  0  0  0  0  0  0  0  0
  179.8790  181.5770  140.4530 O   0  0  0  0  0  0  0  0  0  0  0  0
  179.8490  180.0450  138.7180 N   0  0  0  0  0  2  0  0  0  0  0  0
  178.9700  183.2180  137.8230 C   0  0  0  0  0  3  0  0  0  0  0  0
  180.3360  184.7620  136.6690 C   0  0  0  0  0  3  0  0  0  0  0  0
  181.3590  183.0500  137.9390 C   0  0  0  0  0  0  0  0  0  0  0  0
  179.1070  184.3040  137.0170 N   0  0  0  0  0  0  0  0  0  0  0  0
  182.4990  182.4500  138.3680 F   0  0  0  0  0  0  0  0  0  0  0  0
  181.4480  184.1370  137.1280 N   0  0  0  0  0  0  0  0  0  0  0  0
  180.1000  182.5480  138.3040 C   0  0  0  0  0  0  0  0  0  0  0  0
  182.4600  179.1940  139.0520 C   0  0  0  0  0  3  0  0  0  0  0  0
  182.6290  178.2350  139.9010 N   0  0  0  0  0  0  0  0  0  0  0  0
  185.5810  178.5810  145.2290 C   0  0  0  0  0  0  0  0  0  0  0  0
  183.5660  178.6910  143.3300 C   0  0  0  0  0  0  0  0  0  0  0  0
  185.0150  178.2280  141.3280 S   0  0  0  0  0  0  0  0  0  0  0  0
  184.8870  178.4730  142.9830 C   0  0  0  0  0  0  0  0  0  0  0  0
  183.3310  178.4140  141.1300 C   0  0  0  0  0  0  0  0  0  0  0  0
  185.8810  178.4040  143.9070 N   0  0  0  0  0  0  0  0  0  0  0  0
  184.2490  178.8030  145.6300 C   0  0  0  0  0  3  0  0  0  0  0  0
  183.2240  178.8600  144.6680 C   0  0  0  0  0  3  0  0  0  0  0  0
  182.6860  178.6570  142.2990 N   0  0  0  0  0  0  0  0  0  0  0  0
  187.7240  177.6130  145.7470 N   0  0  0  0  0  1  0  0  0  0  0  0
  186.6620  178.4680  146.2510 C   0  0  0  0  0  2  0  0  0  0  0  0
  1  3  1  6  0  0  0
  1 12  1  0  0  0  0
  1  2  1  0  0  0  0
  2 45  1  0  0  0  0
  4  5  1  0  0  0  0
  5  2  2  0  0  0  0
  5 37  1  0  0  0  0
  6  3  1  0  0  0  0
  6  4  1  0  0  0  0
  7 10  2  0  0  0  0
  8 11  1  6  0  0  0
  8  9  1  0  0  0  0
  8 13  1  0  0  0  0
  9 17  1  6  0  0  0
 10 15  1  0  0  0  0
 10 12  1  0  0  0  0
 12 16  1  6  0  0  0
 14 13  1  0  0  0  0
 15  8  1  0  0  0  0
 15  9  1  0  0  0  0
 16 14  2  0  0  0  0
 18 17  1  0  0  0  0
 18 20  1  0  0  0  0
 20 19  2  0  0  0  0
 21 28  1  1  0  0  0
 21 27  1  0  0  0  0
 22 21  1  0  0  0  0
 22 26  1  0  0  0  0
 24 25  1  0  0  0  0
 25 23  1  6  0  0  0
 26 20  1  1  0  0  0
 26 24  1  0  0  0  0
 27 25  1  0  0  0  0
 28 30  1  0  0  0  0
 29 34  1  0  0  0  0
 30 32  2  0  0  0  0
 31 29  1  0  0  0  0
 31 30  1  0  0  0  0
 32 33  1  0  0  0  0
 34 33  2  0  0  0  0
 35 36  2  0  0  0  0
 37 35  1  0  0  0  0
 38 44  1  0  0  0  0
 39 41  1  0  0  0  0
 39 43  2  0  0  0  0
 40 44  2  0  0  0  0
 40 42  1  0  0  0  0
 41 38  2  0  0  0  0
 43 40  1  0  0  0  0
 44 35  1  0  0  0  0
 45 46  2  0  0  0  0
 46 51  1  0  0  0  0
 47 53  1  0  0  0  0
 47 57  1  0  0  0  0
 48 54  1  0  0  0  0
 49 50  1  0  0  0  0
 50 48  2  0  0  0  0
 50 52  1  0  0  0  0
 51 49  1  0  0  0  0
 51 55  2  0  0  0  0
 52 47  2  0  0  0  0
 54 53  2  0  0  0  0
 55 48  1  0  0  0  0
 56 57  1  0  0  0  0
M  END
>  <MODEL>
8

>  <REMARK>
 VINA RESULT:      -7.1      2.266      3.356
  Name = 
  11 active torsions:
  status: ('A' for Active; 'I' for Inactive)
    1  A    between atoms: C_2  and  N_19
    2  A    between atoms: C_2  and  C_24
    3  A    between atoms: C_3  and  C_8
    4  A    between atoms: C_4  and  C_9
    5  A    between atoms: C_5  and  C_49
    6  A    between atoms: C_9  and  C_20
    7  A    between atoms: C_14  and  C_41
    8  A    between atoms: C_15  and  C_30
    9  A    between atoms: C_18  and  N_35
   10  A    between atoms: C_46  and  N_51
   11  A    between atoms: C_54  and  C_56
                            x       y       z     vdW  Elec       q    Type
                         _______ _______ _______ _____ _____    ______ ____

>  <TORSDO>
F 11

$$$$
=
 OpenBabel11042412443D

 57 64  0  0  1  0  0  0  0  0999 V2000
  180.5800  178.9550  140.5430 C   0  0  2  0  0  3  0  0  0  0  0  0
  180.6930  178.9550  139.0080 C   0  0  0  0  0  0  0  0  0  0  0  0
  180.0280  180.1440  141.0870 O   0  0  0  0  0  0  0  0  0  0  0  0
  179.4470  181.0830  138.9930 C   0  0  0  0  0  2  0  0  0  0  0  0
  180.2050  179.9940  138.2960 C   0  0  0  0  0  0  0  0  0  0  0  0
  178.9310  180.5550  140.3200 C   0  0  0  0  0  2  0  0  0  0  0  0
  180.8430  179.0990  143.3940 O   0  0  0  0  0  0  0  0  0  0  0  0
  184.6250  178.9100  143.2640 C   0  0  1  0  0  0  0  0  0  0  0  0
  184.1070  178.0870  144.2430 C   0  0  2  0  0  3  0  0  0  0  0  0
  181.9160  178.9780  142.7440 C   0  0  0  0  0  0  0  0  0  0  0  0
  185.1560  180.1480  143.5880 F   0  0  0  0  0  0  0  0  0  0  0  0
  181.9280  178.7290  141.2550 C   0  0  2  0  0  3  0  0  0  0  0  0
  184.9560  178.3040  141.9070 C   0  0  0  0  0  2  0  0  0  0  0  0
  184.4070  179.1600  140.7910 C   0  0  0  0  0  3  0  0  0  0  0  0
  183.1490  178.9020  143.4320 N   0  0  0  0  0  0  0  0  0  0  0  0
  183.1000  179.3480  140.5200 C   0  0  0  0  0  3  0  0  0  0  0  0
  184.2000  178.6630  145.6470 C   0  0  0  0  0  2  0  0  0  0  0  0
  185.3980  178.1420  146.2890 N   0  0  0  0  0  2  0  0  0  0  0  0
  185.7710  180.0020  147.6580 O   0  0  0  0  0  0  0  0  0  0  0  0
  186.2370  178.9680  147.1010 C   0  0  0  0  0  0  0  0  0  0  0  0
  189.6150  177.4940  146.1120 C   0  0  1  0  0  3  0  0  0  0  0  0
  188.1400  177.8680  146.0100 C   0  0  0  0  0  2  0  0  0  0  0  0
  190.2150  178.6320  148.8110 O   0  0  0  0  0  1  0  0  0  0  0  0
  187.9580  177.8580  148.5150 C   0  0  0  0  0  2  0  0  0  0  0  0
  189.4370  177.4850  148.6330 C   0  0  1  0  0  3  0  0  0  0  0  0
  187.6880  178.6540  147.2360 C   0  0  2  0  0  3  0  0  0  0  0  0
  189.9050  176.7120  147.3980 C   0  0  0  0  0  2  0  0  0  0  0  0
  190.0850  176.7510  144.8580 C   0  0  0  0  0  2  0  0  0  0  0  0
  188.7640  176.7950  141.2250 C   0  0  0  0  0  2  0  0  0  0  0  0
  189.4860  177.2520  143.5780 C   0  0  0  0  0  0  0  0  0  0  0  0
  188.6810  176.3380  142.6850 C   0  0  0  0  0  2  0  0  0  0  0  0
  189.5270  178.5620  143.3150 C   0  0  0  0  0  3  0  0  0  0  0  0
  188.9250  179.1030  142.0810 C   0  0  0  0  0  3  0  0  0  0  0  0
  188.5270  178.2780  141.1100 C   0  0  0  0  0  3  0  0  0  0  0  0
  179.9560  181.0580  135.9800 C   0  0  0  0  0  0  0  0  0  0  0  0
  179.4210  180.7920  134.8720 O   0  0  0  0  0  0  0  0  0  0  0  0
  180.2730  179.9720  136.8610 N   0  0  0  0  0  2  0  0  0  0  0  0
  179.4870  183.5110  135.8550 C   0  0  0  0  0  3  0  0  0  0  0  0
  180.8550  185.0840  136.9680 C   0  0  0  0  0  3  0  0  0  0  0  0
  181.3890  182.7850  137.1240 C   0  0  0  0  0  0  0  0  0  0  0  0
  179.7830  184.7950  136.1880 N   0  0  0  0  0  0  0  0  0  0  0  0
  182.2140  181.8170  137.6000 F   0  0  0  0  0  0  0  0  0  0  0  0
  181.6470  184.0840  137.4290 N   0  0  0  0  0  0  0  0  0  0  0  0
  180.2930  182.4610  136.3090 C   0  0  0  0  0  0  0  0  0  0  0  0
  181.1070  177.7450  138.2750 C   0  0  0  0  0  3  0  0  0  0  0  0
  181.6730  176.7430  138.8620 N   0  0  0  0  0  0  0  0  0  0  0  0
  183.1760  171.4210  136.2870 C   0  0  0  0  0  0  0  0  0  0  0  0
  183.3710  173.9700  137.3580 C   0  0  0  0  0  0  0  0  0  0  0  0
  180.9060  174.3560  137.6610 S   0  0  0  0  0  0  0  0  0  0  0  0
  182.1500  173.3620  137.1310 C   0  0  0  0  0  0  0  0  0  0  0  0
  182.0190  175.5440  138.1710 C   0  0  0  0  0  0  0  0  0  0  0  0
  182.0420  172.1090  136.6190 N   0  0  0  0  0  0  0  0  0  0  0  0
  184.4440  171.9970  136.5030 C   0  0  0  0  0  3  0  0  0  0  0  0
  184.5460  173.2910  137.0450 C   0  0  0  0  0  3  0  0  0  0  0  0
  183.3090  175.1910  137.9430 N   0  0  0  0  0  0  0  0  0  0  0  0
  181.7470  169.8280  135.1830 N   0  0  0  0  0  1  0  0  0  0  0  0
  183.0660  170.0290  135.7610 C   0  0  0  0  0  2  0  0  0  0  0  0
  1  2  1  6  0  0  0
  1  3  1  0  0  0  0
  1 12  1  0  0  0  0
  4  6  1  0  0  0  0
  5  4  1  0  0  0  0
  5  2  2  0  0  0  0
  6  3  1  0  0  0  0
  8 15  1  0  0  0  0
  8 11  1  1  0  0  0
  8  9  1  0  0  0  0
  9 17  1  1  0  0  0
 10  7  2  0  0  0  0
 10 15  1  0  0  0  0
 12 16  1  6  0  0  0
 12 10  1  0  0  0  0
 13  8  1  0  0  0  0
 14 13  1  0  0  0  0
 15  9  1  0  0  0  0
 16 14  2  0  0  0  0
 17 18  1  0  0  0  0
 18 20  1  0  0  0  0
 20 19  2  0  0  0  0
 21 28  1  6  0  0  0
 21 27  1  0  0  0  0
 22 21  1  0  0  0  0
 22 26  1  0  0  0  0
 24 25  1  0  0  0  0
 25 23  1  6  0  0  0
 26 20  1  6  0  0  0
 26 24  1  0  0  0  0
 27 25  1  0  0  0  0
 29 31  1  0  0  0  0
 30 28  1  0  0  0  0
 31 30  1  0  0  0  0
 32 30  2  0  0  0  0
 33 32  1  0  0  0  0
 34 29  1  0  0  0  0
 34 33  2  0  0  0  0
 35 44  1  0  0  0  0
 35 37  1  0  0  0  0
 36 35  2  0  0  0  0
 37  5  1  0  0  0  0
 38 41  2  0  0  0  0
 38 44  1  0  0  0  0
 39 43  2  0  0  0  0
 40 43  1  0  0  0  0
 40 42  1  0  0  0  0
 41 39  1  0  0  0  0
 44 40  2  0  0  0  0
 45 46  2  0  0  0  0
 45  2  1  0  0  0  0
 47 53  2  0  0  0  0
 47 52  1  0  0  0  0
 48 55  1  0  0  0  0
 49 51  1  0  0  0  0
 50 48  1  0  0  0  0
 50 49  1  0  0  0  0
 51 46  1  0  0  0  0
 52 50  2  0  0  0  0
 53 54  1  0  0  0  0
 54 48  2  0  0  0  0
 55 51  2  0  0  0  0
 56 57  1  0  0  0  0
 57 47  1  0  0  0  0
M  END
>  <MODEL>
9

>  <REMARK>
 VINA RESULT:      -6.9      3.219      7.248
  Name = 
  11 active torsions:
  status: ('A' for Active; 'I' for Inactive)
    1  A    between atoms: C_2  and  N_19
    2  A    between atoms: C_2  and  C_24
    3  A    between atoms: C_3  and  C_8
    4  A    between atoms: C_4  and  C_9
    5  A    between atoms: C_5  and  C_49
    6  A    between atoms: C_9  and  C_20
    7  A    between atoms: C_14  and  C_41
    8  A    between atoms: C_15  and  C_30
    9  A    between atoms: C_18  and  N_35
   10  A    between atoms: C_46  and  N_51
   11  A    between atoms: C_54  and  C_56
                            x       y       z     vdW  Elec       q    Type
                         _______ _______ _______ _____ _____    ______ ____

>  <TORSDO>
F 11

$$$$
