=
 OpenBabel11032419343D

 31 34  0  0  1  0  0  0  0  0999 V2000
  189.9600  178.3570  141.3810 N   0  0  0  0  0  0  0  0  0  0  0  0
  189.9290  178.5560  142.7220 O   0  0  0  0  0  0  0  0  0  0  0  0
  193.5020  174.1440  137.5940 C   0  0  0  0  0  2  0  0  0  0  0  0
  191.2520  177.9110  140.8920 C   0  0  1  0  0  3  0  0  0  0  0  0
  192.4940  175.1990  138.0380 C   0  0  0  0  0  2  0  0  0  0  0  0
  189.9680  175.5790  138.2330 N   0  0  0  0  0  2  0  0  0  0  0  0
  190.0150  176.5910  139.2470 C   0  0  0  0  0  0  0  0  0  0  0  0
  193.1900  173.7120  136.1740 C   0  0  0  0  0  2  0  0  0  0  0  0
  188.7510  178.1060  140.6520 C   0  0  0  0  0  0  0  0  0  0  0  0
  190.8110  173.9210  136.7990 N   0  0  0  0  0  0  0  0  0  0  0  0
  191.8960  177.3540  142.1270 C   0  0  0  0  0  2  0  0  0  0  0  0
  188.7650  177.2620  139.6260 C   0  0  0  0  0  3  0  0  0  0  0  0
  190.8590  177.6230  143.2230 C   0  0  2  0  0  3  0  0  0  0  0  0
  191.0680  174.8320  137.6950 C   0  0  0  0  0  0  0  0  0  0  0  0
  191.8160  173.0580  136.1730 C   0  0  0  0  0  2  0  0  0  0  0  0
  191.1230  176.8640  139.8730 N   0  0  0  0  0  0  0  0  0  0  0  0
  190.1470  176.3290  143.6300 C   0  0  2  0  0  3  0  0  0  0  0  0
  190.2530  175.3730  142.6170 O   0  0  0  0  0  1  0  0  0  0  0  0
  188.6780  176.5540  143.9950 C   0  0  0  0  0  2  0  0  0  0  0  0
  188.5010  177.4040  145.2480 C   0  0  2  0  0  3  0  0  0  0  0  0
  189.2530  176.8100  146.4070 C   0  0  0  0  0  3  0  0  0  0  0  0
  189.0100  177.2650  147.6390 C   0  0  0  0  0  3  0  0  0  0  0  0
  187.0100  177.5230  145.5880 C   0  0  0  0  0  2  0  0  0  0  0  0
  186.7310  178.0660  147.0070 C   0  0  0  0  0  2  0  0  0  0  0  0
  187.9960  178.3570  147.8270 C   0  0  0  0  0  2  0  0  0  0  0  0
  187.4600  178.6920  141.1070 C   0  0  0  0  0  2  0  0  0  0  0  0
  185.1100  178.9580  140.2340 C   0  0  0  0  0  0  0  0  0  0  0  0
  184.7170  179.4180  141.3380 O   0  0  0  0  0  0  0  0  0  0  0  0
  186.4730  178.5820  140.0440 N   0  0  0  0  0  2  0  0  0  0  0  0
  183.4260  178.6840  138.2810 N   0  0  0  0  0  0  0  0  0  0  0  0
  184.1780  178.8050  139.1530 C   0  0  0  0  0  0  0  0  0  0  0  0
  1  2  1  0  0  0  0
  2 13  1  0  0  0  0
  3  5  1  0  0  0  0
  4  1  1  0  0  0  0
  4 11  1  1  0  0  0
  6  7  1  0  0  0  0
  7 12  1  0  0  0  0
  7 16  2  0  0  0  0
  8  3  1  0  0  0  0
  9 26  1  0  0  0  0
  9  1  1  0  0  0  0
 10 14  2  0  0  0  0
 11 13  1  0  0  0  0
 12  9  2  0  0  0  0
 13 17  1  6  0  0  0
 14  5  1  0  0  0  0
 14  6  1  0  0  0  0
 15  8  1  0  0  0  0
 15 10  1  0  0  0  0
 16  4  1  0  0  0  0
 17 18  1  6  0  0  0
 17 19  1  0  0  0  0
 20 19  1  6  0  0  0
 20 23  1  0  0  0  0
 20 21  1  0  0  0  0
 21 22  2  0  0  0  0
 22 25  1  0  0  0  0
 23 24  1  0  0  0  0
 24 25  1  0  0  0  0
 27 28  2  0  0  0  0
 29 27  1  0  0  0  0
 29 26  1  0  0  0  0
 30 31  3  0  0  0  0
 31 27  1  0  0  0  0
M  END
>  <MODEL>
1

>  <REMARK>
 VINA RESULT:      -8.2      0.000      0.000
  Name = 
  6 active torsions:
  status: ('A' for Active; 'I' for Inactive)
    1  A    between atoms: C_2  and  C_15
    2  A    between atoms: C_2  and  N_28
    3  A    between atoms: C_3  and  C_26
    4  A    between atoms: C_5  and  C_16
    5  A    between atoms: C_5  and  C_23
    6  A    between atoms: C_8  and  C_16
                            x       y       z     vdW  Elec       q    Type
                         _______ _______ _______ _____ _____    ______ ____

>  <TORSDO>
F 6

$$$$
=
 OpenBabel11032419343D

 31 34  0  0  1  0  0  0  0  0999 V2000
  188.8760  177.0470  144.2980 N   0  0  0  0  0  0  0  0  0  0  0  0
  188.1370  177.0650  145.4350 O   0  0  0  0  0  0  0  0  0  0  0  0
  187.1130  177.0290  137.8540 C   0  0  0  0  0  2  0  0  0  0  0  0
  188.2180  176.3780  143.1910 C   0  0  1  0  0  3  0  0  0  0  0  0
  187.9470  177.0710  139.1300 C   0  0  0  0  0  2  0  0  0  0  0  0
  189.4680  178.6460  140.4610 N   0  0  0  0  0  2  0  0  0  0  0  0
  189.3090  178.0140  141.7380 C   0  0  0  0  0  0  0  0  0  0  0  0
  187.9810  177.4110  136.6690 C   0  0  0  0  0  2  0  0  0  0  0  0
  189.9090  178.0190  144.0850 C   0  0  0  0  0  0  0  0  0  0  0  0
  189.0560  179.0400  138.1830 N   0  0  0  0  0  0  0  0  0  0  0  0
  186.7740  176.4190  143.5940 C   0  0  0  0  0  2  0  0  0  0  0  0
  190.1270  178.4900  142.8610 C   0  0  0  0  0  3  0  0  0  0  0  0
  186.8060  177.0870  144.9720 C   0  0  2  0  0  3  0  0  0  0  0  0
  188.7990  178.3160  139.2350 C   0  0  0  0  0  0  0  0  0  0  0  0
  188.4380  178.8490  136.8680 C   0  0  0  0  0  2  0  0  0  0  0  0
  188.4100  177.0910  141.9240 N   0  0  0  0  0  0  0  0  0  0  0  0
  186.2940  178.5280  144.8920 C   0  0  2  0  0  3  0  0  0  0  0  0
  186.5200  179.1940  146.1000 O   0  0  0  0  0  1  0  0  0  0  0  0
  184.8140  178.6090  144.5130 C   0  0  0  0  0  2  0  0  0  0  0  0
  184.5590  178.2700  143.0480 C   0  0  2  0  0  3  0  0  0  0  0  0
  185.5110  179.0160  142.1530 C   0  0  0  0  0  3  0  0  0  0  0  0
  185.2730  179.0480  140.8390 C   0  0  0  0  0  3  0  0  0  0  0  0
  183.1090  178.6120  142.6820 C   0  0  0  0  0  2  0  0  0  0  0  0
  182.8330  178.6330  141.1630 C   0  0  0  0  0  2  0  0  0  0  0  0
  184.0660  178.3380  140.2970 C   0  0  0  0  0  2  0  0  0  0  0  0
  190.6590  178.5890  145.2380 C   0  0  0  0  0  2  0  0  0  0  0  0
  191.2190  177.0010  147.1130 C   0  0  0  0  0  0  0  0  0  0  0  0
  190.2140  177.3750  147.7730 O   0  0  0  0  0  0  0  0  0  0  0  0
  191.4970  177.5600  145.8310 N   0  0  0  0  0  2  0  0  0  0  0  0
  192.8060  175.1990  148.0930 N   0  0  0  0  0  0  0  0  0  0  0  0
  192.0960  176.0030  147.6560 C   0  0  0  0  0  0  0  0  0  0  0  0
  1  2  1  0  0  0  0
  3  5  1  0  0  0  0
  4 11  1  1  0  0  0
  4  1  1  0  0  0  0
  5 14  1  0  0  0  0
  6  7  1  0  0  0  0
  7 16  2  0  0  0  0
  7 12  1  0  0  0  0
  8 15  1  0  0  0  0
  8  3  1  0  0  0  0
  9  1  1  0  0  0  0
  9 26  1  0  0  0  0
 10 14  2  0  0  0  0
 11 13  1  0  0  0  0
 12  9  2  0  0  0  0
 13 17  1  6  0  0  0
 13  2  1  0  0  0  0
 14  6  1  0  0  0  0
 15 10  1  0  0  0  0
 16  4  1  0  0  0  0
 17 18  1  1  0  0  0
 19 17  1  0  0  0  0
 20 19  1  1  0  0  0
 21 20  1  0  0  0  0
 22 21  2  0  0  0  0
 23 20  1  0  0  0  0
 24 23  1  0  0  0  0
 25 22  1  0  0  0  0
 25 24  1  0  0  0  0
 26 29  1  0  0  0  0
 27 31  1  0  0  0  0
 27 28  2  0  0  0  0
 29 27  1  0  0  0  0
 31 30  3  0  0  0  0
M  END
>  <MODEL>
2

>  <REMARK>
 VINA RESULT:      -7.2      3.418      6.486
  Name = 
  6 active torsions:
  status: ('A' for Active; 'I' for Inactive)
    1  A    between atoms: C_2  and  C_15
    2  A    between atoms: C_2  and  N_28
    3  A    between atoms: C_3  and  C_26
    4  A    between atoms: C_5  and  C_16
    5  A    between atoms: C_5  and  C_23
    6  A    between atoms: C_8  and  C_16
                            x       y       z     vdW  Elec       q    Type
                         _______ _______ _______ _____ _____    ______ ____

>  <TORSDO>
F 6

$$$$
=
 OpenBabel11032419343D

 31 34  0  0  1  0  0  0  0  0999 V2000
  190.1900  177.3820  136.9790 N   0  0  0  0  0  0  0  0  0  0  0  0
  189.7740  177.0820  135.7240 O   0  0  0  0  0  0  0  0  0  0  0  0
  186.8590  177.9930  142.7380 C   0  0  0  0  0  2  0  0  0  0  0  0
  189.1910  178.0770  137.7700 C   0  0  1  0  0  3  0  0  0  0  0  0
  187.9880  177.9170  141.7160 C   0  0  0  0  0  2  0  0  0  0  0  0
  189.9910  176.4560  141.0700 N   0  0  0  0  0  2  0  0  0  0  0  0
  190.0800  176.8670  139.7000 C   0  0  0  0  0  0  0  0  0  0  0  0
  187.4400  177.9320  144.1390 C   0  0  0  0  0  2  0  0  0  0  0  0
  191.2530  176.6400  137.5920 C   0  0  0  0  0  0  0  0  0  0  0  0
  189.0680  176.3170  143.2240 N   0  0  0  0  0  0  0  0  0  0  0  0
  187.9140  177.7350  137.0590 C   0  0  0  0  0  2  0  0  0  0  0  0
  191.2120  176.3880  138.8970 C   0  0  0  0  0  3  0  0  0  0  0  0
  188.3830  176.8980  135.8650 C   0  0  2  0  0  3  0  0  0  0  0  0
  188.9940  176.8330  142.0310 C   0  0  0  0  0  0  0  0  0  0  0  0
  188.1160  176.5790  144.3070 C   0  0  0  0  0  2  0  0  0  0  0  0
  189.1460  177.5890  139.1520 N   0  0  0  0  0  0  0  0  0  0  0  0
  188.0620  175.4160  136.0770 C   0  0  2  0  0  3  0  0  0  0  0  0
  187.5430  174.8550  134.9070 O   0  0  0  0  0  1  0  0  0  0  0  0
  187.1030  175.1810  137.2470 C   0  0  0  0  0  2  0  0  0  0  0  0
  185.8180  174.4750  136.8260 C   0  0  2  0  0  3  0  0  0  0  0  0
  184.6110  175.2800  137.2240 C   0  0  0  0  0  3  0  0  0  0  0  0
  183.4060  174.7080  137.1740 C   0  0  0  0  0  3  0  0  0  0  0  0
  185.7610  173.0810  137.4640 C   0  0  0  0  0  2  0  0  0  0  0  0
  184.3690  172.4140  137.3900 C   0  0  0  0  0  2  0  0  0  0  0  0
  183.2930  173.2810  136.7200 C   0  0  0  0  0  2  0  0  0  0  0  0
  192.3400  176.0510  136.7610 C   0  0  0  0  0  2  0  0  0  0  0  0
  194.3750  174.7880  137.5460 C   0  0  0  0  0  0  0  0  0  0  0  0
  195.1430  175.6180  136.9920 O   0  0  0  0  0  0  0  0  0  0  0  0
  192.9600  174.9490  137.4790 N   0  0  0  0  0  2  0  0  0  0  0  0
  195.3720  172.7610  138.8190 N   0  0  0  0  0  0  0  0  0  0  0  0
  194.9270  173.6670  138.2510 C   0  0  0  0  0  0  0  0  0  0  0  0
  1  9  1  0  0  0  0
  1  4  1  0  0  0  0
  2 13  1  0  0  0  0
  2  1  1  0  0  0  0
  3  8  1  0  0  0  0
  4 11  1  6  0  0  0
  4 16  1  0  0  0  0
  5 14  1  0  0  0  0
  5  3  1  0  0  0  0
  6 14  1  0  0  0  0
  7  6  1  0  0  0  0
  8 15  1  0  0  0  0
  9 12  2  0  0  0  0
 10 15  1  0  0  0  0
 12  7  1  0  0  0  0
 13 17  1  1  0  0  0
 13 11  1  0  0  0  0
 14 10  2  0  0  0  0
 16  7  2  0  0  0  0
 17 18  1  6  0  0  0
 17 19  1  0  0  0  0
 20 21  1  0  0  0  0
 20 19  1  1  0  0  0
 20 23  1  0  0  0  0
 22 21  2  0  0  0  0
 24 23  1  0  0  0  0
 25 22  1  0  0  0  0
 25 24  1  0  0  0  0
 26 29  1  0  0  0  0
 26  9  1  0  0  0  0
 27 31  1  0  0  0  0
 28 27  2  0  0  0  0
 29 27  1  0  0  0  0
 31 30  3  0  0  0  0
M  END
>  <MODEL>
3

>  <REMARK>
 VINA RESULT:      -7.2      3.912      8.486
  Name = 
  6 active torsions:
  status: ('A' for Active; 'I' for Inactive)
    1  A    between atoms: C_2  and  C_15
    2  A    between atoms: C_2  and  N_28
    3  A    between atoms: C_3  and  C_26
    4  A    between atoms: C_5  and  C_16
    5  A    between atoms: C_5  and  C_23
    6  A    between atoms: C_8  and  C_16
                            x       y       z     vdW  Elec       q    Type
                         _______ _______ _______ _____ _____    ______ ____

>  <TORSDO>
F 6

$$$$
=
 OpenBabel11032419343D

 31 34  0  0  1  0  0  0  0  0999 V2000
  182.7780  177.8720  138.3840 N   0  0  0  0  0  0  0  0  0  0  0  0
  182.5910  178.8970  139.2510 O   0  0  0  0  0  0  0  0  0  0  0  0
  188.2770  174.5520  136.5470 C   0  0  0  0  0  2  0  0  0  0  0  0
  184.0820  177.8830  137.7480 C   0  0  1  0  0  3  0  0  0  0  0  0
  186.8200  174.9780  136.6950 C   0  0  0  0  0  2  0  0  0  0  0  0
  184.5960  174.1560  137.6670 N   0  0  0  0  0  2  0  0  0  0  0  0
  183.9770  175.4410  137.8120 C   0  0  0  0  0  0  0  0  0  0  0  0
  188.3410  173.1840  135.8950 C   0  0  0  0  0  2  0  0  0  0  0  0
  182.0060  176.6690  138.5000 C   0  0  0  0  0  0  0  0  0  0  0  0
  186.3260  172.6350  137.2120 N   0  0  0  0  0  0  0  0  0  0  0  0
  184.8960  178.7290  138.6810 C   0  0  0  0  0  2  0  0  0  0  0  0
  182.5700  175.4970  138.2270 C   0  0  0  0  0  3  0  0  0  0  0  0
  183.8840  179.1590  139.7480 C   0  0  2  0  0  3  0  0  0  0  0  0
  185.9390  173.8780  137.2420 C   0  0  0  0  0  0  0  0  0  0  0  0
  187.6680  172.1880  136.8280 C   0  0  0  0  0  2  0  0  0  0  0  0
  184.6590  176.5380  137.6520 N   0  0  0  0  0  0  0  0  0  0  0  0
  184.1140  178.3980  141.0570 C   0  0  2  0  0  3  0  0  0  0  0  0
  182.9270  178.3130  141.7890 O   0  0  0  0  0  1  0  0  0  0  0  0
  185.2200  179.0190  141.9140 C   0  0  0  0  0  2  0  0  0  0  0  0
  185.3900  178.3210  143.2590 C   0  0  2  0  0  3  0  0  0  0  0  0
  184.9830  179.2290  144.3880 C   0  0  0  0  0  3  0  0  0  0  0  0
  185.3040  178.8900  145.6390 C   0  0  0  0  0  3  0  0  0  0  0  0
  186.8480  177.8790  143.4330 C   0  0  0  0  0  2  0  0  0  0  0  0
  187.2130  177.4720  144.8780 C   0  0  0  0  0  2  0  0  0  0  0  0
  186.0580  177.6130  145.8800 C   0  0  0  0  0  2  0  0  0  0  0  0
  180.6170  176.7120  139.0340 C   0  0  0  0  0  2  0  0  0  0  0  0
  179.4870  175.4570  140.9050 C   0  0  0  0  0  0  0  0  0  0  0  0
  178.9350  176.5090  141.3210 O   0  0  0  0  0  0  0  0  0  0  0  0
  180.3350  175.4830  139.7590 N   0  0  0  0  0  2  0  0  0  0  0  0
  179.0840  173.2160  142.1470 N   0  0  0  0  0  0  0  0  0  0  0  0
  179.2640  174.2160  141.5920 C   0  0  0  0  0  0  0  0  0  0  0  0
  1  9  1  0  0  0  0
  1  2  1  0  0  0  0
  2 13  1  0  0  0  0
  3  5  1  0  0  0  0
  4  1  1  0  0  0  0
  4 11  1  1  0  0  0
  5 14  1  0  0  0  0
  6  7  1  0  0  0  0
  7 12  1  0  0  0  0
  8  3  1  0  0  0  0
  8 15  1  0  0  0  0
  9 26  1  0  0  0  0
 10 14  2  0  0  0  0
 11 13  1  0  0  0  0
 12  9  2  0  0  0  0
 13 17  1  1  0  0  0
 14  6  1  0  0  0  0
 15 10  1  0  0  0  0
 16  4  1  0  0  0  0
 16  7  2  0  0  0  0
 17 18  1  1  0  0  0
 17 19  1  0  0  0  0
 20 19  1  6  0  0  0
 20 23  1  0  0  0  0
 20 21  1  0  0  0  0
 21 22  2  0  0  0  0
 22 25  1  0  0  0  0
 23 24  1  0  0  0  0
 24 25  1  0  0  0  0
 26 29  1  0  0  0  0
 27 28  2  0  0  0  0
 27 31  1  0  0  0  0
 29 27  1  0  0  0  0
 31 30  3  0  0  0  0
M  END
>  <MODEL>
4

>  <REMARK>
 VINA RESULT:      -7.2      4.131      6.219
  Name = 
  6 active torsions:
  status: ('A' for Active; 'I' for Inactive)
    1  A    between atoms: C_2  and  C_15
    2  A    between atoms: C_2  and  N_28
    3  A    between atoms: C_3  and  C_26
    4  A    between atoms: C_5  and  C_16
    5  A    between atoms: C_5  and  C_23
    6  A    between atoms: C_8  and  C_16
                            x       y       z     vdW  Elec       q    Type
                         _______ _______ _______ _____ _____    ______ ____

>  <TORSDO>
F 6

$$$$
=
 OpenBabel11032419343D

 31 34  0  0  1  0  0  0  0  0999 V2000
  190.1880  176.8220  137.5020 N   0  0  0  0  0  0  0  0  0  0  0  0
  189.9260  176.1150  136.3760 O   0  0  0  0  0  0  0  0  0  0  0  0
  186.8210  177.4580  143.2370 C   0  0  0  0  0  2  0  0  0  0  0  0
  188.9950  177.2620  138.2010 C   0  0  1  0  0  3  0  0  0  0  0  0
  187.9060  177.5710  142.1710 C   0  0  0  0  0  2  0  0  0  0  0  0
  190.3150  176.8400  141.6990 N   0  0  0  0  0  2  0  0  0  0  0  0
  190.2560  176.9330  140.2700 C   0  0  0  0  0  0  0  0  0  0  0  0
  187.3700  177.9330  144.5700 C   0  0  0  0  0  2  0  0  0  0  0  0
  191.4460  176.6800  138.1750 C   0  0  0  0  0  0  0  0  0  0  0  0
  189.4920  176.8640  143.8980 N   0  0  0  0  0  0  0  0  0  0  0  0
  187.9450  176.3250  137.6800 C   0  0  0  0  0  2  0  0  0  0  0  0
  191.4920  176.7330  139.5030 C   0  0  0  0  0  3  0  0  0  0  0  0
  188.7040  175.4710  136.6590 C   0  0  2  0  0  3  0  0  0  0  0  0
  189.2410  177.0330  142.6310 C   0  0  0  0  0  0  0  0  0  0  0  0
  188.5020  176.9980  144.9700 C   0  0  0  0  0  2  0  0  0  0  0  0
  189.1240  177.1190  139.6540 N   0  0  0  0  0  0  0  0  0  0  0  0
  188.9590  174.0640  137.2070 C   0  0  2  0  0  3  0  0  0  0  0  0
  190.3310  173.8220  137.3140 O   0  0  0  0  0  1  0  0  0  0  0  0
  188.2940  172.9730  136.3640 C   0  0  0  0  0  2  0  0  0  0  0  0
  186.7810  173.1370  136.2690 C   0  0  2  0  0  3  0  0  0  0  0  0
  186.1380  172.9520  137.6160 C   0  0  0  0  0  3  0  0  0  0  0  0
  184.8120  172.8020  137.6860 C   0  0  0  0  0  3  0  0  0  0  0  0
  186.2120  172.1260  135.2660 C   0  0  0  0  0  2  0  0  0  0  0  0
  184.6770  171.9670  135.3370 C   0  0  0  0  0  2  0  0  0  0  0  0
  184.0060  172.8260  136.4190 C   0  0  0  0  0  2  0  0  0  0  0  0
  192.6820  176.3590  137.4080 C   0  0  0  0  0  2  0  0  0  0  0  0
  194.6360  174.7850  137.6410 C   0  0  0  0  0  0  0  0  0  0  0  0
  195.3460  175.5020  136.8870 O   0  0  0  0  0  0  0  0  0  0  0  0
  193.2960  175.1590  137.9530 N   0  0  0  0  0  2  0  0  0  0  0  0
  195.6190  172.6020  138.6380 N   0  0  0  0  0  0  0  0  0  0  0  0
  195.1800  173.5760  138.1930 C   0  0  0  0  0  0  0  0  0  0  0  0
  1  9  1  0  0  0  0
  1  4  1  0  0  0  0
  2 13  1  0  0  0  0
  2  1  1  0  0  0  0
  3  8  1  0  0  0  0
  4 11  1  6  0  0  0
  4 16  1  0  0  0  0
  5 14  1  0  0  0  0
  5  3  1  0  0  0  0
  6 14  1  0  0  0  0
  7  6  1  0  0  0  0
  8 15  1  0  0  0  0
  9 12  2  0  0  0  0
 10 15  1  0  0  0  0
 12  7  1  0  0  0  0
 13 17  1  1  0  0  0
 13 11  1  0  0  0  0
 14 10  2  0  0  0  0
 16  7  2  0  0  0  0
 17 18  1  6  0  0  0
 19 17  1  0  0  0  0
 20 19  1  1  0  0  0
 20 21  1  0  0  0  0
 21 22  2  0  0  0  0
 23 24  1  0  0  0  0
 23 20  1  0  0  0  0
 24 25  1  0  0  0  0
 25 22  1  0  0  0  0
 26 29  1  0  0  0  0
 26  9  1  0  0  0  0
 27 29  1  0  0  0  0
 27 31  1  0  0  0  0
 28 27  2  0  0  0  0
 31 30  3  0  0  0  0
M  END
>  <MODEL>
5

>  <REMARK>
 VINA RESULT:      -7.1      3.852      8.699
  Name = 
  6 active torsions:
  status: ('A' for Active; 'I' for Inactive)
    1  A    between atoms: C_2  and  C_15
    2  A    between atoms: C_2  and  N_28
    3  A    between atoms: C_3  and  C_26
    4  A    between atoms: C_5  and  C_16
    5  A    between atoms: C_5  and  C_23
    6  A    between atoms: C_8  and  C_16
                            x       y       z     vdW  Elec       q    Type
                         _______ _______ _______ _____ _____    ______ ____

>  <TORSDO>
F 6

$$$$
=
 OpenBabel11032419343D

 31 34  0  0  1  0  0  0  0  0999 V2000
  183.7220  179.1910  138.7390 N   0  0  0  0  0  0  0  0  0  0  0  0
  184.0650  180.0140  139.7600 O   0  0  0  0  0  0  0  0  0  0  0  0
  185.5260  172.9270  137.2770 C   0  0  0  0  0  2  0  0  0  0  0  0
  184.7660  178.2510  138.3770 C   0  0  1  0  0  3  0  0  0  0  0  0
  184.8290  174.2830  137.2390 C   0  0  0  0  0  2  0  0  0  0  0  0
  182.5190  175.3420  137.5690 N   0  0  0  0  0  2  0  0  0  0  0  0
  182.9710  176.6670  137.8770 C   0  0  0  0  0  0  0  0  0  0  0  0
  184.8010  171.9590  136.3610 C   0  0  0  0  0  2  0  0  0  0  0  0
  182.3430  178.9380  138.4380 C   0  0  0  0  0  0  0  0  0  0  0  0
  182.7180  173.0450  137.1220 N   0  0  0  0  0  0  0  0  0  0  0  0
  185.6190  178.2160  139.6100 C   0  0  0  0  0  2  0  0  0  0  0  0
  181.9700  177.7320  138.0230 C   0  0  0  0  0  3  0  0  0  0  0  0
  184.9490  179.2360  140.5370 C   0  0  2  0  0  3  0  0  0  0  0  0
  183.3250  174.1740  137.3530 C   0  0  0  0  0  0  0  0  0  0  0  0
  183.3930  171.7630  136.9070 C   0  0  0  0  0  2  0  0  0  0  0  0
  184.2300  176.9150  138.0950 N   0  0  0  0  0  0  0  0  0  0  0  0
  184.1870  178.5330  141.6640 C   0  0  2  0  0  3  0  0  0  0  0  0
  182.8350  178.4050  141.3360 O   0  0  0  0  0  1  0  0  0  0  0  0
  184.3400  179.2420  143.0110 C   0  0  0  0  0  2  0  0  0  0  0  0
  185.0120  178.3710  144.0670 C   0  0  2  0  0  3  0  0  0  0  0  0
  185.1110  179.1010  145.3790 C   0  0  0  0  0  3  0  0  0  0  0  0
  185.8940  178.6030  146.3390 C   0  0  0  0  0  3  0  0  0  0  0  0
  186.4070  177.9560  143.5840 C   0  0  0  0  0  2  0  0  0  0  0  0
  187.3060  177.3650  144.6930 C   0  0  0  0  0  2  0  0  0  0  0  0
  186.6480  177.3300  146.0810 C   0  0  0  0  0  2  0  0  0  0  0  0
  181.3100  179.9790  138.6980 C   0  0  0  0  0  2  0  0  0  0  0  0
  180.8670  182.3830  138.0820 C   0  0  0  0  0  0  0  0  0  0  0  0
  179.7930  182.3870  138.7390 O   0  0  0  0  0  0  0  0  0  0  0  0
  181.6820  181.2140  138.0260 N   0  0  0  0  0  2  0  0  0  0  0  0
  181.6060  184.5190  136.8120 N   0  0  0  0  0  0  0  0  0  0  0  0
  181.2770  183.5660  137.3790 C   0  0  0  0  0  0  0  0  0  0  0  0
  1  2  1  0  0  0  0
  2 13  1  0  0  0  0
  4  1  1  0  0  0  0
  4 11  1  1  0  0  0
  5  3  1  0  0  0  0
  5 14  1  0  0  0  0
  6  7  1  0  0  0  0
  7 12  1  0  0  0  0
  7 16  2  0  0  0  0
  8 15  1  0  0  0  0
  8  3  1  0  0  0  0
  9 26  1  0  0  0  0
  9  1  1  0  0  0  0
 10 14  2  0  0  0  0
 11 13  1  0  0  0  0
 12  9  2  0  0  0  0
 13 17  1  1  0  0  0
 14  6  1  0  0  0  0
 15 10  1  0  0  0  0
 16  4  1  0  0  0  0
 17 18  1  6  0  0  0
 17 19  1  0  0  0  0
 20 19  1  6  0  0  0
 20 21  1  0  0  0  0
 21 22  2  0  0  0  0
 23 20  1  0  0  0  0
 23 24  1  0  0  0  0
 24 25  1  0  0  0  0
 25 22  1  0  0  0  0
 27 28  2  0  0  0  0
 29 27  1  0  0  0  0
 29 26  1  0  0  0  0
 30 31  3  0  0  0  0
 31 27  1  0  0  0  0
M  END
>  <MODEL>
6

>  <REMARK>
 VINA RESULT:      -7.1      4.842      6.516
  Name = 
  6 active torsions:
  status: ('A' for Active; 'I' for Inactive)
    1  A    between atoms: C_2  and  C_15
    2  A    between atoms: C_2  and  N_28
    3  A    between atoms: C_3  and  C_26
    4  A    between atoms: C_5  and  C_16
    5  A    between atoms: C_5  and  C_23
    6  A    between atoms: C_8  and  C_16
                            x       y       z     vdW  Elec       q    Type
                         _______ _______ _______ _____ _____    ______ ____

>  <TORSDO>
F 6

$$$$
=
 OpenBabel11032419343D

 31 34  0  0  1  0  0  0  0  0999 V2000
  183.4200  178.9670  138.9630 N   0  0  0  0  0  0  0  0  0  0  0  0
  183.8000  179.7970  139.9650 O   0  0  0  0  0  0  0  0  0  0  0  0
  185.9660  173.1920  136.7710 C   0  0  0  0  0  2  0  0  0  0  0  0
  184.5250  178.2450  138.3590 C   0  0  1  0  0  3  0  0  0  0  0  0
  185.0530  174.4000  136.9500 C   0  0  0  0  0  2  0  0  0  0  0  0
  182.6970  175.0120  137.7510 N   0  0  0  0  0  2  0  0  0  0  0  0
  182.9650  176.3840  138.0690 C   0  0  0  0  0  0  0  0  0  0  0  0
  185.2600  172.1450  135.9290 C   0  0  0  0  0  2  0  0  0  0  0  0
  182.0730  178.4810  138.8900 C   0  0  0  0  0  0  0  0  0  0  0  0
  183.1980  172.8080  137.1150 N   0  0  0  0  0  0  0  0  0  0  0  0
  185.5830  178.3170  139.4210 C   0  0  0  0  0  2  0  0  0  0  0  0
  181.8420  177.2440  138.4610 C   0  0  0  0  0  3  0  0  0  0  0  0
  184.9310  179.1620  140.5190 C   0  0  2  0  0  3  0  0  0  0  0  0
  183.6370  174.0180  137.3160 C   0  0  0  0  0  0  0  0  0  0  0  0
  184.0310  171.6770  136.6950 C   0  0  0  0  0  2  0  0  0  0  0  0
  184.1820  176.8460  138.0820 N   0  0  0  0  0  0  0  0  0  0  0  0
  184.5200  178.2900  141.7090 C   0  0  2  0  0  3  0  0  0  0  0  0
  183.5010  177.4080  141.3400 O   0  0  0  0  0  1  0  0  0  0  0  0
  184.0930  179.1140  142.9260 C   0  0  0  0  0  2  0  0  0  0  0  0
  185.0640  178.9910  144.0950 C   0  0  2  0  0  3  0  0  0  0  0  0
  186.0470  177.8780  143.8590 C   0  0  0  0  0  3  0  0  0  0  0  0
  186.8020  177.4530  144.8760 C   0  0  0  0  0  3  0  0  0  0  0  0
  184.2840  178.7440  145.3920 C   0  0  0  0  0  2  0  0  0  0  0  0
  185.1610  178.2700  146.5720 C   0  0  0  0  0  2  0  0  0  0  0  0
  186.6470  178.1030  146.2210 C   0  0  0  0  0  2  0  0  0  0  0  0
  180.9440  179.3080  139.3980 C   0  0  0  0  0  2  0  0  0  0  0  0
  180.0630  179.6260  141.7380 C   0  0  0  0  0  0  0  0  0  0  0  0
  180.0550  180.8780  141.6000 O   0  0  0  0  0  0  0  0  0  0  0  0
  180.4870  178.7780  140.6730 N   0  0  0  0  0  2  0  0  0  0  0  0
  179.3040  178.5750  143.9840 N   0  0  0  0  0  0  0  0  0  0  0  0
  179.6440  179.0450  142.9820 C   0  0  0  0  0  0  0  0  0  0  0  0
  1  2  1  0  0  0  0
  2 13  1  0  0  0  0
  3  5  1  0  0  0  0
  4  1  1  0  0  0  0
  4 11  1  1  0  0  0
  5 14  1  0  0  0  0
  6  7  1  0  0  0  0
  7 16  2  0  0  0  0
  7 12  1  0  0  0  0
  8 15  1  0  0  0  0
  8  3  1  0  0  0  0
  9  1  1  0  0  0  0
  9 26  1  0  0  0  0
 10 14  2  0  0  0  0
 11 13  1  0  0  0  0
 12  9  2  0  0  0  0
 13 17  1  1  0  0  0
 14  6  1  0  0  0  0
 15 10  1  0  0  0  0
 16  4  1  0  0  0  0
 17 18  1  6  0  0  0
 17 19  1  0  0  0  0
 20 19  1  6  0  0  0
 20 23  1  0  0  0  0
 21 20  1  0  0  0  0
 21 22  2  0  0  0  0
 22 25  1  0  0  0  0
 23 24  1  0  0  0  0
 25 24  1  0  0  0  0
 26 29  1  0  0  0  0
 27 31  1  0  0  0  0
 28 27  2  0  0  0  0
 29 27  1  0  0  0  0
 31 30  3  0  0  0  0
M  END
>  <MODEL>
7

>  <REMARK>
 VINA RESULT:      -7.1      4.772      6.358
  Name = 
  6 active torsions:
  status: ('A' for Active; 'I' for Inactive)
    1  A    between atoms: C_2  and  C_15
    2  A    between atoms: C_2  and  N_28
    3  A    between atoms: C_3  and  C_26
    4  A    between atoms: C_5  and  C_16
    5  A    between atoms: C_5  and  C_23
    6  A    between atoms: C_8  and  C_16
                            x       y       z     vdW  Elec       q    Type
                         _______ _______ _______ _____ _____    ______ ____

>  <TORSDO>
F 6

$$$$
=
 OpenBabel11032419343D

 31 34  0  0  1  0  0  0  0  0999 V2000
  189.6050  177.9930  138.6590 N   0  0  0  0  0  0  0  0  0  0  0  0
  190.4080  177.2160  137.8920 O   0  0  0  0  0  0  0  0  0  0  0  0
  183.0390  179.2030  138.4170 C   0  0  0  0  0  2  0  0  0  0  0  0
  188.4670  178.5360  137.9410 C   0  0  1  0  0  3  0  0  0  0  0  0
  184.4960  179.1880  138.8660 C   0  0  0  0  0  2  0  0  0  0  0  0
  185.9850  178.3190  140.7610 N   0  0  0  0  0  2  0  0  0  0  0  0
  187.2180  178.3080  140.0310 C   0  0  0  0  0  0  0  0  0  0  0  0
  182.1700  179.7510  139.5330 C   0  0  0  0  0  2  0  0  0  0  0  0
  189.5960  177.8470  140.0860 C   0  0  0  0  0  0  0  0  0  0  0  0
  183.6690  178.5440  141.0800 N   0  0  0  0  0  0  0  0  0  0  0  0
  188.3470  177.6090  136.7670 C   0  0  0  0  0  2  0  0  0  0  0  0
  188.4580  177.9970  140.7550 C   0  0  0  0  0  3  0  0  0  0  0  0
  189.5260  176.6490  136.9480 C   0  0  2  0  0  3  0  0  0  0  0  0
  184.6770  178.6280  140.2590 C   0  0  0  0  0  0  0  0  0  0  0  0
  182.2730  178.8000  140.7170 C   0  0  0  0  0  2  0  0  0  0  0  0
  187.2400  178.4960  138.7440 N   0  0  0  0  0  0  0  0  0  0  0  0
  189.0450  175.2770  137.4280 C   0  0  2  0  0  3  0  0  0  0  0  0
  190.1330  174.4370  137.6800 O   0  0  0  0  0  1  0  0  0  0  0  0
  188.0810  174.6120  136.4430 C   0  0  0  0  0  2  0  0  0  0  0  0
  186.6510  174.5450  136.9680 C   0  0  2  0  0  3  0  0  0  0  0  0
  186.3270  173.1620  137.4640 C   0  0  0  0  0  3  0  0  0  0  0  0
  185.0550  172.8450  137.7170 C   0  0  0  0  0  3  0  0  0  0  0  0
  185.6720  174.9530  135.8600 C   0  0  0  0  0  2  0  0  0  0  0  0
  184.1990  174.6010  136.1620 C   0  0  0  0  0  2  0  0  0  0  0  0
  183.9880  173.8800  137.5010 C   0  0  0  0  0  2  0  0  0  0  0  0
  190.8250  177.4160  140.8080 C   0  0  0  0  0  2  0  0  0  0  0  0
  190.4260  176.5640  143.1460 C   0  0  0  0  0  0  0  0  0  0  0  0
  190.3810  175.3730  142.7390 O   0  0  0  0  0  0  0  0  0  0  0  0
  190.6540  177.6370  142.2360 N   0  0  0  0  0  2  0  0  0  0  0  0
  190.0960  177.0740  145.6670 N   0  0  0  0  0  0  0  0  0  0  0  0
  190.2420  176.8470  144.5410 C   0  0  0  0  0  0  0  0  0  0  0  0
  1  9  1  0  0  0  0
  2  1  1  0  0  0  0
  3  5  1  0  0  0  0
  3  8  1  0  0  0  0
  4 11  1  6  0  0  0
  4  1  1  0  0  0  0
  4 16  1  0  0  0  0
  5 14  1  0  0  0  0
  7 12  1  0  0  0  0
  7  6  1  0  0  0  0
  8 15  1  0  0  0  0
  9 12  2  0  0  0  0
  9 26  1  0  0  0  0
 11 13  1  0  0  0  0
 13 17  1  1  0  0  0
 13  2  1  0  0  0  0
 14  6  1  0  0  0  0
 14 10  2  0  0  0  0
 15 10  1  0  0  0  0
 16  7  2  0  0  0  0
 17 18  1  6  0  0  0
 19 17  1  0  0  0  0
 20 19  1  6  0  0  0
 20 21  1  0  0  0  0
 21 22  2  0  0  0  0
 23 24  1  0  0  0  0
 23 20  1  0  0  0  0
 24 25  1  0  0  0  0
 25 22  1  0  0  0  0
 26 29  1  0  0  0  0
 27 31  1  0  0  0  0
 28 27  2  0  0  0  0
 29 27  1  0  0  0  0
 31 30  3  0  0  0  0
M  END
>  <MODEL>
8

>  <REMARK>
 VINA RESULT:      -6.9      3.126      8.041
  Name = 
  6 active torsions:
  status: ('A' for Active; 'I' for Inactive)
    1  A    between atoms: C_2  and  C_15
    2  A    between atoms: C_2  and  N_28
    3  A    between atoms: C_3  and  C_26
    4  A    between atoms: C_5  and  C_16
    5  A    between atoms: C_5  and  C_23
    6  A    between atoms: C_8  and  C_16
                            x       y       z     vdW  Elec       q    Type
                         _______ _______ _______ _____ _____    ______ ____

>  <TORSDO>
F 6

$$$$
=
 OpenBabel11032419343D

 31 34  0  0  1  0  0  0  0  0999 V2000
  184.2890  179.0090  138.7770 N   0  0  0  0  0  0  0  0  0  0  0  0
  183.3860  178.6130  137.8470 O   0  0  0  0  0  0  0  0  0  0  0  0
  184.1670  178.8160  145.4540 C   0  0  0  0  0  2  0  0  0  0  0  0
  183.6840  179.4440  140.0230 C   0  0  1  0  0  3  0  0  0  0  0  0
  184.6370  179.0110  144.0170 C   0  0  0  0  0  2  0  0  0  0  0  0
  186.3230  178.0750  142.3300 N   0  0  0  0  0  2  0  0  0  0  0  0
  185.6390  178.4910  141.1410 C   0  0  0  0  0  0  0  0  0  0  0  0
  185.3580  178.9010  146.3910 C   0  0  0  0  0  2  0  0  0  0  0  0
  185.6450  178.5470  138.7190 C   0  0  0  0  0  0  0  0  0  0  0  0
  186.6280  177.7240  144.6320 N   0  0  0  0  0  0  0  0  0  0  0  0
  182.3300  178.8020  139.9720 C   0  0  0  0  0  2  0  0  0  0  0  0
  186.3040  178.2970  139.8460 C   0  0  0  0  0  3  0  0  0  0  0  0
  182.3180  178.0990  138.6110 C   0  0  2  0  0  3  0  0  0  0  0  0
  185.8710  178.2040  143.6860 C   0  0  0  0  0  0  0  0  0  0  0  0
  186.2990  177.7520  146.0590 C   0  0  0  0  0  2  0  0  0  0  0  0
  184.4270  178.9650  141.1930 N   0  0  0  0  0  0  0  0  0  0  0  0
  182.4650  176.5840  138.7780 C   0  0  2  0  0  3  0  0  0  0  0  0
  182.9120  176.2740  140.0650 O   0  0  0  0  0  1  0  0  0  0  0  0
  183.3930  175.9630  137.7310 C   0  0  0  0  0  2  0  0  0  0  0  0
  183.2500  174.4480  137.6370 C   0  0  2  0  0  3  0  0  0  0  0  0
  184.5990  173.7820  137.6390 C   0  0  0  0  0  3  0  0  0  0  0  0
  184.6850  172.4910  137.3050 C   0  0  0  0  0  3  0  0  0  0  0  0
  182.4780  174.0780  136.3640 C   0  0  0  0  0  2  0  0  0  0  0  0
  182.5650  172.5820  135.9890 C   0  0  0  0  0  2  0  0  0  0  0  0
  183.4330  171.7460  136.9410 C   0  0  0  0  0  2  0  0  0  0  0  0
  186.2810  178.2360  137.4090 C   0  0  0  0  0  2  0  0  0  0  0  0
  188.7990  178.2140  137.5270 C   0  0  0  0  0  0  0  0  0  0  0  0
  188.8550  179.4420  137.2520 O   0  0  0  0  0  0  0  0  0  0  0  0
  187.5430  177.5470  137.6310 N   0  0  0  0  0  2  0  0  0  0  0  0
  190.9890  176.8780  137.9030 N   0  0  0  0  0  0  0  0  0  0  0  0
  190.0120  177.4750  137.7350 C   0  0  0  0  0  0  0  0  0  0  0  0
  1  4  1  0  0  0  0
  2 13  1  0  0  0  0
  2  1  1  0  0  0  0
  3  8  1  0  0  0  0
  4 11  1  1  0  0  0
  4 16  1  0  0  0  0
  5  3  1  0  0  0  0
  6 14  1  0  0  0  0
  7 16  2  0  0  0  0
  7  6  1  0  0  0  0
  9  1  1  0  0  0  0
  9 12  2  0  0  0  0
 10 15  1  0  0  0  0
 12  7  1  0  0  0  0
 13 17  1  1  0  0  0
 13 11  1  0  0  0  0
 14  5  1  0  0  0  0
 14 10  2  0  0  0  0
 15  8  1  0  0  0  0
 17 18  1  1  0  0  0
 19 17  1  0  0  0  0
 20 21  1  0  0  0  0
 20 19  1  6  0  0  0
 22 21  2  0  0  0  0
 23 20  1  0  0  0  0
 24 23  1  0  0  0  0
 24 25  1  0  0  0  0
 25 22  1  0  0  0  0
 26 29  1  0  0  0  0
 26  9  1  0  0  0  0
 27 29  1  0  0  0  0
 27 31  1  0  0  0  0
 28 27  2  0  0  0  0
 31 30  3  0  0  0  0
M  END
>  <MODEL>
9

>  <REMARK>
 VINA RESULT:      -6.9      3.675      8.971
  Name = 
  6 active torsions:
  status: ('A' for Active; 'I' for Inactive)
    1  A    between atoms: C_2  and  C_15
    2  A    between atoms: C_2  and  N_28
    3  A    between atoms: C_3  and  C_26
    4  A    between atoms: C_5  and  C_16
    5  A    between atoms: C_5  and  C_23
    6  A    between atoms: C_8  and  C_16
                            x       y       z     vdW  Elec       q    Type
                         _______ _______ _______ _____ _____    ______ ____

>  <TORSDO>
F 6

$$$$
