=
 OpenBabel11032420263D

 39 42  0  0  1  0  0  0  0  0999 V2000
  185.3400  178.7620  143.4520 C   0  0  1  0  0  3  0  0  0  0  0  0
  187.2380  177.4340  143.3030 C   0  0  1  0  0  3  0  0  0  0  0  0
  186.8550  178.7630  141.4080 C   0  0  1  0  0  3  0  0  0  0  0  0
  188.4330  177.6230  142.7480 C   0  0  1  0  0  3  0  0  0  0  0  0
  186.9410  177.4500  144.7570 C   0  0  0  0  0  2  0  0  0  0  0  0
  185.5800  178.1340  144.8270 C   0  0  0  0  0  2  0  0  0  0  0  0
  186.1420  177.9320  142.4680 C   0  0  2  0  0  3  0  0  0  0  0  0
  188.2990  178.2560  141.4070 C   0  0  0  0  0  2  0  0  0  0  0  0
  190.8620  176.7820  145.6000 C   0  0  0  0  0  0  0  0  0  0  0  0
  189.7620  177.4770  143.4340 C   0  0  1  0  0  3  0  0  0  0  0  0
  190.4200  178.8280  143.6810 C   0  0  0  0  0  2  0  0  0  0  0  0
  189.6280  176.6960  144.7410 C   0  0  0  0  0  2  0  0  0  0  0  0
  191.7870  177.6770  145.3830 N   0  0  0  0  0  0  0  0  0  0  0  0
  190.9340  175.9410  146.7540 N   0  0  0  0  0  2  0  0  0  0  0  0
  191.8180  178.5760  144.2270 C   0  0  0  0  0  2  0  0  0  0  0  0
  192.0280  175.9620  147.6340 C   0  0  0  0  0  0  0  0  0  0  0  0
  192.9650  175.9790  148.3910 C   0  0  0  0  0  3  0  0  0  0  0  0
  183.9220  178.7850  143.1070 N   0  0  0  0  0  2  0  0  0  0  0  0
  183.1000  179.2930  145.2420 O   0  0  0  0  0  0  0  0  0  0  0  0
  182.8580  179.0220  144.0370 C   0  0  0  0  0  0  0  0  0  0  0  0
  181.4470  178.8910  143.5840 C   0  0  0  0  0  2  0  0  0  0  0  0
  181.4170  178.7650  142.1380 N   0  0  0  0  0  2  0  0  0  0  0  0
  180.0450  178.9890  141.7060 C   0  0  2  0  0  3  0  0  0  0  0  0
  180.8880  177.3780  140.4400 C   0  0  0  0  0  1  0  0  0  0  0  0
  179.7250  178.1160  140.6590 O   0  0  0  0  0  0  0  0  0  0  0  0
  179.8760  180.4070  141.2560 C   0  0  0  0  0  0  0  0  0  0  0  0
  179.4640  181.2440  142.0430 O   0  0  0  0  0  0  0  0  0  0  0  0
  179.4320  181.9870  139.4900 N   0  0  0  0  0  1  0  0  0  0  0  0
  180.1860  180.7990  139.8480 C   0  0  0  0  0  2  0  0  0  0  0  0
  186.2150  178.6050  140.0620 C   0  0  0  0  0  0  0  0  0  0  0  0
  186.9650  178.1720  139.0570 C   0  0  0  0  0  3  0  0  0  0  0  0
  186.4120  177.9820  137.7550 N   0  0  0  0  0  2  0  0  0  0  0  0
  186.6700  177.6460  135.4760 O   0  0  0  0  0  0  0  0  0  0  0  0
  187.2110  177.9520  136.5720 C   0  0  0  0  0  0  0  0  0  0  0  0
  189.4830  176.9490  136.7690 C   0  0  0  0  0  2  0  0  0  0  0  0
  188.6860  178.2350  136.6290 C   0  0  0  0  0  3  0  0  0  0  0  0
  189.3630  177.6160  135.4190 C   0  0  0  0  0  2  0  0  0  0  0  0
  184.4650  180.1150  139.4450 O   0  0  0  0  0  1  0  0  0  0  0  0
  184.8640  178.9010  139.8420 O   0  0  0  0  0  0  0  0  0  0  0  0
  1 18  1  6  0  0  0
  1  6  1  0  0  0  0
  2  5  1  1  0  0  0
  3 30  1  6  0  0  0
  3  7  1  0  0  0  0
  4  8  1  1  0  0  0
  4  2  1  0  0  0  0
  4 10  1  0  0  0  0
  5  6  1  0  0  0  0
  7  2  1  0  0  0  0
  7  1  1  0  0  0  0
  8  3  1  0  0  0  0
  9 14  1  0  0  0  0
 10 11  1  0  0  0  0
 10 12  1  0  0  0  0
 11 15  1  0  0  0  0
 12  9  1  0  0  0  0
 13  9  2  0  0  0  0
 14 16  1  0  0  0  0
 15 13  1  0  0  0  0
 16 17  3  0  0  0  0
 18 20  1  0  0  0  0
 20 19  2  0  0  0  0
 21 20  1  0  0  0  0
 22 21  1  0  0  0  0
 23 22  1  0  0  0  0
 24 25  1  0  0  0  0
 25 23  1  0  0  0  0
 26 23  1  0  0  0  0
 26 27  2  0  0  0  0
 28 29  1  0  0  0  0
 29 26  1  0  0  0  0
 31 30  2  0  0  0  0
 32 31  1  0  0  0  0
 33 34  2  0  0  0  0
 34 36  1  0  0  0  0
 34 32  1  0  0  0  0
 36 35  1  0  0  0  0
 37 36  1  0  0  0  0
 37 35  1  0  0  0  0
 38 39  1  0  0  0  0
 39 30  1  0  0  0  0
M  END
>  <MODEL>
1

>  <REMARK>
 VINA RESULT:      -8.0      0.000      0.000
  Name = 
  13 active torsions:
  status: ('A' for Active; 'I' for Inactive)
    1  A    between atoms: N_3  and  C_37
    2  A    between atoms: C_4  and  N_22
    3  A    between atoms: C_6  and  C_12
    4  A    between atoms: C_6  and  C_31
    5  A    between atoms: C_7  and  N_20
    6  A    between atoms: C_7  and  C_39
    7  A    between atoms: C_10  and  C_15
    8  A    between atoms: C_11  and  C_23
    9  A    between atoms: C_12  and  N_20
   10  A    between atoms: C_12  and  O_24
   11  A    between atoms: C_17  and  C_18
   12  A    between atoms: C_17  and  O_33
   13  A    between atoms: C_27  and  N_32
                            x       y       z     vdW  Elec       q    Type
                         _______ _______ _______ _____ _____    ______ ____

>  <TORSDO>
F 13

$$$$
=
 OpenBabel11032420263D

 39 42  0  0  1  0  0  0  0  0999 V2000
  187.5270  177.6070  142.8160 C   0  0  1  0  0  3  0  0  0  0  0  0
  186.0500  178.9230  141.6030 C   0  0  1  0  0  3  0  0  0  0  0  0
  187.6210  177.7900  140.2800 C   0  0  1  0  0  3  0  0  0  0  0  0
  185.4780  178.7770  140.4100 C   0  0  1  0  0  3  0  0  0  0  0  0
  185.3760  178.7680  142.9160 C   0  0  0  0  0  2  0  0  0  0  0  0
  186.4400  178.0940  143.7770 C   0  0  0  0  0  2  0  0  0  0  0  0
  187.4580  178.5200  141.6070 C   0  0  2  0  0  3  0  0  0  0  0  0
  186.4620  178.2790  139.4090 C   0  0  0  0  0  2  0  0  0  0  0  0
  182.0430  177.4910  139.2710 C   0  0  0  0  0  0  0  0  0  0  0  0
  184.0040  178.8410  140.1190 C   0  0  1  0  0  3  0  0  0  0  0  0
  183.7000  179.7770  138.9570 C   0  0  0  0  0  2  0  0  0  0  0  0
  183.4320  177.4490  139.8540 C   0  0  0  0  0  2  0  0  0  0  0  0
  181.5460  178.5880  138.7670 N   0  0  0  0  0  0  0  0  0  0  0  0
  181.3270  176.2590  139.1580 N   0  0  0  0  0  2  0  0  0  0  0  0
  182.1880  179.9020  138.8410 C   0  0  0  0  0  2  0  0  0  0  0  0
  180.0380  176.1860  138.6060 C   0  0  0  0  0  0  0  0  0  0  0  0
  178.9310  176.1220  138.1340 C   0  0  0  0  0  3  0  0  0  0  0  0
  188.8480  177.6320  143.4360 N   0  0  0  0  0  2  0  0  0  0  0  0
  189.4910  175.4520  142.8680 O   0  0  0  0  0  0  0  0  0  0  0  0
  189.7630  176.5300  143.4580 C   0  0  0  0  0  0  0  0  0  0  0  0
  191.0260  176.6420  144.2350 C   0  0  0  0  0  2  0  0  0  0  0  0
  190.9270  177.7620  145.1530 N   0  0  0  0  0  2  0  0  0  0  0  0
  191.0220  177.2310  146.5060 C   0  0  2  0  0  3  0  0  0  0  0  0
  192.2990  175.7840  147.5930 C   0  0  0  0  0  1  0  0  0  0  0  0
  191.4830  175.9100  146.4690 O   0  0  0  0  0  0  0  0  0  0  0  0
  189.6800  177.2830  147.1690 C   0  0  0  0  0  0  0  0  0  0  0  0
  188.7780  176.5700  146.7610 O   0  0  0  0  0  0  0  0  0  0  0  0
  188.1630  177.9000  148.9390 N   0  0  0  0  0  1  0  0  0  0  0  0
  189.4310  178.2170  148.3090 C   0  0  0  0  0  2  0  0  0  0  0  0
  188.9480  178.0840  139.6480 C   0  0  0  0  0  0  0  0  0  0  0  0
  189.9420  177.2280  139.8470 C   0  0  0  0  0  3  0  0  0  0  0  0
  191.2240  177.4400  139.2570 N   0  0  0  0  0  2  0  0  0  0  0  0
  192.8880  176.8350  137.7600 O   0  0  0  0  0  0  0  0  0  0  0  0
  191.8170  176.5170  138.3430 C   0  0  0  0  0  0  0  0  0  0  0  0
  190.3450  175.2820  136.7570 C   0  0  0  0  0  2  0  0  0  0  0  0
  191.1580  175.2010  138.0380 C   0  0  0  0  0  3  0  0  0  0  0  0
  191.7170  174.6500  136.7380 C   0  0  0  0  0  2  0  0  0  0  0  0
  188.9030  179.2330  137.5510 O   0  0  0  0  0  1  0  0  0  0  0  0
  189.1600  179.2240  138.8640 O   0  0  0  0  0  0  0  0  0  0  0  0
  1 18  1  1  0  0  0
  1  6  1  0  0  0  0
  2  7  1  0  0  0  0
  2  5  1  1  0  0  0
  3 30  1  6  0  0  0
  3  7  1  0  0  0  0
  4  8  1  1  0  0  0
  4  2  1  0  0  0  0
  5  6  1  0  0  0  0
  7  1  1  0  0  0  0
  8  3  1  0  0  0  0
  9 12  1  0  0  0  0
 10  4  1  0  0  0  0
 11 10  1  0  0  0  0
 12 10  1  0  0  0  0
 13 15  1  0  0  0  0
 13  9  2  0  0  0  0
 14  9  1  0  0  0  0
 15 11  1  0  0  0  0
 16 14  1  0  0  0  0
 17 16  3  0  0  0  0
 18 20  1  0  0  0  0
 19 20  2  0  0  0  0
 20 21  1  0  0  0  0
 21 22  1  0  0  0  0
 22 23  1  0  0  0  0
 23 26  1  0  0  0  0
 25 23  1  0  0  0  0
 25 24  1  0  0  0  0
 26 29  1  0  0  0  0
 27 26  2  0  0  0  0
 29 28  1  0  0  0  0
 30 31  2  0  0  0  0
 32 31  1  0  0  0  0
 33 34  2  0  0  0  0
 34 32  1  0  0  0  0
 35 36  1  0  0  0  0
 36 34  1  0  0  0  0
 37 35  1  0  0  0  0
 37 36  1  0  0  0  0
 38 39  1  0  0  0  0
 39 30  1  0  0  0  0
M  END
>  <MODEL>
2

>  <REMARK>
 VINA RESULT:      -8.0      3.548      8.707
  Name = 
  13 active torsions:
  status: ('A' for Active; 'I' for Inactive)
    1  A    between atoms: N_3  and  C_37
    2  A    between atoms: C_4  and  N_22
    3  A    between atoms: C_6  and  C_12
    4  A    between atoms: C_6  and  C_31
    5  A    between atoms: C_7  and  N_20
    6  A    between atoms: C_7  and  C_39
    7  A    between atoms: C_10  and  C_15
    8  A    between atoms: C_11  and  C_23
    9  A    between atoms: C_12  and  N_20
   10  A    between atoms: C_12  and  O_24
   11  A    between atoms: C_17  and  C_18
   12  A    between atoms: C_17  and  O_33
   13  A    between atoms: C_27  and  N_32
                            x       y       z     vdW  Elec       q    Type
                         _______ _______ _______ _____ _____    ______ ____

>  <TORSDO>
F 13

$$$$
=
 OpenBabel11032420263D

 39 42  0  0  1  0  0  0  0  0999 V2000
  185.4690  179.4180  141.5810 C   0  0  1  0  0  3  0  0  0  0  0  0
  186.7410  177.9590  142.8620 C   0  0  1  0  0  3  0  0  0  0  0  0
  187.8390  178.7470  140.9450 C   0  0  1  0  0  3  0  0  0  0  0  0
  188.0400  177.8980  143.1420 C   0  0  1  0  0  3  0  0  0  0  0  0
  185.6690  178.3930  143.7940 C   0  0  0  0  0  2  0  0  0  0  0  0
  184.7180  179.1720  142.8920 C   0  0  0  0  0  2  0  0  0  0  0  0
  186.4790  178.2930  141.4600 C   0  0  2  0  0  3  0  0  0  0  0  0
  188.8560  178.1500  141.9220 C   0  0  0  0  0  2  0  0  0  0  0  0
  190.4860  176.7660  145.8770 C   0  0  0  0  0  0  0  0  0  0  0  0
  188.6510  177.8440  144.5140 C   0  0  1  0  0  3  0  0  0  0  0  0
  187.7030  177.2180  145.5280 C   0  0  0  0  0  2  0  0  0  0  0  0
  189.9870  177.1030  144.4960 C   0  0  0  0  0  2  0  0  0  0  0  0
  189.7020  176.8240  146.9200 N   0  0  0  0  0  0  0  0  0  0  0  0
  191.8110  176.2470  146.0030 N   0  0  0  0  0  2  0  0  0  0  0  0
  188.3360  177.3510  146.9050 C   0  0  0  0  0  2  0  0  0  0  0  0
  192.3620  175.8780  147.2400 C   0  0  0  0  0  0  0  0  0  0  0  0
  192.8330  175.5610  148.3030 C   0  0  0  0  0  3  0  0  0  0  0  0
  184.5630  179.4540  140.4370 N   0  0  0  0  0  2  0  0  0  0  0  0
  183.4280  177.4550  140.8860 O   0  0  0  0  0  0  0  0  0  0  0  0
  183.5970  178.4430  140.1260 C   0  0  0  0  0  0  0  0  0  0  0  0
  182.8230  178.5350  138.8590 C   0  0  0  0  0  2  0  0  0  0  0  0
  182.0660  179.7730  138.8470 N   0  0  0  0  0  2  0  0  0  0  0  0
  180.6640  179.4330  139.0430 C   0  0  2  0  0  3  0  0  0  0  0  0
  180.7600  180.9770  137.4570 C   0  0  0  0  0  1  0  0  0  0  0  0
  179.8640  180.1830  138.1720 O   0  0  0  0  0  0  0  0  0  0  0  0
  180.2670  179.7060  140.4610 C   0  0  0  0  0  0  0  0  0  0  0  0
  180.1620  180.8590  140.8460 O   0  0  0  0  0  0  0  0  0  0  0  0
  179.9130  177.3310  140.6800 N   0  0  0  0  0  1  0  0  0  0  0  0
  180.0230  178.5800  141.4120 C   0  0  0  0  0  2  0  0  0  0  0  0
  188.0820  178.2780  139.5420 C   0  0  0  0  0  0  0  0  0  0  0  0
  189.3310  178.2610  139.0930 C   0  0  0  0  0  3  0  0  0  0  0  0
  189.6320  177.8070  137.7750 N   0  0  0  0  0  2  0  0  0  0  0  0
  190.6840  176.3260  136.3350 O   0  0  0  0  0  0  0  0  0  0  0  0
  190.5710  176.7640  137.5110 C   0  0  0  0  0  0  0  0  0  0  0  0
  192.4680  175.2490  138.0680 C   0  0  0  0  0  2  0  0  0  0  0  0
  191.3830  176.1580  138.6200 C   0  0  0  0  0  3  0  0  0  0  0  0
  192.8160  176.6480  138.5190 C   0  0  0  0  0  2  0  0  0  0  0  0
  186.4700  178.6960  137.8260 O   0  0  0  0  0  1  0  0  0  0  0  0
  187.0380  177.8640  138.7060 O   0  0  0  0  0  0  0  0  0  0  0  0
  1 18  1  6  0  0  0
  1  6  1  0  0  0  0
  2  4  1  0  0  0  0
  2  5  1  1  0  0  0
  3 30  1  6  0  0  0
  3  7  1  0  0  0  0
  3  8  1  0  0  0  0
  4  8  1  1  0  0  0
  4 10  1  0  0  0  0
  6  5  1  0  0  0  0
  7  1  1  0  0  0  0
  7  2  1  0  0  0  0
  9 14  1  0  0  0  0
  9 13  2  0  0  0  0
 10 11  1  0  0  0  0
 11 15  1  0  0  0  0
 12 10  1  0  0  0  0
 12  9  1  0  0  0  0
 14 16  1  0  0  0  0
 15 13  1  0  0  0  0
 16 17  3  0  0  0  0
 20 18  1  0  0  0  0
 20 19  2  0  0  0  0
 21 20  1  0  0  0  0
 22 21  1  0  0  0  0
 22 23  1  0  0  0  0
 23 26  1  0  0  0  0
 24 25  1  0  0  0  0
 25 23  1  0  0  0  0
 26 27  2  0  0  0  0
 26 29  1  0  0  0  0
 28 29  1  0  0  0  0
 31 30  2  0  0  0  0
 32 31  1  0  0  0  0
 33 34  2  0  0  0  0
 34 32  1  0  0  0  0
 34 36  1  0  0  0  0
 35 37  1  0  0  0  0
 35 36  1  0  0  0  0
 37 36  1  0  0  0  0
 38 39  1  0  0  0  0
 39 30  1  0  0  0  0
M  END
>  <MODEL>
3

>  <REMARK>
 VINA RESULT:      -8.0      2.133      2.954
  Name = 
  13 active torsions:
  status: ('A' for Active; 'I' for Inactive)
    1  A    between atoms: N_3  and  C_37
    2  A    between atoms: C_4  and  N_22
    3  A    between atoms: C_6  and  C_12
    4  A    between atoms: C_6  and  C_31
    5  A    between atoms: C_7  and  N_20
    6  A    between atoms: C_7  and  C_39
    7  A    between atoms: C_10  and  C_15
    8  A    between atoms: C_11  and  C_23
    9  A    between atoms: C_12  and  N_20
   10  A    between atoms: C_12  and  O_24
   11  A    between atoms: C_17  and  C_18
   12  A    between atoms: C_17  and  O_33
   13  A    between atoms: C_27  and  N_32
                            x       y       z     vdW  Elec       q    Type
                         _______ _______ _______ _____ _____    ______ ____

>  <TORSDO>
F 13

$$$$
=
 OpenBabel11032420263D

 39 42  0  0  1  0  0  0  0  0999 V2000
  185.6550  179.3680  141.3040 C   0  0  1  0  0  3  0  0  0  0  0  0
  186.8630  177.9160  142.6530 C   0  0  1  0  0  3  0  0  0  0  0  0
  188.0540  178.6970  140.7890 C   0  0  1  0  0  3  0  0  0  0  0  0
  188.1480  177.8580  142.9970 C   0  0  1  0  0  3  0  0  0  0  0  0
  185.7470  178.3520  143.5290 C   0  0  0  0  0  2  0  0  0  0  0  0
  184.8410  179.1270  142.5770 C   0  0  0  0  0  2  0  0  0  0  0  0
  186.6710  178.2440  141.2380 C   0  0  2  0  0  3  0  0  0  0  0  0
  189.0220  178.1060  141.8170 C   0  0  0  0  0  2  0  0  0  0  0  0
  190.4950  176.7880  145.8410 C   0  0  0  0  0  0  0  0  0  0  0  0
  188.6900  177.8100  144.3980 C   0  0  1  0  0  3  0  0  0  0  0  0
  187.7180  177.1340  145.3560 C   0  0  0  0  0  2  0  0  0  0  0  0
  190.0540  177.1230  144.4400 C   0  0  0  0  0  2  0  0  0  0  0  0
  189.6580  176.8010  146.8430 N   0  0  0  0  0  0  0  0  0  0  0  0
  191.8320  176.3190  146.0290 N   0  0  0  0  0  2  0  0  0  0  0  0
  188.2750  177.2750  146.7640 C   0  0  0  0  0  2  0  0  0  0  0  0
  192.3340  175.9560  147.2890 C   0  0  0  0  0  0  0  0  0  0  0  0
  192.7630  175.6440  148.3700 C   0  0  0  0  0  3  0  0  0  0  0  0
  184.8070  179.3980  140.1170 N   0  0  0  0  0  2  0  0  0  0  0  0
  183.5150  177.5100  140.6200 O   0  0  0  0  0  0  0  0  0  0  0  0
  183.7870  178.4390  139.8150 C   0  0  0  0  0  0  0  0  0  0  0  0
  183.0800  178.5080  138.5080 C   0  0  0  0  0  2  0  0  0  0  0  0
  181.7810  177.8730  138.6310 N   0  0  0  0  0  2  0  0  0  0  0  0
  180.7690  178.9090  138.4810 C   0  0  2  0  0  3  0  0  0  0  0  0
  180.5740  180.1000  136.6230 C   0  0  0  0  0  1  0  0  0  0  0  0
  181.3090  180.0090  137.8050 O   0  0  0  0  0  0  0  0  0  0  0  0
  180.2710  179.3340  139.8280 C   0  0  0  0  0  0  0  0  0  0  0  0
  180.0640  178.4930  140.6870 O   0  0  0  0  0  0  0  0  0  0  0  0
  179.7240  180.9490  141.5320 N   0  0  0  0  0  1  0  0  0  0  0  0
  180.0020  180.7750  140.1190 C   0  0  0  0  0  2  0  0  0  0  0  0
  188.3670  178.2220  139.4020 C   0  0  0  0  0  0  0  0  0  0  0  0
  188.9280  177.0280  139.2590 C   0  0  0  0  0  3  0  0  0  0  0  0
  189.2320  176.5100  137.9650 N   0  0  0  0  0  2  0  0  0  0  0  0
  188.5640  175.5900  135.9440 O   0  0  0  0  0  0  0  0  0  0  0  0
  188.2510  175.9020  137.1250 C   0  0  0  0  0  0  0  0  0  0  0  0
  185.8800  176.6510  136.9720 C   0  0  0  0  0  2  0  0  0  0  0  0
  186.8490  175.6740  137.6150 C   0  0  0  0  0  3  0  0  0  0  0  0
  185.9760  175.2360  136.4530 C   0  0  0  0  0  2  0  0  0  0  0  0
  189.0360  179.7050  137.6490 O   0  0  0  0  0  1  0  0  0  0  0  0
  188.0850  178.9970  138.2710 O   0  0  0  0  0  0  0  0  0  0  0  0
  1 18  1  6  0  0  0
  1  6  1  0  0  0  0
  2  4  1  0  0  0  0
  2  5  1  1  0  0  0
  3 30  1  6  0  0  0
  3  7  1  0  0  0  0
  3  8  1  0  0  0  0
  4  8  1  1  0  0  0
  4 10  1  0  0  0  0
  6  5  1  0  0  0  0
  7  1  1  0  0  0  0
  7  2  1  0  0  0  0
  9 14  1  0  0  0  0
  9 13  2  0  0  0  0
 10 12  1  0  0  0  0
 10 11  1  0  0  0  0
 11 15  1  0  0  0  0
 12  9  1  0  0  0  0
 14 16  1  0  0  0  0
 15 13  1  0  0  0  0
 16 17  3  0  0  0  0
 20 18  1  0  0  0  0
 20 19  2  0  0  0  0
 21 22  1  0  0  0  0
 21 20  1  0  0  0  0
 23 22  1  0  0  0  0
 23 26  1  0  0  0  0
 24 25  1  0  0  0  0
 25 23  1  0  0  0  0
 26 29  1  0  0  0  0
 26 27  2  0  0  0  0
 29 28  1  0  0  0  0
 31 30  2  0  0  0  0
 32 31  1  0  0  0  0
 33 34  2  0  0  0  0
 34 36  1  0  0  0  0
 34 32  1  0  0  0  0
 35 36  1  0  0  0  0
 37 35  1  0  0  0  0
 37 36  1  0  0  0  0
 38 39  1  0  0  0  0
 39 30  1  0  0  0  0
M  END
>  <MODEL>
4

>  <REMARK>
 VINA RESULT:      -7.9      2.112      2.960
  Name = 
  13 active torsions:
  status: ('A' for Active; 'I' for Inactive)
    1  A    between atoms: N_3  and  C_37
    2  A    between atoms: C_4  and  N_22
    3  A    between atoms: C_6  and  C_12
    4  A    between atoms: C_6  and  C_31
    5  A    between atoms: C_7  and  N_20
    6  A    between atoms: C_7  and  C_39
    7  A    between atoms: C_10  and  C_15
    8  A    between atoms: C_11  and  C_23
    9  A    between atoms: C_12  and  N_20
   10  A    between atoms: C_12  and  O_24
   11  A    between atoms: C_17  and  C_18
   12  A    between atoms: C_17  and  O_33
   13  A    between atoms: C_27  and  N_32
                            x       y       z     vdW  Elec       q    Type
                         _______ _______ _______ _____ _____    ______ ____

>  <TORSDO>
F 13

$$$$
=
 OpenBabel11032420263D

 39 42  0  0  1  0  0  0  0  0999 V2000
  186.0360  179.3550  141.6460 C   0  0  1  0  0  3  0  0  0  0  0  0
  187.1660  177.9060  143.0630 C   0  0  1  0  0  3  0  0  0  0  0  0
  188.4240  178.5970  141.2090 C   0  0  1  0  0  3  0  0  0  0  0  0
  188.4400  177.8190  143.4400 C   0  0  1  0  0  3  0  0  0  0  0  0
  186.0440  178.4020  143.9000 C   0  0  0  0  0  2  0  0  0  0  0  0
  185.1840  179.1760  142.9060 C   0  0  0  0  0  2  0  0  0  0  0  0
  187.0170  178.2000  141.6360 C   0  0  2  0  0  3  0  0  0  0  0  0
  189.3490  178.0060  142.2760 C   0  0  0  0  0  2  0  0  0  0  0  0
  190.7210  176.8030  146.3570 C   0  0  0  0  0  0  0  0  0  0  0  0
  188.9470  177.7950  144.8550 C   0  0  1  0  0  3  0  0  0  0  0  0
  187.9550  177.1280  145.7980 C   0  0  0  0  0  2  0  0  0  0  0  0
  190.3130  177.1150  144.9410 C   0  0  0  0  0  2  0  0  0  0  0  0
  189.8600  176.8270  147.3380 N   0  0  0  0  0  0  0  0  0  0  0  0
  192.0550  176.3440  146.5850 N   0  0  0  0  0  2  0  0  0  0  0  0
  188.4760  177.2920  147.2180 C   0  0  0  0  0  2  0  0  0  0  0  0
  192.5270  176.0030  147.8620 C   0  0  0  0  0  0  0  0  0  0  0  0
  192.9310  175.7090  148.9580 C   0  0  0  0  0  3  0  0  0  0  0  0
  185.2170  179.3780  140.4380 N   0  0  0  0  0  2  0  0  0  0  0  0
  183.7930  177.6060  141.0050 O   0  0  0  0  0  0  0  0  0  0  0  0
  184.1430  178.4720  140.1610 C   0  0  0  0  0  0  0  0  0  0  0  0
  183.4700  178.5180  138.8350 C   0  0  0  0  0  2  0  0  0  0  0  0
  182.6450  179.7090  138.7570 N   0  0  0  0  0  2  0  0  0  0  0  0
  181.2530  179.2800  138.7640 C   0  0  2  0  0  3  0  0  0  0  0  0
  179.8320  178.9500  137.0970 C   0  0  0  0  0  1  0  0  0  0  0  0
  180.5410  179.9500  137.7620 O   0  0  0  0  0  0  0  0  0  0  0  0
  180.6390  179.5640  140.1000 C   0  0  0  0  0  0  0  0  0  0  0  0
  180.4290  180.7180  140.4340 O   0  0  0  0  0  0  0  0  0  0  0  0
  180.4270  177.1750  140.3480 N   0  0  0  0  0  1  0  0  0  0  0  0
  180.3040  178.4470  141.0360 C   0  0  0  0  0  2  0  0  0  0  0  0
  188.7540  178.0740  139.8430 C   0  0  0  0  0  0  0  0  0  0  0  0
  188.7570  178.9290  138.8270 C   0  0  0  0  0  3  0  0  0  0  0  0
  189.0820  178.4990  137.5060 N   0  0  0  0  0  2  0  0  0  0  0  0
  188.4430  177.8780  135.3660 O   0  0  0  0  0  0  0  0  0  0  0  0
  188.0900  178.1160  136.5520 C   0  0  0  0  0  0  0  0  0  0  0  0
  185.8480  177.2360  135.9170 C   0  0  0  0  0  2  0  0  0  0  0  0
  186.6390  178.0400  136.9340 C   0  0  0  0  0  3  0  0  0  0  0  0
  186.2700  176.5960  137.2180 C   0  0  0  0  0  2  0  0  0  0  0  0
  190.3180  176.2820  139.5880 O   0  0  0  0  0  1  0  0  0  0  0  0
  189.0550  176.7260  139.6170 O   0  0  0  0  0  0  0  0  0  0  0  0
  1 18  1  6  0  0  0
  1  6  1  0  0  0  0
  2  4  1  0  0  0  0
  2  5  1  1  0  0  0
  3 30  1  6  0  0  0
  3  7  1  0  0  0  0
  3  8  1  0  0  0  0
  4  8  1  6  0  0  0
  4 10  1  0  0  0  0
  6  5  1  0  0  0  0
  7  1  1  0  0  0  0
  7  2  1  0  0  0  0
  9 14  1  0  0  0  0
  9 13  2  0  0  0  0
 10 12  1  0  0  0  0
 10 11  1  0  0  0  0
 11 15  1  0  0  0  0
 12  9  1  0  0  0  0
 14 16  1  0  0  0  0
 15 13  1  0  0  0  0
 16 17  3  0  0  0  0
 20 18  1  0  0  0  0
 20 19  2  0  0  0  0
 21 20  1  0  0  0  0
 22 23  1  0  0  0  0
 22 21  1  0  0  0  0
 23 26  1  0  0  0  0
 24 25  1  0  0  0  0
 25 23  1  0  0  0  0
 26 27  2  0  0  0  0
 26 29  1  0  0  0  0
 28 29  1  0  0  0  0
 31 30  2  0  0  0  0
 32 31  1  0  0  0  0
 33 34  2  0  0  0  0
 34 36  1  0  0  0  0
 34 32  1  0  0  0  0
 35 36  1  0  0  0  0
 35 37  1  0  0  0  0
 36 37  1  0  0  0  0
 38 39  1  0  0  0  0
 39 30  1  0  0  0  0
M  END
>  <MODEL>
5

>  <REMARK>
 VINA RESULT:      -7.7      2.164      3.026
  Name = 
  13 active torsions:
  status: ('A' for Active; 'I' for Inactive)
    1  A    between atoms: N_3  and  C_37
    2  A    between atoms: C_4  and  N_22
    3  A    between atoms: C_6  and  C_12
    4  A    between atoms: C_6  and  C_31
    5  A    between atoms: C_7  and  N_20
    6  A    between atoms: C_7  and  C_39
    7  A    between atoms: C_10  and  C_15
    8  A    between atoms: C_11  and  C_23
    9  A    between atoms: C_12  and  N_20
   10  A    between atoms: C_12  and  O_24
   11  A    between atoms: C_17  and  C_18
   12  A    between atoms: C_17  and  O_33
   13  A    between atoms: C_27  and  N_32
                            x       y       z     vdW  Elec       q    Type
                         _______ _______ _______ _____ _____    ______ ____

>  <TORSDO>
F 13

$$$$
=
 OpenBabel11032420263D

 39 42  0  0  1  0  0  0  0  0999 V2000
  191.0720  176.3420  136.9800 C   0  0  1  0  0  3  0  0  0  0  0  0
  188.8510  176.2710  137.6490 C   0  0  1  0  0  3  0  0  0  0  0  0
  190.2300  177.5400  139.0600 C   0  0  1  0  0  3  0  0  0  0  0  0
  188.0510  177.1650  138.2260 C   0  0  1  0  0  3  0  0  0  0  0  0
  188.7980  175.8430  136.2280 C   0  0  0  0  0  2  0  0  0  0  0  0
  190.2680  175.6800  135.8580 C   0  0  0  0  0  2  0  0  0  0  0  0
  190.2010  176.2700  138.2190 C   0  0  2  0  0  3  0  0  0  0  0  0
  188.7600  177.8800  139.3220 C   0  0  0  0  0  2  0  0  0  0  0  0
  184.5840  178.8070  138.3840 C   0  0  0  0  0  0  0  0  0  0  0  0
  186.7070  177.6090  137.7190 C   0  0  1  0  0  3  0  0  0  0  0  0
  185.7970  176.4250  137.4230 C   0  0  0  0  0  2  0  0  0  0  0  0
  186.0380  178.5720  138.6990 C   0  0  0  0  0  2  0  0  0  0  0  0
  183.9250  178.0270  137.5700 N   0  0  0  0  0  0  0  0  0  0  0  0
  183.8980  179.8320  139.1080 N   0  0  0  0  0  2  0  0  0  0  0  0
  184.5310  176.9600  136.7700 C   0  0  0  0  0  2  0  0  0  0  0  0
  182.5380  180.1140  138.9080 C   0  0  0  0  0  0  0  0  0  0  0  0
  181.3700  180.3560  138.7360 C   0  0  0  0  0  3  0  0  0  0  0  0
  192.3580  175.6830  137.1860 N   0  0  0  0  0  2  0  0  0  0  0  0
  193.4430  176.5360  135.2930 O   0  0  0  0  0  0  0  0  0  0  0  0
  193.4830  175.7890  136.3060 C   0  0  0  0  0  0  0  0  0  0  0  0
  194.6930  174.9640  136.5610 C   0  0  0  0  0  2  0  0  0  0  0  0
  194.5420  174.2680  137.8260 N   0  0  0  0  0  2  0  0  0  0  0  0
  195.7570  173.4980  138.0520 C   0  0  2  0  0  3  0  0  0  0  0  0
  195.6610  171.3040  137.7640 C   0  0  0  0  0  1  0  0  0  0  0  0
  195.4490  172.3030  138.7130 O   0  0  0  0  0  0  0  0  0  0  0  0
  196.7230  174.2980  138.8700 C   0  0  0  0  0  0  0  0  0  0  0  0
  196.3370  174.8540  139.8850 O   0  0  0  0  0  0  0  0  0  0  0  0
  198.7490  175.5870  139.0960 N   0  0  0  0  0  1  0  0  0  0  0  0
  198.1470  174.4410  138.4400 C   0  0  0  0  0  2  0  0  0  0  0  0
  190.9840  177.3360  140.3400 C   0  0  0  0  0  0  0  0  0  0  0  0
  190.3620  176.7360  141.3470 C   0  0  0  0  0  3  0  0  0  0  0  0
  191.0290  176.4950  142.5840 N   0  0  0  0  0  2  0  0  0  0  0  0
  191.0650  176.5130  144.9030 O   0  0  0  0  0  0  0  0  0  0  0  0
  190.4820  176.8790  143.8460 C   0  0  0  0  0  0  0  0  0  0  0  0
  188.0100  176.7550  144.1290 C   0  0  0  0  0  2  0  0  0  0  0  0
  189.2070  177.6690  143.9270 C   0  0  0  0  0  3  0  0  0  0  0  0
  188.5970  177.4990  145.3060 C   0  0  0  0  0  2  0  0  0  0  0  0
  193.3180  177.1620  139.8450 O   0  0  0  0  0  1  0  0  0  0  0  0
  192.3100  177.7570  140.4950 O   0  0  0  0  0  0  0  0  0  0  0  0
  1 18  1  1  0  0  0
  1  7  1  0  0  0  0
  2  5  1  6  0  0  0
  2  7  1  0  0  0  0
  2  4  1  0  0  0  0
  3  8  1  0  0  0  0
  3 30  1  1  0  0  0
  4  8  1  6  0  0  0
  6  5  1  0  0  0  0
  6  1  1  0  0  0  0
  7  3  1  0  0  0  0
  9 12  1  0  0  0  0
  9 14  1  0  0  0  0
 10  4  1  0  0  0  0
 10 12  1  0  0  0  0
 11 10  1  0  0  0  0
 13  9  2  0  0  0  0
 15 11  1  0  0  0  0
 15 13  1  0  0  0  0
 16 14  1  0  0  0  0
 17 16  3  0  0  0  0
 19 20  2  0  0  0  0
 20 21  1  0  0  0  0
 20 18  1  0  0  0  0
 21 22  1  0  0  0  0
 22 23  1  0  0  0  0
 23 25  1  0  0  0  0
 23 26  1  0  0  0  0
 24 25  1  0  0  0  0
 26 27  2  0  0  0  0
 29 26  1  0  0  0  0
 29 28  1  0  0  0  0
 30 39  1  0  0  0  0
 30 31  2  0  0  0  0
 31 32  1  0  0  0  0
 32 34  1  0  0  0  0
 34 36  1  0  0  0  0
 34 33  2  0  0  0  0
 35 37  1  0  0  0  0
 36 35  1  0  0  0  0
 36 37  1  0  0  0  0
 38 39  1  0  0  0  0
M  END
>  <MODEL>
6

>  <REMARK>
 VINA RESULT:      -7.7      5.331     11.640
  Name = 
  13 active torsions:
  status: ('A' for Active; 'I' for Inactive)
    1  A    between atoms: N_3  and  C_37
    2  A    between atoms: C_4  and  N_22
    3  A    between atoms: C_6  and  C_12
    4  A    between atoms: C_6  and  C_31
    5  A    between atoms: C_7  and  N_20
    6  A    between atoms: C_7  and  C_39
    7  A    between atoms: C_10  and  C_15
    8  A    between atoms: C_11  and  C_23
    9  A    between atoms: C_12  and  N_20
   10  A    between atoms: C_12  and  O_24
   11  A    between atoms: C_17  and  C_18
   12  A    between atoms: C_17  and  O_33
   13  A    between atoms: C_27  and  N_32
                            x       y       z     vdW  Elec       q    Type
                         _______ _______ _______ _____ _____    ______ ____

>  <TORSDO>
F 13

$$$$
=
 OpenBabel11032420263D

 39 42  0  0  1  0  0  0  0  0999 V2000
  189.7880  177.0280  140.8500 C   0  0  1  0  0  3  0  0  0  0  0  0
  189.1020  178.2280  138.9850 C   0  0  1  0  0  3  0  0  0  0  0  0
  190.8260  176.6970  138.5510 C   0  0  1  0  0  3  0  0  0  0  0  0
  188.9860  177.9110  137.6970 C   0  0  1  0  0  3  0  0  0  0  0  0
  187.9810  178.4070  139.9420 C   0  0  0  0  0  2  0  0  0  0  0  0
  188.5270  177.8070  141.2340 C   0  0  0  0  0  2  0  0  0  0  0  0
  190.3210  177.6880  139.5920 C   0  0  2  0  0  3  0  0  0  0  0  0
  190.1650  177.1250  137.2380 C   0  0  0  0  0  2  0  0  0  0  0  0
  185.4450  177.1330  136.4330 C   0  0  0  0  0  0  0  0  0  0  0  0
  187.7530  178.0710  136.8520 C   0  0  1  0  0  3  0  0  0  0  0  0
  188.0210  177.7230  135.3940 C   0  0  0  0  0  2  0  0  0  0  0  0
  186.5950  177.2390  137.4000 C   0  0  0  0  0  2  0  0  0  0  0  0
  185.5790  177.4470  135.1730 N   0  0  0  0  0  0  0  0  0  0  0  0
  184.2280  176.5450  136.9000 N   0  0  0  0  0  2  0  0  0  0  0  0
  186.7730  178.0660  134.5940 C   0  0  0  0  0  2  0  0  0  0  0  0
  183.1070  176.3760  136.0730 C   0  0  0  0  0  0  0  0  0  0  0  0
  182.1430  176.2310  135.3650 C   0  0  0  0  0  3  0  0  0  0  0  0
  190.7770  177.0360  141.9230 N   0  0  0  0  0  2  0  0  0  0  0  0
  189.8200  175.3420  143.2280 O   0  0  0  0  0  0  0  0  0  0  0  0
  190.7270  176.2040  143.0880 C   0  0  0  0  0  0  0  0  0  0  0  0
  191.7270  176.4000  144.1710 C   0  0  0  0  0  2  0  0  0  0  0  0
  191.3410  177.5420  144.9790 N   0  0  0  0  0  2  0  0  0  0  0  0
  191.2170  177.0850  146.3560 C   0  0  2  0  0  3  0  0  0  0  0  0
  192.2860  175.6590  147.6710 C   0  0  0  0  0  1  0  0  0  0  0  0
  191.6160  175.7460  146.4520 O   0  0  0  0  0  0  0  0  0  0  0  0
  189.7980  177.2280  146.8150 C   0  0  0  0  0  0  0  0  0  0  0  0
  188.8970  176.7530  146.1440 O   0  0  0  0  0  0  0  0  0  0  0  0
  188.1760  177.5580  148.5680 N   0  0  0  0  0  1  0  0  0  0  0  0
  189.4780  177.9670  148.0740 C   0  0  0  0  0  2  0  0  0  0  0  0
  192.3210  176.7210  138.4480 C   0  0  0  0  0  0  0  0  0  0  0  0
  192.8950  176.0150  137.4810 C   0  0  0  0  0  3  0  0  0  0  0  0
  194.3120  176.0100  137.3160 N   0  0  0  0  0  2  0  0  0  0  0  0
  196.3300  174.8770  137.1830 O   0  0  0  0  0  0  0  0  0  0  0  0
  195.1050  174.8340  137.4760 C   0  0  0  0  0  0  0  0  0  0  0  0
  194.0010  172.7170  136.7650 C   0  0  0  0  0  2  0  0  0  0  0  0
  194.4890  173.5450  137.9410 C   0  0  0  0  0  3  0  0  0  0  0  0
  195.3160  172.3790  137.4280 C   0  0  0  0  0  2  0  0  0  0  0  0
  193.9590  176.8610  140.1850 O   0  0  0  0  0  1  0  0  0  0  0  0
  193.1150  177.4580  139.3330 O   0  0  0  0  0  0  0  0  0  0  0  0
  1  6  1  0  0  0  0
  1 18  1  1  0  0  0
  2  7  1  0  0  0  0
  2  5  1  1  0  0  0
  3 30  1  6  0  0  0
  3  7  1  0  0  0  0
  4  8  1  1  0  0  0
  4  2  1  0  0  0  0
  5  6  1  0  0  0  0
  7  1  1  0  0  0  0
  8  3  1  0  0  0  0
  9 14  1  0  0  0  0
  9 12  1  0  0  0  0
 10 12  1  0  0  0  0
 10  4  1  0  0  0  0
 11 10  1  0  0  0  0
 13  9  2  0  0  0  0
 15 13  1  0  0  0  0
 15 11  1  0  0  0  0
 16 14  1  0  0  0  0
 17 16  3  0  0  0  0
 18 20  1  0  0  0  0
 20 19  2  0  0  0  0
 20 21  1  0  0  0  0
 21 22  1  0  0  0  0
 22 23  1  0  0  0  0
 23 25  1  0  0  0  0
 23 26  1  0  0  0  0
 25 24  1  0  0  0  0
 26 29  1  0  0  0  0
 27 26  2  0  0  0  0
 29 28  1  0  0  0  0
 30 39  1  0  0  0  0
 31 30  2  0  0  0  0
 32 34  1  0  0  0  0
 32 31  1  0  0  0  0
 33 34  2  0  0  0  0
 34 36  1  0  0  0  0
 35 37  1  0  0  0  0
 35 36  1  0  0  0  0
 37 36  1  0  0  0  0
 39 38  1  0  0  0  0
M  END
>  <MODEL>
7

>  <REMARK>
 VINA RESULT:      -7.6      5.005      9.605
  Name = 
  13 active torsions:
  status: ('A' for Active; 'I' for Inactive)
    1  A    between atoms: N_3  and  C_37
    2  A    between atoms: C_4  and  N_22
    3  A    between atoms: C_6  and  C_12
    4  A    between atoms: C_6  and  C_31
    5  A    between atoms: C_7  and  N_20
    6  A    between atoms: C_7  and  C_39
    7  A    between atoms: C_10  and  C_15
    8  A    between atoms: C_11  and  C_23
    9  A    between atoms: C_12  and  N_20
   10  A    between atoms: C_12  and  O_24
   11  A    between atoms: C_17  and  C_18
   12  A    between atoms: C_17  and  O_33
   13  A    between atoms: C_27  and  N_32
                            x       y       z     vdW  Elec       q    Type
                         _______ _______ _______ _____ _____    ______ ____

>  <TORSDO>
F 13

$$$$
=
 OpenBabel11032420263D

 39 42  0  0  1  0  0  0  0  0999 V2000
  187.0470  177.9750  139.1160 C   0  0  1  0  0  3  0  0  0  0  0  0
  189.3370  178.0780  138.7560 C   0  0  1  0  0  3  0  0  0  0  0  0
  188.7410  177.1420  140.8220 C   0  0  1  0  0  3  0  0  0  0  0  0
  190.3430  177.2730  139.0900 C   0  0  1  0  0  3  0  0  0  0  0  0
  188.7660  178.2390  137.3950 C   0  0  0  0  0  2  0  0  0  0  0  0
  187.2720  178.3910  137.6600 C   0  0  0  0  0  2  0  0  0  0  0  0
  188.3580  178.2360  139.8330 C   0  0  2  0  0  3  0  0  0  0  0  0
  190.1950  176.7960  140.4930 C   0  0  0  0  0  2  0  0  0  0  0  0
  192.1160  174.5440  137.0520 C   0  0  0  0  0  0  0  0  0  0  0  0
  191.3630  176.6910  138.1510 C   0  0  1  0  0  3  0  0  0  0  0  0
  192.7640  176.7290  138.7470 C   0  0  0  0  0  2  0  0  0  0  0  0
  190.9890  175.2670  137.7420 C   0  0  0  0  0  2  0  0  0  0  0  0
  193.3440  174.9860  137.0990 N   0  0  0  0  0  0  0  0  0  0  0  0
  191.8320  173.2780  136.4520 N   0  0  0  0  0  2  0  0  0  0  0  0
  193.7420  176.2730  137.6750 C   0  0  0  0  0  2  0  0  0  0  0  0
  192.8160  172.5130  135.8060 C   0  0  0  0  0  0  0  0  0  0  0  0
  193.6610  171.8570  135.2530 C   0  0  0  0  0  3  0  0  0  0  0  0
  185.9440  178.7110  139.7250 N   0  0  0  0  0  2  0  0  0  0  0  0
  184.1940  177.5180  138.7230 O   0  0  0  0  0  0  0  0  0  0  0  0
  184.5560  178.4630  139.4720 C   0  0  0  0  0  0  0  0  0  0  0  0
  183.5320  179.3690  140.0560 C   0  0  0  0  0  2  0  0  0  0  0  0
  182.7600  178.6440  141.0490 N   0  0  0  0  0  2  0  0  0  0  0  0
  181.3520  178.9060  140.7870 C   0  0  2  0  0  3  0  0  0  0  0  0
  179.9370  179.9150  139.4130 C   0  0  0  0  0  1  0  0  0  0  0  0
  181.2200  180.0190  139.9480 O   0  0  0  0  0  0  0  0  0  0  0  0
  180.6300  179.1530  142.0770 C   0  0  0  0  0  0  0  0  0  0  0  0
  180.9210  180.1260  142.7530 O   0  0  0  0  0  0  0  0  0  0  0  0
  179.6520  178.0670  143.9940 N   0  0  0  0  0  1  0  0  0  0  0  0
  179.5770  178.2040  142.5520 C   0  0  0  0  0  2  0  0  0  0  0  0
  188.5920  177.6030  142.2400 C   0  0  0  0  0  0  0  0  0  0  0  0
  187.5630  177.1460  142.9440 C   0  0  0  0  0  3  0  0  0  0  0  0
  187.3760  177.5310  144.3050 N   0  0  0  0  0  2  0  0  0  0  0  0
  186.0030  178.2160  146.0440 O   0  0  0  0  0  0  0  0  0  0  0  0
  186.1320  178.0240  144.8050 C   0  0  0  0  0  0  0  0  0  0  0  0
  183.8160  178.9240  144.6200 C   0  0  0  0  0  2  0  0  0  0  0  0
  184.9710  178.2690  143.8820 C   0  0  0  0  0  3  0  0  0  0  0  0
  184.7330  179.7630  143.7610 C   0  0  0  0  0  2  0  0  0  0  0  0
  190.6220  178.0630  143.4170 O   0  0  0  0  0  1  0  0  0  0  0  0
  189.4970  178.4920  142.8310 O   0  0  0  0  0  0  0  0  0  0  0  0
  1 18  1  1  0  0  0
  1  7  1  0  0  0  0
  2  5  1  6  0  0  0
  2  4  1  0  0  0  0
  2  7  1  0  0  0  0
  3 30  1  1  0  0  0
  4  8  1  6  0  0  0
  5  6  1  0  0  0  0
  6  1  1  0  0  0  0
  7  3  1  0  0  0  0
  8  3  1  0  0  0  0
  9 13  2  0  0  0  0
  9 12  1  0  0  0  0
 10 11  1  0  0  0  0
 10  4  1  0  0  0  0
 12 10  1  0  0  0  0
 13 15  1  0  0  0  0
 14  9  1  0  0  0  0
 15 11  1  0  0  0  0
 16 14  1  0  0  0  0
 17 16  3  0  0  0  0
 19 20  2  0  0  0  0
 20 18  1  0  0  0  0
 20 21  1  0  0  0  0
 21 22  1  0  0  0  0
 23 22  1  0  0  0  0
 23 26  1  0  0  0  0
 24 25  1  0  0  0  0
 25 23  1  0  0  0  0
 26 29  1  0  0  0  0
 26 27  2  0  0  0  0
 29 28  1  0  0  0  0
 30 39  1  0  0  0  0
 30 31  2  0  0  0  0
 31 32  1  0  0  0  0
 32 34  1  0  0  0  0
 34 33  2  0  0  0  0
 36 35  1  0  0  0  0
 36 34  1  0  0  0  0
 37 36  1  0  0  0  0
 37 35  1  0  0  0  0
 39 38  1  0  0  0  0
M  END
>  <MODEL>
8

>  <REMARK>
 VINA RESULT:      -7.5      3.290      6.735
  Name = 
  13 active torsions:
  status: ('A' for Active; 'I' for Inactive)
    1  A    between atoms: N_3  and  C_37
    2  A    between atoms: C_4  and  N_22
    3  A    between atoms: C_6  and  C_12
    4  A    between atoms: C_6  and  C_31
    5  A    between atoms: C_7  and  N_20
    6  A    between atoms: C_7  and  C_39
    7  A    between atoms: C_10  and  C_15
    8  A    between atoms: C_11  and  C_23
    9  A    between atoms: C_12  and  N_20
   10  A    between atoms: C_12  and  O_24
   11  A    between atoms: C_17  and  C_18
   12  A    between atoms: C_17  and  O_33
   13  A    between atoms: C_27  and  N_32
                            x       y       z     vdW  Elec       q    Type
                         _______ _______ _______ _____ _____    ______ ____

>  <TORSDO>
F 13

$$$$
=
 OpenBabel11032420263D

 39 42  0  0  1  0  0  0  0  0999 V2000
  185.7200  179.3360  141.4000 C   0  0  1  0  0  3  0  0  0  0  0  0
  186.9380  177.8910  142.7470 C   0  0  1  0  0  3  0  0  0  0  0  0
  188.1290  178.6940  140.8930 C   0  0  1  0  0  3  0  0  0  0  0  0
  188.2210  177.8450  143.0970 C   0  0  1  0  0  3  0  0  0  0  0  0
  185.8120  178.3110  143.6190 C   0  0  0  0  0  2  0  0  0  0  0  0
  184.9020  179.0800  142.6670 C   0  0  0  0  0  2  0  0  0  0  0  0
  186.7490  178.2230  141.3330 C   0  0  2  0  0  3  0  0  0  0  0  0
  189.0990  178.1090  141.9230 C   0  0  0  0  0  2  0  0  0  0  0  0
  190.5550  176.7730  145.9510 C   0  0  0  0  0  0  0  0  0  0  0  0
  188.7570  177.7970  144.5000 C   0  0  1  0  0  3  0  0  0  0  0  0
  187.7800  177.1210  145.4530 C   0  0  0  0  0  2  0  0  0  0  0  0
  190.1210  177.1090  144.5480 C   0  0  0  0  0  2  0  0  0  0  0  0
  189.7140  176.7870  146.9490 N   0  0  0  0  0  0  0  0  0  0  0  0
  191.8910  176.3040  146.1450 N   0  0  0  0  0  2  0  0  0  0  0  0
  188.3310  177.2610  146.8650 C   0  0  0  0  0  2  0  0  0  0  0  0
  192.3870  175.9400  147.4070 C   0  0  0  0  0  0  0  0  0  0  0  0
  192.8110  175.6270  148.4900 C   0  0  0  0  0  3  0  0  0  0  0  0
  184.8780  179.3620  140.2080 N   0  0  0  0  0  2  0  0  0  0  0  0
  183.4600  177.5940  140.8000 O   0  0  0  0  0  0  0  0  0  0  0  0
  183.7950  178.4600  139.9500 C   0  0  0  0  0  0  0  0  0  0  0  0
  183.0960  178.5100  138.6390 C   0  0  0  0  0  2  0  0  0  0  0  0
  182.8810  177.1570  138.1570 N   0  0  0  0  0  2  0  0  0  0  0  0
  181.4990  177.0650  137.7100 C   0  0  2  0  0  3  0  0  0  0  0  0
  179.9450  178.4140  136.8880 C   0  0  0  0  0  1  0  0  0  0  0  0
  180.8370  178.2750  137.9510 O   0  0  0  0  0  0  0  0  0  0  0  0
  180.8030  175.9520  138.4310 C   0  0  0  0  0  0  0  0  0  0  0  0
  180.9300  175.8440  139.6390 O   0  0  0  0  0  0  0  0  0  0  0  0
  180.4570  173.6170  137.9400 N   0  0  0  0  0  1  0  0  0  0  0  0
  179.9750  174.9600  137.6790 C   0  0  0  0  0  2  0  0  0  0  0  0
  188.4530  178.2300  139.5050 C   0  0  0  0  0  0  0  0  0  0  0  0
  189.0600  177.0580  139.3610 C   0  0  0  0  0  3  0  0  0  0  0  0
  189.3780  176.5500  138.0660 N   0  0  0  0  0  2  0  0  0  0  0  0
  188.7280  175.7340  135.9960 O   0  0  0  0  0  0  0  0  0  0  0  0
  188.3900  176.0390  137.1710 C   0  0  0  0  0  0  0  0  0  0  0  0
  186.0590  176.8310  136.7920 C   0  0  0  0  0  2  0  0  0  0  0  0
  186.9560  175.9080  137.5980 C   0  0  0  0  0  3  0  0  0  0  0  0
  186.1350  175.3640  136.4420 C   0  0  0  0  0  2  0  0  0  0  0  0
  189.0500  179.7550  137.7620 O   0  0  0  0  0  1  0  0  0  0  0  0
  188.1370  178.9910  138.3740 O   0  0  0  0  0  0  0  0  0  0  0  0
  1 18  1  6  0  0  0
  1  6  1  0  0  0  0
  2  4  1  0  0  0  0
  2  5  1  1  0  0  0
  3 30  1  6  0  0  0
  3  7  1  0  0  0  0
  3  8  1  0  0  0  0
  4  8  1  1  0  0  0
  4 10  1  0  0  0  0
  6  5  1  0  0  0  0
  7  1  1  0  0  0  0
  7  2  1  0  0  0  0
  9 14  1  0  0  0  0
  9 13  2  0  0  0  0
 10 12  1  0  0  0  0
 10 11  1  0  0  0  0
 11 15  1  0  0  0  0
 12  9  1  0  0  0  0
 14 16  1  0  0  0  0
 15 13  1  0  0  0  0
 16 17  3  0  0  0  0
 20 18  1  0  0  0  0
 20 19  2  0  0  0  0
 21 20  1  0  0  0  0
 22 21  1  0  0  0  0
 23 25  1  0  0  0  0
 23 22  1  0  0  0  0
 23 26  1  0  0  0  0
 24 25  1  0  0  0  0
 26 27  2  0  0  0  0
 29 28  1  0  0  0  0
 29 26  1  0  0  0  0
 31 30  2  0  0  0  0
 32 31  1  0  0  0  0
 33 34  2  0  0  0  0
 34 36  1  0  0  0  0
 34 32  1  0  0  0  0
 35 36  1  0  0  0  0
 37 35  1  0  0  0  0
 37 36  1  0  0  0  0
 38 39  1  0  0  0  0
 39 30  1  0  0  0  0
M  END
>  <MODEL>
9

>  <REMARK>
 VINA RESULT:      -7.5      2.643      3.570
  Name = 
  13 active torsions:
  status: ('A' for Active; 'I' for Inactive)
    1  A    between atoms: N_3  and  C_37
    2  A    between atoms: C_4  and  N_22
    3  A    between atoms: C_6  and  C_12
    4  A    between atoms: C_6  and  C_31
    5  A    between atoms: C_7  and  N_20
    6  A    between atoms: C_7  and  C_39
    7  A    between atoms: C_10  and  C_15
    8  A    between atoms: C_11  and  C_23
    9  A    between atoms: C_12  and  N_20
   10  A    between atoms: C_12  and  O_24
   11  A    between atoms: C_17  and  C_18
   12  A    between atoms: C_17  and  O_33
   13  A    between atoms: C_27  and  N_32
                            x       y       z     vdW  Elec       q    Type
                         _______ _______ _______ _____ _____    ______ ____

>  <TORSDO>
F 13

$$$$
