=
 OpenBabel11042411163D

 54 57  0  0  1  0  0  0  0  0999 V2000
  186.9210  178.0680  142.4460 N   0  0  0  0  0  0  0  0  0  0  0  0
  188.0230  178.6820  141.7020 C   0  0  1  0  0  3  0  0  0  0  0  0
  187.1380  178.5130  139.3270 N   0  0  0  0  0  0  0  0  0  0  0  0
  190.0600  177.4950  140.9600 N   0  0  0  0  0  0  0  0  0  0  0  0
  189.4290  178.1320  142.1400 C   0  0  0  0  0  3  0  0  0  0  0  0
  189.1280  177.3630  138.6210 C   0  0  0  0  0  0  0  0  0  0  0  0
  187.8340  177.9270  138.2070 C   0  0  0  0  0  0  0  0  0  0  0  0
  187.9690  178.2830  140.2860 C   0  0  1  0  0  3  0  0  0  0  0  0
  187.3210  177.8360  137.0240 N   0  0  0  0  0  1  0  0  0  0  0  0
  189.1240  177.6170  139.9120 C   0  0  0  0  0  0  0  0  0  0  0  0
  190.9580  175.6640  138.3500 N   0  0  0  0  0  2  0  0  0  0  0  0
  190.1810  176.7420  137.8130 C   0  0  0  0  0  0  0  0  0  0  0  0
  190.4120  177.1970  136.6660 O   0  0  0  0  0  0  0  0  0  0  0  0
  193.7610  172.6240  136.6270 C   0  0  0  0  0  0  0  0  0  0  0  0
  192.5420  172.9730  136.2050 C   0  0  0  0  0  3  0  0  0  0  0  0
  193.6590  176.8120  137.7160 O   0  0  0  0  0  1  0  0  0  0  0  0
  191.6490  173.9160  136.9200 C   0  0  0  0  0  3  0  0  0  0  0  0
  194.2890  173.1320  137.9330 C   0  0  0  0  0  2  0  0  0  0  0  0
  193.4270  175.4390  137.7640 C   0  0  0  0  0  0  0  0  0  0  0  0
  194.4800  174.6160  137.8840 C   0  0  0  0  0  0  0  0  0  0  0  0
  192.0110  174.9540  137.6870 C   0  0  0  0  0  0  0  0  0  0  0  0
  194.8430  170.5140  136.6390 F   0  0  0  0  0  0  0  0  0  0  0  0
  194.5630  171.6160  135.8480 C   0  0  0  0  0  0  0  0  0  0  0  0
  195.7550  172.1690  135.4140 F   0  0  0  0  0  0  0  0  0  0  0  0
  193.8420  171.2110  134.7350 F   0  0  0  0  0  0  0  0  0  0  0  0
  196.9410  174.4100  137.8220 C   0  0  0  0  0  1  0  0  0  0  0  0
  195.7550  175.1700  137.9890 O   0  0  0  0  0  0  0  0  0  0  0  0
  187.1270  177.4300  143.7130 C   0  0  0  0  0  0  0  0  0  0  0  0
  187.7350  176.2430  143.7300 C   0  0  0  0  0  2  0  0  0  0  0  0
  186.7920  178.3620  146.0710 C   0  0  2  0  0  3  0  0  0  0  0  0
  186.2980  176.9740  146.0140 N   0  0  0  0  0  2  0  0  0  0  0  0
  186.1880  177.8380  144.8210 C   0  0  2  0  0  3  0  0  0  0  0  0
  188.3150  178.3400  146.1750 C   0  0  0  0  0  2  0  0  0  0  0  0
  188.7650  177.7370  147.5070 C   0  0  0  0  0  2  0  0  0  0  0  0
  189.6630  176.5060  147.3370 C   0  0  0  0  0  2  0  0  0  0  0  0
  191.1450  176.8690  147.4020 C   0  0  0  0  0  2  0  0  0  0  0  0
  192.3230  175.1080  146.3200 O   0  0  0  0  0  1  0  0  0  0  0  0
  191.0450  176.4940  145.0400 O   0  0  0  0  0  1  0  0  0  0  0  0
  191.8870  176.4220  146.1530 C   0  0  0  0  0  3  0  0  0  0  0  0
  185.6040  178.0320  141.8210 C   0  0  0  0  0  2  0  0  0  0  0  0
  184.7370  179.1700  142.3520 C   0  0  0  0  0  2  0  0  0  0  0  0
  183.3270  178.9010  142.0360 C   0  0  0  0  0  0  0  0  0  0  0  0
  182.1730  178.6880  141.7550 C   0  0  0  0  0  0  0  0  0  0  0  0
  180.7870  178.3980  141.3700 C   0  0  0  0  0  2  0  0  0  0  0  0
  179.9530  176.1810  140.9750 O   0  0  0  0  0  1  0  0  0  0  0  0
  180.7370  177.2020  140.4240 C   0  0  1  0  0  3  0  0  0  0  0  0
  180.2210  177.5800  139.0260 C   0  0  1  0  0  0  0  0  0  0  0  0
  178.9310  177.0730  138.8860 O   0  0  0  0  0  1  0  0  0  0  0  0
  180.1380  179.1000  138.8790 C   0  0  0  0  0  1  0  0  0  0  0  0
  181.0960  176.8890  137.9570 C   0  0  0  0  0  2  0  0  0  0  0  0
  183.2610  176.1470  138.6200 O   0  0  0  0  0  0  0  0  0  0  0  0
  182.5750  177.0670  138.0960 C   0  0  0  0  0  0  0  0  0  0  0  0
  183.8550  179.1170  138.5570 C   0  0  0  0  0  1  0  0  0  0  0  0
  183.1760  178.2520  137.6620 O   0  0  0  0  0  0  0  0  0  0  0  0
  1 28  1  0  0  0  0
  2  5  1  0  0  0  0
  2  1  1  1  0  0  0
  4  5  2  0  0  0  0
  6 10  2  0  0  0  0
  7  6  1  0  0  0  0
  7  3  2  0  0  0  0
  8  3  1  6  0  0  0
  8  2  1  0  0  0  0
  9  7  1  0  0  0  0
 10  8  1  0  0  0  0
 10  4  1  0  0  0  0
 12 11  1  0  0  0  0
 12  6  1  0  0  0  0
 13 12  2  0  0  0  0
 14 18  1  0  0  0  0
 15 14  2  0  0  0  0
 15 17  1  0  0  0  0
 16 19  1  0  0  0  0
 17 21  2  0  0  0  0
 19 20  2  0  0  0  0
 20 18  1  0  0  0  0
 20 27  1  0  0  0  0
 21 19  1  0  0  0  0
 21 11  1  0  0  0  0
 23 14  1  0  0  0  0
 23 22  1  0  0  0  0
 24 23  1  0  0  0  0
 25 23  1  0  0  0  0
 26 27  1  0  0  0  0
 28 29  2  0  0  0  0
 30 33  1  6  0  0  0
 31 30  1  0  0  0  0
 32 28  1  6  0  0  0
 32 31  1  0  0  0  0
 32 30  1  0  0  0  0
 33 34  1  0  0  0  0
 35 36  1  0  0  0  0
 35 34  1  0  0  0  0
 38 39  1  0  0  0  0
 39 37  1  0  0  0  0
 39 36  1  0  0  0  0
 40 41  1  0  0  0  0
 40  1  1  0  0  0  0
 42 41  1  0  0  0  0
 43 42  3  0  0  0  0
 44 43  1  0  0  0  0
 46 45  1  1  0  0  0
 46 44  1  0  0  0  0
 47 49  1  6  0  0  0
 47 46  1  0  0  0  0
 48 47  1  0  0  0  0
 50 52  1  0  0  0  0
 50 47  1  0  0  0  0
 52 51  2  0  0  0  0
 54 52  1  0  0  0  0
 54 53  1  0  0  0  0
M  END
>  <MODEL>
1

>  <REMARK>
 VINA RESULT:      -6.9      0.000      0.000
  Name = 
  21 active torsions:
  status: ('A' for Active; 'I' for Inactive)
    1  A    between atoms: C_2  and  N_10
    2  A    between atoms: C_2  and  C_41
    3  A    between atoms: N_3  and  C_52
    4  A    between atoms: C_4  and  N_10
    5  A    between atoms: O_6  and  C_50
    6  A    between atoms: O_7  and  C_49
    7  A    between atoms: C_8  and  C_27
    8  A    between atoms: C_9  and  C_35
    9  A    between atoms: C_9  and  C_39
   10  A    between atoms: N_10  and  C_42
   11  A    between atoms: C_13  and  C_25
   12  A    between atoms: C_17  and  C_28
   13  A    between atoms: C_17  and  C_35
   14  A    between atoms: C_25  and  C_45
   15  A    between atoms: C_28  and  C_49
   16  A    between atoms: C_31  and  C_36
   17  A    between atoms: C_33  and  C_37
   18  A    between atoms: C_33  and  C_43
   19  A    between atoms: C_38  and  C_54
   20  A    between atoms: C_42  and  C_54
   21  A    between atoms: C_43  and  C_45
                            x       y       z     vdW  Elec       q    Type
                         _______ _______ _______ _____ _____    ______ ____

>  <TORSDO>
F 21

$$$$
=
 OpenBabel11042411163D

 54 57  0  0  1  0  0  0  0  0999 V2000
  190.5910  176.4530  137.0300 N   0  0  0  0  0  0  0  0  0  0  0  0
  190.3010  177.7420  137.6630 C   0  0  1  0  0  3  0  0  0  0  0  0
  190.1980  177.0520  140.1060 N   0  0  0  0  0  0  0  0  0  0  0  0
  188.0440  178.7190  137.9080 N   0  0  0  0  0  0  0  0  0  0  0  0
  189.1470  178.5260  136.9380 C   0  0  0  0  0  3  0  0  0  0  0  0
  188.0040  178.0120  140.3280 C   0  0  0  0  0  0  0  0  0  0  0  0
  189.1090  177.3250  141.0130 C   0  0  0  0  0  0  0  0  0  0  0  0
  189.7310  177.5360  139.0050 C   0  0  0  0  0  0  0  0  0  0  0  0
  189.0930  176.9200  142.2400 N   0  0  0  0  0  2  0  0  0  0  0  0
  188.4660  178.0920  139.0990 C   0  0  0  0  0  0  0  0  0  0  0  0
  185.5160  178.3150  140.1680 N   0  0  0  0  0  2  0  0  0  0  0  0
  186.7460  178.5350  140.8690 C   0  0  0  0  0  0  0  0  0  0  0  0
  186.7760  179.2080  141.9290 O   0  0  0  0  0  0  0  0  0  0  0  0
  181.3640  178.7470  141.7940 C   0  0  0  0  0  0  0  0  0  0  0  0
  182.5250  178.7430  142.4540 C   0  0  0  0  0  3  0  0  0  0  0  0
  183.9970  180.5610  138.8780 O   0  0  0  0  0  1  0  0  0  0  0  0
  183.8420  178.4780  141.8270 C   0  0  0  0  0  3  0  0  0  0  0  0
  181.3150  178.4030  140.3370 C   0  0  0  0  0  2  0  0  0  0  0  0
  183.3690  179.5860  139.6490 C   0  0  0  0  0  0  0  0  0  0  0  0
  182.0420  179.4300  139.5270 C   0  0  0  0  0  0  0  0  0  0  0  0
  184.2120  178.7540  140.5680 C   0  0  0  0  0  0  0  0  0  0  0  0
  180.1340  180.1780  143.2310 F   0  0  0  0  0  0  0  0  0  0  0  0
  180.0780  178.9770  142.5420 C   0  0  0  0  0  0  0  0  0  0  0  0
  179.8470  177.9540  143.4450 F   0  0  0  0  0  0  0  0  0  0  0  0
  179.0200  179.0110  141.6460 F   0  0  0  0  0  0  0  0  0  0  0  0
  179.9640  180.0940  138.3680 C   0  0  0  0  0  1  0  0  0  0  0  0
  181.3560  180.2270  138.6120 O   0  0  0  0  0  0  0  0  0  0  0  0
  191.9330  175.9820  136.8510 C   0  0  0  0  0  0  0  0  0  0  0  0
  192.8500  176.3360  137.7530 C   0  0  0  0  0  2  0  0  0  0  0  0
  192.6980  174.2150  135.1690 C   0  0  2  0  0  3  0  0  0  0  0  0
  193.7480  175.2380  135.3210 N   0  0  0  0  0  2  0  0  0  0  0  0
  192.3270  175.6260  135.4390 C   0  0  2  0  0  3  0  0  0  0  0  0
  192.7580  173.2650  136.3640 C   0  0  0  0  0  2  0  0  0  0  0  0
  193.5410  171.9980  136.0180 C   0  0  0  0  0  2  0  0  0  0  0  0
  194.7070  171.7320  136.9780 C   0  0  0  0  0  2  0  0  0  0  0  0
  195.8330  172.7500  136.8010 C   0  0  0  0  0  2  0  0  0  0  0  0
  196.0680  174.8120  137.9640 O   0  0  0  0  0  1  0  0  0  0  0  0
  195.3240  172.9990  139.1270 O   0  0  0  0  0  1  0  0  0  0  0  0
  196.1840  173.4300  138.1140 C   0  0  0  0  0  3  0  0  0  0  0  0
  189.4740  175.6850  136.4890 C   0  0  0  0  0  2  0  0  0  0  0  0
  189.3820  174.3290  137.1820 C   0  0  0  0  0  2  0  0  0  0  0  0
  188.1890  173.6150  136.7060 C   0  0  0  0  0  0  0  0  0  0  0  0
  187.2120  173.0130  136.3330 C   0  0  0  0  0  0  0  0  0  0  0  0
  186.0020  172.2870  135.9310 C   0  0  0  0  0  2  0  0  0  0  0  0
  185.4300  172.9700  138.1610 O   0  0  0  0  0  1  0  0  0  0  0  0
  184.8940  172.4900  136.9590 C   0  0  1  0  0  3  0  0  0  0  0  0
  183.7860  173.4290  136.4540 C   0  0  1  0  0  0  0  0  0  0  0  0
  184.3750  174.4080  135.6560 O   0  0  0  0  0  1  0  0  0  0  0  0
  182.7910  172.6610  135.5840 C   0  0  0  0  0  1  0  0  0  0  0  0
  183.1450  174.1530  137.6580 C   0  0  0  0  0  2  0  0  0  0  0  0
  181.1730  175.2820  136.9410 O   0  0  0  0  0  0  0  0  0  0  0  0
  182.3630  175.3910  137.3470 C   0  0  0  0  0  0  0  0  0  0  0  0
  183.0270  177.5700  136.4180 C   0  0  0  0  0  1  0  0  0  0  0  0
  182.9610  176.6450  137.4910 O   0  0  0  0  0  0  0  0  0  0  0  0
  2  1  1  6  0  0  0
  2  8  1  0  0  0  0
  3  7  1  0  0  0  0
  4 10  1  0  0  0  0
  5  2  1  0  0  0  0
  5  4  2  0  0  0  0
  6 12  1  0  0  0  0
  6  7  1  0  0  0  0
  7  9  2  0  0  0  0
  8 10  1  0  0  0  0
  8  3  2  0  0  0  0
 10  6  2  0  0  0  0
 11 21  1  0  0  0  0
 11 12  1  0  0  0  0
 12 13  2  0  0  0  0
 14 15  2  0  0  0  0
 14 23  1  0  0  0  0
 16 19  1  0  0  0  0
 17 15  1  0  0  0  0
 18 14  1  0  0  0  0
 19 21  1  0  0  0  0
 20 19  2  0  0  0  0
 20 18  1  0  0  0  0
 21 17  2  0  0  0  0
 23 22  1  0  0  0  0
 23 24  1  0  0  0  0
 25 23  1  0  0  0  0
 26 27  1  0  0  0  0
 27 20  1  0  0  0  0
 28  1  1  0  0  0  0
 28 29  2  0  0  0  0
 30 31  1  0  0  0  0
 30 32  1  0  0  0  0
 30 33  1  1  0  0  0
 31 32  1  0  0  0  0
 32 28  1  1  0  0  0
 34 33  1  0  0  0  0
 34 35  1  0  0  0  0
 36 35  1  0  0  0  0
 36 39  1  0  0  0  0
 37 39  1  0  0  0  0
 39 38  1  0  0  0  0
 40  1  1  0  0  0  0
 40 41  1  0  0  0  0
 42 41  1  0  0  0  0
 43 42  3  0  0  0  0
 44 43  1  0  0  0  0
 44 46  1  0  0  0  0
 46 45  1  1  0  0  0
 47 49  1  6  0  0  0
 47 46  1  0  0  0  0
 47 50  1  0  0  0  0
 48 47  1  0  0  0  0
 51 52  2  0  0  0  0
 52 54  1  0  0  0  0
 52 50  1  0  0  0  0
 53 54  1  0  0  0  0
M  END
>  <MODEL>
2

>  <REMARK>
 VINA RESULT:      -6.7      5.298     10.107
  Name = 
  21 active torsions:
  status: ('A' for Active; 'I' for Inactive)
    1  A    between atoms: C_2  and  N_10
    2  A    between atoms: C_2  and  C_41
    3  A    between atoms: N_3  and  C_52
    4  A    between atoms: C_4  and  N_10
    5  A    between atoms: O_6  and  C_50
    6  A    between atoms: O_7  and  C_49
    7  A    between atoms: C_8  and  C_27
    8  A    between atoms: C_9  and  C_35
    9  A    between atoms: C_9  and  C_39
   10  A    between atoms: N_10  and  C_42
   11  A    between atoms: C_13  and  C_25
   12  A    between atoms: C_17  and  C_28
   13  A    between atoms: C_17  and  C_35
   14  A    between atoms: C_25  and  C_45
   15  A    between atoms: C_28  and  C_49
   16  A    between atoms: C_31  and  C_36
   17  A    between atoms: C_33  and  C_37
   18  A    between atoms: C_33  and  C_43
   19  A    between atoms: C_38  and  C_54
   20  A    between atoms: C_42  and  C_54
   21  A    between atoms: C_43  and  C_45
                            x       y       z     vdW  Elec       q    Type
                         _______ _______ _______ _____ _____    ______ ____

>  <TORSDO>
F 21

$$$$
=
 OpenBabel11042411163D

 54 57  0  0  1  0  0  0  0  0999 V2000
  182.9490  177.9670  137.5290 N   0  0  0  0  0  0  0  0  0  0  0  0
  183.5040  179.0110  138.3940 C   0  0  1  0  0  3  0  0  0  0  0  0
  185.9810  178.7770  137.8810 N   0  0  0  0  0  0  0  0  0  0  0  0
  184.0370  178.7230  140.7900 N   0  0  0  0  0  0  0  0  0  0  0  0
  182.9160  178.9650  139.8510 C   0  0  0  0  0  3  0  0  0  0  0  0
  186.4820  178.5040  140.2170 C   0  0  0  0  0  0  0  0  0  0  0  0
  187.0300  178.6010  138.8550 C   0  0  0  0  0  0  0  0  0  0  0  0
  184.9360  178.7660  138.6370 C   0  0  0  0  0  0  0  0  0  0  0  0
  188.2740  178.4520  138.5360 N   0  0  0  0  0  2  0  0  0  0  0  0
  185.1910  178.6050  139.9870 C   0  0  0  0  0  0  0  0  0  0  0  0
  186.6230  177.5930  142.5530 N   0  0  0  0  0  2  0  0  0  0  0  0
  187.1790  178.3920  141.5020 C   0  0  0  0  0  0  0  0  0  0  0  0
  188.2420  179.0380  141.6720 O   0  0  0  0  0  0  0  0  0  0  0  0
  188.0520  177.8770  146.7890 C   0  0  0  0  0  0  0  0  0  0  0  0
  186.8070  177.7100  146.3350 C   0  0  0  0  0  3  0  0  0  0  0  0
  188.7680  175.5890  143.1860 O   0  0  0  0  0  1  0  0  0  0  0  0
  186.4280  177.7430  144.9020 C   0  0  0  0  0  3  0  0  0  0  0  0
  189.1720  178.1880  145.8450 C   0  0  0  0  0  2  0  0  0  0  0  0
  188.4940  176.6720  144.0180 C   0  0  0  0  0  0  0  0  0  0  0  0
  189.4180  177.0370  144.9200 C   0  0  0  0  0  0  0  0  0  0  0  0
  187.1820  177.3800  143.8550 C   0  0  0  0  0  0  0  0  0  0  0  0
  188.1230  176.6060  148.7900 F   0  0  0  0  0  0  0  0  0  0  0  0
  188.3150  177.8770  148.2710 C   0  0  0  0  0  0  0  0  0  0  0  0
  187.4670  178.7570  148.9200 F   0  0  0  0  0  0  0  0  0  0  0  0
  189.6210  178.2780  148.5100 F   0  0  0  0  0  0  0  0  0  0  0  0
  191.6970  176.7090  145.8130 C   0  0  0  0  0  1  0  0  0  0  0  0
  190.6230  176.3380  144.9630 O   0  0  0  0  0  0  0  0  0  0  0  0
  181.5420  177.7000  137.4740 C   0  0  0  0  0  0  0  0  0  0  0  0
  181.0570  176.7100  138.2240 C   0  0  0  0  0  2  0  0  0  0  0  0
  180.1100  179.4360  136.2590 C   0  0  2  0  0  3  0  0  0  0  0  0
  179.3630  178.1710  136.3670 N   0  0  0  0  0  2  0  0  0  0  0  0
  180.8330  178.1420  136.2170 C   0  0  2  0  0  3  0  0  0  0  0  0
  180.0490  180.1620  137.6020 C   0  0  0  0  0  2  0  0  0  0  0  0
  180.3050  181.6600  137.4280 C   0  0  0  0  0  2  0  0  0  0  0  0
  180.6910  182.0410  135.9940 C   0  0  0  0  0  2  0  0  0  0  0  0
  180.6010  183.5480  135.7620 C   0  0  0  0  0  2  0  0  0  0  0  0
  182.0230  184.7970  137.2020 O   0  0  0  0  0  1  0  0  0  0  0  0
  179.8310  185.4020  137.0660 O   0  0  0  0  0  1  0  0  0  0  0  0
  180.7200  184.3240  137.0640 C   0  0  0  0  0  3  0  0  0  0  0  0
  183.8780  177.1240  136.7840 C   0  0  0  0  0  2  0  0  0  0  0  0
  184.0840  175.7980  137.5090 C   0  0  0  0  0  2  0  0  0  0  0  0
  184.8000  174.8630  136.6290 C   0  0  0  0  0  0  0  0  0  0  0  0
  185.4050  174.1110  135.9060 C   0  0  0  0  0  0  0  0  0  0  0  0
  186.1840  173.1970  135.0620 C   0  0  0  0  0  2  0  0  0  0  0  0
  187.1720  171.1230  135.7610 O   0  0  0  0  0  1  0  0  0  0  0  0
  187.2740  172.5150  135.8830 C   0  0  1  0  0  3  0  0  0  0  0  0
  188.6850  172.9850  135.4920 C   0  0  1  0  0  0  0  0  0  0  0  0
  189.2960  171.9690  134.7610 O   0  0  0  0  0  1  0  0  0  0  0  0
  188.6070  174.2190  134.5940 C   0  0  0  0  0  1  0  0  0  0  0  0
  189.5250  173.1870  136.7730 C   0  0  0  0  0  2  0  0  0  0  0  0
  188.7330  175.3910  137.2090 O   0  0  0  0  0  0  0  0  0  0  0  0
  189.7170  174.6010  137.2230 C   0  0  0  0  0  0  0  0  0  0  0  0
  191.1990  176.3510  138.1140 C   0  0  0  0  0  1  0  0  0  0  0  0
  190.9800  175.0350  137.6340 O   0  0  0  0  0  0  0  0  0  0  0  0
  2  1  1  6  0  0  0
  2  8  1  0  0  0  0
  2  5  1  0  0  0  0
  3  8  2  0  0  0  0
  3  7  1  0  0  0  0
  5  4  2  0  0  0  0
  6 12  1  0  0  0  0
  7  6  1  0  0  0  0
  8 10  1  0  0  0  0
  9  7  2  0  0  0  0
 10  6  2  0  0  0  0
 10  4  1  0  0  0  0
 11 21  1  0  0  0  0
 12 13  2  0  0  0  0
 12 11  1  0  0  0  0
 14 23  1  0  0  0  0
 15 14  2  0  0  0  0
 16 19  1  0  0  0  0
 17 15  1  0  0  0  0
 18 14  1  0  0  0  0
 19 20  2  0  0  0  0
 20 27  1  0  0  0  0
 20 18  1  0  0  0  0
 21 19  1  0  0  0  0
 21 17  2  0  0  0  0
 23 25  1  0  0  0  0
 23 22  1  0  0  0  0
 23 24  1  0  0  0  0
 27 26  1  0  0  0  0
 28  1  1  0  0  0  0
 28 29  2  0  0  0  0
 30 31  1  0  0  0  0
 30 33  1  1  0  0  0
 32 30  1  0  0  0  0
 32 31  1  0  0  0  0
 32 28  1  1  0  0  0
 34 33  1  0  0  0  0
 35 34  1  0  0  0  0
 36 35  1  0  0  0  0
 36 39  1  0  0  0  0
 39 38  1  0  0  0  0
 39 37  1  0  0  0  0
 40 41  1  0  0  0  0
 40  1  1  0  0  0  0
 42 41  1  0  0  0  0
 43 42  3  0  0  0  0
 44 46  1  0  0  0  0
 44 43  1  0  0  0  0
 46 45  1  6  0  0  0
 47 49  1  6  0  0  0
 47 46  1  0  0  0  0
 47 50  1  0  0  0  0
 48 47  1  0  0  0  0
 50 52  1  0  0  0  0
 51 52  2  0  0  0  0
 52 54  1  0  0  0  0
 54 53  1  0  0  0  0
M  END
>  <MODEL>
3

>  <REMARK>
 VINA RESULT:      -6.7      4.953     10.242
  Name = 
  21 active torsions:
  status: ('A' for Active; 'I' for Inactive)
    1  A    between atoms: C_2  and  N_10
    2  A    between atoms: C_2  and  C_41
    3  A    between atoms: N_3  and  C_52
    4  A    between atoms: C_4  and  N_10
    5  A    between atoms: O_6  and  C_50
    6  A    between atoms: O_7  and  C_49
    7  A    between atoms: C_8  and  C_27
    8  A    between atoms: C_9  and  C_35
    9  A    between atoms: C_9  and  C_39
   10  A    between atoms: N_10  and  C_42
   11  A    between atoms: C_13  and  C_25
   12  A    between atoms: C_17  and  C_28
   13  A    between atoms: C_17  and  C_35
   14  A    between atoms: C_25  and  C_45
   15  A    between atoms: C_28  and  C_49
   16  A    between atoms: C_31  and  C_36
   17  A    between atoms: C_33  and  C_37
   18  A    between atoms: C_33  and  C_43
   19  A    between atoms: C_38  and  C_54
   20  A    between atoms: C_42  and  C_54
   21  A    between atoms: C_43  and  C_45
                            x       y       z     vdW  Elec       q    Type
                         _______ _______ _______ _____ _____    ______ ____

>  <TORSDO>
F 21

$$$$
=
 OpenBabel11042411163D

 54 57  0  0  1  0  0  0  0  0999 V2000
  183.2310  177.8460  137.5120 N   0  0  0  0  0  0  0  0  0  0  0  0
  183.8190  178.9120  138.3270 C   0  0  1  0  0  3  0  0  0  0  0  0
  186.2880  178.5780  137.8270 N   0  0  0  0  0  0  0  0  0  0  0  0
  184.3450  178.7200  140.7350 N   0  0  0  0  0  0  0  0  0  0  0  0
  183.2320  178.9520  139.7850 C   0  0  0  0  0  3  0  0  0  0  0  0
  186.7820  178.3980  140.1740 C   0  0  0  0  0  0  0  0  0  0  0  0
  187.3320  178.4150  138.8090 C   0  0  0  0  0  0  0  0  0  0  0  0
  185.2430  178.6340  138.5820 C   0  0  0  0  0  0  0  0  0  0  0  0
  188.5700  178.2130  138.4980 N   0  0  0  0  0  2  0  0  0  0  0  0
  185.4940  178.5290  139.9390 C   0  0  0  0  0  0  0  0  0  0  0  0
  186.9930  177.4510  142.4900 N   0  0  0  0  0  2  0  0  0  0  0  0
  187.4760  178.3250  141.4630 C   0  0  0  0  0  0  0  0  0  0  0  0
  188.4690  179.0690  141.6590 O   0  0  0  0  0  0  0  0  0  0  0  0
  188.3520  177.7740  146.7460 C   0  0  0  0  0  0  0  0  0  0  0  0
  187.1330  177.4940  146.2750 C   0  0  0  0  0  3  0  0  0  0  0  0
  189.3240  175.6570  143.0980 O   0  0  0  0  0  1  0  0  0  0  0  0
  186.7650  177.5240  144.8400 C   0  0  0  0  0  3  0  0  0  0  0  0
  189.4420  178.2180  145.8210 C   0  0  0  0  0  2  0  0  0  0  0  0
  188.9350  176.6870  143.9520 C   0  0  0  0  0  0  0  0  0  0  0  0
  189.8100  177.1200  144.8730 C   0  0  0  0  0  0  0  0  0  0  0  0
  187.5600  177.2630  143.7920 C   0  0  0  0  0  0  0  0  0  0  0  0
  187.9170  178.8040  148.8380 F   0  0  0  0  0  0  0  0  0  0  0  0
  188.6010  177.7630  148.2310 C   0  0  0  0  0  0  0  0  0  0  0  0
  189.9510  177.8990  148.5020 F   0  0  0  0  0  0  0  0  0  0  0  0
  188.1710  176.5580  148.7650 F   0  0  0  0  0  0  0  0  0  0  0  0
  191.7770  176.3040  146.1240 C   0  0  0  0  0  1  0  0  0  0  0  0
  191.0790  176.5450  144.9120 O   0  0  0  0  0  0  0  0  0  0  0  0
  181.9430  177.2920  137.8070 C   0  0  0  0  0  0  0  0  0  0  0  0
  180.8830  178.0990  137.7560 C   0  0  0  0  0  2  0  0  0  0  0  0
  181.4220  174.8010  138.0600 C   0  0  2  0  0  3  0  0  0  0  0  0
  180.5720  175.5780  138.9790 N   0  0  0  0  0  2  0  0  0  0  0  0
  181.9360  176.0530  138.6680 C   0  0  2  0  0  3  0  0  0  0  0  0
  180.8400  174.8940  136.6510 C   0  0  0  0  0  2  0  0  0  0  0  0
  181.5150  173.8950  135.7110 C   0  0  0  0  0  2  0  0  0  0  0  0
  180.5610  172.8060  135.2060 C   0  0  0  0  0  2  0  0  0  0  0  0
  179.2290  172.8240  135.9550 C   0  0  0  0  0  2  0  0  0  0  0  0
  178.9510  170.4650  136.0770 O   0  0  0  0  0  1  0  0  0  0  0  0
  180.1950  171.4860  137.6890 O   0  0  0  0  0  1  0  0  0  0  0  0
  179.0780  171.6120  136.8590 C   0  0  0  0  0  3  0  0  0  0  0  0
  184.0340  177.2820  136.4320 C   0  0  0  0  0  2  0  0  0  0  0  0
  184.4420  175.8510  136.7700 C   0  0  0  0  0  2  0  0  0  0  0  0
  185.8470  175.6400  136.3970 C   0  0  0  0  0  0  0  0  0  0  0  0
  187.0080  175.4840  136.1050 C   0  0  0  0  0  0  0  0  0  0  0  0
  188.4310  175.2920  135.8030 C   0  0  0  0  0  2  0  0  0  0  0  0
  188.9260  173.3070  137.0600 O   0  0  0  0  0  1  0  0  0  0  0  0
  189.1520  174.6880  137.0040 C   0  0  1  0  0  3  0  0  0  0  0  0
  190.6610  174.9850  136.9950 C   0  0  1  0  0  0  0  0  0  0  0  0
  190.9170  175.9050  135.9810 O   0  0  0  0  0  1  0  0  0  0  0  0
  191.0880  175.6220  138.3170 C   0  0  0  0  0  1  0  0  0  0  0  0
  191.4290  173.6930  136.6380 C   0  0  0  0  0  2  0  0  0  0  0  0
  193.3400  174.0650  135.2630 O   0  0  0  0  0  0  0  0  0  0  0  0
  192.9040  173.8380  136.4250 C   0  0  0  0  0  0  0  0  0  0  0  0
  194.6470  174.7540  137.9000 C   0  0  0  0  0  1  0  0  0  0  0  0
  193.7780  173.7050  137.5070 O   0  0  0  0  0  0  0  0  0  0  0  0
  1 28  1  0  0  0  0
  2  1  1  6  0  0  0
  2  8  1  0  0  0  0
  2  5  1  0  0  0  0
  3  8  2  0  0  0  0
  3  7  1  0  0  0  0
  5  4  2  0  0  0  0
  6 12  1  0  0  0  0
  7  6  1  0  0  0  0
  8 10  1  0  0  0  0
  9  7  2  0  0  0  0
 10  6  2  0  0  0  0
 10  4  1  0  0  0  0
 11 21  1  0  0  0  0
 12 13  2  0  0  0  0
 12 11  1  0  0  0  0
 14 23  1  0  0  0  0
 15 14  2  0  0  0  0
 16 19  1  0  0  0  0
 17 15  1  0  0  0  0
 18 14  1  0  0  0  0
 19 20  2  0  0  0  0
 20 27  1  0  0  0  0
 20 18  1  0  0  0  0
 21 19  1  0  0  0  0
 21 17  2  0  0  0  0
 23 24  1  0  0  0  0
 23 25  1  0  0  0  0
 23 22  1  0  0  0  0
 27 26  1  0  0  0  0
 29 28  2  0  0  0  0
 30 33  1  6  0  0  0
 30 32  1  0  0  0  0
 30 31  1  0  0  0  0
 32 28  1  6  0  0  0
 32 31  1  0  0  0  0
 34 33  1  0  0  0  0
 35 34  1  0  0  0  0
 35 36  1  0  0  0  0
 36 39  1  0  0  0  0
 37 39  1  0  0  0  0
 39 38  1  0  0  0  0
 40 41  1  0  0  0  0
 40  1  1  0  0  0  0
 42 41  1  0  0  0  0
 43 42  3  0  0  0  0
 44 43  1  0  0  0  0
 44 46  1  0  0  0  0
 46 45  1  6  0  0  0
 47 46  1  0  0  0  0
 47 49  1  1  0  0  0
 48 47  1  0  0  0  0
 50 47  1  0  0  0  0
 51 52  2  0  0  0  0
 52 50  1  0  0  0  0
 52 54  1  0  0  0  0
 54 53  1  0  0  0  0
M  END
>  <MODEL>
4

>  <REMARK>
 VINA RESULT:      -6.6      4.594     10.353
  Name = 
  21 active torsions:
  status: ('A' for Active; 'I' for Inactive)
    1  A    between atoms: C_2  and  N_10
    2  A    between atoms: C_2  and  C_41
    3  A    between atoms: N_3  and  C_52
    4  A    between atoms: C_4  and  N_10
    5  A    between atoms: O_6  and  C_50
    6  A    between atoms: O_7  and  C_49
    7  A    between atoms: C_8  and  C_27
    8  A    between atoms: C_9  and  C_35
    9  A    between atoms: C_9  and  C_39
   10  A    between atoms: N_10  and  C_42
   11  A    between atoms: C_13  and  C_25
   12  A    between atoms: C_17  and  C_28
   13  A    between atoms: C_17  and  C_35
   14  A    between atoms: C_25  and  C_45
   15  A    between atoms: C_28  and  C_49
   16  A    between atoms: C_31  and  C_36
   17  A    between atoms: C_33  and  C_37
   18  A    between atoms: C_33  and  C_43
   19  A    between atoms: C_38  and  C_54
   20  A    between atoms: C_42  and  C_54
   21  A    between atoms: C_43  and  C_45
                            x       y       z     vdW  Elec       q    Type
                         _______ _______ _______ _____ _____    ______ ____

>  <TORSDO>
F 21

$$$$
=
 OpenBabel11042411163D

 54 57  0  0  1  0  0  0  0  0999 V2000
  188.4810  176.6260  135.5990 N   0  0  0  0  0  0  0  0  0  0  0  0
  188.5750  177.8130  136.4520 C   0  0  1  0  0  3  0  0  0  0  0  0
  190.7330  177.3240  137.7000 N   0  0  0  0  0  0  0  0  0  0  0  0
  187.4460  178.0740  138.6360 N   0  0  0  0  0  0  0  0  0  0  0  0
  187.2190  178.1480  137.1730 C   0  0  0  0  0  3  0  0  0  0  0  0
  189.6200  177.5870  139.8150 C   0  0  0  0  0  0  0  0  0  0  0  0
  190.8970  177.3260  139.1330 C   0  0  0  0  0  0  0  0  0  0  0  0
  189.4680  177.5530  137.5940 C   0  0  0  0  0  0  0  0  0  0  0  0
  192.0130  177.0360  139.7180 N   0  0  0  0  0  2  0  0  0  0  0  0
  188.7970  177.7040  138.7950 C   0  0  0  0  0  0  0  0  0  0  0  0
  189.6780  176.7020  142.1640 N   0  0  0  0  0  2  0  0  0  0  0  0
  189.3360  177.7450  141.2440 C   0  0  0  0  0  0  0  0  0  0  0  0
  188.7550  178.7880  141.6340 O   0  0  0  0  0  0  0  0  0  0  0  0
  188.5080  177.5700  146.4010 C   0  0  0  0  0  0  0  0  0  0  0  0
  187.7610  177.0720  145.4110 C   0  0  0  0  0  3  0  0  0  0  0  0
  191.4610  175.3380  144.1590 O   0  0  0  0  0  1  0  0  0  0  0  0
  188.2190  176.9290  144.0090 C   0  0  0  0  0  3  0  0  0  0  0  0
  189.8820  178.0980  146.1260 C   0  0  0  0  0  2  0  0  0  0  0  0
  190.5880  176.3620  144.5200 C   0  0  0  0  0  0  0  0  0  0  0  0
  190.7930  176.9960  145.6850 C   0  0  0  0  0  0  0  0  0  0  0  0
  189.4710  176.7090  143.5830 C   0  0  0  0  0  0  0  0  0  0  0  0
  188.4660  178.8230  148.4150 F   0  0  0  0  0  0  0  0  0  0  0  0
  187.9220  177.7180  147.7790 C   0  0  0  0  0  0  0  0  0  0  0  0
  188.1780  176.5930  148.5440 F   0  0  0  0  0  0  0  0  0  0  0  0
  186.5470  177.8730  147.6850 F   0  0  0  0  0  0  0  0  0  0  0  0
  191.9230  176.8050  147.8730 C   0  0  0  0  0  1  0  0  0  0  0  0
  191.8860  176.6250  146.4660 O   0  0  0  0  0  0  0  0  0  0  0  0
  189.4710  175.5900  135.6330 C   0  0  0  0  0  0  0  0  0  0  0  0
  190.3010  175.4770  134.5940 C   0  0  0  0  0  2  0  0  0  0  0  0
  190.3070  173.6320  137.0490 C   0  0  2  0  0  3  0  0  0  0  0  0
  189.5450  173.1170  135.8980 N   0  0  0  0  0  2  0  0  0  0  0  0
  189.1600  174.4040  136.5120 C   0  0  2  0  0  3  0  0  0  0  0  0
  191.7040  174.0320  136.5780 C   0  0  0  0  0  2  0  0  0  0  0  0
  192.7330  173.8520  137.6950 C   0  0  0  0  0  2  0  0  0  0  0  0
  193.9670  174.7450  137.5240 C   0  0  0  0  0  2  0  0  0  0  0  0
  195.1810  173.9530  137.0440 C   0  0  0  0  0  2  0  0  0  0  0  0
  197.2990  173.1880  137.8120 O   0  0  0  0  0  1  0  0  0  0  0  0
  197.0500  175.4110  137.3760 O   0  0  0  0  0  1  0  0  0  0  0  0
  196.4170  174.2670  137.8700 C   0  0  0  0  0  3  0  0  0  0  0  0
  187.3940  176.5600  134.6280 C   0  0  0  0  0  2  0  0  0  0  0  0
  186.4680  175.3920  134.9530 C   0  0  0  0  0  2  0  0  0  0  0  0
  185.0900  175.8830  135.0970 C   0  0  0  0  0  0  0  0  0  0  0  0
  183.9660  176.2980  135.2350 C   0  0  0  0  0  0  0  0  0  0  0  0
  182.6180  176.8540  135.4040 C   0  0  0  0  0  2  0  0  0  0  0  0
  182.3080  174.8270  136.6530 O   0  0  0  0  0  1  0  0  0  0  0  0
  181.8990  176.1630  136.5580 C   0  0  1  0  0  3  0  0  0  0  0  0
  182.1110  176.8850  137.8990 C   0  0  1  0  0  0  0  0  0  0  0  0
  180.9320  176.7900  138.6360 O   0  0  0  0  0  1  0  0  0  0  0  0
  183.2160  176.2010  138.7050 C   0  0  0  0  0  1  0  0  0  0  0  0
  182.3590  178.3860  137.6350 C   0  0  0  0  0  2  0  0  0  0  0  0
  181.7090  179.6970  139.5160 O   0  0  0  0  0  0  0  0  0  0  0  0
  182.6620  179.2280  138.8340 C   0  0  0  0  0  0  0  0  0  0  0  0
  184.5290  179.1360  140.4340 C   0  0  0  0  0  1  0  0  0  0  0  0
  183.9900  179.5000  139.1740 O   0  0  0  0  0  0  0  0  0  0  0  0
  1 28  1  0  0  0  0
  2  1  1  6  0  0  0
  2  5  1  0  0  0  0
  2  8  1  0  0  0  0
  3  7  1  0  0  0  0
  4 10  1  0  0  0  0
  5  4  2  0  0  0  0
  6 12  1  0  0  0  0
  7  9  2  0  0  0  0
  7  6  1  0  0  0  0
  8  3  2  0  0  0  0
  8 10  1  0  0  0  0
 10  6  2  0  0  0  0
 11 21  1  0  0  0  0
 12 13  2  0  0  0  0
 12 11  1  0  0  0  0
 14 23  1  0  0  0  0
 15 14  2  0  0  0  0
 16 19  1  0  0  0  0
 17 15  1  0  0  0  0
 18 14  1  0  0  0  0
 19 20  2  0  0  0  0
 20 18  1  0  0  0  0
 20 27  1  0  0  0  0
 21 17  2  0  0  0  0
 21 19  1  0  0  0  0
 23 22  1  0  0  0  0
 23 24  1  0  0  0  0
 25 23  1  0  0  0  0
 27 26  1  0  0  0  0
 29 28  2  0  0  0  0
 30 33  1  6  0  0  0
 31 32  1  0  0  0  0
 31 30  1  0  0  0  0
 32 28  1  6  0  0  0
 32 30  1  0  0  0  0
 33 34  1  0  0  0  0
 35 34  1  0  0  0  0
 36 35  1  0  0  0  0
 36 39  1  0  0  0  0
 37 39  1  0  0  0  0
 38 39  1  0  0  0  0
 40 41  1  0  0  0  0
 40  1  1  0  0  0  0
 41 42  1  0  0  0  0
 42 43  3  0  0  0  0
 43 44  1  0  0  0  0
 44 46  1  0  0  0  0
 46 45  1  1  0  0  0
 46 47  1  0  0  0  0
 47 48  1  0  0  0  0
 47 49  1  1  0  0  0
 50 47  1  0  0  0  0
 50 52  1  0  0  0  0
 52 54  1  0  0  0  0
 52 51  2  0  0  0  0
 54 53  1  0  0  0  0
M  END
>  <MODEL>
5

>  <REMARK>
 VINA RESULT:      -6.5      4.178      8.408
  Name = 
  21 active torsions:
  status: ('A' for Active; 'I' for Inactive)
    1  A    between atoms: C_2  and  N_10
    2  A    between atoms: C_2  and  C_41
    3  A    between atoms: N_3  and  C_52
    4  A    between atoms: C_4  and  N_10
    5  A    between atoms: O_6  and  C_50
    6  A    between atoms: O_7  and  C_49
    7  A    between atoms: C_8  and  C_27
    8  A    between atoms: C_9  and  C_35
    9  A    between atoms: C_9  and  C_39
   10  A    between atoms: N_10  and  C_42
   11  A    between atoms: C_13  and  C_25
   12  A    between atoms: C_17  and  C_28
   13  A    between atoms: C_17  and  C_35
   14  A    between atoms: C_25  and  C_45
   15  A    between atoms: C_28  and  C_49
   16  A    between atoms: C_31  and  C_36
   17  A    between atoms: C_33  and  C_37
   18  A    between atoms: C_33  and  C_43
   19  A    between atoms: C_38  and  C_54
   20  A    between atoms: C_42  and  C_54
   21  A    between atoms: C_43  and  C_45
                            x       y       z     vdW  Elec       q    Type
                         _______ _______ _______ _____ _____    ______ ____

>  <TORSDO>
F 21

$$$$
=
 OpenBabel11042411163D

 54 57  0  0  1  0  0  0  0  0999 V2000
  190.4160  175.7810  135.6910 N   0  0  0  0  0  0  0  0  0  0  0  0
  190.1070  177.1370  136.1500 C   0  0  1  0  0  3  0  0  0  0  0  0
  191.1120  177.0850  138.4820 N   0  0  0  0  0  0  0  0  0  0  0  0
  187.9600  177.8310  137.1590 N   0  0  0  0  0  0  0  0  0  0  0  0
  188.6170  177.5480  135.8610 C   0  0  0  0  0  3  0  0  0  0  0  0
  189.0170  177.7650  139.4470 C   0  0  0  0  0  0  0  0  0  0  0  0
  190.4260  177.4300  139.7040 C   0  0  0  0  0  0  0  0  0  0  0  0
  190.1600  177.2050  137.6200 C   0  0  0  0  0  0  0  0  0  0  0  0
  190.9760  177.3520  140.8710 N   0  0  0  0  0  2  0  0  0  0  0  0
  188.9390  177.5900  138.1450 C   0  0  0  0  0  0  0  0  0  0  0  0
  186.6080  178.2550  139.9620 N   0  0  0  0  0  2  0  0  0  0  0  0
  187.9810  178.2340  140.3720 C   0  0  0  0  0  0  0  0  0  0  0  0
  188.3250  178.6500  141.5060 O   0  0  0  0  0  0  0  0  0  0  0  0
  183.2750  178.7090  142.9200 C   0  0  0  0  0  0  0  0  0  0  0  0
  184.5860  178.8890  143.1030 C   0  0  0  0  0  3  0  0  0  0  0  0
  184.4780  180.1510  139.0210 O   0  0  0  0  0  1  0  0  0  0  0  0
  185.6190  178.6000  142.0790 C   0  0  0  0  0  3  0  0  0  0  0  0
  182.7570  178.1180  141.6460 C   0  0  0  0  0  2  0  0  0  0  0  0
  184.2820  179.2860  140.0950 C   0  0  0  0  0  0  0  0  0  0  0  0
  183.0250  179.0330  140.4920 C   0  0  0  0  0  0  0  0  0  0  0  0
  185.4860  178.6770  140.7480 C   0  0  0  0  0  0  0  0  0  0  0  0
  181.6640  180.1900  143.8360 F   0  0  0  0  0  0  0  0  0  0  0  0
  182.3170  178.9860  144.0480 C   0  0  0  0  0  0  0  0  0  0  0  0
  182.9880  179.0500  145.2560 F   0  0  0  0  0  0  0  0  0  0  0  0
  181.3830  177.9640  144.1250 F   0  0  0  0  0  0  0  0  0  0  0  0
  180.6780  179.7880  140.3490 C   0  0  0  0  0  1  0  0  0  0  0  0
  181.9710  179.6180  139.7910 O   0  0  0  0  0  0  0  0  0  0  0  0
  191.7460  175.3910  135.3250 C   0  0  0  0  0  0  0  0  0  0  0  0
  192.4720  176.2380  134.5940 C   0  0  0  0  0  2  0  0  0  0  0  0
  192.8210  173.3360  136.4010 C   0  0  2  0  0  3  0  0  0  0  0  0
  193.4450  173.5890  135.0900 N   0  0  0  0  0  2  0  0  0  0  0  0
  192.0170  173.9070  135.2940 C   0  0  2  0  0  3  0  0  0  0  0  0
  193.4030  174.3130  137.4210 C   0  0  0  0  0  2  0  0  0  0  0  0
  194.9240  174.4020  137.2900 C   0  0  0  0  0  2  0  0  0  0  0  0
  195.6630  173.9600  138.5590 C   0  0  0  0  0  2  0  0  0  0  0  0
  197.1410  173.6840  138.2910 C   0  0  0  0  0  2  0  0  0  0  0  0
  198.0250  173.3310  136.1100 O   0  0  0  0  0  1  0  0  0  0  0  0
  198.0460  171.5870  137.5760 O   0  0  0  0  0  1  0  0  0  0  0  0
  197.3290  172.7050  137.1440 C   0  0  0  0  0  3  0  0  0  0  0  0
  189.3110  174.8440  135.5200 C   0  0  0  0  0  2  0  0  0  0  0  0
  188.9570  174.1960  136.8550 C   0  0  0  0  0  2  0  0  0  0  0  0
  187.4980  174.0730  136.9700 C   0  0  0  0  0  0  0  0  0  0  0  0
  186.3000  173.9860  137.0830 C   0  0  0  0  0  0  0  0  0  0  0  0
  184.8400  173.9360  137.2210 C   0  0  0  0  0  2  0  0  0  0  0  0
  183.1430  174.4760  135.6100 O   0  0  0  0  0  1  0  0  0  0  0  0
  184.1870  175.0200  136.3700 C   0  0  1  0  0  3  0  0  0  0  0  0
  183.6780  176.2020  137.2120 C   0  0  1  0  0  0  0  0  0  0  0  0
  184.7470  177.0670  137.4400 O   0  0  0  0  0  1  0  0  0  0  0  0
  182.6080  176.9820  136.4460 C   0  0  0  0  0  1  0  0  0  0  0  0
  183.2160  175.6820  138.5910 C   0  0  0  0  0  2  0  0  0  0  0  0
  181.1740  175.6060  139.8150 O   0  0  0  0  0  0  0  0  0  0  0  0
  181.7600  175.3650  138.7240 C   0  0  0  0  0  0  0  0  0  0  0  0
  180.8300  173.3960  137.5770 C   0  0  0  0  0  1  0  0  0  0  0  0
  181.0720  174.7910  137.6510 O   0  0  0  0  0  0  0  0  0  0  0  0
  2  1  1  1  0  0  0
  2  8  1  0  0  0  0
  3  7  1  0  0  0  0
  4 10  1  0  0  0  0
  5  2  1  0  0  0  0
  5  4  2  0  0  0  0
  6  7  1  0  0  0  0
  6 12  1  0  0  0  0
  7  9  2  0  0  0  0
  8 10  1  0  0  0  0
  8  3  2  0  0  0  0
 10  6  2  0  0  0  0
 11 12  1  0  0  0  0
 11 21  1  0  0  0  0
 12 13  2  0  0  0  0
 14 15  2  0  0  0  0
 14 23  1  0  0  0  0
 16 19  1  0  0  0  0
 17 15  1  0  0  0  0
 18 14  1  0  0  0  0
 19 20  2  0  0  0  0
 19 21  1  0  0  0  0
 20 18  1  0  0  0  0
 21 17  2  0  0  0  0
 22 23  1  0  0  0  0
 23 25  1  0  0  0  0
 23 24  1  0  0  0  0
 27 26  1  0  0  0  0
 27 20  1  0  0  0  0
 28  1  1  0  0  0  0
 29 28  2  0  0  0  0
 30 33  1  1  0  0  0
 31 32  1  0  0  0  0
 31 30  1  0  0  0  0
 32 28  1  1  0  0  0
 32 30  1  0  0  0  0
 34 33  1  0  0  0  0
 34 35  1  0  0  0  0
 36 35  1  0  0  0  0
 37 39  1  0  0  0  0
 39 38  1  0  0  0  0
 39 36  1  0  0  0  0
 40  1  1  0  0  0  0
 40 41  1  0  0  0  0
 41 42  1  0  0  0  0
 42 43  3  0  0  0  0
 43 44  1  0  0  0  0
 46 45  1  1  0  0  0
 46 47  1  0  0  0  0
 46 44  1  0  0  0  0
 47 49  1  6  0  0  0
 47 48  1  0  0  0  0
 47 50  1  0  0  0  0
 50 52  1  0  0  0  0
 52 51  2  0  0  0  0
 53 54  1  0  0  0  0
 54 52  1  0  0  0  0
M  END
>  <MODEL>
6

>  <REMARK>
 VINA RESULT:      -6.2      5.121      9.764
  Name = 
  21 active torsions:
  status: ('A' for Active; 'I' for Inactive)
    1  A    between atoms: C_2  and  N_10
    2  A    between atoms: C_2  and  C_41
    3  A    between atoms: N_3  and  C_52
    4  A    between atoms: C_4  and  N_10
    5  A    between atoms: O_6  and  C_50
    6  A    between atoms: O_7  and  C_49
    7  A    between atoms: C_8  and  C_27
    8  A    between atoms: C_9  and  C_35
    9  A    between atoms: C_9  and  C_39
   10  A    between atoms: N_10  and  C_42
   11  A    between atoms: C_13  and  C_25
   12  A    between atoms: C_17  and  C_28
   13  A    between atoms: C_17  and  C_35
   14  A    between atoms: C_25  and  C_45
   15  A    between atoms: C_28  and  C_49
   16  A    between atoms: C_31  and  C_36
   17  A    between atoms: C_33  and  C_37
   18  A    between atoms: C_33  and  C_43
   19  A    between atoms: C_38  and  C_54
   20  A    between atoms: C_42  and  C_54
   21  A    between atoms: C_43  and  C_45
                            x       y       z     vdW  Elec       q    Type
                         _______ _______ _______ _____ _____    ______ ____

>  <TORSDO>
F 21

$$$$
=
 OpenBabel11042411163D

 54 57  0  0  1  0  0  0  0  0999 V2000
  185.8940  178.2060  139.9130 N   0  0  0  0  0  0  0  0  0  0  0  0
  187.0830  178.5100  139.1130 C   0  0  1  0  0  3  0  0  0  0  0  0
  186.7760  176.8910  137.1800 N   0  0  0  0  0  0  0  0  0  0  0  0
  189.3240  177.5380  139.4900 N   0  0  0  0  0  0  0  0  0  0  0  0
  188.3930  178.5810  139.9800 C   0  0  0  0  0  3  0  0  0  0  0  0
  188.9610  175.9600  137.5570 C   0  0  0  0  0  0  0  0  0  0  0  0
  187.7530  175.9360  136.7180 C   0  0  0  0  0  0  0  0  0  0  0  0
  187.3840  177.3950  138.2000 C   0  0  1  0  0  3  0  0  0  0  0  0
  187.5310  175.1100  135.7490 N   0  0  0  0  0  1  0  0  0  0  0  0
  188.6430  176.8760  138.4470 C   0  0  0  0  0  0  0  0  0  0  0  0
  191.4150  175.9000  137.0280 N   0  0  0  0  0  2  0  0  0  0  0  0
  190.2170  175.2170  137.4150 C   0  0  0  0  0  0  0  0  0  0  0  0
  190.2090  173.9750  137.5990 O   0  0  0  0  0  0  0  0  0  0  0  0
  194.9460  173.2990  136.1170 C   0  0  0  0  0  0  0  0  0  0  0  0
  194.1800  173.9960  135.2730 C   0  0  0  0  0  3  0  0  0  0  0  0
  193.8660  176.6960  138.5700 O   0  0  0  0  0  1  0  0  0  0  0  0
  192.9600  174.7380  135.6710 C   0  0  0  0  0  3  0  0  0  0  0  0
  194.5650  173.1650  137.5580 C   0  0  0  0  0  2  0  0  0  0  0  0
  193.7690  175.4750  137.9060 C   0  0  0  0  0  0  0  0  0  0  0  0
  194.6190  174.4940  138.2450 C   0  0  0  0  0  0  0  0  0  0  0  0
  192.7130  175.3200  136.8530 C   0  0  0  0  0  0  0  0  0  0  0  0
  197.0710  173.4160  135.0700 F   0  0  0  0  0  0  0  0  0  0  0  0
  196.1360  172.5390  135.5940 C   0  0  0  0  0  0  0  0  0  0  0  0
  195.7540  171.6510  134.6040 F   0  0  0  0  0  0  0  0  0  0  0  0
  196.7130  171.8140  136.6260 F   0  0  0  0  0  0  0  0  0  0  0  0
  196.9400  174.7390  139.0520 C   0  0  0  0  0  1  0  0  0  0  0  0
  195.5380  174.7270  139.2670 O   0  0  0  0  0  0  0  0  0  0  0  0
  184.5690  178.4250  139.4120 C   0  0  0  0  0  0  0  0  0  0  0  0
  184.2400  179.6560  139.0180 C   0  0  0  0  0  2  0  0  0  0  0  0
  182.9490  176.5250  138.8620 C   0  0  2  0  0  3  0  0  0  0  0  0
  182.1880  177.7150  139.2830 N   0  0  0  0  0  2  0  0  0  0  0  0
  183.5160  177.4490  139.8740 C   0  0  2  0  0  3  0  0  0  0  0  0
  183.3960  176.7130  137.4130 C   0  0  0  0  0  2  0  0  0  0  0  0
  182.5120  175.9110  136.4580 C   0  0  0  0  0  2  0  0  0  0  0  0
  182.5530  174.4020  136.7250 C   0  0  0  0  0  2  0  0  0  0  0  0
  183.4700  173.6740  135.7430 C   0  0  0  0  0  2  0  0  0  0  0  0
  185.0340  173.4870  137.5270 O   0  0  0  0  0  1  0  0  0  0  0  0
  183.8300  171.6400  136.9520 O   0  0  0  0  0  1  0  0  0  0  0  0
  184.4680  172.7830  136.4640 C   0  0  0  0  0  3  0  0  0  0  0  0
  186.0860  177.7560  141.2880 C   0  0  0  0  0  2  0  0  0  0  0  0
  185.3400  178.6750  142.2510 C   0  0  0  0  0  2  0  0  0  0  0  0
  185.6260  178.2710  143.6350 C   0  0  0  0  0  0  0  0  0  0  0  0
  185.8730  177.9600  144.7740 C   0  0  0  0  0  0  0  0  0  0  0  0
  186.1530  177.6300  146.1760 C   0  0  0  0  0  2  0  0  0  0  0  0
  186.6320  179.2730  147.8600 O   0  0  0  0  0  1  0  0  0  0  0  0
  187.1750  178.6020  146.7570 C   0  0  1  0  0  3  0  0  0  0  0  0
  188.4920  177.9080  147.1460 C   0  0  1  0  0  0  0  0  0  0  0  0
  189.1770  178.7400  148.0300 O   0  0  0  0  0  1  0  0  0  0  0  0
  188.2080  176.5940  147.8740 C   0  0  0  0  0  1  0  0  0  0  0  0
  189.3770  177.7570  145.8900 C   0  0  0  0  0  2  0  0  0  0  0  0
  191.6150  177.2700  145.2350 O   0  0  0  0  0  0  0  0  0  0  0  0
  190.7050  177.0970  146.0910 C   0  0  0  0  0  0  0  0  0  0  0  0
  192.1540  175.6370  147.4400 C   0  0  0  0  0  1  0  0  0  0  0  0
  190.9150  176.2860  147.2090 O   0  0  0  0  0  0  0  0  0  0  0  0
  1 40  1  0  0  0  0
  2  1  1  1  0  0  0
  2  5  1  0  0  0  0
  4  5  2  0  0  0  0
  6 10  2  0  0  0  0
  7  3  2  0  0  0  0
  7  6  1  0  0  0  0
  8  3  1  6  0  0  0
  8 10  1  0  0  0  0
  8  2  1  0  0  0  0
  9  7  1  0  0  0  0
 10  4  1  0  0  0  0
 11 12  1  0  0  0  0
 12  6  1  0  0  0  0
 12 13  2  0  0  0  0
 14 18  1  0  0  0  0
 15 17  1  0  0  0  0
 15 14  2  0  0  0  0
 17 21  2  0  0  0  0
 18 20  1  0  0  0  0
 19 20  2  0  0  0  0
 19 16  1  0  0  0  0
 20 27  1  0  0  0  0
 21 11  1  0  0  0  0
 21 19  1  0  0  0  0
 22 23  1  0  0  0  0
 23 14  1  0  0  0  0
 23 25  1  0  0  0  0
 24 23  1  0  0  0  0
 26 27  1  0  0  0  0
 28  1  1  0  0  0  0
 29 28  2  0  0  0  0
 30 33  1  6  0  0  0
 30 31  1  0  0  0  0
 30 32  1  0  0  0  0
 31 32  1  0  0  0  0
 32 28  1  6  0  0  0
 34 35  1  0  0  0  0
 34 33  1  0  0  0  0
 36 39  1  0  0  0  0
 36 35  1  0  0  0  0
 39 38  1  0  0  0  0
 39 37  1  0  0  0  0
 40 41  1  0  0  0  0
 41 42  1  0  0  0  0
 42 43  3  0  0  0  0
 43 44  1  0  0  0  0
 44 46  1  0  0  0  0
 46 47  1  0  0  0  0
 46 45  1  1  0  0  0
 47 49  1  1  0  0  0
 47 48  1  0  0  0  0
 50 52  1  0  0  0  0
 50 47  1  0  0  0  0
 51 52  2  0  0  0  0
 52 54  1  0  0  0  0
 54 53  1  0  0  0  0
M  END
>  <MODEL>
7

>  <REMARK>
 VINA RESULT:      -6.1      2.455      7.299
  Name = 
  21 active torsions:
  status: ('A' for Active; 'I' for Inactive)
    1  A    between atoms: C_2  and  N_10
    2  A    between atoms: C_2  and  C_41
    3  A    between atoms: N_3  and  C_52
    4  A    between atoms: C_4  and  N_10
    5  A    between atoms: O_6  and  C_50
    6  A    between atoms: O_7  and  C_49
    7  A    between atoms: C_8  and  C_27
    8  A    between atoms: C_9  and  C_35
    9  A    between atoms: C_9  and  C_39
   10  A    between atoms: N_10  and  C_42
   11  A    between atoms: C_13  and  C_25
   12  A    between atoms: C_17  and  C_28
   13  A    between atoms: C_17  and  C_35
   14  A    between atoms: C_25  and  C_45
   15  A    between atoms: C_28  and  C_49
   16  A    between atoms: C_31  and  C_36
   17  A    between atoms: C_33  and  C_37
   18  A    between atoms: C_33  and  C_43
   19  A    between atoms: C_38  and  C_54
   20  A    between atoms: C_42  and  C_54
   21  A    between atoms: C_43  and  C_45
                            x       y       z     vdW  Elec       q    Type
                         _______ _______ _______ _____ _____    ______ ____

>  <TORSDO>
F 21

$$$$
=
 OpenBabel11042411163D

 54 57  0  0  1  0  0  0  0  0999 V2000
  188.1120  177.0730  135.6970 N   0  0  0  0  0  0  0  0  0  0  0  0
  188.2270  178.1950  136.6330 C   0  0  1  0  0  3  0  0  0  0  0  0
  190.3680  177.5720  137.8500 N   0  0  0  0  0  0  0  0  0  0  0  0
  187.0930  178.3250  138.8250 N   0  0  0  0  0  0  0  0  0  0  0  0
  186.8750  178.5070  137.3710 C   0  0  0  0  0  3  0  0  0  0  0  0
  189.2500  177.7080  139.9750 C   0  0  0  0  0  0  0  0  0  0  0  0
  190.5250  177.4690  139.2810 C   0  0  0  0  0  0  0  0  0  0  0  0
  189.1090  177.8350  137.7560 C   0  0  0  0  0  0  0  0  0  0  0  0
  191.6310  177.1130  139.8470 N   0  0  0  0  0  2  0  0  0  0  0  0
  188.4350  177.9150  138.9620 C   0  0  0  0  0  0  0  0  0  0  0  0
  189.7160  176.9720  142.3300 N   0  0  0  0  0  2  0  0  0  0  0  0
  188.9620  177.7710  141.4100 C   0  0  0  0  0  0  0  0  0  0  0  0
  188.0220  178.5030  141.8080 O   0  0  0  0  0  0  0  0  0  0  0  0
  188.6490  177.6520  146.6270 C   0  0  0  0  0  0  0  0  0  0  0  0
  187.8970  177.1400  145.6490 C   0  0  0  0  0  3  0  0  0  0  0  0
  191.6400  175.6530  144.2210 O   0  0  0  0  0  1  0  0  0  0  0  0
  188.3130  177.0640  144.2280 C   0  0  0  0  0  3  0  0  0  0  0  0
  189.9820  178.2630  146.3230 C   0  0  0  0  0  2  0  0  0  0  0  0
  190.7260  176.6160  144.6420 C   0  0  0  0  0  0  0  0  0  0  0  0
  190.9360  177.2270  145.8180 C   0  0  0  0  0  0  0  0  0  0  0  0
  189.5590  176.9260  143.7540 C   0  0  0  0  0  0  0  0  0  0  0  0
  187.0080  178.5730  148.0720 F   0  0  0  0  0  0  0  0  0  0  0  0
  188.1050  177.7270  148.0290 C   0  0  0  0  0  0  0  0  0  0  0  0
  189.0670  178.2000  148.9040 F   0  0  0  0  0  0  0  0  0  0  0  0
  187.7250  176.4600  148.4470 F   0  0  0  0  0  0  0  0  0  0  0  0
  192.1090  175.8200  147.4750 C   0  0  0  0  0  1  0  0  0  0  0  0
  192.0750  176.8950  146.5510 O   0  0  0  0  0  0  0  0  0  0  0  0
  189.1450  176.0880  135.5670 C   0  0  0  0  0  0  0  0  0  0  0  0
  190.0450  176.2420  134.5960 C   0  0  0  0  0  2  0  0  0  0  0  0
  189.9150  174.0160  136.8530 C   0  0  2  0  0  3  0  0  0  0  0  0
  189.5900  173.6420  135.4650 N   0  0  0  0  0  2  0  0  0  0  0  0
  188.8310  174.7220  136.1280 C   0  0  2  0  0  3  0  0  0  0  0  0
  191.2910  174.6790  136.8770 C   0  0  0  0  0  2  0  0  0  0  0  0
  192.3210  173.7810  137.5620 C   0  0  0  0  0  2  0  0  0  0  0  0
  193.5270  173.4630  136.6710 C   0  0  0  0  0  2  0  0  0  0  0  0
  193.4000  172.0920  136.0080 C   0  0  0  0  0  2  0  0  0  0  0  0
  195.3380  170.8550  135.3990 O   0  0  0  0  0  1  0  0  0  0  0  0
  195.2340  171.7250  137.5020 O   0  0  0  0  0  1  0  0  0  0  0  0
  194.4940  171.1430  136.4700 C   0  0  0  0  0  3  0  0  0  0  0  0
  186.9510  177.0290  134.8150 C   0  0  0  0  0  2  0  0  0  0  0  0
  186.0400  175.8680  135.2000 C   0  0  0  0  0  2  0  0  0  0  0  0
  184.8030  176.3910  135.7950 C   0  0  0  0  0  0  0  0  0  0  0  0
  183.7850  176.8360  136.2660 C   0  0  0  0  0  0  0  0  0  0  0  0
  182.5220  177.3690  136.7900 C   0  0  0  0  0  2  0  0  0  0  0  0
  183.8270  177.1450  138.7930 O   0  0  0  0  0  1  0  0  0  0  0  0
  182.5240  177.3380  138.3150 C   0  0  1  0  0  3  0  0  0  0  0  0
  181.9100  178.6070  138.9300 C   0  0  1  0  0  0  0  0  0  0  0  0
  181.6860  178.3700  140.2850 O   0  0  0  0  0  1  0  0  0  0  0  0
  182.8850  179.7790  138.8200 C   0  0  0  0  0  1  0  0  0  0  0  0
  180.5320  178.8680  138.2840 C   0  0  0  0  0  2  0  0  0  0  0  0
  181.1630  180.4200  136.5900 O   0  0  0  0  0  0  0  0  0  0  0  0
  180.3810  180.1610  137.5460 C   0  0  0  0  0  0  0  0  0  0  0  0
  179.7090  182.3950  138.3260 C   0  0  0  0  0  1  0  0  0  0  0  0
  179.3930  181.0710  137.9320 O   0  0  0  0  0  0  0  0  0  0  0  0
  2  1  1  6  0  0  0
  2  5  1  0  0  0  0
  2  8  1  0  0  0  0
  3  7  1  0  0  0  0
  4 10  1  0  0  0  0
  5  4  2  0  0  0  0
  6 12  1  0  0  0  0
  7  9  2  0  0  0  0
  7  6  1  0  0  0  0
  8  3  2  0  0  0  0
  8 10  1  0  0  0  0
 10  6  2  0  0  0  0
 11 21  1  0  0  0  0
 12 13  2  0  0  0  0
 12 11  1  0  0  0  0
 14 23  1  0  0  0  0
 15 14  2  0  0  0  0
 16 19  1  0  0  0  0
 17 15  1  0  0  0  0
 18 14  1  0  0  0  0
 19 20  2  0  0  0  0
 20 18  1  0  0  0  0
 20 27  1  0  0  0  0
 21 17  2  0  0  0  0
 21 19  1  0  0  0  0
 23 22  1  0  0  0  0
 23 25  1  0  0  0  0
 23 24  1  0  0  0  0
 27 26  1  0  0  0  0
 28  1  1  0  0  0  0
 29 28  2  0  0  0  0
 30 33  1  6  0  0  0
 31 32  1  0  0  0  0
 31 30  1  0  0  0  0
 32 28  1  6  0  0  0
 32 30  1  0  0  0  0
 33 34  1  0  0  0  0
 35 34  1  0  0  0  0
 36 39  1  0  0  0  0
 36 35  1  0  0  0  0
 37 39  1  0  0  0  0
 39 38  1  0  0  0  0
 40 41  1  0  0  0  0
 40  1  1  0  0  0  0
 41 42  1  0  0  0  0
 42 43  3  0  0  0  0
 43 44  1  0  0  0  0
 44 46  1  0  0  0  0
 46 45  1  1  0  0  0
 46 47  1  0  0  0  0
 47 49  1  6  0  0  0
 47 48  1  0  0  0  0
 50 47  1  0  0  0  0
 51 52  2  0  0  0  0
 52 54  1  0  0  0  0
 52 50  1  0  0  0  0
 54 53  1  0  0  0  0
M  END
>  <MODEL>
8

>  <REMARK>
 VINA RESULT:      -6.0      4.306      8.534
  Name = 
  21 active torsions:
  status: ('A' for Active; 'I' for Inactive)
    1  A    between atoms: C_2  and  N_10
    2  A    between atoms: C_2  and  C_41
    3  A    between atoms: N_3  and  C_52
    4  A    between atoms: C_4  and  N_10
    5  A    between atoms: O_6  and  C_50
    6  A    between atoms: O_7  and  C_49
    7  A    between atoms: C_8  and  C_27
    8  A    between atoms: C_9  and  C_35
    9  A    between atoms: C_9  and  C_39
   10  A    between atoms: N_10  and  C_42
   11  A    between atoms: C_13  and  C_25
   12  A    between atoms: C_17  and  C_28
   13  A    between atoms: C_17  and  C_35
   14  A    between atoms: C_25  and  C_45
   15  A    between atoms: C_28  and  C_49
   16  A    between atoms: C_31  and  C_36
   17  A    between atoms: C_33  and  C_37
   18  A    between atoms: C_33  and  C_43
   19  A    between atoms: C_38  and  C_54
   20  A    between atoms: C_42  and  C_54
   21  A    between atoms: C_43  and  C_45
                            x       y       z     vdW  Elec       q    Type
                         _______ _______ _______ _____ _____    ______ ____

>  <TORSDO>
F 21

$$$$
=
 OpenBabel11042411163D

 54 57  0  0  1  0  0  0  0  0999 V2000
  189.8760  175.2630  135.5230 N   0  0  0  0  0  0  0  0  0  0  0  0
  189.7420  176.6470  135.9840 C   0  0  1  0  0  3  0  0  0  0  0  0
  191.4950  176.7000  137.8220 N   0  0  0  0  0  0  0  0  0  0  0  0
  188.0770  177.4300  137.6350 N   0  0  0  0  0  0  0  0  0  0  0  0
  188.2440  177.0670  136.2070 C   0  0  0  0  0  3  0  0  0  0  0  0
  189.8630  177.4660  139.4140 C   0  0  0  0  0  0  0  0  0  0  0  0
  191.2740  177.1210  139.1840 C   0  0  0  0  0  0  0  0  0  0  0  0
  190.3020  176.7910  137.3380 C   0  0  0  0  0  0  0  0  0  0  0  0
  192.1960  177.0950  140.0910 N   0  0  0  0  0  2  0  0  0  0  0  0
  189.3390  177.2240  138.2320 C   0  0  0  0  0  0  0  0  0  0  0  0
  189.3080  177.2970  141.8570 N   0  0  0  0  0  2  0  0  0  0  0  0
  189.2120  178.0010  140.6130 C   0  0  0  0  0  0  0  0  0  0  0  0
  188.5410  179.0580  140.5170 O   0  0  0  0  0  0  0  0  0  0  0  0
  188.0120  177.7120  146.1250 C   0  0  0  0  0  0  0  0  0  0  0  0
  189.1990  177.9920  145.5800 C   0  0  0  0  0  3  0  0  0  0  0  0
  186.8380  178.9790  142.1570 O   0  0  0  0  0  1  0  0  0  0  0  0
  189.5580  177.7090  144.1700 C   0  0  0  0  0  3  0  0  0  0  0  0
  186.9570  177.0060  145.3320 C   0  0  0  0  0  2  0  0  0  0  0  0
  187.3190  178.1730  143.1870 C   0  0  0  0  0  0  0  0  0  0  0  0
  186.4900  177.8610  144.1950 C   0  0  0  0  0  0  0  0  0  0  0  0
  188.7360  177.6910  143.1110 C   0  0  0  0  0  0  0  0  0  0  0  0
  188.9110  178.5390  148.1590 F   0  0  0  0  0  0  0  0  0  0  0  0
  187.7730  177.9950  147.5840 C   0  0  0  0  0  0  0  0  0  0  0  0
  187.4430  176.8340  148.2610 F   0  0  0  0  0  0  0  0  0  0  0  0
  186.7200  178.8880  147.7170 F   0  0  0  0  0  0  0  0  0  0  0  0
  184.7950  179.6000  144.6470 C   0  0  0  0  0  1  0  0  0  0  0  0
  185.1770  178.3260  144.1510 O   0  0  0  0  0  0  0  0  0  0  0  0
  191.1560  174.6710  135.2670 C   0  0  0  0  0  0  0  0  0  0  0  0
  192.0580  175.3870  134.5940 C   0  0  0  0  0  2  0  0  0  0  0  0
  192.2650  172.5090  136.0640 C   0  0  2  0  0  3  0  0  0  0  0  0
  192.4070  172.6260  134.6020 N   0  0  0  0  0  2  0  0  0  0  0  0
  191.2010  173.1630  135.2640 C   0  0  2  0  0  3  0  0  0  0  0  0
  193.2950  173.4160  136.7340 C   0  0  0  0  0  2  0  0  0  0  0  0
  194.7090  173.0960  136.2450 C   0  0  0  0  0  2  0  0  0  0  0  0
  195.7590  173.1620  137.3590 C   0  0  0  0  0  2  0  0  0  0  0  0
  195.4610  174.2800  138.3570 C   0  0  0  0  0  2  0  0  0  0  0  0
  197.6440  175.2250  138.3930 O   0  0  0  0  0  1  0  0  0  0  0  0
  196.3260  175.4900  140.2320 O   0  0  0  0  0  1  0  0  0  0  0  0
  196.6800  174.6200  139.1980 C   0  0  0  0  0  3  0  0  0  0  0  0
  188.6590  174.5130  135.2320 C   0  0  0  0  0  2  0  0  0  0  0  0
  188.0830  173.9240  136.5150 C   0  0  0  0  0  2  0  0  0  0  0  0
  186.6730  173.5680  136.3030 C   0  0  0  0  0  0  0  0  0  0  0  0
  185.5090  173.2970  136.1340 C   0  0  0  0  0  0  0  0  0  0  0  0
  184.0900  173.0120  135.8950 C   0  0  0  0  0  2  0  0  0  0  0  0
  183.9730  174.2360  137.9580 O   0  0  0  0  0  1  0  0  0  0  0  0
  183.2170  173.8140  136.8560 C   0  0  1  0  0  3  0  0  0  0  0  0
  182.5440  175.0170  136.1750 C   0  0  1  0  0  0  0  0  0  0  0  0
  183.2770  176.1600  136.4870 O   0  0  0  0  0  1  0  0  0  0  0  0
  182.5670  174.8520  134.6560 C   0  0  0  0  0  1  0  0  0  0  0  0
  181.1310  175.2110  136.7690 C   0  0  0  0  0  2  0  0  0  0  0  0
  180.3290  173.5690  138.2970 O   0  0  0  0  0  0  0  0  0  0  0  0
  180.3750  173.9630  137.1000 C   0  0  0  0  0  0  0  0  0  0  0  0
  180.2660  172.0110  135.6050 C   0  0  0  0  0  1  0  0  0  0  0  0
  179.7460  173.2410  136.0820 O   0  0  0  0  0  0  0  0  0  0  0  0
  2  1  1  1  0  0  0
  2  5  1  0  0  0  0
  2  8  1  0  0  0  0
  3  7  1  0  0  0  0
  4 10  1  0  0  0  0
  5  4  2  0  0  0  0
  6 12  1  0  0  0  0
  7  6  1  0  0  0  0
  7  9  2  0  0  0  0
  8  3  2  0  0  0  0
  8 10  1  0  0  0  0
 10  6  2  0  0  0  0
 11 21  1  0  0  0  0
 12 11  1  0  0  0  0
 13 12  2  0  0  0  0
 14 23  1  0  0  0  0
 15 14  2  0  0  0  0
 16 19  1  0  0  0  0
 17 15  1  0  0  0  0
 18 14  1  0  0  0  0
 19 20  2  0  0  0  0
 20 18  1  0  0  0  0
 21 19  1  0  0  0  0
 21 17  2  0  0  0  0
 23 25  1  0  0  0  0
 23 22  1  0  0  0  0
 23 24  1  0  0  0  0
 27 20  1  0  0  0  0
 27 26  1  0  0  0  0
 28  1  1  0  0  0  0
 29 28  2  0  0  0  0
 30 33  1  1  0  0  0
 31 32  1  0  0  0  0
 31 30  1  0  0  0  0
 32 28  1  1  0  0  0
 32 30  1  0  0  0  0
 34 33  1  0  0  0  0
 34 35  1  0  0  0  0
 35 36  1  0  0  0  0
 36 39  1  0  0  0  0
 37 39  1  0  0  0  0
 39 38  1  0  0  0  0
 40  1  1  0  0  0  0
 40 41  1  0  0  0  0
 42 41  1  0  0  0  0
 43 42  3  0  0  0  0
 44 43  1  0  0  0  0
 44 46  1  0  0  0  0
 46 45  1  1  0  0  0
 47 49  1  6  0  0  0
 47 48  1  0  0  0  0
 47 50  1  0  0  0  0
 47 46  1  0  0  0  0
 50 52  1  0  0  0  0
 52 51  2  0  0  0  0
 53 54  1  0  0  0  0
 54 52  1  0  0  0  0
M  END
>  <MODEL>
9

>  <REMARK>
 VINA RESULT:      -5.6      4.628      9.203
  Name = 
  21 active torsions:
  status: ('A' for Active; 'I' for Inactive)
    1  A    between atoms: C_2  and  N_10
    2  A    between atoms: C_2  and  C_41
    3  A    between atoms: N_3  and  C_52
    4  A    between atoms: C_4  and  N_10
    5  A    between atoms: O_6  and  C_50
    6  A    between atoms: O_7  and  C_49
    7  A    between atoms: C_8  and  C_27
    8  A    between atoms: C_9  and  C_35
    9  A    between atoms: C_9  and  C_39
   10  A    between atoms: N_10  and  C_42
   11  A    between atoms: C_13  and  C_25
   12  A    between atoms: C_17  and  C_28
   13  A    between atoms: C_17  and  C_35
   14  A    between atoms: C_25  and  C_45
   15  A    between atoms: C_28  and  C_49
   16  A    between atoms: C_31  and  C_36
   17  A    between atoms: C_33  and  C_37
   18  A    between atoms: C_33  and  C_43
   19  A    between atoms: C_38  and  C_54
   20  A    between atoms: C_42  and  C_54
   21  A    between atoms: C_43  and  C_45
                            x       y       z     vdW  Elec       q    Type
                         _______ _______ _______ _____ _____    ______ ____

>  <TORSDO>
F 21

$$$$
