=
 OpenBabel11032419293D

 36 38  0  0  1  0  0  0  0  0999 V2000
  186.0090  177.8020  137.7780 C   0  0  1  0  0  3  0  0  0  0  0  0
  185.7870  178.8840  138.7280 N   0  0  0  0  0  2  0  0  0  0  0  0
  184.7110  177.4240  137.0710 C   0  0  0  0  0  2  0  0  0  0  0  0
  182.6090  178.7870  139.5720 C   0  0  0  0  0  0  0  0  0  0  0  0
  182.0000  178.8260  137.2260 C   0  0  0  0  0  3  0  0  0  0  0  0
  181.6870  179.8080  139.8230 C   0  0  0  0  0  3  0  0  0  0  0  0
  184.7230  178.8910  140.9360 C   0  0  2  0  0  3  0  0  0  0  0  0
  183.4230  178.2940  140.6360 N   0  0  0  0  0  2  0  0  0  0  0  0
  185.8150  178.2890  140.0550 C   0  0  0  0  0  2  0  0  0  0  0  0
  181.0710  179.8510  137.4770 C   0  0  0  0  0  0  0  0  0  0  0  0
  182.7600  178.2870  138.2720 C   0  0  0  0  0  0  0  0  0  0  0  0
  180.9180  180.3340  138.7800 C   0  0  0  0  0  3  0  0  0  0  0  0
  183.6710  177.2590  138.0270 O   0  0  0  0  0  0  0  0  0  0  0  0
  184.4350  178.8500  144.8270 C   0  0  0  0  0  0  0  0  0  0  0  0
  184.0520  179.1730  143.4080 C   0  0  0  0  0  2  0  0  0  0  0  0
  185.7550  178.2710  145.1380 C   0  0  0  0  0  0  0  0  0  0  0  0
  186.2290  178.1530  142.7400 C   0  0  0  0  0  3  0  0  0  0  0  0
  183.6190  179.1020  145.7530 O   0  0  0  0  0  0  0  0  0  0  0  0
  185.0550  178.6960  142.3830 C   0  0  0  0  0  0  0  0  0  0  0  0
  186.1730  178.0340  146.5500 C   0  0  0  0  0  1  0  0  0  0  0  0
  186.5920  177.9500  144.1520 C   0  0  0  0  0  3  0  0  0  0  0  0
  180.2740  180.4140  136.4290 N   0  0  0  0  0  0  0  0  0  0  0  0
  180.3950  181.6390  136.0290 C   0  0  0  0  0  3  0  0  0  0  0  0
  179.5450  182.1610  134.9280 C   0  0  0  0  0  2  0  0  0  0  0  0
  179.7130  183.5660  134.8190 O   0  0  0  0  0  0  0  0  0  0  0  0
  180.6260  184.2140  135.6040 C   0  0  0  0  0  0  0  0  0  0  0  0
  181.3960  184.7630  136.2730 N   0  0  0  0  0  0  0  0  0  0  0  0
  186.8890  177.9570  135.5880 O   0  0  0  0  0  0  0  0  0  0  0  0
  187.0500  178.1950  136.7760 C   0  0  0  0  0  0  0  0  0  0  0  0
  188.2900  178.8910  137.2450 C   0  0  0  0  0  2  0  0  0  0  0  0
  189.2480  177.9040  137.8940 C   0  0  0  0  0  2  0  0  0  0  0  0
  189.5090  178.3000  139.3360 C   0  0  0  0  0  2  0  0  0  0  0  0
  190.5280  177.0740  140.1290 S   0  0  0  0  0  0  0  0  0  0  0  0
  191.9200  177.6080  140.3320 O   0  0  0  0  0  0  0  0  0  0  0  0
  189.8140  176.6440  141.7030 C   0  0  0  0  0  1  0  0  0  0  0  0
  190.5840  175.8480  139.2620 O   0  0  0  0  0  0  0  0  0  0  0  0
  1 29  1  6  0  0  0
  1  2  1  0  0  0  0
  2  9  1  0  0  0  0
  3  1  1  0  0  0  0
  3 13  1  0  0  0  0
  4  6  1  0  0  0  0
  4  8  1  0  0  0  0
  5 10  2  0  0  0  0
  5 11  1  0  0  0  0
  7 19  1  1  0  0  0
  8  7  1  0  0  0  0
  9  7  1  0  0  0  0
 10 12  1  0  0  0  0
 11  4  2  0  0  0  0
 12  6  2  0  0  0  0
 13 11  1  0  0  0  0
 14 16  1  0  0  0  0
 14 18  2  0  0  0  0
 15 14  1  0  0  0  0
 16 20  1  0  0  0  0
 17 21  1  0  0  0  0
 19 17  2  0  0  0  0
 19 15  1  0  0  0  0
 21 16  2  0  0  0  0
 22 10  1  0  0  0  0
 23 22  2  0  0  0  0
 24 23  1  0  0  0  0
 25 24  1  0  0  0  0
 25 26  1  0  0  0  0
 26 27  3  0  0  0  0
 28 29  2  0  0  0  0
 29 30  1  0  0  0  0
 30 31  1  0  0  0  0
 31 32  1  0  0  0  0
 32 33  1  0  0  0  0
 33 34  2  0  0  0  0
 33 35  1  0  0  0  0
 36 33  2  0  0  0  0
M  END
>  <MODEL>
1

>  <REMARK>
 VINA RESULT:      -7.6      0.000      0.000
  Name = 
  10 active torsions:
  status: ('A' for Active; 'I' for Inactive)
    1  A    between atoms: C_2  and  O_10
    2  A    between atoms: N_3  and  C_26
    3  A    between atoms: C_4  and  C_36
    4  A    between atoms: C_7  and  S_17
    5  A    between atoms: C_7  and  C_25
    6  A    between atoms: O_10  and  C_30
    7  A    between atoms: C_15  and  C_20
    8  A    between atoms: C_25  and  C_29
    9  A    between atoms: C_29  and  C_36
   10  A    between atoms: C_30  and  C_31
                            x       y       z     vdW  Elec       q    Type
                         _______ _______ _______ _____ _____    ______ ____

>  <TORSDO>
F 10

$$$$
=
 OpenBabel11032419293D

 36 38  0  0  1  0  0  0  0  0999 V2000
  187.2800  177.7720  137.6210 C   0  0  1  0  0  3  0  0  0  0  0  0
  186.1270  177.3450  138.4040 N   0  0  0  0  0  2  0  0  0  0  0  0
  188.4470  178.1410  138.5320 C   0  0  0  0  0  2  0  0  0  0  0  0
  186.4280  178.7060  141.3840 C   0  0  0  0  0  0  0  0  0  0  0  0
  188.6650  177.7900  141.5600 C   0  0  0  0  0  3  0  0  0  0  0  0
  186.1330  178.2150  142.6590 C   0  0  0  0  0  3  0  0  0  0  0  0
  184.5240  178.6340  139.7380 C   0  0  2  0  0  3  0  0  0  0  0  0
  185.4140  179.3730  140.6310 N   0  0  0  0  0  2  0  0  0  0  0  0
  185.1680  178.4380  138.3670 C   0  0  0  0  0  2  0  0  0  0  0  0
  188.3710  177.2980  142.8430 C   0  0  0  0  0  0  0  0  0  0  0  0
  187.7010  178.5030  140.8350 C   0  0  0  0  0  0  0  0  0  0  0  0
  187.1020  177.5190  143.3870 C   0  0  0  0  0  3  0  0  0  0  0  0
  187.9980  179.0050  139.5670 O   0  0  0  0  0  0  0  0  0  0  0  0
  180.8240  179.7310  140.3090 C   0  0  0  0  0  0  0  0  0  0  0  0
  182.0610  178.8860  140.4500 C   0  0  0  0  0  2  0  0  0  0  0  0
  180.7540  180.8030  139.2990 C   0  0  0  0  0  0  0  0  0  0  0  0
  183.0900  180.3590  138.7190 C   0  0  0  0  0  3  0  0  0  0  0  0
  179.8350  179.4970  141.0530 O   0  0  0  0  0  0  0  0  0  0  0  0
  183.2200  179.3560  139.6020 C   0  0  0  0  0  0  0  0  0  0  0  0
  179.4990  181.5830  139.0950 C   0  0  0  0  0  1  0  0  0  0  0  0
  181.8220  181.0890  138.5550 C   0  0  0  0  0  3  0  0  0  0  0  0
  189.3400  176.5750  143.6100 N   0  0  0  0  0  0  0  0  0  0  0  0
  190.6150  176.7640  143.4970 C   0  0  0  0  0  3  0  0  0  0  0  0
  191.5690  175.9890  144.3320 C   0  0  0  0  0  2  0  0  0  0  0  0
  191.8500  176.7050  145.5250 O   0  0  0  0  0  0  0  0  0  0  0  0
  192.0510  176.0340  146.7000 C   0  0  0  0  0  0  0  0  0  0  0  0
  192.2260  175.4650  147.6930 N   0  0  0  0  0  0  0  0  0  0  0  0
  187.2270  175.5650  136.7720 O   0  0  0  0  0  0  0  0  0  0  0  0
  187.6870  176.6940  136.6670 C   0  0  0  0  0  0  0  0  0  0  0  0
  188.6610  177.0130  135.5750 C   0  0  0  0  0  2  0  0  0  0  0  0
  189.7400  175.9460  135.4880 C   0  0  0  0  0  2  0  0  0  0  0  0
  190.9120  176.3130  136.3790 C   0  0  0  0  0  2  0  0  0  0  0  0
  191.1440  175.0640  137.6270 S   0  0  0  0  0  0  0  0  0  0  0  0
  190.2180  173.9030  137.3780 O   0  0  0  0  0  0  0  0  0  0  0  0
  192.8340  174.5030  137.5910 C   0  0  0  0  0  1  0  0  0  0  0  0
  190.8500  175.6580  138.9750 O   0  0  0  0  0  0  0  0  0  0  0  0
  1 29  1  6  0  0  0
  1  2  1  0  0  0  0
  1  3  1  0  0  0  0
  3 13  1  0  0  0  0
  4  6  1  0  0  0  0
  5 10  2  0  0  0  0
  6 12  2  0  0  0  0
  7 19  1  6  0  0  0
  7  8  1  0  0  0  0
  8  4  1  0  0  0  0
  9  2  1  0  0  0  0
  9  7  1  0  0  0  0
 10 12  1  0  0  0  0
 10 22  1  0  0  0  0
 11  4  2  0  0  0  0
 11  5  1  0  0  0  0
 13 11  1  0  0  0  0
 14 15  1  0  0  0  0
 14 18  2  0  0  0  0
 16 14  1  0  0  0  0
 17 19  2  0  0  0  0
 19 15  1  0  0  0  0
 20 16  1  0  0  0  0
 21 17  1  0  0  0  0
 21 16  2  0  0  0  0
 23 22  2  0  0  0  0
 23 24  1  0  0  0  0
 24 25  1  0  0  0  0
 25 26  1  0  0  0  0
 26 27  3  0  0  0  0
 29 28  2  0  0  0  0
 30 29  1  0  0  0  0
 31 30  1  0  0  0  0
 31 32  1  0  0  0  0
 32 33  1  0  0  0  0
 33 36  2  0  0  0  0
 34 33  2  0  0  0  0
 35 33  1  0  0  0  0
M  END
>  <MODEL>
2

>  <REMARK>
 VINA RESULT:      -7.5      3.360      8.161
  Name = 
  10 active torsions:
  status: ('A' for Active; 'I' for Inactive)
    1  A    between atoms: C_2  and  O_10
    2  A    between atoms: N_3  and  C_26
    3  A    between atoms: C_4  and  C_36
    4  A    between atoms: C_7  and  S_17
    5  A    between atoms: C_7  and  C_25
    6  A    between atoms: O_10  and  C_30
    7  A    between atoms: C_15  and  C_20
    8  A    between atoms: C_25  and  C_29
    9  A    between atoms: C_29  and  C_36
   10  A    between atoms: C_30  and  C_31
                            x       y       z     vdW  Elec       q    Type
                         _______ _______ _______ _____ _____    ______ ____

>  <TORSDO>
F 10

$$$$
=
 OpenBabel11032419293D

 36 38  0  0  1  0  0  0  0  0999 V2000
  188.2640  177.6310  137.9420 C   0  0  1  0  0  3  0  0  0  0  0  0
  186.9820  177.1170  138.4080 N   0  0  0  0  0  2  0  0  0  0  0  0
  189.0730  178.2060  139.1020 C   0  0  0  0  0  2  0  0  0  0  0  0
  186.2640  178.7060  141.1980 C   0  0  0  0  0  0  0  0  0  0  0  0
  188.4330  178.0930  142.0880 C   0  0  0  0  0  3  0  0  0  0  0  0
  185.6610  178.2700  142.3810 C   0  0  0  0  0  3  0  0  0  0  0  0
  184.9390  178.2820  139.0990 C   0  0  2  0  0  3  0  0  0  0  0  0
  185.4510  179.1860  140.1260 N   0  0  0  0  0  2  0  0  0  0  0  0
  185.9710  178.0760  137.9920 C   0  0  0  0  0  2  0  0  0  0  0  0
  187.8290  177.6560  143.2790 C   0  0  0  0  0  0  0  0  0  0  0  0
  187.6550  178.6270  141.0520 C   0  0  0  0  0  0  0  0  0  0  0  0
  186.4410  177.7520  143.4190 C   0  0  0  0  0  3  0  0  0  0  0  0
  188.2560  179.0750  139.8760 O   0  0  0  0  0  0  0  0  0  0  0  0
  181.9440  180.6620  138.3300 C   0  0  0  0  0  0  0  0  0  0  0  0
  183.1810  180.1640  139.0290 C   0  0  0  0  0  2  0  0  0  0  0  0
  181.2210  179.8020  137.3740 C   0  0  0  0  0  0  0  0  0  0  0  0
  182.9650  178.1060  137.6350 C   0  0  0  0  0  3  0  0  0  0  0  0
  181.5190  181.8180  138.5900 O   0  0  0  0  0  0  0  0  0  0  0  0
  183.6650  178.8230  138.5290 C   0  0  0  0  0  0  0  0  0  0  0  0
  179.9460  180.2580  136.7480 C   0  0  0  0  0  1  0  0  0  0  0  0
  181.7070  178.6030  137.0550 C   0  0  0  0  0  3  0  0  0  0  0  0
  188.6000  177.1150  144.3580 N   0  0  0  0  0  0  0  0  0  0  0  0
  188.5690  177.5960  145.5600 C   0  0  0  0  0  3  0  0  0  0  0  0
  189.3850  176.9810  146.6390 C   0  0  0  0  0  2  0  0  0  0  0  0
  190.7340  176.8700  146.2130 O   0  0  0  0  0  0  0  0  0  0  0  0
  191.6910  176.3980  147.0700 C   0  0  0  0  0  0  0  0  0  0  0  0
  192.4980  175.9940  147.7940 N   0  0  0  0  0  0  0  0  0  0  0  0
  188.4590  175.6150  136.7210 O   0  0  0  0  0  0  0  0  0  0  0  0
  189.0390  176.5500  137.2550 C   0  0  0  0  0  0  0  0  0  0  0  0
  190.5330  176.6280  137.2250 C   0  0  0  0  0  2  0  0  0  0  0  0
  191.1500  175.4690  137.9900 C   0  0  0  0  0  2  0  0  0  0  0  0
  192.2840  174.8560  137.1900 C   0  0  0  0  0  2  0  0  0  0  0  0
  193.8370  175.5730  137.6850 S   0  0  0  0  0  0  0  0  0  0  0  0
  193.6250  176.5360  138.8230 O   0  0  0  0  0  0  0  0  0  0  0  0
  194.9480  174.2780  138.1920 C   0  0  0  0  0  1  0  0  0  0  0  0
  194.4330  176.3050  136.5160 O   0  0  0  0  0  0  0  0  0  0  0  0
  1 29  1  1  0  0  0
  1  2  1  0  0  0  0
  1  3  1  0  0  0  0
  3 13  1  0  0  0  0
  4  6  1  0  0  0  0
  5 10  2  0  0  0  0
  6 12  2  0  0  0  0
  7 19  1  6  0  0  0
  7  8  1  0  0  0  0
  8  4  1  0  0  0  0
  9  2  1  0  0  0  0
  9  7  1  0  0  0  0
 10 12  1  0  0  0  0
 10 22  1  0  0  0  0
 11  4  2  0  0  0  0
 11  5  1  0  0  0  0
 13 11  1  0  0  0  0
 14 18  2  0  0  0  0
 14 15  1  0  0  0  0
 16 14  1  0  0  0  0
 17 19  2  0  0  0  0
 19 15  1  0  0  0  0
 20 16  1  0  0  0  0
 21 16  2  0  0  0  0
 21 17  1  0  0  0  0
 22 23  2  0  0  0  0
 23 24  1  0  0  0  0
 25 24  1  0  0  0  0
 25 26  1  0  0  0  0
 26 27  3  0  0  0  0
 28 29  2  0  0  0  0
 30 29  1  0  0  0  0
 30 31  1  0  0  0  0
 32 33  1  0  0  0  0
 32 31  1  0  0  0  0
 33 35  1  0  0  0  0
 33 34  2  0  0  0  0
 36 33  2  0  0  0  0
M  END
>  <MODEL>
3

>  <REMARK>
 VINA RESULT:      -7.5      3.605      8.361
  Name = 
  10 active torsions:
  status: ('A' for Active; 'I' for Inactive)
    1  A    between atoms: C_2  and  O_10
    2  A    between atoms: N_3  and  C_26
    3  A    between atoms: C_4  and  C_36
    4  A    between atoms: C_7  and  S_17
    5  A    between atoms: C_7  and  C_25
    6  A    between atoms: O_10  and  C_30
    7  A    between atoms: C_15  and  C_20
    8  A    between atoms: C_25  and  C_29
    9  A    between atoms: C_29  and  C_36
   10  A    between atoms: C_30  and  C_31
                            x       y       z     vdW  Elec       q    Type
                         _______ _______ _______ _____ _____    ______ ____

>  <TORSDO>
F 10

$$$$
=
 OpenBabel11032419293D

 36 38  0  0  1  0  0  0  0  0999 V2000
  185.7060  178.6070  142.6200 C   0  0  1  0  0  3  0  0  0  0  0  0
  186.4790  177.3910  142.8380 N   0  0  0  0  0  2  0  0  0  0  0  0
  186.0790  179.2570  141.2900 C   0  0  0  0  0  2  0  0  0  0  0  0
  189.2360  177.6730  141.0650 C   0  0  0  0  0  0  0  0  0  0  0  0
  187.9060  178.1600  139.1000 C   0  0  0  0  0  3  0  0  0  0  0  0
  189.9650  176.7310  140.3320 C   0  0  0  0  0  3  0  0  0  0  0  0
  188.8240  177.0710  143.4760 C   0  0  2  0  0  3  0  0  0  0  0  0
  189.5150  177.8550  142.4540 N   0  0  0  0  0  2  0  0  0  0  0  0
  187.4850  177.7090  143.8390 C   0  0  0  0  0  2  0  0  0  0  0  0
  188.6380  177.2160  138.3600 C   0  0  0  0  0  0  0  0  0  0  0  0
  188.2100  178.3980  140.4470 C   0  0  0  0  0  0  0  0  0  0  0  0
  189.6700  176.5070  138.9840 C   0  0  0  0  0  3  0  0  0  0  0  0
  187.4930  179.3460  141.1770 O   0  0  0  0  0  0  0  0  0  0  0  0
  190.0460  177.2100  147.1780 C   0  0  0  0  0  0  0  0  0  0  0  0
  189.1460  177.4690  146.0010 C   0  0  0  0  0  2  0  0  0  0  0  0
  191.3920  176.6400  146.9870 C   0  0  0  0  0  0  0  0  0  0  0  0
  190.9160  176.4090  144.5970 C   0  0  0  0  0  3  0  0  0  0  0  0
  189.6420  177.5080  148.3340 O   0  0  0  0  0  0  0  0  0  0  0  0
  189.6870  176.9410  144.6920 C   0  0  0  0  0  0  0  0  0  0  0  0
  192.3210  176.4650  148.1410 C   0  0  0  0  0  1  0  0  0  0  0  0
  191.7930  176.2690  145.7710 C   0  0  0  0  0  3  0  0  0  0  0  0
  188.3560  176.9600  136.9800 N   0  0  0  0  0  0  0  0  0  0  0  0
  187.2070  177.2060  136.4360 C   0  0  0  0  0  3  0  0  0  0  0  0
  186.9810  176.9290  134.9940 C   0  0  0  0  0  2  0  0  0  0  0  0
  185.8780  176.0480  134.8440 O   0  0  0  0  0  0  0  0  0  0  0  0
  185.5690  175.1560  135.8330 C   0  0  0  0  0  0  0  0  0  0  0  0
  185.3100  174.3970  136.6680 N   0  0  0  0  0  0  0  0  0  0  0  0
  183.6020  178.4500  143.6890 O   0  0  0  0  0  0  0  0  0  0  0  0
  184.2410  178.3050  142.6560 C   0  0  0  0  0  0  0  0  0  0  0  0
  183.5620  177.8270  141.4100 C   0  0  0  0  0  2  0  0  0  0  0  0
  182.3130  178.6460  141.1290 C   0  0  0  0  0  2  0  0  0  0  0  0
  181.7470  178.2860  139.7680 C   0  0  0  0  0  2  0  0  0  0  0  0
  182.6930  179.0790  138.4850 S   0  0  0  0  0  0  0  0  0  0  0  0
  183.5170  180.1980  139.0640 O   0  0  0  0  0  0  0  0  0  0  0  0
  183.7630  177.8810  137.7160 C   0  0  0  0  0  1  0  0  0  0  0  0
  181.7510  179.6340  137.4530 O   0  0  0  0  0  0  0  0  0  0  0  0
  1 29  1  6  0  0  0
  1  2  1  0  0  0  0
  2  9  1  0  0  0  0
  3  1  1  0  0  0  0
  4  8  1  0  0  0  0
  5 11  2  0  0  0  0
  6  4  2  0  0  0  0
  7  9  1  0  0  0  0
  7 19  1  1  0  0  0
  8  7  1  0  0  0  0
 10 12  2  0  0  0  0
 10  5  1  0  0  0  0
 11  4  1  0  0  0  0
 11 13  1  0  0  0  0
 12  6  1  0  0  0  0
 13  3  1  0  0  0  0
 14 18  2  0  0  0  0
 15 14  1  0  0  0  0
 16 14  1  0  0  0  0
 16 20  1  0  0  0  0
 17 19  2  0  0  0  0
 17 21  1  0  0  0  0
 19 15  1  0  0  0  0
 21 16  2  0  0  0  0
 22 10  1  0  0  0  0
 23 22  2  0  0  0  0
 24 23  1  0  0  0  0
 25 24  1  0  0  0  0
 25 26  1  0  0  0  0
 26 27  3  0  0  0  0
 29 28  2  0  0  0  0
 30 29  1  0  0  0  0
 31 30  1  0  0  0  0
 32 31  1  0  0  0  0
 33 34  2  0  0  0  0
 33 32  1  0  0  0  0
 35 33  1  0  0  0  0
 36 33  2  0  0  0  0
M  END
>  <MODEL>
4

>  <REMARK>
 VINA RESULT:      -7.3      3.919      7.368
  Name = 
  10 active torsions:
  status: ('A' for Active; 'I' for Inactive)
    1  A    between atoms: C_2  and  O_10
    2  A    between atoms: N_3  and  C_26
    3  A    between atoms: C_4  and  C_36
    4  A    between atoms: C_7  and  S_17
    5  A    between atoms: C_7  and  C_25
    6  A    between atoms: O_10  and  C_30
    7  A    between atoms: C_15  and  C_20
    8  A    between atoms: C_25  and  C_29
    9  A    between atoms: C_29  and  C_36
   10  A    between atoms: C_30  and  C_31
                            x       y       z     vdW  Elec       q    Type
                         _______ _______ _______ _____ _____    ______ ____

>  <TORSDO>
F 10

$$$$
=
 OpenBabel11032419293D

 36 38  0  0  1  0  0  0  0  0999 V2000
  189.3300  177.8140  141.7120 C   0  0  1  0  0  3  0  0  0  0  0  0
  188.2240  177.0500  142.2750 N   0  0  0  0  0  2  0  0  0  0  0  0
  190.2560  178.3230  142.8130 C   0  0  0  0  0  2  0  0  0  0  0  0
  187.8270  178.0750  145.3760 C   0  0  0  0  0  0  0  0  0  0  0  0
  190.1780  177.6680  145.7970 C   0  0  0  0  0  3  0  0  0  0  0  0
  187.5020  177.3800  146.5450 C   0  0  0  0  0  3  0  0  0  0  0  0
  186.2100  177.7770  143.4680 C   0  0  2  0  0  3  0  0  0  0  0  0
  186.7830  178.5830  144.5440 N   0  0  0  0  0  2  0  0  0  0  0  0
  187.0450  177.8970  142.1950 C   0  0  0  0  0  2  0  0  0  0  0  0
  189.8550  176.9710  146.9740 C   0  0  0  0  0  0  0  0  0  0  0  0
  189.1680  178.2290  145.0040 C   0  0  0  0  0  0  0  0  0  0  0  0
  188.5130  176.8350  147.3430 C   0  0  0  0  0  3  0  0  0  0  0  0
  189.4900  178.9330  143.8440 O   0  0  0  0  0  0  0  0  0  0  0  0
  182.8680  178.5770  141.6220 C   0  0  0  0  0  0  0  0  0  0  0  0
  184.3240  178.2280  141.7730 C   0  0  0  0  0  2  0  0  0  0  0  0
  182.0710  179.0050  142.7860 C   0  0  0  0  0  0  0  0  0  0  0  0
  184.0070  178.5810  144.2220 C   0  0  0  0  0  3  0  0  0  0  0  0
  182.3400  178.5190  140.4790 O   0  0  0  0  0  0  0  0  0  0  0  0
  184.7980  178.2000  143.2070 C   0  0  0  0  0  0  0  0  0  0  0  0
  180.6530  179.4380  142.6260 C   0  0  0  0  0  1  0  0  0  0  0  0
  182.6150  179.0060  144.0030 C   0  0  0  0  0  3  0  0  0  0  0  0
  190.8660  176.3960  147.8080 N   0  0  0  0  0  0  0  0  0  0  0  0
  191.9740  175.9130  147.3450 C   0  0  0  0  0  3  0  0  0  0  0  0
  192.9900  175.3400  148.2660 C   0  0  0  0  0  2  0  0  0  0  0  0
  193.9090  176.3510  148.6530 O   0  0  0  0  0  0  0  0  0  0  0  0
  193.6720  177.1070  149.7680 C   0  0  0  0  0  0  0  0  0  0  0  0
  193.4740  177.7520  150.7090 N   0  0  0  0  0  0  0  0  0  0  0  0
  190.7240  175.9990  141.1150 O   0  0  0  0  0  0  0  0  0  0  0  0
  190.0960  176.9770  140.7350 C   0  0  0  0  0  0  0  0  0  0  0  0
  190.0800  177.3470  139.2850 C   0  0  0  0  0  2  0  0  0  0  0  0
  188.9380  176.6500  138.5630 C   0  0  0  0  0  2  0  0  0  0  0  0
  188.6980  177.2990  137.2130 C   0  0  0  0  0  2  0  0  0  0  0  0
  187.2050  178.2670  137.2580 S   0  0  0  0  0  0  0  0  0  0  0  0
  187.4630  179.6450  136.7090 O   0  0  0  0  0  0  0  0  0  0  0  0
  185.9490  177.4600  136.2860 C   0  0  0  0  0  1  0  0  0  0  0  0
  186.7340  178.3760  138.6800 O   0  0  0  0  0  0  0  0  0  0  0  0
  1 29  1  6  0  0  0
  1  2  1  0  0  0  0
  1  3  1  0  0  0  0
  3 13  1  0  0  0  0
  4  6  1  0  0  0  0
  5 10  2  0  0  0  0
  6 12  2  0  0  0  0
  7 19  1  6  0  0  0
  7  8  1  0  0  0  0
  8  4  1  0  0  0  0
  9  2  1  0  0  0  0
  9  7  1  0  0  0  0
 10 12  1  0  0  0  0
 10 22  1  0  0  0  0
 11  4  2  0  0  0  0
 11  5  1  0  0  0  0
 13 11  1  0  0  0  0
 14 15  1  0  0  0  0
 14 16  1  0  0  0  0
 15 19  1  0  0  0  0
 16 21  2  0  0  0  0
 18 14  2  0  0  0  0
 19 17  2  0  0  0  0
 20 16  1  0  0  0  0
 21 17  1  0  0  0  0
 23 22  2  0  0  0  0
 23 24  1  0  0  0  0
 24 25  1  0  0  0  0
 25 26  1  0  0  0  0
 26 27  3  0  0  0  0
 29 28  2  0  0  0  0
 30 29  1  0  0  0  0
 31 30  1  0  0  0  0
 32 33  1  0  0  0  0
 32 31  1  0  0  0  0
 33 36  2  0  0  0  0
 34 33  2  0  0  0  0
 35 33  1  0  0  0  0
M  END
>  <MODEL>
5

>  <REMARK>
 VINA RESULT:      -7.2      4.571      9.866
  Name = 
  10 active torsions:
  status: ('A' for Active; 'I' for Inactive)
    1  A    between atoms: C_2  and  O_10
    2  A    between atoms: N_3  and  C_26
    3  A    between atoms: C_4  and  C_36
    4  A    between atoms: C_7  and  S_17
    5  A    between atoms: C_7  and  C_25
    6  A    between atoms: O_10  and  C_30
    7  A    between atoms: C_15  and  C_20
    8  A    between atoms: C_25  and  C_29
    9  A    between atoms: C_29  and  C_36
   10  A    between atoms: C_30  and  C_31
                            x       y       z     vdW  Elec       q    Type
                         _______ _______ _______ _____ _____    ______ ____

>  <TORSDO>
F 10

$$$$
=
 OpenBabel11032419293D

 36 38  0  0  1  0  0  0  0  0999 V2000
  186.0210  178.1410  143.6920 C   0  0  1  0  0  3  0  0  0  0  0  0
  186.9980  178.8600  142.8840 N   0  0  0  0  0  2  0  0  0  0  0  0
  186.6950  177.0410  144.5070 C   0  0  0  0  0  2  0  0  0  0  0  0
  189.5440  176.8300  142.4170 C   0  0  0  0  0  0  0  0  0  0  0  0
  189.6830  176.4770  144.8110 C   0  0  0  0  0  3  0  0  0  0  0  0
  190.9220  177.0670  142.3770 C   0  0  0  0  0  3  0  0  0  0  0  0
  188.1690  178.2180  140.8290 C   0  0  2  0  0  3  0  0  0  0  0  0
  188.7730  176.9460  141.2210 N   0  0  0  0  0  2  0  0  0  0  0  0
  186.8180  178.4130  141.5120 C   0  0  0  0  0  2  0  0  0  0  0  0
  191.0680  176.7130  144.7730 C   0  0  0  0  0  0  0  0  0  0  0  0
  188.9230  176.5240  143.6350 C   0  0  0  0  0  0  0  0  0  0  0  0
  191.6800  177.0040  143.5500 C   0  0  0  0  0  3  0  0  0  0  0  0
  187.5510  176.2740  143.6700 O   0  0  0  0  0  0  0  0  0  0  0  0
  186.5920  178.0590  137.2640 C   0  0  0  0  0  0  0  0  0  0  0  0
  186.6770  177.8810  138.7560 C   0  0  0  0  0  2  0  0  0  0  0  0
  187.7860  178.4260  136.4790 C   0  0  0  0  0  0  0  0  0  0  0  0
  189.0520  178.6230  138.5640 C   0  0  0  0  0  3  0  0  0  0  0  0
  185.4890  177.8680  136.6870 O   0  0  0  0  0  0  0  0  0  0  0  0
  188.0140  178.2740  139.3410 C   0  0  0  0  0  0  0  0  0  0  0  0
  187.7270  178.5140  134.9920 C   0  0  0  0  0  1  0  0  0  0  0  0
  188.9370  178.6860  137.0980 C   0  0  0  0  0  3  0  0  0  0  0  0
  191.8720  176.6620  145.9570 N   0  0  0  0  0  0  0  0  0  0  0  0
  191.9480  175.6160  146.7150 C   0  0  0  0  0  3  0  0  0  0  0  0
  192.8100  175.6220  147.9250 C   0  0  0  0  0  2  0  0  0  0  0  0
  192.6610  176.8560  148.6110 O   0  0  0  0  0  0  0  0  0  0  0  0
  193.5440  177.2090  149.5950 C   0  0  0  0  0  0  0  0  0  0  0  0
  194.2940  177.5080  150.4240 N   0  0  0  0  0  0  0  0  0  0  0  0
  185.7260  179.3260  145.7170 O   0  0  0  0  0  0  0  0  0  0  0  0
  185.2970  179.0880  144.5970 C   0  0  0  0  0  0  0  0  0  0  0  0
  184.0430  179.7460  144.1120 C   0  0  0  0  0  2  0  0  0  0  0  0
  182.9440  178.7190  143.8950 C   0  0  0  0  0  2  0  0  0  0  0  0
  182.2070  179.0070  142.6010 C   0  0  0  0  0  2  0  0  0  0  0  0
  180.4630  179.1770  142.9170 S   0  0  0  0  0  0  0  0  0  0  0  0
  180.0570  180.6240  142.8260 O   0  0  0  0  0  0  0  0  0  0  0  0
  179.5510  178.2210  141.7210 C   0  0  0  0  0  1  0  0  0  0  0  0
  180.1610  178.6590  144.2950 O   0  0  0  0  0  0  0  0  0  0  0  0
  1  3  1  0  0  0  0
  1 29  1  1  0  0  0
  2  1  1  0  0  0  0
  4 11  1  0  0  0  0
  6  4  2  0  0  0  0
  6 12  1  0  0  0  0
  7 19  1  6  0  0  0
  7  8  1  0  0  0  0
  7  9  1  0  0  0  0
  8  4  1  0  0  0  0
  9  2  1  0  0  0  0
 10  5  1  0  0  0  0
 10 22  1  0  0  0  0
 11 13  1  0  0  0  0
 11  5  2  0  0  0  0
 12 10  2  0  0  0  0
 13  3  1  0  0  0  0
 14 15  1  0  0  0  0
 15 19  1  0  0  0  0
 16 21  2  0  0  0  0
 16 14  1  0  0  0  0
 17 19  2  0  0  0  0
 18 14  2  0  0  0  0
 20 16  1  0  0  0  0
 21 17  1  0  0  0  0
 22 23  2  0  0  0  0
 23 24  1  0  0  0  0
 24 25  1  0  0  0  0
 25 26  1  0  0  0  0
 26 27  3  0  0  0  0
 29 28  2  0  0  0  0
 30 29  1  0  0  0  0
 31 30  1  0  0  0  0
 32 33  1  0  0  0  0
 32 31  1  0  0  0  0
 33 36  2  0  0  0  0
 34 33  2  0  0  0  0
 35 33  1  0  0  0  0
M  END
>  <MODEL>
6

>  <REMARK>
 VINA RESULT:      -7.1      4.752     11.065
  Name = 
  10 active torsions:
  status: ('A' for Active; 'I' for Inactive)
    1  A    between atoms: C_2  and  O_10
    2  A    between atoms: N_3  and  C_26
    3  A    between atoms: C_4  and  C_36
    4  A    between atoms: C_7  and  S_17
    5  A    between atoms: C_7  and  C_25
    6  A    between atoms: O_10  and  C_30
    7  A    between atoms: C_15  and  C_20
    8  A    between atoms: C_25  and  C_29
    9  A    between atoms: C_29  and  C_36
   10  A    between atoms: C_30  and  C_31
                            x       y       z     vdW  Elec       q    Type
                         _______ _______ _______ _____ _____    ______ ____

>  <TORSDO>
F 10

$$$$
=
 OpenBabel11032419293D

 36 38  0  0  1  0  0  0  0  0999 V2000
  187.9100  177.5620  137.9880 C   0  0  1  0  0  3  0  0  0  0  0  0
  186.5900  177.1210  138.4220 N   0  0  0  0  0  2  0  0  0  0  0  0
  188.7150  178.1050  139.1650 C   0  0  0  0  0  2  0  0  0  0  0  0
  185.8790  178.7740  141.1760 C   0  0  0  0  0  0  0  0  0  0  0  0
  187.9870  178.0570  142.1330 C   0  0  0  0  0  3  0  0  0  0  0  0
  185.2210  178.3830  142.3460 C   0  0  0  0  0  3  0  0  0  0  0  0
  184.5930  178.3990  139.0440 C   0  0  2  0  0  3  0  0  0  0  0  0
  185.1230  179.2850  140.0770 N   0  0  0  0  0  2  0  0  0  0  0  0
  185.6430  178.1270  137.9690 C   0  0  0  0  0  2  0  0  0  0  0  0
  187.3280  177.6650  143.3110 C   0  0  0  0  0  0  0  0  0  0  0  0
  187.2680  178.6210  141.0710 C   0  0  0  0  0  0  0  0  0  0  0  0
  185.9430  177.8350  143.4100 C   0  0  0  0  0  3  0  0  0  0  0  0
  187.9240  179.0240  139.9080 O   0  0  0  0  0  0  0  0  0  0  0  0
  181.7520  180.9260  138.1680 C   0  0  0  0  0  0  0  0  0  0  0  0
  182.9410  180.3710  138.9050 C   0  0  0  0  0  2  0  0  0  0  0  0
  181.0110  180.0950  137.2010 C   0  0  0  0  0  0  0  0  0  0  0  0
  182.6540  178.3110  137.5270 C   0  0  0  0  0  3  0  0  0  0  0  0
  181.3830  182.1070  138.4040 O   0  0  0  0  0  0  0  0  0  0  0  0
  183.3660  179.0000  138.4330 C   0  0  0  0  0  0  0  0  0  0  0  0
  179.7800  180.6110  136.5350 C   0  0  0  0  0  1  0  0  0  0  0  0
  181.4400  178.8680  136.9080 C   0  0  0  0  0  3  0  0  0  0  0  0
  188.0390  177.0950  144.4150 N   0  0  0  0  0  0  0  0  0  0  0  0
  188.7780  177.7940  145.2160 C   0  0  0  0  0  3  0  0  0  0  0  0
  189.4810  177.1440  146.3520 C   0  0  0  0  0  2  0  0  0  0  0  0
  190.8480  176.9510  146.0210 O   0  0  0  0  0  0  0  0  0  0  0  0
  191.7020  176.3780  146.9240 C   0  0  0  0  0  0  0  0  0  0  0  0
  192.4270  175.8970  147.6870 N   0  0  0  0  0  0  0  0  0  0  0  0
  189.4110  175.7340  137.9810 O   0  0  0  0  0  0  0  0  0  0  0  0
  188.6450  176.4340  137.3340 C   0  0  0  0  0  0  0  0  0  0  0  0
  188.4280  176.1690  135.8760 C   0  0  0  0  0  2  0  0  0  0  0  0
  188.0500  174.7150  135.6430 C   0  0  0  0  0  2  0  0  0  0  0  0
  186.5850  174.4970  135.9720 C   0  0  0  0  0  2  0  0  0  0  0  0
  186.3630  172.9060  136.7410 S   0  0  0  0  0  0  0  0  0  0  0  0
  185.6900  171.9570  135.7860 O   0  0  0  0  0  0  0  0  0  0  0  0
  187.9510  172.2550  137.2170 C   0  0  0  0  0  1  0  0  0  0  0  0
  185.5100  173.0700  137.9670 O   0  0  0  0  0  0  0  0  0  0  0  0
  1 29  1  1  0  0  0
  1  2  1  0  0  0  0
  1  3  1  0  0  0  0
  3 13  1  0  0  0  0
  4  6  1  0  0  0  0
  5 10  2  0  0  0  0
  6 12  2  0  0  0  0
  7 19  1  6  0  0  0
  7  8  1  0  0  0  0
  8  4  1  0  0  0  0
  9  2  1  0  0  0  0
  9  7  1  0  0  0  0
 10 12  1  0  0  0  0
 10 22  1  0  0  0  0
 11  4  2  0  0  0  0
 11  5  1  0  0  0  0
 13 11  1  0  0  0  0
 14 18  2  0  0  0  0
 14 15  1  0  0  0  0
 16 14  1  0  0  0  0
 17 19  2  0  0  0  0
 19 15  1  0  0  0  0
 20 16  1  0  0  0  0
 21 16  2  0  0  0  0
 21 17  1  0  0  0  0
 22 23  2  0  0  0  0
 23 24  1  0  0  0  0
 25 24  1  0  0  0  0
 25 26  1  0  0  0  0
 26 27  3  0  0  0  0
 29 28  2  0  0  0  0
 30 29  1  0  0  0  0
 31 30  1  0  0  0  0
 31 32  1  0  0  0  0
 32 33  1  0  0  0  0
 33 35  1  0  0  0  0
 33 36  2  0  0  0  0
 34 33  2  0  0  0  0
M  END
>  <MODEL>
7

>  <REMARK>
 VINA RESULT:      -7.0      3.715      8.556
  Name = 
  10 active torsions:
  status: ('A' for Active; 'I' for Inactive)
    1  A    between atoms: C_2  and  O_10
    2  A    between atoms: N_3  and  C_26
    3  A    between atoms: C_4  and  C_36
    4  A    between atoms: C_7  and  S_17
    5  A    between atoms: C_7  and  C_25
    6  A    between atoms: O_10  and  C_30
    7  A    between atoms: C_15  and  C_20
    8  A    between atoms: C_25  and  C_29
    9  A    between atoms: C_29  and  C_36
   10  A    between atoms: C_30  and  C_31
                            x       y       z     vdW  Elec       q    Type
                         _______ _______ _______ _____ _____    ______ ____

>  <TORSDO>
F 10

$$$$
=
 OpenBabel11032419293D

 36 38  0  0  1  0  0  0  0  0999 V2000
  190.3190  176.9310  144.4350 C   0  0  1  0  0  3  0  0  0  0  0  0
  189.6160  178.0500  143.8200 N   0  0  0  0  0  2  0  0  0  0  0  0
  190.8980  176.0030  143.3720 C   0  0  0  0  0  2  0  0  0  0  0  0
  188.6970  177.0760  140.8150 C   0  0  0  0  0  0  0  0  0  0  0  0
  190.9820  176.4190  140.3450 C   0  0  0  0  0  3  0  0  0  0  0  0
  188.6480  177.7580  139.5960 C   0  0  0  0  0  3  0  0  0  0  0  0
  187.4360  178.1610  142.7050 C   0  0  2  0  0  3  0  0  0  0  0  0
  187.5710  177.1160  141.6930 N   0  0  0  0  0  2  0  0  0  0  0  0
  188.1940  177.7890  143.9770 C   0  0  0  0  0  2  0  0  0  0  0  0
  190.9340  177.1030  139.1190 C   0  0  0  0  0  0  0  0  0  0  0  0
  189.8640  176.3950  141.1880 C   0  0  0  0  0  0  0  0  0  0  0  0
  189.7610  177.7680  138.7500 C   0  0  0  0  0  3  0  0  0  0  0  0
  189.9060  175.7040  142.3990 O   0  0  0  0  0  0  0  0  0  0  0  0
  184.1230  178.8010  144.6640 C   0  0  0  0  0  0  0  0  0  0  0  0
  185.5780  178.4740  144.4620 C   0  0  0  0  0  2  0  0  0  0  0  0
  183.1980  178.8630  143.5160 C   0  0  0  0  0  0  0  0  0  0  0  0
  185.0930  178.4850  142.0150 C   0  0  0  0  0  3  0  0  0  0  0  0
  183.6970  179.0010  145.8320 O   0  0  0  0  0  0  0  0  0  0  0  0
  185.9890  178.3950  143.0100 C   0  0  0  0  0  0  0  0  0  0  0  0
  181.7400  179.0980  143.7210 C   0  0  0  0  0  1  0  0  0  0  0  0
  183.6620  178.7110  142.2760 C   0  0  0  0  0  3  0  0  0  0  0  0
  192.0590  177.1360  138.2330 N   0  0  0  0  0  0  0  0  0  0  0  0
  192.4410  176.1140  137.5360 C   0  0  0  0  0  3  0  0  0  0  0  0
  193.6100  176.2170  136.6250 C   0  0  0  0  0  2  0  0  0  0  0  0
  194.7740  175.7450  137.2860 O   0  0  0  0  0  0  0  0  0  0  0  0
  194.7900  174.4970  137.8470 C   0  0  0  0  0  0  0  0  0  0  0  0
  194.8030  173.4430  138.3260 N   0  0  0  0  0  0  0  0  0  0  0  0
  192.0970  178.3840  145.0030 O   0  0  0  0  0  0  0  0  0  0  0  0
  191.4050  177.4320  145.3350 C   0  0  0  0  0  0  0  0  0  0  0  0
  191.6320  176.7570  146.6520 C   0  0  0  0  0  2  0  0  0  0  0  0
  190.3160  176.5400  147.3810 C   0  0  0  0  0  2  0  0  0  0  0  0
  189.6880  177.8750  147.7340 C   0  0  0  0  0  2  0  0  0  0  0  0
  187.9260  177.6920  147.9130 S   0  0  0  0  0  0  0  0  0  0  0  0
  187.5980  177.1370  149.2740 O   0  0  0  0  0  0  0  0  0  0  0  0
  187.1440  179.2790  147.7070 C   0  0  0  0  0  1  0  0  0  0  0  0
  187.4200  176.7520  146.8550 O   0  0  0  0  0  0  0  0  0  0  0  0
  1 29  1  6  0  0  0
  2  9  1  0  0  0  0
  2  1  1  0  0  0  0
  3  1  1  0  0  0  0
  4 11  1  0  0  0  0
  4  8  1  0  0  0  0
  5 11  2  0  0  0  0
  6  4  2  0  0  0  0
  7 19  1  1  0  0  0
  7  9  1  0  0  0  0
  8  7  1  0  0  0  0
 10  5  1  0  0  0  0
 11 13  1  0  0  0  0
 12 10  2  0  0  0  0
 12  6  1  0  0  0  0
 13  3  1  0  0  0  0
 14 18  2  0  0  0  0
 15 14  1  0  0  0  0
 16 20  1  0  0  0  0
 16 14  1  0  0  0  0
 17 21  1  0  0  0  0
 17 19  2  0  0  0  0
 19 15  1  0  0  0  0
 21 16  2  0  0  0  0
 22 10  1  0  0  0  0
 23 22  2  0  0  0  0
 24 25  1  0  0  0  0
 24 23  1  0  0  0  0
 25 26  1  0  0  0  0
 26 27  3  0  0  0  0
 28 29  2  0  0  0  0
 29 30  1  0  0  0  0
 30 31  1  0  0  0  0
 31 32  1  0  0  0  0
 32 33  1  0  0  0  0
 33 34  2  0  0  0  0
 35 33  1  0  0  0  0
 36 33  2  0  0  0  0
M  END
>  <MODEL>
8

>  <REMARK>
 VINA RESULT:      -7.0      5.346      9.183
  Name = 
  10 active torsions:
  status: ('A' for Active; 'I' for Inactive)
    1  A    between atoms: C_2  and  O_10
    2  A    between atoms: N_3  and  C_26
    3  A    between atoms: C_4  and  C_36
    4  A    between atoms: C_7  and  S_17
    5  A    between atoms: C_7  and  C_25
    6  A    between atoms: O_10  and  C_30
    7  A    between atoms: C_15  and  C_20
    8  A    between atoms: C_25  and  C_29
    9  A    between atoms: C_29  and  C_36
   10  A    between atoms: C_30  and  C_31
                            x       y       z     vdW  Elec       q    Type
                         _______ _______ _______ _____ _____    ______ ____

>  <TORSDO>
F 10

$$$$
=
 OpenBabel11032419293D

 36 38  0  0  1  0  0  0  0  0999 V2000
  186.2550  178.0050  146.2340 C   0  0  1  0  0  3  0  0  0  0  0  0
  185.8650  179.0110  145.2550 N   0  0  0  0  0  2  0  0  0  0  0  0
  187.3210  177.0750  145.6630 C   0  0  0  0  0  2  0  0  0  0  0  0
  186.5360  177.7720  142.2820 C   0  0  0  0  0  0  0  0  0  0  0  0
  188.8050  177.3130  143.0020 C   0  0  0  0  0  3  0  0  0  0  0  0
  187.0320  178.3720  141.1200 C   0  0  0  0  0  3  0  0  0  0  0  0
  184.4710  178.8420  143.2460 C   0  0  2  0  0  3  0  0  0  0  0  0
  185.1290  177.7560  142.5240 N   0  0  0  0  0  2  0  0  0  0  0  0
  184.5550  178.6230  144.7550 C   0  0  0  0  0  2  0  0  0  0  0  0
  189.3050  177.9140  141.8340 C   0  0  0  0  0  0  0  0  0  0  0  0
  187.4230  177.2320  143.2220 C   0  0  0  0  0  0  0  0  0  0  0  0
  188.4100  178.4380  140.8960 C   0  0  0  0  0  3  0  0  0  0  0  0
  186.9260  176.6220  144.3740 O   0  0  0  0  0  0  0  0  0  0  0  0
  180.5860  179.1860  143.3620 C   0  0  0  0  0  0  0  0  0  0  0  0
  181.9800  178.9820  143.8900 C   0  0  0  0  0  2  0  0  0  0  0  0
  180.3220  179.1830  141.9110 C   0  0  0  0  0  0  0  0  0  0  0  0
  182.7280  178.9790  141.5100 C   0  0  0  0  0  3  0  0  0  0  0  0
  179.6390  179.3390  144.1780 O   0  0  0  0  0  0  0  0  0  0  0  0
  183.0410  178.9530  142.8150 C   0  0  0  0  0  0  0  0  0  0  0  0
  178.9310  179.2950  141.3860 C   0  0  0  0  0  1  0  0  0  0  0  0
  181.3340  179.0830  141.0490 C   0  0  0  0  0  3  0  0  0  0  0  0
  190.7100  178.0020  141.5780 N   0  0  0  0  0  0  0  0  0  0  0  0
  191.2960  177.3610  140.6180 C   0  0  0  0  0  3  0  0  0  0  0  0
  192.7580  177.5050  140.3960 C   0  0  0  0  0  2  0  0  0  0  0  0
  193.1230  176.8670  139.1820 O   0  0  0  0  0  0  0  0  0  0  0  0
  192.1870  176.6520  138.2080 C   0  0  0  0  0  0  0  0  0  0  0  0
  191.3930  176.4740  137.3840 N   0  0  0  0  0  0  0  0  0  0  0  0
  186.4830  179.8300  147.7210 O   0  0  0  0  0  0  0  0  0  0  0  0
  186.7550  178.6620  147.4830 C   0  0  0  0  0  0  0  0  0  0  0  0
  187.5880  177.8700  148.4420 C   0  0  0  0  0  2  0  0  0  0  0  0
  189.0550  177.9150  148.0450 C   0  0  0  0  0  2  0  0  0  0  0  0
  189.5370  176.5260  147.6670 C   0  0  0  0  0  2  0  0  0  0  0  0
  191.2870  176.5560  147.3420 S   0  0  0  0  0  0  0  0  0  0  0  0
  191.8710  175.1790  147.5160 O   0  0  0  0  0  0  0  0  0  0  0  0
  191.5680  177.1210  145.6760 C   0  0  0  0  0  1  0  0  0  0  0  0
  191.9480  177.5040  148.3020 O   0  0  0  0  0  0  0  0  0  0  0  0
  1 29  1  1  0  0  0
  2  1  1  0  0  0  0
  3  1  1  0  0  0  0
  4  8  1  0  0  0  0
  4 11  1  0  0  0  0
  5 11  2  0  0  0  0
  6  4  2  0  0  0  0
  7 19  1  6  0  0  0
  7  9  1  0  0  0  0
  8  7  1  0  0  0  0
  9  2  1  0  0  0  0
 10  5  1  0  0  0  0
 11 13  1  0  0  0  0
 12  6  1  0  0  0  0
 12 10  2  0  0  0  0
 13  3  1  0  0  0  0
 14 15  1  0  0  0  0
 14 18  2  0  0  0  0
 16 14  1  0  0  0  0
 17 19  2  0  0  0  0
 19 15  1  0  0  0  0
 20 16  1  0  0  0  0
 21 17  1  0  0  0  0
 21 16  2  0  0  0  0
 22 10  1  0  0  0  0
 23 22  2  0  0  0  0
 24 23  1  0  0  0  0
 25 24  1  0  0  0  0
 26 25  1  0  0  0  0
 27 26  3  0  0  0  0
 29 28  2  0  0  0  0
 29 30  1  0  0  0  0
 31 30  1  0  0  0  0
 32 31  1  0  0  0  0
 33 34  2  0  0  0  0
 33 32  1  0  0  0  0
 33 36  2  0  0  0  0
 35 33  1  0  0  0  0
M  END
>  <MODEL>
9

>  <REMARK>
 VINA RESULT:      -6.7      4.611      8.759
  Name = 
  10 active torsions:
  status: ('A' for Active; 'I' for Inactive)
    1  A    between atoms: C_2  and  O_10
    2  A    between atoms: N_3  and  C_26
    3  A    between atoms: C_4  and  C_36
    4  A    between atoms: C_7  and  S_17
    5  A    between atoms: C_7  and  C_25
    6  A    between atoms: O_10  and  C_30
    7  A    between atoms: C_15  and  C_20
    8  A    between atoms: C_25  and  C_29
    9  A    between atoms: C_29  and  C_36
   10  A    between atoms: C_30  and  C_31
                            x       y       z     vdW  Elec       q    Type
                         _______ _______ _______ _____ _____    ______ ____

>  <TORSDO>
F 10

$$$$
