=
 OpenBabel11042410113D

 32 34  0  0  1  0  0  0  0  0999 V2000
  188.7010  177.4770  140.4590 C   0  0  1  0  0  3  0  0  0  0  0  0
  189.0410  179.1130  138.7460 O   0  0  0  0  0  0  0  0  0  0  0  0
  189.0020  177.8890  139.0550 C   0  0  0  0  0  0  0  0  0  0  0  0
  189.2380  176.9050  138.0970 O   0  0  0  0  0  0  0  0  0  0  0  0
  190.3130  177.0000  137.1690 C   0  0  0  0  0  2  0  0  0  0  0  0
  191.3870  175.9700  137.4820 C   0  0  1  0  0  3  0  0  0  0  0  0
  192.4210  176.5440  138.4320 C   0  0  0  0  0  1  0  0  0  0  0  0
  190.7900  174.7800  138.0620 N   0  0  0  0  0  1  0  0  0  0  0  0
  189.8720  176.8500  141.0550 N   0  0  0  0  0  2  0  0  0  0  0  0
  190.1360  177.5220  142.3220 C   0  0  1  0  0  3  0  0  0  0  0  0
  190.5120  175.2390  143.3550 C   0  0  0  0  0  1  0  0  0  0  0  0
  191.2210  178.2000  144.8120 N   0  0  0  0  0  0  0  0  0  0  0  0
  191.7160  178.8880  143.6150 C   0  0  0  0  0  2  0  0  0  0  0  0
  189.8660  176.6080  143.5260 C   0  0  1  0  0  3  0  0  0  0  0  0
  190.3510  177.2260  144.8120 C   0  0  0  0  0  0  0  0  0  0  0  0
  191.5650  178.0330  142.3640 C   0  0  0  0  0  2  0  0  0  0  0  0
  189.8860  176.6740  146.0150 O   0  0  0  0  0  0  0  0  0  0  0  0
  189.5590  177.5880  148.0940 O   0  0  0  0  0  0  0  0  0  0  0  0
  191.6660  176.7020  147.7290 N   0  0  0  0  0  1  0  0  0  0  0  0
  190.3400  177.0000  147.3010 C   0  0  0  0  0  0  0  0  0  0  0  0
  188.2640  178.6710  141.2950 C   0  0  0  0  0  2  0  0  0  0  0  0
  186.7480  178.7350  141.3600 C   0  0  0  0  0  2  0  0  0  0  0  0
  186.2750  178.0620  142.5600 N   0  0  0  0  0  2  0  0  0  0  0  0
  182.9660  179.0650  143.8140 N   0  0  0  0  0  0  0  0  0  0  0  0
  183.9090  178.6330  142.8330 C   0  0  0  0  0  0  0  0  0  0  0  0
  185.1580  178.5440  143.3120 C   0  0  0  0  0  0  0  0  0  0  0  0
  185.2320  179.1780  144.6670 C   0  0  1  0  0  3  0  0  0  0  0  0
  183.7630  179.2740  144.8000 C   0  0  0  0  0  0  0  0  0  0  0  0
  183.5210  178.1680  141.5450 N   0  0  0  0  0  1  0  0  0  0  0  0
  185.2230  178.3480  145.8410 C   0  0  1  0  0  3  0  0  0  0  0  0
  186.1580  178.9210  146.8890 C   0  0  0  0  0  1  0  0  0  0  0  0
  183.8550  178.7100  146.1570 N   0  0  0  0  0  2  0  0  0  0  0  0
  1  9  1  0  0  0  0
  1 21  1  1  0  0  0
  2  3  2  0  0  0  0
  3  1  1  0  0  0  0
  4  3  1  0  0  0  0
  5  6  1  0  0  0  0
  5  4  1  0  0  0  0
  6  8  1  0  0  0  0
  6  7  1  1  0  0  0
 10  9  1  6  0  0  0
 10 16  1  0  0  0  0
 10 14  1  0  0  0  0
 13 12  1  0  0  0  0
 14 11  1  6  0  0  0
 14 15  1  0  0  0  0
 15 12  2  0  0  0  0
 15 17  1  0  0  0  0
 16 13  1  0  0  0  0
 17 20  1  0  0  0  0
 20 19  1  0  0  0  0
 20 18  2  0  0  0  0
 21 22  1  0  0  0  0
 22 23  1  0  0  0  0
 23 26  1  0  0  0  0
 24 28  2  0  0  0  0
 25 26  2  0  0  0  0
 25 24  1  0  0  0  0
 27 26  1  6  0  0  0
 27 28  1  0  0  0  0
 27 30  1  0  0  0  0
 28 32  1  0  0  0  0
 29 25  1  0  0  0  0
 30 32  1  0  0  0  0
 30 31  1  1  0  0  0
M  END
>  <MODEL>
1

>  <REMARK>
 VINA RESULT:      -7.5      0.000      0.000
  Name = 
  12 active torsions:
  status: ('A' for Active; 'I' for Inactive)
    1  A    between atoms: N_1  and  C_9
    2  A    between atoms: N_1  and  C_13
    3  A    between atoms: O_3  and  C_27
    4  A    between atoms: O_3  and  C_30
    5  A    between atoms: C_5  and  C_32
    6  A    between atoms: C_7  and  C_13
    7  A    between atoms: C_7  and  C_24
    8  A    between atoms: O_8  and  C_20
    9  A    between atoms: O_8  and  C_32
   10  A    between atoms: C_10  and  N_15
   11  A    between atoms: C_13  and  C_20
   12  A    between atoms: N_15  and  C_24
                            x       y       z     vdW  Elec       q    Type
                         _______ _______ _______ _____ _____    ______ ____

>  <TORSDO>
F 12

$$$$
=
 OpenBabel11042410113D

 32 34  0  0  1  0  0  0  0  0999 V2000
  188.8110  177.5880  140.2870 C   0  0  1  0  0  3  0  0  0  0  0  0
  190.4210  177.6910  138.5210 O   0  0  0  0  0  0  0  0  0  0  0  0
  189.3050  178.0790  138.9660 C   0  0  0  0  0  0  0  0  0  0  0  0
  188.5170  178.9690  138.2380 O   0  0  0  0  0  0  0  0  0  0  0  0
  188.1330  178.7050  136.8920 C   0  0  0  0  0  2  0  0  0  0  0  0
  186.7230  178.1380  136.8360 C   0  0  1  0  0  3  0  0  0  0  0  0
  186.7500  176.6240  136.9060 C   0  0  0  0  0  1  0  0  0  0  0  0
  185.9230  178.6690  137.9260 N   0  0  0  0  0  1  0  0  0  0  0  0
  189.8910  176.9250  141.0060 N   0  0  0  0  0  2  0  0  0  0  0  0
  190.0410  177.5950  142.2930 C   0  0  1  0  0  3  0  0  0  0  0  0
  190.2280  175.3060  143.3640 C   0  0  0  0  0  1  0  0  0  0  0  0
  190.8770  178.2490  144.8830 N   0  0  0  0  0  0  0  0  0  0  0  0
  191.5190  178.9140  143.7450 C   0  0  0  0  0  2  0  0  0  0  0  0
  189.6140  176.6960  143.4620 C   0  0  1  0  0  3  0  0  0  0  0  0
  189.9790  177.3050  144.7920 C   0  0  0  0  0  0  0  0  0  0  0  0
  191.4740  178.0580  142.4870 C   0  0  0  0  0  2  0  0  0  0  0  0
  189.3710  176.7740  145.9400 O   0  0  0  0  0  0  0  0  0  0  0  0
  190.8690  176.3350  147.6200 O   0  0  0  0  0  0  0  0  0  0  0  0
  189.1150  177.7270  148.2050 N   0  0  0  0  0  1  0  0  0  0  0  0
  189.8210  176.9300  147.2580 C   0  0  0  0  0  0  0  0  0  0  0  0
  188.2540  178.7320  141.1210 C   0  0  0  0  0  2  0  0  0  0  0  0
  186.7420  178.6200  141.2150 C   0  0  0  0  0  2  0  0  0  0  0  0
  186.3630  178.1150  142.5260 N   0  0  0  0  0  2  0  0  0  0  0  0
  182.9670  179.0340  143.5960 N   0  0  0  0  0  0  0  0  0  0  0  0
  183.9690  178.6080  142.6730 C   0  0  0  0  0  0  0  0  0  0  0  0
  185.1960  178.5790  143.2110 C   0  0  0  0  0  0  0  0  0  0  0  0
  185.1850  179.2550  144.5480 C   0  0  1  0  0  3  0  0  0  0  0  0
  183.7090  179.3010  144.6110 C   0  0  0  0  0  0  0  0  0  0  0  0
  183.6580  178.0910  141.3840 N   0  0  0  0  0  1  0  0  0  0  0  0
  185.1500  178.4610  145.7450 C   0  0  1  0  0  3  0  0  0  0  0  0
  186.0150  179.0980  146.8160 C   0  0  0  0  0  1  0  0  0  0  0  0
  183.7570  178.7820  145.9870 N   0  0  0  0  0  2  0  0  0  0  0  0
  1  9  1  0  0  0  0
  1 21  1  1  0  0  0
  2  3  2  0  0  0  0
  3  1  1  0  0  0  0
  4  3  1  0  0  0  0
  5  4  1  0  0  0  0
  6  5  1  0  0  0  0
  6  7  1  1  0  0  0
  6  8  1  0  0  0  0
 10  9  1  6  0  0  0
 10 16  1  0  0  0  0
 10 14  1  0  0  0  0
 13 12  1  0  0  0  0
 14 11  1  6  0  0  0
 14 15  1  0  0  0  0
 15 12  2  0  0  0  0
 15 17  1  0  0  0  0
 16 13  1  0  0  0  0
 17 20  1  0  0  0  0
 20 18  2  0  0  0  0
 20 19  1  0  0  0  0
 21 22  1  0  0  0  0
 22 23  1  0  0  0  0
 23 26  1  0  0  0  0
 24 28  2  0  0  0  0
 25 26  2  0  0  0  0
 25 24  1  0  0  0  0
 27 26  1  6  0  0  0
 27 28  1  0  0  0  0
 27 30  1  0  0  0  0
 28 32  1  0  0  0  0
 29 25  1  0  0  0  0
 30 32  1  0  0  0  0
 30 31  1  1  0  0  0
M  END
>  <MODEL>
2

>  <REMARK>
 VINA RESULT:      -7.4      1.397      2.013
  Name = 
  12 active torsions:
  status: ('A' for Active; 'I' for Inactive)
    1  A    between atoms: N_1  and  C_9
    2  A    between atoms: N_1  and  C_13
    3  A    between atoms: O_3  and  C_27
    4  A    between atoms: O_3  and  C_30
    5  A    between atoms: C_5  and  C_32
    6  A    between atoms: C_7  and  C_13
    7  A    between atoms: C_7  and  C_24
    8  A    between atoms: O_8  and  C_20
    9  A    between atoms: O_8  and  C_32
   10  A    between atoms: C_10  and  N_15
   11  A    between atoms: C_13  and  C_20
   12  A    between atoms: N_15  and  C_24
                            x       y       z     vdW  Elec       q    Type
                         _______ _______ _______ _____ _____    ______ ____

>  <TORSDO>
F 12

$$$$
=
 OpenBabel11042410113D

 32 34  0  0  1  0  0  0  0  0999 V2000
  187.0260  178.3030  141.2560 C   0  0  1  0  0  3  0  0  0  0  0  0
  185.2420  179.5110  140.2160 O   0  0  0  0  0  0  0  0  0  0  0  0
  185.7740  179.1160  141.2910 C   0  0  0  0  0  0  0  0  0  0  0  0
  185.2060  179.4310  142.5250 O   0  0  0  0  0  0  0  0  0  0  0  0
  184.3360  178.5320  143.2030 C   0  0  0  0  0  2  0  0  0  0  0  0
  183.3720  179.2900  144.1020 C   0  0  1  0  0  3  0  0  0  0  0  0
  181.9380  178.9000  143.8020 C   0  0  0  0  0  1  0  0  0  0  0  0
  183.6730  179.0270  145.4990 N   0  0  0  0  0  1  0  0  0  0  0  0
  187.8630  178.7280  140.1420 N   0  0  0  0  0  2  0  0  0  0  0  0
  188.5110  177.5390  139.5990 C   0  0  1  0  0  3  0  0  0  0  0  0
  187.8230  178.3260  137.2900 C   0  0  0  0  0  1  0  0  0  0  0  0
  189.9710  175.8080  137.9530 N   0  0  0  0  0  0  0  0  0  0  0  0
  190.6440  176.4280  139.0990 C   0  0  0  0  0  2  0  0  0  0  0  0
  187.9270  177.1370  138.2370 C   0  0  1  0  0  3  0  0  0  0  0  0
  188.7430  176.0530  137.5810 C   0  0  0  0  0  0  0  0  0  0  0  0
  190.0090  177.7590  139.4800 C   0  0  0  0  0  2  0  0  0  0  0  0
  188.1620  175.3590  136.5100 O   0  0  0  0  0  0  0  0  0  0  0  0
  186.0550  175.5010  135.6130 O   0  0  0  0  0  0  0  0  0  0  0  0
  186.3190  173.8950  137.2580 N   0  0  0  0  0  1  0  0  0  0  0  0
  186.8280  174.9350  136.4290 C   0  0  0  0  0  0  0  0  0  0  0  0
  187.7940  178.4260  142.5630 C   0  0  0  0  0  2  0  0  0  0  0  0
  187.6130  177.1690  143.3950 C   0  0  0  0  0  2  0  0  0  0  0  0
  187.7680  177.4820  144.8070 N   0  0  0  0  0  2  0  0  0  0  0  0
  190.4860  176.9460  147.2260 N   0  0  0  0  0  0  0  0  0  0  0  0
  189.1370  177.1630  146.8120 C   0  0  0  0  0  0  0  0  0  0  0  0
  189.0170  177.3270  145.4880 C   0  0  0  0  0  0  0  0  0  0  0  0
  190.3700  177.4940  144.8680 C   0  0  1  0  0  3  0  0  0  0  0  0
  191.0810  177.0750  146.0940 C   0  0  0  0  0  0  0  0  0  0  0  0
  188.0300  177.0270  147.6970 N   0  0  0  0  0  1  0  0  0  0  0  0
  190.9890  176.3800  144.2020 C   0  0  1  0  0  3  0  0  0  0  0  0
  191.7350  176.8600  142.9720 C   0  0  0  0  0  1  0  0  0  0  0  0
  191.9240  176.1740  145.2910 N   0  0  0  0  0  2  0  0  0  0  0  0
  1  3  1  0  0  0  0
  1 21  1  1  0  0  0
  2  3  2  0  0  0  0
  3  4  1  0  0  0  0
  4  5  1  0  0  0  0
  5  6  1  0  0  0  0
  6  7  1  6  0  0  0
  6  8  1  0  0  0  0
  9  1  1  0  0  0  0
 10  9  1  6  0  0  0
 12 13  1  0  0  0  0
 13 16  1  0  0  0  0
 14 11  1  6  0  0  0
 14 10  1  0  0  0  0
 15 12  2  0  0  0  0
 15 14  1  0  0  0  0
 16 10  1  0  0  0  0
 17 15  1  0  0  0  0
 18 20  2  0  0  0  0
 20 17  1  0  0  0  0
 20 19  1  0  0  0  0
 21 22  1  0  0  0  0
 22 23  1  0  0  0  0
 23 26  1  0  0  0  0
 25 24  1  0  0  0  0
 25 29  1  0  0  0  0
 26 25  2  0  0  0  0
 27 26  1  1  0  0  0
 27 28  1  0  0  0  0
 28 24  2  0  0  0  0
 30 31  1  6  0  0  0
 30 27  1  0  0  0  0
 30 32  1  0  0  0  0
 32 28  1  0  0  0  0
M  END
>  <MODEL>
3

>  <REMARK>
 VINA RESULT:      -7.3      2.599      7.522
  Name = 
  12 active torsions:
  status: ('A' for Active; 'I' for Inactive)
    1  A    between atoms: N_1  and  C_9
    2  A    between atoms: N_1  and  C_13
    3  A    between atoms: O_3  and  C_27
    4  A    between atoms: O_3  and  C_30
    5  A    between atoms: C_5  and  C_32
    6  A    between atoms: C_7  and  C_13
    7  A    between atoms: C_7  and  C_24
    8  A    between atoms: O_8  and  C_20
    9  A    between atoms: O_8  and  C_32
   10  A    between atoms: C_10  and  N_15
   11  A    between atoms: C_13  and  C_20
   12  A    between atoms: N_15  and  C_24
                            x       y       z     vdW  Elec       q    Type
                         _______ _______ _______ _____ _____    ______ ____

>  <TORSDO>
F 12

$$$$
=
 OpenBabel11042410113D

 32 34  0  0  1  0  0  0  0  0999 V2000
  187.2640  178.1780  141.0980 C   0  0  1  0  0  3  0  0  0  0  0  0
  185.5380  179.6180  141.9150 O   0  0  0  0  0  0  0  0  0  0  0  0
  186.0320  179.0050  140.9280 C   0  0  0  0  0  0  0  0  0  0  0  0
  185.4410  179.0870  139.6690 O   0  0  0  0  0  0  0  0  0  0  0  0
  184.0420  179.2990  139.5070 C   0  0  0  0  0  2  0  0  0  0  0  0
  183.3720  178.0590  138.9380 C   0  0  1  0  0  3  0  0  0  0  0  0
  184.2830  177.3640  137.9440 C   0  0  0  0  0  1  0  0  0  0  0  0
  183.0180  177.1410  140.0070 N   0  0  0  0  0  1  0  0  0  0  0  0
  188.2790  178.5950  140.1410 N   0  0  0  0  0  2  0  0  0  0  0  0
  188.7680  177.3980  139.4660 C   0  0  1  0  0  3  0  0  0  0  0  0
  187.9870  178.4170  137.2810 C   0  0  0  0  0  1  0  0  0  0  0  0
  189.9270  175.6730  137.5910 N   0  0  0  0  0  0  0  0  0  0  0  0
  190.7400  176.1400  138.7180 C   0  0  0  0  0  2  0  0  0  0  0  0
  188.0470  177.1550  138.1320 C   0  0  1  0  0  3  0  0  0  0  0  0
  188.7040  176.0550  137.3380 C   0  0  0  0  0  0  0  0  0  0  0  0
  190.2660  177.4900  139.2400 C   0  0  0  0  0  2  0  0  0  0  0  0
  187.9800  175.5000  136.2720 O   0  0  0  0  0  0  0  0  0  0  0  0
  186.4780  174.1450  137.3550 O   0  0  0  0  0  0  0  0  0  0  0  0
  185.7350  175.0360  135.3530 N   0  0  0  0  0  1  0  0  0  0  0  0
  186.7270  174.8770  136.3630 C   0  0  0  0  0  0  0  0  0  0  0  0
  187.8050  178.2910  142.5150 C   0  0  0  0  0  2  0  0  0  0  0  0
  187.5550  176.9980  143.2730 C   0  0  0  0  0  2  0  0  0  0  0  0
  188.3150  176.9960  144.5140 N   0  0  0  0  0  0  0  0  0  0  0  0
  187.6740  178.1220  147.9560 N   0  0  0  0  0  0  0  0  0  0  0  0
  188.4440  177.5610  146.8930 C   0  0  1  0  0  3  0  0  0  0  0  0
  187.7560  177.4540  145.7480 C   0  0  0  0  0  0  0  0  0  0  0  0
  186.3020  177.7140  146.0000 C   0  0  1  0  0  3  0  0  0  0  0  0
  186.5410  178.2380  147.3610 C   0  0  0  0  0  0  0  0  0  0  0  0
  189.8440  177.3230  147.0000 N   0  0  0  0  0  1  0  0  0  0  0  0
  185.7430  178.9970  145.6700 C   0  0  1  0  0  3  0  0  0  0  0  0
  184.3420  178.8260  145.1150 C   0  0  0  0  0  1  0  0  0  0  0  0
  185.6720  179.3890  147.0650 N   0  0  0  0  0  2  0  0  0  0  0  0
  1 21  1  1  0  0  0
  3  1  1  0  0  0  0
  3  2  2  0  0  0  0
  4  3  1  0  0  0  0
  5  4  1  0  0  0  0
  6  7  1  6  0  0  0
  6  5  1  0  0  0  0
  6  8  1  0  0  0  0
  9  1  1  0  0  0  0
 10  9  1  6  0  0  0
 12 13  1  0  0  0  0
 13 16  1  0  0  0  0
 14 11  1  6  0  0  0
 14 10  1  0  0  0  0
 15 12  2  0  0  0  0
 15 14  1  0  0  0  0
 16 10  1  0  0  0  0
 17 20  1  0  0  0  0
 17 15  1  0  0  0  0
 19 20  1  0  0  0  0
 20 18  2  0  0  0  0
 21 22  1  0  0  0  0
 22 23  1  0  0  0  0
 23 26  2  0  0  0  0
 25 29  1  6  0  0  0
 25 24  1  0  0  0  0
 26 25  1  0  0  0  0
 27 26  1  6  0  0  0
 27 28  1  0  0  0  0
 28 24  2  0  0  0  0
 30 31  1  1  0  0  0
 30 27  1  0  0  0  0
 30 32  1  0  0  0  0
 32 28  1  0  0  0  0
M  END
>  <MODEL>
4

>  <REMARK>
 VINA RESULT:      -7.2      2.889      6.527
  Name = 
  12 active torsions:
  status: ('A' for Active; 'I' for Inactive)
    1  A    between atoms: N_1  and  C_9
    2  A    between atoms: N_1  and  C_13
    3  A    between atoms: O_3  and  C_27
    4  A    between atoms: O_3  and  C_30
    5  A    between atoms: C_5  and  C_32
    6  A    between atoms: C_7  and  C_13
    7  A    between atoms: C_7  and  C_24
    8  A    between atoms: O_8  and  C_20
    9  A    between atoms: O_8  and  C_32
   10  A    between atoms: C_10  and  N_15
   11  A    between atoms: C_13  and  C_20
   12  A    between atoms: N_15  and  C_24
                            x       y       z     vdW  Elec       q    Type
                         _______ _______ _______ _____ _____    ______ ____

>  <TORSDO>
F 12

$$$$
=
 OpenBabel11042410113D

 32 34  0  0  1  0  0  0  0  0999 V2000
  185.0720  178.8580  142.8330 C   0  0  1  0  0  3  0  0  0  0  0  0
  183.4550  177.7740  141.4420 O   0  0  0  0  0  0  0  0  0  0  0  0
  183.6730  178.5010  142.4510 C   0  0  0  0  0  0  0  0  0  0  0  0
  182.6180  178.9830  143.2240 O   0  0  0  0  0  0  0  0  0  0  0  0
  181.2810  179.0100  142.7370 C   0  0  0  0  0  2  0  0  0  0  0  0
  180.2870  178.8880  143.8820 C   0  0  1  0  0  3  0  0  0  0  0  0
  179.1060  179.8150  143.6690 C   0  0  0  0  0  1  0  0  0  0  0  0
  179.8230  177.5170  144.0010 N   0  0  0  0  0  1  0  0  0  0  0  0
  185.7730  177.6750  143.3140 N   0  0  0  0  0  2  0  0  0  0  0  0
  185.8380  177.7620  144.7680 C   0  0  1  0  0  3  0  0  0  0  0  0
  188.3630  177.8530  144.5620 C   0  0  0  0  0  1  0  0  0  0  0  0
  186.5940  178.4580  147.3720 N   0  0  0  0  0  0  0  0  0  0  0  0
  185.4790  179.1750  146.7450 C   0  0  0  0  0  2  0  0  0  0  0  0
  187.1810  177.2550  145.3150 C   0  0  1  0  0  3  0  0  0  0  0  0
  187.3300  177.5530  146.7850 C   0  0  0  0  0  0  0  0  0  0  0  0
  185.5930  179.1880  145.2270 C   0  0  0  0  0  2  0  0  0  0  0  0
  188.3350  176.8720  147.4880 O   0  0  0  0  0  0  0  0  0  0  0  0
  189.6640  178.3290  148.6610 O   0  0  0  0  0  0  0  0  0  0  0  0
  190.7940  176.8840  147.2510 N   0  0  0  0  0  1  0  0  0  0  0  0
  189.5930  177.3870  147.8310 C   0  0  0  0  0  0  0  0  0  0  0  0
  185.8210  179.4660  141.6560 C   0  0  0  0  0  2  0  0  0  0  0  0
  187.0290  178.6130  141.3100 C   0  0  0  0  0  2  0  0  0  0  0  0
  187.2410  178.6160  139.8700 N   0  0  0  0  0  2  0  0  0  0  0  0
  190.0410  177.6550  137.6880 N   0  0  0  0  0  0  0  0  0  0  0  0
  188.7940  178.2720  138.0090 C   0  0  0  0  0  0  0  0  0  0  0  0
  188.4100  178.0490  139.2730 C   0  0  0  0  0  0  0  0  0  0  0  0
  189.2790  176.9980  139.8930 C   0  0  1  0  0  3  0  0  0  0  0  0
  190.2660  177.0390  138.7930 C   0  0  0  0  0  0  0  0  0  0  0  0
  188.1370  179.1800  137.1310 N   0  0  0  0  0  1  0  0  0  0  0  0
  190.3430  177.3880  140.7790 C   0  0  1  0  0  3  0  0  0  0  0  0
  190.4590  176.3940  141.9190 C   0  0  0  0  0  1  0  0  0  0  0  0
  191.3560  177.1070  139.7800 N   0  0  0  0  0  2  0  0  0  0  0  0
  1 21  1  6  0  0  0
  1  9  1  0  0  0  0
  2  3  2  0  0  0  0
  3  1  1  0  0  0  0
  3  4  1  0  0  0  0
  5  4  1  0  0  0  0
  5  6  1  0  0  0  0
  6  7  1  6  0  0  0
  6  8  1  0  0  0  0
 10  9  1  6  0  0  0
 10 16  1  0  0  0  0
 10 14  1  0  0  0  0
 13 12  1  0  0  0  0
 14 11  1  6  0  0  0
 14 15  1  0  0  0  0
 15 12  2  0  0  0  0
 15 17  1  0  0  0  0
 16 13  1  0  0  0  0
 17 20  1  0  0  0  0
 19 20  1  0  0  0  0
 20 18  2  0  0  0  0
 22 21  1  0  0  0  0
 23 22  1  0  0  0  0
 24 25  1  0  0  0  0
 24 28  2  0  0  0  0
 25 26  2  0  0  0  0
 26 23  1  0  0  0  0
 26 27  1  0  0  0  0
 27 28  1  6  0  0  0
 27 30  1  0  0  0  0
 28 32  1  0  0  0  0
 29 25  1  0  0  0  0
 30 31  1  1  0  0  0
 32 30  1  0  0  0  0
M  END
>  <MODEL>
5

>  <REMARK>
 VINA RESULT:      -7.2      2.765      7.087
  Name = 
  12 active torsions:
  status: ('A' for Active; 'I' for Inactive)
    1  A    between atoms: N_1  and  C_9
    2  A    between atoms: N_1  and  C_13
    3  A    between atoms: O_3  and  C_27
    4  A    between atoms: O_3  and  C_30
    5  A    between atoms: C_5  and  C_32
    6  A    between atoms: C_7  and  C_13
    7  A    between atoms: C_7  and  C_24
    8  A    between atoms: O_8  and  C_20
    9  A    between atoms: O_8  and  C_32
   10  A    between atoms: C_10  and  N_15
   11  A    between atoms: C_13  and  C_20
   12  A    between atoms: N_15  and  C_24
                            x       y       z     vdW  Elec       q    Type
                         _______ _______ _______ _____ _____    ______ ____

>  <TORSDO>
F 12

$$$$
=
 OpenBabel11042410113D

 32 34  0  0  1  0  0  0  0  0999 V2000
  188.9850  177.4800  141.2470 C   0  0  1  0  0  3  0  0  0  0  0  0
  191.3100  177.3450  140.7010 O   0  0  0  0  0  0  0  0  0  0  0  0
  190.1210  177.0880  140.3600 C   0  0  0  0  0  0  0  0  0  0  0  0
  189.8480  176.4400  139.1570 O   0  0  0  0  0  0  0  0  0  0  0  0
  190.2810  176.9630  137.9060 C   0  0  0  0  0  2  0  0  0  0  0  0
  189.4120  176.4390  136.7740 C   0  0  1  0  0  3  0  0  0  0  0  0
  187.9840  176.2340  137.2430 C   0  0  0  0  0  1  0  0  0  0  0  0
  189.4350  177.3620  135.6520 N   0  0  0  0  0  1  0  0  0  0  0  0
  189.4540  178.3860  142.2860 N   0  0  0  0  0  2  0  0  0  0  0  0
  189.4790  177.6420  143.5410 C   0  0  1  0  0  3  0  0  0  0  0  0
  191.2570  179.2530  144.3580 C   0  0  0  0  0  1  0  0  0  0  0  0
  189.6220  176.9960  146.2610 N   0  0  0  0  0  0  0  0  0  0  0  0
  188.3030  177.1410  145.6380 C   0  0  0  0  0  2  0  0  0  0  0  0
  190.8200  177.7960  144.2740 C   0  0  1  0  0  3  0  0  0  0  0  0
  190.7620  177.2170  145.6640 C   0  0  0  0  0  0  0  0  0  0  0  0
  188.3390  178.0820  144.4420 C   0  0  0  0  0  2  0  0  0  0  0  0
  191.9790  176.9860  146.3240 O   0  0  0  0  0  0  0  0  0  0  0  0
  192.3940  174.7340  146.1880 O   0  0  0  0  0  0  0  0  0  0  0  0
  192.7810  175.6820  148.2630 N   0  0  0  0  0  1  0  0  0  0  0  0
  192.3890  175.7730  146.8960 C   0  0  0  0  0  0  0  0  0  0  0  0
  187.8690  178.1360  140.4470 C   0  0  0  0  0  2  0  0  0  0  0  0
  186.9730  178.9440  141.3690 C   0  0  0  0  0  2  0  0  0  0  0  0
  186.0410  178.0610  142.0540 N   0  0  0  0  0  2  0  0  0  0  0  0
  182.6040  178.9870  142.9760 N   0  0  0  0  0  0  0  0  0  0  0  0
  183.6360  178.5170  142.1090 C   0  0  0  0  0  0  0  0  0  0  0  0
  184.8500  178.5490  142.6770 C   0  0  0  0  0  0  0  0  0  0  0  0
  184.7930  179.3160  143.9620 C   0  0  1  0  0  3  0  0  0  0  0  0
  183.3160  179.3380  143.9870 C   0  0  0  0  0  0  0  0  0  0  0  0
  183.3660  177.9050  140.8530 N   0  0  0  0  0  1  0  0  0  0  0  0
  184.7430  178.6060  145.2110 C   0  0  1  0  0  3  0  0  0  0  0  0
  185.5700  179.3330  146.2550 C   0  0  0  0  0  1  0  0  0  0  0  0
  183.3390  178.9170  145.3970 N   0  0  0  0  0  2  0  0  0  0  0  0
  1 21  1  6  0  0  0
  1  9  1  0  0  0  0
  3  2  2  0  0  0  0
  3  1  1  0  0  0  0
  4  3  1  0  0  0  0
  5  4  1  0  0  0  0
  6  7  1  1  0  0  0
  6  5  1  0  0  0  0
  8  6  1  0  0  0  0
 10  9  1  6  0  0  0
 10 14  1  0  0  0  0
 10 16  1  0  0  0  0
 13 12  1  0  0  0  0
 14 11  1  1  0  0  0
 14 15  1  0  0  0  0
 15 12  2  0  0  0  0
 15 17  1  0  0  0  0
 16 13  1  0  0  0  0
 17 20  1  0  0  0  0
 18 20  2  0  0  0  0
 20 19  1  0  0  0  0
 21 22  1  0  0  0  0
 22 23  1  0  0  0  0
 23 26  1  0  0  0  0
 24 28  2  0  0  0  0
 25 26  2  0  0  0  0
 25 24  1  0  0  0  0
 27 26  1  6  0  0  0
 27 28  1  0  0  0  0
 27 30  1  0  0  0  0
 28 32  1  0  0  0  0
 29 25  1  0  0  0  0
 30 32  1  0  0  0  0
 30 31  1  1  0  0  0
M  END
>  <MODEL>
6

>  <REMARK>
 VINA RESULT:      -7.2      1.705      2.283
  Name = 
  12 active torsions:
  status: ('A' for Active; 'I' for Inactive)
    1  A    between atoms: N_1  and  C_9
    2  A    between atoms: N_1  and  C_13
    3  A    between atoms: O_3  and  C_27
    4  A    between atoms: O_3  and  C_30
    5  A    between atoms: C_5  and  C_32
    6  A    between atoms: C_7  and  C_13
    7  A    between atoms: C_7  and  C_24
    8  A    between atoms: O_8  and  C_20
    9  A    between atoms: O_8  and  C_32
   10  A    between atoms: C_10  and  N_15
   11  A    between atoms: C_13  and  C_20
   12  A    between atoms: N_15  and  C_24
                            x       y       z     vdW  Elec       q    Type
                         _______ _______ _______ _____ _____    ______ ____

>  <TORSDO>
F 12

$$$$
=
 OpenBabel11042410113D

 32 34  0  0  1  0  0  0  0  0999 V2000
  187.8840  178.4160  141.5430 C   0  0  1  0  0  3  0  0  0  0  0  0
  185.7600  179.5070  141.4010 O   0  0  0  0  0  0  0  0  0  0  0  0
  186.4970  178.6900  142.0220 C   0  0  0  0  0  0  0  0  0  0  0  0
  186.0320  178.0340  143.1600 O   0  0  0  0  0  0  0  0  0  0  0  0
  185.1880  178.6790  144.1080 C   0  0  0  0  0  2  0  0  0  0  0  0
  185.3810  178.0840  145.4940 C   0  0  1  0  0  3  0  0  0  0  0  0
  186.8510  177.8360  145.7720 C   0  0  0  0  0  1  0  0  0  0  0  0
  184.8300  178.9710  146.5040 N   0  0  0  0  0  1  0  0  0  0  0  0
  188.4240  177.2490  142.2260 N   0  0  0  0  0  2  0  0  0  0  0  0
  189.3270  177.7250  143.2670 C   0  0  1  0  0  3  0  0  0  0  0  0
  190.6350  175.5710  142.9960 C   0  0  0  0  0  1  0  0  0  0  0  0
  191.6300  178.2690  144.7640 N   0  0  0  0  0  0  0  0  0  0  0  0
  191.1260  179.2950  143.8460 C   0  0  0  0  0  2  0  0  0  0  0  0
  190.0410  176.5680  143.9830 C   0  0  1  0  0  3  0  0  0  0  0  0
  191.1310  177.0690  144.8960 C   0  0  0  0  0  0  0  0  0  0  0  0
  190.3470  178.6880  142.6870 C   0  0  0  0  0  2  0  0  0  0  0  0
  191.6410  176.1770  145.8510 O   0  0  0  0  0  0  0  0  0  0  0  0
  190.6650  176.9530  147.7770 O   0  0  0  0  0  0  0  0  0  0  0  0
  192.7240  175.9350  148.0580 N   0  0  0  0  0  1  0  0  0  0  0  0
  191.6400  176.3680  147.2400 C   0  0  0  0  0  0  0  0  0  0  0  0
  187.9090  178.1980  140.0380 C   0  0  0  0  0  2  0  0  0  0  0  0
  189.3430  178.0870  139.5500 C   0  0  0  0  0  2  0  0  0  0  0  0
  189.3620  177.8840  138.1090 N   0  0  0  0  0  2  0  0  0  0  0  0
  188.8200  174.4390  136.9440 N   0  0  0  0  0  0  0  0  0  0  0  0
  189.5450  175.5070  137.5530 C   0  0  0  0  0  0  0  0  0  0  0  0
  188.8920  176.6760  137.5050 C   0  0  0  0  0  0  0  0  0  0  0  0
  187.7100  176.5640  136.5920 C   0  0  1  0  0  3  0  0  0  0  0  0
  187.8020  175.0910  136.5070 C   0  0  0  0  0  0  0  0  0  0  0  0
  190.7420  175.2990  138.2950 N   0  0  0  0  0  1  0  0  0  0  0  0
  186.3960  176.3880  137.1490 C   0  0  1  0  0  3  0  0  0  0  0  0
  185.3800  177.1720  136.3400 C   0  0  0  0  0  1  0  0  0  0  0  0
  186.3560  174.9910  136.7630 N   0  0  0  0  0  2  0  0  0  0  0  0
  1 21  1  6  0  0  0
  1  3  1  0  0  0  0
  1  9  1  0  0  0  0
  2  3  2  0  0  0  0
  3  4  1  0  0  0  0
  4  5  1  0  0  0  0
  5  6  1  0  0  0  0
  6  7  1  1  0  0  0
  6  8  1  0  0  0  0
 10  9  1  6  0  0  0
 10 14  1  0  0  0  0
 12 15  2  0  0  0  0
 13 12  1  0  0  0  0
 14 11  1  6  0  0  0
 14 15  1  0  0  0  0
 15 17  1  0  0  0  0
 16 10  1  0  0  0  0
 16 13  1  0  0  0  0
 17 20  1  0  0  0  0
 20 18  2  0  0  0  0
 20 19  1  0  0  0  0
 22 21  1  0  0  0  0
 23 22  1  0  0  0  0
 24 25  1  0  0  0  0
 25 29  1  0  0  0  0
 26 25  2  0  0  0  0
 26 23  1  0  0  0  0
 27 28  1  6  0  0  0
 27 30  1  0  0  0  0
 27 26  1  0  0  0  0
 28 32  1  0  0  0  0
 28 24  2  0  0  0  0
 30 31  1  6  0  0  0
 32 30  1  0  0  0  0
M  END
>  <MODEL>
7

>  <REMARK>
 VINA RESULT:      -7.0      2.245      6.387
  Name = 
  12 active torsions:
  status: ('A' for Active; 'I' for Inactive)
    1  A    between atoms: N_1  and  C_9
    2  A    between atoms: N_1  and  C_13
    3  A    between atoms: O_3  and  C_27
    4  A    between atoms: O_3  and  C_30
    5  A    between atoms: C_5  and  C_32
    6  A    between atoms: C_7  and  C_13
    7  A    between atoms: C_7  and  C_24
    8  A    between atoms: O_8  and  C_20
    9  A    between atoms: O_8  and  C_32
   10  A    between atoms: C_10  and  N_15
   11  A    between atoms: C_13  and  C_20
   12  A    between atoms: N_15  and  C_24
                            x       y       z     vdW  Elec       q    Type
                         _______ _______ _______ _____ _____    ______ ____

>  <TORSDO>
F 12

$$$$
=
 OpenBabel11042410113D

 32 34  0  0  1  0  0  0  0  0999 V2000
  188.1370  178.4160  141.1940 C   0  0  1  0  0  3  0  0  0  0  0  0
  186.0710  178.9990  140.1400 O   0  0  0  0  0  0  0  0  0  0  0  0
  186.6580  178.6210  141.1920 C   0  0  0  0  0  0  0  0  0  0  0  0
  185.9400  178.3900  142.3640 O   0  0  0  0  0  0  0  0  0  0  0  0
  184.9320  179.2860  142.8180 C   0  0  0  0  0  2  0  0  0  0  0  0
  184.1400  178.6720  143.9620 C   0  0  1  0  0  3  0  0  0  0  0  0
  184.7820  179.0010  145.2960 C   0  0  0  0  0  1  0  0  0  0  0  0
  182.7700  179.1540  143.9410 N   0  0  0  0  0  1  0  0  0  0  0  0
  188.4590  177.1230  141.7830 N   0  0  0  0  0  2  0  0  0  0  0  0
  189.4500  177.3490  142.8290 C   0  0  1  0  0  3  0  0  0  0  0  0
  187.6900  176.6700  144.5220 C   0  0  0  0  0  1  0  0  0  0  0  0
  190.9760  177.1010  145.1630 N   0  0  0  0  0  0  0  0  0  0  0  0
  191.4910  176.5230  143.9180 C   0  0  0  0  0  2  0  0  0  0  0  0
  188.7960  177.6620  144.1830 C   0  0  1  0  0  3  0  0  0  0  0  0
  189.8090  177.6720  145.2990 C   0  0  0  0  0  0  0  0  0  0  0  0
  190.3700  176.1480  142.9580 C   0  0  0  0  0  2  0  0  0  0  0  0
  189.4300  178.2580  146.5160 O   0  0  0  0  0  0  0  0  0  0  0  0
  189.1710  176.3310  147.7350 O   0  0  0  0  0  0  0  0  0  0  0  0
  188.3210  178.2430  148.7240 N   0  0  0  0  0  1  0  0  0  0  0  0
  188.9880  177.5730  147.6570 C   0  0  0  0  0  0  0  0  0  0  0  0
  188.7030  178.5040  139.7850 C   0  0  0  0  0  2  0  0  0  0  0  0
  189.1510  177.1310  139.3160 C   0  0  0  0  0  2  0  0  0  0  0  0
  190.5780  177.1450  139.0340 N   0  0  0  0  0  2  0  0  0  0  0  0
  192.6770  175.8550  136.3040 N   0  0  0  0  0  0  0  0  0  0  0  0
  192.4170  176.4260  137.5870 C   0  0  0  0  0  0  0  0  0  0  0  0
  191.1140  176.6520  137.8030 C   0  0  0  0  0  0  0  0  0  0  0  0
  190.3470  176.4820  136.5280 C   0  0  1  0  0  3  0  0  0  0  0  0
  191.4860  175.8580  135.8220 C   0  0  0  0  0  0  0  0  0  0  0  0
  193.4200  176.5550  138.5890 N   0  0  0  0  0  1  0  0  0  0  0  0
  189.6170  175.2650  136.2960 C   0  0  1  0  0  3  0  0  0  0  0  0
  188.3100  175.5710  135.5890 C   0  0  0  0  0  1  0  0  0  0  0  0
  190.5940  174.7940  135.3340 N   0  0  0  0  0  2  0  0  0  0  0  0
  1 21  1  6  0  0  0
  1  9  1  0  0  0  0
  2  3  2  0  0  0  0
  3  1  1  0  0  0  0
  3  4  1  0  0  0  0
  4  5  1  0  0  0  0
  5  6  1  0  0  0  0
  6  7  1  1  0  0  0
  8  6  1  0  0  0  0
 10  9  1  6  0  0  0
 10 16  1  0  0  0  0
 10 14  1  0  0  0  0
 12 15  2  0  0  0  0
 13 12  1  0  0  0  0
 14 11  1  1  0  0  0
 14 15  1  0  0  0  0
 15 17  1  0  0  0  0
 16 13  1  0  0  0  0
 17 20  1  0  0  0  0
 20 18  2  0  0  0  0
 20 19  1  0  0  0  0
 22 21  1  0  0  0  0
 23 22  1  0  0  0  0
 24 25  1  0  0  0  0
 25 26  2  0  0  0  0
 25 29  1  0  0  0  0
 26 23  1  0  0  0  0
 27 28  1  6  0  0  0
 27 26  1  0  0  0  0
 28 24  2  0  0  0  0
 30 31  1  6  0  0  0
 30 27  1  0  0  0  0
 32 28  1  0  0  0  0
 32 30  1  0  0  0  0
M  END
>  <MODEL>
8

>  <REMARK>
 VINA RESULT:      -7.0      1.980      7.264
  Name = 
  12 active torsions:
  status: ('A' for Active; 'I' for Inactive)
    1  A    between atoms: N_1  and  C_9
    2  A    between atoms: N_1  and  C_13
    3  A    between atoms: O_3  and  C_27
    4  A    between atoms: O_3  and  C_30
    5  A    between atoms: C_5  and  C_32
    6  A    between atoms: C_7  and  C_13
    7  A    between atoms: C_7  and  C_24
    8  A    between atoms: O_8  and  C_20
    9  A    between atoms: O_8  and  C_32
   10  A    between atoms: C_10  and  N_15
   11  A    between atoms: C_13  and  C_20
   12  A    between atoms: N_15  and  C_24
                            x       y       z     vdW  Elec       q    Type
                         _______ _______ _______ _____ _____    ______ ____

>  <TORSDO>
F 12

$$$$
=
 OpenBabel11042410113D

 32 34  0  0  1  0  0  0  0  0999 V2000
  189.8370  177.8770  140.5520 C   0  0  1  0  0  3  0  0  0  0  0  0
  192.1920  177.5030  140.7490 O   0  0  0  0  0  0  0  0  0  0  0  0
  191.0410  177.3160  141.2350 C   0  0  0  0  0  0  0  0  0  0  0  0
  190.8750  176.5860  142.4100 O   0  0  0  0  0  0  0  0  0  0  0  0
  191.6800  176.8170  143.5600 C   0  0  0  0  0  2  0  0  0  0  0  0
  190.8650  177.4670  144.6670 C   0  0  1  0  0  3  0  0  0  0  0  0
  190.5840  178.9220  144.3430 C   0  0  0  0  0  1  0  0  0  0  0  0
  189.6150  176.7530  144.8580 N   0  0  0  0  0  1  0  0  0  0  0  0
  189.9390  177.6690  139.1140 N   0  0  0  0  0  2  0  0  0  0  0  0
  188.6940  177.0550  138.6680 C   0  0  1  0  0  3  0  0  0  0  0  0
  188.2790  179.1250  137.2650 C   0  0  0  0  0  1  0  0  0  0  0  0
  186.5330  176.2430  137.0850 N   0  0  0  0  0  0  0  0  0  0  0  0
  187.6610  175.3240  137.2640 C   0  0  0  0  0  2  0  0  0  0  0  0
  187.6660  178.1040  138.2140 C   0  0  1  0  0  3  0  0  0  0  0  0
  186.4760  177.4620  137.5480 C   0  0  0  0  0  0  0  0  0  0  0  0
  188.9600  176.0670  137.5470 C   0  0  0  0  0  2  0  0  0  0  0  0
  185.3230  178.2440  137.3830 O   0  0  0  0  0  0  0  0  0  0  0  0
  183.4760  177.8470  138.6830 O   0  0  0  0  0  0  0  0  0  0  0  0
  184.5550  179.8530  139.0930 N   0  0  0  0  0  1  0  0  0  0  0  0
  184.4280  178.6170  138.3950 C   0  0  0  0  0  0  0  0  0  0  0  0
  188.5630  177.2390  141.0830 C   0  0  0  0  0  2  0  0  0  0  0  0
  187.8470  178.2020  142.0150 C   0  0  0  0  0  2  0  0  0  0  0  0
  186.9930  177.4620  142.9310 N   0  0  0  0  0  2  0  0  0  0  0  0
  184.0490  179.0430  144.4660 N   0  0  0  0  0  0  0  0  0  0  0  0
  184.8210  178.4910  143.4000 C   0  0  0  0  0  0  0  0  0  0  0  0
  186.0480  178.1140  143.7850 C   0  0  0  0  0  0  0  0  0  0  0  0
  186.3320  178.6280  145.1630 C   0  0  1  0  0  3  0  0  0  0  0  0
  184.9270  179.0160  145.4040 C   0  0  0  0  0  0  0  0  0  0  0  0
  184.2700  178.2020  142.1200 N   0  0  0  0  0  1  0  0  0  0  0  0
  186.2160  177.7420  146.2890 C   0  0  1  0  0  3  0  0  0  0  0  0
  187.3100  178.0380  147.2970 C   0  0  0  0  0  1  0  0  0  0  0  0
  184.9760  178.3570  146.7190 N   0  0  0  0  0  2  0  0  0  0  0  0
  1 21  1  1  0  0  0
  1  3  1  0  0  0  0
  2  3  2  0  0  0  0
  3  4  1  0  0  0  0
  4  5  1  0  0  0  0
  5  6  1  0  0  0  0
  6  7  1  6  0  0  0
  6  8  1  0  0  0  0
  9  1  1  0  0  0  0
 10  9  1  6  0  0  0
 12 13  1  0  0  0  0
 12 15  2  0  0  0  0
 13 16  1  0  0  0  0
 14 11  1  6  0  0  0
 14 10  1  0  0  0  0
 15 14  1  0  0  0  0
 16 10  1  0  0  0  0
 17 15  1  0  0  0  0
 17 20  1  0  0  0  0
 20 18  2  0  0  0  0
 20 19  1  0  0  0  0
 21 22  1  0  0  0  0
 22 23  1  0  0  0  0
 23 26  1  0  0  0  0
 24 28  2  0  0  0  0
 25 26  2  0  0  0  0
 25 24  1  0  0  0  0
 27 26  1  6  0  0  0
 27 28  1  0  0  0  0
 27 30  1  0  0  0  0
 28 32  1  0  0  0  0
 29 25  1  0  0  0  0
 30 32  1  0  0  0  0
 30 31  1  1  0  0  0
M  END
>  <MODEL>
9

>  <REMARK>
 VINA RESULT:      -6.9      2.415      5.875
  Name = 
  12 active torsions:
  status: ('A' for Active; 'I' for Inactive)
    1  A    between atoms: N_1  and  C_9
    2  A    between atoms: N_1  and  C_13
    3  A    between atoms: O_3  and  C_27
    4  A    between atoms: O_3  and  C_30
    5  A    between atoms: C_5  and  C_32
    6  A    between atoms: C_7  and  C_13
    7  A    between atoms: C_7  and  C_24
    8  A    between atoms: O_8  and  C_20
    9  A    between atoms: O_8  and  C_32
   10  A    between atoms: C_10  and  N_15
   11  A    between atoms: C_13  and  C_20
   12  A    between atoms: N_15  and  C_24
                            x       y       z     vdW  Elec       q    Type
                         _______ _______ _______ _____ _____    ______ ____

>  <TORSDO>
F 12

$$$$
