=
 OpenBabel11032419513D

 27 29  0  0  1  0  0  0  0  0999 V2000
  184.7600  178.6670  144.3340 C   0  0  0  0  0  0  0  0  0  0  0  0
  185.5010  178.0730  141.9830 C   0  0  2  0  0  3  0  0  0  0  0  0
  184.6240  178.5010  146.7020 N   0  0  0  0  0  0  0  0  0  0  0  0
  188.2700  177.9340  141.2790 C   0  0  0  0  0  3  0  0  0  0  0  0
  186.0240  178.1180  144.3680 C   0  0  0  0  0  0  0  0  0  0  0  0
  186.6110  177.7590  145.5840 C   0  0  0  0  0  3  0  0  0  0  0  0
  185.8780  177.9670  146.7600 C   0  0  0  0  0  3  0  0  0  0  0  0
  186.0290  178.6110  140.7210 N   0  0  0  0  0  0  0  0  0  0  0  0
  184.1600  179.1030  142.7070 S   0  0  0  0  0  0  0  0  0  0  0  0
  187.8720  177.8020  142.6930 C   0  0  0  0  0  0  0  0  0  0  0  0
  184.0480  178.8540  145.5190 C   0  0  0  0  0  3  0  0  0  0  0  0
  187.3900  178.3340  140.3570 C   0  0  0  0  0  3  0  0  0  0  0  0
  186.5760  177.9460  143.0280 C   0  0  0  0  0  0  0  0  0  0  0  0
  188.9500  177.6020  143.7100 C   0  0  0  0  0  2  0  0  0  0  0  0
  189.8840  176.5830  143.2550 N   0  0  0  0  0  2  0  0  0  0  0  0
  191.0860  176.6970  144.0640 C   0  0  0  0  0  2  0  0  0  0  0  0
  190.8650  177.7070  145.1760 C   0  0  0  0  0  2  0  0  0  0  0  0
  191.1640  177.0770  146.5290 C   0  0  1  0  0  3  0  0  0  0  0  0
  189.8700  176.7430  147.2690 C   0  0  0  0  0  2  0  0  0  0  0  0
  189.3570  177.9180  148.0890 C   0  0  0  0  0  1  0  0  0  0  0  0
  192.4500  175.6630  147.6520 C   0  0  0  0  0  1  0  0  0  0  0  0
  191.9520  175.9320  146.3760 O   0  0  0  0  0  0  0  0  0  0  0  0
  185.1140  179.0460  139.6740 C   0  0  0  0  0  2  0  0  0  0  0  0
  185.6230  177.3760  136.2770 N   0  0  0  0  0  1  0  0  0  0  0  0
  185.0970  177.6270  137.5740 C   0  0  0  0  0  0  0  0  0  0  0  0
  185.6390  178.6860  138.3630 N   0  0  0  0  0  2  0  0  0  0  0  0
  184.1650  176.9070  138.0190 O   0  0  0  0  0  0  0  0  0  0  0  0
  1  5  2  0  0  0  0
  1 11  1  0  0  0  0
  2  9  1  1  0  0  0
  2 13  1  0  0  0  0
  3  7  1  0  0  0  0
  4 10  1  0  0  0  0
  5  6  1  0  0  0  0
  6  7  2  0  0  0  0
  8  2  1  0  0  0  0
  9  1  1  0  0  0  0
 10 13  2  0  0  0  0
 10 14  1  0  0  0  0
 11  3  2  0  0  0  0
 12  8  1  0  0  0  0
 12  4  2  0  0  0  0
 13  5  1  0  0  0  0
 15 14  1  0  0  0  0
 15 16  1  0  0  0  0
 16 17  1  0  0  0  0
 18 17  1  6  0  0  0
 18 19  1  0  0  0  0
 19 20  1  0  0  0  0
 22 18  1  0  0  0  0
 22 21  1  0  0  0  0
 23  8  1  0  0  0  0
 24 25  1  0  0  0  0
 25 27  2  0  0  0  0
 25 26  1  0  0  0  0
 26 23  1  0  0  0  0
M  END
>  <MODEL>
1

>  <REMARK>
 VINA RESULT:      -7.5      0.000      0.000
  Name = 
  9 active torsions:
  status: ('A' for Active; 'I' for Inactive)
    1  A    between atoms: C_4  and  C_26
    2  A    between atoms: C_8  and  C_13
    3  A    between atoms: C_8  and  C_26
    4  A    between atoms: C_10  and  C_16
    5  A    between atoms: C_10  and  N_17
    6  A    between atoms: C_13  and  N_17
    7  A    between atoms: N_14  and  C_22
    8  A    between atoms: N_21  and  C_22
    9  A    between atoms: C_26  and  O_27
                            x       y       z     vdW  Elec       q    Type
                         _______ _______ _______ _____ _____    ______ ____

>  <TORSDO>
F 9

$$$$
=
 OpenBabel11032419513D

 27 29  0  0  1  0  0  0  0  0999 V2000
  186.9860  178.2820  146.9490 C   0  0  0  0  0  0  0  0  0  0  0  0
  185.2570  178.1170  145.1010 C   0  0  2  0  0  3  0  0  0  0  0  0
  188.8620  177.6480  148.2650 N   0  0  0  0  0  0  0  0  0  0  0  0
  186.0230  177.8740  142.3560 C   0  0  0  0  0  3  0  0  0  0  0  0
  187.5250  177.6250  145.8630 C   0  0  0  0  0  0  0  0  0  0  0  0
  188.7560  176.9730  145.9670 C   0  0  0  0  0  3  0  0  0  0  0  0
  189.4190  177.0010  147.2000 C   0  0  0  0  0  3  0  0  0  0  0  0
  184.5860  178.8510  144.0200 N   0  0  0  0  0  0  0  0  0  0  0  0
  185.4210  179.0940  146.6500 S   0  0  0  0  0  0  0  0  0  0  0  0
  186.9780  177.4920  143.4130 C   0  0  0  0  0  0  0  0  0  0  0  0
  187.6620  178.2870  148.1690 C   0  0  0  0  0  3  0  0  0  0  0  0
  184.9010  178.5320  142.6560 C   0  0  0  0  0  3  0  0  0  0  0  0
  186.6420  177.6810  144.7040 C   0  0  0  0  0  0  0  0  0  0  0  0
  188.3240  176.9910  142.9960 C   0  0  0  0  0  2  0  0  0  0  0  0
  188.6090  177.4020  141.6300 N   0  0  0  0  0  2  0  0  0  0  0  0
  189.9190  176.8790  141.2780 C   0  0  0  0  0  2  0  0  0  0  0  0
  191.0000  177.8350  141.7520 C   0  0  0  0  0  2  0  0  0  0  0  0
  191.8330  177.1900  142.8500 C   0  0  1  0  0  3  0  0  0  0  0  0
  191.7400  177.9940  144.1450 C   0  0  0  0  0  2  0  0  0  0  0  0
  190.9940  179.3060  143.9530 C   0  0  0  0  0  1  0  0  0  0  0  0
  191.8190  175.5760  144.3700 C   0  0  0  0  0  1  0  0  0  0  0  0
  191.4270  175.8680  143.0620 O   0  0  0  0  0  0  0  0  0  0  0  0
  183.3480  179.5730  144.2860 C   0  0  0  0  0  2  0  0  0  0  0  0
  179.9580  177.9590  143.5890 N   0  0  0  0  0  1  0  0  0  0  0  0
  180.9950  178.9310  143.5970 C   0  0  0  0  0  0  0  0  0  0  0  0
  182.2160  178.6550  144.2830 N   0  0  0  0  0  2  0  0  0  0  0  0
  180.8240  180.0310  143.0080 O   0  0  0  0  0  0  0  0  0  0  0  0
  1 11  1  0  0  0  0
  2 13  1  6  0  0  0
  2  9  1  0  0  0  0
  4 12  2  0  0  0  0
  4 10  1  0  0  0  0
  5  6  1  0  0  0  0
  5  1  2  0  0  0  0
  6  7  2  0  0  0  0
  7  3  1  0  0  0  0
  8 23  1  0  0  0  0
  8  2  1  0  0  0  0
  9  1  1  0  0  0  0
 10 13  2  0  0  0  0
 11  3  2  0  0  0  0
 12  8  1  0  0  0  0
 13  5  1  0  0  0  0
 14 10  1  0  0  0  0
 15 14  1  0  0  0  0
 16 15  1  0  0  0  0
 16 17  1  0  0  0  0
 18 17  1  6  0  0  0
 18 22  1  0  0  0  0
 18 19  1  0  0  0  0
 20 19  1  0  0  0  0
 22 21  1  0  0  0  0
 24 25  1  0  0  0  0
 25 26  1  0  0  0  0
 26 23  1  0  0  0  0
 27 25  2  0  0  0  0
M  END
>  <MODEL>
2

>  <REMARK>
 VINA RESULT:      -7.4      2.898      4.292
  Name = 
  9 active torsions:
  status: ('A' for Active; 'I' for Inactive)
    1  A    between atoms: C_4  and  C_26
    2  A    between atoms: C_8  and  C_13
    3  A    between atoms: C_8  and  C_26
    4  A    between atoms: C_10  and  C_16
    5  A    between atoms: C_10  and  N_17
    6  A    between atoms: C_13  and  N_17
    7  A    between atoms: N_14  and  C_22
    8  A    between atoms: N_21  and  C_22
    9  A    between atoms: C_26  and  O_27
                            x       y       z     vdW  Elec       q    Type
                         _______ _______ _______ _____ _____    ______ ____

>  <TORSDO>
F 9

$$$$
=
 OpenBabel11032419513D

 27 29  0  0  1  0  0  0  0  0999 V2000
  190.8250  176.8910  144.9170 C   0  0  0  0  0  0  0  0  0  0  0  0
  189.6110  177.9270  142.9450 C   0  0  2  0  0  3  0  0  0  0  0  0
  191.4280  176.5470  147.1910 N   0  0  0  0  0  0  0  0  0  0  0  0
  186.7540  178.0150  142.8280 C   0  0  0  0  0  3  0  0  0  0  0  0
  189.5780  177.3270  145.3130 C   0  0  0  0  0  0  0  0  0  0  0  0
  189.2380  177.3680  146.6670 C   0  0  0  0  0  3  0  0  0  0  0  0
  190.1970  176.9640  147.6040 C   0  0  0  0  0  3  0  0  0  0  0  0
  188.8570  177.6400  141.7180 N   0  0  0  0  0  0  0  0  0  0  0  0
  191.0980  176.8650  143.1490 S   0  0  0  0  0  0  0  0  0  0  0  0
  187.4240  177.8650  144.1340 C   0  0  0  0  0  0  0  0  0  0  0  0
  191.7650  176.5030  145.8710 C   0  0  0  0  0  3  0  0  0  0  0  0
  187.4430  177.8900  141.6900 C   0  0  0  0  0  3  0  0  0  0  0  0
  188.7650  177.7450  144.1760 C   0  0  0  0  0  0  0  0  0  0  0  0
  186.5660  177.7590  145.3540 C   0  0  0  0  0  2  0  0  0  0  0  0
  185.7110  178.9310  145.4660 N   0  0  0  0  0  2  0  0  0  0  0  0
  184.3330  178.4670  145.4870 C   0  0  0  0  0  2  0  0  0  0  0  0
  183.4550  179.4240  144.6980 C   0  0  0  0  0  2  0  0  0  0  0  0
  182.8750  178.7240  143.4770 C   0  0  1  0  0  3  0  0  0  0  0  0
  181.4490  179.2010  143.2050 C   0  0  0  0  0  2  0  0  0  0  0  0
  180.4170  178.3960  143.9810 C   0  0  0  0  0  1  0  0  0  0  0  0
  182.9570  178.4230  141.2830 C   0  0  0  0  0  1  0  0  0  0  0  0
  183.6860  178.9360  142.3570 O   0  0  0  0  0  0  0  0  0  0  0  0
  189.5540  177.5110  140.4450 C   0  0  0  0  0  2  0  0  0  0  0  0
  188.7500  179.3760  137.2110 N   0  0  0  0  0  1  0  0  0  0  0  0
  189.3330  178.4230  138.0910 C   0  0  0  0  0  0  0  0  0  0  0  0
  189.0460  178.4860  139.4880 N   0  0  0  0  0  2  0  0  0  0  0  0
  190.1040  177.5400  137.6320 O   0  0  0  0  0  0  0  0  0  0  0  0
  1  5  2  0  0  0  0
  1 11  1  0  0  0  0
  2  9  1  1  0  0  0
  2 13  1  0  0  0  0
  3  7  1  0  0  0  0
  4 10  1  0  0  0  0
  5  6  1  0  0  0  0
  6  7  2  0  0  0  0
  8  2  1  0  0  0  0
  9  1  1  0  0  0  0
 10 13  2  0  0  0  0
 10 14  1  0  0  0  0
 11  3  2  0  0  0  0
 12  8  1  0  0  0  0
 12  4  2  0  0  0  0
 13  5  1  0  0  0  0
 14 15  1  0  0  0  0
 15 16  1  0  0  0  0
 17 16  1  0  0  0  0
 18 19  1  6  0  0  0
 18 17  1  0  0  0  0
 19 20  1  0  0  0  0
 21 22  1  0  0  0  0
 22 18  1  0  0  0  0
 23  8  1  0  0  0  0
 24 25  1  0  0  0  0
 25 26  1  0  0  0  0
 26 23  1  0  0  0  0
 27 25  2  0  0  0  0
M  END
>  <MODEL>
3

>  <REMARK>
 VINA RESULT:      -7.4      3.046      6.230
  Name = 
  9 active torsions:
  status: ('A' for Active; 'I' for Inactive)
    1  A    between atoms: C_4  and  C_26
    2  A    between atoms: C_8  and  C_13
    3  A    between atoms: C_8  and  C_26
    4  A    between atoms: C_10  and  C_16
    5  A    between atoms: C_10  and  N_17
    6  A    between atoms: C_13  and  N_17
    7  A    between atoms: N_14  and  C_22
    8  A    between atoms: N_21  and  C_22
    9  A    between atoms: C_26  and  O_27
                            x       y       z     vdW  Elec       q    Type
                         _______ _______ _______ _____ _____    ______ ____

>  <TORSDO>
F 9

$$$$
=
 OpenBabel11032419513D

 27 29  0  0  1  0  0  0  0  0999 V2000
  187.2460  178.1720  147.2010 C   0  0  0  0  0  0  0  0  0  0  0  0
  185.6140  177.8290  145.2910 C   0  0  2  0  0  3  0  0  0  0  0  0
  189.2010  177.8260  148.5090 N   0  0  0  0  0  0  0  0  0  0  0  0
  186.4430  178.0340  142.5610 C   0  0  0  0  0  3  0  0  0  0  0  0
  187.9260  177.7590  146.0750 C   0  0  0  0  0  0  0  0  0  0  0  0
  189.2680  177.3800  146.1550 C   0  0  0  0  0  3  0  0  0  0  0  0
  189.8960  177.4240  147.4060 C   0  0  0  0  0  3  0  0  0  0  0  0
  184.8110  178.5080  144.2650 N   0  0  0  0  0  0  0  0  0  0  0  0
  185.5450  178.6560  146.9320 S   0  0  0  0  0  0  0  0  0  0  0  0
  187.4470  177.7610  143.6070 C   0  0  0  0  0  0  0  0  0  0  0  0
  187.8920  178.1990  148.4370 C   0  0  0  0  0  3  0  0  0  0  0  0
  185.2010  178.4030  142.8870 C   0  0  0  0  0  3  0  0  0  0  0  0
  187.0640  177.7420  144.8980 C   0  0  0  0  0  0  0  0  0  0  0  0
  188.8740  177.6050  143.1870 C   0  0  0  0  0  2  0  0  0  0  0  0
  189.0740  176.3020  142.5720 N   0  0  0  0  0  2  0  0  0  0  0  0
  190.4890  176.1750  142.2640 C   0  0  0  0  0  2  0  0  0  0  0  0
  190.8420  177.0700  141.0880 C   0  0  0  0  0  2  0  0  0  0  0  0
  190.0680  176.6440  139.8490 C   0  0  1  0  0  3  0  0  0  0  0  0
  189.6420  177.8620  139.0300 C   0  0  0  0  0  2  0  0  0  0  0  0
  188.2200  178.2990  139.3500 C   0  0  0  0  0  1  0  0  0  0  0  0
  191.8300  176.5690  138.5060 C   0  0  0  0  0  1  0  0  0  0  0  0
  190.8320  175.7710  139.0680 O   0  0  0  0  0  0  0  0  0  0  0  0
  183.4440  178.9170  144.5600 C   0  0  0  0  0  2  0  0  0  0  0  0
  180.6210  179.2790  142.0120 N   0  0  0  0  0  1  0  0  0  0  0  0
  181.2810  178.9980  143.2390 C   0  0  0  0  0  0  0  0  0  0  0  0
  182.7010  179.1270  143.3240 N   0  0  0  0  0  2  0  0  0  0  0  0
  180.6100  178.6270  144.2380 O   0  0  0  0  0  0  0  0  0  0  0  0
  1 11  1  0  0  0  0
  2 13  1  6  0  0  0
  2  9  1  0  0  0  0
  4 12  2  0  0  0  0
  4 10  1  0  0  0  0
  5  6  1  0  0  0  0
  5  1  2  0  0  0  0
  6  7  2  0  0  0  0
  7  3  1  0  0  0  0
  8 23  1  0  0  0  0
  8  2  1  0  0  0  0
  9  1  1  0  0  0  0
 10 13  2  0  0  0  0
 11  3  2  0  0  0  0
 12  8  1  0  0  0  0
 13  5  1  0  0  0  0
 14 10  1  0  0  0  0
 15 14  1  0  0  0  0
 16 15  1  0  0  0  0
 17 16  1  0  0  0  0
 18 19  1  6  0  0  0
 18 17  1  0  0  0  0
 19 20  1  0  0  0  0
 21 22  1  0  0  0  0
 22 18  1  0  0  0  0
 24 25  1  0  0  0  0
 25 26  1  0  0  0  0
 25 27  2  0  0  0  0
 26 23  1  0  0  0  0
M  END
>  <MODEL>
4

>  <REMARK>
 VINA RESULT:      -7.3      3.271      5.234
  Name = 
  9 active torsions:
  status: ('A' for Active; 'I' for Inactive)
    1  A    between atoms: C_4  and  C_26
    2  A    between atoms: C_8  and  C_13
    3  A    between atoms: C_8  and  C_26
    4  A    between atoms: C_10  and  C_16
    5  A    between atoms: C_10  and  N_17
    6  A    between atoms: C_13  and  N_17
    7  A    between atoms: N_14  and  C_22
    8  A    between atoms: N_21  and  C_22
    9  A    between atoms: C_26  and  O_27
                            x       y       z     vdW  Elec       q    Type
                         _______ _______ _______ _____ _____    ______ ____

>  <TORSDO>
F 9

$$$$
=
 OpenBabel11032419513D

 27 29  0  0  1  0  0  0  0  0999 V2000
  190.5670  177.0390  144.7730 C   0  0  0  0  0  0  0  0  0  0  0  0
  190.5670  177.8830  142.3810 C   0  0  2  0  0  3  0  0  0  0  0  0
  189.9200  176.9120  147.0580 N   0  0  0  0  0  0  0  0  0  0  0  0
  188.1700  177.9590  140.8230 C   0  0  0  0  0  3  0  0  0  0  0  0
  189.3130  177.5100  144.4440 C   0  0  0  0  0  0  0  0  0  0  0  0
  188.3370  177.6800  145.4290 C   0  0  0  0  0  3  0  0  0  0  0  0
  188.6700  177.3660  146.7530 C   0  0  0  0  0  3  0  0  0  0  0  0
  190.5240  177.4800  140.9690 N   0  0  0  0  0  0  0  0  0  0  0  0
  191.6940  176.8450  143.3990 S   0  0  0  0  0  0  0  0  0  0  0  0
  188.0790  177.9330  142.2950 C   0  0  0  0  0  0  0  0  0  0  0  0
  190.8760  176.7420  146.1010 C   0  0  0  0  0  3  0  0  0  0  0  0
  189.3330  177.7260  140.2070 C   0  0  0  0  0  3  0  0  0  0  0  0
  189.2070  177.8180  143.0220 C   0  0  0  0  0  0  0  0  0  0  0  0
  186.7180  177.9440  142.9150 C   0  0  0  0  0  2  0  0  0  0  0  0
  185.7060  178.1550  141.8920 N   0  0  0  0  0  2  0  0  0  0  0  0
  184.8440  179.2360  142.3440 C   0  0  0  0  0  2  0  0  0  0  0  0
  184.9110  179.3500  143.8560 C   0  0  0  0  0  2  0  0  0  0  0  0
  183.5090  179.4190  144.4440 C   0  0  1  0  0  3  0  0  0  0  0  0
  182.5220  178.6280  143.5880 C   0  0  0  0  0  2  0  0  0  0  0  0
  181.0780  178.8720  144.0040 C   0  0  0  0  0  1  0  0  0  0  0  0
  184.8450  178.6950  146.0580 C   0  0  0  0  0  1  0  0  0  0  0  0
  183.5050  178.9480  145.7620 O   0  0  0  0  0  0  0  0  0  0  0  0
  191.7620  177.2310  140.2430 C   0  0  0  0  0  2  0  0  0  0  0  0
  192.1230  175.7480  136.7410 N   0  0  0  0  0  1  0  0  0  0  0  0
  192.4600  176.4390  137.9380 C   0  0  0  0  0  0  0  0  0  0  0  0
  191.4790  176.5910  138.9640 N   0  0  0  0  0  2  0  0  0  0  0  0
  193.6150  176.9190  138.0780 O   0  0  0  0  0  0  0  0  0  0  0  0
  1 11  1  0  0  0  0
  2 13  1  1  0  0  0
  2  9  1  0  0  0  0
  4 10  1  0  0  0  0
  5  1  2  0  0  0  0
  5  6  1  0  0  0  0
  6  7  2  0  0  0  0
  7  3  1  0  0  0  0
  8  2  1  0  0  0  0
  9  1  1  0  0  0  0
 10 14  1  0  0  0  0
 10 13  2  0  0  0  0
 11  3  2  0  0  0  0
 12  4  2  0  0  0  0
 12  8  1  0  0  0  0
 13  5  1  0  0  0  0
 15 16  1  0  0  0  0
 15 14  1  0  0  0  0
 16 17  1  0  0  0  0
 17 18  1  0  0  0  0
 18 19  1  6  0  0  0
 18 22  1  0  0  0  0
 19 20  1  0  0  0  0
 22 21  1  0  0  0  0
 23  8  1  0  0  0  0
 24 25  1  0  0  0  0
 25 27  2  0  0  0  0
 25 26  1  0  0  0  0
 26 23  1  0  0  0  0
M  END
>  <MODEL>
5

>  <REMARK>
 VINA RESULT:      -7.2      3.700      6.180
  Name = 
  9 active torsions:
  status: ('A' for Active; 'I' for Inactive)
    1  A    between atoms: C_4  and  C_26
    2  A    between atoms: C_8  and  C_13
    3  A    between atoms: C_8  and  C_26
    4  A    between atoms: C_10  and  C_16
    5  A    between atoms: C_10  and  N_17
    6  A    between atoms: C_13  and  N_17
    7  A    between atoms: N_14  and  C_22
    8  A    between atoms: N_21  and  C_22
    9  A    between atoms: C_26  and  O_27
                            x       y       z     vdW  Elec       q    Type
                         _______ _______ _______ _____ _____    ______ ____

>  <TORSDO>
F 9

$$$$
=
 OpenBabel11032419513D

 27 29  0  0  1  0  0  0  0  0999 V2000
  189.5250  177.2830  145.7480 C   0  0  0  0  0  0  0  0  0  0  0  0
  190.1160  178.0040  143.3890 C   0  0  2  0  0  3  0  0  0  0  0  0
  188.3160  177.2430  147.7950 N   0  0  0  0  0  0  0  0  0  0  0  0
  188.1990  177.8940  141.2690 C   0  0  0  0  0  3  0  0  0  0  0  0
  188.3850  177.6800  145.0820 C   0  0  0  0  0  0  0  0  0  0  0  0
  187.1840  177.8560  145.7730 C   0  0  0  0  0  3  0  0  0  0  0  0
  187.1740  177.6240  147.1540 C   0  0  0  0  0  3  0  0  0  0  0  0
  190.4500  177.5300  142.0400 N   0  0  0  0  0  0  0  0  0  0  0  0
  190.9740  177.0700  144.7210 S   0  0  0  0  0  0  0  0  0  0  0  0
  187.7330  177.9390  142.6680 C   0  0  0  0  0  0  0  0  0  0  0  0
  189.4910  177.0680  147.1260 C   0  0  0  0  0  3  0  0  0  0  0  0
  189.4870  177.6830  140.9850 C   0  0  0  0  0  3  0  0  0  0  0  0
  188.6390  177.9120  143.6640 C   0  0  0  0  0  0  0  0  0  0  0  0
  186.2590  177.9200  142.9180 C   0  0  0  0  0  2  0  0  0  0  0  0
  185.6020  178.9330  142.1070 N   0  0  0  0  0  2  0  0  0  0  0  0
  184.1990  178.5670  141.9990 C   0  0  0  0  0  2  0  0  0  0  0  0
  183.8810  178.1590  140.5710 C   0  0  0  0  0  2  0  0  0  0  0  0
  184.7960  178.8870  139.5960 C   0  0  1  0  0  3  0  0  0  0  0  0
  185.0310  178.0470  138.3420 C   0  0  0  0  0  2  0  0  0  0  0  0
  186.5030  177.9810  137.9630 C   0  0  0  0  0  1  0  0  0  0  0  0
  182.9500  179.8700  138.8630 C   0  0  0  0  0  1  0  0  0  0  0  0
  184.2620  180.1350  139.2590 O   0  0  0  0  0  0  0  0  0  0  0  0
  191.8400  177.2990  141.6700 C   0  0  0  0  0  2  0  0  0  0  0  0
  193.2470  176.7820  138.1570 N   0  0  0  0  0  1  0  0  0  0  0  0
  193.2150  176.9980  139.5620 C   0  0  0  0  0  0  0  0  0  0  0  0
  191.9590  177.1370  140.2260 N   0  0  0  0  0  2  0  0  0  0  0  0
  194.2950  177.0760  140.2060 O   0  0  0  0  0  0  0  0  0  0  0  0
  1 11  1  0  0  0  0
  2 13  1  1  0  0  0
  2  9  1  0  0  0  0
  4 10  1  0  0  0  0
  5  1  2  0  0  0  0
  5  6  1  0  0  0  0
  6  7  2  0  0  0  0
  7  3  1  0  0  0  0
  8  2  1  0  0  0  0
  9  1  1  0  0  0  0
 10 14  1  0  0  0  0
 10 13  2  0  0  0  0
 11  3  2  0  0  0  0
 12  4  2  0  0  0  0
 12  8  1  0  0  0  0
 13  5  1  0  0  0  0
 15 14  1  0  0  0  0
 16 15  1  0  0  0  0
 17 16  1  0  0  0  0
 18 19  1  6  0  0  0
 18 17  1  0  0  0  0
 20 19  1  0  0  0  0
 21 22  1  0  0  0  0
 22 18  1  0  0  0  0
 23  8  1  0  0  0  0
 24 25  1  0  0  0  0
 25 27  2  0  0  0  0
 25 26  1  0  0  0  0
 26 23  1  0  0  0  0
M  END
>  <MODEL>
6

>  <REMARK>
 VINA RESULT:      -7.1      2.984      6.975
  Name = 
  9 active torsions:
  status: ('A' for Active; 'I' for Inactive)
    1  A    between atoms: C_4  and  C_26
    2  A    between atoms: C_8  and  C_13
    3  A    between atoms: C_8  and  C_26
    4  A    between atoms: C_10  and  C_16
    5  A    between atoms: C_10  and  N_17
    6  A    between atoms: C_13  and  N_17
    7  A    between atoms: N_14  and  C_22
    8  A    between atoms: N_21  and  C_22
    9  A    between atoms: C_26  and  O_27
                            x       y       z     vdW  Elec       q    Type
                         _______ _______ _______ _____ _____    ______ ____

>  <TORSDO>
F 9

$$$$
=
 OpenBabel11032419513D

 27 29  0  0  1  0  0  0  0  0999 V2000
  186.8900  178.0300  146.3120 C   0  0  0  0  0  0  0  0  0  0  0  0
  184.9840  178.0620  144.6390 C   0  0  2  0  0  3  0  0  0  0  0  0
  188.9790  177.3910  147.2500 N   0  0  0  0  0  0  0  0  0  0  0  0
  185.4340  178.6320  141.8720 C   0  0  0  0  0  3  0  0  0  0  0  0
  187.3730  177.7570  145.0490 C   0  0  0  0  0  0  0  0  0  0  0  0
  188.6810  177.3010  144.8730 C   0  0  0  0  0  3  0  0  0  0  0  0
  189.4810  177.1250  146.0100 C   0  0  0  0  0  3  0  0  0  0  0  0
  184.0970  178.9270  143.8510 N   0  0  0  0  0  0  0  0  0  0  0  0
  185.2080  178.6360  146.3710 S   0  0  0  0  0  0  0  0  0  0  0  0
  186.5520  178.1530  142.7070 C   0  0  0  0  0  0  0  0  0  0  0  0
  187.7040  177.8380  147.4280 C   0  0  0  0  0  3  0  0  0  0  0  0
  184.2810  179.0110  142.4290 C   0  0  0  0  0  3  0  0  0  0  0  0
  186.3550  177.9610  144.0250 C   0  0  0  0  0  0  0  0  0  0  0  0
  187.8910  177.9890  142.0600 C   0  0  0  0  0  2  0  0  0  0  0  0
  187.8810  178.5860  140.7330 N   0  0  0  0  0  2  0  0  0  0  0  0
  188.7720  177.8020  139.8930 C   0  0  0  0  0  2  0  0  0  0  0  0
  189.6380  176.9030  140.7580 C   0  0  0  0  0  2  0  0  0  0  0  0
  191.0240  176.7550  140.1470 C   0  0  1  0  0  3  0  0  0  0  0  0
  190.9930  177.0640  138.6510 C   0  0  0  0  0  2  0  0  0  0  0  0
  191.5530  175.9200  137.8170 C   0  0  0  0  0  1  0  0  0  0  0  0
  191.6790  177.4090  142.1610 C   0  0  0  0  0  1  0  0  0  0  0  0
  191.9410  177.5840  140.8010 O   0  0  0  0  0  0  0  0  0  0  0  0
  182.8180  179.3580  144.4020 C   0  0  0  0  0  2  0  0  0  0  0  0
  179.6840  177.9970  142.6960 N   0  0  0  0  0  1  0  0  0  0  0  0
  180.6550  178.9290  143.1510 C   0  0  0  0  0  0  0  0  0  0  0  0
  181.7500  178.4760  143.9490 N   0  0  0  0  0  2  0  0  0  0  0  0
  180.5370  180.1480  142.8560 O   0  0  0  0  0  0  0  0  0  0  0  0
  1  9  1  0  0  0  0
  1 11  1  0  0  0  0
  2 13  1  6  0  0  0
  2  9  1  0  0  0  0
  3 11  2  0  0  0  0
  4 12  2  0  0  0  0
  4 10  1  0  0  0  0
  5  1  2  0  0  0  0
  6  5  1  0  0  0  0
  6  7  2  0  0  0  0
  7  3  1  0  0  0  0
  8 23  1  0  0  0  0
  8  2  1  0  0  0  0
 10 13  2  0  0  0  0
 12  8  1  0  0  0  0
 13  5  1  0  0  0  0
 14 10  1  0  0  0  0
 15 14  1  0  0  0  0
 16 15  1  0  0  0  0
 16 17  1  0  0  0  0
 18 19  1  6  0  0  0
 18 17  1  0  0  0  0
 18 22  1  0  0  0  0
 20 19  1  0  0  0  0
 22 21  1  0  0  0  0
 24 25  1  0  0  0  0
 25 26  1  0  0  0  0
 26 23  1  0  0  0  0
 27 25  2  0  0  0  0
M  END
>  <MODEL>
7

>  <REMARK>
 VINA RESULT:      -7.0      3.198      5.249
  Name = 
  9 active torsions:
  status: ('A' for Active; 'I' for Inactive)
    1  A    between atoms: C_4  and  C_26
    2  A    between atoms: C_8  and  C_13
    3  A    between atoms: C_8  and  C_26
    4  A    between atoms: C_10  and  C_16
    5  A    between atoms: C_10  and  N_17
    6  A    between atoms: C_13  and  N_17
    7  A    between atoms: N_14  and  C_22
    8  A    between atoms: N_21  and  C_22
    9  A    between atoms: C_26  and  O_27
                            x       y       z     vdW  Elec       q    Type
                         _______ _______ _______ _____ _____    ______ ____

>  <TORSDO>
F 9

$$$$
=
 OpenBabel11032419513D

 27 29  0  0  1  0  0  0  0  0999 V2000
  189.0910  177.9040  143.0960 C   0  0  0  0  0  0  0  0  0  0  0  0
  188.5040  177.2640  145.4790 C   0  0  2  0  0  3  0  0  0  0  0  0
  188.7990  178.1320  140.7470 N   0  0  0  0  0  0  0  0  0  0  0  0
  186.1050  178.1940  146.7280 C   0  0  0  0  0  3  0  0  0  0  0  0
  187.7250  177.9630  143.2720 C   0  0  0  0  0  0  0  0  0  0  0  0
  186.8730  178.1190  142.1760 C   0  0  0  0  0  3  0  0  0  0  0  0
  187.4450  178.2050  140.9000 C   0  0  0  0  0  3  0  0  0  0  0  0
  188.4630  177.7340  146.8700 N   0  0  0  0  0  0  0  0  0  0  0  0
  190.0480  177.7350  144.5970 S   0  0  0  0  0  0  0  0  0  0  0  0
  186.1940  178.1660  145.2560 C   0  0  0  0  0  0  0  0  0  0  0  0
  189.6340  177.9820  141.8130 C   0  0  0  0  0  3  0  0  0  0  0  0
  187.1930  178.0040  147.4810 C   0  0  0  0  0  3  0  0  0  0  0  0
  187.3530  177.8010  144.6730 C   0  0  0  0  0  0  0  0  0  0  0  0
  185.0110  178.6360  144.4720 C   0  0  0  0  0  2  0  0  0  0  0  0
  183.9190  178.9750  145.3720 N   0  0  0  0  0  2  0  0  0  0  0  0
  182.6950  178.9970  144.5880 C   0  0  0  0  0  2  0  0  0  0  0  0
  183.0280  178.8970  143.1090 C   0  0  0  0  0  2  0  0  0  0  0  0
  181.7670  179.0540  142.2710 C   0  0  1  0  0  3  0  0  0  0  0  0
  181.8620  178.2290  140.9890 C   0  0  0  0  0  2  0  0  0  0  0  0
  183.2720  177.7110  140.7430 C   0  0  0  0  0  1  0  0  0  0  0  0
  179.7170  179.7140  142.7940 C   0  0  0  0  0  1  0  0  0  0  0  0
  180.6370  178.6870  143.0100 O   0  0  0  0  0  0  0  0  0  0  0  0
  189.6140  177.5370  147.7410 C   0  0  0  0  0  2  0  0  0  0  0  0
  192.5310  175.1420  147.1560 N   0  0  0  0  0  1  0  0  0  0  0  0
  191.8060  176.2680  147.6330 C   0  0  0  0  0  0  0  0  0  0  0  0
  190.4420  176.4450  147.2470 N   0  0  0  0  0  2  0  0  0  0  0  0
  192.3750  177.1050  148.3820 O   0  0  0  0  0  0  0  0  0  0  0  0
  1  5  1  0  0  0  0
  1  9  1  0  0  0  0
  2  9  1  6  0  0  0
  2  8  1  0  0  0  0
  3  7  2  0  0  0  0
  3 11  1  0  0  0  0
  4 12  2  0  0  0  0
  5 13  1  0  0  0  0
  6  5  2  0  0  0  0
  7  6  1  0  0  0  0
  8 12  1  0  0  0  0
  8 23  1  0  0  0  0
 10  4  1  0  0  0  0
 11  1  2  0  0  0  0
 13 10  2  0  0  0  0
 13  2  1  0  0  0  0
 14 10  1  0  0  0  0
 14 15  1  0  0  0  0
 16 15  1  0  0  0  0
 17 16  1  0  0  0  0
 18 19  1  6  0  0  0
 18 22  1  0  0  0  0
 18 17  1  0  0  0  0
 20 19  1  0  0  0  0
 21 22  1  0  0  0  0
 24 25  1  0  0  0  0
 25 27  2  0  0  0  0
 26 25  1  0  0  0  0
 26 23  1  0  0  0  0
M  END
>  <MODEL>
8

>  <REMARK>
 VINA RESULT:      -6.9      2.934      8.450
  Name = 
  9 active torsions:
  status: ('A' for Active; 'I' for Inactive)
    1  A    between atoms: C_4  and  C_26
    2  A    between atoms: C_8  and  C_13
    3  A    between atoms: C_8  and  C_26
    4  A    between atoms: C_10  and  C_16
    5  A    between atoms: C_10  and  N_17
    6  A    between atoms: C_13  and  N_17
    7  A    between atoms: N_14  and  C_22
    8  A    between atoms: N_21  and  C_22
    9  A    between atoms: C_26  and  O_27
                            x       y       z     vdW  Elec       q    Type
                         _______ _______ _______ _____ _____    ______ ____

>  <TORSDO>
F 9

$$$$
=
 OpenBabel11032419513D

 27 29  0  0  1  0  0  0  0  0999 V2000
  180.8400  179.1460  141.5290 C   0  0  0  0  0  0  0  0  0  0  0  0
  183.1550  178.5070  140.7130 C   0  0  2  0  0  3  0  0  0  0  0  0
  178.9310  179.1370  142.9460 N   0  0  0  0  0  0  0  0  0  0  0  0
  185.4570  178.7700  142.3900 C   0  0  0  0  0  3  0  0  0  0  0  0
  181.6390  178.8140  142.6030 C   0  0  0  0  0  0  0  0  0  0  0  0
  181.0860  178.6480  143.8750 C   0  0  0  0  0  3  0  0  0  0  0  0
  179.7040  178.8200  144.0250 C   0  0  0  0  0  3  0  0  0  0  0  0
  184.4390  179.0280  140.2250 N   0  0  0  0  0  0  0  0  0  0  0  0
  181.6990  179.3550  139.9750 S   0  0  0  0  0  0  0  0  0  0  0  0
  184.1180  178.6800  143.0020 C   0  0  0  0  0  0  0  0  0  0  0  0
  179.4650  179.3020  141.7030 C   0  0  0  0  0  3  0  0  0  0  0  0
  185.5940  178.9510  141.0740 C   0  0  0  0  0  3  0  0  0  0  0  0
  183.0310  178.6350  142.2070 C   0  0  0  0  0  0  0  0  0  0  0  0
  184.0220  178.7360  144.4940 C   0  0  0  0  0  2  0  0  0  0  0  0
  185.1820  179.4220  145.0430 N   0  0  0  0  0  2  0  0  0  0  0  0
  185.6150  178.6810  146.2160 C   0  0  0  0  0  2  0  0  0  0  0  0
  186.4840  177.5090  145.7930 C   0  0  0  0  0  2  0  0  0  0  0  0
  187.9210  177.7260  146.2450 C   0  0  1  0  0  3  0  0  0  0  0  0
  188.1210  177.2270  147.6750 C   0  0  0  0  0  2  0  0  0  0  0  0
  188.9420  178.1980  148.5120 C   0  0  0  0  0  1  0  0  0  0  0  0
  188.1840  177.1250  144.1280 C   0  0  0  0  0  1  0  0  0  0  0  0
  188.8120  177.0900  145.3740 O   0  0  0  0  0  0  0  0  0  0  0  0
  184.6500  179.2290  138.7970 C   0  0  0  0  0  2  0  0  0  0  0  0
  187.3350  177.0470  137.1810 N   0  0  0  0  0  1  0  0  0  0  0  0
  186.0490  177.4970  137.5860 C   0  0  0  0  0  0  0  0  0  0  0  0
  185.9340  178.6700  138.3920 N   0  0  0  0  0  2  0  0  0  0  0  0
  185.0250  176.8520  137.2400 O   0  0  0  0  0  0  0  0  0  0  0  0
  1 11  2  0  0  0  0
  1  5  1  0  0  0  0
  2  9  1  6  0  0  0
  2 13  1  0  0  0  0
  3  7  2  0  0  0  0
  4 10  1  0  0  0  0
  5  6  2  0  0  0  0
  6  7  1  0  0  0  0
  8  2  1  0  0  0  0
  8 12  1  0  0  0  0
  9  1  1  0  0  0  0
 10 14  1  0  0  0  0
 11  3  1  0  0  0  0
 12  4  2  0  0  0  0
 13  5  1  0  0  0  0
 13 10  2  0  0  0  0
 14 15  1  0  0  0  0
 15 16  1  0  0  0  0
 17 16  1  0  0  0  0
 18 17  1  6  0  0  0
 18 19  1  0  0  0  0
 19 20  1  0  0  0  0
 21 22  1  0  0  0  0
 22 18  1  0  0  0  0
 23  8  1  0  0  0  0
 24 25  1  0  0  0  0
 25 26  1  0  0  0  0
 26 23  1  0  0  0  0
 27 25  2  0  0  0  0
M  END
>  <MODEL>
9

>  <REMARK>
 VINA RESULT:      -6.8      2.807      4.131
  Name = 
  9 active torsions:
  status: ('A' for Active; 'I' for Inactive)
    1  A    between atoms: C_4  and  C_26
    2  A    between atoms: C_8  and  C_13
    3  A    between atoms: C_8  and  C_26
    4  A    between atoms: C_10  and  C_16
    5  A    between atoms: C_10  and  N_17
    6  A    between atoms: C_13  and  N_17
    7  A    between atoms: N_14  and  C_22
    8  A    between atoms: N_21  and  C_22
    9  A    between atoms: C_26  and  O_27
                            x       y       z     vdW  Elec       q    Type
                         _______ _______ _______ _____ _____    ______ ____

>  <TORSDO>
F 9

$$$$
