=
 OpenBabel11042411233D

 57 62  0  0  1  0  0  0  0  0999 V2000
  190.5020  176.0490  138.3000 C   0  0  1  0  0  3  0  0  0  0  0  0
  190.2920  177.1490  137.2800 C   0  0  1  0  0  3  0  0  0  0  0  0
  191.6430  176.4340  137.3770 C   0  0  2  0  0  3  0  0  0  0  0  0
  193.8480  172.9400  135.3960 C   0  0  0  0  0  0  0  0  0  0  0  0
  191.6310  173.9880  136.8720 C   0  0  1  0  0  3  0  0  0  0  0  0
  190.4430  173.0790  136.6020 C   0  0  0  0  0  2  0  0  0  0  0  0
  192.6500  172.4200  135.5000 N   0  0  0  0  0  0  0  0  0  0  0  0
  194.1070  174.4290  135.4190 C   0  0  0  0  0  3  0  0  0  0  0  0
  191.4830  173.2750  135.5400 C   0  0  2  0  0  3  0  0  0  0  0  0
  191.8640  175.3650  136.3060 C   0  0  2  0  0  3  0  0  0  0  0  0
  193.2970  175.4490  135.8010 C   0  0  0  0  0  3  0  0  0  0  0  0
  194.9260  172.0600  135.2750 O   0  0  0  0  0  0  0  0  0  0  0  0
  194.7650  170.6980  134.9120 C   0  0  0  0  0  1  0  0  0  0  0  0
  191.2590  177.7220  142.2300 C   0  0  0  0  0  1  0  0  0  0  0  0
  189.9330  177.8290  141.6390 N   0  0  0  0  0  0  0  0  0  0  0  0
  189.6690  177.2700  140.3450 C   0  0  0  0  0  0  0  0  0  0  0  0
  190.7240  176.6470  139.6050 N   0  0  0  0  0  2  0  0  0  0  0  0
  188.5070  177.3240  139.8580 O   0  0  0  0  0  0  0  0  0  0  0  0
  188.8470  178.3740  142.4510 C   0  0  0  0  0  2  0  0  0  0  0  0
  188.5350  177.9440  144.8650 C   0  0  1  0  0  3  0  0  0  0  0  0
  188.3140  177.3700  143.4770 C   0  0  1  0  0  0  0  0  0  0  0  0
  186.8020  177.2580  143.3930 C   0  0  0  0  0  2  0  0  0  0  0  0
  188.9230  175.9850  143.2670 C   0  0  0  0  0  1  0  0  0  0  0  0
  187.1700  177.9020  145.5060 C   0  0  0  0  0  2  0  0  0  0  0  0
  186.2210  177.9420  144.4770 O   0  0  0  0  0  0  0  0  0  0  0  0
  191.8530  176.5990  146.0020 C   0  0  0  0  0  3  0  0  0  0  0  0
  189.2830  176.8860  147.0060 C   0  0  0  0  0  3  0  0  0  0  0  0
  191.5710  176.1640  147.3000 C   0  0  0  0  0  3  0  0  0  0  0  0
  190.8710  177.1550  145.2410 N   0  0  0  0  0  0  0  0  0  0  0  0
  190.2760  176.3130  147.8010 C   0  0  0  0  0  3  0  0  0  0  0  0
  189.5980  177.2970  145.7090 C   0  0  0  0  0  0  0  0  0  0  0  0
  189.4520  176.6380  136.2030 N   0  0  0  0  0  2  0  0  0  0  0  0
  188.0860  177.0270  136.5000 C   0  0  1  0  0  3  0  0  0  0  0  0
  187.9530  178.5340  136.3860 C   0  0  0  0  0  1  0  0  0  0  0  0
  187.1480  176.3250  135.5240 C   0  0  0  0  0  2  0  0  0  0  0  0
  184.3580  174.9460  137.4340 O   0  0  0  0  0  0  0  0  0  0  0  0
  186.3100  175.3470  136.2120 N   0  0  0  0  0  0  0  0  0  0  0  0
  184.9930  175.7130  136.6600 C   0  0  0  0  0  0  0  0  0  0  0  0
  183.5970  176.8260  135.0840 O   0  0  0  0  0  1  0  0  0  0  0  0
  184.3690  177.0090  136.2340 C   0  0  1  0  0  3  0  0  0  0  0  0
  181.0500  179.4380  140.6980 Cl  0  0  0  0  0  0  0  0  0  0  0  0
  182.1600  177.4830  137.3290 C   0  0  0  0  0  3  0  0  0  0  0  0
  184.1800  178.3260  138.3680 C   0  0  0  0  0  0  0  0  0  0  0  0
  182.0120  178.7350  139.3990 C   0  0  0  0  0  0  0  0  0  0  0  0
  185.5280  178.4790  138.3350 F   0  0  0  0  0  0  0  0  0  0  0  0
  183.5510  177.6220  137.3300 C   0  0  0  0  0  0  0  0  0  0  0  0
  183.4120  178.8760  139.4210 C   0  0  0  0  0  0  0  0  0  0  0  0
  181.3880  178.0400  138.3490 C   0  0  0  0  0  0  0  0  0  0  0  0
  185.2050  179.1920  141.1380 C   0  0  0  0  0  1  0  0  0  0  0  0
  183.9890  179.5640  140.5010 O   0  0  0  0  0  0  0  0  0  0  0  0
  179.9040  177.8660  138.3030 C   0  0  0  0  0  2  0  0  0  0  0  0
  178.9910  176.6470  140.6750 C   0  0  0  0  0  1  0  0  0  0  0  0
  179.4350  176.2600  138.9760 S   0  0  2  0  0  0  0  0  0  0  0  0
  180.7640  175.5310  139.1240 O   0  0  0  0  0  0  0  0  0  0  0  0
  186.8610  174.0200  136.4850 C   0  0  0  0  0  2  0  0  0  0  0  0
  186.7880  173.1400  135.2480 C   0  0  0  0  0  2  0  0  0  0  0  0
  187.1590  171.7770  135.5830 N   0  0  0  0  0  1  0  0  0  0  0  0
  1 17  1  1  0  0  0
  2 32  1  6  0  0  0
  2  3  1  0  0  0  0
  2  1  1  0  0  0  0
  3 10  1  6  0  0  0
  3  1  1  0  0  0  0
  4  8  1  0  0  0  0
  4  7  2  0  0  0  0
  5  6  1  1  0  0  0
  7  9  1  0  0  0  0
  8 11  2  0  0  0  0
  9  6  1  1  0  0  0
  9  5  1  0  0  0  0
 10 11  1  1  0  0  0
 10  5  1  0  0  0  0
 12  4  1  0  0  0  0
 13 12  1  0  0  0  0
 15 14  1  0  0  0  0
 15 19  1  0  0  0  0
 16 15  1  0  0  0  0
 17 16  1  0  0  0  0
 18 16  2  0  0  0  0
 19 21  1  0  0  0  0
 20 24  1  0  0  0  0
 20 31  1  1  0  0  0
 21 23  1  6  0  0  0
 21 20  1  0  0  0  0
 22 21  1  0  0  0  0
 22 25  1  0  0  0  0
 25 24  1  0  0  0  0
 26 28  1  0  0  0  0
 27 30  1  0  0  0  0
 28 30  2  0  0  0  0
 29 31  1  0  0  0  0
 29 26  2  0  0  0  0
 31 27  2  0  0  0  0
 32 33  1  0  0  0  0
 33 34  1  6  0  0  0
 35 37  1  0  0  0  0
 35 33  1  0  0  0  0
 37 55  1  0  0  0  0
 37 38  1  0  0  0  0
 38 36  2  0  0  0  0
 40 39  1  6  0  0  0
 40 38  1  0  0  0  0
 40 46  1  0  0  0  0
 42 46  2  0  0  0  0
 42 48  1  0  0  0  0
 43 47  2  0  0  0  0
 44 47  1  0  0  0  0
 44 41  1  0  0  0  0
 45 43  1  0  0  0  0
 46 43  1  0  0  0  0
 47 50  1  0  0  0  0
 48 44  2  0  0  0  0
 50 49  1  0  0  0  0
 51 48  1  0  0  0  0
 51 53  1  0  0  0  0
 53 54  2  0  0  0  0
 53 52  1  1  0  0  0
 56 57  1  0  0  0  0
 56 55  1  0  0  0  0
M  END
>  <MODEL>
1

>  <REMARK>
 VINA RESULT:      -7.2      0.000      0.000
  Name = 
  17 active torsions:
  status: ('A' for Active; 'I' for Inactive)
    1  A    between atoms: C_5  and  O_8
    2  A    between atoms: N_7  and  C_11
    3  A    between atoms: C_11  and  C_30
    4  A    between atoms: C_12  and  N_47
    5  A    between atoms: C_12  and  C_55
    6  A    between atoms: C_14  and  C_24
    7  A    between atoms: C_14  and  C_35
    8  A    between atoms: N_16  and  C_44
    9  A    between atoms: N_16  and  C_55
   10  A    between atoms: C_19  and  C_57
   11  A    between atoms: C_22  and  N_41
   12  A    between atoms: C_33  and  C_44
   13  A    between atoms: S_34  and  C_43
   14  A    between atoms: C_38  and  N_47
   15  A    between atoms: C_39  and  O_48
   16  A    between atoms: C_43  and  C_45
   17  A    between atoms: C_50  and  C_52
                            x       y       z     vdW  Elec       q    Type
                         _______ _______ _______ _____ _____    ______ ____

>  <TORSDO>
F 17

$$$$
=
 OpenBabel11042411233D

 57 62  0  0  1  0  0  0  0  0999 V2000
  190.6610  176.3250  139.6300 C   0  0  1  0  0  3  0  0  0  0  0  0
  190.3590  177.6650  138.9920 C   0  0  1  0  0  3  0  0  0  0  0  0
  191.7300  177.0090  138.8000 C   0  0  2  0  0  3  0  0  0  0  0  0
  193.9520  174.4580  135.7110 C   0  0  0  0  0  0  0  0  0  0  0  0
  191.8470  174.8140  137.6160 C   0  0  1  0  0  3  0  0  0  0  0  0
  190.7080  173.8960  137.2030 C   0  0  0  0  0  2  0  0  0  0  0  0
  192.8170  173.8070  135.7670 N   0  0  0  0  0  0  0  0  0  0  0  0
  194.0990  175.9010  136.1380 C   0  0  0  0  0  3  0  0  0  0  0  0
  191.6020  174.4880  136.1540 C   0  0  2  0  0  3  0  0  0  0  0  0
  191.9070  176.3100  137.4520 C   0  0  2  0  0  3  0  0  0  0  0  0
  193.2620  176.6830  136.8680 C   0  0  0  0  0  3  0  0  0  0  0  0
  195.0730  173.7660  135.2470 O   0  0  0  0  0  0  0  0  0  0  0  0
  196.3600  174.3580  135.1700 C   0  0  0  0  0  1  0  0  0  0  0  0
  191.6630  176.8540  143.8170 C   0  0  0  0  0  1  0  0  0  0  0  0
  190.2910  176.5570  143.4320 N   0  0  0  0  0  0  0  0  0  0  0  0
  189.9510  176.3700  142.0510 C   0  0  0  0  0  0  0  0  0  0  0  0
  190.9510  176.5240  141.0390 N   0  0  0  0  0  2  0  0  0  0  0  0
  188.7710  176.0660  141.7260 O   0  0  0  0  0  0  0  0  0  0  0  0
  189.3090  176.3010  144.4830 C   0  0  0  0  0  2  0  0  0  0  0  0
  187.2640  177.3010  145.4460 C   0  0  1  0  0  3  0  0  0  0  0  0
  188.7030  177.5860  145.0530 C   0  0  1  0  0  0  0  0  0  0  0  0
  189.3500  177.9520  146.3780 C   0  0  0  0  0  2  0  0  0  0  0  0
  188.8690  178.7560  144.0840 C   0  0  0  0  0  1  0  0  0  0  0  0
  187.1810  177.7320  146.8890 C   0  0  0  0  0  2  0  0  0  0  0  0
  188.4700  177.6410  147.4300 O   0  0  0  0  0  0  0  0  0  0  0  0
  185.1150  178.1310  142.4790 C   0  0  0  0  0  3  0  0  0  0  0  0
  185.2470  178.7570  145.1780 C   0  0  0  0  0  3  0  0  0  0  0  0
  184.1620  178.9910  143.0310 C   0  0  0  0  0  3  0  0  0  0  0  0
  186.0980  177.6110  143.2620 N   0  0  0  0  0  0  0  0  0  0  0  0
  184.2310  179.3020  144.3910 C   0  0  0  0  0  3  0  0  0  0  0  0
  186.1900  177.9120  144.5900 C   0  0  0  0  0  0  0  0  0  0  0  0
  189.4640  177.4560  137.8600 N   0  0  0  0  0  2  0  0  0  0  0  0
  188.1300  177.2600  138.3950 C   0  0  1  0  0  3  0  0  0  0  0  0
  187.8320  178.3370  139.4210 C   0  0  0  0  0  1  0  0  0  0  0  0
  187.1240  177.3100  137.2500 C   0  0  0  0  0  2  0  0  0  0  0  0
  184.5610  174.7100  137.2680 O   0  0  0  0  0  0  0  0  0  0  0  0
  186.4910  176.0100  137.0490 N   0  0  0  0  0  0  0  0  0  0  0  0
  185.0720  175.8620  137.2320 C   0  0  0  0  0  0  0  0  0  0  0  0
  183.7930  177.5570  136.1560 O   0  0  0  0  0  1  0  0  0  0  0  0
  184.1900  177.0640  137.4010 C   0  0  1  0  0  3  0  0  0  0  0  0
  179.3950  175.8110  140.9060 Cl  0  0  0  0  0  0  0  0  0  0  0  0
  182.2300  175.6220  138.0190 C   0  0  0  0  0  3  0  0  0  0  0  0
  182.6580  177.6240  139.3150 C   0  0  0  0  0  0  0  0  0  0  0  0
  180.7860  176.1760  139.8850 C   0  0  0  0  0  0  0  0  0  0  0  0
  183.3960  178.7460  139.5130 F   0  0  0  0  0  0  0  0  0  0  0  0
  182.9980  176.7660  138.2600 C   0  0  0  0  0  0  0  0  0  0  0  0
  181.5540  177.3250  140.1480 C   0  0  0  0  0  0  0  0  0  0  0  0
  181.1240  175.3270  138.8180 C   0  0  0  0  0  0  0  0  0  0  0  0
  180.6670  179.4500  141.1250 C   0  0  0  0  0  1  0  0  0  0  0  0
  181.1850  178.1310  141.2360 O   0  0  0  0  0  0  0  0  0  0  0  0
  180.3330  174.0940  138.5200 C   0  0  0  0  0  2  0  0  0  0  0  0
  178.9330  172.6080  136.5760 C   0  0  0  0  0  1  0  0  0  0  0  0
  180.2720  173.7960  136.7430 S   0  0  2  0  0  0  0  0  0  0  0  0
  181.5140  172.9570  136.4770 O   0  0  0  0  0  0  0  0  0  0  0  0
  187.3350  174.8620  136.7210 C   0  0  0  0  0  2  0  0  0  0  0  0
  187.1150  174.4230  135.2820 C   0  0  0  0  0  2  0  0  0  0  0  0
  187.9950  173.3140  134.9580 N   0  0  0  0  0  1  0  0  0  0  0  0
  1 17  1  1  0  0  0
  2 32  1  6  0  0  0
  2  1  1  0  0  0  0
  3 10  1  6  0  0  0
  3  2  1  0  0  0  0
  3  1  1  0  0  0  0
  4  7  2  0  0  0  0
  4  8  1  0  0  0  0
  5  6  1  1  0  0  0
  7  9  1  0  0  0  0
  8 11  2  0  0  0  0
  9  6  1  1  0  0  0
  9  5  1  0  0  0  0
 10 11  1  1  0  0  0
 10  5  1  0  0  0  0
 12  4  1  0  0  0  0
 13 12  1  0  0  0  0
 15 14  1  0  0  0  0
 15 19  1  0  0  0  0
 16 15  1  0  0  0  0
 17 16  1  0  0  0  0
 18 16  2  0  0  0  0
 19 21  1  0  0  0  0
 20 31  1  6  0  0  0
 20 24  1  0  0  0  0
 21 23  1  6  0  0  0
 21 20  1  0  0  0  0
 21 22  1  0  0  0  0
 22 25  1  0  0  0  0
 24 25  1  0  0  0  0
 26 28  2  0  0  0  0
 26 29  1  0  0  0  0
 28 30  1  0  0  0  0
 29 31  2  0  0  0  0
 30 27  2  0  0  0  0
 31 27  1  0  0  0  0
 32 33  1  0  0  0  0
 33 34  1  1  0  0  0
 35 33  1  0  0  0  0
 37 38  1  0  0  0  0
 37 35  1  0  0  0  0
 38 36  2  0  0  0  0
 38 40  1  0  0  0  0
 40 39  1  6  0  0  0
 40 46  1  0  0  0  0
 42 46  2  0  0  0  0
 42 48  1  0  0  0  0
 43 45  1  0  0  0  0
 43 47  2  0  0  0  0
 44 47  1  0  0  0  0
 44 41  1  0  0  0  0
 46 43  1  0  0  0  0
 47 50  1  0  0  0  0
 48 44  2  0  0  0  0
 49 50  1  0  0  0  0
 51 48  1  0  0  0  0
 53 52  1  1  0  0  0
 53 51  1  0  0  0  0
 54 53  2  0  0  0  0
 55 37  1  0  0  0  0
 56 55  1  0  0  0  0
 57 56  1  0  0  0  0
M  END
>  <MODEL>
2

>  <REMARK>
 VINA RESULT:      -6.8      2.125      3.154
  Name = 
  17 active torsions:
  status: ('A' for Active; 'I' for Inactive)
    1  A    between atoms: C_5  and  O_8
    2  A    between atoms: N_7  and  C_11
    3  A    between atoms: C_11  and  C_30
    4  A    between atoms: C_12  and  N_47
    5  A    between atoms: C_12  and  C_55
    6  A    between atoms: C_14  and  C_24
    7  A    between atoms: C_14  and  C_35
    8  A    between atoms: N_16  and  C_44
    9  A    between atoms: N_16  and  C_55
   10  A    between atoms: C_19  and  C_57
   11  A    between atoms: C_22  and  N_41
   12  A    between atoms: C_33  and  C_44
   13  A    between atoms: S_34  and  C_43
   14  A    between atoms: C_38  and  N_47
   15  A    between atoms: C_39  and  O_48
   16  A    between atoms: C_43  and  C_45
   17  A    between atoms: C_50  and  C_52
                            x       y       z     vdW  Elec       q    Type
                         _______ _______ _______ _____ _____    ______ ____

>  <TORSDO>
F 17

$$$$
=
 OpenBabel11042411233D

 57 62  0  0  1  0  0  0  0  0999 V2000
  190.7230  176.3470  139.5600 C   0  0  1  0  0  3  0  0  0  0  0  0
  190.3190  177.6130  138.8320 C   0  0  1  0  0  3  0  0  0  0  0  0
  191.7220  177.0260  138.6420 C   0  0  2  0  0  3  0  0  0  0  0  0
  193.9230  174.2290  135.7580 C   0  0  0  0  0  0  0  0  0  0  0  0
  191.8040  174.7550  137.6080 C   0  0  1  0  0  3  0  0  0  0  0  0
  190.6500  173.8350  137.2420 C   0  0  0  0  0  2  0  0  0  0  0  0
  192.7730  173.6070  135.8420 N   0  0  0  0  0  0  0  0  0  0  0  0
  194.0950  175.6940  136.0900 C   0  0  0  0  0  3  0  0  0  0  0  0
  191.5680  174.3370  136.1680 C   0  0  2  0  0  3  0  0  0  0  0  0
  191.8990  176.2350  137.3450 C   0  0  2  0  0  3  0  0  0  0  0  0
  193.2680  176.5400  136.7550 C   0  0  0  0  0  3  0  0  0  0  0  0
  195.0340  173.4840  135.3540 O   0  0  0  0  0  0  0  0  0  0  0  0
  195.0720  172.0680  135.4260 C   0  0  0  0  0  1  0  0  0  0  0  0
  191.8280  177.2780  143.6500 C   0  0  0  0  0  1  0  0  0  0  0  0
  190.5120  176.7260  143.3620 N   0  0  0  0  0  0  0  0  0  0  0  0
  190.1400  176.4050  142.0140 C   0  0  0  0  0  0  0  0  0  0  0  0
  191.0450  176.6730  140.9380 N   0  0  0  0  0  2  0  0  0  0  0  0
  189.0180  175.8820  141.7750 O   0  0  0  0  0  0  0  0  0  0  0  0
  189.6460  176.3630  144.4810 C   0  0  0  0  0  2  0  0  0  0  0  0
  187.5240  177.2320  145.4030 C   0  0  1  0  0  3  0  0  0  0  0  0
  188.9770  177.5770  145.1310 C   0  0  1  0  0  0  0  0  0  0  0  0
  189.5330  177.8240  146.5230 C   0  0  0  0  0  2  0  0  0  0  0  0
  189.1770  178.8370  144.2910 C   0  0  0  0  0  1  0  0  0  0  0  0
  187.3420  177.5200  146.8720 C   0  0  0  0  0  2  0  0  0  0  0  0
  188.5970  177.3990  147.4830 O   0  0  0  0  0  0  0  0  0  0  0  0
  185.5090  178.2660  142.4060 C   0  0  0  0  0  3  0  0  0  0  0  0
  185.5290  178.7200  145.1420 C   0  0  0  0  0  3  0  0  0  0  0  0
  184.5380  179.0980  142.9700 C   0  0  0  0  0  3  0  0  0  0  0  0
  186.4540  177.6890  143.1960 N   0  0  0  0  0  0  0  0  0  0  0  0
  184.5520  179.3220  144.3490 C   0  0  0  0  0  3  0  0  0  0  0  0
  186.4910  177.9050  144.5420 C   0  0  0  0  0  0  0  0  0  0  0  0
  189.4040  177.2640  137.7530 N   0  0  0  0  0  2  0  0  0  0  0  0
  188.0840  177.1150  138.3370 C   0  0  1  0  0  3  0  0  0  0  0  0
  187.8490  178.2230  139.3460 C   0  0  0  0  0  1  0  0  0  0  0  0
  187.0410  177.1640  137.2260 C   0  0  0  0  0  2  0  0  0  0  0  0
  184.3390  174.7100  137.2260 O   0  0  0  0  0  0  0  0  0  0  0  0
  186.3560  175.8830  137.0910 N   0  0  0  0  0  0  0  0  0  0  0  0
  184.9190  175.8250  137.1290 C   0  0  0  0  0  0  0  0  0  0  0  0
  183.8210  177.4250  135.7500 O   0  0  0  0  0  1  0  0  0  0  0  0
  184.0980  177.0790  137.0740 C   0  0  1  0  0  3  0  0  0  0  0  0
  178.9560  176.6230  140.2680 Cl  0  0  0  0  0  0  0  0  0  0  0  0
  182.7070  177.6060  139.0960 C   0  0  0  0  0  3  0  0  0  0  0  0
  181.7640  176.1900  137.3710 C   0  0  0  0  0  0  0  0  0  0  0  0
  180.4520  176.7540  139.3430 C   0  0  0  0  0  0  0  0  0  0  0  0
  181.9160  175.5370  136.1910 F   0  0  0  0  0  0  0  0  0  0  0  0
  182.8320  176.9530  137.8660 C   0  0  0  0  0  0  0  0  0  0  0  0
  180.5560  176.0980  138.1020 C   0  0  0  0  0  0  0  0  0  0  0  0
  181.5300  177.5050  139.8390 C   0  0  0  0  0  0  0  0  0  0  0  0
  179.3480  173.9560  137.6400 C   0  0  0  0  0  1  0  0  0  0  0  0
  179.4450  175.3750  137.6410 O   0  0  0  0  0  0  0  0  0  0  0  0
  181.4450  178.2200  141.1490 C   0  0  0  0  0  2  0  0  0  0  0  0
  180.6470  180.5440  139.7680 C   0  0  0  0  0  1  0  0  0  0  0  0
  180.1360  179.4590  141.1080 S   0  0  2  0  0  0  0  0  0  0  0  0
  180.3970  180.2990  142.3510 O   0  0  0  0  0  0  0  0  0  0  0  0
  187.1590  174.6660  136.9780 C   0  0  0  0  0  2  0  0  0  0  0  0
  187.4820  174.3640  135.5230 C   0  0  0  0  0  2  0  0  0  0  0  0
  187.5890  172.9300  135.3230 N   0  0  0  0  0  1  0  0  0  0  0  0
  1 17  1  1  0  0  0
  2 32  1  6  0  0  0
  2  1  1  0  0  0  0
  3 10  1  6  0  0  0
  3  2  1  0  0  0  0
  3  1  1  0  0  0  0
  4  7  2  0  0  0  0
  4  8  1  0  0  0  0
  5  6  1  1  0  0  0
  7  9  1  0  0  0  0
  8 11  2  0  0  0  0
  9  6  1  1  0  0  0
  9  5  1  0  0  0  0
 10 11  1  1  0  0  0
 10  5  1  0  0  0  0
 12 13  1  0  0  0  0
 12  4  1  0  0  0  0
 15 14  1  0  0  0  0
 15 19  1  0  0  0  0
 16 15  1  0  0  0  0
 17 16  1  0  0  0  0
 18 16  2  0  0  0  0
 19 21  1  0  0  0  0
 20 31  1  6  0  0  0
 20 24  1  0  0  0  0
 21 23  1  6  0  0  0
 21 20  1  0  0  0  0
 21 22  1  0  0  0  0
 22 25  1  0  0  0  0
 24 25  1  0  0  0  0
 26 28  2  0  0  0  0
 26 29  1  0  0  0  0
 28 30  1  0  0  0  0
 29 31  2  0  0  0  0
 30 27  2  0  0  0  0
 31 27  1  0  0  0  0
 32 33  1  0  0  0  0
 33 34  1  1  0  0  0
 35 33  1  0  0  0  0
 37 38  1  0  0  0  0
 37 35  1  0  0  0  0
 38 36  2  0  0  0  0
 40 39  1  6  0  0  0
 40 38  1  0  0  0  0
 40 46  1  0  0  0  0
 42 48  1  0  0  0  0
 43 46  1  0  0  0  0
 43 47  2  0  0  0  0
 44 48  2  0  0  0  0
 44 41  1  0  0  0  0
 45 43  1  0  0  0  0
 46 42  2  0  0  0  0
 47 44  1  0  0  0  0
 48 51  1  0  0  0  0
 49 50  1  0  0  0  0
 50 47  1  0  0  0  0
 53 52  1  6  0  0  0
 53 51  1  0  0  0  0
 53 54  2  0  0  0  0
 55 37  1  0  0  0  0
 56 55  1  0  0  0  0
 57 56  1  0  0  0  0
M  END
>  <MODEL>
3

>  <REMARK>
 VINA RESULT:      -6.8      1.993      3.373
  Name = 
  17 active torsions:
  status: ('A' for Active; 'I' for Inactive)
    1  A    between atoms: C_5  and  O_8
    2  A    between atoms: N_7  and  C_11
    3  A    between atoms: C_11  and  C_30
    4  A    between atoms: C_12  and  N_47
    5  A    between atoms: C_12  and  C_55
    6  A    between atoms: C_14  and  C_24
    7  A    between atoms: C_14  and  C_35
    8  A    between atoms: N_16  and  C_44
    9  A    between atoms: N_16  and  C_55
   10  A    between atoms: C_19  and  C_57
   11  A    between atoms: C_22  and  N_41
   12  A    between atoms: C_33  and  C_44
   13  A    between atoms: S_34  and  C_43
   14  A    between atoms: C_38  and  N_47
   15  A    between atoms: C_39  and  O_48
   16  A    between atoms: C_43  and  C_45
   17  A    between atoms: C_50  and  C_52
                            x       y       z     vdW  Elec       q    Type
                         _______ _______ _______ _____ _____    ______ ____

>  <TORSDO>
F 17

$$$$
=
 OpenBabel11042411233D

 57 62  0  0  1  0  0  0  0  0999 V2000
  188.0740  175.5200  136.6140 C   0  0  1  0  0  3  0  0  0  0  0  0
  188.8270  175.7430  137.9090 C   0  0  1  0  0  3  0  0  0  0  0  0
  188.9430  174.4070  137.1690 C   0  0  2  0  0  3  0  0  0  0  0  0
  193.2590  173.0600  136.4340 C   0  0  0  0  0  0  0  0  0  0  0  0
  190.4460  172.8130  135.9720 C   0  0  1  0  0  3  0  0  0  0  0  0
  190.2700  172.1920  134.5960 C   0  0  0  0  0  2  0  0  0  0  0  0
  192.6730  172.5110  135.4000 N   0  0  0  0  0  0  0  0  0  0  0  0
  192.6700  174.2250  137.1960 C   0  0  0  0  0  3  0  0  0  0  0  0
  191.4520  173.0750  134.8660 C   0  0  2  0  0  3  0  0  0  0  0  0
  190.2250  174.2540  136.3500 C   0  0  2  0  0  3  0  0  0  0  0  0
  191.4090  174.7300  137.1780 C   0  0  0  0  0  3  0  0  0  0  0  0
  194.4800  172.5210  136.8470 O   0  0  0  0  0  0  0  0  0  0  0  0
  195.1930  171.5650  136.0790 C   0  0  0  0  0  1  0  0  0  0  0  0
  183.9350  174.5290  137.4520 C   0  0  0  0  0  1  0  0  0  0  0  0
  184.2980  175.8960  137.1090 N   0  0  0  0  0  0  0  0  0  0  0  0
  185.6620  176.2320  136.8190 C   0  0  0  0  0  0  0  0  0  0  0  0
  186.6820  175.2340  136.9160 N   0  0  0  0  0  2  0  0  0  0  0  0
  185.9650  177.4070  136.4750 O   0  0  0  0  0  0  0  0  0  0  0  0
  183.2310  176.8750  136.9120 C   0  0  0  0  0  2  0  0  0  0  0  0
  181.3360  177.9420  138.0850 C   0  0  1  0  0  3  0  0  0  0  0  0
  182.7960  177.5460  138.2170 C   0  0  1  0  0  0  0  0  0  0  0  0
  182.7740  176.5480  139.3620 C   0  0  0  0  0  2  0  0  0  0  0  0
  183.7270  178.6980  138.5860 C   0  0  0  0  0  1  0  0  0  0  0  0
  180.6700  177.3090  139.2820 C   0  0  0  0  0  2  0  0  0  0  0  0
  181.4420  176.2030  139.6570 O   0  0  0  0  0  0  0  0  0  0  0  0
  180.6340  181.5240  138.9700 C   0  0  0  0  0  3  0  0  0  0  0  0
  180.9740  179.9860  136.6870 C   0  0  0  0  0  3  0  0  0  0  0  0
  180.5510  182.1320  137.7150 C   0  0  0  0  0  3  0  0  0  0  0  0
  180.8760  180.1890  139.0660 N   0  0  0  0  0  0  0  0  0  0  0  0
  180.7250  181.3540  136.5680 C   0  0  0  0  0  3  0  0  0  0  0  0
  181.0360  179.4100  137.9570 C   0  0  0  0  0  0  0  0  0  0  0  0
  189.9500  176.6370  137.6530 N   0  0  0  0  0  2  0  0  0  0  0  0
  189.9530  177.6400  138.7010 C   0  0  1  0  0  3  0  0  0  0  0  0
  188.8990  178.6890  138.4000 C   0  0  0  0  0  1  0  0  0  0  0  0
  189.6750  176.9600  140.0380 C   0  0  0  0  0  2  0  0  0  0  0  0
  191.2200  177.5270  143.2970 O   0  0  0  0  0  0  0  0  0  0  0  0
  190.6800  177.3250  141.0310 N   0  0  0  0  0  0  0  0  0  0  0  0
  190.4610  177.0280  142.4220 C   0  0  0  0  0  0  0  0  0  0  0  0
  189.8070  174.9130  143.2980 O   0  0  0  0  0  1  0  0  0  0  0  0
  189.3260  176.1450  142.8500 C   0  0  1  0  0  3  0  0  0  0  0  0
  185.8450  178.7380  147.0920 Cl  0  0  0  0  0  0  0  0  0  0  0  0
  187.2160  177.3040  143.5620 C   0  0  0  0  0  3  0  0  0  0  0  0
  188.9340  176.8890  145.2200 C   0  0  0  0  0  0  0  0  0  0  0  0
  186.8570  177.9880  145.8580 C   0  0  0  0  0  0  0  0  0  0  0  0
  190.1710  176.4210  145.5200 F   0  0  0  0  0  0  0  0  0  0  0  0
  188.4760  176.7970  143.8970 C   0  0  0  0  0  0  0  0  0  0  0  0
  188.1170  177.4740  146.2160 C   0  0  0  0  0  0  0  0  0  0  0  0
  186.4100  177.9040  144.5290 C   0  0  0  0  0  0  0  0  0  0  0  0
  189.8310  177.8610  147.9970 C   0  0  0  0  0  1  0  0  0  0  0  0
  188.5110  177.5660  147.5610 O   0  0  0  0  0  0  0  0  0  0  0  0
  185.0720  178.4330  144.1210 C   0  0  0  0  0  2  0  0  0  0  0  0
  185.7560  179.3090  141.5310 C   0  0  0  0  0  1  0  0  0  0  0  0
  184.7570  178.0790  142.3810 S   0  0  2  0  0  0  0  0  0  0  0  0
  183.3360  178.5790  142.1650 O   0  0  0  0  0  0  0  0  0  0  0  0
  191.8730  178.0460  140.5900 C   0  0  0  0  0  2  0  0  0  0  0  0
  193.0590  177.1020  140.4640 C   0  0  0  0  0  2  0  0  0  0  0  0
  193.5730  177.1270  139.1060 N   0  0  0  0  0  1  0  0  0  0  0  0
  1 17  1  1  0  0  0
  1  3  1  0  0  0  0
  1  2  1  0  0  0  0
  2 32  1  6  0  0  0
  3 10  1  6  0  0  0
  3  2  1  0  0  0  0
  4 12  1  0  0  0  0
  4  8  1  0  0  0  0
  5  6  1  6  0  0  0
  5 10  1  0  0  0  0
  7  4  2  0  0  0  0
  9  6  1  6  0  0  0
  9  7  1  0  0  0  0
  9  5  1  0  0  0  0
 10 11  1  1  0  0  0
 11  8  2  0  0  0  0
 13 12  1  0  0  0  0
 15 14  1  0  0  0  0
 16 17  1  0  0  0  0
 16 15  1  0  0  0  0
 18 16  2  0  0  0  0
 19 15  1  0  0  0  0
 19 21  1  0  0  0  0
 20 31  1  1  0  0  0
 20 21  1  0  0  0  0
 20 24  1  0  0  0  0
 21 23  1  1  0  0  0
 21 22  1  0  0  0  0
 22 25  1  0  0  0  0
 24 25  1  0  0  0  0
 26 29  1  0  0  0  0
 27 31  1  0  0  0  0
 28 26  2  0  0  0  0
 30 27  2  0  0  0  0
 30 28  1  0  0  0  0
 31 29  2  0  0  0  0
 32 33  1  0  0  0  0
 33 34  1  6  0  0  0
 33 35  1  0  0  0  0
 35 37  1  0  0  0  0
 37 38  1  0  0  0  0
 38 40  1  0  0  0  0
 38 36  2  0  0  0  0
 40 39  1  1  0  0  0
 40 46  1  0  0  0  0
 42 46  2  0  0  0  0
 42 48  1  0  0  0  0
 43 45  1  0  0  0  0
 43 47  2  0  0  0  0
 44 47  1  0  0  0  0
 44 41  1  0  0  0  0
 46 43  1  0  0  0  0
 47 50  1  0  0  0  0
 48 44  2  0  0  0  0
 50 49  1  0  0  0  0
 51 48  1  0  0  0  0
 53 52  1  6  0  0  0
 53 51  1  0  0  0  0
 54 53  2  0  0  0  0
 55 37  1  0  0  0  0
 56 55  1  0  0  0  0
 57 56  1  0  0  0  0
M  END
>  <MODEL>
4

>  <REMARK>
 VINA RESULT:      -6.2      2.809      7.711
  Name = 
  17 active torsions:
  status: ('A' for Active; 'I' for Inactive)
    1  A    between atoms: C_5  and  O_8
    2  A    between atoms: N_7  and  C_11
    3  A    between atoms: C_11  and  C_30
    4  A    between atoms: C_12  and  N_47
    5  A    between atoms: C_12  and  C_55
    6  A    between atoms: C_14  and  C_24
    7  A    between atoms: C_14  and  C_35
    8  A    between atoms: N_16  and  C_44
    9  A    between atoms: N_16  and  C_55
   10  A    between atoms: C_19  and  C_57
   11  A    between atoms: C_22  and  N_41
   12  A    between atoms: C_33  and  C_44
   13  A    between atoms: S_34  and  C_43
   14  A    between atoms: C_38  and  N_47
   15  A    between atoms: C_39  and  O_48
   16  A    between atoms: C_43  and  C_45
   17  A    between atoms: C_50  and  C_52
                            x       y       z     vdW  Elec       q    Type
                         _______ _______ _______ _____ _____    ______ ____

>  <TORSDO>
F 17

$$$$
=
 OpenBabel11042411233D

 57 62  0  0  1  0  0  0  0  0999 V2000
  188.1360  174.8750  136.9440 C   0  0  1  0  0  3  0  0  0  0  0  0
  188.4560  176.3500  137.0620 C   0  0  1  0  0  3  0  0  0  0  0  0
  187.3910  175.8680  136.0730 C   0  0  2  0  0  3  0  0  0  0  0  0
  182.8400  176.0770  135.5870 C   0  0  0  0  0  0  0  0  0  0  0  0
  185.2020  174.7490  136.5090 C   0  0  1  0  0  3  0  0  0  0  0  0
  184.7960  173.8810  137.6900 C   0  0  0  0  0  2  0  0  0  0  0  0
  182.9240  175.1830  136.5410 N   0  0  0  0  0  0  0  0  0  0  0  0
  183.9460  177.0600  135.2760 C   0  0  0  0  0  3  0  0  0  0  0  0
  184.0670  175.1650  137.4280 C   0  0  2  0  0  3  0  0  0  0  0  0
  185.9540  176.0530  136.5610 C   0  0  2  0  0  3  0  0  0  0  0  0
  185.2460  177.0610  135.6670 C   0  0  0  0  0  3  0  0  0  0  0  0
  181.6720  176.0970  134.8210 O   0  0  0  0  0  0  0  0  0  0  0  0
  180.4910  176.7590  135.2450 C   0  0  0  0  0  1  0  0  0  0  0  0
  191.1770  172.8060  134.6440 C   0  0  0  0  0  1  0  0  0  0  0  0
  191.4160  174.1660  135.1040 N   0  0  0  0  0  0  0  0  0  0  0  0
  190.4210  174.8560  135.8750 C   0  0  0  0  0  0  0  0  0  0  0  0
  189.1660  174.2260  136.1530 N   0  0  0  0  0  2  0  0  0  0  0  0
  190.6510  176.0160  136.3120 O   0  0  0  0  0  0  0  0  0  0  0  0
  192.7390  174.7510  134.9020 C   0  0  0  0  0  2  0  0  0  0  0  0
  194.7970  173.6210  135.6730 C   0  0  1  0  0  3  0  0  0  0  0  0
  193.6680  174.5430  136.1010 C   0  0  1  0  0  0  0  0  0  0  0  0
  194.3960  175.8280  136.4550 C   0  0  0  0  0  2  0  0  0  0  0  0
  192.8940  174.0610  137.3260 C   0  0  0  0  0  1  0  0  0  0  0  0
  196.0510  174.3820  136.0250 C   0  0  0  0  0  2  0  0  0  0  0  0
  195.7310  175.7460  136.0190 O   0  0  0  0  0  0  0  0  0  0  0  0
  194.0600  169.9630  136.1030 C   0  0  0  0  0  3  0  0  0  0  0  0
  195.5680  171.9290  137.3480 C   0  0  0  0  0  3  0  0  0  0  0  0
  194.8220  169.6340  137.2270 C   0  0  0  0  0  3  0  0  0  0  0  0
  194.0590  171.2380  135.6300 N   0  0  0  0  0  0  0  0  0  0  0  0
  195.5820  170.6270  137.8490 C   0  0  0  0  0  3  0  0  0  0  0  0
  194.7850  172.2250  136.2320 C   0  0  0  0  0  0  0  0  0  0  0  0
  187.8910  176.8570  138.3070 N   0  0  0  0  0  2  0  0  0  0  0  0
  188.9440  177.5770  138.9980 C   0  0  1  0  0  3  0  0  0  0  0  0
  188.3290  178.6280  139.9040 C   0  0  0  0  0  1  0  0  0  0  0  0
  189.7770  176.5870  139.8040 C   0  0  0  0  0  2  0  0  0  0  0  0
  190.6200  178.0690  143.0320 O   0  0  0  0  0  0  0  0  0  0  0  0
  190.5500  177.2690  140.8370 N   0  0  0  0  0  0  0  0  0  0  0  0
  190.0690  177.3080  142.1910 C   0  0  0  0  0  0  0  0  0  0  0  0
  189.3360  175.2150  143.0600 O   0  0  0  0  0  1  0  0  0  0  0  0
  188.9010  176.4660  142.6160 C   0  0  1  0  0  3  0  0  0  0  0  0
  185.5150  179.1780  146.8620 Cl  0  0  0  0  0  0  0  0  0  0  0  0
  186.9730  177.9220  143.2980 C   0  0  0  0  0  3  0  0  0  0  0  0
  188.3990  176.9950  145.0230 C   0  0  0  0  0  0  0  0  0  0  0  0
  186.5000  178.3940  145.6270 C   0  0  0  0  0  0  0  0  0  0  0  0
  189.4920  176.2650  145.3600 F   0  0  0  0  0  0  0  0  0  0  0  0
  188.0760  177.1460  143.6670 C   0  0  0  0  0  0  0  0  0  0  0  0
  187.6010  177.6080  146.0170 C   0  0  0  0  0  0  0  0  0  0  0  0
  186.1900  178.5510  144.2660 C   0  0  0  0  0  0  0  0  0  0  0  0
  188.8670  178.1740  148.0990 C   0  0  0  0  0  1  0  0  0  0  0  0
  187.8580  177.4670  147.3900 O   0  0  0  0  0  0  0  0  0  0  0  0
  185.0220  179.3720  143.8220 C   0  0  0  0  0  2  0  0  0  0  0  0
  183.7750  178.5960  141.4160 C   0  0  0  0  0  1  0  0  0  0  0  0
  183.7080  178.3110  143.1900 S   0  0  2  0  0  0  0  0  0  0  0  0
  182.4330  179.0300  143.6080 O   0  0  0  0  0  0  0  0  0  0  0  0
  191.7830  177.9550  140.4520 C   0  0  0  0  0  2  0  0  0  0  0  0
  192.5400  177.1590  139.4010 C   0  0  0  0  0  2  0  0  0  0  0  0
  193.8660  176.8230  139.8900 N   0  0  0  0  0  1  0  0  0  0  0  0
  1 17  1  6  0  0  0
  1  2  1  0  0  0  0
  2 32  1  1  0  0  0
  3 10  1  1  0  0  0
  3  1  1  0  0  0  0
  3  2  1  0  0  0  0
  4  7  2  0  0  0  0
  5 10  1  0  0  0  0
  5  9  1  0  0  0  0
  5  6  1  1  0  0  0
  7  9  1  0  0  0  0
  8  4  1  0  0  0  0
  8 11  2  0  0  0  0
  9  6  1  1  0  0  0
 10 11  1  6  0  0  0
 12 13  1  0  0  0  0
 12  4  1  0  0  0  0
 14 15  1  0  0  0  0
 15 16  1  0  0  0  0
 16 17  1  0  0  0  0
 16 18  2  0  0  0  0
 19 15  1  0  0  0  0
 19 21  1  0  0  0  0
 20 24  1  0  0  0  0
 20 21  1  0  0  0  0
 20 31  1  1  0  0  0
 21 22  1  0  0  0  0
 21 23  1  1  0  0  0
 25 24  1  0  0  0  0
 25 22  1  0  0  0  0
 26 28  1  0  0  0  0
 27 30  1  0  0  0  0
 28 30  2  0  0  0  0
 29 26  2  0  0  0  0
 29 31  1  0  0  0  0
 31 27  2  0  0  0  0
 32 33  1  0  0  0  0
 33 35  1  0  0  0  0
 33 34  1  1  0  0  0
 35 37  1  0  0  0  0
 37 38  1  0  0  0  0
 38 40  1  0  0  0  0
 38 36  2  0  0  0  0
 40 39  1  1  0  0  0
 40 46  1  0  0  0  0
 42 46  2  0  0  0  0
 42 48  1  0  0  0  0
 43 45  1  0  0  0  0
 43 47  2  0  0  0  0
 44 47  1  0  0  0  0
 44 41  1  0  0  0  0
 46 43  1  0  0  0  0
 47 50  1  0  0  0  0
 48 44  2  0  0  0  0
 50 49  1  0  0  0  0
 51 48  1  0  0  0  0
 53 52  1  6  0  0  0
 53 54  2  0  0  0  0
 53 51  1  0  0  0  0
 55 37  1  0  0  0  0
 56 57  1  0  0  0  0
 56 55  1  0  0  0  0
M  END
>  <MODEL>
5

>  <REMARK>
 VINA RESULT:      -6.0      2.919      8.759
  Name = 
  17 active torsions:
  status: ('A' for Active; 'I' for Inactive)
    1  A    between atoms: C_5  and  O_8
    2  A    between atoms: N_7  and  C_11
    3  A    between atoms: C_11  and  C_30
    4  A    between atoms: C_12  and  N_47
    5  A    between atoms: C_12  and  C_55
    6  A    between atoms: C_14  and  C_24
    7  A    between atoms: C_14  and  C_35
    8  A    between atoms: N_16  and  C_44
    9  A    between atoms: N_16  and  C_55
   10  A    between atoms: C_19  and  C_57
   11  A    between atoms: C_22  and  N_41
   12  A    between atoms: C_33  and  C_44
   13  A    between atoms: S_34  and  C_43
   14  A    between atoms: C_38  and  N_47
   15  A    between atoms: C_39  and  O_48
   16  A    between atoms: C_43  and  C_45
   17  A    between atoms: C_50  and  C_52
                            x       y       z     vdW  Elec       q    Type
                         _______ _______ _______ _____ _____    ______ ____

>  <TORSDO>
F 17

$$$$
=
 OpenBabel11042411233D

 57 62  0  0  1  0  0  0  0  0999 V2000
  185.1270  176.7210  137.7370 C   0  0  1  0  0  3  0  0  0  0  0  0
  184.0430  177.7690  137.5950 C   0  0  1  0  0  3  0  0  0  0  0  0
  184.4040  176.8670  136.4110 C   0  0  2  0  0  3  0  0  0  0  0  0
  183.2370  172.4590  135.9700 C   0  0  0  0  0  0  0  0  0  0  0  0
  183.2580  174.9080  137.4510 C   0  0  1  0  0  3  0  0  0  0  0  0
  182.0400  174.8920  138.3600 C   0  0  0  0  0  2  0  0  0  0  0  0
  182.4050  172.8190  136.9150 N   0  0  0  0  0  0  0  0  0  0  0  0
  183.8870  173.4420  135.0230 C   0  0  0  0  0  3  0  0  0  0  0  0
  181.9830  174.1970  137.0320 C   0  0  2  0  0  3  0  0  0  0  0  0
  183.4330  175.7080  136.1870 C   0  0  2  0  0  3  0  0  0  0  0  0
  183.9830  174.7940  135.1020 C   0  0  0  0  0  3  0  0  0  0  0  0
  183.5370  171.1000  135.8560 O   0  0  0  0  0  0  0  0  0  0  0  0
  183.6820  170.4500  134.6030 C   0  0  0  0  0  1  0  0  0  0  0  0
  188.9390  178.7660  137.4130 C   0  0  0  0  0  1  0  0  0  0  0  0
  188.8500  177.3450  137.1100 N   0  0  0  0  0  0  0  0  0  0  0  0
  187.5920  176.6610  137.2040 C   0  0  0  0  0  0  0  0  0  0  0  0
  186.4260  177.3640  137.6450 N   0  0  0  0  0  2  0  0  0  0  0  0
  187.5110  175.4420  136.8940 O   0  0  0  0  0  0  0  0  0  0  0  0
  190.0250  176.6720  136.5620 C   0  0  0  0  0  2  0  0  0  0  0  0
  192.2480  176.3870  137.6030 C   0  0  1  0  0  3  0  0  0  0  0  0
  190.8110  175.8960  137.6220 C   0  0  1  0  0  0  0  0  0  0  0  0
  190.3460  176.2620  139.0210 C   0  0  0  0  0  2  0  0  0  0  0  0
  190.6600  174.3880  137.4310 C   0  0  0  0  0  1  0  0  0  0  0  0
  192.5240  176.7800  139.0330 C   0  0  0  0  0  2  0  0  0  0  0  0
  191.2970  177.1050  139.6250 O   0  0  0  0  0  0  0  0  0  0  0  0
  194.5790  174.6710  135.2090 C   0  0  0  0  0  3  0  0  0  0  0  0
  193.9310  174.5590  137.9040 C   0  0  0  0  0  3  0  0  0  0  0  0
  195.2400  173.7590  136.0360 C   0  0  0  0  0  3  0  0  0  0  0  0
  193.6240  175.4920  135.7250 N   0  0  0  0  0  0  0  0  0  0  0  0
  194.9120  173.7090  137.3920 C   0  0  0  0  0  3  0  0  0  0  0  0
  193.2820  175.4480  137.0450 C   0  0  0  0  0  0  0  0  0  0  0  0
  182.8570  177.3190  138.3130 N   0  0  0  0  0  2  0  0  0  0  0  0
  182.5330  178.3380  139.2930 C   0  0  1  0  0  3  0  0  0  0  0  0
  181.2510  179.0420  138.8880 C   0  0  0  0  0  1  0  0  0  0  0  0
  182.3820  177.6810  140.6610 C   0  0  0  0  0  2  0  0  0  0  0  0
  183.9960  179.6740  143.2590 O   0  0  0  0  0  0  0  0  0  0  0  0
  182.5460  178.6570  141.7340 N   0  0  0  0  0  0  0  0  0  0  0  0
  183.8620  179.0010  142.2020 C   0  0  0  0  0  0  0  0  0  0  0  0
  185.5010  179.5380  140.5600 O   0  0  0  0  0  1  0  0  0  0  0  0
  185.0840  178.5510  141.4560 C   0  0  1  0  0  3  0  0  0  0  0  0
  189.5730  176.9610  145.2190 Cl  0  0  0  0  0  0  0  0  0  0  0  0
  185.9220  177.8740  143.7240 C   0  0  0  0  0  3  0  0  0  0  0  0
  187.5170  178.1040  141.9140 C   0  0  0  0  0  0  0  0  0  0  0  0
  188.2690  177.4260  144.1280 C   0  0  0  0  0  0  0  0  0  0  0  0
  187.7690  178.4290  140.6210 F   0  0  0  0  0  0  0  0  0  0  0  0
  186.1970  178.1730  142.3860 C   0  0  0  0  0  0  0  0  0  0  0  0
  188.5630  177.7130  142.7820 C   0  0  0  0  0  0  0  0  0  0  0  0
  186.9470  177.5090  144.5970 C   0  0  0  0  0  0  0  0  0  0  0  0
  190.9700  178.3910  142.8470 C   0  0  0  0  0  1  0  0  0  0  0  0
  189.8960  177.5980  142.3580 O   0  0  0  0  0  0  0  0  0  0  0  0
  186.6030  177.2010  146.0190 C   0  0  0  0  0  2  0  0  0  0  0  0
  187.6930  178.0060  148.4910 C   0  0  0  0  0  1  0  0  0  0  0  0
  186.8300  178.6600  147.0540 S   0  0  2  0  0  0  0  0  0  0  0  0
  185.4330  178.9420  147.5880 O   0  0  0  0  0  0  0  0  0  0  0  0
  181.3500  179.2240  142.3550 C   0  0  0  0  0  2  0  0  0  0  0  0
  180.1720  178.2700  142.2320 C   0  0  0  0  0  2  0  0  0  0  0  0
  179.8110  177.7520  143.5390 N   0  0  0  0  0  1  0  0  0  0  0  0
  1 17  1  6  0  0  0
  2  1  1  0  0  0  0
  2 32  1  1  0  0  0
  3 10  1  1  0  0  0
  3  2  1  0  0  0  0
  3  1  1  0  0  0  0
  4  7  2  0  0  0  0
  5  6  1  1  0  0  0
  7  9  1  0  0  0  0
  8 11  2  0  0  0  0
  8  4  1  0  0  0  0
  9  5  1  0  0  0  0
  9  6  1  1  0  0  0
 10 11  1  6  0  0  0
 10  5  1  0  0  0  0
 12  4  1  0  0  0  0
 13 12  1  0  0  0  0
 15 16  1  0  0  0  0
 15 14  1  0  0  0  0
 16 17  1  0  0  0  0
 18 16  2  0  0  0  0
 19 15  1  0  0  0  0
 19 21  1  0  0  0  0
 20 31  1  1  0  0  0
 20 21  1  0  0  0  0
 20 24  1  0  0  0  0
 21 23  1  6  0  0  0
 21 22  1  0  0  0  0
 22 25  1  0  0  0  0
 24 25  1  0  0  0  0
 26 29  2  0  0  0  0
 26 28  1  0  0  0  0
 28 30  2  0  0  0  0
 29 31  1  0  0  0  0
 30 27  1  0  0  0  0
 31 27  2  0  0  0  0
 32 33  1  0  0  0  0
 33 34  1  6  0  0  0
 33 35  1  0  0  0  0
 35 37  1  0  0  0  0
 37 38  1  0  0  0  0
 37 55  1  0  0  0  0
 38 36  2  0  0  0  0
 40 39  1  6  0  0  0
 40 38  1  0  0  0  0
 40 46  1  0  0  0  0
 42 48  1  0  0  0  0
 43 46  1  0  0  0  0
 43 47  2  0  0  0  0
 44 48  2  0  0  0  0
 44 41  1  0  0  0  0
 45 43  1  0  0  0  0
 46 42  2  0  0  0  0
 47 44  1  0  0  0  0
 48 51  1  0  0  0  0
 50 47  1  0  0  0  0
 50 49  1  0  0  0  0
 51 53  1  0  0  0  0
 53 54  2  0  0  0  0
 53 52  1  1  0  0  0
 56 55  1  0  0  0  0
 56 57  1  0  0  0  0
M  END
>  <MODEL>
6

>  <REMARK>
 VINA RESULT:      -6.0      3.417      8.368
  Name = 
  17 active torsions:
  status: ('A' for Active; 'I' for Inactive)
    1  A    between atoms: C_5  and  O_8
    2  A    between atoms: N_7  and  C_11
    3  A    between atoms: C_11  and  C_30
    4  A    between atoms: C_12  and  N_47
    5  A    between atoms: C_12  and  C_55
    6  A    between atoms: C_14  and  C_24
    7  A    between atoms: C_14  and  C_35
    8  A    between atoms: N_16  and  C_44
    9  A    between atoms: N_16  and  C_55
   10  A    between atoms: C_19  and  C_57
   11  A    between atoms: C_22  and  N_41
   12  A    between atoms: C_33  and  C_44
   13  A    between atoms: S_34  and  C_43
   14  A    between atoms: C_38  and  N_47
   15  A    between atoms: C_39  and  O_48
   16  A    between atoms: C_43  and  C_45
   17  A    between atoms: C_50  and  C_52
                            x       y       z     vdW  Elec       q    Type
                         _______ _______ _______ _____ _____    ______ ____

>  <TORSDO>
F 17

$$$$
=
 OpenBabel11042411233D

 57 62  0  0  1  0  0  0  0  0999 V2000
  188.1160  175.6660  136.4790 C   0  0  1  0  0  3  0  0  0  0  0  0
  188.6940  175.8880  137.8610 C   0  0  1  0  0  3  0  0  0  0  0  0
  188.9680  174.5810  137.1100 C   0  0  2  0  0  3  0  0  0  0  0  0
  193.3860  173.4000  136.8420 C   0  0  0  0  0  0  0  0  0  0  0  0
  190.6610  173.1070  136.0180 C   0  0  1  0  0  3  0  0  0  0  0  0
  190.6790  172.5710  134.5950 C   0  0  0  0  0  2  0  0  0  0  0  0
  192.9510  172.9020  135.7110 N   0  0  0  0  0  0  0  0  0  0  0  0
  192.6670  174.4970  137.5920 C   0  0  0  0  0  3  0  0  0  0  0  0
  191.7870  173.4660  135.0640 C   0  0  2  0  0  3  0  0  0  0  0  0
  190.3460  174.5150  136.4500 C   0  0  2  0  0  3  0  0  0  0  0  0
  191.4020  174.9680  137.4470 C   0  0  0  0  0  3  0  0  0  0  0  0
  194.5650  172.8680  137.3710 O   0  0  0  0  0  0  0  0  0  0  0  0
  195.8460  173.1680  136.8410 C   0  0  0  0  0  1  0  0  0  0  0  0
  183.9590  174.4600  136.7630 C   0  0  0  0  0  1  0  0  0  0  0  0
  184.3000  175.8730  136.6910 N   0  0  0  0  0  0  0  0  0  0  0  0
  185.6720  176.2820  136.5860 C   0  0  0  0  0  0  0  0  0  0  0  0
  186.7150  175.3030  136.6020 N   0  0  0  0  0  2  0  0  0  0  0  0
  185.9600  177.5050  136.4760 O   0  0  0  0  0  0  0  0  0  0  0  0
  183.2200  176.8490  136.5700 C   0  0  0  0  0  2  0  0  0  0  0  0
  181.1960  177.7040  137.7000 C   0  0  1  0  0  3  0  0  0  0  0  0
  182.6250  177.2450  137.9240 C   0  0  1  0  0  0  0  0  0  0  0  0
  182.4540  176.0300  138.8200 C   0  0  0  0  0  2  0  0  0  0  0  0
  183.5070  178.2650  138.6410 C   0  0  0  0  0  1  0  0  0  0  0  0
  180.3810  176.8560  138.6440 C   0  0  0  0  0  2  0  0  0  0  0  0
  181.0940  175.6720  138.8690 O   0  0  0  0  0  0  0  0  0  0  0  0
  180.3950  181.0400  139.2290 C   0  0  0  0  0  3  0  0  0  0  0  0
  181.0310  180.0070  136.7350 C   0  0  0  0  0  3  0  0  0  0  0  0
  180.4830  181.9020  138.1330 C   0  0  0  0  0  3  0  0  0  0  0  0
  180.6170  179.7080  139.0690 N   0  0  0  0  0  0  0  0  0  0  0  0
  180.8050  181.3770  136.8790 C   0  0  0  0  0  3  0  0  0  0  0  0
  180.9210  179.1750  137.8500 C   0  0  0  0  0  0  0  0  0  0  0  0
  189.7920  176.8420  137.7640 N   0  0  0  0  0  2  0  0  0  0  0  0
  189.6470  177.7800  138.8610 C   0  0  1  0  0  3  0  0  0  0  0  0
  188.4190  178.6410  138.6320 C   0  0  0  0  0  1  0  0  0  0  0  0
  189.5280  177.0020  140.1670 C   0  0  0  0  0  2  0  0  0  0  0  0
  190.7150  178.1920  143.4080 O   0  0  0  0  0  0  0  0  0  0  0  0
  190.4300  177.5380  141.1820 N   0  0  0  0  0  0  0  0  0  0  0  0
  190.0370  177.5440  142.5660 C   0  0  0  0  0  0  0  0  0  0  0  0
  188.9650  175.4300  142.7990 O   0  0  0  0  0  1  0  0  0  0  0  0
  188.8150  176.8010  143.0210 C   0  0  1  0  0  3  0  0  0  0  0  0
  187.5630  177.9640  148.8450 Cl  0  0  0  0  0  0  0  0  0  0  0  0
  189.5050  176.9870  145.4280 C   0  0  0  0  0  3  0  0  0  0  0  0
  187.1970  177.4340  144.8390 C   0  0  0  0  0  0  0  0  0  0  0  0
  187.9270  177.6230  147.1540 C   0  0  0  0  0  0  0  0  0  0  0  0
  186.2270  177.4820  143.8910 F   0  0  0  0  0  0  0  0  0  0  0  0
  188.4990  177.0750  144.4600 C   0  0  0  0  0  0  0  0  0  0  0  0
  186.9050  177.7260  146.1920 C   0  0  0  0  0  0  0  0  0  0  0  0
  189.2260  177.2500  146.7690 C   0  0  0  0  0  0  0  0  0  0  0  0
  184.7710  179.0000  145.9120 C   0  0  0  0  0  1  0  0  0  0  0  0
  185.6290  178.1190  146.6250 O   0  0  0  0  0  0  0  0  0  0  0  0
  190.3340  177.1420  147.7670 C   0  0  0  0  0  2  0  0  0  0  0  0
  192.8090  176.0080  148.4990 C   0  0  0  0  0  1  0  0  0  0  0  0
  191.4910  175.8440  147.2870 S   0  0  2  0  0  0  0  0  0  0  0  0
  192.1250  176.3820  146.0120 O   0  0  0  0  0  0  0  0  0  0  0  0
  191.7020  178.1170  140.7550 C   0  0  0  0  0  2  0  0  0  0  0  0
  192.8360  177.1180  140.9240 C   0  0  0  0  0  2  0  0  0  0  0  0
  193.6230  177.0450  139.7060 N   0  0  0  0  0  1  0  0  0  0  0  0
  1 17  1  1  0  0  0
  1  3  1  0  0  0  0
  1  2  1  0  0  0  0
  2 32  1  6  0  0  0
  3 10  1  6  0  0  0
  3  2  1  0  0  0  0
  4 12  1  0  0  0  0
  4  8  1  0  0  0  0
  5  6  1  6  0  0  0
  5 10  1  0  0  0  0
  7  4  2  0  0  0  0
  9  6  1  6  0  0  0
  9  7  1  0  0  0  0
  9  5  1  0  0  0  0
 10 11  1  1  0  0  0
 11  8  2  0  0  0  0
 13 12  1  0  0  0  0
 15 14  1  0  0  0  0
 16 17  1  0  0  0  0
 16 15  1  0  0  0  0
 18 16  2  0  0  0  0
 19 15  1  0  0  0  0
 19 21  1  0  0  0  0
 20 31  1  1  0  0  0
 20 21  1  0  0  0  0
 20 24  1  0  0  0  0
 21 23  1  1  0  0  0
 21 22  1  0  0  0  0
 22 25  1  0  0  0  0
 24 25  1  0  0  0  0
 27 30  2  0  0  0  0
 27 31  1  0  0  0  0
 28 26  2  0  0  0  0
 29 26  1  0  0  0  0
 30 28  1  0  0  0  0
 31 29  2  0  0  0  0
 32 33  1  0  0  0  0
 33 34  1  6  0  0  0
 33 35  1  0  0  0  0
 35 37  1  0  0  0  0
 37 38  1  0  0  0  0
 38 40  1  0  0  0  0
 38 36  2  0  0  0  0
 40 39  1  1  0  0  0
 40 46  1  0  0  0  0
 42 48  1  0  0  0  0
 43 47  2  0  0  0  0
 44 41  1  0  0  0  0
 45 43  1  0  0  0  0
 46 43  1  0  0  0  0
 46 42  2  0  0  0  0
 47 50  1  0  0  0  0
 47 44  1  0  0  0  0
 48 44  2  0  0  0  0
 48 51  1  0  0  0  0
 49 50  1  0  0  0  0
 53 51  1  0  0  0  0
 53 52  1  1  0  0  0
 54 53  2  0  0  0  0
 55 56  1  0  0  0  0
 55 37  1  0  0  0  0
 57 56  1  0  0  0  0
M  END
>  <MODEL>
7

>  <REMARK>
 VINA RESULT:      -5.7      3.348      8.530
  Name = 
  17 active torsions:
  status: ('A' for Active; 'I' for Inactive)
    1  A    between atoms: C_5  and  O_8
    2  A    between atoms: N_7  and  C_11
    3  A    between atoms: C_11  and  C_30
    4  A    between atoms: C_12  and  N_47
    5  A    between atoms: C_12  and  C_55
    6  A    between atoms: C_14  and  C_24
    7  A    between atoms: C_14  and  C_35
    8  A    between atoms: N_16  and  C_44
    9  A    between atoms: N_16  and  C_55
   10  A    between atoms: C_19  and  C_57
   11  A    between atoms: C_22  and  N_41
   12  A    between atoms: C_33  and  C_44
   13  A    between atoms: S_34  and  C_43
   14  A    between atoms: C_38  and  N_47
   15  A    between atoms: C_39  and  O_48
   16  A    between atoms: C_43  and  C_45
   17  A    between atoms: C_50  and  C_52
                            x       y       z     vdW  Elec       q    Type
                         _______ _______ _______ _____ _____    ______ ____

>  <TORSDO>
F 17

$$$$
=
 OpenBabel11042411233D

 57 62  0  0  1  0  0  0  0  0999 V2000
  184.6110  178.5960  139.2150 C   0  0  1  0  0  3  0  0  0  0  0  0
  184.2900  177.3580  138.4040 C   0  0  1  0  0  3  0  0  0  0  0  0
  183.5030  177.6700  139.6800 C   0  0  2  0  0  3  0  0  0  0  0  0
  179.8050  180.1350  140.7920 C   0  0  0  0  0  0  0  0  0  0  0  0
  182.2360  179.7920  139.3230 C   0  0  1  0  0  3  0  0  0  0  0  0
  182.1170  180.6260  138.0570 C   0  0  0  0  0  2  0  0  0  0  0  0
  180.1460  180.7320  139.6770 N   0  0  0  0  0  0  0  0  0  0  0  0
  180.2380  178.7300  141.1440 C   0  0  0  0  0  3  0  0  0  0  0  0
  180.8880  180.0160  138.6630 C   0  0  2  0  0  3  0  0  0  0  0  0
  182.1290  178.2940  139.4320 C   0  0  2  0  0  3  0  0  0  0  0  0
  181.2070  177.9540  140.5940 C   0  0  0  0  0  3  0  0  0  0  0  0
  179.0150  180.8520  141.6940 O   0  0  0  0  0  0  0  0  0  0  0  0
  179.0910  180.6610  143.0980 C   0  0  0  0  0  1  0  0  0  0  0  0
  188.1780  177.7220  141.5230 C   0  0  0  0  0  1  0  0  0  0  0  0
  187.1180  178.5320  142.1050 N   0  0  0  0  0  0  0  0  0  0  0  0
  185.9290  178.8180  141.3540 C   0  0  0  0  0  0  0  0  0  0  0  0
  185.8020  178.3490  140.0080 N   0  0  0  0  0  2  0  0  0  0  0  0
  184.9920  179.4780  141.8800 O   0  0  0  0  0  0  0  0  0  0  0  0
  187.2190  178.9100  143.5130 C   0  0  0  0  0  2  0  0  0  0  0  0
  187.9730  178.0840  145.7160 C   0  0  1  0  0  3  0  0  0  0  0  0
  187.2230  177.7020  144.4520 C   0  0  1  0  0  0  0  0  0  0  0  0
  185.8240  177.4060  144.9640 C   0  0  0  0  0  2  0  0  0  0  0  0
  187.7650  176.4570  143.7530 C   0  0  0  0  0  1  0  0  0  0  0  0
  187.0070  177.7660  146.8310 C   0  0  0  0  0  2  0  0  0  0  0  0
  185.7130  177.8360  146.2990 O   0  0  0  0  0  0  0  0  0  0  0  0
  191.4120  176.7350  145.0370 C   0  0  0  0  0  3  0  0  0  0  0  0
  189.7360  177.1260  147.2120 C   0  0  0  0  0  3  0  0  0  0  0  0
  191.8510  176.3750  146.3140 C   0  0  0  0  0  3  0  0  0  0  0  0
  190.1720  177.2690  144.8670 N   0  0  0  0  0  0  0  0  0  0  0  0
  191.0040  176.5760  147.4060 C   0  0  0  0  0  3  0  0  0  0  0  0
  189.3260  177.4610  145.9200 C   0  0  0  0  0  0  0  0  0  0  0  0
  183.5890  177.7580  137.1890 N   0  0  0  0  0  2  0  0  0  0  0  0
  183.7850  176.7060  136.2100 C   0  0  1  0  0  3  0  0  0  0  0  0
  184.7510  177.1820  135.1410 C   0  0  0  0  0  1  0  0  0  0  0  0
  184.3250  175.4670  136.9160 C   0  0  0  0  0  2  0  0  0  0  0  0
  185.7190  172.6870  135.0030 O   0  0  0  0  0  0  0  0  0  0  0  0
  184.3900  174.3290  136.0040 N   0  0  0  0  0  0  0  0  0  0  0  0
  185.5830  173.5290  135.9320 C   0  0  0  0  0  0  0  0  0  0  0  0
  187.0250  172.4620  137.4990 O   0  0  0  0  0  1  0  0  0  0  0  0
  186.6830  173.6950  136.9400 C   0  0  1  0  0  3  0  0  0  0  0  0
  191.5730  176.4210  134.5950 Cl  0  0  0  0  0  0  0  0  0  0  0  0
  187.9070  175.7520  136.1810 C   0  0  0  0  0  3  0  0  0  0  0  0
  189.0010  173.6000  135.9700 C   0  0  0  0  0  0  0  0  0  0  0  0
  190.1500  175.6300  135.2730 C   0  0  0  0  0  0  0  0  0  0  0  0
  188.9500  172.2510  136.1080 F   0  0  0  0  0  0  0  0  0  0  0  0
  187.8870  174.3630  136.3470 C   0  0  0  0  0  0  0  0  0  0  0  0
  190.1510  174.2330  135.4420 C   0  0  0  0  0  0  0  0  0  0  0  0
  189.0250  176.3870  135.6410 C   0  0  0  0  0  0  0  0  0  0  0  0
  192.2980  173.0710  135.9870 C   0  0  0  0  0  1  0  0  0  0  0  0
  191.3060  173.5240  135.0760 O   0  0  0  0  0  0  0  0  0  0  0  0
  188.9990  177.8740  135.4810 C   0  0  0  0  0  2  0  0  0  0  0  0
  188.9120  177.3010  138.2400 C   0  0  0  0  0  1  0  0  0  0  0  0
  188.8340  178.6780  137.0860 S   0  0  2  0  0  0  0  0  0  0  0  0
  187.3690  179.0870  137.1340 O   0  0  0  0  0  0  0  0  0  0  0  0
  183.2480  174.0640  135.1310 C   0  0  0  0  0  2  0  0  0  0  0  0
  182.4190  172.9040  135.6630 C   0  0  0  0  0  2  0  0  0  0  0  0
  181.4510  172.4840  134.6660 N   0  0  0  0  0  1  0  0  0  0  0  0
  1  3  1  0  0  0  0
  1 17  1  1  0  0  0
  2 32  1  6  0  0  0
  2  1  1  0  0  0  0
  2  3  1  0  0  0  0
  3 10  1  6  0  0  0
  4  8  1  0  0  0  0
  4 12  1  0  0  0  0
  5  6  1  6  0  0  0
  5 10  1  0  0  0  0
  7  4  2  0  0  0  0
  9  6  1  6  0  0  0
  9  5  1  0  0  0  0
  9  7  1  0  0  0  0
 10 11  1  1  0  0  0
 11  8  2  0  0  0  0
 12 13  1  0  0  0  0
 14 15  1  0  0  0  0
 15 19  1  0  0  0  0
 16 18  2  0  0  0  0
 16 15  1  0  0  0  0
 17 16  1  0  0  0  0
 19 21  1  0  0  0  0
 20 31  1  1  0  0  0
 20 24  1  0  0  0  0
 21 23  1  6  0  0  0
 21 22  1  0  0  0  0
 21 20  1  0  0  0  0
 22 25  1  0  0  0  0
 25 24  1  0  0  0  0
 26 28  1  0  0  0  0
 27 30  1  0  0  0  0
 28 30  2  0  0  0  0
 29 26  2  0  0  0  0
 29 31  1  0  0  0  0
 31 27  2  0  0  0  0
 33 34  1  6  0  0  0
 33 35  1  0  0  0  0
 33 32  1  0  0  0  0
 36 38  2  0  0  0  0
 37 35  1  0  0  0  0
 38 37  1  0  0  0  0
 38 40  1  0  0  0  0
 40 39  1  6  0  0  0
 41 44  1  0  0  0  0
 42 46  1  0  0  0  0
 43 45  1  0  0  0  0
 43 46  2  0  0  0  0
 44 47  2  0  0  0  0
 44 48  1  0  0  0  0
 46 40  1  0  0  0  0
 47 43  1  0  0  0  0
 48 42  2  0  0  0  0
 50 47  1  0  0  0  0
 50 49  1  0  0  0  0
 51 48  1  0  0  0  0
 51 53  1  0  0  0  0
 53 54  2  0  0  0  0
 53 52  1  1  0  0  0
 55 56  1  0  0  0  0
 55 37  1  0  0  0  0
 57 56  1  0  0  0  0
M  END
>  <MODEL>
8

>  <REMARK>
 VINA RESULT:      -5.6      3.446      8.279
  Name = 
  17 active torsions:
  status: ('A' for Active; 'I' for Inactive)
    1  A    between atoms: C_5  and  O_8
    2  A    between atoms: N_7  and  C_11
    3  A    between atoms: C_11  and  C_30
    4  A    between atoms: C_12  and  N_47
    5  A    between atoms: C_12  and  C_55
    6  A    between atoms: C_14  and  C_24
    7  A    between atoms: C_14  and  C_35
    8  A    between atoms: N_16  and  C_44
    9  A    between atoms: N_16  and  C_55
   10  A    between atoms: C_19  and  C_57
   11  A    between atoms: C_22  and  N_41
   12  A    between atoms: C_33  and  C_44
   13  A    between atoms: S_34  and  C_43
   14  A    between atoms: C_38  and  N_47
   15  A    between atoms: C_39  and  O_48
   16  A    between atoms: C_43  and  C_45
   17  A    between atoms: C_50  and  C_52
                            x       y       z     vdW  Elec       q    Type
                         _______ _______ _______ _____ _____    ______ ____

>  <TORSDO>
F 17

$$$$
=
 OpenBabel11042411233D

 57 62  0  0  1  0  0  0  0  0999 V2000
  186.8880  176.6940  138.0640 C   0  0  1  0  0  3  0  0  0  0  0  0
  187.3640  178.1160  138.2710 C   0  0  1  0  0  3  0  0  0  0  0  0
  185.9980  177.8450  137.6340 C   0  0  2  0  0  3  0  0  0  0  0  0
  181.8100  179.2490  138.8470 C   0  0  0  0  0  0  0  0  0  0  0  0
  183.6480  177.1720  138.1420 C   0  0  1  0  0  3  0  0  0  0  0  0
  183.1450  175.8910  138.7860 C   0  0  0  0  0  2  0  0  0  0  0  0
  181.7120  177.9750  139.1350 N   0  0  0  0  0  0  0  0  0  0  0  0
  183.1330  179.9710  138.7260 C   0  0  0  0  0  3  0  0  0  0  0  0
  182.8940  177.2070  139.4590 C   0  0  2  0  0  3  0  0  0  0  0  0
  184.8170  178.0110  138.5900 C   0  0  2  0  0  3  0  0  0  0  0  0
  184.3900  179.4710  138.6120 C   0  0  0  0  0  3  0  0  0  0  0  0
  180.6240  179.9550  138.6280 O   0  0  0  0  0  0  0  0  0  0  0  0
  180.4160  181.2710  139.1170 C   0  0  0  0  0  1  0  0  0  0  0  0
  188.7770  174.9010  134.5960 C   0  0  0  0  0  1  0  0  0  0  0  0
  189.5240  175.8310  135.4290 N   0  0  0  0  0  0  0  0  0  0  0  0
  188.9130  176.4220  136.5840 C   0  0  0  0  0  0  0  0  0  0  0  0
  187.5450  176.1360  136.8950 N   0  0  0  0  0  2  0  0  0  0  0  0
  189.5790  177.1900  137.3300 O   0  0  0  0  0  0  0  0  0  0  0  0
  190.9460  176.0270  135.1560 C   0  0  0  0  0  2  0  0  0  0  0  0
  192.8080  175.5070  136.6950 C   0  0  1  0  0  3  0  0  0  0  0  0
  191.8180  174.9000  135.7170 C   0  0  1  0  0  0  0  0  0  0  0  0
  191.0010  173.9680  136.5960 C   0  0  0  0  0  2  0  0  0  0  0  0
  192.4600  174.0850  134.5970 C   0  0  0  0  0  1  0  0  0  0  0  0
  192.6070  174.7170  137.9650 C   0  0  0  0  0  2  0  0  0  0  0  0
  191.2980  174.2190  137.9480 O   0  0  0  0  0  0  0  0  0  0  0  0
  196.0060  176.6590  135.0970 C   0  0  0  0  0  3  0  0  0  0  0  0
  195.1340  174.5840  136.7180 C   0  0  0  0  0  3  0  0  0  0  0  0
  196.9200  175.6920  135.5230 C   0  0  0  0  0  3  0  0  0  0  0  0
  194.7010  176.5780  135.4740 N   0  0  0  0  0  0  0  0  0  0  0  0
  196.4770  174.6510  136.3410 C   0  0  0  0  0  3  0  0  0  0  0  0
  194.2470  175.5610  136.2620 C   0  0  0  0  0  0  0  0  0  0  0  0
  187.2770  178.4410  139.6900 N   0  0  0  0  0  2  0  0  0  0  0  0
  188.6320  178.6330  140.1730 C   0  0  1  0  0  3  0  0  0  0  0  0
  188.5960  179.3380  141.5160 C   0  0  0  0  0  1  0  0  0  0  0  0
  189.3130  177.2740  140.2920 C   0  0  0  0  0  2  0  0  0  0  0  0
  191.7380  177.1290  143.0180 O   0  0  0  0  0  0  0  0  0  0  0  0
  190.5840  177.3840  141.0010 N   0  0  0  0  0  0  0  0  0  0  0  0
  190.7190  176.8500  142.3300 C   0  0  0  0  0  0  0  0  0  0  0  0
  190.2010  174.7910  143.4080 O   0  0  0  0  0  1  0  0  0  0  0  0
  189.6500  175.9770  142.9190 C   0  0  1  0  0  3  0  0  0  0  0  0
  186.4960  178.7960  147.2720 Cl  0  0  0  0  0  0  0  0  0  0  0  0
  187.5190  176.9620  143.8090 C   0  0  0  0  0  3  0  0  0  0  0  0
  189.5120  177.0630  145.1840 C   0  0  0  0  0  0  0  0  0  0  0  0
  187.4120  177.9800  146.0050 C   0  0  0  0  0  0  0  0  0  0  0  0
  190.8380  176.8150  145.3280 F   0  0  0  0  0  0  0  0  0  0  0  0
  188.8780  176.6860  143.9900 C   0  0  0  0  0  0  0  0  0  0  0  0
  188.7760  177.7010  146.2090 C   0  0  0  0  0  0  0  0  0  0  0  0
  186.7860  177.6120  144.8020 C   0  0  0  0  0  0  0  0  0  0  0  0
  190.2940  177.2910  148.1550 C   0  0  0  0  0  1  0  0  0  0  0  0
  189.3500  178.0730  147.4350 O   0  0  0  0  0  0  0  0  0  0  0  0
  185.3370  177.8870  144.5610 C   0  0  0  0  0  2  0  0  0  0  0  0
  185.5500  179.8940  142.5930 C   0  0  0  0  0  1  0  0  0  0  0  0
  185.0340  178.1850  142.8090 S   0  0  2  0  0  0  0  0  0  0  0  0
  183.5170  178.2680  142.7160 O   0  0  0  0  0  0  0  0  0  0  0  0
  191.6870  178.0960  140.3570 C   0  0  0  0  0  2  0  0  0  0  0  0
  192.6030  177.1270  139.6250 C   0  0  0  0  0  2  0  0  0  0  0  0
  193.9920  177.4770  139.8640 N   0  0  0  0  0  1  0  0  0  0  0  0
  1 17  1  6  0  0  0
  1  2  1  0  0  0  0
  2 32  1  1  0  0  0
  3  1  1  0  0  0  0
  3  2  1  0  0  0  0
  3 10  1  1  0  0  0
  4  7  2  0  0  0  0
  5 10  1  0  0  0  0
  5  6  1  1  0  0  0
  5  9  1  0  0  0  0
  7  9  1  0  0  0  0
  8  4  1  0  0  0  0
  9  6  1  6  0  0  0
 10 11  1  6  0  0  0
 11  8  2  0  0  0  0
 12  4  1  0  0  0  0
 12 13  1  0  0  0  0
 14 15  1  0  0  0  0
 15 16  1  0  0  0  0
 16 17  1  0  0  0  0
 16 18  2  0  0  0  0
 19 15  1  0  0  0  0
 19 21  1  0  0  0  0
 20 31  1  6  0  0  0
 20 24  1  0  0  0  0
 21 23  1  6  0  0  0
 21 22  1  0  0  0  0
 21 20  1  0  0  0  0
 22 25  1  0  0  0  0
 25 24  1  0  0  0  0
 26 29  2  0  0  0  0
 26 28  1  0  0  0  0
 28 30  2  0  0  0  0
 29 31  1  0  0  0  0
 30 27  1  0  0  0  0
 31 27  2  0  0  0  0
 32 33  1  0  0  0  0
 33 35  1  0  0  0  0
 33 34  1  1  0  0  0
 35 37  1  0  0  0  0
 37 38  1  0  0  0  0
 38 40  1  0  0  0  0
 38 36  2  0  0  0  0
 40 39  1  1  0  0  0
 40 46  1  0  0  0  0
 42 46  2  0  0  0  0
 42 48  1  0  0  0  0
 43 45  1  0  0  0  0
 43 47  2  0  0  0  0
 44 47  1  0  0  0  0
 44 41  1  0  0  0  0
 46 43  1  0  0  0  0
 47 50  1  0  0  0  0
 48 44  2  0  0  0  0
 50 49  1  0  0  0  0
 51 48  1  0  0  0  0
 53 52  1  1  0  0  0
 53 51  1  0  0  0  0
 54 53  2  0  0  0  0
 55 37  1  0  0  0  0
 56 57  1  0  0  0  0
 56 55  1  0  0  0  0
M  END
>  <MODEL>
9

>  <REMARK>
 VINA RESULT:      -5.6      3.058      9.221
  Name = 
  17 active torsions:
  status: ('A' for Active; 'I' for Inactive)
    1  A    between atoms: C_5  and  O_8
    2  A    between atoms: N_7  and  C_11
    3  A    between atoms: C_11  and  C_30
    4  A    between atoms: C_12  and  N_47
    5  A    between atoms: C_12  and  C_55
    6  A    between atoms: C_14  and  C_24
    7  A    between atoms: C_14  and  C_35
    8  A    between atoms: N_16  and  C_44
    9  A    between atoms: N_16  and  C_55
   10  A    between atoms: C_19  and  C_57
   11  A    between atoms: C_22  and  N_41
   12  A    between atoms: C_33  and  C_44
   13  A    between atoms: S_34  and  C_43
   14  A    between atoms: C_38  and  N_47
   15  A    between atoms: C_39  and  O_48
   16  A    between atoms: C_43  and  C_45
   17  A    between atoms: C_50  and  C_52
                            x       y       z     vdW  Elec       q    Type
                         _______ _______ _______ _____ _____    ______ ____

>  <TORSDO>
F 17

$$$$
