=
 OpenBabel11042411203D

 25 27  0  0  1  0  0  0  0  0999 V2000
  188.4400  177.8670  141.2050 C   0  0  0  0  0  0  0  0  0  0  0  0
  186.6720  178.1280  142.4560 C   0  0  0  0  0  0  0  0  0  0  0  0
  184.9630  179.6780  139.6800 O   0  0  0  0  0  0  0  0  0  0  0  0
  189.7960  177.8630  139.2710 N   0  0  0  0  0  0  0  0  0  0  0  0
  188.0070  177.7110  142.5070 C   0  0  0  0  0  3  0  0  0  0  0  0
  185.0280  179.0000  140.7420 C   0  0  0  0  0  0  0  0  0  0  0  0
  190.6420  177.1710  141.2710 O   0  0  0  0  0  0  0  0  0  0  0  0
  187.5380  178.5860  139.1270 N   0  0  0  0  0  2  0  0  0  0  0  0
  186.3040  178.5110  141.2010 N   0  0  0  0  0  0  0  0  0  0  0  0
  188.7450  178.3410  138.5350 C   0  0  0  0  0  3  0  0  0  0  0  0
  187.4110  178.3470  140.4570 C   0  0  0  0  0  0  0  0  0  0  0  0
  189.6690  177.6160  140.6070 C   0  0  0  0  0  0  0  0  0  0  0  0
  183.7620  178.7200  141.5130 C   0  0  1  0  0  3  0  0  0  0  0  0
  182.5900  179.2530  140.7960 N   0  0  0  0  0  2  0  0  0  0  0  0
  182.8010  177.7990  140.8600 C   0  0  1  0  0  3  0  0  0  0  0  0
  183.1940  177.2800  139.4770 C   0  0  1  0  0  3  0  0  0  0  0  0
  182.9060  175.8590  139.3930 N   0  0  0  0  0  1  0  0  0  0  0  0
  182.4710  177.9590  138.4950 O   0  0  0  0  0  0  0  0  0  0  0  0
  183.1690  177.7220  137.3100 C   0  0  0  0  0  1  0  0  0  0  0  0
  185.7840  178.1560  143.6560 C   0  0  0  0  0  2  0  0  0  0  0  0
  186.3710  177.2920  144.7530 C   0  0  0  0  0  2  0  0  0  0  0  0
  186.6960  178.1560  145.9620 C   0  0  0  0  0  2  0  0  0  0  0  0
  187.8040  177.5580  146.8260 C   0  0  0  0  0  3  0  0  0  0  0  0
  189.1450  177.5860  146.1140 C   0  0  0  0  0  1  0  0  0  0  0  0
  187.9040  178.2570  148.1700 C   0  0  0  0  0  1  0  0  0  0  0  0
  1  5  1  0  0  0  0
  2  5  2  0  0  0  0
  2 20  1  0  0  0  0
  3  6  2  0  0  0  0
  4 12  1  0  0  0  0
  6  9  1  0  0  0  0
  8 11  1  0  0  0  0
  9  2  1  0  0  0  0
 10  8  1  0  0  0  0
 10  4  2  0  0  0  0
 11  9  1  0  0  0  0
 11  1  2  0  0  0  0
 12  1  1  0  0  0  0
 12  7  2  0  0  0  0
 13  6  1  6  0  0  0
 14 15  1  0  0  0  0
 14 13  1  0  0  0  0
 15 16  1  6  0  0  0
 15 13  1  0  0  0  0
 16 17  1  1  0  0  0
 18 16  1  0  0  0  0
 19 18  1  0  0  0  0
 20 21  1  0  0  0  0
 21 22  1  0  0  0  0
 22 23  1  0  0  0  0
 23 25  1  0  0  0  0
 24 23  1  0  0  0  0
M  END
>  <MODEL>
1

>  <REMARK>
 VINA RESULT:      -7.2      0.000      0.000
  Name = 
  7 active torsions:
  status: ('A' for Active; 'I' for Inactive)
    1  A    between atoms: C_2  and  C_3
    2  A    between atoms: C_2  and  C_5
    3  A    between atoms: C_3  and  C_20
    4  A    between atoms: C_4  and  C_20
    5  A    between atoms: C_7  and  C_13
    6  A    between atoms: O_10  and  C_16
    7  A    between atoms: C_16  and  C_22
                            x       y       z     vdW  Elec       q    Type
                         _______ _______ _______ _____ _____    ______ ____

>  <TORSDO>
F 7

$$$$
=
 OpenBabel11042411203D

 25 27  0  0  1  0  0  0  0  0999 V2000
  189.1750  177.3880  141.0790 C   0  0  0  0  0  0  0  0  0  0  0  0
  187.7850  177.3910  142.7600 C   0  0  0  0  0  0  0  0  0  0  0  0
  185.6730  179.7160  140.9820 O   0  0  0  0  0  0  0  0  0  0  0  0
  190.0400  177.8370  138.9270 N   0  0  0  0  0  2  0  0  0  0  0  0
  189.0380  176.9090  142.3670 C   0  0  0  0  0  3  0  0  0  0  0  0
  185.9020  178.7750  141.7890 C   0  0  0  0  0  0  0  0  0  0  0  0
  191.2370  176.5890  140.4110 O   0  0  0  0  0  0  0  0  0  0  0  0
  187.9080  178.6860  139.5430 N   0  0  0  0  0  0  0  0  0  0  0  0
  187.1840  178.1160  141.7750 N   0  0  0  0  0  0  0  0  0  0  0  0
  188.9100  178.5490  138.6240 C   0  0  0  0  0  3  0  0  0  0  0  0
  188.0640  178.1040  140.7590 C   0  0  0  0  0  0  0  0  0  0  0  0
  190.1960  177.2460  140.1470 C   0  0  0  0  0  0  0  0  0  0  0  0
  184.8240  178.3610  142.7600 C   0  0  1  0  0  3  0  0  0  0  0  0
  183.7160  179.3340  142.7490 N   0  0  0  0  0  2  0  0  0  0  0  0
  183.5180  178.0020  142.1570 C   0  0  1  0  0  3  0  0  0  0  0  0
  183.4170  178.1300  140.6370 C   0  0  1  0  0  3  0  0  0  0  0  0
  183.0450  176.8480  140.0660 N   0  0  0  0  0  1  0  0  0  0  0  0
  182.4500  179.0820  140.3070 O   0  0  0  0  0  0  0  0  0  0  0  0
  182.8610  179.5960  139.0760 C   0  0  0  0  0  1  0  0  0  0  0  0
  187.2060  177.1380  144.1120 C   0  0  0  0  0  2  0  0  0  0  0  0
  188.1030  177.7350  145.1780 C   0  0  0  0  0  2  0  0  0  0  0  0
  187.4070  177.6570  146.5300 C   0  0  0  0  0  2  0  0  0  0  0  0
  188.3360  177.1600  147.6350 C   0  0  0  0  0  3  0  0  0  0  0  0
  189.7260  176.8580  147.1030 C   0  0  0  0  0  1  0  0  0  0  0  0
  188.4130  178.1480  148.7860 C   0  0  0  0  0  1  0  0  0  0  0  0
  1  5  1  0  0  0  0
  2 20  1  0  0  0  0
  3  6  2  0  0  0  0
  4 12  1  0  0  0  0
  5  2  2  0  0  0  0
  8 11  1  0  0  0  0
  9  6  1  0  0  0  0
  9  2  1  0  0  0  0
 10  4  1  0  0  0  0
 10  8  2  0  0  0  0
 11  1  2  0  0  0  0
 11  9  1  0  0  0  0
 12  7  2  0  0  0  0
 12  1  1  0  0  0  0
 13  6  1  6  0  0  0
 14 13  1  0  0  0  0
 15 16  1  6  0  0  0
 15 14  1  0  0  0  0
 15 13  1  0  0  0  0
 16 17  1  6  0  0  0
 18 16  1  0  0  0  0
 19 18  1  0  0  0  0
 20 21  1  0  0  0  0
 21 22  1  0  0  0  0
 22 23  1  0  0  0  0
 23 25  1  0  0  0  0
 24 23  1  0  0  0  0
M  END
>  <MODEL>
2

>  <REMARK>
 VINA RESULT:      -7.0      1.245      1.404
  Name = 
  7 active torsions:
  status: ('A' for Active; 'I' for Inactive)
    1  A    between atoms: C_2  and  C_3
    2  A    between atoms: C_2  and  C_5
    3  A    between atoms: C_3  and  C_20
    4  A    between atoms: C_4  and  C_20
    5  A    between atoms: C_7  and  C_13
    6  A    between atoms: O_10  and  C_16
    7  A    between atoms: C_16  and  C_22
                            x       y       z     vdW  Elec       q    Type
                         _______ _______ _______ _____ _____    ______ ____

>  <TORSDO>
F 7

$$$$
=
 OpenBabel11042411203D

 25 27  0  0  1  0  0  0  0  0999 V2000
  185.7410  178.2580  144.8650 C   0  0  0  0  0  0  0  0  0  0  0  0
  187.6150  177.6290  143.9410 C   0  0  0  0  0  0  0  0  0  0  0  0
  186.3120  178.5650  140.7080 O   0  0  0  0  0  0  0  0  0  0  0  0
  183.5880  179.2090  145.0660 N   0  0  0  0  0  0  0  0  0  0  0  0
  186.9390  177.6400  145.1660 C   0  0  0  0  0  3  0  0  0  0  0  0
  187.2250  178.3900  141.5590 C   0  0  0  0  0  0  0  0  0  0  0  0
  184.6170  178.2950  146.8820 O   0  0  0  0  0  0  0  0  0  0  0  0
  184.6880  179.2130  142.9600 N   0  0  0  0  0  2  0  0  0  0  0  0
  186.8830  178.2090  142.9480 N   0  0  0  0  0  0  0  0  0  0  0  0
  183.6060  179.5270  143.7340 C   0  0  0  0  0  3  0  0  0  0  0  0
  185.7360  178.5780  143.5420 C   0  0  0  0  0  0  0  0  0  0  0  0
  184.6430  178.5760  145.6550 C   0  0  0  0  0  0  0  0  0  0  0  0
  188.6620  178.3680  141.1010 C   0  0  1  0  0  3  0  0  0  0  0  0
  189.0170  177.0390  140.5720 N   0  0  0  0  0  2  0  0  0  0  0  0
  188.8700  178.1720  139.6470 C   0  0  1  0  0  3  0  0  0  0  0  0
  187.6100  177.9800  138.8020 C   0  0  1  0  0  3  0  0  0  0  0  0
  187.6200  178.9230  137.6970 N   0  0  0  0  0  1  0  0  0  0  0  0
  187.5710  176.6780  138.3010 O   0  0  0  0  0  0  0  0  0  0  0  0
  186.6640  176.7300  137.2430 C   0  0  0  0  0  1  0  0  0  0  0  0
  188.9710  177.0300  143.7680 C   0  0  0  0  0  2  0  0  0  0  0  0
  189.9760  177.7690  144.6280 C   0  0  0  0  0  2  0  0  0  0  0  0
  191.0640  176.8060  145.0810 C   0  0  0  0  0  2  0  0  0  0  0  0
  191.2690  176.8280  146.5940 C   0  0  0  0  0  3  0  0  0  0  0  0
  189.9450  176.8330  147.3370 C   0  0  0  0  0  1  0  0  0  0  0  0
  192.1320  175.6690  147.0580 C   0  0  0  0  0  1  0  0  0  0  0  0
  1  5  1  0  0  0  0
  1 12  1  0  0  0  0
  2  5  2  0  0  0  0
  3  6  2  0  0  0  0
  4 12  1  0  0  0  0
  6  9  1  0  0  0  0
  8 11  1  0  0  0  0
  8 10  1  0  0  0  0
  9 11  1  0  0  0  0
  9  2  1  0  0  0  0
 10  4  2  0  0  0  0
 11  1  2  0  0  0  0
 12  7  2  0  0  0  0
 13  6  1  6  0  0  0
 14 13  1  0  0  0  0
 15 16  1  6  0  0  0
 15 14  1  0  0  0  0
 15 13  1  0  0  0  0
 16 17  1  6  0  0  0
 18 16  1  0  0  0  0
 19 18  1  0  0  0  0
 20  2  1  0  0  0  0
 20 21  1  0  0  0  0
 21 22  1  0  0  0  0
 22 23  1  0  0  0  0
 23 25  1  0  0  0  0
 23 24  1  0  0  0  0
M  END
>  <MODEL>
3

>  <REMARK>
 VINA RESULT:      -7.0      2.607      4.993
  Name = 
  7 active torsions:
  status: ('A' for Active; 'I' for Inactive)
    1  A    between atoms: C_2  and  C_3
    2  A    between atoms: C_2  and  C_5
    3  A    between atoms: C_3  and  C_20
    4  A    between atoms: C_4  and  C_20
    5  A    between atoms: C_7  and  C_13
    6  A    between atoms: O_10  and  C_16
    7  A    between atoms: C_16  and  C_22
                            x       y       z     vdW  Elec       q    Type
                         _______ _______ _______ _____ _____    ______ ____

>  <TORSDO>
F 7

$$$$
=
 OpenBabel11042411203D

 25 27  0  0  1  0  0  0  0  0999 V2000
  189.0100  177.9010  139.2780 C   0  0  0  0  0  0  0  0  0  0  0  0
  187.8290  178.3910  141.0460 C   0  0  0  0  0  0  0  0  0  0  0  0
  189.5440  175.8000  142.8830 O   0  0  0  0  0  0  0  0  0  0  0  0
  190.6730  176.8810  137.9450 N   0  0  0  0  0  2  0  0  0  0  0  0
  187.9560  178.6950  139.6860 C   0  0  0  0  0  3  0  0  0  0  0  0
  188.9430  176.9020  142.7620 C   0  0  0  0  0  0  0  0  0  0  0  0
  189.2400  178.4020  137.0350 O   0  0  0  0  0  0  0  0  0  0  0  0
  190.4990  176.3230  140.2480 N   0  0  0  0  0  0  0  0  0  0  0  0
  188.7490  177.4710  141.4520 N   0  0  0  0  0  0  0  0  0  0  0  0
  191.1080  176.1730  139.0340 C   0  0  0  0  0  3  0  0  0  0  0  0
  189.4540  177.1840  140.3450 C   0  0  0  0  0  0  0  0  0  0  0  0
  189.6270  177.7520  138.0410 C   0  0  0  0  0  0  0  0  0  0  0  0
  188.4320  177.6000  143.9980 C   0  0  1  0  0  3  0  0  0  0  0  0
  188.8080  176.8490  145.2090 N   0  0  0  0  0  2  0  0  0  0  0  0
  189.4710  178.1280  144.9140 C   0  0  1  0  0  3  0  0  0  0  0  0
  190.9230  177.8680  144.5120 C   0  0  1  0  0  3  0  0  0  0  0  0
  191.4930  179.0780  143.9450 N   0  0  0  0  0  1  0  0  0  0  0  0
  191.6630  177.4890  145.6340 O   0  0  0  0  0  0  0  0  0  0  0  0
  191.8840  176.1220  145.4700 C   0  0  0  0  0  1  0  0  0  0  0  0
  186.7870  179.0040  141.9210 C   0  0  0  0  0  2  0  0  0  0  0  0
  185.4080  178.7090  141.3660 C   0  0  0  0  0  2  0  0  0  0  0  0
  184.5600  178.0410  142.4400 C   0  0  0  0  0  2  0  0  0  0  0  0
  184.0680  179.0310  143.4930 C   0  0  0  0  0  3  0  0  0  0  0  0
  182.5520  179.0490  143.5770 C   0  0  0  0  0  1  0  0  0  0  0  0
  184.6700  178.7420  144.8570 C   0  0  0  0  0  1  0  0  0  0  0  0
  1  5  1  0  0  0  0
  1 11  2  0  0  0  0
  2  9  1  0  0  0  0
  2 20  1  0  0  0  0
  4 12  1  0  0  0  0
  4 10  1  0  0  0  0
  5  2  2  0  0  0  0
  6  3  2  0  0  0  0
  7 12  2  0  0  0  0
  8 11  1  0  0  0  0
  9  6  1  0  0  0  0
 10  8  2  0  0  0  0
 11  9  1  0  0  0  0
 12  1  1  0  0  0  0
 13  6  1  6  0  0  0
 13 15  1  0  0  0  0
 13 14  1  0  0  0  0
 15 16  1  6  0  0  0
 15 14  1  0  0  0  0
 16 17  1  1  0  0  0
 16 18  1  0  0  0  0
 19 18  1  0  0  0  0
 21 20  1  0  0  0  0
 21 22  1  0  0  0  0
 22 23  1  0  0  0  0
 23 24  1  0  0  0  0
 23 25  1  0  0  0  0
M  END
>  <MODEL>
4

>  <REMARK>
 VINA RESULT:      -6.8      3.246      6.062
  Name = 
  7 active torsions:
  status: ('A' for Active; 'I' for Inactive)
    1  A    between atoms: C_2  and  C_3
    2  A    between atoms: C_2  and  C_5
    3  A    between atoms: C_3  and  C_20
    4  A    between atoms: C_4  and  C_20
    5  A    between atoms: C_7  and  C_13
    6  A    between atoms: O_10  and  C_16
    7  A    between atoms: C_16  and  C_22
                            x       y       z     vdW  Elec       q    Type
                         _______ _______ _______ _____ _____    ______ ____

>  <TORSDO>
F 7

$$$$
=
 OpenBabel11042411203D

 25 27  0  0  1  0  0  0  0  0999 V2000
  189.3080  177.3090  140.5180 C   0  0  0  0  0  0  0  0  0  0  0  0
  188.0990  177.2650  142.3340 C   0  0  0  0  0  0  0  0  0  0  0  0
  185.8870  179.7280  140.8970 O   0  0  0  0  0  0  0  0  0  0  0  0
  189.9580  177.8420  138.3100 N   0  0  0  0  0  2  0  0  0  0  0  0
  189.2900  176.7710  141.7900 C   0  0  0  0  0  3  0  0  0  0  0  0
  186.1690  178.7420  141.6310 C   0  0  0  0  0  0  0  0  0  0  0  0
  191.2640  176.4930  139.6010 O   0  0  0  0  0  0  0  0  0  0  0  0
  187.9280  178.7130  139.1850 N   0  0  0  0  0  0  0  0  0  0  0  0
  187.4220  178.0530  141.4520 N   0  0  0  0  0  0  0  0  0  0  0  0
  188.8250  178.5960  138.1610 C   0  0  0  0  0  3  0  0  0  0  0  0
  188.1910  178.0680  140.3500 C   0  0  0  0  0  0  0  0  0  0  0  0
  190.2220  177.1880  139.4780 C   0  0  0  0  0  0  0  0  0  0  0  0
  185.1850  178.3090  142.6890 C   0  0  1  0  0  3  0  0  0  0  0  0
  184.0880  179.2860  142.8080 N   0  0  0  0  0  2  0  0  0  0  0  0
  183.8260  177.9710  142.2050 C   0  0  1  0  0  3  0  0  0  0  0  0
  183.5810  178.1380  140.7050 C   0  0  1  0  0  3  0  0  0  0  0  0
  183.1030  176.8840  140.1490 N   0  0  0  0  0  1  0  0  0  0  0  0
  182.6280  179.1340  140.4900 O   0  0  0  0  0  0  0  0  0  0  0  0
  182.8210  179.5340  139.1670 C   0  0  0  0  0  1  0  0  0  0  0  0
  187.6560  176.9610  143.7270 C   0  0  0  0  0  2  0  0  0  0  0  0
  188.3280  177.9070  144.7010 C   0  0  0  0  0  2  0  0  0  0  0  0
  189.3330  177.1370  145.5460 C   0  0  0  0  0  2  0  0  0  0  0  0
  190.7750  177.5420  145.2500 C   0  0  0  0  0  3  0  0  0  0  0  0
  191.5650  176.3950  144.6450 C   0  0  0  0  0  1  0  0  0  0  0  0
  190.8400  178.7620  144.3490 C   0  0  0  0  0  1  0  0  0  0  0  0
  1  5  1  0  0  0  0
  2 20  1  0  0  0  0
  3  6  2  0  0  0  0
  4 12  1  0  0  0  0
  5  2  2  0  0  0  0
  8 11  1  0  0  0  0
  9  6  1  0  0  0  0
  9  2  1  0  0  0  0
 10  4  1  0  0  0  0
 10  8  2  0  0  0  0
 11  1  2  0  0  0  0
 11  9  1  0  0  0  0
 12  7  2  0  0  0  0
 12  1  1  0  0  0  0
 13  6  1  6  0  0  0
 13 14  1  0  0  0  0
 15 16  1  6  0  0  0
 15 13  1  0  0  0  0
 15 14  1  0  0  0  0
 16 17  1  1  0  0  0
 18 16  1  0  0  0  0
 19 18  1  0  0  0  0
 20 21  1  0  0  0  0
 21 22  1  0  0  0  0
 23 22  1  0  0  0  0
 24 23  1  0  0  0  0
 25 23  1  0  0  0  0
M  END
>  <MODEL>
5

>  <REMARK>
 VINA RESULT:      -6.7      1.585      2.111
  Name = 
  7 active torsions:
  status: ('A' for Active; 'I' for Inactive)
    1  A    between atoms: C_2  and  C_3
    2  A    between atoms: C_2  and  C_5
    3  A    between atoms: C_3  and  C_20
    4  A    between atoms: C_4  and  C_20
    5  A    between atoms: C_7  and  C_13
    6  A    between atoms: O_10  and  C_16
    7  A    between atoms: C_16  and  C_22
                            x       y       z     vdW  Elec       q    Type
                         _______ _______ _______ _____ _____    ______ ____

>  <TORSDO>
F 7

$$$$
=
 OpenBabel11042411203D

 25 27  0  0  1  0  0  0  0  0999 V2000
  189.0980  177.2750  144.7690 C   0  0  0  0  0  0  0  0  0  0  0  0
  187.9400  177.8560  143.0130 C   0  0  0  0  0  0  0  0  0  0  0  0
  190.9160  177.5870  140.9890 O   0  0  0  0  0  0  0  0  0  0  0  0
  190.9290  176.5220  146.0570 N   0  0  0  0  0  0  0  0  0  0  0  0
  187.8410  177.7150  144.4020 C   0  0  0  0  0  3  0  0  0  0  0  0
  189.6740  177.5310  141.1990 C   0  0  0  0  0  0  0  0  0  0  0  0
  188.9460  177.0250  147.0600 O   0  0  0  0  0  0  0  0  0  0  0  0
  191.1560  176.7480  143.7030 N   0  0  0  0  0  2  0  0  0  0  0  0
  189.1780  177.5190  142.5520 N   0  0  0  0  0  0  0  0  0  0  0  0
  191.6860  176.4220  144.9200 C   0  0  0  0  0  3  0  0  0  0  0  0
  189.8680  177.1750  143.6520 C   0  0  0  0  0  0  0  0  0  0  0  0
  189.6320  176.9440  146.0080 C   0  0  0  0  0  0  0  0  0  0  0  0
  188.7320  177.4850  140.0220 C   0  0  1  0  0  3  0  0  0  0  0  0
  189.2600  178.2850  138.9030 N   0  0  0  0  0  2  0  0  0  0  0  0
  189.2540  176.8180  138.8050 C   0  0  1  0  0  3  0  0  0  0  0  0
  190.6890  176.2970  138.8820 C   0  0  1  0  0  3  0  0  0  0  0  0
  190.7450  174.9500  138.3410 N   0  0  0  0  0  1  0  0  0  0  0  0
  191.5330  177.1280  138.1450 O   0  0  0  0  0  0  0  0  0  0  0  0
  192.7010  176.3860  137.9710 C   0  0  0  0  0  1  0  0  0  0  0  0
  186.8120  178.3380  142.1630 C   0  0  0  0  0  2  0  0  0  0  0  0
  185.4910  178.0630  142.8540 C   0  0  0  0  0  2  0  0  0  0  0  0
  184.6960  179.3560  142.9640 C   0  0  0  0  0  2  0  0  0  0  0  0
  183.8920  179.4380  144.2590 C   0  0  0  0  0  3  0  0  0  0  0  0
  182.4530  179.0010  144.0520 C   0  0  0  0  0  1  0  0  0  0  0  0
  184.5370  178.6280  145.3700 C   0  0  0  0  0  1  0  0  0  0  0  0
  1 12  1  0  0  0  0
  2  5  2  0  0  0  0
  3  6  2  0  0  0  0
  5  1  1  0  0  0  0
  6  9  1  0  0  0  0
  8 10  1  0  0  0  0
  9  2  1  0  0  0  0
  9 11  1  0  0  0  0
 10  4  2  0  0  0  0
 11  8  1  0  0  0  0
 11  1  2  0  0  0  0
 12  4  1  0  0  0  0
 12  7  2  0  0  0  0
 13  6  1  1  0  0  0
 14 13  1  0  0  0  0
 15 16  1  1  0  0  0
 15 14  1  0  0  0  0
 15 13  1  0  0  0  0
 16 17  1  6  0  0  0
 18 16  1  0  0  0  0
 19 18  1  0  0  0  0
 20 21  1  0  0  0  0
 20  2  1  0  0  0  0
 21 22  1  0  0  0  0
 22 23  1  0  0  0  0
 23 25  1  0  0  0  0
 24 23  1  0  0  0  0
M  END
>  <MODEL>
6

>  <REMARK>
 VINA RESULT:      -6.6      3.642      5.860
  Name = 
  7 active torsions:
  status: ('A' for Active; 'I' for Inactive)
    1  A    between atoms: C_2  and  C_3
    2  A    between atoms: C_2  and  C_5
    3  A    between atoms: C_3  and  C_20
    4  A    between atoms: C_4  and  C_20
    5  A    between atoms: C_7  and  C_13
    6  A    between atoms: O_10  and  C_16
    7  A    between atoms: C_16  and  C_22
                            x       y       z     vdW  Elec       q    Type
                         _______ _______ _______ _____ _____    ______ ____

>  <TORSDO>
F 7

$$$$
=
 OpenBabel11042411203D

 25 27  0  0  1  0  0  0  0  0999 V2000
  189.1040  177.4220  143.0240 C   0  0  0  0  0  0  0  0  0  0  0  0
  187.3630  178.0840  141.8880 C   0  0  0  0  0  0  0  0  0  0  0  0
  189.4570  178.5350  138.9830 O   0  0  0  0  0  0  0  0  0  0  0  0
  191.3250  176.7560  143.4740 N   0  0  0  0  0  0  0  0  0  0  0  0
  187.7660  177.7290  143.1800 C   0  0  0  0  0  3  0  0  0  0  0  0
  188.3750  178.2740  139.5770 C   0  0  0  0  0  0  0  0  0  0  0  0
  189.7820  176.8230  145.1490 O   0  0  0  0  0  0  0  0  0  0  0  0
  190.6970  177.3530  141.2620 N   0  0  0  0  0  2  0  0  0  0  0  0
  188.3850  177.9960  140.9910 N   0  0  0  0  0  0  0  0  0  0  0  0
  191.6430  176.9320  142.1530 C   0  0  0  0  0  3  0  0  0  0  0  0
  189.4420  177.5960  141.7180 C   0  0  0  0  0  0  0  0  0  0  0  0
  190.0630  176.9940  143.9340 C   0  0  0  0  0  0  0  0  0  0  0  0
  187.0890  178.2670  138.7900 C   0  0  1  0  0  3  0  0  0  0  0  0
  187.3230  178.7300  137.4100 N   0  0  0  0  0  2  0  0  0  0  0  0
  187.0320  177.3100  137.6580 C   0  0  1  0  0  3  0  0  0  0  0  0
  188.2920  176.4810  137.4090 C   0  0  1  0  0  3  0  0  0  0  0  0
  187.9280  175.0870  137.2270 N   0  0  0  0  0  1  0  0  0  0  0  0
  188.9430  176.9440  136.2640 O   0  0  0  0  0  0  0  0  0  0  0  0
  190.2240  176.3980  136.3370 C   0  0  0  0  0  1  0  0  0  0  0  0
  185.9730  178.5190  141.5620 C   0  0  0  0  0  2  0  0  0  0  0  0
  185.0590  178.2560  142.7420 C   0  0  0  0  0  2  0  0  0  0  0  0
  184.8180  179.5540  143.4980 C   0  0  0  0  0  2  0  0  0  0  0  0
  183.9200  179.3600  144.7180 C   0  0  0  0  0  3  0  0  0  0  0  0
  182.6340  178.6380  144.3560 C   0  0  0  0  0  1  0  0  0  0  0  0
  184.6430  178.6260  145.8330 C   0  0  0  0  0  1  0  0  0  0  0  0
  1  5  1  0  0  0  0
  1 12  1  0  0  0  0
  2  5  2  0  0  0  0
  3  6  2  0  0  0  0
  4 12  1  0  0  0  0
  6  9  1  0  0  0  0
  8 11  1  0  0  0  0
  8 10  1  0  0  0  0
  9 11  1  0  0  0  0
  9  2  1  0  0  0  0
 10  4  2  0  0  0  0
 11  1  2  0  0  0  0
 12  7  2  0  0  0  0
 13  6  1  1  0  0  0
 14 15  1  0  0  0  0
 14 13  1  0  0  0  0
 15 16  1  1  0  0  0
 15 13  1  0  0  0  0
 16 17  1  6  0  0  0
 18 19  1  0  0  0  0
 18 16  1  0  0  0  0
 20  2  1  0  0  0  0
 20 21  1  0  0  0  0
 21 22  1  0  0  0  0
 22 23  1  0  0  0  0
 23 25  1  0  0  0  0
 24 23  1  0  0  0  0
M  END
>  <MODEL>
7

>  <REMARK>
 VINA RESULT:      -6.5      3.163      4.431
  Name = 
  7 active torsions:
  status: ('A' for Active; 'I' for Inactive)
    1  A    between atoms: C_2  and  C_3
    2  A    between atoms: C_2  and  C_5
    3  A    between atoms: C_3  and  C_20
    4  A    between atoms: C_4  and  C_20
    5  A    between atoms: C_7  and  C_13
    6  A    between atoms: O_10  and  C_16
    7  A    between atoms: C_16  and  C_22
                            x       y       z     vdW  Elec       q    Type
                         _______ _______ _______ _____ _____    ______ ____

>  <TORSDO>
F 7

$$$$
=
 OpenBabel11042411203D

 25 27  0  0  1  0  0  0  0  0999 V2000
  188.9690  177.8380  139.2460 C   0  0  0  0  0  0  0  0  0  0  0  0
  187.7410  178.2350  141.0040 C   0  0  0  0  0  0  0  0  0  0  0  0
  189.6420  175.7910  142.8590 O   0  0  0  0  0  0  0  0  0  0  0  0
  190.7170  176.9510  137.9270 N   0  0  0  0  0  2  0  0  0  0  0  0
  187.8540  178.5470  139.6440 C   0  0  0  0  0  3  0  0  0  0  0  0
  188.9560  176.8420  142.7320 C   0  0  0  0  0  0  0  0  0  0  0  0
  189.1760  178.3520  137.0030 O   0  0  0  0  0  0  0  0  0  0  0  0
  190.5710  176.3830  140.2290 N   0  0  0  0  0  0  0  0  0  0  0  0
  188.7280  177.3920  141.4190 N   0  0  0  0  0  0  0  0  0  0  0  0
  191.1990  176.2800  139.0200 C   0  0  0  0  0  3  0  0  0  0  0  0
  189.4610  177.1590  140.3170 C   0  0  0  0  0  0  0  0  0  0  0  0
  189.6050  177.7360  138.0140 C   0  0  0  0  0  0  0  0  0  0  0  0
  188.3840  177.4990  143.9620 C   0  0  1  0  0  3  0  0  0  0  0  0
  188.8100  176.7820  145.1780 N   0  0  0  0  0  2  0  0  0  0  0  0
  189.3710  178.1090  144.8850 C   0  0  1  0  0  3  0  0  0  0  0  0
  190.8420  177.9650  144.4930 C   0  0  1  0  0  3  0  0  0  0  0  0
  191.3190  179.2170  143.9320 N   0  0  0  0  0  1  0  0  0  0  0  0
  191.6010  177.6430  145.6190 O   0  0  0  0  0  0  0  0  0  0  0  0
  191.8610  176.2780  145.4960 C   0  0  0  0  0  1  0  0  0  0  0  0
  186.6470  178.7660  141.8700 C   0  0  0  0  0  2  0  0  0  0  0  0
  185.4080  179.0260  141.0380 C   0  0  0  0  0  2  0  0  0  0  0  0
  184.2480  178.2060  141.5830 C   0  0  0  0  0  2  0  0  0  0  0  0
  183.0250  178.2470  140.6700 C   0  0  0  0  0  3  0  0  0  0  0  0
  182.8280  176.9300  139.9400 C   0  0  0  0  0  1  0  0  0  0  0  0
  181.7680  178.6220  141.4350 C   0  0  0  0  0  1  0  0  0  0  0  0
  1  5  1  0  0  0  0
  1 11  2  0  0  0  0
  2  9  1  0  0  0  0
  2 20  1  0  0  0  0
  4 12  1  0  0  0  0
  4 10  1  0  0  0  0
  5  2  2  0  0  0  0
  6  3  2  0  0  0  0
  7 12  2  0  0  0  0
  8 11  1  0  0  0  0
  9  6  1  0  0  0  0
 10  8  2  0  0  0  0
 11  9  1  0  0  0  0
 12  1  1  0  0  0  0
 13  6  1  6  0  0  0
 13 15  1  0  0  0  0
 13 14  1  0  0  0  0
 15 16  1  6  0  0  0
 15 14  1  0  0  0  0
 16 17  1  1  0  0  0
 16 18  1  0  0  0  0
 19 18  1  0  0  0  0
 21 22  1  0  0  0  0
 21 20  1  0  0  0  0
 23 25  1  0  0  0  0
 23 22  1  0  0  0  0
 24 23  1  0  0  0  0
M  END
>  <MODEL>
8

>  <REMARK>
 VINA RESULT:      -6.3      3.043      6.468
  Name = 
  7 active torsions:
  status: ('A' for Active; 'I' for Inactive)
    1  A    between atoms: C_2  and  C_3
    2  A    between atoms: C_2  and  C_5
    3  A    between atoms: C_3  and  C_20
    4  A    between atoms: C_4  and  C_20
    5  A    between atoms: C_7  and  C_13
    6  A    between atoms: O_10  and  C_16
    7  A    between atoms: C_16  and  C_22
                            x       y       z     vdW  Elec       q    Type
                         _______ _______ _______ _____ _____    ______ ____

>  <TORSDO>
F 7

$$$$
=
 OpenBabel11042411203D

 25 27  0  0  1  0  0  0  0  0999 V2000
  186.2220  178.1100  143.4200 C   0  0  0  0  0  0  0  0  0  0  0  0
  188.2860  177.4180  143.2780 C   0  0  0  0  0  0  0  0  0  0  0  0
  188.1410  177.7870  139.6910 O   0  0  0  0  0  0  0  0  0  0  0  0
  184.1380  178.9960  142.7460 N   0  0  0  0  0  0  0  0  0  0  0  0
  187.2430  177.5940  144.1940 C   0  0  0  0  0  3  0  0  0  0  0  0
  188.7190  177.7830  140.8120 C   0  0  0  0  0  0  0  0  0  0  0  0
  184.4940  178.4160  144.9220 O   0  0  0  0  0  0  0  0  0  0  0  0
  185.8730  178.7140  141.1480 N   0  0  0  0  0  2  0  0  0  0  0  0
  187.9340  177.8070  142.0200 N   0  0  0  0  0  0  0  0  0  0  0  0
  184.6010  179.1020  141.4620 C   0  0  0  0  0  3  0  0  0  0  0  0
  186.6600  178.2190  142.1370 C   0  0  0  0  0  0  0  0  0  0  0  0
  184.9290  178.5040  143.7440 C   0  0  0  0  0  0  0  0  0  0  0  0
  190.2250  177.7460  140.8620 C   0  0  1  0  0  3  0  0  0  0  0  0
  190.7080  176.3540  140.9130 N   0  0  0  0  0  2  0  0  0  0  0  0
  190.8940  177.1410  139.6840 C   0  0  1  0  0  3  0  0  0  0  0  0
  189.9750  176.6000  138.5890 C   0  0  1  0  0  3  0  0  0  0  0  0
  190.1590  177.3750  137.3750 N   0  0  0  0  0  1  0  0  0  0  0  0
  190.2800  175.2610  138.3360 O   0  0  0  0  0  0  0  0  0  0  0  0
  191.6090  175.2730  137.9120 C   0  0  0  0  0  1  0  0  0  0  0  0
  189.6140  176.8540  143.6590 C   0  0  0  0  0  2  0  0  0  0  0  0
  190.2350  177.6900  144.7600 C   0  0  0  0  0  2  0  0  0  0  0  0
  191.3990  176.9320  145.3800 C   0  0  0  0  0  2  0  0  0  0  0  0
  191.2780  176.8190  146.8980 C   0  0  0  0  0  3  0  0  0  0  0  0
  189.8270  176.7720  147.3410 C   0  0  0  0  0  1  0  0  0  0  0  0
  192.0340  175.6150  147.4320 C   0  0  0  0  0  1  0  0  0  0  0  0
  1 12  1  0  0  0  0
  1  5  1  0  0  0  0
  2 20  1  0  0  0  0
  2  5  2  0  0  0  0
  3  6  2  0  0  0  0
  4 12  1  0  0  0  0
  6  9  1  0  0  0  0
  8 10  1  0  0  0  0
  8 11  1  0  0  0  0
  9 11  1  0  0  0  0
  9  2  1  0  0  0  0
 10  4  2  0  0  0  0
 11  1  2  0  0  0  0
 12  7  2  0  0  0  0
 13  6  1  6  0  0  0
 13 14  1  0  0  0  0
 15 16  1  6  0  0  0
 15 13  1  0  0  0  0
 15 14  1  0  0  0  0
 16 17  1  6  0  0  0
 18 16  1  0  0  0  0
 19 18  1  0  0  0  0
 20 21  1  0  0  0  0
 21 22  1  0  0  0  0
 22 23  1  0  0  0  0
 23 24  1  0  0  0  0
 23 25  1  0  0  0  0
M  END
>  <MODEL>
9

>  <REMARK>
 VINA RESULT:      -6.2      2.519      5.476
  Name = 
  7 active torsions:
  status: ('A' for Active; 'I' for Inactive)
    1  A    between atoms: C_2  and  C_3
    2  A    between atoms: C_2  and  C_5
    3  A    between atoms: C_3  and  C_20
    4  A    between atoms: C_4  and  C_20
    5  A    between atoms: C_7  and  C_13
    6  A    between atoms: O_10  and  C_16
    7  A    between atoms: C_16  and  C_22
                            x       y       z     vdW  Elec       q    Type
                         _______ _______ _______ _____ _____    ______ ____

>  <TORSDO>
F 7

$$$$
