=
 OpenBabel11042412373D

 41 44  0  0  1  0  0  0  0  0999 V2000
  190.3100  176.9170  141.7340 C   0  0  0  0  0  0  0  0  0  0  0  0
  190.3500  176.8010  144.2050 C   0  0  0  0  0  3  0  0  0  0  0  0
  188.9500  177.2290  141.5250 C   0  0  0  0  0  0  0  0  0  0  0  0
  188.5570  177.7580  140.2950 C   0  0  0  0  0  3  0  0  0  0  0  0
  191.2030  177.1020  140.7250 N   0  0  0  0  0  0  0  0  0  0  0  0
  189.5000  177.9820  139.2910 C   0  0  0  0  0  0  0  0  0  0  0  0
  190.7880  176.3710  143.0180 C   0  0  0  0  0  3  0  0  0  0  0  0
  187.9790  177.6670  143.8350 C   0  0  2  0  0  3  0  0  0  0  0  0
  187.9030  176.8630  142.5330 C   0  0  0  0  0  2  0  0  0  0  0  0
  190.8330  177.6180  139.5240 C   0  0  0  0  0  3  0  0  0  0  0  0
  189.4000  177.9570  144.3410 C   0  0  0  0  0  2  0  0  0  0  0  0
  189.0450  178.5180  137.9600 C   0  0  1  0  0  3  0  0  0  0  0  0
  189.3790  177.6620  136.8030 C   0  0  0  0  0  0  0  0  0  0  0  0
  189.6550  176.9610  135.8620 C   0  0  0  0  0  3  0  0  0  0  0  0
  187.7080  178.9790  137.9550 O   0  0  0  0  0  0  0  0  0  0  0  0
  186.8910  178.0380  137.3010 C   0  0  0  0  0  2  0  0  0  0  0  0
  185.5150  178.0050  137.9500 C   0  0  0  0  0  2  0  0  0  0  0  0
  184.5050  177.2750  137.0720 C   0  0  0  0  0  2  0  0  0  0  0  0
  182.1570  177.9330  137.6560 C   0  0  0  0  0  3  0  0  0  0  0  0
  180.9590  177.7150  138.3460 C   0  0  0  0  0  3  0  0  0  0  0  0
  183.0910  175.9250  138.6430 C   0  0  0  0  0  3  0  0  0  0  0  0
  180.8270  176.6020  139.1840 C   0  0  0  0  0  3  0  0  0  0  0  0
  181.8940  175.7080  139.3340 C   0  0  0  0  0  3  0  0  0  0  0  0
  183.2240  177.0370  137.8010 C   0  0  0  0  0  0  0  0  0  0  0  0
  187.2520  177.0020  144.8270 O   0  0  0  0  0  0  0  0  0  0  0  0
  186.1360  177.8140  145.0790 C   0  0  1  0  0  3  0  0  0  0  0  0
  184.9670  178.5050  147.0560 O   0  0  0  0  0  1  0  0  0  0  0  0
  186.2340  178.4450  146.4690 C   0  0  1  0  0  3  0  0  0  0  0  0
  187.1670  177.6370  147.3610 C   0  0  0  0  0  2  0  0  0  0  0  0
  187.8700  178.5360  148.3680 C   0  0  0  0  0  2  0  0  0  0  0  0
  189.3530  178.2070  148.4230 C   0  0  0  0  0  2  0  0  0  0  0  0
  189.6350  176.9200  147.6700 C   0  0  0  0  0  2  0  0  0  0  0  0
  191.0120  176.6980  147.6060 O   0  0  0  0  0  1  0  0  0  0  0  0
  185.9960  178.8800  143.9850 C   0  0  0  0  0  2  0  0  0  0  0  0
  183.4830  178.8750  143.9490 C   0  0  0  0  0  3  0  0  0  0  0  0
  182.2700  178.8140  143.2560 C   0  0  0  0  0  0  0  0  0  0  0  0
  184.6860  178.6420  141.8590 C   0  0  0  0  0  3  0  0  0  0  0  0
  181.0710  178.9040  143.9480 O   0  0  0  0  0  1  0  0  0  0  0  0
  183.4730  178.5800  141.1670 C   0  0  0  0  0  3  0  0  0  0  0  0
  184.6940  178.7870  143.2510 C   0  0  0  0  0  0  0  0  0  0  0  0
  182.2650  178.6670  141.8670 C   0  0  0  0  0  3  0  0  0  0  0  0
  1  7  1  0  0  0  0
  2 11  1  0  0  0  0
  3  1  1  0  0  0  0
  3  9  1  0  0  0  0
  4  3  2  0  0  0  0
  5  1  2  0  0  0  0
  6 10  2  0  0  0  0
  6  4  1  0  0  0  0
  7  2  2  0  0  0  0
  8 11  1  0  0  0  0
  8 25  1  1  0  0  0
  9  8  1  0  0  0  0
 10  5  1  0  0  0  0
 12 13  1  6  0  0  0
 12  6  1  0  0  0  0
 14 13  3  0  0  0  0
 15 12  1  0  0  0  0
 16 17  1  0  0  0  0
 16 15  1  0  0  0  0
 18 24  1  0  0  0  0
 18 17  1  0  0  0  0
 19 24  2  0  0  0  0
 19 20  1  0  0  0  0
 20 22  2  0  0  0  0
 21 23  2  0  0  0  0
 22 23  1  0  0  0  0
 24 21  1  0  0  0  0
 25 26  1  0  0  0  0
 26 34  1  6  0  0  0
 26 28  1  0  0  0  0
 28 27  1  1  0  0  0
 28 29  1  0  0  0  0
 29 30  1  0  0  0  0
 30 31  1  0  0  0  0
 32 31  1  0  0  0  0
 33 32  1  0  0  0  0
 36 38  1  0  0  0  0
 36 35  1  0  0  0  0
 37 40  1  0  0  0  0
 39 37  2  0  0  0  0
 39 41  1  0  0  0  0
 40 35  2  0  0  0  0
 40 34  1  0  0  0  0
 41 36  2  0  0  0  0
M  END
>  <MODEL>
1

>  <REMARK>
 VINA RESULT:      -8.0      0.000      0.000
  Name = 
  16 active torsions:
  status: ('A' for Active; 'I' for Inactive)
    1  A    between atoms: C_5  and  C_28
    2  A    between atoms: C_5  and  C_35
    3  A    between atoms: C_7  and  C_11
    4  A    between atoms: C_7  and  C_37
    5  A    between atoms: O_9  and  C_11
    6  A    between atoms: O_9  and  C_31
    7  A    between atoms: C_10  and  O_12
    8  A    between atoms: C_10  and  C_28
    9  A    between atoms: C_11  and  C_39
   10  A    between atoms: O_12  and  C_23
   11  A    between atoms: C_15  and  C_17
   12  A    between atoms: C_15  and  C_39
   13  A    between atoms: C_17  and  C_30
   14  A    between atoms: C_21  and  C_23
   15  A    between atoms: C_23  and  C_26
   16  A    between atoms: C_29  and  C_30
                            x       y       z     vdW  Elec       q    Type
                         _______ _______ _______ _____ _____    ______ ____

>  <TORSDO>
F 16

$$$$
=
 OpenBabel11042412373D

 41 44  0  0  1  0  0  0  0  0999 V2000
  190.5600  176.9250  141.8740 C   0  0  0  0  0  0  0  0  0  0  0  0
  190.6150  176.9680  144.3460 C   0  0  0  0  0  3  0  0  0  0  0  0
  189.1790  177.1050  141.6560 C   0  0  0  0  0  0  0  0  0  0  0  0
  188.7380  177.5200  140.3990 C   0  0  0  0  0  3  0  0  0  0  0  0
  191.4330  177.1220  140.8490 N   0  0  0  0  0  0  0  0  0  0  0  0
  189.6570  177.7600  139.3750 C   0  0  0  0  0  0  0  0  0  0  0  0
  191.0870  176.5040  143.1860 C   0  0  0  0  0  3  0  0  0  0  0  0
  188.1780  177.6020  143.9420 C   0  0  2  0  0  3  0  0  0  0  0  0
  188.1690  176.7130  142.6930 C   0  0  0  0  0  2  0  0  0  0  0  0
  191.0170  177.5280  139.6200 C   0  0  0  0  0  3  0  0  0  0  0  0
  189.5700  178.0440  144.4180 C   0  0  0  0  0  2  0  0  0  0  0  0
  189.1540  178.1700  138.0160 C   0  0  1  0  0  3  0  0  0  0  0  0
  189.6660  177.3530  136.8980 C   0  0  0  0  0  0  0  0  0  0  0  0
  190.0820  176.6820  135.9860 C   0  0  0  0  0  3  0  0  0  0  0  0
  187.7580  178.3890  137.9650 O   0  0  0  0  0  0  0  0  0  0  0  0
  187.3950  178.7970  136.6680 C   0  0  0  0  0  2  0  0  0  0  0  0
  186.4590  177.7720  136.0440 C   0  0  0  0  0  2  0  0  0  0  0  0
  185.4290  177.2760  137.0520 C   0  0  0  0  0  2  0  0  0  0  0  0
  184.3070  175.0830  137.5210 C   0  0  0  0  0  3  0  0  0  0  0  0
  184.3450  173.6900  137.6500 C   0  0  0  0  0  3  0  0  0  0  0  0
  186.6690  175.0970  136.9770 C   0  0  0  0  0  3  0  0  0  0  0  0
  185.5450  173.0000  137.4430 C   0  0  0  0  0  3  0  0  0  0  0  0
  186.7080  173.7040  137.1070 C   0  0  0  0  0  3  0  0  0  0  0  0
  185.4680  175.7890  137.1800 C   0  0  0  0  0  0  0  0  0  0  0  0
  187.5130  176.9410  144.9790 O   0  0  0  0  0  0  0  0  0  0  0  0
  186.4150  177.7530  145.2960 C   0  0  1  0  0  3  0  0  0  0  0  0
  185.3130  178.6370  147.2340 O   0  0  0  0  0  1  0  0  0  0  0  0
  186.5700  178.3420  146.7000 C   0  0  1  0  0  3  0  0  0  0  0  0
  187.2920  177.3630  147.6150 C   0  0  0  0  0  2  0  0  0  0  0  0
  188.1220  178.1020  148.6550 C   0  0  0  0  0  2  0  0  0  0  0  0
  189.5370  178.3160  148.1450 C   0  0  0  0  0  2  0  0  0  0  0  0
  190.1590  176.9910  147.7450 C   0  0  0  0  0  2  0  0  0  0  0  0
  191.5520  177.0860  147.7850 O   0  0  0  0  0  1  0  0  0  0  0  0
  186.2440  178.8520  144.2400 C   0  0  0  0  0  2  0  0  0  0  0  0
  184.8370  178.3490  142.2200 C   0  0  0  0  0  3  0  0  0  0  0  0
  183.5930  178.2640  141.5860 C   0  0  0  0  0  0  0  0  0  0  0  0
  183.7520  179.1360  144.2380 C   0  0  0  0  0  3  0  0  0  0  0  0
  183.5130  177.8280  140.2710 O   0  0  0  0  0  1  0  0  0  0  0  0
  182.5090  179.0520  143.6040 C   0  0  0  0  0  3  0  0  0  0  0  0
  184.9180  178.7870  143.5470 C   0  0  0  0  0  0  0  0  0  0  0  0
  182.4310  178.6160  142.2770 C   0  0  0  0  0  3  0  0  0  0  0  0
  1  7  1  0  0  0  0
  2 11  1  0  0  0  0
  3  1  1  0  0  0  0
  3  9  1  0  0  0  0
  4  3  2  0  0  0  0
  5  1  2  0  0  0  0
  6 10  2  0  0  0  0
  6  4  1  0  0  0  0
  7  2  2  0  0  0  0
  8 11  1  0  0  0  0
  8 25  1  1  0  0  0
  9  8  1  0  0  0  0
 10  5  1  0  0  0  0
 12 13  1  6  0  0  0
 12  6  1  0  0  0  0
 14 13  3  0  0  0  0
 15 12  1  0  0  0  0
 16 15  1  0  0  0  0
 17 16  1  0  0  0  0
 17 18  1  0  0  0  0
 18 24  1  0  0  0  0
 19 20  1  0  0  0  0
 21 23  2  0  0  0  0
 21 24  1  0  0  0  0
 22 20  2  0  0  0  0
 23 22  1  0  0  0  0
 24 19  2  0  0  0  0
 25 26  1  0  0  0  0
 26 34  1  6  0  0  0
 26 28  1  0  0  0  0
 28 27  1  1  0  0  0
 28 29  1  0  0  0  0
 29 30  1  0  0  0  0
 31 30  1  0  0  0  0
 32 33  1  0  0  0  0
 32 31  1  0  0  0  0
 35 40  1  0  0  0  0
 36 35  2  0  0  0  0
 36 41  1  0  0  0  0
 38 36  1  0  0  0  0
 39 37  1  0  0  0  0
 40 37  2  0  0  0  0
 40 34  1  0  0  0  0
 41 39  2  0  0  0  0
M  END
>  <MODEL>
2

>  <REMARK>
 VINA RESULT:      -7.9      1.504      2.153
  Name = 
  16 active torsions:
  status: ('A' for Active; 'I' for Inactive)
    1  A    between atoms: C_5  and  C_28
    2  A    between atoms: C_5  and  C_35
    3  A    between atoms: C_7  and  C_11
    4  A    between atoms: C_7  and  C_37
    5  A    between atoms: O_9  and  C_11
    6  A    between atoms: O_9  and  C_31
    7  A    between atoms: C_10  and  O_12
    8  A    between atoms: C_10  and  C_28
    9  A    between atoms: C_11  and  C_39
   10  A    between atoms: O_12  and  C_23
   11  A    between atoms: C_15  and  C_17
   12  A    between atoms: C_15  and  C_39
   13  A    between atoms: C_17  and  C_30
   14  A    between atoms: C_21  and  C_23
   15  A    between atoms: C_23  and  C_26
   16  A    between atoms: C_29  and  C_30
                            x       y       z     vdW  Elec       q    Type
                         _______ _______ _______ _____ _____    ______ ____

>  <TORSDO>
F 16

$$$$
=
 OpenBabel11042412373D

 41 44  0  0  1  0  0  0  0  0999 V2000
  184.5720  178.8380  144.3550 C   0  0  0  0  0  0  0  0  0  0  0  0
  186.2020  178.1810  146.0950 C   0  0  0  0  0  3  0  0  0  0  0  0
  185.2920  178.4830  143.1960 C   0  0  0  0  0  0  0  0  0  0  0  0
  184.6070  178.3300  141.9910 C   0  0  0  0  0  3  0  0  0  0  0  0
  183.2320  179.0600  144.2700 N   0  0  0  0  0  0  0  0  0  0  0  0
  183.2250  178.5190  141.9380 C   0  0  0  0  0  0  0  0  0  0  0  0
  185.2390  178.9980  145.6610 C   0  0  0  0  0  3  0  0  0  0  0  0
  187.3650  177.2590  144.0210 C   0  0  2  0  0  3  0  0  0  0  0  0
  186.7910  178.4190  143.2000 C   0  0  0  0  0  2  0  0  0  0  0  0
  182.5530  178.9130  143.1020 C   0  0  0  0  0  3  0  0  0  0  0  0
  186.6250  176.9580  145.3320 C   0  0  0  0  0  2  0  0  0  0  0  0
  182.5140  178.3850  140.6180 C   0  0  1  0  0  3  0  0  0  0  0  0
  181.2820  179.1920  140.4970 C   0  0  0  0  0  0  0  0  0  0  0  0
  180.2760  179.8500  140.4030 C   0  0  0  0  0  3  0  0  0  0  0  0
  183.3680  178.4840  139.4950 O   0  0  0  0  0  0  0  0  0  0  0  0
  182.7420  177.9020  138.3770 C   0  0  0  0  0  2  0  0  0  0  0  0
  183.7910  177.3980  137.3980 C   0  0  0  0  0  2  0  0  0  0  0  0
  185.1990  177.7510  137.8630 C   0  0  0  0  0  2  0  0  0  0  0  0
  186.8100  175.9140  137.3010 C   0  0  0  0  0  3  0  0  0  0  0  0
  187.7860  175.3520  136.4690 C   0  0  0  0  0  3  0  0  0  0  0  0
  186.6400  177.8200  135.8120 C   0  0  0  0  0  3  0  0  0  0  0  0
  188.1890  176.0240  135.3100 C   0  0  0  0  0  3  0  0  0  0  0  0
  187.6170  177.2580  134.9820 C   0  0  0  0  0  3  0  0  0  0  0  0
  186.2330  177.1470  136.9720 C   0  0  0  0  0  0  0  0  0  0  0  0
  188.7140  177.5110  144.2870 O   0  0  0  0  0  0  0  0  0  0  0  0
  189.2710  177.9020  143.0610 C   0  0  1  0  0  3  0  0  0  0  0  0
  190.7550  179.4750  144.0960 O   0  0  0  0  0  1  0  0  0  0  0  0
  190.7170  178.3630  143.2500 C   0  0  1  0  0  3  0  0  0  0  0  0
  191.5630  177.2460  143.8460 C   0  0  0  0  0  2  0  0  0  0  0  0
  191.5960  177.3400  145.3650 C   0  0  0  0  0  2  0  0  0  0  0  0
  191.7670  175.9590  145.9750 C   0  0  0  0  0  2  0  0  0  0  0  0
  191.9120  176.0640  147.4820 C   0  0  0  0  0  2  0  0  0  0  0  0
  193.2070  175.7070  147.8630 O   0  0  0  0  0  1  0  0  0  0  0  0
  189.1740  176.7570  142.0440 C   0  0  0  0  0  2  0  0  0  0  0  0
  190.3860  176.5700  139.8510 C   0  0  0  0  0  3  0  0  0  0  0  0
  190.5940  176.9800  138.5300 C   0  0  0  0  0  0  0  0  0  0  0  0
  188.6630  178.2560  140.1000 C   0  0  0  0  0  3  0  0  0  0  0  0
  191.5490  176.3440  137.7500 O   0  0  0  0  0  1  0  0  0  0  0  0
  188.8720  178.6650  138.7800 C   0  0  0  0  0  3  0  0  0  0  0  0
  189.4200  177.2100  140.6390 C   0  0  0  0  0  0  0  0  0  0  0  0
  189.8380  178.0260  137.9950 C   0  0  0  0  0  3  0  0  0  0  0  0
  1  7  1  0  0  0  0
  3  9  1  0  0  0  0
  3  1  2  0  0  0  0
  4  3  1  0  0  0  0
  5  1  1  0  0  0  0
  6  4  2  0  0  0  0
  6 10  1  0  0  0  0
  7  2  2  0  0  0  0
  8 25  1  1  0  0  0
  8 11  1  0  0  0  0
  9  8  1  0  0  0  0
 10  5  2  0  0  0  0
 11  2  1  0  0  0  0
 12 13  1  6  0  0  0
 12  6  1  0  0  0  0
 14 13  3  0  0  0  0
 15 12  1  0  0  0  0
 16 15  1  0  0  0  0
 17 18  1  0  0  0  0
 17 16  1  0  0  0  0
 20 19  2  0  0  0  0
 21 24  2  0  0  0  0
 22 20  1  0  0  0  0
 23 22  2  0  0  0  0
 23 21  1  0  0  0  0
 24 19  1  0  0  0  0
 24 18  1  0  0  0  0
 26 34  1  6  0  0  0
 26 28  1  0  0  0  0
 26 25  1  0  0  0  0
 28 29  1  0  0  0  0
 28 27  1  1  0  0  0
 29 30  1  0  0  0  0
 30 31  1  0  0  0  0
 31 32  1  0  0  0  0
 32 33  1  0  0  0  0
 35 40  1  0  0  0  0
 36 35  2  0  0  0  0
 37 40  2  0  0  0  0
 38 36  1  0  0  0  0
 39 37  1  0  0  0  0
 40 34  1  0  0  0  0
 41 36  1  0  0  0  0
 41 39  2  0  0  0  0
M  END
>  <MODEL>
3

>  <REMARK>
 VINA RESULT:      -7.8      2.394      6.198
  Name = 
  16 active torsions:
  status: ('A' for Active; 'I' for Inactive)
    1  A    between atoms: C_5  and  C_28
    2  A    between atoms: C_5  and  C_35
    3  A    between atoms: C_7  and  C_11
    4  A    between atoms: C_7  and  C_37
    5  A    between atoms: O_9  and  C_11
    6  A    between atoms: O_9  and  C_31
    7  A    between atoms: C_10  and  O_12
    8  A    between atoms: C_10  and  C_28
    9  A    between atoms: C_11  and  C_39
   10  A    between atoms: O_12  and  C_23
   11  A    between atoms: C_15  and  C_17
   12  A    between atoms: C_15  and  C_39
   13  A    between atoms: C_17  and  C_30
   14  A    between atoms: C_21  and  C_23
   15  A    between atoms: C_23  and  C_26
   16  A    between atoms: C_29  and  C_30
                            x       y       z     vdW  Elec       q    Type
                         _______ _______ _______ _____ _____    ______ ____

>  <TORSDO>
F 16

$$$$
=
 OpenBabel11042412373D

 41 44  0  0  1  0  0  0  0  0999 V2000
  182.1310  178.6490  141.6380 C   0  0  0  0  0  0  0  0  0  0  0  0
  180.8120  179.1380  139.6040 C   0  0  0  0  0  3  0  0  0  0  0  0
  183.2950  178.1100  141.0530 C   0  0  0  0  0  0  0  0  0  0  0  0
  184.4660  178.0420  141.8080 C   0  0  0  0  0  3  0  0  0  0  0  0
  182.1600  179.0580  142.9350 N   0  0  0  0  0  0  0  0  0  0  0  0
  184.4830  178.5100  143.1230 C   0  0  0  0  0  0  0  0  0  0  0  0
  180.8680  178.7620  140.8840 C   0  0  0  0  0  3  0  0  0  0  0  0
  183.0310  178.4560  138.5460 C   0  0  2  0  0  3  0  0  0  0  0  0
  183.2600  177.4700  139.6970 C   0  0  0  0  0  2  0  0  0  0  0  0
  183.2950  178.9990  143.6810 C   0  0  0  0  0  3  0  0  0  0  0  0
  182.0280  179.5810  138.8410 C   0  0  0  0  0  2  0  0  0  0  0  0
  185.7490  178.3920  143.9300 C   0  0  1  0  0  3  0  0  0  0  0  0
  185.5510  178.4190  145.3940 C   0  0  0  0  0  0  0  0  0  0  0  0
  185.3860  178.4410  146.5880 C   0  0  0  0  0  3  0  0  0  0  0  0
  186.6110  177.3580  143.4940 O   0  0  0  0  0  0  0  0  0  0  0  0
  187.5340  177.8780  142.5690 C   0  0  0  0  0  2  0  0  0  0  0  0
  188.8960  177.2310  142.7740 C   0  0  0  0  0  2  0  0  0  0  0  0
  189.8370  178.1510  143.5430 C   0  0  0  0  0  2  0  0  0  0  0  0
  191.4270  177.0020  145.1040 C   0  0  0  0  0  3  0  0  0  0  0  0
  191.7400  176.4660  146.3590 C   0  0  0  0  0  3  0  0  0  0  0  0
  189.2310  177.6270  145.9190 C   0  0  0  0  0  3  0  0  0  0  0  0
  190.7980  176.5090  147.3930 C   0  0  0  0  0  3  0  0  0  0  0  0
  189.5430  177.0890  147.1730 C   0  0  0  0  0  3  0  0  0  0  0  0
  190.1740  177.5870  144.8830 C   0  0  0  0  0  0  0  0  0  0  0  0
  182.6250  177.7470  137.4110 O   0  0  0  0  0  0  0  0  0  0  0  0
  183.6000  176.7580  137.2190 C   0  0  1  0  0  3  0  0  0  0  0  0
  183.6350  175.1720  135.4210 O   0  0  0  0  0  1  0  0  0  0  0  0
  182.9770  175.5000  136.6100 C   0  0  1  0  0  3  0  0  0  0  0  0
  183.0720  174.3310  137.5800 C   0  0  0  0  0  2  0  0  0  0  0  0
  184.3410  173.5270  137.3400 C   0  0  0  0  0  2  0  0  0  0  0  0
  184.0060  172.0590  137.1400 C   0  0  0  0  0  2  0  0  0  0  0  0
  182.5110  171.8810  136.9510 C   0  0  0  0  0  2  0  0  0  0  0  0
  182.2640  170.8410  136.0520 O   0  0  0  0  0  1  0  0  0  0  0  0
  184.7420  177.2990  136.3490 C   0  0  0  0  0  2  0  0  0  0  0  0
  186.6040  178.0680  137.8510 C   0  0  0  0  0  3  0  0  0  0  0  0
  187.8500  177.8700  138.4540 C   0  0  0  0  0  0  0  0  0  0  0  0
  186.8190  175.9420  136.7100 C   0  0  0  0  0  3  0  0  0  0  0  0
  188.3600  178.8240  139.3220 O   0  0  0  0  0  1  0  0  0  0  0  0
  188.0650  175.7440  137.3130 C   0  0  0  0  0  3  0  0  0  0  0  0
  186.0880  177.1050  136.9760 C   0  0  0  0  0  0  0  0  0  0  0  0
  188.5800  176.7090  138.1850 C   0  0  0  0  0  3  0  0  0  0  0  0
  1  5  1  0  0  0  0
  2  7  2  0  0  0  0
  3  1  2  0  0  0  0
  3  4  1  0  0  0  0
  4  6  2  0  0  0  0
  5 10  2  0  0  0  0
  6 10  1  0  0  0  0
  6 12  1  0  0  0  0
  7  1  1  0  0  0  0
  8 25  1  6  0  0  0
  8 11  1  0  0  0  0
  8  9  1  0  0  0  0
  9  3  1  0  0  0  0
 11  2  1  0  0  0  0
 12 13  1  1  0  0  0
 13 14  3  0  0  0  0
 15 12  1  0  0  0  0
 16 17  1  0  0  0  0
 16 15  1  0  0  0  0
 17 18  1  0  0  0  0
 18 24  1  0  0  0  0
 19 20  1  0  0  0  0
 20 22  2  0  0  0  0
 21 23  2  0  0  0  0
 23 22  1  0  0  0  0
 24 19  2  0  0  0  0
 24 21  1  0  0  0  0
 26 34  1  6  0  0  0
 26 25  1  0  0  0  0
 28 27  1  6  0  0  0
 28 26  1  0  0  0  0
 28 29  1  0  0  0  0
 30 29  1  0  0  0  0
 31 30  1  0  0  0  0
 32 31  1  0  0  0  0
 33 32  1  0  0  0  0
 34 40  1  0  0  0  0
 35 36  1  0  0  0  0
 36 38  1  0  0  0  0
 37 40  1  0  0  0  0
 37 39  2  0  0  0  0
 39 41  1  0  0  0  0
 40 35  2  0  0  0  0
 41 36  2  0  0  0  0
M  END
>  <MODEL>
4

>  <REMARK>
 VINA RESULT:      -7.6      3.000      9.521
  Name = 
  16 active torsions:
  status: ('A' for Active; 'I' for Inactive)
    1  A    between atoms: C_5  and  C_28
    2  A    between atoms: C_5  and  C_35
    3  A    between atoms: C_7  and  C_11
    4  A    between atoms: C_7  and  C_37
    5  A    between atoms: O_9  and  C_11
    6  A    between atoms: O_9  and  C_31
    7  A    between atoms: C_10  and  O_12
    8  A    between atoms: C_10  and  C_28
    9  A    between atoms: C_11  and  C_39
   10  A    between atoms: O_12  and  C_23
   11  A    between atoms: C_15  and  C_17
   12  A    between atoms: C_15  and  C_39
   13  A    between atoms: C_17  and  C_30
   14  A    between atoms: C_21  and  C_23
   15  A    between atoms: C_23  and  C_26
   16  A    between atoms: C_29  and  C_30
                            x       y       z     vdW  Elec       q    Type
                         _______ _______ _______ _____ _____    ______ ____

>  <TORSDO>
F 16

$$$$
=
 OpenBabel11042412373D

 41 44  0  0  1  0  0  0  0  0999 V2000
  184.5990  178.7110  143.7450 C   0  0  0  0  0  0  0  0  0  0  0  0
  186.0840  177.9610  145.5750 C   0  0  0  0  0  3  0  0  0  0  0  0
  185.5070  178.6900  142.6670 C   0  0  0  0  0  0  0  0  0  0  0  0
  185.0130  178.6810  141.3630 C   0  0  0  0  0  3  0  0  0  0  0  0
  183.2620  178.7590  143.4950 N   0  0  0  0  0  0  0  0  0  0  0  0
  183.6360  178.6840  141.1320 C   0  0  0  0  0  0  0  0  0  0  0  0
  185.0620  178.7060  145.1460 C   0  0  0  0  0  3  0  0  0  0  0  0
  187.6330  177.6270  143.5760 C   0  0  2  0  0  3  0  0  0  0  0  0
  186.9830  178.8340  142.8890 C   0  0  0  0  0  2  0  0  0  0  0  0
  182.7680  178.7480  142.2300 C   0  0  0  0  0  3  0  0  0  0  0  0
  186.7940  176.9790  144.6870 C   0  0  0  0  0  2  0  0  0  0  0  0
  183.1270  178.7110  139.7150 C   0  0  1  0  0  3  0  0  0  0  0  0
  184.0850  178.2130  138.7070 C   0  0  0  0  0  0  0  0  0  0  0  0
  184.8640  177.8080  137.8800 C   0  0  0  0  0  3  0  0  0  0  0  0
  181.8230  178.1850  139.5650 O   0  0  0  0  0  0  0  0  0  0  0  0
  180.9080  179.2420  139.3960 C   0  0  0  0  0  2  0  0  0  0  0  0
  181.4930  180.2900  138.4610 C   0  0  0  0  0  2  0  0  0  0  0  0
  180.8970  181.6660  138.7290 C   0  0  0  0  0  2  0  0  0  0  0  0
  180.4720  181.9140  136.2700 C   0  0  0  0  0  3  0  0  0  0  0  0
  180.4420  182.6860  135.1030 C   0  0  0  0  0  3  0  0  0  0  0  0
  181.2200  183.8450  137.5300 C   0  0  0  0  0  3  0  0  0  0  0  0
  180.8010  184.0380  135.1490 C   0  0  0  0  0  3  0  0  0  0  0  0
  181.1910  184.6170  136.3630 C   0  0  0  0  0  3  0  0  0  0  0  0
  180.8570  182.4930  137.4860 C   0  0  0  0  0  0  0  0  0  0  0  0
  188.8780  178.0070  144.0860 O   0  0  0  0  0  0  0  0  0  0  0  0
  189.7780  177.8630  143.0200 C   0  0  1  0  0  3  0  0  0  0  0  0
  191.7400  178.7410  144.0830 O   0  0  0  0  0  1  0  0  0  0  0  0
  191.1880  177.5770  143.5420 C   0  0  1  0  0  3  0  0  0  0  0  0
  191.1550  176.4900  144.6070 C   0  0  0  0  0  2  0  0  0  0  0  0
  191.6720  177.0170  145.9380 C   0  0  0  0  0  2  0  0  0  0  0  0
  190.9610  176.3290  147.0900 C   0  0  0  0  0  2  0  0  0  0  0  0
  189.5440  176.8560  147.2250 C   0  0  0  0  0  2  0  0  0  0  0  0
  189.5180  177.9320  148.1150 O   0  0  0  0  0  1  0  0  0  0  0  0
  189.2980  176.7640  142.0630 C   0  0  0  0  0  2  0  0  0  0  0  0
  190.5960  176.6520  139.9150 C   0  0  0  0  0  3  0  0  0  0  0  0
  190.7530  176.9730  138.5630 C   0  0  0  0  0  0  0  0  0  0  0  0
  188.5340  177.9230  139.9740 C   0  0  0  0  0  3  0  0  0  0  0  0
  191.8520  176.5000  137.8610 O   0  0  0  0  0  1  0  0  0  0  0  0
  188.6920  178.2450  138.6230 C   0  0  0  0  0  3  0  0  0  0  0  0
  189.4860  177.1280  140.6240 C   0  0  0  0  0  0  0  0  0  0  0  0
  189.8030  177.7690  137.9180 C   0  0  0  0  0  3  0  0  0  0  0  0
  1  7  1  0  0  0  0
  3  9  1  0  0  0  0
  3  1  2  0  0  0  0
  4  3  1  0  0  0  0
  5  1  1  0  0  0  0
  6  4  2  0  0  0  0
  6 10  1  0  0  0  0
  7  2  2  0  0  0  0
  8 25  1  1  0  0  0
  8 11  1  0  0  0  0
  9  8  1  0  0  0  0
 10  5  2  0  0  0  0
 11  2  1  0  0  0  0
 12 13  1  6  0  0  0
 12  6  1  0  0  0  0
 14 13  3  0  0  0  0
 15 12  1  0  0  0  0
 16 15  1  0  0  0  0
 17 18  1  0  0  0  0
 17 16  1  0  0  0  0
 19 24  1  0  0  0  0
 20 22  1  0  0  0  0
 20 19  2  0  0  0  0
 22 23  2  0  0  0  0
 23 21  1  0  0  0  0
 24 21  2  0  0  0  0
 24 18  1  0  0  0  0
 26 34  1  6  0  0  0
 26 28  1  0  0  0  0
 26 25  1  0  0  0  0
 28 27  1  1  0  0  0
 28 29  1  0  0  0  0
 29 30  1  0  0  0  0
 30 31  1  0  0  0  0
 31 32  1  0  0  0  0
 32 33  1  0  0  0  0
 35 40  1  0  0  0  0
 36 35  2  0  0  0  0
 37 40  2  0  0  0  0
 38 36  1  0  0  0  0
 39 37  1  0  0  0  0
 40 34  1  0  0  0  0
 41 36  1  0  0  0  0
 41 39  2  0  0  0  0
M  END
>  <MODEL>
5

>  <REMARK>
 VINA RESULT:      -7.6      3.137      6.171
  Name = 
  16 active torsions:
  status: ('A' for Active; 'I' for Inactive)
    1  A    between atoms: C_5  and  C_28
    2  A    between atoms: C_5  and  C_35
    3  A    between atoms: C_7  and  C_11
    4  A    between atoms: C_7  and  C_37
    5  A    between atoms: O_9  and  C_11
    6  A    between atoms: O_9  and  C_31
    7  A    between atoms: C_10  and  O_12
    8  A    between atoms: C_10  and  C_28
    9  A    between atoms: C_11  and  C_39
   10  A    between atoms: O_12  and  C_23
   11  A    between atoms: C_15  and  C_17
   12  A    between atoms: C_15  and  C_39
   13  A    between atoms: C_17  and  C_30
   14  A    between atoms: C_21  and  C_23
   15  A    between atoms: C_23  and  C_26
   16  A    between atoms: C_29  and  C_30
                            x       y       z     vdW  Elec       q    Type
                         _______ _______ _______ _____ _____    ______ ____

>  <TORSDO>
F 16

$$$$
=
 OpenBabel11042412373D

 41 44  0  0  1  0  0  0  0  0999 V2000
  190.3460  177.1220  141.1230 C   0  0  0  0  0  0  0  0  0  0  0  0
  190.3320  176.9890  138.6530 C   0  0  0  0  0  3  0  0  0  0  0  0
  189.0930  177.7300  141.3430 C   0  0  0  0  0  0  0  0  0  0  0  0
  188.5160  177.6570  142.6110 C   0  0  0  0  0  3  0  0  0  0  0  0
  190.9850  176.5090  142.1560 N   0  0  0  0  0  0  0  0  0  0  0  0
  189.1700  176.9830  143.6440 C   0  0  0  0  0  0  0  0  0  0  0  0
  190.9980  177.1530  139.8000 C   0  0  0  0  0  3  0  0  0  0  0  0
  187.9500  177.7980  139.0710 C   0  0  2  0  0  3  0  0  0  0  0  0
  188.4450  178.5810  140.2920 C   0  0  0  0  0  2  0  0  0  0  0  0
  190.4330  176.4290  143.3950 C   0  0  0  0  0  3  0  0  0  0  0  0
  188.8680  176.6560  138.6120 C   0  0  0  0  0  2  0  0  0  0  0  0
  188.5450  176.9500  145.0130 C   0  0  1  0  0  3  0  0  0  0  0  0
  189.5100  176.9460  146.1310 C   0  0  0  0  0  0  0  0  0  0  0  0
  190.3020  176.9420  147.0410 C   0  0  0  0  0  3  0  0  0  0  0  0
  187.4880  177.8730  145.1820 O   0  0  0  0  0  0  0  0  0  0  0  0
  186.8700  177.6570  146.4280 C   0  0  0  0  0  2  0  0  0  0  0  0
  185.4430  178.1820  146.3990 C   0  0  0  0  0  2  0  0  0  0  0  0
  185.3180  179.4000  145.4920 C   0  0  0  0  0  2  0  0  0  0  0  0
  182.9970  179.0690  144.6030 C   0  0  0  0  0  3  0  0  0  0  0  0
  182.1130  178.8190  143.5470 C   0  0  0  0  0  3  0  0  0  0  0  0
  184.8670  178.9570  143.0650 C   0  0  0  0  0  3  0  0  0  0  0  0
  182.6060  178.6380  142.2500 C   0  0  0  0  0  3  0  0  0  0  0  0
  183.9840  178.7060  142.0090 C   0  0  0  0  0  3  0  0  0  0  0  0
  184.3750  179.1420  144.3640 C   0  0  0  0  0  0  0  0  0  0  0  0
  187.7370  178.6860  138.0130 O   0  0  0  0  0  0  0  0  0  0  0  0
  186.4260  178.4430  137.5780 C   0  0  1  0  0  3  0  0  0  0  0  0
  187.6250  178.1570  135.5210 O   0  0  0  0  0  1  0  0  0  0  0  0
  186.4290  177.8400  136.1720 C   0  0  1  0  0  3  0  0  0  0  0  0
  186.2740  176.3270  136.2380 C   0  0  0  0  0  2  0  0  0  0  0  0
  185.0510  175.8720  135.4560 C   0  0  0  0  0  2  0  0  0  0  0  0
  184.5900  174.5090  135.9440 C   0  0  0  0  0  2  0  0  0  0  0  0
  185.4930  174.0160  137.0590 C   0  0  0  0  0  2  0  0  0  0  0  0
  184.7530  173.2650  137.9750 O   0  0  0  0  0  1  0  0  0  0  0  0
  185.6940  177.5380  138.5780 C   0  0  0  0  0  2  0  0  0  0  0  0
  183.7300  179.1020  138.4750 C   0  0  0  0  0  3  0  0  0  0  0  0
  182.3520  179.3370  138.4900 C   0  0  0  0  0  0  0  0  0  0  0  0
  183.3280  176.7330  138.7780 C   0  0  0  0  0  3  0  0  0  0  0  0
  181.8670  180.6290  138.3430 O   0  0  0  0  0  1  0  0  0  0  0  0
  181.9500  176.9680  138.7940 C   0  0  0  0  0  3  0  0  0  0  0  0
  184.2210  177.7990  138.6210 C   0  0  0  0  0  0  0  0  0  0  0  0
  181.4620  178.2710  138.6490 C   0  0  0  0  0  3  0  0  0  0  0  0
  1  3  2  0  0  0  0
  1  5  1  0  0  0  0
  2  7  2  0  0  0  0
  3  4  1  0  0  0  0
  4  6  2  0  0  0  0
  5 10  2  0  0  0  0
  6 12  1  0  0  0  0
  7  1  1  0  0  0  0
  8 25  1  6  0  0  0
  8  9  1  0  0  0  0
  9  3  1  0  0  0  0
 10  6  1  0  0  0  0
 11  2  1  0  0  0  0
 11  8  1  0  0  0  0
 12 15  1  0  0  0  0
 12 13  1  1  0  0  0
 13 14  3  0  0  0  0
 15 16  1  0  0  0  0
 17 16  1  0  0  0  0
 18 17  1  0  0  0  0
 20 19  2  0  0  0  0
 21 24  2  0  0  0  0
 22 20  1  0  0  0  0
 23 22  2  0  0  0  0
 23 21  1  0  0  0  0
 24 19  1  0  0  0  0
 24 18  1  0  0  0  0
 26 25  1  0  0  0  0
 26 34  1  1  0  0  0
 28 27  1  1  0  0  0
 28 29  1  0  0  0  0
 28 26  1  0  0  0  0
 30 31  1  0  0  0  0
 30 29  1  0  0  0  0
 31 32  1  0  0  0  0
 32 33  1  0  0  0  0
 34 40  1  0  0  0  0
 35 36  2  0  0  0  0
 35 40  1  0  0  0  0
 36 41  1  0  0  0  0
 37 39  1  0  0  0  0
 38 36  1  0  0  0  0
 40 37  2  0  0  0  0
 41 39  2  0  0  0  0
M  END
>  <MODEL>
6

>  <REMARK>
 VINA RESULT:      -7.5      1.939      7.348
  Name = 
  16 active torsions:
  status: ('A' for Active; 'I' for Inactive)
    1  A    between atoms: C_5  and  C_28
    2  A    between atoms: C_5  and  C_35
    3  A    between atoms: C_7  and  C_11
    4  A    between atoms: C_7  and  C_37
    5  A    between atoms: O_9  and  C_11
    6  A    between atoms: O_9  and  C_31
    7  A    between atoms: C_10  and  O_12
    8  A    between atoms: C_10  and  C_28
    9  A    between atoms: C_11  and  C_39
   10  A    between atoms: O_12  and  C_23
   11  A    between atoms: C_15  and  C_17
   12  A    between atoms: C_15  and  C_39
   13  A    between atoms: C_17  and  C_30
   14  A    between atoms: C_21  and  C_23
   15  A    between atoms: C_23  and  C_26
   16  A    between atoms: C_29  and  C_30
                            x       y       z     vdW  Elec       q    Type
                         _______ _______ _______ _____ _____    ______ ____

>  <TORSDO>
F 16

$$$$
=
 OpenBabel11042412373D

 41 44  0  0  1  0  0  0  0  0999 V2000
  186.5400  177.9540  146.0720 C   0  0  0  0  0  0  0  0  0  0  0  0
  184.3460  178.8300  145.3400 C   0  0  0  0  0  3  0  0  0  0  0  0
  187.0510  177.5080  144.8360 C   0  0  0  0  0  0  0  0  0  0  0  0
  188.4220  177.2810  144.7100 C   0  0  0  0  0  3  0  0  0  0  0  0
  187.3840  178.1200  147.1270 N   0  0  0  0  0  0  0  0  0  0  0  0
  189.2740  177.5030  145.7940 C   0  0  0  0  0  0  0  0  0  0  0  0
  185.1030  178.2270  146.2610 C   0  0  0  0  0  3  0  0  0  0  0  0
  185.3980  178.3090  143.0760 C   0  0  2  0  0  3  0  0  0  0  0  0
  186.1390  177.1260  143.7090 C   0  0  0  0  0  2  0  0  0  0  0  0
  188.7220  177.9050  147.0170 C   0  0  0  0  0  3  0  0  0  0  0  0
  184.9160  179.3810  144.0640 C   0  0  0  0  0  2  0  0  0  0  0  0
  190.7450  177.2150  145.6440 C   0  0  1  0  0  3  0  0  0  0  0  0
  191.3440  176.4690  146.7690 C   0  0  0  0  0  0  0  0  0  0  0  0
  191.8350  175.8570  147.6850 C   0  0  0  0  0  3  0  0  0  0  0  0
  191.1020  176.7060  144.3740 O   0  0  0  0  0  0  0  0  0  0  0  0
  191.8630  177.6670  143.6820 C   0  0  0  0  0  2  0  0  0  0  0  0
  191.6730  177.4980  142.1820 C   0  0  0  0  0  2  0  0  0  0  0  0
  190.4930  176.5850  141.8710 C   0  0  0  0  0  2  0  0  0  0  0  0
  188.5140  177.7880  140.9090 C   0  0  0  0  0  3  0  0  0  0  0  0
  187.7760  178.2520  139.8140 C   0  0  0  0  0  3  0  0  0  0  0  0
  190.1620  176.8480  139.3990 C   0  0  0  0  0  3  0  0  0  0  0  0
  188.2300  178.0140  138.5120 C   0  0  0  0  0  3  0  0  0  0  0  0
  189.4230  177.3100  138.3050 C   0  0  0  0  0  3  0  0  0  0  0  0
  189.7100  177.0880  140.7040 C   0  0  0  0  0  0  0  0  0  0  0  0
  184.3130  177.8260  142.3380 O   0  0  0  0  0  0  0  0  0  0  0  0
  183.6870  178.9630  141.8060 C   0  0  1  0  0  3  0  0  0  0  0  0
  184.9300  179.7980  139.9330 O   0  0  0  0  0  1  0  0  0  0  0  0
  183.8390  178.9980  140.2840 C   0  0  1  0  0  3  0  0  0  0  0  0
  184.0450  177.5930  139.7330 C   0  0  0  0  0  2  0  0  0  0  0  0
  184.2430  177.6250  138.2250 C   0  0  0  0  0  2  0  0  0  0  0  0
  183.0940  176.9170  137.5270 C   0  0  0  0  0  2  0  0  0  0  0  0
  183.1940  175.4180  137.7380 C   0  0  0  0  0  2  0  0  0  0  0  0
  182.0160  174.9370  138.3150 O   0  0  0  0  0  1  0  0  0  0  0  0
  182.2110  179.0020  142.2260 C   0  0  0  0  0  2  0  0  0  0  0  0
  180.9110  179.8700  140.2580 C   0  0  0  0  0  3  0  0  0  0  0  0
  180.0600  179.6640  139.1680 C   0  0  0  0  0  0  0  0  0  0  0  0
  180.7940  177.5100  140.7930 C   0  0  0  0  0  3  0  0  0  0  0  0
  179.6990  180.7320  138.3590 O   0  0  0  0  0  1  0  0  0  0  0  0
  179.9420  177.3050  139.7030 C   0  0  0  0  0  3  0  0  0  0  0  0
  181.2780  178.7920  141.0740 C   0  0  0  0  0  0  0  0  0  0  0  0
  179.5760  178.3830  138.8910 C   0  0  0  0  0  3  0  0  0  0  0  0
  1  7  1  0  0  0  0
  1  5  1  0  0  0  0
  2  7  2  0  0  0  0
  3  1  2  0  0  0  0
  4  3  1  0  0  0  0
  4  6  2  0  0  0  0
  6 10  1  0  0  0  0
  8 25  1  1  0  0  0
  8  9  1  0  0  0  0
  8 11  1  0  0  0  0
  9  3  1  0  0  0  0
 10  5  2  0  0  0  0
 11  2  1  0  0  0  0
 12  6  1  0  0  0  0
 12 13  1  1  0  0  0
 13 14  3  0  0  0  0
 15 12  1  0  0  0  0
 16 15  1  0  0  0  0
 17 16  1  0  0  0  0
 18 17  1  0  0  0  0
 20 19  2  0  0  0  0
 21 24  2  0  0  0  0
 22 20  1  0  0  0  0
 23 22  2  0  0  0  0
 23 21  1  0  0  0  0
 24 19  1  0  0  0  0
 24 18  1  0  0  0  0
 26 34  1  6  0  0  0
 26 25  1  0  0  0  0
 28 27  1  1  0  0  0
 28 26  1  0  0  0  0
 29 28  1  0  0  0  0
 30 29  1  0  0  0  0
 31 32  1  0  0  0  0
 31 30  1  0  0  0  0
 32 33  1  0  0  0  0
 35 40  1  0  0  0  0
 36 35  2  0  0  0  0
 37 40  2  0  0  0  0
 38 36  1  0  0  0  0
 39 37  1  0  0  0  0
 40 34  1  0  0  0  0
 41 36  1  0  0  0  0
 41 39  2  0  0  0  0
M  END
>  <MODEL>
7

>  <REMARK>
 VINA RESULT:      -7.4      2.454      7.282
  Name = 
  16 active torsions:
  status: ('A' for Active; 'I' for Inactive)
    1  A    between atoms: C_5  and  C_28
    2  A    between atoms: C_5  and  C_35
    3  A    between atoms: C_7  and  C_11
    4  A    between atoms: C_7  and  C_37
    5  A    between atoms: O_9  and  C_11
    6  A    between atoms: O_9  and  C_31
    7  A    between atoms: C_10  and  O_12
    8  A    between atoms: C_10  and  C_28
    9  A    between atoms: C_11  and  C_39
   10  A    between atoms: O_12  and  C_23
   11  A    between atoms: C_15  and  C_17
   12  A    between atoms: C_15  and  C_39
   13  A    between atoms: C_17  and  C_30
   14  A    between atoms: C_21  and  C_23
   15  A    between atoms: C_23  and  C_26
   16  A    between atoms: C_29  and  C_30
                            x       y       z     vdW  Elec       q    Type
                         _______ _______ _______ _____ _____    ______ ____

>  <TORSDO>
F 16

$$$$
=
 OpenBabel11042412373D

 41 44  0  0  1  0  0  0  0  0999 V2000
  181.0970  178.9200  143.0720 C   0  0  0  0  0  0  0  0  0  0  0  0
  179.1260  179.7210  141.8100 C   0  0  0  0  0  3  0  0  0  0  0  0
  182.0020  178.7170  142.0100 C   0  0  0  0  0  0  0  0  0  0  0  0
  183.3660  178.6250  142.2890 C   0  0  0  0  0  3  0  0  0  0  0  0
  181.5630  178.9840  144.3480 N   0  0  0  0  0  0  0  0  0  0  0  0
  183.8250  178.7390  143.6030 C   0  0  0  0  0  0  0  0  0  0  0  0
  179.6460  179.0420  142.8370 C   0  0  0  0  0  3  0  0  0  0  0  0
  180.8570  179.6510  139.9390 C   0  0  2  0  0  3  0  0  0  0  0  0
  181.5200  178.4470  140.6160 C   0  0  0  0  0  2  0  0  0  0  0  0
  182.8890  178.8970  144.6330 C   0  0  0  0  0  3  0  0  0  0  0  0
  179.9740  180.5100  140.8550 C   0  0  0  0  0  2  0  0  0  0  0  0
  185.2980  178.5980  143.8830 C   0  0  1  0  0  3  0  0  0  0  0  0
  185.6580  178.6270  145.3150 C   0  0  0  0  0  0  0  0  0  0  0  0
  185.9490  178.6480  146.4850 C   0  0  0  0  0  3  0  0  0  0  0  0
  185.9190  177.5500  143.1640 O   0  0  0  0  0  0  0  0  0  0  0  0
  187.1550  177.9970  142.6600 C   0  0  0  0  0  2  0  0  0  0  0  0
  188.2510  177.0060  143.0210 C   0  0  0  0  0  2  0  0  0  0  0  0
  189.5360  177.7210  143.4200 C   0  0  0  0  0  2  0  0  0  0  0  0
  189.1410  177.4860  145.8850 C   0  0  0  0  0  3  0  0  0  0  0  0
  189.5660  177.1080  147.1640 C   0  0  0  0  0  3  0  0  0  0  0  0
  191.2630  176.7610  144.9650 C   0  0  0  0  0  3  0  0  0  0  0  0
  190.8400  176.5570  147.3430 C   0  0  0  0  0  3  0  0  0  0  0  0
  191.6890  176.3840  146.2430 C   0  0  0  0  0  3  0  0  0  0  0  0
  189.9870  177.3100  144.7830 C   0  0  0  0  0  0  0  0  0  0  0  0
  180.1080  179.2050  138.8450 O   0  0  0  0  0  0  0  0  0  0  0  0
  180.6160  179.8990  137.7370 C   0  0  1  0  0  3  0  0  0  0  0  0
  180.8660  179.4020  135.4040 O   0  0  0  0  0  1  0  0  0  0  0  0
  181.1450  178.9200  136.6860 C   0  0  1  0  0  3  0  0  0  0  0  0
  182.6480  178.7290  136.8390 C   0  0  0  0  0  2  0  0  0  0  0  0
  182.9640  177.3600  137.4220 C   0  0  0  0  0  2  0  0  0  0  0  0
  184.1690  177.4440  138.3430 C   0  0  0  0  0  2  0  0  0  0  0  0
  184.4520  178.8900  138.7090 C   0  0  0  0  0  2  0  0  0  0  0  0
  185.6770  178.9830  139.3730 O   0  0  0  0  0  1  0  0  0  0  0  0
  179.5430  180.8270  137.1530 C   0  0  0  0  0  2  0  0  0  0  0  0
  180.9930  182.8390  137.5590 C   0  0  0  0  0  3  0  0  0  0  0  0
  181.5240  184.0660  137.1500 C   0  0  0  0  0  0  0  0  0  0  0  0
  179.7320  182.6990  135.4950 C   0  0  0  0  0  3  0  0  0  0  0  0
  182.4170  184.7420  137.9690 O   0  0  0  0  0  1  0  0  0  0  0  0
  180.2620  183.9260  135.0870 C   0  0  0  0  0  3  0  0  0  0  0  0
  180.0930  182.1540  136.7330 C   0  0  0  0  0  0  0  0  0  0  0  0
  181.1590  184.6090  135.9150 C   0  0  0  0  0  3  0  0  0  0  0  0
  1  5  1  0  0  0  0
  2  7  2  0  0  0  0
  3  4  1  0  0  0  0
  3  1  2  0  0  0  0
  4  6  2  0  0  0  0
  5 10  2  0  0  0  0
  6 12  1  0  0  0  0
  6 10  1  0  0  0  0
  7  1  1  0  0  0  0
  8 25  1  6  0  0  0
  8  9  1  0  0  0  0
  8 11  1  0  0  0  0
  9  3  1  0  0  0  0
 11  2  1  0  0  0  0
 12 13  1  1  0  0  0
 13 14  3  0  0  0  0
 15 12  1  0  0  0  0
 16 17  1  0  0  0  0
 16 15  1  0  0  0  0
 17 18  1  0  0  0  0
 18 24  1  0  0  0  0
 19 20  1  0  0  0  0
 20 22  2  0  0  0  0
 21 23  2  0  0  0  0
 23 22  1  0  0  0  0
 24 21  1  0  0  0  0
 24 19  2  0  0  0  0
 26 34  1  6  0  0  0
 26 25  1  0  0  0  0
 28 27  1  6  0  0  0
 28 29  1  0  0  0  0
 28 26  1  0  0  0  0
 29 30  1  0  0  0  0
 30 31  1  0  0  0  0
 31 32  1  0  0  0  0
 32 33  1  0  0  0  0
 36 35  1  0  0  0  0
 36 38  1  0  0  0  0
 37 40  1  0  0  0  0
 39 37  2  0  0  0  0
 39 41  1  0  0  0  0
 40 34  1  0  0  0  0
 40 35  2  0  0  0  0
 41 36  2  0  0  0  0
M  END
>  <MODEL>
8

>  <REMARK>
 VINA RESULT:      -7.4      3.702      9.628
  Name = 
  16 active torsions:
  status: ('A' for Active; 'I' for Inactive)
    1  A    between atoms: C_5  and  C_28
    2  A    between atoms: C_5  and  C_35
    3  A    between atoms: C_7  and  C_11
    4  A    between atoms: C_7  and  C_37
    5  A    between atoms: O_9  and  C_11
    6  A    between atoms: O_9  and  C_31
    7  A    between atoms: C_10  and  O_12
    8  A    between atoms: C_10  and  C_28
    9  A    between atoms: C_11  and  C_39
   10  A    between atoms: O_12  and  C_23
   11  A    between atoms: C_15  and  C_17
   12  A    between atoms: C_15  and  C_39
   13  A    between atoms: C_17  and  C_30
   14  A    between atoms: C_21  and  C_23
   15  A    between atoms: C_23  and  C_26
   16  A    between atoms: C_29  and  C_30
                            x       y       z     vdW  Elec       q    Type
                         _______ _______ _______ _____ _____    ______ ____

>  <TORSDO>
F 16

$$$$
=
 OpenBabel11042412373D

 41 44  0  0  1  0  0  0  0  0999 V2000
  186.1040  177.9840  145.6860 C   0  0  0  0  0  0  0  0  0  0  0  0
  183.8650  179.0110  145.4660 C   0  0  0  0  0  3  0  0  0  0  0  0
  186.3940  177.7340  144.3290 C   0  0  0  0  0  0  0  0  0  0  0  0
  187.7160  177.5030  143.9490 C   0  0  0  0  0  3  0  0  0  0  0  0
  187.1100  177.9600  146.6030 N   0  0  0  0  0  0  0  0  0  0  0  0
  188.7370  177.5290  144.9010 C   0  0  0  0  0  0  0  0  0  0  0  0
  184.7280  178.2510  146.1460 C   0  0  0  0  0  3  0  0  0  0  0  0
  184.5240  178.8420  143.0080 C   0  0  2  0  0  3  0  0  0  0  0  0
  185.3000  177.5580  143.3190 C   0  0  0  0  0  2  0  0  0  0  0  0
  188.4020  177.7390  146.2450 C   0  0  0  0  0  3  0  0  0  0  0  0
  184.2520  179.7500  144.2170 C   0  0  0  0  0  2  0  0  0  0  0  0
  190.1510  177.2390  144.4720 C   0  0  1  0  0  3  0  0  0  0  0  0
  191.0380  176.7640  145.5530 C   0  0  0  0  0  0  0  0  0  0  0  0
  191.7600  176.3780  146.4390 C   0  0  0  0  0  3  0  0  0  0  0  0
  190.2440  176.4740  143.2860 O   0  0  0  0  0  0  0  0  0  0  0  0
  191.5600  176.5360  142.7910 C   0  0  0  0  0  2  0  0  0  0  0  0
  191.6270  177.5000  141.6160 C   0  0  0  0  0  2  0  0  0  0  0  0
  190.6180  177.1300  140.5360 C   0  0  0  0  0  2  0  0  0  0  0  0
  192.6310  176.8930  139.0590 C   0  0  0  0  0  3  0  0  0  0  0  0
  193.2640  176.3740  137.9230 C   0  0  0  0  0  3  0  0  0  0  0  0
  190.5920  175.7290  138.4550 C   0  0  0  0  0  3  0  0  0  0  0  0
  192.5610  175.5330  137.0530 C   0  0  0  0  0  3  0  0  0  0  0  0
  191.2240  175.2110  137.3190 C   0  0  0  0  0  3  0  0  0  0  0  0
  191.2960  176.5690  139.3290 C   0  0  0  0  0  0  0  0  0  0  0  0
  183.3160  178.5080  142.3880 O   0  0  0  0  0  0  0  0  0  0  0  0
  183.6590  178.1120  141.0880 C   0  0  1  0  0  3  0  0  0  0  0  0
  182.1370  178.6770  139.3230 O   0  0  0  0  0  1  0  0  0  0  0  0
  182.4100  177.7150  140.2990 C   0  0  1  0  0  3  0  0  0  0  0  0
  182.6050  176.3590  139.6330 C   0  0  0  0  0  2  0  0  0  0  0  0
  181.3360  175.9190  138.9170 C   0  0  0  0  0  2  0  0  0  0  0  0
  180.4770  175.0720  139.8400 C   0  0  0  0  0  2  0  0  0  0  0  0
  179.1890  175.8010  140.1760 C   0  0  0  0  0  2  0  0  0  0  0  0
  179.3010  176.4150  141.4250 O   0  0  0  0  0  1  0  0  0  0  0  0
  184.4390  179.2290  140.3810 C   0  0  0  0  0  2  0  0  0  0  0  0
  185.3880  178.3330  138.2340 C   0  0  0  0  0  3  0  0  0  0  0  0
  186.4650  177.8730  137.4700 C   0  0  0  0  0  0  0  0  0  0  0  0
  186.8610  178.6250  140.1340 C   0  0  0  0  0  3  0  0  0  0  0  0
  186.2700  177.5040  136.1480 O   0  0  0  0  0  1  0  0  0  0  0  0
  187.9380  178.1640  139.3720 C   0  0  0  0  0  3  0  0  0  0  0  0
  185.5840  178.7090  139.5680 C   0  0  0  0  0  0  0  0  0  0  0  0
  187.7390  177.7880  138.0390 C   0  0  0  0  0  3  0  0  0  0  0  0
  1  7  1  0  0  0  0
  1  5  1  0  0  0  0
  2  7  2  0  0  0  0
  3  1  2  0  0  0  0
  4  3  1  0  0  0  0
  4  6  2  0  0  0  0
  6 10  1  0  0  0  0
  8 25  1  1  0  0  0
  8  9  1  0  0  0  0
  8 11  1  0  0  0  0
  9  3  1  0  0  0  0
 10  5  2  0  0  0  0
 11  2  1  0  0  0  0
 12  6  1  0  0  0  0
 12 13  1  1  0  0  0
 13 14  3  0  0  0  0
 15 12  1  0  0  0  0
 16 15  1  0  0  0  0
 17 16  1  0  0  0  0
 18 17  1  0  0  0  0
 19 24  1  0  0  0  0
 20 19  2  0  0  0  0
 21 24  2  0  0  0  0
 22 23  2  0  0  0  0
 22 20  1  0  0  0  0
 23 21  1  0  0  0  0
 24 18  1  0  0  0  0
 26 34  1  6  0  0  0
 26 25  1  0  0  0  0
 28 27  1  6  0  0  0
 28 26  1  0  0  0  0
 29 28  1  0  0  0  0
 30 29  1  0  0  0  0
 30 31  1  0  0  0  0
 31 32  1  0  0  0  0
 32 33  1  0  0  0  0
 35 40  1  0  0  0  0
 36 41  1  0  0  0  0
 36 35  2  0  0  0  0
 38 36  1  0  0  0  0
 39 37  1  0  0  0  0
 40 37  2  0  0  0  0
 40 34  1  0  0  0  0
 41 39  2  0  0  0  0
M  END
>  <MODEL>
9

>  <REMARK>
 VINA RESULT:      -7.3      2.243      7.946
  Name = 
  16 active torsions:
  status: ('A' for Active; 'I' for Inactive)
    1  A    between atoms: C_5  and  C_28
    2  A    between atoms: C_5  and  C_35
    3  A    between atoms: C_7  and  C_11
    4  A    between atoms: C_7  and  C_37
    5  A    between atoms: O_9  and  C_11
    6  A    between atoms: O_9  and  C_31
    7  A    between atoms: C_10  and  O_12
    8  A    between atoms: C_10  and  C_28
    9  A    between atoms: C_11  and  C_39
   10  A    between atoms: O_12  and  C_23
   11  A    between atoms: C_15  and  C_17
   12  A    between atoms: C_15  and  C_39
   13  A    between atoms: C_17  and  C_30
   14  A    between atoms: C_21  and  C_23
   15  A    between atoms: C_23  and  C_26
   16  A    between atoms: C_29  and  C_30
                            x       y       z     vdW  Elec       q    Type
                         _______ _______ _______ _____ _____    ______ ____

>  <TORSDO>
F 16

$$$$
