=
 OpenBabel11032420523D

 42 44  0  0  1  0  0  0  0  0999 V2000
  187.1100  178.0820  137.1420 C   0  0  1  0  0  3  0  0  0  0  0  0
  188.4040  178.4220  137.8990 C   0  0  1  0  0  3  0  0  0  0  0  0
  188.9490  179.6100  137.4080 O   0  0  0  0  0  1  0  0  0  0  0  0
  190.2230  177.7710  139.9880 O   0  0  0  0  0  0  0  0  0  0  0  0
  188.1360  178.5700  139.3230 N   0  0  0  0  0  2  0  0  0  0  0  0
  188.7690  178.4480  141.7030 N   0  0  0  0  0  2  0  0  0  0  0  0
  189.1000  178.2390  140.3230 C   0  0  0  0  0  0  0  0  0  0  0  0
  191.6260  178.6040  144.2420 C   0  0  0  0  0  2  0  0  0  0  0  0
  189.2610  175.7100  143.0440 C   0  0  0  0  0  1  0  0  0  0  0  0
  189.1530  177.0440  143.7630 C   0  0  1  0  0  3  0  0  0  0  0  0
  189.9230  176.9810  145.0900 C   0  0  1  0  0  3  0  0  0  0  0  0
  191.4150  177.2260  144.8600 C   0  0  0  0  0  2  0  0  0  0  0  0
  190.7490  178.8170  143.0420 C   0  0  0  0  0  3  0  0  0  0  0  0
  189.5910  178.1660  142.8470 C   0  0  0  0  0  0  0  0  0  0  0  0
  188.2530  177.3340  146.4970 C   0  0  0  0  0  1  0  0  0  0  0  0
  189.4100  177.9200  145.9870 O   0  0  0  0  0  0  0  0  0  0  0  0
  186.9450  177.5150  134.6630 C   0  0  0  0  0  1  0  0  0  0  0  0
  187.3490  177.0320  136.0470 C   0  0  1  0  0  3  0  0  0  0  0  0
  189.0790  176.4750  136.0380 S   0  0  0  0  0  0  0  0  0  0  0  0
  188.5890  174.7330  136.1850 C   0  0  1  0  0  3  0  0  0  0  0  0
  190.2150  173.1920  135.3790 O   0  0  0  0  0  0  0  0  0  0  0  0
  190.4750  173.8410  137.5630 O   0  0  0  0  0  1  0  0  0  0  0  0
  189.7980  173.8780  136.3490 C   0  0  0  0  0  0  0  0  0  0  0  0
  187.7420  174.5730  137.2850 O   0  0  0  0  0  0  0  0  0  0  0  0
  186.6770  173.3230  136.8600 P   0  0  0  0  0  0  0  0  0  0  0  0
  185.4910  173.1410  138.0520 O   0  0  0  0  0  1  0  0  0  0  0  0
  187.5290  171.8720  136.6850 O   0  0  0  0  0  1  0  0  0  0  0  0
  186.0100  173.6650  135.5480 O   0  0  0  0  0  0  0  0  0  0  0  0
  185.9250  177.7050  138.0500 C   0  0  2  0  0  3  0  0  0  0  0  0
  184.9630  176.7720  137.3400 C   0  0  0  0  0  1  0  0  0  0  0  0
  185.2200  178.8840  138.5420 N   0  0  0  0  0  2  0  0  0  0  0  0
  184.5940  178.7770  143.4250 N   0  0  0  0  0  0  0  0  0  0  0  0
  183.3110  178.8250  145.5050 N   0  0  0  0  0  1  0  0  0  0  0  0
  182.2400  178.9910  140.8150 C   0  0  0  0  0  3  0  0  0  0  0  0
  182.3320  178.9200  143.2690 N   0  0  0  0  0  0  0  0  0  0  0  0
  183.4160  178.8390  144.0850 C   0  0  0  0  0  0  0  0  0  0  0  0
  184.2510  178.8180  142.1320 C   0  0  0  0  0  0  0  0  0  0  0  0
  185.9320  178.6990  143.9930 C   0  0  0  0  0  1  0  0  0  0  0  0
  184.4470  178.8780  139.7440 C   0  0  0  0  0  0  0  0  0  0  0  0
  182.8910  178.9080  142.0430 C   0  0  0  0  0  0  0  0  0  0  0  0
  185.0720  178.7990  141.0080 C   0  0  0  0  0  3  0  0  0  0  0  0
  183.0390  178.9770  139.6560 C   0  0  0  0  0  3  0  0  0  0  0  0
  1 18  1  6  0  0  0
  1  2  1  0  0  0  0
  1 29  1  0  0  0  0
  2  3  1  6  0  0  0
  2  5  1  0  0  0  0
  4  7  2  0  0  0  0
  5  7  1  0  0  0  0
  6 14  1  0  0  0  0
  7  6  1  0  0  0  0
  8 12  1  0  0  0  0
 10  9  1  6  0  0  0
 10 11  1  0  0  0  0
 11 16  1  1  0  0  0
 12 11  1  0  0  0  0
 13  8  1  0  0  0  0
 14 13  2  0  0  0  0
 14 10  1  0  0  0  0
 16 15  1  0  0  0  0
 18 17  1  6  0  0  0
 19 18  1  0  0  0  0
 20 19  1  1  0  0  0
 20 23  1  0  0  0  0
 20 24  1  0  0  0  0
 21 23  2  0  0  0  0
 23 22  1  0  0  0  0
 25 24  1  0  0  0  0
 25 26  1  0  0  0  0
 27 25  1  0  0  0  0
 28 25  2  0  0  0  0
 29 30  1  6  0  0  0
 29 31  1  0  0  0  0
 31 39  1  0  0  0  0
 32 38  1  0  0  0  0
 32 36  1  0  0  0  0
 34 40  1  0  0  0  0
 35 36  2  0  0  0  0
 36 33  1  0  0  0  0
 37 32  1  0  0  0  0
 39 41  2  0  0  0  0
 40 37  2  0  0  0  0
 40 35  1  0  0  0  0
 41 37  1  0  0  0  0
 42 39  1  0  0  0  0
 42 34  2  0  0  0  0
M  END
>  <MODEL>
1

>  <REMARK>
 VINA RESULT:      -7.8      0.000      0.000
  Name = 
  13 active torsions:
  status: ('A' for Active; 'I' for Inactive)
    1  A    between atoms: N_3  and  C_19
    2  A    between atoms: N_3  and  C_29
    3  A    between atoms: P_7  and  O_42
    4  A    between atoms: C_12  and  N_15
    5  A    between atoms: C_12  and  C_36
    6  A    between atoms: C_16  and  S_27
    7  A    between atoms: C_16  and  C_41
    8  A    between atoms: C_16  and  O_42
    9  A    between atoms: N_22  and  C_33
   10  A    between atoms: C_25  and  O_30
   11  A    between atoms: S_27  and  C_38
   12  A    between atoms: C_29  and  C_36
   13  A    between atoms: C_36  and  C_38
                            x       y       z     vdW  Elec       q    Type
                         _______ _______ _______ _____ _____    ______ ____

>  <TORSDO>
F 13

$$$$
=
 OpenBabel11032420523D

 42 44  0  0  1  0  0  0  0  0999 V2000
  187.0540  178.1500  137.2390 C   0  0  1  0  0  3  0  0  0  0  0  0
  188.3680  178.4790  137.9670 C   0  0  1  0  0  3  0  0  0  0  0  0
  188.9420  179.6300  137.4220 O   0  0  0  0  0  1  0  0  0  0  0  0
  190.0900  177.6410  140.0710 O   0  0  0  0  0  0  0  0  0  0  0  0
  188.1240  178.6910  139.3870 N   0  0  0  0  0  2  0  0  0  0  0  0
  188.7400  178.5370  141.7690 N   0  0  0  0  0  2  0  0  0  0  0  0
  189.0380  178.2580  140.3940 C   0  0  0  0  0  0  0  0  0  0  0  0
  191.5730  178.4140  144.3380 C   0  0  0  0  0  2  0  0  0  0  0  0
  188.9600  175.7590  143.1000 C   0  0  0  0  0  1  0  0  0  0  0  0
  188.9710  177.0940  143.8250 C   0  0  1  0  0  3  0  0  0  0  0  0
  189.7170  176.9530  145.1590 C   0  0  1  0  0  3  0  0  0  0  0  0
  191.2270  177.0590  144.9460 C   0  0  0  0  0  2  0  0  0  0  0  0
  190.7320  178.7130  143.1300 C   0  0  0  0  0  3  0  0  0  0  0  0
  189.5200  178.1740  142.9200 C   0  0  0  0  0  0  0  0  0  0  0  0
  189.4450  177.3580  147.3170 C   0  0  0  0  0  1  0  0  0  0  0  0
  189.2850  177.9320  146.0570 O   0  0  0  0  0  0  0  0  0  0  0  0
  186.6660  177.5000  134.8060 C   0  0  0  0  0  1  0  0  0  0  0  0
  187.2570  177.0910  136.1460 C   0  0  1  0  0  3  0  0  0  0  0  0
  189.0160  176.6740  135.9550 S   0  0  0  0  0  0  0  0  0  0  0  0
  188.7210  174.9370  136.3920 C   0  0  1  0  0  3  0  0  0  0  0  0
  190.5020  173.3590  136.4040 O   0  0  0  0  0  0  0  0  0  0  0  0
  190.5210  174.8730  138.1250 O   0  0  0  0  0  1  0  0  0  0  0  0
  189.9590  174.3420  136.9700 C   0  0  0  0  0  0  0  0  0  0  0  0
  187.6780  174.8560  137.3190 O   0  0  0  0  0  0  0  0  0  0  0  0
  186.7710  173.4960  136.8650 P   0  0  0  0  0  0  0  0  0  0  0  0
  186.4870  173.5170  135.1980 O   0  0  0  0  0  0  0  0  0  0  0  0
  185.2940  173.4830  137.6890 O   0  0  0  0  0  1  0  0  0  0  0  0
  187.5440  172.2460  137.2190 O   0  0  0  0  0  1  0  0  0  0  0  0
  185.8850  177.7920  138.1750 C   0  0  2  0  0  3  0  0  0  0  0  0
  184.8480  176.9460  137.4610 C   0  0  0  0  0  1  0  0  0  0  0  0
  185.2640  178.9800  138.7500 N   0  0  0  0  0  2  0  0  0  0  0  0
  181.2790  178.8070  141.6380 N   0  0  0  0  0  0  0  0  0  0  0  0
  180.0750  178.7210  143.7630 N   0  0  0  0  0  1  0  0  0  0  0  0
  184.7010  178.9620  142.4570 C   0  0  0  0  0  3  0  0  0  0  0  0
  182.5050  178.8580  143.5510 N   0  0  0  0  0  0  0  0  0  0  0  0
  181.2680  178.7960  142.9900 C   0  0  0  0  0  0  0  0  0  0  0  0
  182.5770  178.8810  141.3200 C   0  0  0  0  0  0  0  0  0  0  0  0
  180.1400  178.7360  140.7360 C   0  0  0  0  0  1  0  0  0  0  0  0
  184.5790  178.9670  140.0040 C   0  0  0  0  0  0  0  0  0  0  0  0
  183.3100  178.9070  142.4720 C   0  0  0  0  0  0  0  0  0  0  0  0
  183.1690  178.9100  140.0600 C   0  0  0  0  0  3  0  0  0  0  0  0
  185.3340  178.9890  141.1990 C   0  0  0  0  0  3  0  0  0  0  0  0
  1 18  1  6  0  0  0
  1  2  1  0  0  0  0
  1 29  1  0  0  0  0
  2  3  1  6  0  0  0
  2  5  1  0  0  0  0
  4  7  2  0  0  0  0
  5  7  1  0  0  0  0
  6 14  1  0  0  0  0
  7  6  1  0  0  0  0
  8 12  1  0  0  0  0
 10  9  1  6  0  0  0
 10 11  1  0  0  0  0
 11 16  1  1  0  0  0
 12 11  1  0  0  0  0
 13  8  1  0  0  0  0
 14 13  2  0  0  0  0
 14 10  1  0  0  0  0
 16 15  1  0  0  0  0
 18 17  1  6  0  0  0
 19 18  1  0  0  0  0
 20 19  1  1  0  0  0
 20 23  1  0  0  0  0
 20 24  1  0  0  0  0
 21 23  2  0  0  0  0
 23 22  1  0  0  0  0
 25 28  1  0  0  0  0
 25 24  1  0  0  0  0
 25 27  1  0  0  0  0
 26 25  2  0  0  0  0
 29 30  1  6  0  0  0
 29 31  1  0  0  0  0
 31 39  1  0  0  0  0
 32 36  1  0  0  0  0
 34 40  1  0  0  0  0
 36 35  2  0  0  0  0
 36 33  1  0  0  0  0
 37 32  1  0  0  0  0
 37 40  2  0  0  0  0
 38 32  1  0  0  0  0
 39 41  2  0  0  0  0
 39 42  1  0  0  0  0
 40 35  1  0  0  0  0
 41 37  1  0  0  0  0
 42 34  2  0  0  0  0
M  END
>  <MODEL>
2

>  <REMARK>
 VINA RESULT:      -7.5      0.789      1.786
  Name = 
  13 active torsions:
  status: ('A' for Active; 'I' for Inactive)
    1  A    between atoms: N_3  and  C_19
    2  A    between atoms: N_3  and  C_29
    3  A    between atoms: P_7  and  O_42
    4  A    between atoms: C_12  and  N_15
    5  A    between atoms: C_12  and  C_36
    6  A    between atoms: C_16  and  S_27
    7  A    between atoms: C_16  and  C_41
    8  A    between atoms: C_16  and  O_42
    9  A    between atoms: N_22  and  C_33
   10  A    between atoms: C_25  and  O_30
   11  A    between atoms: S_27  and  C_38
   12  A    between atoms: C_29  and  C_36
   13  A    between atoms: C_36  and  C_38
                            x       y       z     vdW  Elec       q    Type
                         _______ _______ _______ _____ _____    ______ ____

>  <TORSDO>
F 13

$$$$
=
 OpenBabel11032420523D

 42 44  0  0  1  0  0  0  0  0999 V2000
  187.0340  177.1160  137.6650 C   0  0  1  0  0  3  0  0  0  0  0  0
  188.0390  178.2290  138.0020 C   0  0  1  0  0  3  0  0  0  0  0  0
  187.7990  179.3490  137.2040 O   0  0  0  0  0  1  0  0  0  0  0  0
  189.7130  177.2720  140.0950 O   0  0  0  0  0  0  0  0  0  0  0  0
  187.9290  178.6060  139.4050 N   0  0  0  0  0  2  0  0  0  0  0  0
  188.6590  178.5500  141.7580 N   0  0  0  0  0  2  0  0  0  0  0  0
  188.8130  178.1010  140.4050 C   0  0  0  0  0  0  0  0  0  0  0  0
  191.5410  178.2320  144.2550 C   0  0  0  0  0  2  0  0  0  0  0  0
  188.6420  175.8110  143.1860 C   0  0  0  0  0  1  0  0  0  0  0  0
  188.8060  177.1630  143.8610 C   0  0  1  0  0  3  0  0  0  0  0  0
  189.5740  176.9940  145.1790 C   0  0  1  0  0  3  0  0  0  0  0  0
  191.0810  176.9410  144.9220 C   0  0  0  0  0  2  0  0  0  0  0  0
  190.6980  178.5720  143.0590 C   0  0  0  0  0  3  0  0  0  0  0  0
  189.4330  178.1510  142.9010 C   0  0  0  0  0  0  0  0  0  0  0  0
  188.0530  177.6830  146.6290 C   0  0  0  0  0  1  0  0  0  0  0  0
  189.2690  178.0420  146.0500 O   0  0  0  0  0  0  0  0  0  0  0  0
  185.2790  177.5940  135.8800 C   0  0  0  0  0  1  0  0  0  0  0  0
  185.6400  177.6800  137.3550 C   0  0  1  0  0  3  0  0  0  0  0  0
  184.3640  176.8670  138.3620 S   0  0  0  0  0  0  0  0  0  0  0  0
  184.3290  178.2410  139.5480 C   0  0  1  0  0  3  0  0  0  0  0  0
  184.0900  180.5050  138.8530 O   0  0  0  0  0  1  0  0  0  0  0  0
  182.2250  179.1970  138.5940 O   0  0  0  0  0  0  0  0  0  0  0  0
  183.5470  179.3780  138.9850 C   0  0  0  0  0  0  0  0  0  0  0  0
  183.7500  177.8140  140.7460 O   0  0  0  0  0  0  0  0  0  0  0  0
  184.6030  178.6170  141.9740 P   0  0  0  0  0  0  0  0  0  0  0  0
  185.6470  179.7650  141.3010 O   0  0  0  0  0  0  0  0  0  0  0  0
  185.4980  177.5030  142.8800 O   0  0  0  0  0  1  0  0  0  0  0  0
  183.6190  179.3150  142.8840 O   0  0  0  0  0  1  0  0  0  0  0  0
  187.5130  176.1380  136.5770 C   0  0  2  0  0  3  0  0  0  0  0  0
  187.7440  174.7510  137.1460 C   0  0  0  0  0  1  0  0  0  0  0  0
  188.7150  176.6180  135.9030 N   0  0  0  0  0  2  0  0  0  0  0  0
  193.0860  175.9530  138.0700 N   0  0  0  0  0  0  0  0  0  0  0  0
  195.2560  174.8830  138.4180 N   0  0  0  0  0  1  0  0  0  0  0  0
  191.6020  174.2940  135.3400 C   0  0  0  0  0  3  0  0  0  0  0  0
  193.6670  174.2590  136.6700 N   0  0  0  0  0  0  0  0  0  0  0  0
  194.0190  175.0340  137.7300 C   0  0  0  0  0  0  0  0  0  0  0  0
  192.0970  175.7600  137.1890 C   0  0  0  0  0  0  0  0  0  0  0  0
  193.1400  176.9200  139.1560 C   0  0  0  0  0  1  0  0  0  0  0  0
  189.9930  176.0010  136.0660 C   0  0  0  0  0  0  0  0  0  0  0  0
  192.4480  174.7390  136.3530 C   0  0  0  0  0  0  0  0  0  0  0  0
  190.8770  176.4230  137.0830 C   0  0  0  0  0  3  0  0  0  0  0  0
  190.3580  174.9410  135.2050 C   0  0  0  0  0  3  0  0  0  0  0  0
  1 29  1  6  0  0  0
  1  2  1  0  0  0  0
  2  3  1  6  0  0  0
  2  5  1  0  0  0  0
  4  7  2  0  0  0  0
  5  7  1  0  0  0  0
  6 14  1  0  0  0  0
  7  6  1  0  0  0  0
  8 12  1  0  0  0  0
 10  9  1  6  0  0  0
 10 11  1  0  0  0  0
 11 16  1  1  0  0  0
 12 11  1  0  0  0  0
 13  8  1  0  0  0  0
 14 13  2  0  0  0  0
 14 10  1  0  0  0  0
 16 15  1  0  0  0  0
 18 17  1  6  0  0  0
 18  1  1  0  0  0  0
 18 19  1  0  0  0  0
 20 19  1  6  0  0  0
 20 24  1  0  0  0  0
 21 23  1  0  0  0  0
 22 23  2  0  0  0  0
 23 20  1  0  0  0  0
 24 25  1  0  0  0  0
 25 27  1  0  0  0  0
 25 28  1  0  0  0  0
 26 25  2  0  0  0  0
 29 30  1  1  0  0  0
 31 39  1  0  0  0  0
 31 29  1  0  0  0  0
 32 38  1  0  0  0  0
 34 40  1  0  0  0  0
 35 36  2  0  0  0  0
 36 32  1  0  0  0  0
 36 33  1  0  0  0  0
 37 32  1  0  0  0  0
 39 41  2  0  0  0  0
 40 35  1  0  0  0  0
 40 37  2  0  0  0  0
 41 37  1  0  0  0  0
 42 34  2  0  0  0  0
 42 39  1  0  0  0  0
M  END
>  <MODEL>
3

>  <REMARK>
 VINA RESULT:      -7.0      3.610      6.988
  Name = 
  13 active torsions:
  status: ('A' for Active; 'I' for Inactive)
    1  A    between atoms: N_3  and  C_19
    2  A    between atoms: N_3  and  C_29
    3  A    between atoms: P_7  and  O_42
    4  A    between atoms: C_12  and  N_15
    5  A    between atoms: C_12  and  C_36
    6  A    between atoms: C_16  and  S_27
    7  A    between atoms: C_16  and  C_41
    8  A    between atoms: C_16  and  O_42
    9  A    between atoms: N_22  and  C_33
   10  A    between atoms: C_25  and  O_30
   11  A    between atoms: S_27  and  C_38
   12  A    between atoms: C_29  and  C_36
   13  A    between atoms: C_36  and  C_38
                            x       y       z     vdW  Elec       q    Type
                         _______ _______ _______ _____ _____    ______ ____

>  <TORSDO>
F 13

$$$$
=
 OpenBabel11032420523D

 42 44  0  0  1  0  0  0  0  0999 V2000
  187.2010  178.0350  137.6170 C   0  0  1  0  0  3  0  0  0  0  0  0
  188.4460  178.3400  138.4650 C   0  0  1  0  0  3  0  0  0  0  0  0
  189.1360  179.4290  137.9310 O   0  0  0  0  0  1  0  0  0  0  0  0
  189.6740  177.2450  140.7870 O   0  0  0  0  0  0  0  0  0  0  0  0
  188.0650  178.6400  139.8390 N   0  0  0  0  0  2  0  0  0  0  0  0
  188.3190  178.4440  142.2830 N   0  0  0  0  0  2  0  0  0  0  0  0
  188.7330  178.0680  140.9630 C   0  0  0  0  0  0  0  0  0  0  0  0
  188.5350  177.0010  145.8200 C   0  0  0  0  0  2  0  0  0  0  0  0
  190.7860  179.5080  143.8050 C   0  0  0  0  0  1  0  0  0  0  0  0
  190.3490  178.0540  143.7280 C   0  0  1  0  0  3  0  0  0  0  0  0
  190.8640  177.2920  144.9570 C   0  0  1  0  0  3  0  0  0  0  0  0
  189.9350  177.5070  146.1520 C   0  0  0  0  0  2  0  0  0  0  0  0
  188.0390  177.5540  144.5140 C   0  0  0  0  0  3  0  0  0  0  0  0
  188.8520  177.9700  143.5300 C   0  0  0  0  0  0  0  0  0  0  0  0
  191.7550  175.8720  143.5140 C   0  0  0  0  0  1  0  0  0  0  0  0
  190.9730  175.9300  144.6670 O   0  0  0  0  0  0  0  0  0  0  0  0
  187.9560  177.5400  135.2340 C   0  0  0  0  0  1  0  0  0  0  0  0
  187.4820  176.9600  136.5570 C   0  0  1  0  0  3  0  0  0  0  0  0
  188.6760  175.7330  137.1680 S   0  0  0  0  0  0  0  0  0  0  0  0
  187.8900  174.3980  136.2210 C   0  0  1  0  0  3  0  0  0  0  0  0
  189.6360  174.4140  134.6030 O   0  0  0  0  0  0  0  0  0  0  0  0
  189.0420  172.3430  135.3850 O   0  0  0  0  0  1  0  0  0  0  0  0
  188.9010  173.7250  135.3560 C   0  0  0  0  0  0  0  0  0  0  0  0
  187.3220  173.4700  137.0980 O   0  0  0  0  0  0  0  0  0  0  0  0
  185.7560  173.1880  136.5100 P   0  0  0  0  0  0  0  0  0  0  0  0
  184.6340  173.2940  137.7710 O   0  0  0  0  0  1  0  0  0  0  0  0
  185.6700  171.6510  135.8070 O   0  0  0  0  0  1  0  0  0  0  0  0
  185.4250  174.2270  135.4640 O   0  0  0  0  0  0  0  0  0  0  0  0
  185.9380  177.7150  138.4380 C   0  0  2  0  0  3  0  0  0  0  0  0
  184.9370  176.9200  137.6210 C   0  0  0  0  0  1  0  0  0  0  0  0
  185.3150  178.9210  138.9710 N   0  0  0  0  0  2  0  0  0  0  0  0
  180.8830  178.6130  141.0940 N   0  0  0  0  0  0  0  0  0  0  0  0
  179.3160  178.5160  142.9670 N   0  0  0  0  0  1  0  0  0  0  0  0
  184.0870  178.9620  142.5130 C   0  0  0  0  0  3  0  0  0  0  0  0
  181.7350  178.7720  143.1950 N   0  0  0  0  0  0  0  0  0  0  0  0
  180.6250  178.6330  142.4220 C   0  0  0  0  0  0  0  0  0  0  0  0
  182.2120  178.7460  141.0140 C   0  0  0  0  0  0  0  0  0  0  0  0
  179.9320  178.4630  140.0030 C   0  0  0  0  0  1  0  0  0  0  0  0
  184.4140  178.9030  140.0810 C   0  0  0  0  0  0  0  0  0  0  0  0
  182.7200  178.8370  142.2780 C   0  0  0  0  0  0  0  0  0  0  0  0
  183.0220  178.7750  139.8820 C   0  0  0  0  0  3  0  0  0  0  0  0
  184.9370  178.9920  141.3910 C   0  0  0  0  0  3  0  0  0  0  0  0
  1 18  1  6  0  0  0
  1 29  1  0  0  0  0
  1  2  1  0  0  0  0
  2  3  1  6  0  0  0
  2  5  1  0  0  0  0
  4  7  2  0  0  0  0
  5  7  1  0  0  0  0
  6 14  1  0  0  0  0
  7  6  1  0  0  0  0
  8 12  1  0  0  0  0
 10  9  1  1  0  0  0
 10 11  1  0  0  0  0
 11 16  1  6  0  0  0
 11 12  1  0  0  0  0
 13  8  1  0  0  0  0
 14 10  1  0  0  0  0
 14 13  2  0  0  0  0
 15 16  1  0  0  0  0
 18 17  1  6  0  0  0
 18 19  1  0  0  0  0
 20 23  1  1  0  0  0
 20 24  1  0  0  0  0
 20 19  1  0  0  0  0
 21 23  2  0  0  0  0
 23 22  1  0  0  0  0
 25 24  1  0  0  0  0
 25 26  1  0  0  0  0
 27 25  1  0  0  0  0
 28 25  2  0  0  0  0
 29 30  1  6  0  0  0
 29 31  1  0  0  0  0
 31 39  1  0  0  0  0
 32 36  1  0  0  0  0
 36 33  1  0  0  0  0
 36 35  2  0  0  0  0
 37 32  1  0  0  0  0
 37 40  2  0  0  0  0
 38 32  1  0  0  0  0
 39 42  1  0  0  0  0
 40 34  1  0  0  0  0
 40 35  1  0  0  0  0
 41 39  2  0  0  0  0
 41 37  1  0  0  0  0
 42 34  2  0  0  0  0
M  END
>  <MODEL>
4

>  <REMARK>
 VINA RESULT:      -6.9      1.328      2.397
  Name = 
  13 active torsions:
  status: ('A' for Active; 'I' for Inactive)
    1  A    between atoms: N_3  and  C_19
    2  A    between atoms: N_3  and  C_29
    3  A    between atoms: P_7  and  O_42
    4  A    between atoms: C_12  and  N_15
    5  A    between atoms: C_12  and  C_36
    6  A    between atoms: C_16  and  S_27
    7  A    between atoms: C_16  and  C_41
    8  A    between atoms: C_16  and  O_42
    9  A    between atoms: N_22  and  C_33
   10  A    between atoms: C_25  and  O_30
   11  A    between atoms: S_27  and  C_38
   12  A    between atoms: C_29  and  C_36
   13  A    between atoms: C_36  and  C_38
                            x       y       z     vdW  Elec       q    Type
                         _______ _______ _______ _____ _____    ______ ____

>  <TORSDO>
F 13

$$$$
=
 OpenBabel11032420523D

 42 44  0  0  1  0  0  0  0  0999 V2000
  188.3810  177.0170  138.2590 C   0  0  1  0  0  3  0  0  0  0  0  0
  189.0540  177.8220  139.3820 C   0  0  1  0  0  3  0  0  0  0  0  0
  188.2430  178.8950  139.7570 O   0  0  0  0  0  1  0  0  0  0  0  0
  189.0320  178.6980  142.0890 O   0  0  0  0  0  0  0  0  0  0  0  0
  189.2940  176.9740  140.5420 N   0  0  0  0  0  2  0  0  0  0  0  0
  189.4650  176.5650  142.9670 N   0  0  0  0  0  2  0  0  0  0  0  0
  189.2530  177.4740  141.8780 C   0  0  0  0  0  0  0  0  0  0  0  0
  188.2790  177.2800  146.5330 C   0  0  0  0  0  2  0  0  0  0  0  0
  191.4140  178.4300  144.4700 C   0  0  0  0  0  1  0  0  0  0  0  0
  190.8190  177.1420  145.0150 C   0  0  1  0  0  3  0  0  0  0  0  0
  190.7780  177.1990  146.5480 C   0  0  1  0  0  3  0  0  0  0  0  0
  189.5470  177.9680  147.0270 C   0  0  0  0  0  2  0  0  0  0  0  0
  188.3320  177.0070  145.0570 C   0  0  0  0  0  3  0  0  0  0  0  0
  189.4780  176.8740  144.3690 C   0  0  0  0  0  0  0  0  0  0  0  0
  192.1180  175.6190  147.3250 C   0  0  0  0  0  1  0  0  0  0  0  0
  190.7770  175.9060  147.0770 O   0  0  0  0  0  0  0  0  0  0  0  0
  187.7960  178.6180  136.3630 C   0  0  0  0  0  1  0  0  0  0  0  0
  187.2810  177.8270  137.5560 C   0  0  1  0  0  3  0  0  0  0  0  0
  185.9000  176.7590  137.0530 S   0  0  0  0  0  0  0  0  0  0  0  0
  184.7040  177.7450  137.9980 C   0  0  1  0  0  3  0  0  0  0  0  0
  182.9080  176.2140  138.3030 O   0  0  0  0  0  1  0  0  0  0  0  0
  182.4830  177.9530  136.8720 O   0  0  0  0  0  0  0  0  0  0  0  0
  183.3210  177.2570  137.7340 C   0  0  0  0  0  0  0  0  0  0  0  0
  184.9900  177.6500  139.3630 O   0  0  0  0  0  0  0  0  0  0  0  0
  184.4050  179.0850  140.0510 P   0  0  0  0  0  0  0  0  0  0  0  0
  182.8380  178.8490  140.6430 O   0  0  0  0  0  1  0  0  0  0  0  0
  184.3910  180.3190  138.8940 O   0  0  0  0  0  0  0  0  0  0  0  0
  185.3090  179.4900  141.1930 O   0  0  0  0  0  1  0  0  0  0  0  0
  189.3630  176.3900  137.2530 C   0  0  2  0  0  3  0  0  0  0  0  0
  189.2820  174.8760  137.2750 C   0  0  0  0  0  1  0  0  0  0  0  0
  190.7350  176.8290  137.4850 N   0  0  0  0  0  2  0  0  0  0  0  0
  195.0750  174.5050  137.5640 N   0  0  0  0  0  0  0  0  0  0  0  0
  196.9960  173.3460  136.5930 N   0  0  0  0  0  1  0  0  0  0  0  0
  192.9920  175.3820  134.8640 C   0  0  0  0  0  3  0  0  0  0  0  0
  195.1330  174.2630  135.3050 N   0  0  0  0  0  0  0  0  0  0  0  0
  195.7520  174.0310  136.4930 C   0  0  0  0  0  0  0  0  0  0  0  0
  193.9790  175.0660  137.0390 C   0  0  0  0  0  0  0  0  0  0  0  0
  195.4480  174.4110  138.9670 C   0  0  0  0  0  1  0  0  0  0  0  0
  191.8650  176.1860  136.8920 C   0  0  0  0  0  0  0  0  0  0  0  0
  194.0160  174.9150  135.6830 C   0  0  0  0  0  0  0  0  0  0  0  0
  192.9220  175.6970  137.6910 C   0  0  0  0  0  3  0  0  0  0  0  0
  191.9050  176.0240  135.4880 C   0  0  0  0  0  3  0  0  0  0  0  0
  1 29  1  6  0  0  0
  1  2  1  0  0  0  0
  2  3  1  1  0  0  0
  2  5  1  0  0  0  0
  5  7  1  0  0  0  0
  6 14  1  0  0  0  0
  7  4  2  0  0  0  0
  7  6  1  0  0  0  0
  8 12  1  0  0  0  0
 10  9  1  6  0  0  0
 10 11  1  0  0  0  0
 11 12  1  0  0  0  0
 11 16  1  1  0  0  0
 13  8  1  0  0  0  0
 14 10  1  0  0  0  0
 14 13  2  0  0  0  0
 16 15  1  0  0  0  0
 18 17  1  6  0  0  0
 18  1  1  0  0  0  0
 19 18  1  0  0  0  0
 20 19  1  6  0  0  0
 20 24  1  0  0  0  0
 22 23  2  0  0  0  0
 23 20  1  0  0  0  0
 23 21  1  0  0  0  0
 24 25  1  0  0  0  0
 25 26  1  0  0  0  0
 25 28  1  0  0  0  0
 27 25  2  0  0  0  0
 29 30  1  1  0  0  0
 29 31  1  0  0  0  0
 32 38  1  0  0  0  0
 34 42  2  0  0  0  0
 34 40  1  0  0  0  0
 35 40  1  0  0  0  0
 35 36  2  0  0  0  0
 36 33  1  0  0  0  0
 36 32  1  0  0  0  0
 37 32  1  0  0  0  0
 37 41  1  0  0  0  0
 39 31  1  0  0  0  0
 39 41  2  0  0  0  0
 40 37  2  0  0  0  0
 42 39  1  0  0  0  0
M  END
>  <MODEL>
5

>  <REMARK>
 VINA RESULT:      -6.6      4.171      7.764
  Name = 
  13 active torsions:
  status: ('A' for Active; 'I' for Inactive)
    1  A    between atoms: N_3  and  C_19
    2  A    between atoms: N_3  and  C_29
    3  A    between atoms: P_7  and  O_42
    4  A    between atoms: C_12  and  N_15
    5  A    between atoms: C_12  and  C_36
    6  A    between atoms: C_16  and  S_27
    7  A    between atoms: C_16  and  C_41
    8  A    between atoms: C_16  and  O_42
    9  A    between atoms: N_22  and  C_33
   10  A    between atoms: C_25  and  O_30
   11  A    between atoms: S_27  and  C_38
   12  A    between atoms: C_29  and  C_36
   13  A    between atoms: C_36  and  C_38
                            x       y       z     vdW  Elec       q    Type
                         _______ _______ _______ _____ _____    ______ ____

>  <TORSDO>
F 13

$$$$
=
 OpenBabel11032420523D

 42 44  0  0  1  0  0  0  0  0999 V2000
  187.1160  178.1920  137.2690 C   0  0  1  0  0  3  0  0  0  0  0  0
  188.4210  178.5120  138.0160 C   0  0  1  0  0  3  0  0  0  0  0  0
  189.0260  179.6420  137.4620 O   0  0  0  0  0  1  0  0  0  0  0  0
  190.0600  177.6380  140.1710 O   0  0  0  0  0  0  0  0  0  0  0  0
  188.1530  178.7540  139.4270 N   0  0  0  0  0  2  0  0  0  0  0  0
  188.7080  178.6120  141.8250 N   0  0  0  0  0  2  0  0  0  0  0  0
  189.0260  178.3010  140.4620 C   0  0  0  0  0  0  0  0  0  0  0  0
  191.4540  178.4500  144.4840 C   0  0  0  0  0  2  0  0  0  0  0  0
  188.8580  175.8250  143.1470 C   0  0  0  0  0  1  0  0  0  0  0  0
  188.8570  177.1570  143.8800 C   0  0  1  0  0  3  0  0  0  0  0  0
  189.5580  177.0020  145.2370 C   0  0  1  0  0  3  0  0  0  0  0  0
  191.0760  177.0950  145.0730 C   0  0  0  0  0  2  0  0  0  0  0  0
  190.6550  178.7630  143.2510 C   0  0  0  0  0  3  0  0  0  0  0  0
  189.4460  178.2360  142.9980 C   0  0  0  0  0  0  0  0  0  0  0  0
  189.2480  177.4100  147.3890 C   0  0  0  0  0  1  0  0  0  0  0  0
  189.1060  177.9810  146.1250 O   0  0  0  0  0  0  0  0  0  0  0  0
  186.1990  177.1080  135.1520 C   0  0  0  0  0  1  0  0  0  0  0  0
  187.3320  177.1460  136.1660 C   0  0  1  0  0  3  0  0  0  0  0  0
  188.9210  177.4020  135.3210 S   0  0  0  0  0  0  0  0  0  0  0  0
  189.6600  175.9530  136.1280 C   0  0  1  0  0  3  0  0  0  0  0  0
  189.9850  174.1590  134.5980 O   0  0  0  0  0  0  0  0  0  0  0  0
  187.9840  174.1440  135.7160 O   0  0  0  0  0  1  0  0  0  0  0  0
  189.2240  174.7080  135.4350 C   0  0  0  0  0  0  0  0  0  0  0  0
  191.0530  176.0530  136.0920 O   0  0  0  0  0  0  0  0  0  0  0  0
  191.5930  175.4290  137.5750 P   0  0  0  0  0  0  0  0  0  0  0  0
  192.6980  176.4940  138.2860 O   0  0  0  0  0  1  0  0  0  0  0  0
  192.3320  173.9260  137.3350 O   0  0  0  0  0  0  0  0  0  0  0  0
  190.4090  175.2550  138.4980 O   0  0  0  0  0  1  0  0  0  0  0  0
  185.9360  177.8230  138.1860 C   0  0  2  0  0  3  0  0  0  0  0  0
  184.8920  177.0120  137.4410 C   0  0  0  0  0  1  0  0  0  0  0  0
  185.3260  179.0030  138.7900 N   0  0  0  0  0  2  0  0  0  0  0  0
  181.1940  178.5750  141.4340 N   0  0  0  0  0  0  0  0  0  0  0  0
  179.8710  178.4200  143.4830 N   0  0  0  0  0  1  0  0  0  0  0  0
  184.5410  178.9670  142.4560 C   0  0  0  0  0  3  0  0  0  0  0  0
  182.2940  178.7200  143.4170 N   0  0  0  0  0  0  0  0  0  0  0  0
  181.1010  178.5710  142.7830 C   0  0  0  0  0  0  0  0  0  0  0  0
  182.5010  178.7360  141.1940 C   0  0  0  0  0  0  0  0  0  0  0  0
  180.1190  178.4230  140.4650 C   0  0  0  0  0  1  0  0  0  0  0  0
  184.5690  178.9500  140.0010 C   0  0  0  0  0  0  0  0  0  0  0  0
  183.1590  178.8180  142.3880 C   0  0  0  0  0  0  0  0  0  0  0  0
  183.1650  178.7980  139.9720 C   0  0  0  0  0  3  0  0  0  0  0  0
  185.2470  179.0300  141.2390 C   0  0  0  0  0  3  0  0  0  0  0  0
  1 18  1  6  0  0  0
  1  2  1  0  0  0  0
  1 29  1  0  0  0  0
  2  3  1  6  0  0  0
  2  5  1  0  0  0  0
  4  7  2  0  0  0  0
  5  7  1  0  0  0  0
  6 14  1  0  0  0  0
  7  6  1  0  0  0  0
  8 12  1  0  0  0  0
 10  9  1  6  0  0  0
 10 11  1  0  0  0  0
 11 16  1  1  0  0  0
 12 11  1  0  0  0  0
 13  8  1  0  0  0  0
 14 13  2  0  0  0  0
 14 10  1  0  0  0  0
 16 15  1  0  0  0  0
 18 17  1  6  0  0  0
 19 18  1  0  0  0  0
 20 19  1  6  0  0  0
 21 23  2  0  0  0  0
 23 22  1  0  0  0  0
 23 20  1  0  0  0  0
 24 20  1  0  0  0  0
 24 25  1  0  0  0  0
 25 26  1  0  0  0  0
 25 28  1  0  0  0  0
 27 25  2  0  0  0  0
 29 30  1  6  0  0  0
 29 31  1  0  0  0  0
 31 39  1  0  0  0  0
 32 36  1  0  0  0  0
 36 35  2  0  0  0  0
 36 33  1  0  0  0  0
 37 32  1  0  0  0  0
 37 40  2  0  0  0  0
 38 32  1  0  0  0  0
 39 42  1  0  0  0  0
 40 34  1  0  0  0  0
 40 35  1  0  0  0  0
 41 39  2  0  0  0  0
 41 37  1  0  0  0  0
 42 34  2  0  0  0  0
M  END
>  <MODEL>
6

>  <REMARK>
 VINA RESULT:      -6.5      1.448      2.655
  Name = 
  13 active torsions:
  status: ('A' for Active; 'I' for Inactive)
    1  A    between atoms: N_3  and  C_19
    2  A    between atoms: N_3  and  C_29
    3  A    between atoms: P_7  and  O_42
    4  A    between atoms: C_12  and  N_15
    5  A    between atoms: C_12  and  C_36
    6  A    between atoms: C_16  and  S_27
    7  A    between atoms: C_16  and  C_41
    8  A    between atoms: C_16  and  O_42
    9  A    between atoms: N_22  and  C_33
   10  A    between atoms: C_25  and  O_30
   11  A    between atoms: S_27  and  C_38
   12  A    between atoms: C_29  and  C_36
   13  A    between atoms: C_36  and  C_38
                            x       y       z     vdW  Elec       q    Type
                         _______ _______ _______ _____ _____    ______ ____

>  <TORSDO>
F 13

$$$$
=
 OpenBabel11032420523D

 42 44  0  0  1  0  0  0  0  0999 V2000
  187.9170  177.4610  138.4740 C   0  0  1  0  0  3  0  0  0  0  0  0
  186.6970  178.3860  138.3420 C   0  0  1  0  0  3  0  0  0  0  0  0
  186.4370  178.6470  136.9950 O   0  0  0  0  0  1  0  0  0  0  0  0
  184.7480  179.7520  139.9010 O   0  0  0  0  0  0  0  0  0  0  0  0
  185.5240  177.7710  138.9470 N   0  0  0  0  0  2  0  0  0  0  0  0
  183.4260  177.8420  140.2400 N   0  0  0  0  0  2  0  0  0  0  0  0
  184.5730  178.5170  139.7070 C   0  0  0  0  0  0  0  0  0  0  0  0
  181.5130  179.2930  143.2180 C   0  0  0  0  0  2  0  0  0  0  0  0
  180.3950  177.2870  140.0340 C   0  0  0  0  0  1  0  0  0  0  0  0
  181.0320  178.6250  140.3720 C   0  0  1  0  0  3  0  0  0  0  0  0
  180.0520  179.4720  141.1960 C   0  0  1  0  0  3  0  0  0  0  0  0
  180.1060  179.0760  142.6720 C   0  0  0  0  0  2  0  0  0  0  0  0
  182.5540  178.6550  142.3440 C   0  0  0  0  0  3  0  0  0  0  0  0
  182.3740  178.4100  141.0360 C   0  0  0  0  0  0  0  0  0  0  0  0
  179.5620  181.2530  139.9780 C   0  0  0  0  0  1  0  0  0  0  0  0
  180.3490  180.8290  141.0480 O   0  0  0  0  0  0  0  0  0  0  0  0
  189.4660  177.8620  136.4910 C   0  0  0  0  0  1  0  0  0  0  0  0
  188.4070  176.9620  137.1070 C   0  0  1  0  0  3  0  0  0  0  0  0
  189.0200  175.2540  137.2130 S   0  0  0  0  0  0  0  0  0  0  0  0
  187.5530  174.6050  136.3620 C   0  0  1  0  0  3  0  0  0  0  0  0
  187.6680  172.2620  136.7690 O   0  0  0  0  0  1  0  0  0  0  0  0
  188.1500  172.9110  134.6230 O   0  0  0  0  0  0  0  0  0  0  0  0
  187.7950  173.1970  135.9370 C   0  0  0  0  0  0  0  0  0  0  0  0
  186.4500  174.6590  137.2180 O   0  0  0  0  0  0  0  0  0  0  0  0
  185.1200  175.0080  136.2250 P   0  0  0  0  0  0  0  0  0  0  0  0
  185.5750  176.0850  135.0020 O   0  0  0  0  0  0  0  0  0  0  0  0
  183.8740  175.6920  137.1440 O   0  0  0  0  0  1  0  0  0  0  0  0
  184.6230  173.7270  135.5960 O   0  0  0  0  0  1  0  0  0  0  0  0
  189.0660  178.0450  139.3170 C   0  0  2  0  0  3  0  0  0  0  0  0
  189.9440  176.9460  139.8860 C   0  0  0  0  0  1  0  0  0  0  0  0
  188.5740  178.9070  140.3870 N   0  0  0  0  0  2  0  0  0  0  0  0
  189.9100  177.5120  144.9160 N   0  0  0  0  0  0  0  0  0  0  0  0
  189.5380  176.7640  147.2130 N   0  0  0  0  0  1  0  0  0  0  0  0
  186.7220  177.7630  143.4390 C   0  0  0  0  0  3  0  0  0  0  0  0
  187.7660  177.1430  145.5750 N   0  0  0  0  0  0  0  0  0  0  0  0
  189.0820  177.1340  145.9170 C   0  0  0  0  0  0  0  0  0  0  0  0
  189.0900  177.7720  143.8900 C   0  0  0  0  0  0  0  0  0  0  0  0
  191.3600  177.6250  144.9530 C   0  0  0  0  0  1  0  0  0  0  0  0
  188.3350  178.4350  141.7140 C   0  0  0  0  0  0  0  0  0  0  0  0
  187.8030  177.5530  144.2910 C   0  0  0  0  0  0  0  0  0  0  0  0
  189.4060  178.2130  142.6080 C   0  0  0  0  0  3  0  0  0  0  0  0
  187.0040  178.2130  142.1350 C   0  0  0  0  0  3  0  0  0  0  0  0
  1 18  1  6  0  0  0
  1 29  1  0  0  0  0
  2  3  1  6  0  0  0
  2  1  1  0  0  0  0
  2  5  1  0  0  0  0
  5  7  1  0  0  0  0
  6 14  1  0  0  0  0
  7  4  2  0  0  0  0
  7  6  1  0  0  0  0
 10  9  1  1  0  0  0
 10 14  1  0  0  0  0
 10 11  1  0  0  0  0
 11 16  1  1  0  0  0
 11 12  1  0  0  0  0
 12  8  1  0  0  0  0
 13  8  1  0  0  0  0
 14 13  2  0  0  0  0
 15 16  1  0  0  0  0
 18 17  1  1  0  0  0
 18 19  1  0  0  0  0
 20 23  1  1  0  0  0
 20 19  1  0  0  0  0
 20 24  1  0  0  0  0
 22 23  2  0  0  0  0
 23 21  1  0  0  0  0
 25 27  1  0  0  0  0
 25 24  1  0  0  0  0
 26 25  2  0  0  0  0
 28 25  1  0  0  0  0
 29 30  1  1  0  0  0
 29 31  1  0  0  0  0
 31 39  1  0  0  0  0
 32 38  1  0  0  0  0
 32 36  1  0  0  0  0
 34 40  1  0  0  0  0
 35 36  2  0  0  0  0
 36 33  1  0  0  0  0
 37 40  2  0  0  0  0
 37 32  1  0  0  0  0
 39 42  1  0  0  0  0
 39 41  2  0  0  0  0
 40 35  1  0  0  0  0
 41 37  1  0  0  0  0
 42 34  2  0  0  0  0
M  END
>  <MODEL>
7

>  <REMARK>
 VINA RESULT:      -6.4      2.655      5.979
  Name = 
  13 active torsions:
  status: ('A' for Active; 'I' for Inactive)
    1  A    between atoms: N_3  and  C_19
    2  A    between atoms: N_3  and  C_29
    3  A    between atoms: P_7  and  O_42
    4  A    between atoms: C_12  and  N_15
    5  A    between atoms: C_12  and  C_36
    6  A    between atoms: C_16  and  S_27
    7  A    between atoms: C_16  and  C_41
    8  A    between atoms: C_16  and  O_42
    9  A    between atoms: N_22  and  C_33
   10  A    between atoms: C_25  and  O_30
   11  A    between atoms: S_27  and  C_38
   12  A    between atoms: C_29  and  C_36
   13  A    between atoms: C_36  and  C_38
                            x       y       z     vdW  Elec       q    Type
                         _______ _______ _______ _____ _____    ______ ____

>  <TORSDO>
F 13

$$$$
=
 OpenBabel11032420523D

 42 44  0  0  1  0  0  0  0  0999 V2000
  189.1500  178.1530  142.2490 C   0  0  1  0  0  3  0  0  0  0  0  0
  187.9800  178.5550  141.3360 C   0  0  1  0  0  3  0  0  0  0  0  0
  188.1060  177.9330  140.0920 O   0  0  0  0  0  1  0  0  0  0  0  0
  185.4190  179.4530  140.4800 O   0  0  0  0  0  0  0  0  0  0  0  0
  186.7100  178.1710  141.9380 N   0  0  0  0  0  2  0  0  0  0  0  0
  184.2490  178.1920  142.0760 N   0  0  0  0  0  2  0  0  0  0  0  0
  185.4560  178.6460  141.4490 C   0  0  0  0  0  0  0  0  0  0  0  0
  180.6510  179.4550  142.3930 C   0  0  0  0  0  2  0  0  0  0  0  0
  182.3800  176.8550  140.0130 C   0  0  0  0  0  1  0  0  0  0  0  0
  182.4480  178.3430  140.3160 C   0  0  1  0  0  3  0  0  0  0  0  0
  181.1050  179.0030  139.9760 C   0  0  1  0  0  3  0  0  0  0  0  0
  180.1070  178.8170  141.1190 C   0  0  0  0  0  2  0  0  0  0  0  0
  182.0540  179.0040  142.6860 C   0  0  0  0  0  3  0  0  0  0  0  0
  182.9020  178.5630  141.7430 C   0  0  0  0  0  0  0  0  0  0  0  0
  181.6680  180.4180  138.3700 C   0  0  0  0  0  1  0  0  0  0  0  0
  181.2920  180.3620  139.7120 O   0  0  0  0  0  0  0  0  0  0  0  0
  188.7780  176.0140  143.5840 C   0  0  0  0  0  1  0  0  0  0  0  0
  188.6590  177.5300  143.5640 C   0  0  1  0  0  3  0  0  0  0  0  0
  189.5270  178.2460  144.9920 S   0  0  0  0  0  0  0  0  0  0  0  0
  188.1950  177.7630  146.1280 C   0  0  1  0  0  3  0  0  0  0  0  0
  188.2410  177.4610  148.4890 O   0  0  0  0  0  1  0  0  0  0  0  0
  189.8960  176.3790  147.3280 O   0  0  0  0  0  0  0  0  0  0  0  0
  188.7750  177.2000  147.3800 C   0  0  0  0  0  0  0  0  0  0  0  0
  187.4060  178.8770  146.4290 O   0  0  0  0  0  0  0  0  0  0  0  0
  185.8280  178.4530  145.9720 P   0  0  0  0  0  0  0  0  0  0  0  0
  185.1860  179.6300  144.9400 O   0  0  0  0  0  0  0  0  0  0  0  0
  184.8470  178.3090  147.3430 O   0  0  0  0  0  1  0  0  0  0  0  0
  185.8620  177.1270  145.2490 O   0  0  0  0  0  1  0  0  0  0  0  0
  190.2170  177.2800  141.5630 C   0  0  2  0  0  3  0  0  0  0  0  0
  191.5180  177.2890  142.3420 C   0  0  0  0  0  1  0  0  0  0  0  0
  190.4480  177.6870  140.1810 N   0  0  0  0  0  2  0  0  0  0  0  0
  190.7570  174.0340  136.8940 N   0  0  0  0  0  0  0  0  0  0  0  0
  191.8600  172.6350  135.2210 N   0  0  0  0  0  1  0  0  0  0  0  0
  193.1800  176.3410  137.9950 C   0  0  0  0  0  3  0  0  0  0  0  0
  192.9430  174.4560  136.4370 N   0  0  0  0  0  0  0  0  0  0  0  0
  191.8490  173.6930  136.1730 C   0  0  0  0  0  0  0  0  0  0  0  0
  191.1690  175.0570  137.6520 C   0  0  0  0  0  0  0  0  0  0  0  0
  189.4320  173.4350  136.8430 C   0  0  0  0  0  1  0  0  0  0  0  0
  191.1230  176.8600  139.2320 C   0  0  0  0  0  0  0  0  0  0  0  0
  192.4810  175.3110  137.3720 C   0  0  0  0  0  0  0  0  0  0  0  0
  190.4470  175.8070  138.5770 C   0  0  0  0  0  3  0  0  0  0  0  0
  192.4800  177.1220  138.9350 C   0  0  0  0  0  3  0  0  0  0  0  0
  1  2  1  6  0  0  0
  1 18  1  0  0  0  0
  2  3  1  6  0  0  0
  2  5  1  0  0  0  0
  4  7  2  0  0  0  0
  7  5  1  0  0  0  0
  7  6  1  0  0  0  0
  8 13  1  0  0  0  0
 10  9  1  1  0  0  0
 10 14  1  0  0  0  0
 11 16  1  1  0  0  0
 11 10  1  0  0  0  0
 11 12  1  0  0  0  0
 12  8  1  0  0  0  0
 14  6  1  0  0  0  0
 14 13  2  0  0  0  0
 15 16  1  0  0  0  0
 18 17  1  6  0  0  0
 18 19  1  0  0  0  0
 20 19  1  6  0  0  0
 20 24  1  0  0  0  0
 20 23  1  0  0  0  0
 22 23  2  0  0  0  0
 23 21  1  0  0  0  0
 25 24  1  0  0  0  0
 25 27  1  0  0  0  0
 26 25  2  0  0  0  0
 28 25  1  0  0  0  0
 29  1  1  0  0  0  0
 29 30  1  1  0  0  0
 31 29  1  0  0  0  0
 32 37  1  0  0  0  0
 33 36  1  0  0  0  0
 34 42  1  0  0  0  0
 35 40  1  0  0  0  0
 36 35  2  0  0  0  0
 36 32  1  0  0  0  0
 37 41  2  0  0  0  0
 38 32  1  0  0  0  0
 39 31  1  0  0  0  0
 40 37  1  0  0  0  0
 40 34  2  0  0  0  0
 41 39  1  0  0  0  0
 42 39  2  0  0  0  0
M  END
>  <MODEL>
8

>  <REMARK>
 VINA RESULT:      -6.3      3.873      9.405
  Name = 
  13 active torsions:
  status: ('A' for Active; 'I' for Inactive)
    1  A    between atoms: N_3  and  C_19
    2  A    between atoms: N_3  and  C_29
    3  A    between atoms: P_7  and  O_42
    4  A    between atoms: C_12  and  N_15
    5  A    between atoms: C_12  and  C_36
    6  A    between atoms: C_16  and  S_27
    7  A    between atoms: C_16  and  C_41
    8  A    between atoms: C_16  and  O_42
    9  A    between atoms: N_22  and  C_33
   10  A    between atoms: C_25  and  O_30
   11  A    between atoms: S_27  and  C_38
   12  A    between atoms: C_29  and  C_36
   13  A    between atoms: C_36  and  C_38
                            x       y       z     vdW  Elec       q    Type
                         _______ _______ _______ _____ _____    ______ ____

>  <TORSDO>
F 13

$$$$
=
 OpenBabel11032420523D

 42 44  0  0  1  0  0  0  0  0999 V2000
  186.8840  176.9350  137.4040 C   0  0  1  0  0  3  0  0  0  0  0  0
  187.7060  178.1510  137.8580 C   0  0  1  0  0  3  0  0  0  0  0  0
  187.3210  179.2870  137.1430 O   0  0  0  0  0  1  0  0  0  0  0  0
  189.6380  177.6460  139.8860 O   0  0  0  0  0  0  0  0  0  0  0  0
  187.5130  178.3930  139.2820 N   0  0  0  0  0  2  0  0  0  0  0  0
  188.2720  178.4310  141.6270 N   0  0  0  0  0  2  0  0  0  0  0  0
  188.5310  178.1320  140.2480 C   0  0  0  0  0  0  0  0  0  0  0  0
  191.2200  178.8150  144.0350 C   0  0  0  0  0  2  0  0  0  0  0  0
  188.9670  175.7640  143.0220 C   0  0  0  0  0  1  0  0  0  0  0  0
  188.8180  177.1130  143.7070 C   0  0  1  0  0  3  0  0  0  0  0  0
  189.6450  177.1310  145.0010 C   0  0  1  0  0  3  0  0  0  0  0  0
  191.1100  177.4480  144.7000 C   0  0  0  0  0  2  0  0  0  0  0  0
  190.2830  178.9450  142.8680 C   0  0  0  0  0  3  0  0  0  0  0  0
  189.1550  178.2270  142.7420 C   0  0  0  0  0  0  0  0  0  0  0  0
  189.2500  177.4790  147.1490 C   0  0  0  0  0  1  0  0  0  0  0  0
  189.1200  178.0690  145.8930 O   0  0  0  0  0  0  0  0  0  0  0  0
  185.3820  177.3010  135.3770 C   0  0  0  0  0  1  0  0  0  0  0  0
  185.4940  177.3450  136.8930 C   0  0  1  0  0  3  0  0  0  0  0  0
  184.1920  176.3270  137.6480 S   0  0  0  0  0  0  0  0  0  0  0  0
  182.9440  177.6240  137.4060 C   0  0  1  0  0  3  0  0  0  0  0  0
  181.4440  176.1170  136.3350 O   0  0  0  0  0  1  0  0  0  0  0  0
  181.7740  178.1100  135.2510 O   0  0  0  0  0  0  0  0  0  0  0  0
  182.0170  177.2370  136.3050 C   0  0  0  0  0  0  0  0  0  0  0  0
  182.2250  177.8120  138.5890 O   0  0  0  0  0  0  0  0  0  0  0  0
  182.3460  179.4680  138.9360 P   0  0  0  0  0  0  0  0  0  0  0  0
  181.7100  180.3770  137.6590 O   0  0  0  0  0  0  0  0  0  0  0  0
  183.9670  179.8920  139.1770 O   0  0  0  0  0  1  0  0  0  0  0  0
  181.5660  179.7680  140.1940 O   0  0  0  0  0  1  0  0  0  0  0  0
  187.6120  176.0140  136.4080 C   0  0  2  0  0  3  0  0  0  0  0  0
  187.9080  174.6610  137.0270 C   0  0  0  0  0  1  0  0  0  0  0  0
  188.8390  176.6210  135.9020 N   0  0  0  0  0  2  0  0  0  0  0  0
  193.1290  176.0210  138.2430 N   0  0  0  0  0  0  0  0  0  0  0  0
  195.3170  175.0120  138.6530 N   0  0  0  0  0  1  0  0  0  0  0  0
  191.8280  174.4170  135.3900 C   0  0  0  0  0  3  0  0  0  0  0  0
  193.8310  174.4010  136.8120 N   0  0  0  0  0  0  0  0  0  0  0  0
  194.1080  175.1480  137.9140 C   0  0  0  0  0  0  0  0  0  0  0  0
  192.1880  175.8280  137.3110 C   0  0  0  0  0  0  0  0  0  0  0  0
  193.1010  176.9480  139.3640 C   0  0  0  0  0  1  0  0  0  0  0  0
  190.1300  176.0410  136.1010 C   0  0  0  0  0  0  0  0  0  0  0  0
  192.6120  174.8510  136.4560 C   0  0  0  0  0  0  0  0  0  0  0  0
  190.9520  176.4540  137.1730 C   0  0  0  0  0  3  0  0  0  0  0  0
  190.5700  175.0260  135.2210 C   0  0  0  0  0  3  0  0  0  0  0  0
  1 29  1  6  0  0  0
  1  2  1  0  0  0  0
  2  3  1  6  0  0  0
  2  5  1  0  0  0  0
  4  7  2  0  0  0  0
  5  7  1  0  0  0  0
  6 14  1  0  0  0  0
  7  6  1  0  0  0  0
  8 12  1  0  0  0  0
 10  9  1  6  0  0  0
 10 11  1  0  0  0  0
 11 16  1  1  0  0  0
 12 11  1  0  0  0  0
 13  8  1  0  0  0  0
 14 13  2  0  0  0  0
 14 10  1  0  0  0  0
 16 15  1  0  0  0  0
 18 17  1  6  0  0  0
 18  1  1  0  0  0  0
 18 19  1  0  0  0  0
 20 23  1  6  0  0  0
 20 19  1  0  0  0  0
 20 24  1  0  0  0  0
 22 23  2  0  0  0  0
 23 21  1  0  0  0  0
 24 25  1  0  0  0  0
 25 27  1  0  0  0  0
 25 28  1  0  0  0  0
 26 25  2  0  0  0  0
 29 30  1  1  0  0  0
 31 39  1  0  0  0  0
 31 29  1  0  0  0  0
 32 38  1  0  0  0  0
 34 40  1  0  0  0  0
 35 36  2  0  0  0  0
 36 32  1  0  0  0  0
 36 33  1  0  0  0  0
 37 32  1  0  0  0  0
 39 41  2  0  0  0  0
 40 35  1  0  0  0  0
 40 37  2  0  0  0  0
 41 37  1  0  0  0  0
 42 34  2  0  0  0  0
 42 39  1  0  0  0  0
M  END
>  <MODEL>
9

>  <REMARK>
 VINA RESULT:      -6.3      3.809      6.987
  Name = 
  13 active torsions:
  status: ('A' for Active; 'I' for Inactive)
    1  A    between atoms: N_3  and  C_19
    2  A    between atoms: N_3  and  C_29
    3  A    between atoms: P_7  and  O_42
    4  A    between atoms: C_12  and  N_15
    5  A    between atoms: C_12  and  C_36
    6  A    between atoms: C_16  and  S_27
    7  A    between atoms: C_16  and  C_41
    8  A    between atoms: C_16  and  O_42
    9  A    between atoms: N_22  and  C_33
   10  A    between atoms: C_25  and  O_30
   11  A    between atoms: S_27  and  C_38
   12  A    between atoms: C_29  and  C_36
   13  A    between atoms: C_36  and  C_38
                            x       y       z     vdW  Elec       q    Type
                         _______ _______ _______ _____ _____    ______ ____

>  <TORSDO>
F 13

$$$$
