=
 OpenBabel11032419343D

 31 31  0  0  1  0  0  0  0  0999 V2000
  188.3480  177.4040  143.1570 N   0  0  0  0  0  0  0  0  0  0  0  0
  191.8940  177.2430  141.7540 C   0  0  0  0  0  2  0  0  0  0  0  0
  190.2630  176.7700  139.9200 C   0  0  0  0  0  2  0  0  0  0  0  0
  190.7580  177.6880  142.6720 C   0  0  0  0  0  2  0  0  0  0  0  0
  189.4550  176.9850  142.2850 C   0  0  2  0  0  3  0  0  0  0  0  0
  191.5340  177.5240  140.2960 C   0  0  2  0  0  3  0  0  0  0  0  0
  189.1070  177.2170  140.8120 C   0  0  0  0  0  2  0  0  0  0  0  0
  192.6660  177.0960  139.3830 C   0  0  0  0  0  2  0  0  0  0  0  0
  192.1430  176.7610  138.0700 N   0  0  0  0  0  2  0  0  0  0  0  0
  193.1560  175.9560  137.4110 C   0  0  0  0  0  2  0  0  0  0  0  0
  191.6030  174.1780  137.7140 O   0  0  0  0  0  0  0  0  0  0  0  0
  193.8070  173.5200  137.3840 N   0  0  0  0  0  1  0  0  0  0  0  0
  192.8010  174.5160  137.5250 C   0  0  0  0  0  0  0  0  0  0  0  0
  186.0020  177.7390  142.9420 C   0  0  0  0  0  3  0  0  0  0  0  0
  187.2190  178.0960  142.6750 N   0  0  0  0  0  0  0  0  0  0  0  0
  185.2990  179.4590  141.3970 N   0  0  0  0  0  1  0  0  0  0  0  0
  184.8470  178.5240  142.4180 C   0  0  2  0  0  3  0  0  0  0  0  0
  184.1210  179.2510  143.5580 C   0  0  1  0  0  3  0  0  0  0  0  0
  181.4720  178.8550  143.4980 C   0  0  0  0  0  3  0  0  0  0  0  0
  182.6650  179.0350  143.5210 C   0  0  0  0  0  0  0  0  0  0  0  0
  183.7310  179.1030  145.9100 O   0  0  0  0  0  1  0  0  0  0  0  0
  184.6690  178.8340  144.9130 C   0  0  0  0  0  2  0  0  0  0  0  0
  188.1600  177.9730  145.5060 C   0  0  0  0  0  3  0  0  0  0  0  0
  188.3650  177.0700  144.5490 C   0  0  0  0  0  3  0  0  0  0  0  0
  187.3560  178.1590  147.7110 O   0  0  0  0  0  0  0  0  0  0  0  0
  188.1850  177.6210  146.9320 C   0  0  0  0  0  0  0  0  0  0  0  0
  189.1540  176.6230  147.4750 C   0  0  0  0  0  2  0  0  0  0  0  0
  190.5220  177.2640  147.6430 C   0  0  0  0  0  2  0  0  0  0  0  0
  191.7790  176.2570  145.7940 C   0  0  0  0  0  2  0  0  0  0  0  0
  192.5610  175.7430  148.0450 C   0  0  0  0  0  1  0  0  0  0  0  0
  191.5860  176.3650  147.1070 C   0  0  0  0  0  0  0  0  0  0  0  0
  1 24  1  0  0  0  0
  2  4  1  0  0  0  0
  3  6  1  0  0  0  0
  3  7  1  0  0  0  0
  5  4  1  0  0  0  0
  5  1  1  1  0  0  0
  6  8  1  6  0  0  0
  6  2  1  0  0  0  0
  7  5  1  0  0  0  0
  9  8  1  0  0  0  0
 10 13  1  0  0  0  0
 10  9  1  0  0  0  0
 12 13  1  0  0  0  0
 13 11  2  0  0  0  0
 15 14  2  0  0  0  0
 15  1  1  0  0  0  0
 17 16  1  6  0  0  0
 17 14  1  0  0  0  0
 17 18  1  0  0  0  0
 18 20  1  1  0  0  0
 18 22  1  0  0  0  0
 19 20  3  0  0  0  0
 22 21  1  0  0  0  0
 23 26  1  0  0  0  0
 24 23  2  0  0  0  0
 26 27  1  0  0  0  0
 26 25  2  0  0  0  0
 27 28  1  0  0  0  0
 29 31  2  0  0  0  0
 31 28  1  0  0  0  0
 31 30  1  0  0  0  0
M  END
>  <MODEL>
1

>  <REMARK>
 VINA RESULT:      -7.2      0.000      0.000
  Name = 
  15 active torsions:
  status: ('A' for Active; 'I' for Inactive)
    1  A    between atoms: C_1  and  N_3
    2  A    between atoms: C_1  and  C_21
    3  A    between atoms: N_3  and  C_31
    4  A    between atoms: C_5  and  C_10
    5  A    between atoms: C_5  and  C_20
    6  A    between atoms: C_14  and  C_20
    7  A    between atoms: C_17  and  C_20
    8  A    between atoms: C_18  and  N_28
    9  A    between atoms: N_19  and  N_28
   10  A    between atoms: C_22  and  C_23
   11  A    between atoms: C_22  and  C_29
   12  A    between atoms: C_24  and  N_28
   13  A    between atoms: C_25  and  C_26
   14  A    between atoms: C_26  and  C_29
   15  A    between atoms: C_27  and  C_31
                            x       y       z     vdW  Elec       q    Type
                         _______ _______ _______ _____ _____    ______ ____

>  <TORSDO>
F 15

$$$$
=
 OpenBabel11032419343D

 31 31  0  0  1  0  0  0  0  0999 V2000
  189.5030  177.8250  141.1380 N   0  0  0  0  0  0  0  0  0  0  0  0
  191.2440  175.8210  143.8790 C   0  0  0  0  0  2  0  0  0  0  0  0
  191.0560  178.2070  144.6000 C   0  0  0  0  0  2  0  0  0  0  0  0
  190.3090  176.0860  142.7010 C   0  0  0  0  0  2  0  0  0  0  0  0
  190.3990  177.5510  142.2700 C   0  0  2  0  0  3  0  0  0  0  0  0
  190.9070  176.7550  145.0410 C   0  0  2  0  0  3  0  0  0  0  0  0
  190.1120  178.5000  143.4360 C   0  0  0  0  0  2  0  0  0  0  0  0
  191.8240  176.4850  146.2160 C   0  0  0  0  0  2  0  0  0  0  0  0
  191.1650  176.8590  147.4550 N   0  0  0  0  0  2  0  0  0  0  0  0
  189.7390  176.7000  147.2330 C   0  0  0  0  0  2  0  0  0  0  0  0
  189.4670  178.7590  148.3950 O   0  0  0  0  0  0  0  0  0  0  0  0
  187.7150  177.2510  148.6330 N   0  0  0  0  0  1  0  0  0  0  0  0
  188.9880  177.6280  148.1210 C   0  0  0  0  0  0  0  0  0  0  0  0
  189.4520  178.0430  138.7690 C   0  0  0  0  0  3  0  0  0  0  0  0
  189.7660  177.3700  139.8300 N   0  0  0  0  0  0  0  0  0  0  0  0
  189.1420  178.3390  136.3900 N   0  0  0  0  0  1  0  0  0  0  0  0
  189.7750  177.5160  137.4110 C   0  0  2  0  0  3  0  0  0  0  0  0
  189.3550  176.0460  137.2840 C   0  0  1  0  0  3  0  0  0  0  0  0
  187.3820  175.7020  135.5060 C   0  0  0  0  0  3  0  0  0  0  0  0
  188.2680  175.8570  136.3100 C   0  0  0  0  0  0  0  0  0  0  0  0
  190.4680  173.9540  137.5980 O   0  0  0  0  0  1  0  0  0  0  0  0
  190.5380  175.1660  136.9110 C   0  0  0  0  0  2  0  0  0  0  0  0
  187.1580  177.9400  141.7440 C   0  0  0  0  0  3  0  0  0  0  0  0
  188.2790  178.5400  141.3470 C   0  0  0  0  0  3  0  0  0  0  0  0
  185.6280  179.6400  141.1830 O   0  0  0  0  0  0  0  0  0  0  0  0
  185.9060  178.6810  141.9490 C   0  0  0  0  0  0  0  0  0  0  0  0
  184.9440  178.3080  143.0290 C   0  0  0  0  0  2  0  0  0  0  0  0
  185.1510  179.2010  144.2410 C   0  0  0  0  0  2  0  0  0  0  0  0
  185.0060  178.4550  146.5720 C   0  0  0  0  0  2  0  0  0  0  0  0
  186.7050  177.3820  145.1940 C   0  0  0  0  0  1  0  0  0  0  0  0
  185.6360  178.3980  145.4010 C   0  0  0  0  0  0  0  0  0  0  0  0
  1 24  1  0  0  0  0
  2  6  1  0  0  0  0
  3  6  1  0  0  0  0
  4  2  1  0  0  0  0
  5  1  1  6  0  0  0
  5  4  1  0  0  0  0
  5  7  1  0  0  0  0
  6  8  1  1  0  0  0
  7  3  1  0  0  0  0
  8  9  1  0  0  0  0
 10  9  1  0  0  0  0
 10 13  1  0  0  0  0
 13 11  2  0  0  0  0
 13 12  1  0  0  0  0
 14 15  2  0  0  0  0
 15  1  1  0  0  0  0
 17 16  1  6  0  0  0
 17 14  1  0  0  0  0
 18 20  1  6  0  0  0
 18 17  1  0  0  0  0
 19 20  3  0  0  0  0
 22 18  1  0  0  0  0
 22 21  1  0  0  0  0
 23 26  1  0  0  0  0
 24 23  2  0  0  0  0
 25 26  2  0  0  0  0
 26 27  1  0  0  0  0
 27 28  1  0  0  0  0
 28 31  1  0  0  0  0
 30 31  1  0  0  0  0
 31 29  2  0  0  0  0
M  END
>  <MODEL>
2

>  <REMARK>
 VINA RESULT:      -7.1      2.672      7.559
  Name = 
  15 active torsions:
  status: ('A' for Active; 'I' for Inactive)
    1  A    between atoms: C_1  and  N_3
    2  A    between atoms: C_1  and  C_21
    3  A    between atoms: N_3  and  C_31
    4  A    between atoms: C_5  and  C_10
    5  A    between atoms: C_5  and  C_20
    6  A    between atoms: C_14  and  C_20
    7  A    between atoms: C_17  and  C_20
    8  A    between atoms: C_18  and  N_28
    9  A    between atoms: N_19  and  N_28
   10  A    between atoms: C_22  and  C_23
   11  A    between atoms: C_22  and  C_29
   12  A    between atoms: C_24  and  N_28
   13  A    between atoms: C_25  and  C_26
   14  A    between atoms: C_26  and  C_29
   15  A    between atoms: C_27  and  C_31
                            x       y       z     vdW  Elec       q    Type
                         _______ _______ _______ _____ _____    ______ ____

>  <TORSDO>
F 15

$$$$
=
 OpenBabel11032419343D

 31 31  0  0  1  0  0  0  0  0999 V2000
  189.4100  177.3660  141.7250 N   0  0  0  0  0  0  0  0  0  0  0  0
  192.4580  176.9030  139.4760 C   0  0  0  0  0  2  0  0  0  0  0  0
  190.4280  176.0460  138.2950 C   0  0  0  0  0  2  0  0  0  0  0  0
  191.5840  177.5370  140.5550 C   0  0  0  0  0  2  0  0  0  0  0  0
  190.2670  176.7680  140.6920 C   0  0  2  0  0  3  0  0  0  0  0  0
  191.7080  176.8620  138.1450 C   0  0  2  0  0  3  0  0  0  0  0  0
  189.5280  176.6770  139.3550 C   0  0  0  0  0  2  0  0  0  0  0  0
  192.5790  176.2460  137.0690 C   0  0  0  0  0  2  0  0  0  0  0  0
  193.9030  175.9730  137.5990 N   0  0  0  0  0  2  0  0  0  0  0  0
  194.1040  174.5390  137.4990 C   0  0  0  0  0  2  0  0  0  0  0  0
  196.4320  174.8930  137.8430 O   0  0  0  0  0  0  0  0  0  0  0  0
  195.5420  173.0440  138.9340 N   0  0  0  0  0  1  0  0  0  0  0  0
  195.4240  174.1770  138.0810 C   0  0  0  0  0  0  0  0  0  0  0  0
  189.8490  177.1990  144.0580 C   0  0  0  0  0  3  0  0  0  0  0  0
  189.9180  177.8580  142.9450 N   0  0  0  0  0  0  0  0  0  0  0  0
  191.8630  177.9330  145.1750 N   0  0  0  0  0  1  0  0  0  0  0  0
  190.4230  177.7650  145.3130 C   0  0  2  0  0  3  0  0  0  0  0  0
  190.0770  176.8800  146.5180 C   0  0  1  0  0  3  0  0  0  0  0  0
  192.2560  175.7860  147.6280 C   0  0  0  0  0  3  0  0  0  0  0  0
  191.2720  176.2780  147.1310 C   0  0  0  0  0  0  0  0  0  0  0  0
  188.1480  176.9530  147.9260 O   0  0  0  0  0  1  0  0  0  0  0  0
  189.2970  177.6580  147.5660 C   0  0  0  0  0  2  0  0  0  0  0  0
  187.3770  178.6830  141.6240 C   0  0  0  0  0  3  0  0  0  0  0  0
  188.0050  177.5160  141.4960 C   0  0  0  0  0  3  0  0  0  0  0  0
  185.5330  179.3590  140.3260 O   0  0  0  0  0  0  0  0  0  0  0  0
  185.9330  178.8250  141.3930 C   0  0  0  0  0  0  0  0  0  0  0  0
  184.9290  178.3270  142.3800 C   0  0  0  0  0  2  0  0  0  0  0  0
  184.8890  179.2480  143.5890 C   0  0  0  0  0  2  0  0  0  0  0  0
  186.3250  177.7520  144.8980 C   0  0  0  0  0  2  0  0  0  0  0  0
  184.4140  178.7160  146.0630 C   0  0  0  0  0  1  0  0  0  0  0  0
  185.2190  178.4890  144.8310 C   0  0  0  0  0  0  0  0  0  0  0  0
  1 15  1  0  0  0  0
  2  4  1  0  0  0  0
  3  7  1  0  0  0  0
  4  5  1  0  0  0  0
  5  1  1  1  0  0  0
  6  8  1  6  0  0  0
  6  3  1  0  0  0  0
  6  2  1  0  0  0  0
  7  5  1  0  0  0  0
  8  9  1  0  0  0  0
 10  9  1  0  0  0  0
 10 13  1  0  0  0  0
 11 13  2  0  0  0  0
 13 12  1  0  0  0  0
 14 17  1  0  0  0  0
 15 14  2  0  0  0  0
 17 16  1  6  0  0  0
 17 18  1  0  0  0  0
 18 20  1  1  0  0  0
 18 22  1  0  0  0  0
 20 19  3  0  0  0  0
 22 21  1  0  0  0  0
 24 23  2  0  0  0  0
 24  1  1  0  0  0  0
 25 26  2  0  0  0  0
 26 23  1  0  0  0  0
 26 27  1  0  0  0  0
 27 28  1  0  0  0  0
 28 31  1  0  0  0  0
 31 29  2  0  0  0  0
 31 30  1  0  0  0  0
M  END
>  <MODEL>
3

>  <REMARK>
 VINA RESULT:      -7.0      2.117      5.477
  Name = 
  15 active torsions:
  status: ('A' for Active; 'I' for Inactive)
    1  A    between atoms: C_1  and  N_3
    2  A    between atoms: C_1  and  C_21
    3  A    between atoms: N_3  and  C_31
    4  A    between atoms: C_5  and  C_10
    5  A    between atoms: C_5  and  C_20
    6  A    between atoms: C_14  and  C_20
    7  A    between atoms: C_17  and  C_20
    8  A    between atoms: C_18  and  N_28
    9  A    between atoms: N_19  and  N_28
   10  A    between atoms: C_22  and  C_23
   11  A    between atoms: C_22  and  C_29
   12  A    between atoms: C_24  and  N_28
   13  A    between atoms: C_25  and  C_26
   14  A    between atoms: C_26  and  C_29
   15  A    between atoms: C_27  and  C_31
                            x       y       z     vdW  Elec       q    Type
                         _______ _______ _______ _____ _____    ______ ____

>  <TORSDO>
F 15

$$$$
=
 OpenBabel11032419343D

 31 31  0  0  1  0  0  0  0  0999 V2000
  189.3190  177.9490  141.3110 N   0  0  0  0  0  0  0  0  0  0  0  0
  192.3430  176.6980  139.3480 C   0  0  0  0  0  2  0  0  0  0  0  0
  190.2680  176.2700  138.0210 C   0  0  0  0  0  2  0  0  0  0  0  0
  191.5570  177.5650  140.3290 C   0  0  0  0  0  2  0  0  0  0  0  0
  190.0930  177.1230  140.3730 C   0  0  2  0  0  3  0  0  0  0  0  0
  191.7090  176.7660  137.9590 C   0  0  2  0  0  3  0  0  0  0  0  0
  189.4580  177.1380  138.9810 C   0  0  0  0  0  2  0  0  0  0  0  0
  192.4950  175.9170  136.9800 C   0  0  0  0  0  2  0  0  0  0  0  0
  193.8740  176.3710  136.9270 N   0  0  0  0  0  2  0  0  0  0  0  0
  194.3750  176.0300  135.6080 C   0  0  0  0  0  2  0  0  0  0  0  0
  196.7240  176.4100  135.6360 O   0  0  0  0  0  0  0  0  0  0  0  0
  195.4650  178.0800  134.6230 N   0  0  0  0  0  1  0  0  0  0  0  0
  195.5870  176.8390  135.3090 C   0  0  0  0  0  0  0  0  0  0  0  0
  189.8630  177.4580  143.5750 C   0  0  0  0  0  3  0  0  0  0  0  0
  189.7970  178.2970  142.5910 N   0  0  0  0  0  0  0  0  0  0  0  0
  191.4630  176.9850  145.3240 N   0  0  0  0  0  1  0  0  0  0  0  0
  190.3960  177.8820  144.9020 C   0  0  2  0  0  3  0  0  0  0  0  0
  189.2730  177.9440  145.9460 C   0  0  1  0  0  3  0  0  0  0  0  0
  186.9890  176.8790  145.0400 C   0  0  0  0  0  3  0  0  0  0  0  0
  188.0170  177.3570  145.4520 C   0  0  0  0  0  0  0  0  0  0  0  0
  189.1540  177.9420  148.3330 O   0  0  0  0  0  1  0  0  0  0  0  0
  189.6870  177.2590  147.2390 C   0  0  0  0  0  2  0  0  0  0  0  0
  186.9590  178.3600  141.6820 C   0  0  0  0  0  3  0  0  0  0  0  0
  188.0470  178.4780  140.9220 C   0  0  0  0  0  3  0  0  0  0  0  0
  185.5230  179.3620  140.1080 O   0  0  0  0  0  0  0  0  0  0  0  0
  185.6560  178.9000  141.2710 C   0  0  0  0  0  0  0  0  0  0  0  0
  184.4800  178.8930  142.1920 C   0  0  0  0  0  2  0  0  0  0  0  0
  184.8840  179.4280  143.5550 C   0  0  0  0  0  2  0  0  0  0  0  0
  182.6150  178.7780  144.2180 C   0  0  0  0  0  2  0  0  0  0  0  0
  184.2910  178.8220  145.9870 C   0  0  0  0  0  1  0  0  0  0  0  0
  183.8630  179.0620  144.5810 C   0  0  0  0  0  0  0  0  0  0  0  0
  1 15  1  0  0  0  0
  2  4  1  0  0  0  0
  3  7  1  0  0  0  0
  4  5  1  0  0  0  0
  5  1  1  1  0  0  0
  6  8  1  6  0  0  0
  6  3  1  0  0  0  0
  6  2  1  0  0  0  0
  7  5  1  0  0  0  0
  9  8  1  0  0  0  0
 10  9  1  0  0  0  0
 12 13  1  0  0  0  0
 13 10  1  0  0  0  0
 13 11  2  0  0  0  0
 14 17  1  0  0  0  0
 15 14  2  0  0  0  0
 17 16  1  1  0  0  0
 17 18  1  0  0  0  0
 18 20  1  6  0  0  0
 18 22  1  0  0  0  0
 19 20  3  0  0  0  0
 22 21  1  0  0  0  0
 24  1  1  0  0  0  0
 24 23  2  0  0  0  0
 25 26  2  0  0  0  0
 26 23  1  0  0  0  0
 26 27  1  0  0  0  0
 27 28  1  0  0  0  0
 28 31  1  0  0  0  0
 29 31  2  0  0  0  0
 31 30  1  0  0  0  0
M  END
>  <MODEL>
4

>  <REMARK>
 VINA RESULT:      -7.0      2.383      5.450
  Name = 
  15 active torsions:
  status: ('A' for Active; 'I' for Inactive)
    1  A    between atoms: C_1  and  N_3
    2  A    between atoms: C_1  and  C_21
    3  A    between atoms: N_3  and  C_31
    4  A    between atoms: C_5  and  C_10
    5  A    between atoms: C_5  and  C_20
    6  A    between atoms: C_14  and  C_20
    7  A    between atoms: C_17  and  C_20
    8  A    between atoms: C_18  and  N_28
    9  A    between atoms: N_19  and  N_28
   10  A    between atoms: C_22  and  C_23
   11  A    between atoms: C_22  and  C_29
   12  A    between atoms: C_24  and  N_28
   13  A    between atoms: C_25  and  C_26
   14  A    between atoms: C_26  and  C_29
   15  A    between atoms: C_27  and  C_31
                            x       y       z     vdW  Elec       q    Type
                         _______ _______ _______ _____ _____    ______ ____

>  <TORSDO>
F 15

$$$$
=
 OpenBabel11032419343D

 31 31  0  0  1  0  0  0  0  0999 V2000
  185.2970  178.7750  142.0340 N   0  0  0  0  0  0  0  0  0  0  0  0
  183.2780  178.9300  138.7990 C   0  0  0  0  0  2  0  0  0  0  0  0
  181.7620  178.2990  140.6840 C   0  0  0  0  0  2  0  0  0  0  0  0
  184.3900  179.2740  139.7870 C   0  0  0  0  0  2  0  0  0  0  0  0
  184.2350  178.4530  141.0690 C   0  0  2  0  0  3  0  0  0  0  0  0
  181.9110  179.1680  139.4390 C   0  0  2  0  0  3  0  0  0  0  0  0
  182.8520  178.6440  141.6960 C   0  0  0  0  0  2  0  0  0  0  0  0
  180.8050  178.8390  138.4560 C   0  0  0  0  0  2  0  0  0  0  0  0
  180.4630  180.0200  137.6830 N   0  0  0  0  0  2  0  0  0  0  0  0
  180.3530  181.1180  138.6270 C   0  0  0  0  0  2  0  0  0  0  0  0
  182.0780  182.7270  138.3100 O   0  0  0  0  0  0  0  0  0  0  0  0
  180.1390  183.1030  137.0850 N   0  0  0  0  0  1  0  0  0  0  0  0
  180.9100  182.3570  138.0190 C   0  0  0  0  0  0  0  0  0  0  0  0
  187.5160  177.9970  141.6670 C   0  0  0  0  0  3  0  0  0  0  0  0
  186.6420  178.9540  141.6540 N   0  0  0  0  0  0  0  0  0  0  0  0
  189.1060  177.8100  139.8570 N   0  0  0  0  0  1  0  0  0  0  0  0
  188.9210  178.2450  141.2340 C   0  0  2  0  0  3  0  0  0  0  0  0
  189.9120  177.5500  142.1780 C   0  0  1  0  0  3  0  0  0  0  0  0
  190.9420  179.2330  143.9890 C   0  0  0  0  0  3  0  0  0  0  0  0
  190.4760  178.4730  143.1760 C   0  0  0  0  0  0  0  0  0  0  0  0
  190.1250  175.2680  142.8530 O   0  0  0  0  0  1  0  0  0  0  0  0
  189.2650  176.3660  142.8790 C   0  0  0  0  0  2  0  0  0  0  0  0
  185.6730  178.4000  144.3990 C   0  0  0  0  0  3  0  0  0  0  0  0
  184.9770  178.9680  143.4160 C   0  0  0  0  0  3  0  0  0  0  0  0
  184.1770  178.9940  146.1180 O   0  0  0  0  0  0  0  0  0  0  0  0
  185.3330  178.6000  145.8140 C   0  0  0  0  0  0  0  0  0  0  0  0
  186.3180  178.3220  146.9030 C   0  0  0  0  0  2  0  0  0  0  0  0
  187.4770  177.5040  146.3590 C   0  0  0  0  0  2  0  0  0  0  0  0
  189.8400  177.1640  146.9160 C   0  0  0  0  0  2  0  0  0  0  0  0
  188.4480  178.1520  148.6540 C   0  0  0  0  0  1  0  0  0  0  0  0
  188.6240  177.5290  147.3130 C   0  0  0  0  0  0  0  0  0  0  0  0
  1 24  1  0  0  0  0
  2  6  1  0  0  0  0
  2  4  1  0  0  0  0
  3  7  1  0  0  0  0
  4  5  1  0  0  0  0
  5  7  1  0  0  0  0
  5  1  1  1  0  0  0
  6  8  1  6  0  0  0
  6  3  1  0  0  0  0
  9  8  1  0  0  0  0
  9 10  1  0  0  0  0
 12 13  1  0  0  0  0
 13 11  2  0  0  0  0
 13 10  1  0  0  0  0
 15 14  2  0  0  0  0
 15  1  1  0  0  0  0
 17 16  1  6  0  0  0
 17 14  1  0  0  0  0
 17 18  1  0  0  0  0
 18 22  1  1  0  0  0
 18 20  1  0  0  0  0
 20 19  3  0  0  0  0
 21 22  1  0  0  0  0
 23 26  1  0  0  0  0
 24 23  2  0  0  0  0
 26 25  2  0  0  0  0
 26 27  1  0  0  0  0
 28 27  1  0  0  0  0
 28 31  1  0  0  0  0
 29 31  2  0  0  0  0
 31 30  1  0  0  0  0
M  END
>  <MODEL>
5

>  <REMARK>
 VINA RESULT:      -6.9      3.555      7.956
  Name = 
  15 active torsions:
  status: ('A' for Active; 'I' for Inactive)
    1  A    between atoms: C_1  and  N_3
    2  A    between atoms: C_1  and  C_21
    3  A    between atoms: N_3  and  C_31
    4  A    between atoms: C_5  and  C_10
    5  A    between atoms: C_5  and  C_20
    6  A    between atoms: C_14  and  C_20
    7  A    between atoms: C_17  and  C_20
    8  A    between atoms: C_18  and  N_28
    9  A    between atoms: N_19  and  N_28
   10  A    between atoms: C_22  and  C_23
   11  A    between atoms: C_22  and  C_29
   12  A    between atoms: C_24  and  N_28
   13  A    between atoms: C_25  and  C_26
   14  A    between atoms: C_26  and  C_29
   15  A    between atoms: C_27  and  C_31
                            x       y       z     vdW  Elec       q    Type
                         _______ _______ _______ _____ _____    ______ ____

>  <TORSDO>
F 15

$$$$
=
 OpenBabel11032419343D

 31 31  0  0  1  0  0  0  0  0999 V2000
  186.2420  178.0590  142.2000 N   0  0  0  0  0  0  0  0  0  0  0  0
  189.2510  175.9330  143.1960 C   0  0  0  0  0  2  0  0  0  0  0  0
  190.0480  178.1680  142.4100 C   0  0  0  0  0  2  0  0  0  0  0  0
  187.8090  176.4350  143.2150 C   0  0  0  0  0  2  0  0  0  0  0  0
  187.6250  177.5600  142.1930 C   0  0  2  0  0  3  0  0  0  0  0  0
  190.2150  177.0860  143.4720 C   0  0  2  0  0  3  0  0  0  0  0  0
  188.6170  178.7010  142.4270 C   0  0  0  0  0  2  0  0  0  0  0  0
  191.6460  176.5880  143.4670 C   0  0  0  0  0  2  0  0  0  0  0  0
  192.0120  176.1190  144.7920 N   0  0  0  0  0  2  0  0  0  0  0  0
  191.5190  177.1090  145.7340 C   0  0  0  0  0  2  0  0  0  0  0  0
  191.4720  177.3680  148.0990 O   0  0  0  0  0  0  0  0  0  0  0  0
  192.0560  175.2480  147.3500 N   0  0  0  0  0  1  0  0  0  0  0  0
  191.6870  176.6030  147.1230 C   0  0  0  0  0  0  0  0  0  0  0  0
  184.4210  178.2460  140.6790 C   0  0  0  0  0  3  0  0  0  0  0  0
  185.6160  178.5820  141.0510 N   0  0  0  0  0  0  0  0  0  0  0  0
  184.4360  180.1280  139.1630 N   0  0  0  0  0  1  0  0  0  0  0  0
  183.8050  178.8500  139.4630 C   0  0  2  0  0  3  0  0  0  0  0  0
  182.2880  179.0050  139.6400 C   0  0  1  0  0  3  0  0  0  0  0  0
  181.5500  178.9810  142.2150 C   0  0  0  0  0  3  0  0  0  0  0  0
  181.8860  178.9940  141.0560 C   0  0  0  0  0  0  0  0  0  0  0  0
  180.4640  180.5210  139.3520 O   0  0  0  0  0  1  0  0  0  0  0  0
  181.7840  180.2750  138.9720 C   0  0  0  0  0  2  0  0  0  0  0  0
  185.3230  179.0030  144.2350 C   0  0  0  0  0  3  0  0  0  0  0  0
  185.4550  177.9790  143.3940 C   0  0  0  0  0  3  0  0  0  0  0  0
  183.3490  179.3770  145.4640 O   0  0  0  0  0  0  0  0  0  0  0  0
  184.5180  178.9100  145.4600 C   0  0  0  0  0  0  0  0  0  0  0  0
  185.0440  178.2520  146.6940 C   0  0  0  0  0  2  0  0  0  0  0  0
  186.1220  179.1180  147.3250 C   0  0  0  0  0  2  0  0  0  0  0  0
  187.9470  178.2380  148.7060 C   0  0  0  0  0  2  0  0  0  0  0  0
  187.8870  177.4960  146.3850 C   0  0  0  0  0  1  0  0  0  0  0  0
  187.3780  178.3340  147.5060 C   0  0  0  0  0  0  0  0  0  0  0  0
  1 24  1  0  0  0  0
  2  4  1  0  0  0  0
  2  6  1  0  0  0  0
  3  7  1  0  0  0  0
  3  6  1  0  0  0  0
  5  1  1  1  0  0  0
  5  7  1  0  0  0  0
  5  4  1  0  0  0  0
  6  8  1  6  0  0  0
  8  9  1  0  0  0  0
  9 10  1  0  0  0  0
 10 13  1  0  0  0  0
 13 12  1  0  0  0  0
 13 11  2  0  0  0  0
 14 15  2  0  0  0  0
 15  1  1  0  0  0  0
 17 16  1  1  0  0  0
 17 18  1  0  0  0  0
 17 14  1  0  0  0  0
 18 22  1  1  0  0  0
 18 20  1  0  0  0  0
 20 19  3  0  0  0  0
 22 21  1  0  0  0  0
 23 26  1  0  0  0  0
 24 23  2  0  0  0  0
 26 25  2  0  0  0  0
 26 27  1  0  0  0  0
 27 28  1  0  0  0  0
 28 31  1  0  0  0  0
 30 31  1  0  0  0  0
 31 29  2  0  0  0  0
M  END
>  <MODEL>
6

>  <REMARK>
 VINA RESULT:      -6.8      3.590      5.245
  Name = 
  15 active torsions:
  status: ('A' for Active; 'I' for Inactive)
    1  A    between atoms: C_1  and  N_3
    2  A    between atoms: C_1  and  C_21
    3  A    between atoms: N_3  and  C_31
    4  A    between atoms: C_5  and  C_10
    5  A    between atoms: C_5  and  C_20
    6  A    between atoms: C_14  and  C_20
    7  A    between atoms: C_17  and  C_20
    8  A    between atoms: C_18  and  N_28
    9  A    between atoms: N_19  and  N_28
   10  A    between atoms: C_22  and  C_23
   11  A    between atoms: C_22  and  C_29
   12  A    between atoms: C_24  and  N_28
   13  A    between atoms: C_25  and  C_26
   14  A    between atoms: C_26  and  C_29
   15  A    between atoms: C_27  and  C_31
                            x       y       z     vdW  Elec       q    Type
                         _______ _______ _______ _____ _____    ______ ____

>  <TORSDO>
F 15

$$$$
=
 OpenBabel11032419343D

 31 31  0  0  1  0  0  0  0  0999 V2000
  186.6130  178.6480  141.6670 N   0  0  0  0  0  0  0  0  0  0  0  0
  186.2500  177.5160  145.2930 C   0  0  0  0  0  2  0  0  0  0  0  0
  188.6640  177.4460  144.6490 C   0  0  0  0  0  2  0  0  0  0  0  0
  185.9120  178.2700  144.0090 C   0  0  0  0  0  2  0  0  0  0  0  0
  186.9220  177.9280  142.9110 C   0  0  2  0  0  3  0  0  0  0  0  0
  187.6740  177.8450  145.7390 C   0  0  2  0  0  3  0  0  0  0  0  0
  188.3580  178.2060  143.3610 C   0  0  0  0  0  2  0  0  0  0  0  0
  188.0080  177.1090  147.0210 C   0  0  0  0  0  2  0  0  0  0  0  0
  189.2940  177.5550  147.5280 N   0  0  0  0  0  2  0  0  0  0  0  0
  190.1310  176.3740  147.6370 C   0  0  0  0  0  2  0  0  0  0  0  0
  192.4430  176.7540  148.0540 O   0  0  0  0  0  0  0  0  0  0  0  0
  191.8010  176.9210  145.8280 N   0  0  0  0  0  1  0  0  0  0  0  0
  191.5160  176.7010  147.2040 C   0  0  0  0  0  0  0  0  0  0  0  0
  187.9920  178.1410  139.7940 C   0  0  0  0  0  3  0  0  0  0  0  0
  187.5960  178.9690  140.7090 N   0  0  0  0  0  0  0  0  0  0  0  0
  188.4150  178.7010  137.4820 N   0  0  0  0  0  1  0  0  0  0  0  0
  189.0230  178.5460  138.7960 C   0  0  2  0  0  3  0  0  0  0  0  0
  190.1760  177.5340  138.7620 C   0  0  1  0  0  3  0  0  0  0  0  0
  191.2990  177.2000  141.1710 C   0  0  0  0  0  3  0  0  0  0  0  0
  190.7960  177.3480  140.0840 C   0  0  0  0  0  0  0  0  0  0  0  0
  190.6820  175.2190  138.4600 O   0  0  0  0  0  1  0  0  0  0  0  0
  189.7130  176.1920  138.2170 C   0  0  0  0  0  2  0  0  0  0  0  0
  184.4670  178.2480  140.6120 C   0  0  0  0  0  3  0  0  0  0  0  0
  185.2610  179.0100  141.3620 C   0  0  0  0  0  3  0  0  0  0  0  0
  182.8740  179.5240  139.4380 O   0  0  0  0  0  0  0  0  0  0  0  0
  183.0840  178.6310  140.3000 C   0  0  0  0  0  0  0  0  0  0  0  0
  181.9200  177.9690  140.9620 C   0  0  0  0  0  2  0  0  0  0  0  0
  181.1360  178.9870  141.7740 C   0  0  0  0  0  2  0  0  0  0  0  0
  182.3800  179.0160  143.8880 C   0  0  0  0  0  2  0  0  0  0  0  0
  180.0730  178.2360  143.9970 C   0  0  0  0  0  1  0  0  0  0  0  0
  181.2660  178.6980  143.2330 C   0  0  0  0  0  0  0  0  0  0  0  0
  2  6  1  0  0  0  0
  3  6  1  0  0  0  0
  4  2  1  0  0  0  0
  5  1  1  6  0  0  0
  5  7  1  0  0  0  0
  5  4  1  0  0  0  0
  6  8  1  1  0  0  0
  7  3  1  0  0  0  0
  8  9  1  0  0  0  0
  9 10  1  0  0  0  0
 12 13  1  0  0  0  0
 13 10  1  0  0  0  0
 13 11  2  0  0  0  0
 14 15  2  0  0  0  0
 15  1  1  0  0  0  0
 17 16  1  6  0  0  0
 17 14  1  0  0  0  0
 18 22  1  1  0  0  0
 18 17  1  0  0  0  0
 18 20  1  0  0  0  0
 20 19  3  0  0  0  0
 22 21  1  0  0  0  0
 23 24  2  0  0  0  0
 24  1  1  0  0  0  0
 25 26  2  0  0  0  0
 26 23  1  0  0  0  0
 26 27  1  0  0  0  0
 27 28  1  0  0  0  0
 28 31  1  0  0  0  0
 31 29  2  0  0  0  0
 31 30  1  0  0  0  0
M  END
>  <MODEL>
7

>  <REMARK>
 VINA RESULT:      -6.8      2.639      8.279
  Name = 
  15 active torsions:
  status: ('A' for Active; 'I' for Inactive)
    1  A    between atoms: C_1  and  N_3
    2  A    between atoms: C_1  and  C_21
    3  A    between atoms: N_3  and  C_31
    4  A    between atoms: C_5  and  C_10
    5  A    between atoms: C_5  and  C_20
    6  A    between atoms: C_14  and  C_20
    7  A    between atoms: C_17  and  C_20
    8  A    between atoms: C_18  and  N_28
    9  A    between atoms: N_19  and  N_28
   10  A    between atoms: C_22  and  C_23
   11  A    between atoms: C_22  and  C_29
   12  A    between atoms: C_24  and  N_28
   13  A    between atoms: C_25  and  C_26
   14  A    between atoms: C_26  and  C_29
   15  A    between atoms: C_27  and  C_31
                            x       y       z     vdW  Elec       q    Type
                         _______ _______ _______ _____ _____    ______ ____

>  <TORSDO>
F 15

$$$$
=
 OpenBabel11032419343D

 31 31  0  0  1  0  0  0  0  0999 V2000
  188.1160  178.1590  141.7940 N   0  0  0  0  0  0  0  0  0  0  0  0
  184.3490  178.7670  141.7240 C   0  0  0  0  0  2  0  0  0  0  0  0
  185.0390  178.1550  144.0470 C   0  0  0  0  0  2  0  0  0  0  0  0
  185.8110  178.9190  141.3120 C   0  0  0  0  0  2  0  0  0  0  0  0
  186.7030  178.0230  142.1750 C   0  0  2  0  0  3  0  0  0  0  0  0
  184.1820  179.0960  143.2070 C   0  0  2  0  0  3  0  0  0  0  0  0
  186.5100  178.3080  143.6670 C   0  0  0  0  0  2  0  0  0  0  0  0
  182.7290  178.9590  143.6150 C   0  0  0  0  0  2  0  0  0  0  0  0
  181.8740  179.0580  142.4460 N   0  0  0  0  0  2  0  0  0  0  0  0
  180.5950  179.5670  142.9060 C   0  0  0  0  0  2  0  0  0  0  0  0
  179.2870  178.3100  144.4460 O   0  0  0  0  0  0  0  0  0  0  0  0
  179.2950  177.5020  142.2670 N   0  0  0  0  0  1  0  0  0  0  0  0
  179.7040  178.4310  143.2650 C   0  0  0  0  0  0  0  0  0  0  0  0
  189.0890  177.5940  139.6980 C   0  0  0  0  0  3  0  0  0  0  0  0
  188.5240  178.4590  140.4790 N   0  0  0  0  0  0  0  0  0  0  0  0
  188.9230  179.2660  137.9610 N   0  0  0  0  0  1  0  0  0  0  0  0
  189.4810  177.9670  138.3080 C   0  0  2  0  0  3  0  0  0  0  0  0
  189.0430  176.8860  137.3100 C   0  0  1  0  0  3  0  0  0  0  0  0
  190.5970  174.7080  137.4270 C   0  0  0  0  0  3  0  0  0  0  0  0
  189.8970  175.6890  137.3700 C   0  0  0  0  0  0  0  0  0  0  0  0
  186.9280  176.4150  136.3030 O   0  0  0  0  0  1  0  0  0  0  0  0
  187.5900  176.4930  137.5280 C   0  0  0  0  0  2  0  0  0  0  0  0
  189.5430  176.8580  143.2590 C   0  0  0  0  0  3  0  0  0  0  0  0
  189.1430  178.0360  142.7850 C   0  0  0  0  0  3  0  0  0  0  0  0
  191.5730  175.9810  144.0690 O   0  0  0  0  0  0  0  0  0  0  0  0
  190.5930  176.7420  144.2800 C   0  0  0  0  0  0  0  0  0  0  0  0
  190.5380  177.5230  145.5520 C   0  0  0  0  0  2  0  0  0  0  0  0
  189.8040  176.7290  146.6190 C   0  0  0  0  0  2  0  0  0  0  0  0
  187.5060  177.5470  146.8720 C   0  0  0  0  0  2  0  0  0  0  0  0
  189.1190  178.3120  148.5310 C   0  0  0  0  0  1  0  0  0  0  0  0
  188.7720  177.5780  147.2820 C   0  0  0  0  0  0  0  0  0  0  0  0
  1 24  1  0  0  0  0
  2  6  1  0  0  0  0
  4  2  1  0  0  0  0
  4  5  1  0  0  0  0
  5  1  1  6  0  0  0
  5  7  1  0  0  0  0
  6  8  1  1  0  0  0
  6  3  1  0  0  0  0
  7  3  1  0  0  0  0
  9 10  1  0  0  0  0
  9  8  1  0  0  0  0
 10 13  1  0  0  0  0
 12 13  1  0  0  0  0
 13 11  2  0  0  0  0
 14 15  2  0  0  0  0
 15  1  1  0  0  0  0
 17 16  1  6  0  0  0
 17 14  1  0  0  0  0
 18 20  1  1  0  0  0
 18 22  1  0  0  0  0
 18 17  1  0  0  0  0
 20 19  3  0  0  0  0
 21 22  1  0  0  0  0
 23 26  1  0  0  0  0
 24 23  2  0  0  0  0
 25 26  2  0  0  0  0
 26 27  1  0  0  0  0
 27 28  1  0  0  0  0
 28 31  1  0  0  0  0
 29 31  2  0  0  0  0
 31 30  1  0  0  0  0
M  END
>  <MODEL>
8

>  <REMARK>
 VINA RESULT:      -6.8      2.854      8.145
  Name = 
  15 active torsions:
  status: ('A' for Active; 'I' for Inactive)
    1  A    between atoms: C_1  and  N_3
    2  A    between atoms: C_1  and  C_21
    3  A    between atoms: N_3  and  C_31
    4  A    between atoms: C_5  and  C_10
    5  A    between atoms: C_5  and  C_20
    6  A    between atoms: C_14  and  C_20
    7  A    between atoms: C_17  and  C_20
    8  A    between atoms: C_18  and  N_28
    9  A    between atoms: N_19  and  N_28
   10  A    between atoms: C_22  and  C_23
   11  A    between atoms: C_22  and  C_29
   12  A    between atoms: C_24  and  N_28
   13  A    between atoms: C_25  and  C_26
   14  A    between atoms: C_26  and  C_29
   15  A    between atoms: C_27  and  C_31
                            x       y       z     vdW  Elec       q    Type
                         _______ _______ _______ _____ _____    ______ ____

>  <TORSDO>
F 15

$$$$
=
 OpenBabel11032419343D

 31 31  0  0  1  0  0  0  0  0999 V2000
  188.5960  178.1130  141.4370 N   0  0  0  0  0  0  0  0  0  0  0  0
  190.9410  176.3610  138.9880 C   0  0  0  0  0  2  0  0  0  0  0  0
  188.7560  176.8080  137.8580 C   0  0  0  0  0  2  0  0  0  0  0  0
  190.5320  177.2450  140.1640 C   0  0  0  0  0  2  0  0  0  0  0  0
  189.0090  177.2640  140.3110 C   0  0  2  0  0  3  0  0  0  0  0  0
  190.2730  176.8500  137.7030 C   0  0  2  0  0  3  0  0  0  0  0  0
  188.3240  177.7040  139.0150 C   0  0  0  0  0  2  0  0  0  0  0  0
  190.6880  175.9820  136.5320 C   0  0  0  0  0  2  0  0  0  0  0  0
  191.9440  175.3170  136.8290 N   0  0  0  0  0  2  0  0  0  0  0  0
  192.8650  175.6710  135.7640 C   0  0  0  0  0  2  0  0  0  0  0  0
  193.9380  176.8920  137.5030 O   0  0  0  0  0  0  0  0  0  0  0  0
  195.1670  176.6770  135.5420 N   0  0  0  0  0  1  0  0  0  0  0  0
  193.9990  176.4540  136.3240 C   0  0  0  0  0  0  0  0  0  0  0  0
  186.3660  178.4030  142.2150 C   0  0  0  0  0  3  0  0  0  0  0  0
  187.3570  178.7830  141.4720 N   0  0  0  0  0  0  0  0  0  0  0  0
  184.6970  179.4820  143.5900 N   0  0  0  0  0  1  0  0  0  0  0  0
  185.0850  179.1660  142.2230 C   0  0  2  0  0  3  0  0  0  0  0  0
  183.9820  178.3850  141.4960 C   0  0  1  0  0  3  0  0  0  0  0  0
  181.5400  178.9410  142.4460 C   0  0  0  0  0  3  0  0  0  0  0  0
  182.6410  178.6890  142.0210 C   0  0  0  0  0  0  0  0  0  0  0  0
  184.6080  179.8850  139.7450 O   0  0  0  0  0  1  0  0  0  0  0  0
  184.0190  178.6470  139.9980 C   0  0  0  0  0  2  0  0  0  0  0  0
  189.3220  177.4760  143.6610 C   0  0  0  0  0  3  0  0  0  0  0  0
  189.4440  178.2490  142.5830 C   0  0  0  0  0  3  0  0  0  0  0  0
  191.4030  177.9290  144.6640 O   0  0  0  0  0  0  0  0  0  0  0  0
  190.1930  177.6270  144.8340 C   0  0  0  0  0  0  0  0  0  0  0  0
  189.6730  177.4550  146.2230 C   0  0  0  0  0  2  0  0  0  0  0  0
  188.1700  177.2280  146.1900 C   0  0  0  0  0  2  0  0  0  0  0  0
  188.1420  178.2170  148.4340 C   0  0  0  0  0  2  0  0  0  0  0  0
  186.2070  178.6710  147.0240 C   0  0  0  0  0  1  0  0  0  0  0  0
  187.5060  177.9910  147.2870 C   0  0  0  0  0  0  0  0  0  0  0  0
  1 15  1  0  0  0  0
  1 24  1  0  0  0  0
  2  4  1  0  0  0  0
  3  7  1  0  0  0  0
  4  5  1  0  0  0  0
  5  1  1  1  0  0  0
  6  8  1  6  0  0  0
  6  3  1  0  0  0  0
  6  2  1  0  0  0  0
  7  5  1  0  0  0  0
  8  9  1  0  0  0  0
 10 13  1  0  0  0  0
 10  9  1  0  0  0  0
 12 13  1  0  0  0  0
 13 11  2  0  0  0  0
 14 17  1  0  0  0  0
 15 14  2  0  0  0  0
 17 16  1  1  0  0  0
 18 22  1  6  0  0  0
 18 20  1  0  0  0  0
 18 17  1  0  0  0  0
 20 19  3  0  0  0  0
 21 22  1  0  0  0  0
 23 26  1  0  0  0  0
 24 23  2  0  0  0  0
 25 26  2  0  0  0  0
 26 27  1  0  0  0  0
 28 27  1  0  0  0  0
 28 31  1  0  0  0  0
 30 31  1  0  0  0  0
 31 29  2  0  0  0  0
M  END
>  <MODEL>
9

>  <REMARK>
 VINA RESULT:      -6.7      2.336      3.252
  Name = 
  15 active torsions:
  status: ('A' for Active; 'I' for Inactive)
    1  A    between atoms: C_1  and  N_3
    2  A    between atoms: C_1  and  C_21
    3  A    between atoms: N_3  and  C_31
    4  A    between atoms: C_5  and  C_10
    5  A    between atoms: C_5  and  C_20
    6  A    between atoms: C_14  and  C_20
    7  A    between atoms: C_17  and  C_20
    8  A    between atoms: C_18  and  N_28
    9  A    between atoms: N_19  and  N_28
   10  A    between atoms: C_22  and  C_23
   11  A    between atoms: C_22  and  C_29
   12  A    between atoms: C_24  and  N_28
   13  A    between atoms: C_25  and  C_26
   14  A    between atoms: C_26  and  C_29
   15  A    between atoms: C_27  and  C_31
                            x       y       z     vdW  Elec       q    Type
                         _______ _______ _______ _____ _____    ______ ____

>  <TORSDO>
F 15

$$$$
