=
 OpenBabel11032420143D

 36 39  0  0  1  0  0  0  0  0999 V2000
  180.8730  180.1370  135.4840 C   0  0  0  0  0  2  0  0  0  0  0  0
  187.6070  177.2950  137.6420 C   0  0  1  0  0  3  0  0  0  0  0  0
  183.8630  178.2020  140.3460 C   0  0  0  0  0  0  0  0  0  0  0  0
  187.1420  178.3730  135.6090 C   0  0  0  0  0  2  0  0  0  0  0  0
  185.9770  178.9090  141.4060 N   0  0  0  0  0  2  0  0  0  0  0  0
  187.3660  178.6630  141.2060 C   0  0  0  0  0  0  0  0  0  0  0  0
  186.9730  176.3430  136.8310 O   0  0  0  0  0  0  0  0  0  0  0  0
  182.6770  179.6050  138.7630 C   0  0  0  0  0  3  0  0  0  0  0  0
  180.6290  178.7810  137.5530 C   0  0  1  0  0  3  0  0  0  0  0  0
  184.9190  177.4400  136.2500 C   0  0  0  0  0  2  0  0  0  0  0  0
  183.7490  179.4030  139.6340 C   0  0  0  0  0  3  0  0  0  0  0  0
  186.3450  177.0950  135.8210 C   0  0  1  0  0  3  0  0  0  0  0  0
  188.6610  176.6520  138.5540 C   0  0  2  0  0  3  0  0  0  0  0  0
  188.1250  178.3970  136.7460 C   0  0  0  0  0  2  0  0  0  0  0  0
  182.5030  176.8600  136.1830 C   0  0  0  0  0  2  0  0  0  0  0  0
  187.7820  177.4910  140.5010 N   0  0  0  0  0  2  0  0  0  0  0  0
  188.9320  177.5170  139.7010 N   0  0  0  0  0  2  0  0  0  0  0  0
  181.7740  177.4260  139.3670 C   0  0  0  0  0  0  0  0  0  0  0  0
  179.5760  179.7920  138.0160 C   0  0  0  0  0  1  0  0  0  0  0  0
  182.1280  178.1280  135.5730 N   0  0  0  0  0  2  0  0  0  0  0  0
  181.1990  179.0440  136.1670 C   0  0  0  0  0  0  0  0  0  0  0  0
  184.1610  175.0470  136.2800 C   0  0  0  0  0  1  0  0  0  0  0  0
  182.8810  177.2210  140.2040 C   0  0  0  0  0  3  0  0  0  0  0  0
  188.2130  179.5340  141.5520 O   0  0  0  0  0  0  0  0  0  0  0  0
  183.8890  176.4350  135.7270 C   0  0  2  0  0  3  0  0  0  0  0  0
  185.0350  177.9160  141.1050 N   0  0  0  0  0  2  0  0  0  0  0  0
  181.7020  178.6110  138.5970 C   0  0  0  0  0  0  0  0  0  0  0  0
  180.6130  175.4660  140.3780 C   0  0  0  0  0  2  0  0  0  0  0  0
  180.7370  176.3290  139.2020 C   0  0  1  0  0  3  0  0  0  0  0  0
  179.7570  177.4540  141.0240 O   0  0  0  0  0  1  0  0  0  0  0  0
  179.5660  176.4630  140.1150 N   0  0  0  0  0  0  0  0  0  0  0  0
  191.0740  176.5110  138.4320 N   0  0  0  0  0  0  0  0  0  0  0  0
  189.9350  176.3190  137.8440 C   0  0  0  0  0  3  0  0  0  0  0  0
  193.5580  176.6070  138.3920 N   0  0  0  0  0  1  0  0  0  0  0  0
  192.3200  176.2350  137.7880 C   0  0  0  0  0  0  0  0  0  0  0  0
  192.3250  175.6570  136.6720 O   0  0  0  0  0  0  0  0  0  0  0  0
  1 21  2  0  0  0  0
  2 14  1  6  0  0  0
  2 13  1  0  0  0  0
  3 26  1  0  0  0  0
  4 14  1  0  0  0  0
  6  5  1  0  0  0  0
  6 24  2  0  0  0  0
  7  2  1  0  0  0  0
  8 11  1  0  0  0  0
  9 19  1  1  0  0  0
  9 27  1  0  0  0  0
 11  3  2  0  0  0  0
 12  4  1  1  0  0  0
 12 10  1  0  0  0  0
 12  7  1  0  0  0  0
 13 33  1  6  0  0  0
 13 17  1  0  0  0  0
 16  6  1  0  0  0  0
 17 16  1  0  0  0  0
 18 23  2  0  0  0  0
 20 21  1  0  0  0  0
 20 15  1  0  0  0  0
 21  9  1  0  0  0  0
 23  3  1  0  0  0  0
 25 15  1  0  0  0  0
 25 10  1  0  0  0  0
 25 22  1  1  0  0  0
 26  5  1  0  0  0  0
 27  8  2  0  0  0  0
 27 18  1  0  0  0  0
 29 18  1  1  0  0  0
 29 31  1  0  0  0  0
 29 28  1  0  0  0  0
 31 28  1  0  0  0  0
 31 30  1  0  0  0  0
 33 32  2  0  0  0  0
 35 34  1  0  0  0  0
 35 32  1  0  0  0  0
 36 35  2  0  0  0  0
M  END
>  <MODEL>
1

>  <REMARK>
 VINA RESULT:      -5.8      0.000      0.000
  Name = 
  3 active torsions:
  status: ('A' for Active; 'I' for Inactive)
    1  A    between atoms: N_3  and  C_28
    2  A    between atoms: C_8  and  C_16
    3  A    between atoms: C_21  and  C_23
                            x       y       z     vdW  Elec       q    Type
                         _______ _______ _______ _____ _____    ______ ____

>  <TORSDO>
F 3

$$$$
=
 OpenBabel11032420143D

 36 39  0  0  1  0  0  0  0  0999 V2000
  187.8040  171.8200  136.1670 C   0  0  0  0  0  1  0  0  0  0  0  0
  183.5730  177.6350  138.6900 C   0  0  1  0  0  3  0  0  0  0  0  0
  188.2630  177.4150  138.3600 C   0  0  0  0  0  0  0  0  0  0  0  0
  182.8560  175.4180  138.4050 C   0  0  0  0  0  2  0  0  0  0  0  0
  187.5210  178.4540  140.4730 N   0  0  0  0  0  2  0  0  0  0  0  0
  186.3110  179.0070  140.9830 C   0  0  0  0  0  0  0  0  0  0  0  0
  183.3240  177.4780  137.3200 O   0  0  0  0  0  0  0  0  0  0  0  0
  188.4370  175.0110  138.0920 C   0  0  0  0  0  3  0  0  0  0  0  0
  189.0100  173.9740  135.8710 C   0  0  1  0  0  3  0  0  0  0  0  0
  184.7130  175.6070  136.7490 C   0  0  0  0  0  2  0  0  0  0  0  0
  188.1520  176.1220  138.8880 C   0  0  0  0  0  3  0  0  0  0  0  0
  183.3080  176.0860  137.1160 C   0  0  1  0  0  3  0  0  0  0  0  0
  183.2340  179.0520  139.1710 C   0  0  2  0  0  3  0  0  0  0  0  0
  182.8550  176.5240  139.4230 C   0  0  0  0  0  2  0  0  0  0  0  0
  186.3370  175.0260  134.9590 C   0  0  0  0  0  2  0  0  0  0  0  0
  185.3030  179.4600  140.0770 N   0  0  0  0  0  2  0  0  0  0  0  0
  183.9470  179.3500  140.4130 N   0  0  0  0  0  2  0  0  0  0  0  0
  189.0230  176.4840  136.2440 C   0  0  0  0  0  0  0  0  0  0  0  0
  190.3010  173.2250  136.2100 C   0  0  0  0  0  1  0  0  0  0  0  0
  186.5000  173.6580  135.4320 N   0  0  0  0  0  0  0  0  0  0  0  0
  187.7620  173.1040  135.8230 C   0  0  0  0  0  0  0  0  0  0  0  0
  184.7800  176.8940  134.5940 C   0  0  0  0  0  1  0  0  0  0  0  0
  188.6910  177.5880  137.0430 C   0  0  0  0  0  3  0  0  0  0  0  0
  186.0890  178.9890  142.2260 O   0  0  0  0  0  0  0  0  0  0  0  0
  184.9290  175.5250  135.2350 C   0  0  2  0  0  3  0  0  0  0  0  0
  187.8150  178.5440  139.1050 N   0  0  0  0  0  2  0  0  0  0  0  0
  188.8410  175.1790  136.7600 C   0  0  0  0  0  0  0  0  0  0  0  0
  190.2380  177.9140  134.6040 C   0  0  0  0  0  2  0  0  0  0  0  0
  189.4530  176.6950  134.8030 C   0  0  1  0  0  3  0  0  0  0  0  0
  191.5910  176.5340  135.7750 O   0  0  0  0  0  1  0  0  0  0  0  0
  190.9270  176.6150  134.5940 N   0  0  0  0  0  0  0  0  0  0  0  0
  181.3160  179.7590  140.4680 N   0  0  0  0  0  0  0  0  0  0  0  0
  181.7650  179.2820  139.3510 C   0  0  0  0  0  3  0  0  0  0  0  0
  179.4640  181.0940  141.4520 N   0  0  0  0  0  1  0  0  0  0  0  0
  179.9220  179.9720  140.7000 C   0  0  0  0  0  0  0  0  0  0  0  0
  179.0860  179.1550  140.2360 O   0  0  0  0  0  0  0  0  0  0  0  0
  2 13  1  0  0  0  0
  2 14  1  1  0  0  0
  3 11  1  0  0  0  0
  3 26  1  0  0  0  0
  4 14  1  0  0  0  0
  5  6  1  0  0  0  0
  6 24  2  0  0  0  0
  7  2  1  0  0  0  0
  8 11  2  0  0  0  0
  9 19  1  1  0  0  0
  9 27  1  0  0  0  0
 12 10  1  1  0  0  0
 12  7  1  0  0  0  0
 12  4  1  0  0  0  0
 13 33  1  1  0  0  0
 13 17  1  0  0  0  0
 15 25  1  0  0  0  0
 15 20  1  0  0  0  0
 16 17  1  0  0  0  0
 16  6  1  0  0  0  0
 18 27  2  0  0  0  0
 18 23  1  0  0  0  0
 20 21  2  0  0  0  0
 21  9  1  0  0  0  0
 21  1  1  0  0  0  0
 23  3  2  0  0  0  0
 25 22  1  6  0  0  0
 25 10  1  0  0  0  0
 26  5  1  0  0  0  0
 27  8  1  0  0  0  0
 28 29  1  0  0  0  0
 29 18  1  1  0  0  0
 31 28  1  0  0  0  0
 31 29  1  0  0  0  0
 31 30  1  0  0  0  0
 32 35  1  0  0  0  0
 33 32  2  0  0  0  0
 35 34  1  0  0  0  0
 36 35  2  0  0  0  0
M  END
>  <MODEL>
2

>  <REMARK>
 VINA RESULT:      -4.1      2.647      8.113
  Name = 
  3 active torsions:
  status: ('A' for Active; 'I' for Inactive)
    1  A    between atoms: N_3  and  C_28
    2  A    between atoms: C_8  and  C_16
    3  A    between atoms: C_21  and  C_23
                            x       y       z     vdW  Elec       q    Type
                         _______ _______ _______ _____ _____    ______ ____

>  <TORSDO>
F 3

$$$$
=
 OpenBabel11032420143D

 36 39  0  0  1  0  0  0  0  0999 V2000
  183.7910  177.8700  140.9640 C   0  0  0  0  0  1  0  0  0  0  0  0
  188.7650  174.7850  136.0830 C   0  0  1  0  0  3  0  0  0  0  0  0
  184.0830  174.3080  136.1110 C   0  0  0  0  0  0  0  0  0  0  0  0
  189.2740  175.7370  138.1680 C   0  0  0  0  0  2  0  0  0  0  0  0
  185.2380  172.1730  135.6650 N   0  0  0  0  0  2  0  0  0  0  0  0
  186.5510  171.7680  135.2870 C   0  0  0  0  0  0  0  0  0  0  0  0
  188.7680  176.1720  135.8880 O   0  0  0  0  0  0  0  0  0  0  0  0
  183.7060  175.1300  138.3610 C   0  0  0  0  0  3  0  0  0  0  0  0
  182.6990  177.3990  138.7810 C   0  0  1  0  0  3  0  0  0  0  0  0
  187.1810  176.9310  137.5210 C   0  0  0  0  0  2  0  0  0  0  0  0
  184.1940  174.1480  137.4980 C   0  0  0  0  0  3  0  0  0  0  0  0
  188.6560  176.7160  137.1810 C   0  0  1  0  0  3  0  0  0  0  0  0
  189.2740  174.0350  134.8450 C   0  0  2  0  0  3  0  0  0  0  0  0
  189.5210  174.4930  137.3610 C   0  0  0  0  0  2  0  0  0  0  0  0
  185.2430  178.4860  137.5880 C   0  0  0  0  0  2  0  0  0  0  0  0
  187.4190  172.7000  134.6380 N   0  0  0  0  0  2  0  0  0  0  0  0
  188.8020  172.6520  134.8600 N   0  0  0  0  0  2  0  0  0  0  0  0
  182.9160  176.4170  136.4510 C   0  0  0  0  0  0  0  0  0  0  0  0
  181.4360  177.0290  139.5640 C   0  0  0  0  0  1  0  0  0  0  0  0
  185.0720  178.3470  139.0270 N   0  0  0  0  0  0  0  0  0  0  0  0
  183.8590  177.8850  139.6360 C   0  0  0  0  0  0  0  0  0  0  0  0
  186.8370  178.6490  135.7220 C   0  0  0  0  0  1  0  0  0  0  0  0
  183.4510  175.4420  135.5970 C   0  0  0  0  0  3  0  0  0  0  0  0
  186.9770  170.6290  135.6280 O   0  0  0  0  0  0  0  0  0  0  0  0
  186.7080  178.3530  137.2060 C   0  0  2  0  0  3  0  0  0  0  0  0
  184.7240  173.3990  135.2200 N   0  0  0  0  0  2  0  0  0  0  0  0
  183.0950  176.2840  137.8490 C   0  0  0  0  0  0  0  0  0  0  0  0
  181.5860  177.4140  134.5940 C   0  0  0  0  0  2  0  0  0  0  0  0
  182.2640  177.6580  135.8680 C   0  0  1  0  0  3  0  0  0  0  0  0
  180.3250  176.3510  136.1380 O   0  0  0  0  0  1  0  0  0  0  0  0
  180.7760  177.5880  135.8080 N   0  0  0  0  0  0  0  0  0  0  0  0
  191.4650  173.0120  134.9490 N   0  0  0  0  0  0  0  0  0  0  0  0
  190.7640  174.0720  134.7000 C   0  0  0  0  0  3  0  0  0  0  0  0
  193.6280  171.7870  134.9770 N   0  0  0  0  0  1  0  0  0  0  0  0
  192.8910  173.0020  134.8520 C   0  0  0  0  0  0  0  0  0  0  0  0
  193.5060  174.0810  134.6570 O   0  0  0  0  0  0  0  0  0  0  0  0
  2 14  1  1  0  0  0
  3 11  1  0  0  0  0
  6 24  2  0  0  0  0
  6  5  1  0  0  0  0
  7  2  1  0  0  0  0
  7 12  1  0  0  0  0
  9 19  1  1  0  0  0
  9 21  1  0  0  0  0
 11  8  2  0  0  0  0
 12 10  1  1  0  0  0
 12  4  1  0  0  0  0
 13 33  1  1  0  0  0
 13 17  1  0  0  0  0
 13  2  1  0  0  0  0
 14  4  1  0  0  0  0
 15 20  1  0  0  0  0
 16 17  1  0  0  0  0
 16  6  1  0  0  0  0
 18 27  2  0  0  0  0
 20 21  2  0  0  0  0
 21  1  1  0  0  0  0
 23  3  2  0  0  0  0
 23 18  1  0  0  0  0
 25 22  1  6  0  0  0
 25 10  1  0  0  0  0
 25 15  1  0  0  0  0
 26  5  1  0  0  0  0
 26  3  1  0  0  0  0
 27  8  1  0  0  0  0
 27  9  1  0  0  0  0
 28 31  1  0  0  0  0
 28 29  1  0  0  0  0
 29 18  1  1  0  0  0
 31 29  1  0  0  0  0
 31 30  1  0  0  0  0
 33 32  2  0  0  0  0
 35 32  1  0  0  0  0
 35 34  1  0  0  0  0
 36 35  2  0  0  0  0
M  END
>  <MODEL>
3

>  <REMARK>
 VINA RESULT:      -3.8      3.302      5.291
  Name = 
  3 active torsions:
  status: ('A' for Active; 'I' for Inactive)
    1  A    between atoms: N_3  and  C_28
    2  A    between atoms: C_8  and  C_16
    3  A    between atoms: C_21  and  C_23
                            x       y       z     vdW  Elec       q    Type
                         _______ _______ _______ _____ _____    ______ ____

>  <TORSDO>
F 3

$$$$
=
 OpenBabel11032420143D

 36 39  0  0  1  0  0  0  0  0999 V2000
  180.1100  176.4590  141.8450 C   0  0  0  0  0  2  0  0  0  0  0  0
  187.5870  177.7540  142.5520 C   0  0  1  0  0  3  0  0  0  0  0  0
  184.8740  178.5200  138.7830 C   0  0  0  0  0  0  0  0  0  0  0  0
  186.2680  176.4260  143.9690 C   0  0  0  0  0  2  0  0  0  0  0  0
  187.0460  177.5120  138.1840 N   0  0  0  0  0  2  0  0  0  0  0  0
  188.3070  177.3190  138.8200 C   0  0  0  0  0  0  0  0  0  0  0  0
  186.9100  178.6410  143.4010 O   0  0  0  0  0  0  0  0  0  0  0  0
  182.9800  177.1830  139.4940 C   0  0  0  0  0  3  0  0  0  0  0  0
  180.8400  178.2490  140.2830 C   0  0  1  0  0  3  0  0  0  0  0  0
  184.6120  178.0470  143.0460 C   0  0  0  0  0  2  0  0  0  0  0  0
  184.3010  177.2700  139.0500 C   0  0  0  0  0  3  0  0  0  0  0  0
  185.8470  177.8870  143.9320 C   0  0  1  0  0  3  0  0  0  0  0  0
  188.9880  178.2680  142.1950 C   0  0  2  0  0  3  0  0  0  0  0  0
  187.5530  176.3830  143.1900 C   0  0  0  0  0  2  0  0  0  0  0  0
  182.4720  179.2360  142.6160 C   0  0  0  0  0  2  0  0  0  0  0  0
  188.6760  178.1490  139.9240 N   0  0  0  0  0  2  0  0  0  0  0  0
  189.4610  177.6350  140.9650 N   0  0  0  0  0  2  0  0  0  0  0  0
  182.7660  179.6030  139.3350 C   0  0  0  0  0  0  0  0  0  0  0  0
  179.8340  177.6920  139.2730 C   0  0  0  0  0  1  0  0  0  0  0  0
  181.6790  178.0180  142.6980 N   0  0  0  0  0  2  0  0  0  0  0  0
  180.8480  177.5440  141.6310 C   0  0  0  0  0  0  0  0  0  0  0  0
  184.3780  180.5030  143.5160 C   0  0  0  0  0  1  0  0  0  0  0  0
  184.1070  179.6770  138.9320 C   0  0  0  0  0  3  0  0  0  0  0  0
  189.0380  176.3480  138.4800 O   0  0  0  0  0  0  0  0  0  0  0  0
  183.6770  179.1560  143.5380 C   0  0  2  0  0  3  0  0  0  0  0  0
  186.2650  178.6340  138.4940 N   0  0  0  0  0  2  0  0  0  0  0  0
  182.2140  178.3440  139.6720 C   0  0  0  0  0  0  0  0  0  0  0  0
  182.3050  181.9280  138.5640 C   0  0  0  0  0  2  0  0  0  0  0  0
  181.9620  180.8780  139.5240 C   0  0  1  0  0  3  0  0  0  0  0  0
  181.2500  180.3470  137.3430 O   0  0  0  0  0  1  0  0  0  0  0  0
  181.0470  181.1890  138.3890 N   0  0  0  0  0  0  0  0  0  0  0  0
  190.4980  176.9040  143.5070 N   0  0  0  0  0  0  0  0  0  0  0  0
  189.9870  178.0760  143.2930 C   0  0  0  0  0  3  0  0  0  0  0  0
  191.6810  177.6410  145.5650 N   0  0  0  0  0  1  0  0  0  0  0  0
  191.4350  176.6620  144.5580 C   0  0  0  0  0  0  0  0  0  0  0  0
  192.0550  175.5680  144.5940 O   0  0  0  0  0  0  0  0  0  0  0  0
  2 14  1  1  0  0  0
  2  7  1  0  0  0  0
  3 23  2  0  0  0  0
  3 11  1  0  0  0  0
  5 26  1  0  0  0  0
  5  6  1  0  0  0  0
  6 16  1  0  0  0  0
  7 12  1  0  0  0  0
  8 27  1  0  0  0  0
  9 19  1  6  0  0  0
  9 21  1  0  0  0  0
 10 25  1  0  0  0  0
 11  8  2  0  0  0  0
 12 10  1  6  0  0  0
 12  4  1  0  0  0  0
 13  2  1  0  0  0  0
 13 33  1  1  0  0  0
 14  4  1  0  0  0  0
 15 20  1  0  0  0  0
 15 25  1  0  0  0  0
 16 17  1  0  0  0  0
 17 13  1  0  0  0  0
 18 27  2  0  0  0  0
 21  1  2  0  0  0  0
 21 20  1  0  0  0  0
 23 18  1  0  0  0  0
 24  6  2  0  0  0  0
 25 22  1  6  0  0  0
 26  3  1  0  0  0  0
 27  9  1  0  0  0  0
 28 29  1  0  0  0  0
 29 18  1  6  0  0  0
 30 31  1  0  0  0  0
 31 28  1  0  0  0  0
 31 29  1  0  0  0  0
 32 35  1  0  0  0  0
 33 32  2  0  0  0  0
 35 36  2  0  0  0  0
 35 34  1  0  0  0  0
M  END
>  <MODEL>
4

>  <REMARK>
 VINA RESULT:      -3.5      3.072      5.539
  Name = 
  3 active torsions:
  status: ('A' for Active; 'I' for Inactive)
    1  A    between atoms: N_3  and  C_28
    2  A    between atoms: C_8  and  C_16
    3  A    between atoms: C_21  and  C_23
                            x       y       z     vdW  Elec       q    Type
                         _______ _______ _______ _____ _____    ______ ____

>  <TORSDO>
F 3

$$$$
