=
 OpenBabel11042413353D

 41 44  0  0  1  0  0  0  0  0999 V2000
  188.2170  177.2840  142.9230 C   0  0  0  0  0  3  0  0  0  0  0  0
  186.2840  177.9680  144.8760 C   0  0  0  0  0  0  0  0  0  0  0  0
  186.8850  177.5510  142.5570 C   0  0  0  0  0  3  0  0  0  0  0  0
  189.9660  177.1020  144.7300 C   0  0  0  0  0  0  0  0  0  0  0  0
  185.9070  177.8700  143.5180 C   0  0  0  0  0  0  0  0  0  0  0  0
  185.4050  178.3920  145.9220 C   0  0  0  0  0  3  0  0  0  0  0  0
  185.8630  178.5020  147.2690 C   0  0  0  0  0  3  0  0  0  0  0  0
  187.6240  177.6760  145.2040 C   0  0  0  0  0  0  0  0  0  0  0  0
  187.2010  178.1720  147.5120 C   0  0  0  0  0  0  0  0  0  0  0  0
  189.1980  177.8810  148.3190 N   0  0  0  0  0  0  0  0  0  0  0  0
  188.6150  177.3330  144.2660 C   0  0  0  0  0  0  0  0  0  0  0  0
  190.2760  177.2540  146.1220 C   0  0  2  0  0  3  0  0  0  0  0  0
  187.9430  178.2330  148.6420 N   0  0  0  0  0  0  0  0  0  0  0  0
  189.2240  177.6050  146.9900 C   0  0  0  0  0  0  0  0  0  0  0  0
  187.9930  177.7800  146.5070 C   0  0  0  0  0  0  0  0  0  0  0  0
  184.2400  178.8690  141.8820 C   0  0  0  0  0  0  0  0  0  0  0  0
  185.1150  179.5700  141.3050 O   0  0  0  0  0  0  0  0  0  0  0  0
  184.5730  178.1440  143.0690 N   0  0  0  0  0  2  0  0  0  0  0  0
  180.9760  178.3020  140.0590 C   0  0  0  0  0  1  0  0  0  0  0  0
  182.8880  178.8190  141.3990 N   0  0  0  0  0  0  0  0  0  0  0  0
  182.4380  178.1960  140.3480 C   0  0  0  0  0  0  0  0  0  0  0  0
  183.3420  177.3850  139.4570 C   0  0  0  0  0  2  0  0  0  0  0  0
  183.9640  178.1870  138.3200 C   0  0  0  0  0  2  0  0  0  0  0  0
  185.1640  177.4490  137.7420 C   0  0  1  0  0  3  0  0  0  0  0  0
  184.9310  177.1160  136.2770 C   0  0  0  0  0  1  0  0  0  0  0  0
  186.9270  179.0000  136.7840 N   0  0  0  0  0  1  0  0  0  0  0  0
  186.3970  178.2770  137.8920 C   0  0  0  0  0  0  0  0  0  0  0  0
  186.9690  178.3430  139.0110 O   0  0  0  0  0  0  0  0  0  0  0  0
  192.0400  175.8710  147.2010 C   0  0  0  0  0  1  0  0  0  0  0  0
  191.5930  177.0560  146.5580 O   0  0  0  0  0  0  0  0  0  0  0  0
  191.0280  176.7470  143.8820 O   0  0  0  0  0  0  0  0  0  0  0  0
  191.8260  177.6570  143.1420 C   0  0  0  0  0  2  0  0  0  0  0  0
  192.0970  177.0820  141.7690 C   0  0  0  0  0  2  0  0  0  0  0  0
  190.7850  176.8450  141.0500 C   0  0  0  0  0  2  0  0  0  0  0  0
  190.8570  177.4610  139.6610 C   0  0  0  0  0  2  0  0  0  0  0  0
  190.4590  176.4770  138.5580 C   0  0  2  0  0  3  0  0  0  0  0  0
  191.6290  175.5820  138.1750 C   0  0  0  0  0  2  0  0  0  0  0  0
  192.8590  176.4170  137.8720 C   0  0  0  0  0  1  0  0  0  0  0  0
  189.8790  177.1920  137.3360 C   0  0  0  0  0  2  0  0  0  0  0  0
  189.2870  176.1960  136.3480 C   0  0  0  0  0  2  0  0  0  0  0  0
  189.7990  176.4640  134.9430 C   0  0  0  0  0  1  0  0  0  0  0  0
  1 11  1  0  0  0  0
  2  8  1  0  0  0  0
  2  6  1  0  0  0  0
  3  1  2  0  0  0  0
  3  5  1  0  0  0  0
  4 12  1  0  0  0  0
  5  2  2  0  0  0  0
  6  7  2  0  0  0  0
  7  9  1  0  0  0  0
  8 15  2  0  0  0  0
  9 13  2  0  0  0  0
 10 13  1  0  0  0  0
 11  4  2  0  0  0  0
 11  8  1  0  0  0  0
 12 30  1  6  0  0  0
 12 14  1  0  0  0  0
 14 10  2  0  0  0  0
 15 14  1  0  0  0  0
 15  9  1  0  0  0  0
 16 18  1  0  0  0  0
 17 16  2  0  0  0  0
 18  5  1  0  0  0  0
 19 21  1  0  0  0  0
 20 16  1  0  0  0  0
 21 20  2  0  0  0  0
 22 21  1  0  0  0  0
 23 22  1  0  0  0  0
 24 25  1  6  0  0  0
 24 27  1  0  0  0  0
 24 23  1  0  0  0  0
 26 27  1  0  0  0  0
 27 28  2  0  0  0  0
 30 29  1  0  0  0  0
 31  4  1  0  0  0  0
 32 31  1  0  0  0  0
 33 32  1  0  0  0  0
 34 33  1  0  0  0  0
 35 34  1  0  0  0  0
 36 39  1  6  0  0  0
 36 35  1  0  0  0  0
 37 36  1  0  0  0  0
 38 37  1  0  0  0  0
 40 39  1  0  0  0  0
 41 40  1  0  0  0  0
M  END
>  <MODEL>
1

>  <REMARK>
 VINA RESULT:      -8.4      0.000      0.000
  Name = 
  16 active torsions:
  status: ('A' for Active; 'I' for Inactive)
    1  A    between atoms: C_4  and  C_25
    2  A    between atoms: C_4  and  C_41
    3  A    between atoms: C_5  and  C_36
    4  A    between atoms: C_7  and  C_27
    5  A    between atoms: C_8  and  C_15
    6  A    between atoms: C_8  and  C_40
    7  A    between atoms: C_9  and  C_27
    8  A    between atoms: C_9  and  C_41
    9  A    between atoms: C_12  and  O_17
   10  A    between atoms: C_13  and  N_29
   11  A    between atoms: C_15  and  C_23
   12  A    between atoms: C_16  and  N_24
   13  A    between atoms: O_17  and  C_25
   14  A    between atoms: C_27  and  C_36
   15  A    between atoms: O_28  and  C_32
   16  A    between atoms: C_33  and  C_40
                            x       y       z     vdW  Elec       q    Type
                         _______ _______ _______ _____ _____    ______ ____

>  <TORSDO>
F 16

$$$$
=
 OpenBabel11042413353D

 41 44  0  0  1  0  0  0  0  0999 V2000
  187.7680  178.1290  141.8480 C   0  0  0  0  0  3  0  0  0  0  0  0
  185.1300  178.9130  142.5160 C   0  0  0  0  0  0  0  0  0  0  0  0
  186.8920  178.6280  140.8660 C   0  0  0  0  0  3  0  0  0  0  0  0
  188.1870  177.5170  144.2580 C   0  0  0  0  0  0  0  0  0  0  0  0
  185.5710  179.0000  141.1770 C   0  0  0  0  0  0  0  0  0  0  0  0
  183.8500  179.3660  142.9680 C   0  0  0  0  0  3  0  0  0  0  0  0
  183.4830  179.2780  144.3440 C   0  0  0  0  0  3  0  0  0  0  0  0
  186.0300  178.3910  143.4680 C   0  0  0  0  0  0  0  0  0  0  0  0
  184.4260  178.7290  145.2190 C   0  0  0  0  0  0  0  0  0  0  0  0
  185.6010  178.0640  146.9210 N   0  0  0  0  0  0  0  0  0  0  0  0
  187.3480  177.9920  143.1780 C   0  0  0  0  0  0  0  0  0  0  0  0
  187.6750  177.4890  145.5970 C   0  0  2  0  0  3  0  0  0  0  0  0
  184.4110  178.5710  146.5620 N   0  0  0  0  0  0  0  0  0  0  0  0
  186.3460  177.9120  145.7960 C   0  0  0  0  0  0  0  0  0  0  0  0
  185.6130  178.3160  144.7580 C   0  0  0  0  0  0  0  0  0  0  0  0
  183.9700  178.7160  139.2250 C   0  0  0  0  0  0  0  0  0  0  0  0
  184.2040  177.4810  139.1180 O   0  0  0  0  0  0  0  0  0  0  0  0
  184.7420  179.5140  140.1260 N   0  0  0  0  0  2  0  0  0  0  0  0
  180.8470  180.1220  137.6230 C   0  0  0  0  0  1  0  0  0  0  0  0
  182.9680  179.3560  138.4200 N   0  0  0  0  0  0  0  0  0  0  0  0
  181.6800  179.3800  138.6160 C   0  0  0  0  0  0  0  0  0  0  0  0
  181.0440  178.7030  139.8020 C   0  0  0  0  0  2  0  0  0  0  0  0
  179.9430  179.5260  140.4600 C   0  0  0  0  0  2  0  0  0  0  0  0
  179.2080  178.6940  141.5010 C   0  0  1  0  0  3  0  0  0  0  0  0
  179.4920  177.2140  141.3010 C   0  0  0  0  0  1  0  0  0  0  0  0
  180.1050  180.4300  143.1180 N   0  0  0  0  0  1  0  0  0  0  0  0
  179.6130  179.1150  142.8750 C   0  0  0  0  0  0  0  0  0  0  0  0
  179.5110  178.3010  143.8300 O   0  0  0  0  0  0  0  0  0  0  0  0
  189.0130  177.9110  147.6510 C   0  0  0  0  0  1  0  0  0  0  0  0
  188.5020  177.0540  146.6400 O   0  0  0  0  0  0  0  0  0  0  0  0
  189.5110  177.0850  144.0790 O   0  0  0  0  0  0  0  0  0  0  0  0
  190.6690  177.8700  144.3220 C   0  0  0  0  0  2  0  0  0  0  0  0
  191.5260  177.8950  143.0760 C   0  0  0  0  0  2  0  0  0  0  0  0
  190.9500  176.9450  142.0460 C   0  0  0  0  0  2  0  0  0  0  0  0
  191.4480  177.3440  140.6640 C   0  0  0  0  0  2  0  0  0  0  0  0
  190.4990  176.9060  139.5460 C   0  0  2  0  0  3  0  0  0  0  0  0
  191.2290  176.0640  138.5090 C   0  0  0  0  0  2  0  0  0  0  0  0
  192.6900  176.4650  138.4320 C   0  0  0  0  0  1  0  0  0  0  0  0
  189.7890  178.0970  138.8990 C   0  0  0  0  0  2  0  0  0  0  0  0
  189.4000  177.7880  137.4600 C   0  0  0  0  0  2  0  0  0  0  0  0
  187.9700  178.2190  137.1840 C   0  0  0  0  0  1  0  0  0  0  0  0
  1 11  1  0  0  0  0
  2  6  1  0  0  0  0
  2  8  1  0  0  0  0
  3  5  1  0  0  0  0
  3  1  2  0  0  0  0
  4 12  1  0  0  0  0
  5  2  2  0  0  0  0
  6  7  2  0  0  0  0
  7  9  1  0  0  0  0
  8 15  2  0  0  0  0
  9 13  2  0  0  0  0
 11  8  1  0  0  0  0
 11  4  2  0  0  0  0
 12 14  1  0  0  0  0
 12 30  1  1  0  0  0
 13 10  1  0  0  0  0
 14 10  2  0  0  0  0
 15  9  1  0  0  0  0
 15 14  1  0  0  0  0
 16 18  1  0  0  0  0
 17 16  2  0  0  0  0
 18  5  1  0  0  0  0
 19 21  1  0  0  0  0
 20 21  2  0  0  0  0
 20 16  1  0  0  0  0
 21 22  1  0  0  0  0
 22 23  1  0  0  0  0
 23 24  1  0  0  0  0
 24 25  1  6  0  0  0
 24 27  1  0  0  0  0
 27 26  1  0  0  0  0
 27 28  2  0  0  0  0
 30 29  1  0  0  0  0
 31  4  1  0  0  0  0
 31 32  1  0  0  0  0
 33 32  1  0  0  0  0
 34 33  1  0  0  0  0
 35 34  1  0  0  0  0
 36 37  1  6  0  0  0
 36 35  1  0  0  0  0
 38 37  1  0  0  0  0
 39 36  1  0  0  0  0
 40 39  1  0  0  0  0
 41 40  1  0  0  0  0
M  END
>  <MODEL>
2

>  <REMARK>
 VINA RESULT:      -8.3      2.091      3.861
  Name = 
  16 active torsions:
  status: ('A' for Active; 'I' for Inactive)
    1  A    between atoms: C_4  and  C_25
    2  A    between atoms: C_4  and  C_41
    3  A    between atoms: C_5  and  C_36
    4  A    between atoms: C_7  and  C_27
    5  A    between atoms: C_8  and  C_15
    6  A    between atoms: C_8  and  C_40
    7  A    between atoms: C_9  and  C_27
    8  A    between atoms: C_9  and  C_41
    9  A    between atoms: C_12  and  O_17
   10  A    between atoms: C_13  and  N_29
   11  A    between atoms: C_15  and  C_23
   12  A    between atoms: C_16  and  N_24
   13  A    between atoms: O_17  and  C_25
   14  A    between atoms: C_27  and  C_36
   15  A    between atoms: O_28  and  C_32
   16  A    between atoms: C_33  and  C_40
                            x       y       z     vdW  Elec       q    Type
                         _______ _______ _______ _____ _____    ______ ____

>  <TORSDO>
F 16

$$$$
=
 OpenBabel11042413353D

 41 44  0  0  1  0  0  0  0  0999 V2000
  188.3220  177.1510  143.0460 C   0  0  0  0  0  3  0  0  0  0  0  0
  186.4470  177.9310  145.0190 C   0  0  0  0  0  0  0  0  0  0  0  0
  186.9890  177.4400  142.7010 C   0  0  0  0  0  3  0  0  0  0  0  0
  190.1050  176.9760  144.8210 C   0  0  0  0  0  0  0  0  0  0  0  0
  186.0400  177.8070  143.6730 C   0  0  0  0  0  0  0  0  0  0  0  0
  185.6000  178.4030  146.0710 C   0  0  0  0  0  3  0  0  0  0  0  0
  186.0890  178.5370  147.4050 C   0  0  0  0  0  3  0  0  0  0  0  0
  187.7870  177.6160  145.3280 C   0  0  0  0  0  0  0  0  0  0  0  0
  187.4240  178.1830  147.6300 C   0  0  0  0  0  0  0  0  0  0  0  0
  189.4300  177.8660  148.4030 N   0  0  0  0  0  0  0  0  0  0  0  0
  188.7500  177.2260  144.3780 C   0  0  0  0  0  0  0  0  0  0  0  0
  190.4470  177.1560  146.2020 C   0  0  2  0  0  3  0  0  0  0  0  0
  188.1900  178.2560  148.7420 N   0  0  0  0  0  0  0  0  0  0  0  0
  189.4210  177.5540  147.0820 C   0  0  0  0  0  0  0  0  0  0  0  0
  188.1850  177.7450  146.6200 C   0  0  0  0  0  0  0  0  0  0  0  0
  184.3630  178.8770  142.0920 C   0  0  0  0  0  0  0  0  0  0  0  0
  185.2350  179.6040  141.5420 O   0  0  0  0  0  0  0  0  0  0  0  0
  184.7030  178.1000  143.2430 N   0  0  0  0  0  2  0  0  0  0  0  0
  181.0720  178.3170  140.3160 C   0  0  0  0  0  1  0  0  0  0  0  0
  183.0090  178.8490  141.6150 N   0  0  0  0  0  0  0  0  0  0  0  0
  182.5300  178.1720  140.6100 C   0  0  0  0  0  0  0  0  0  0  0  0
  183.3970  177.2630  139.7780 C   0  0  0  0  0  2  0  0  0  0  0  0
  183.0930  177.3220  138.2860 C   0  0  0  0  0  2  0  0  0  0  0  0
  184.3770  177.4970  137.4880 C   0  0  1  0  0  3  0  0  0  0  0  0
  185.4160  178.2460  138.3070 C   0  0  0  0  0  1  0  0  0  0  0  0
  184.0320  175.1420  136.6110 N   0  0  0  0  0  1  0  0  0  0  0  0
  184.9100  176.1660  137.0730 C   0  0  0  0  0  0  0  0  0  0  0  0
  186.1490  175.9490  137.1230 O   0  0  0  0  0  0  0  0  0  0  0  0
  192.2080  175.7460  147.2500 C   0  0  0  0  0  1  0  0  0  0  0  0
  191.7680  176.9390  146.6160 O   0  0  0  0  0  0  0  0  0  0  0  0
  191.1400  176.5730  143.9610 O   0  0  0  0  0  0  0  0  0  0  0  0
  191.6490  177.3360  142.8780 C   0  0  0  0  0  2  0  0  0  0  0  0
  191.4310  176.5780  141.5880 C   0  0  0  0  0  2  0  0  0  0  0  0
  191.1770  177.5580  140.4600 C   0  0  0  0  0  2  0  0  0  0  0  0
  190.1380  176.9750  139.5150 C   0  0  0  0  0  2  0  0  0  0  0  0
  190.5670  177.0510  138.0470 C   0  0  2  0  0  3  0  0  0  0  0  0
  189.3970  177.4450  137.1560 C   0  0  0  0  0  2  0  0  0  0  0  0
  189.0360  178.9040  137.3670 C   0  0  0  0  0  1  0  0  0  0  0  0
  191.2170  175.7500  137.5730 C   0  0  0  0  0  2  0  0  0  0  0  0
  192.7350  175.8530  137.6040 C   0  0  0  0  0  2  0  0  0  0  0  0
  193.3690  174.4730  137.5640 C   0  0  0  0  0  1  0  0  0  0  0  0
  1 11  1  0  0  0  0
  2  8  1  0  0  0  0
  2  6  1  0  0  0  0
  3  1  2  0  0  0  0
  3  5  1  0  0  0  0
  4 12  1  0  0  0  0
  5  2  2  0  0  0  0
  6  7  2  0  0  0  0
  7  9  1  0  0  0  0
  8 15  2  0  0  0  0
  9 13  2  0  0  0  0
 10 13  1  0  0  0  0
 11  4  2  0  0  0  0
 11  8  1  0  0  0  0
 12 30  1  6  0  0  0
 12 14  1  0  0  0  0
 14 10  2  0  0  0  0
 15 14  1  0  0  0  0
 15  9  1  0  0  0  0
 16 18  1  0  0  0  0
 17 16  2  0  0  0  0
 18  5  1  0  0  0  0
 19 21  1  0  0  0  0
 20 16  1  0  0  0  0
 21 20  2  0  0  0  0
 22 21  1  0  0  0  0
 23 22  1  0  0  0  0
 24 23  1  0  0  0  0
 24 25  1  1  0  0  0
 26 27  1  0  0  0  0
 27 28  2  0  0  0  0
 27 24  1  0  0  0  0
 30 29  1  0  0  0  0
 31  4  1  0  0  0  0
 32 31  1  0  0  0  0
 33 32  1  0  0  0  0
 34 33  1  0  0  0  0
 35 34  1  0  0  0  0
 36 37  1  6  0  0  0
 36 35  1  0  0  0  0
 37 38  1  0  0  0  0
 39 40  1  0  0  0  0
 39 36  1  0  0  0  0
 41 40  1  0  0  0  0
M  END
>  <MODEL>
3

>  <REMARK>
 VINA RESULT:      -8.2      1.126      1.745
  Name = 
  16 active torsions:
  status: ('A' for Active; 'I' for Inactive)
    1  A    between atoms: C_4  and  C_25
    2  A    between atoms: C_4  and  C_41
    3  A    between atoms: C_5  and  C_36
    4  A    between atoms: C_7  and  C_27
    5  A    between atoms: C_8  and  C_15
    6  A    between atoms: C_8  and  C_40
    7  A    between atoms: C_9  and  C_27
    8  A    between atoms: C_9  and  C_41
    9  A    between atoms: C_12  and  O_17
   10  A    between atoms: C_13  and  N_29
   11  A    between atoms: C_15  and  C_23
   12  A    between atoms: C_16  and  N_24
   13  A    between atoms: O_17  and  C_25
   14  A    between atoms: C_27  and  C_36
   15  A    between atoms: O_28  and  C_32
   16  A    between atoms: C_33  and  C_40
                            x       y       z     vdW  Elec       q    Type
                         _______ _______ _______ _____ _____    ______ ____

>  <TORSDO>
F 16

$$$$
=
 OpenBabel11042413353D

 41 44  0  0  1  0  0  0  0  0999 V2000
  188.2140  177.2080  142.9960 C   0  0  0  0  0  3  0  0  0  0  0  0
  186.3620  177.9770  144.9950 C   0  0  0  0  0  0  0  0  0  0  0  0
  186.8770  177.5010  142.6680 C   0  0  0  0  0  3  0  0  0  0  0  0
  190.0160  177.0180  144.7500 C   0  0  0  0  0  0  0  0  0  0  0  0
  185.9390  177.8620  143.6530 C   0  0  0  0  0  0  0  0  0  0  0  0
  185.5280  178.4430  146.0600 C   0  0  0  0  0  3  0  0  0  0  0  0
  186.0320  178.5680  147.3890 C   0  0  0  0  0  3  0  0  0  0  0  0
  187.7050  177.6580  145.2870 C   0  0  0  0  0  0  0  0  0  0  0  0
  187.3690  178.2100  147.5970 C   0  0  0  0  0  0  0  0  0  0  0  0
  189.3830  177.8850  148.3450 N   0  0  0  0  0  0  0  0  0  0  0  0
  188.6560  177.2730  144.3240 C   0  0  0  0  0  0  0  0  0  0  0  0
  190.3740  177.1890  146.1280 C   0  0  2  0  0  3  0  0  0  0  0  0
  188.1480  178.2750  148.7000 N   0  0  0  0  0  0  0  0  0  0  0  0
  189.3590  177.5830  147.0220 C   0  0  0  0  0  0  0  0  0  0  0  0
  188.1180  177.7780  146.5750 C   0  0  0  0  0  0  0  0  0  0  0  0
  184.2440  178.8670  142.0490 C   0  0  0  0  0  0  0  0  0  0  0  0
  185.1170  179.5320  141.4280 O   0  0  0  0  0  0  0  0  0  0  0  0
  184.5980  178.1600  143.2410 N   0  0  0  0  0  2  0  0  0  0  0  0
  180.9010  178.3060  140.3750 C   0  0  0  0  0  1  0  0  0  0  0  0
  182.8770  178.8410  141.6120 N   0  0  0  0  0  0  0  0  0  0  0  0
  182.3650  178.1560  140.6290 C   0  0  0  0  0  0  0  0  0  0  0  0
  183.2020  177.2340  139.7820 C   0  0  0  0  0  2  0  0  0  0  0  0
  182.5430  175.8890  139.5030 C   0  0  0  0  0  2  0  0  0  0  0  0
  182.6730  175.5260  138.0310 C   0  0  1  0  0  3  0  0  0  0  0  0
  183.9340  174.7110  137.7910 C   0  0  0  0  0  1  0  0  0  0  0  0
  181.6040  173.4390  137.0660 N   0  0  0  0  0  1  0  0  0  0  0  0
  181.4730  174.7610  137.5810 C   0  0  0  0  0  0  0  0  0  0  0  0
  180.3320  175.2860  137.6660 O   0  0  0  0  0  0  0  0  0  0  0  0
  192.1340  175.7930  147.1960 C   0  0  0  0  0  1  0  0  0  0  0  0
  191.6990  176.9670  146.5260 O   0  0  0  0  0  0  0  0  0  0  0  0
  191.0400  176.6200  143.8760 O   0  0  0  0  0  0  0  0  0  0  0  0
  190.8900  176.4020  142.4810 C   0  0  0  0  0  2  0  0  0  0  0  0
  191.6200  177.4890  141.7250 C   0  0  0  0  0  2  0  0  0  0  0  0
  191.4230  177.2910  140.2360 C   0  0  0  0  0  2  0  0  0  0  0  0
  189.9630  177.5360  139.8870 C   0  0  0  0  0  2  0  0  0  0  0  0
  189.6430  177.2170  138.4250 C   0  0  2  0  0  3  0  0  0  0  0  0
  190.8280  176.5480  137.7410 C   0  0  0  0  0  2  0  0  0  0  0  0
  190.5300  175.0850  137.4720 C   0  0  0  0  0  1  0  0  0  0  0  0
  189.1810  178.4560  137.6560 C   0  0  0  0  0  2  0  0  0  0  0  0
  187.7000  178.3700  137.3170 C   0  0  0  0  0  2  0  0  0  0  0  0
  187.1890  176.9500  137.4910 C   0  0  0  0  0  1  0  0  0  0  0  0
  1 11  1  0  0  0  0
  2  8  1  0  0  0  0
  2  6  1  0  0  0  0
  3  1  2  0  0  0  0
  3  5  1  0  0  0  0
  4 12  1  0  0  0  0
  5  2  2  0  0  0  0
  6  7  2  0  0  0  0
  7  9  1  0  0  0  0
  8 15  2  0  0  0  0
  9 13  2  0  0  0  0
 10 13  1  0  0  0  0
 11  4  2  0  0  0  0
 11  8  1  0  0  0  0
 12 30  1  6  0  0  0
 12 14  1  0  0  0  0
 14 10  2  0  0  0  0
 15 14  1  0  0  0  0
 15  9  1  0  0  0  0
 16 18  1  0  0  0  0
 17 16  2  0  0  0  0
 18  5  1  0  0  0  0
 19 21  1  0  0  0  0
 20 16  1  0  0  0  0
 21 20  2  0  0  0  0
 22 21  1  0  0  0  0
 23 22  1  0  0  0  0
 24 25  1  1  0  0  0
 24 23  1  0  0  0  0
 26 27  1  0  0  0  0
 27 28  2  0  0  0  0
 27 24  1  0  0  0  0
 30 29  1  0  0  0  0
 31  4  1  0  0  0  0
 32 31  1  0  0  0  0
 33 32  1  0  0  0  0
 34 33  1  0  0  0  0
 35 34  1  0  0  0  0
 36 39  1  6  0  0  0
 36 35  1  0  0  0  0
 37 36  1  0  0  0  0
 38 37  1  0  0  0  0
 40 41  1  0  0  0  0
 40 39  1  0  0  0  0
M  END
>  <MODEL>
4

>  <REMARK>
 VINA RESULT:      -8.0      1.922      2.314
  Name = 
  16 active torsions:
  status: ('A' for Active; 'I' for Inactive)
    1  A    between atoms: C_4  and  C_25
    2  A    between atoms: C_4  and  C_41
    3  A    between atoms: C_5  and  C_36
    4  A    between atoms: C_7  and  C_27
    5  A    between atoms: C_8  and  C_15
    6  A    between atoms: C_8  and  C_40
    7  A    between atoms: C_9  and  C_27
    8  A    between atoms: C_9  and  C_41
    9  A    between atoms: C_12  and  O_17
   10  A    between atoms: C_13  and  N_29
   11  A    between atoms: C_15  and  C_23
   12  A    between atoms: C_16  and  N_24
   13  A    between atoms: O_17  and  C_25
   14  A    between atoms: C_27  and  C_36
   15  A    between atoms: O_28  and  C_32
   16  A    between atoms: C_33  and  C_40
                            x       y       z     vdW  Elec       q    Type
                         _______ _______ _______ _____ _____    ______ ____

>  <TORSDO>
F 16

$$$$
=
 OpenBabel11042413353D

 41 44  0  0  1  0  0  0  0  0999 V2000
  185.8090  179.0080  141.4340 C   0  0  0  0  0  3  0  0  0  0  0  0
  183.7630  178.9090  143.3880 C   0  0  0  0  0  0  0  0  0  0  0  0
  186.1200  179.0230  142.8060 C   0  0  0  0  0  3  0  0  0  0  0  0
  184.0650  178.9130  139.6150 C   0  0  0  0  0  0  0  0  0  0  0  0
  185.1140  178.9980  143.7890 C   0  0  0  0  0  0  0  0  0  0  0  0
  182.6660  178.7650  144.2960 C   0  0  0  0  0  3  0  0  0  0  0  0
  181.3270  178.6460  143.8190 C   0  0  0  0  0  3  0  0  0  0  0  0
  183.4910  178.9140  142.0050 C   0  0  0  0  0  0  0  0  0  0  0  0
  181.1420  178.6820  142.4320 C   0  0  0  0  0  0  0  0  0  0  0  0
  180.4100  178.5710  140.3900 N   0  0  0  0  0  0  0  0  0  0  0  0
  184.4770  178.9610  141.0010 C   0  0  0  0  0  0  0  0  0  0  0  0
  182.6740  178.7900  139.2900 C   0  0  0  0  0  0  0  0  0  0  0  0
  180.0300  178.5330  141.6780 N   0  0  0  0  0  2  0  0  0  0  0  0
  181.7560  178.7440  140.3580 C   0  0  0  0  0  0  0  0  0  0  0  0
  182.1930  178.8180  141.6150 C   0  0  0  0  0  0  0  0  0  0  0  0
  186.1540  177.9160  145.8400 C   0  0  0  0  0  0  0  0  0  0  0  0
  186.1520  176.7650  145.3230 O   0  0  0  0  0  0  0  0  0  0  0  0
  185.5080  179.0010  145.1680 N   0  0  0  0  0  2  0  0  0  0  0  0
  188.3700  178.3200  148.8760 C   0  0  0  0  0  1  0  0  0  0  0  0
  186.7520  178.1550  147.1230 N   0  0  0  0  0  0  0  0  0  0  0  0
  187.9990  178.0000  147.4650 C   0  0  0  0  0  0  0  0  0  0  0  0
  189.0400  177.5320  146.4820 C   0  0  0  0  0  2  0  0  0  0  0  0
  189.9570  176.4440  147.0310 C   0  0  0  0  0  2  0  0  0  0  0  0
  191.4120  176.7790  146.7410 C   0  0  1  0  0  3  0  0  0  0  0  0
  192.3310  175.7200  147.3300 C   0  0  0  0  0  1  0  0  0  0  0  0
  191.7400  175.7200  144.4600 N   0  0  0  0  0  1  0  0  0  0  0  0
  191.6310  176.8890  145.2680 C   0  0  0  0  0  0  0  0  0  0  0  0
  191.7110  178.0260  144.7340 O   0  0  0  0  0  0  0  0  0  0  0  0
  181.5800  179.7470  137.2710 C   0  0  0  0  0  1  0  0  0  0  0  0
  182.2860  178.7160  137.9450 O   0  0  0  0  0  0  0  0  0  0  0  0
  184.9630  178.9620  138.5370 O   0  0  0  0  0  0  0  0  0  0  0  0
  185.7570  177.8780  138.0800 C   0  0  0  0  0  2  0  0  0  0  0  0
  186.6230  178.3420  136.9310 C   0  0  0  0  0  2  0  0  0  0  0  0
  188.0230  178.6270  137.4350 C   0  0  0  0  0  2  0  0  0  0  0  0
  188.6310  177.3430  137.9790 C   0  0  0  0  0  2  0  0  0  0  0  0
  189.5820  177.5910  139.1520 C   0  0  2  0  0  3  0  0  0  0  0  0
  190.5850  176.4540  139.2920 C   0  0  0  0  0  2  0  0  0  0  0  0
  190.6930  175.6790  137.9920 C   0  0  0  0  0  1  0  0  0  0  0  0
  188.8270  177.8330  140.4600 C   0  0  0  0  0  2  0  0  0  0  0  0
  189.6610  177.4140  141.6620 C   0  0  0  0  0  2  0  0  0  0  0  0
  188.8410  176.5670  142.6180 C   0  0  0  0  0  1  0  0  0  0  0  0
  1  3  1  0  0  0  0
  2  5  1  0  0  0  0
  2  6  1  0  0  0  0
  3  5  2  0  0  0  0
  4 11  1  0  0  0  0
  5 18  1  0  0  0  0
  7  6  2  0  0  0  0
  8  2  2  0  0  0  0
  9  7  1  0  0  0  0
 10 13  1  0  0  0  0
 11  1  2  0  0  0  0
 11  8  1  0  0  0  0
 12  4  2  0  0  0  0
 12 14  1  0  0  0  0
 13  9  1  0  0  0  0
 14 10  2  0  0  0  0
 14 15  1  0  0  0  0
 15  8  1  0  0  0  0
 15  9  2  0  0  0  0
 16 20  1  0  0  0  0
 17 16  2  0  0  0  0
 18 16  1  0  0  0  0
 20 21  2  0  0  0  0
 21 19  1  0  0  0  0
 22 23  1  0  0  0  0
 22 21  1  0  0  0  0
 24 23  1  0  0  0  0
 24 25  1  6  0  0  0
 26 27  1  0  0  0  0
 27 24  1  0  0  0  0
 28 27  2  0  0  0  0
 29 30  1  0  0  0  0
 30 12  1  0  0  0  0
 31  4  1  0  0  0  0
 32 31  1  0  0  0  0
 33 34  1  0  0  0  0
 33 32  1  0  0  0  0
 34 35  1  0  0  0  0
 36 35  1  6  0  0  0
 36 37  1  0  0  0  0
 36 39  1  0  0  0  0
 38 37  1  0  0  0  0
 39 40  1  0  0  0  0
 40 41  1  0  0  0  0
M  END
>  <MODEL>
5

>  <REMARK>
 VINA RESULT:      -8.0      2.125      7.858
  Name = 
  16 active torsions:
  status: ('A' for Active; 'I' for Inactive)
    1  A    between atoms: C_4  and  C_25
    2  A    between atoms: C_4  and  C_41
    3  A    between atoms: C_5  and  C_36
    4  A    between atoms: C_7  and  C_27
    5  A    between atoms: C_8  and  C_15
    6  A    between atoms: C_8  and  C_40
    7  A    between atoms: C_9  and  C_27
    8  A    between atoms: C_9  and  C_41
    9  A    between atoms: C_12  and  O_17
   10  A    between atoms: C_13  and  N_29
   11  A    between atoms: C_15  and  C_23
   12  A    between atoms: C_16  and  N_24
   13  A    between atoms: O_17  and  C_25
   14  A    between atoms: C_27  and  C_36
   15  A    between atoms: O_28  and  C_32
   16  A    between atoms: C_33  and  C_40
                            x       y       z     vdW  Elec       q    Type
                         _______ _______ _______ _____ _____    ______ ____

>  <TORSDO>
F 16

$$$$
=
 OpenBabel11042413353D

 41 44  0  0  1  0  0  0  0  0999 V2000
  187.8370  178.1970  140.4550 C   0  0  0  0  0  3  0  0  0  0  0  0
  190.2980  176.9090  139.9040 C   0  0  0  0  0  0  0  0  0  0  0  0
  188.7040  177.8200  141.4980 C   0  0  0  0  0  3  0  0  0  0  0  0
  187.3500  178.3050  137.9840 C   0  0  0  0  0  0  0  0  0  0  0  0
  189.9200  177.1580  141.2420 C   0  0  0  0  0  0  0  0  0  0  0  0
  191.5560  176.3470  139.5200 C   0  0  0  0  0  3  0  0  0  0  0  0
  191.8880  176.1540  138.1460 C   0  0  0  0  0  3  0  0  0  0  0  0
  189.3950  177.2860  138.8890 C   0  0  0  0  0  0  0  0  0  0  0  0
  190.9270  176.5360  137.2030 C   0  0  0  0  0  0  0  0  0  0  0  0
  189.8060  177.0830  135.4240 N   0  0  0  0  0  0  0  0  0  0  0  0
  188.1640  177.9290  139.1190 C   0  0  0  0  0  0  0  0  0  0  0  0
  187.8210  178.0460  136.6540 C   0  0  0  0  0  0  0  0  0  0  0  0
  190.9590  176.5430  135.8510 N   0  0  0  0  0  0  0  0  0  0  0  0
  189.0670  177.4050  136.5160 C   0  0  0  0  0  0  0  0  0  0  0  0
  189.7610  177.0580  137.6010 C   0  0  2  0  0  3  0  0  0  0  0  0
  191.1840  177.7290  143.3710 C   0  0  0  0  0  0  0  0  0  0  0  0
  191.0810  178.9730  143.1850 O   0  0  0  0  0  0  0  0  0  0  0  0
  190.7570  176.8180  142.3550 N   0  0  0  0  0  2  0  0  0  0  0  0
  192.0020  176.2520  146.7540 C   0  0  0  0  0  1  0  0  0  0  0  0
  191.7690  177.2020  144.5710 N   0  0  0  0  0  0  0  0  0  0  0  0
  191.1560  176.7500  145.6280 C   0  0  0  0  0  0  0  0  0  0  0  0
  189.6530  176.7130  145.7190 C   0  0  0  0  0  2  0  0  0  0  0  0
  189.0420  177.9760  146.3140 C   0  0  0  0  0  2  0  0  0  0  0  0
  187.8740  177.6250  147.2230 C   0  0  1  0  0  3  0  0  0  0  0  0
  188.0370  178.2850  148.5830 C   0  0  0  0  0  1  0  0  0  0  0  0
  185.8040  179.0900  147.1770 N   0  0  0  0  0  1  0  0  0  0  0  0
  186.5880  178.0510  146.5960 C   0  0  0  0  0  0  0  0  0  0  0  0
  186.1970  177.4930  145.5380 O   0  0  0  0  0  0  0  0  0  0  0  0
  186.2820  177.5360  134.7670 C   0  0  0  0  0  1  0  0  0  0  0  0
  187.0390  178.4400  135.5600 O   0  0  0  0  0  0  0  0  0  0  0  0
  186.1030  178.9400  138.1000 O   0  0  0  0  0  0  0  0  0  0  0  0
  184.8560  178.2780  138.2390 C   0  0  0  0  0  2  0  0  0  0  0  0
  183.9650  179.0810  139.1610 C   0  0  0  0  0  2  0  0  0  0  0  0
  184.5530  179.0860  140.5570 C   0  0  0  0  0  2  0  0  0  0  0  0
  183.7140  178.1900  141.4570 C   0  0  0  0  0  2  0  0  0  0  0  0
  182.5440  178.9340  142.1050 C   0  0  2  0  0  3  0  0  0  0  0  0
  182.5780  178.7900  143.6200 C   0  0  0  0  0  2  0  0  0  0  0  0
  183.7730  179.5240  144.1970 C   0  0  0  0  0  1  0  0  0  0  0  0
  181.1970  178.4910  141.5310 C   0  0  0  0  0  2  0  0  0  0  0  0
  180.3340  179.6920  141.1690 C   0  0  0  0  0  2  0  0  0  0  0  0
  180.3250  179.9150  139.6670 C   0  0  0  0  0  1  0  0  0  0  0  0
  1  3  1  0  0  0  0
  2  5  1  0  0  0  0
  4 31  1  0  0  0  0
  4 11  1  0  0  0  0
  5  3  2  0  0  0  0
  5 18  1  0  0  0  0
  6  2  1  0  0  0  0
  7  6  2  0  0  0  0
  8 11  1  0  0  0  0
  8  2  2  0  0  0  0
  9 15  1  0  0  0  0
  9  7  1  0  0  0  0
 10 13  1  0  0  0  0
 10 14  2  0  0  0  0
 11  1  2  0  0  0  0
 12  4  2  0  0  0  0
 13  9  2  0  0  0  0
 14 12  1  0  0  0  0
 15 14  1  6  0  0  0
 15  8  1  0  0  0  0
 16 20  1  0  0  0  0
 17 16  2  0  0  0  0
 18 16  1  0  0  0  0
 20 21  2  0  0  0  0
 21 22  1  0  0  0  0
 21 19  1  0  0  0  0
 22 23  1  0  0  0  0
 23 24  1  0  0  0  0
 24 25  1  1  0  0  0
 27 26  1  0  0  0  0
 27 24  1  0  0  0  0
 28 27  2  0  0  0  0
 29 30  1  0  0  0  0
 30 12  1  0  0  0  0
 31 32  1  0  0  0  0
 32 33  1  0  0  0  0
 33 34  1  0  0  0  0
 34 35  1  0  0  0  0
 36 35  1  6  0  0  0
 36 37  1  0  0  0  0
 37 38  1  0  0  0  0
 39 36  1  0  0  0  0
 40 39  1  0  0  0  0
 41 40  1  0  0  0  0
M  END
>  <MODEL>
6

>  <REMARK>
 VINA RESULT:      -7.8      2.284      9.416
  Name = 
  16 active torsions:
  status: ('A' for Active; 'I' for Inactive)
    1  A    between atoms: C_4  and  C_25
    2  A    between atoms: C_4  and  C_41
    3  A    between atoms: C_5  and  C_36
    4  A    between atoms: C_7  and  C_27
    5  A    between atoms: C_8  and  C_15
    6  A    between atoms: C_8  and  C_40
    7  A    between atoms: C_9  and  C_27
    8  A    between atoms: C_9  and  C_41
    9  A    between atoms: C_12  and  O_17
   10  A    between atoms: C_13  and  N_29
   11  A    between atoms: C_15  and  C_23
   12  A    between atoms: C_16  and  N_24
   13  A    between atoms: O_17  and  C_25
   14  A    between atoms: C_27  and  C_36
   15  A    between atoms: O_28  and  C_32
   16  A    between atoms: C_33  and  C_40
                            x       y       z     vdW  Elec       q    Type
                         _______ _______ _______ _____ _____    ______ ____

>  <TORSDO>
F 16

$$$$
=
 OpenBabel11042413353D

 41 44  0  0  1  0  0  0  0  0999 V2000
  187.5290  178.3880  141.9900 C   0  0  0  0  0  3  0  0  0  0  0  0
  186.3010  178.4780  139.4400 C   0  0  0  0  0  0  0  0  0  0  0  0
  186.1920  178.8040  141.8460 C   0  0  0  0  0  3  0  0  0  0  0  0
  189.6590  177.5590  140.9250 C   0  0  0  0  0  0  0  0  0  0  0  0
  185.5750  178.8760  140.5840 C   0  0  0  0  0  0  0  0  0  0  0  0
  185.7440  178.4020  138.1240 C   0  0  0  0  0  3  0  0  0  0  0  0
  186.5270  177.9570  137.0180 C   0  0  0  0  0  3  0  0  0  0  0  0
  187.6430  178.0840  139.6220 C   0  0  1  0  0  3  0  0  0  0  0  0
  187.8560  177.6060  137.2820 C   0  0  0  0  0  0  0  0  0  0  0  0
  189.8960  176.8610  137.2470 N   0  0  0  0  0  0  0  0  0  0  0  0
  188.2910  178.0250  140.8710 C   0  0  0  0  0  0  0  0  0  0  0  0
  190.3180  177.1410  139.7220 C   0  0  0  0  0  0  0  0  0  0  0  0
  188.8180  177.0960  136.4810 N   0  0  0  0  0  0  0  0  0  0  0  0
  189.5920  177.2280  138.5170 C   0  0  0  0  0  0  0  0  0  0  0  0
  188.3410  177.6900  138.5260 C   0  0  0  0  0  0  0  0  0  0  0  0
  183.0760  178.4160  140.5400 C   0  0  0  0  0  0  0  0  0  0  0  0
  183.2330  177.1830  140.3230 O   0  0  0  0  0  0  0  0  0  0  0  0
  184.2050  179.2940  140.5180 N   0  0  0  0  0  2  0  0  0  0  0  0
  179.7410  180.1940  140.4350 C   0  0  0  0  0  1  0  0  0  0  0  0
  181.7720  178.9740  140.7620 N   0  0  0  0  0  0  0  0  0  0  0  0
  181.0860  179.7450  139.9670 C   0  0  0  0  0  0  0  0  0  0  0  0
  181.6110  180.1640  138.6180 C   0  0  0  0  0  2  0  0  0  0  0  0
  181.7800  181.6710  138.4660 C   0  0  0  0  0  2  0  0  0  0  0  0
  181.0950  182.1580  137.1980 C   0  0  1  0  0  3  0  0  0  0  0  0
  179.8660  181.3150  136.8980 C   0  0  0  0  0  1  0  0  0  0  0  0
  181.5580  184.6260  136.8390 N   0  0  0  0  0  1  0  0  0  0  0  0
  180.7120  183.5940  137.3400 C   0  0  0  0  0  0  0  0  0  0  0  0
  179.6250  183.8950  137.8990 O   0  0  0  0  0  0  0  0  0  0  0  0
  192.7760  177.5070  139.8140 C   0  0  0  0  0  1  0  0  0  0  0  0
  191.6340  176.6640  139.7880 O   0  0  0  0  0  0  0  0  0  0  0  0
  190.4010  177.4690  142.1140 O   0  0  0  0  0  0  0  0  0  0  0  0
  190.5810  176.2890  142.8820 C   0  0  0  0  0  2  0  0  0  0  0  0
  190.9900  176.6660  144.2890 C   0  0  0  0  0  2  0  0  0  0  0  0
  190.0700  177.7500  144.8120 C   0  0  0  0  0  2  0  0  0  0  0  0
  189.0130  177.1200  145.7070 C   0  0  0  0  0  2  0  0  0  0  0  0
  187.9450  178.1220  146.1540 C   0  0  2  0  0  3  0  0  0  0  0  0
  187.9430  178.2780  147.6680 C   0  0  0  0  0  2  0  0  0  0  0  0
  188.1610  176.9360  148.3410 C   0  0  0  0  0  1  0  0  0  0  0  0
  186.5580  177.7510  145.6280 C   0  0  0  0  0  2  0  0  0  0  0  0
  185.6670  178.9810  145.5150 C   0  0  0  0  0  2  0  0  0  0  0  0
  184.2230  178.6300  145.8260 C   0  0  0  0  0  1  0  0  0  0  0  0
  2  8  1  0  0  0  0
  2  5  1  0  0  0  0
  3  1  1  0  0  0  0
  4 31  1  0  0  0  0
  5  3  2  0  0  0  0
  6  2  2  0  0  0  0
  7  9  2  0  0  0  0
  7  6  1  0  0  0  0
  8 15  1  1  0  0  0
  8 11  1  0  0  0  0
  9 15  1  0  0  0  0
 10 14  1  0  0  0  0
 11  4  1  0  0  0  0
 11  1  2  0  0  0  0
 12 30  1  0  0  0  0
 12  4  2  0  0  0  0
 13 10  2  0  0  0  0
 13  9  1  0  0  0  0
 14 15  2  0  0  0  0
 14 12  1  0  0  0  0
 16 20  1  0  0  0  0
 17 16  2  0  0  0  0
 18 16  1  0  0  0  0
 18  5  1  0  0  0  0
 21 19  1  0  0  0  0
 21 20  2  0  0  0  0
 22 21  1  0  0  0  0
 23 22  1  0  0  0  0
 24 25  1  1  0  0  0
 24 27  1  0  0  0  0
 24 23  1  0  0  0  0
 26 27  1  0  0  0  0
 27 28  2  0  0  0  0
 30 29  1  0  0  0  0
 31 32  1  0  0  0  0
 32 33  1  0  0  0  0
 33 34  1  0  0  0  0
 34 35  1  0  0  0  0
 35 36  1  0  0  0  0
 36 39  1  1  0  0  0
 36 37  1  0  0  0  0
 37 38  1  0  0  0  0
 40 39  1  0  0  0  0
 40 41  1  0  0  0  0
M  END
>  <MODEL>
7

>  <REMARK>
 VINA RESULT:      -7.7      2.834      6.985
  Name = 
  16 active torsions:
  status: ('A' for Active; 'I' for Inactive)
    1  A    between atoms: C_4  and  C_25
    2  A    between atoms: C_4  and  C_41
    3  A    between atoms: C_5  and  C_36
    4  A    between atoms: C_7  and  C_27
    5  A    between atoms: C_8  and  C_15
    6  A    between atoms: C_8  and  C_40
    7  A    between atoms: C_9  and  C_27
    8  A    between atoms: C_9  and  C_41
    9  A    between atoms: C_12  and  O_17
   10  A    between atoms: C_13  and  N_29
   11  A    between atoms: C_15  and  C_23
   12  A    between atoms: C_16  and  N_24
   13  A    between atoms: O_17  and  C_25
   14  A    between atoms: C_27  and  C_36
   15  A    between atoms: O_28  and  C_32
   16  A    between atoms: C_33  and  C_40
                            x       y       z     vdW  Elec       q    Type
                         _______ _______ _______ _____ _____    ______ ____

>  <TORSDO>
F 16

$$$$
=
 OpenBabel11042413353D

 41 44  0  0  1  0  0  0  0  0999 V2000
  185.8040  178.8270  141.3540 C   0  0  0  0  0  3  0  0  0  0  0  0
  183.6850  178.7720  143.2300 C   0  0  0  0  0  0  0  0  0  0  0  0
  186.0640  178.7580  142.7350 C   0  0  0  0  0  3  0  0  0  0  0  0
  184.1260  178.9320  139.4750 C   0  0  0  0  0  0  0  0  0  0  0  0
  185.0230  178.7530  143.6820 C   0  0  0  0  0  0  0  0  0  0  0  0
  182.5480  178.6570  144.0920 C   0  0  0  0  0  3  0  0  0  0  0  0
  181.2220  178.6490  143.5640 C   0  0  0  0  0  3  0  0  0  0  0  0
  183.4650  178.8590  141.8400 C   0  0  0  0  0  0  0  0  0  0  0  0
  181.0920  178.7620  142.1760 C   0  0  0  0  0  0  0  0  0  0  0  0
  180.4310  178.7940  140.1060 N   0  0  0  0  0  0  0  0  0  0  0  0
  184.4890  178.8880  140.8750 C   0  0  0  0  0  0  0  0  0  0  0  0
  182.7430  178.9160  139.0960 C   0  0  0  0  0  0  0  0  0  0  0  0
  180.0010  178.7210  141.3770 N   0  0  0  0  0  0  0  0  0  0  0  0
  181.7850  178.8800  140.1290 C   0  0  0  0  0  0  0  0  0  0  0  0
  182.1790  178.8670  141.4030 C   0  0  2  0  0  3  0  0  0  0  0  0
  186.2880  177.7280  145.6320 C   0  0  0  0  0  0  0  0  0  0  0  0
  186.6420  176.7170  144.9660 O   0  0  0  0  0  0  0  0  0  0  0  0
  185.3650  178.6650  145.0710 N   0  0  0  0  0  2  0  0  0  0  0  0
  188.2120  178.2550  148.8440 C   0  0  0  0  0  1  0  0  0  0  0  0
  186.7560  177.9370  146.9730 N   0  0  0  0  0  0  0  0  0  0  0  0
  187.9880  178.0370  147.3830 C   0  0  0  0  0  0  0  0  0  0  0  0
  189.1520  177.9520  146.4300 C   0  0  0  0  0  2  0  0  0  0  0  0
  189.8440  176.5950  146.4260 C   0  0  0  0  0  2  0  0  0  0  0  0
  191.3410  176.7610  146.2070 C   0  0  1  0  0  3  0  0  0  0  0  0
  192.1070  175.6270  146.8710 C   0  0  0  0  0  1  0  0  0  0  0  0
  191.6790  175.6010  143.9770 N   0  0  0  0  0  1  0  0  0  0  0  0
  191.6460  176.8000  144.7460 C   0  0  0  0  0  0  0  0  0  0  0  0
  191.8670  177.9060  144.1870 O   0  0  0  0  0  0  0  0  0  0  0  0
  181.7550  177.8540  137.0760 C   0  0  0  0  0  1  0  0  0  0  0  0
  182.4020  178.9310  137.7380 O   0  0  0  0  0  0  0  0  0  0  0  0
  185.0650  178.9740  138.4310 O   0  0  0  0  0  0  0  0  0  0  0  0
  185.4290  177.8740  137.6110 C   0  0  0  0  0  2  0  0  0  0  0  0
  186.8210  177.4130  137.9820 C   0  0  0  0  0  2  0  0  0  0  0  0
  187.7290  178.6160  138.1380 C   0  0  0  0  0  2  0  0  0  0  0  0
  189.1740  178.1470  138.2080 C   0  0  0  0  0  2  0  0  0  0  0  0
  189.4570  177.2890  139.4430 C   0  0  2  0  0  3  0  0  0  0  0  0
  189.1370  178.0490  140.7220 C   0  0  0  0  0  2  0  0  0  0  0  0
  189.1860  177.1200  141.9200 C   0  0  0  0  0  1  0  0  0  0  0  0
  190.8920  176.7570  139.4540 C   0  0  0  0  0  2  0  0  0  0  0  0
  191.1790  175.9270  138.2100 C   0  0  0  0  0  2  0  0  0  0  0  0
  192.4760  176.3700  137.5550 C   0  0  0  0  0  1  0  0  0  0  0  0
  1  3  1  0  0  0  0
  2  5  1  0  0  0  0
  2  6  1  0  0  0  0
  3  5  2  0  0  0  0
  4 11  1  0  0  0  0
  5 18  1  0  0  0  0
  7  6  2  0  0  0  0
  8  2  2  0  0  0  0
  9  7  1  0  0  0  0
 10 14  2  0  0  0  0
 10 13  1  0  0  0  0
 11  1  2  0  0  0  0
 11  8  1  0  0  0  0
 12  4  2  0  0  0  0
 12 14  1  0  0  0  0
 13  9  2  0  0  0  0
 15 14  1  6  0  0  0
 15  8  1  0  0  0  0
 15  9  1  0  0  0  0
 16 20  1  0  0  0  0
 17 16  2  0  0  0  0
 18 16  1  0  0  0  0
 20 21  2  0  0  0  0
 21 19  1  0  0  0  0
 22 21  1  0  0  0  0
 23 22  1  0  0  0  0
 24 23  1  0  0  0  0
 24 25  1  6  0  0  0
 26 27  1  0  0  0  0
 27 24  1  0  0  0  0
 28 27  2  0  0  0  0
 29 30  1  0  0  0  0
 30 12  1  0  0  0  0
 31  4  1  0  0  0  0
 32 33  1  0  0  0  0
 32 31  1  0  0  0  0
 33 34  1  0  0  0  0
 34 35  1  0  0  0  0
 36 35  1  6  0  0  0
 36 39  1  0  0  0  0
 36 37  1  0  0  0  0
 37 38  1  0  0  0  0
 40 39  1  0  0  0  0
 41 40  1  0  0  0  0
M  END
>  <MODEL>
8

>  <REMARK>
 VINA RESULT:      -7.7      2.063      7.724
  Name = 
  16 active torsions:
  status: ('A' for Active; 'I' for Inactive)
    1  A    between atoms: C_4  and  C_25
    2  A    between atoms: C_4  and  C_41
    3  A    between atoms: C_5  and  C_36
    4  A    between atoms: C_7  and  C_27
    5  A    between atoms: C_8  and  C_15
    6  A    between atoms: C_8  and  C_40
    7  A    between atoms: C_9  and  C_27
    8  A    between atoms: C_9  and  C_41
    9  A    between atoms: C_12  and  O_17
   10  A    between atoms: C_13  and  N_29
   11  A    between atoms: C_15  and  C_23
   12  A    between atoms: C_16  and  N_24
   13  A    between atoms: O_17  and  C_25
   14  A    between atoms: C_27  and  C_36
   15  A    between atoms: O_28  and  C_32
   16  A    between atoms: C_33  and  C_40
                            x       y       z     vdW  Elec       q    Type
                         _______ _______ _______ _____ _____    ______ ____

>  <TORSDO>
F 16

$$$$
=
 OpenBabel11042413353D

 41 44  0  0  1  0  0  0  0  0999 V2000
  190.7840  176.7670  138.9630 C   0  0  0  0  0  3  0  0  0  0  0  0
  189.1730  177.4050  141.2020 C   0  0  0  0  0  0  0  0  0  0  0  0
  191.2190  176.4810  140.2700 C   0  0  0  0  0  3  0  0  0  0  0  0
  189.0080  177.6970  137.4320 C   0  0  0  0  0  0  0  0  0  0  0  0
  190.4400  176.8120  141.3940 C   0  0  0  0  0  0  0  0  0  0  0  0
  188.2500  177.6830  142.2600 C   0  0  0  0  0  3  0  0  0  0  0  0
  186.9700  178.2520  141.9900 C   0  0  0  0  0  3  0  0  0  0  0  0
  188.7800  177.6920  139.8790 C   0  0  0  0  0  0  0  0  0  0  0  0
  186.6680  178.5260  140.6520 C   0  0  0  0  0  0  0  0  0  0  0  0
  185.7430  178.9990  138.7430 N   0  0  0  0  0  0  0  0  0  0  0  0
  189.5490  177.3910  138.7390 C   0  0  0  0  0  0  0  0  0  0  0  0
  187.6990  178.2690  137.3190 C   0  0  0  0  0  0  0  0  0  0  0  0
  185.5400  178.9950  140.0710 N   0  0  0  0  0  2  0  0  0  0  0  0
  186.9970  178.5320  138.5120 C   0  0  0  0  0  0  0  0  0  0  0  0
  187.5570  178.2520  139.6900 C   0  0  0  0  0  0  0  0  0  0  0  0
  191.4270  177.4180  143.6560 C   0  0  0  0  0  0  0  0  0  0  0  0
  191.7140  178.5930  143.2980 O   0  0  0  0  0  0  0  0  0  0  0  0
  190.9430  176.4760  142.6950 N   0  0  0  0  0  2  0  0  0  0  0  0
  191.2900  176.6390  147.3530 C   0  0  0  0  0  1  0  0  0  0  0  0
  191.6240  176.9830  145.0100 N   0  0  0  0  0  0  0  0  0  0  0  0
  190.8590  177.2060  146.0410 C   0  0  0  0  0  0  0  0  0  0  0  0
  189.5770  177.9900  145.9240 C   0  0  0  0  0  2  0  0  0  0  0  0
  188.3280  177.1190  145.8650 C   0  0  0  0  0  2  0  0  0  0  0  0
  187.3560  177.5070  146.9700 C   0  0  1  0  0  3  0  0  0  0  0  0
  188.0900  178.1990  148.1080 C   0  0  0  0  0  1  0  0  0  0  0  0
  185.6820  179.3920  147.2510 N   0  0  0  0  0  1  0  0  0  0  0  0
  186.2910  178.4000  146.4270 C   0  0  0  0  0  0  0  0  0  0  0  0
  185.9320  178.2820  145.2260 O   0  0  0  0  0  0  0  0  0  0  0  0
  186.2360  177.6940  135.3910 C   0  0  0  0  0  1  0  0  0  0  0  0
  187.1720  178.5360  136.0490 O   0  0  0  0  0  0  0  0  0  0  0  0
  189.6940  177.4480  136.2320 O   0  0  0  0  0  0  0  0  0  0  0  0
  189.5630  176.2760  135.4420 C   0  0  0  0  0  2  0  0  0  0  0  0
  190.8710  175.5170  135.4530 C   0  0  0  0  0  2  0  0  0  0  0  0
  190.8370  174.4630  136.5410 C   0  0  0  0  0  2  0  0  0  0  0  0
  192.2090  173.8170  136.6560 C   0  0  0  0  0  2  0  0  0  0  0  0
  193.3490  174.8350  136.5760 C   0  0  2  0  0  3  0  0  0  0  0  0
  194.4050  174.3940  135.5720 C   0  0  0  0  0  2  0  0  0  0  0  0
  195.1010  175.6000  134.9680 C   0  0  0  0  0  1  0  0  0  0  0  0
  193.9650  175.1130  137.9480 C   0  0  0  0  0  2  0  0  0  0  0  0
  195.0330  174.0830  138.2890 C   0  0  0  0  0  2  0  0  0  0  0  0
  195.8370  174.5230  139.5000 C   0  0  0  0  0  1  0  0  0  0  0  0
  1  3  1  0  0  0  0
  2  5  1  0  0  0  0
  2  6  1  0  0  0  0
  3  5  2  0  0  0  0
  4 11  1  0  0  0  0
  5 18  1  0  0  0  0
  7  6  2  0  0  0  0
  8  2  2  0  0  0  0
  9  7  1  0  0  0  0
 10 13  1  0  0  0  0
 11  1  2  0  0  0  0
 11  8  1  0  0  0  0
 12  4  2  0  0  0  0
 12 14  1  0  0  0  0
 13  9  1  0  0  0  0
 14 10  2  0  0  0  0
 14 15  1  0  0  0  0
 15  8  1  0  0  0  0
 15  9  2  0  0  0  0
 16 20  1  0  0  0  0
 17 16  2  0  0  0  0
 18 16  1  0  0  0  0
 20 21  2  0  0  0  0
 21 19  1  0  0  0  0
 22 21  1  0  0  0  0
 23 22  1  0  0  0  0
 23 24  1  0  0  0  0
 24 25  1  1  0  0  0
 27 24  1  0  0  0  0
 27 26  1  0  0  0  0
 28 27  2  0  0  0  0
 29 30  1  0  0  0  0
 30 12  1  0  0  0  0
 31  4  1  0  0  0  0
 32 33  1  0  0  0  0
 32 31  1  0  0  0  0
 33 34  1  0  0  0  0
 34 35  1  0  0  0  0
 36 37  1  6  0  0  0
 36 35  1  0  0  0  0
 36 39  1  0  0  0  0
 38 37  1  0  0  0  0
 39 40  1  0  0  0  0
 40 41  1  0  0  0  0
M  END
>  <MODEL>
9

>  <REMARK>
 VINA RESULT:      -7.7      2.367      7.862
  Name = 
  16 active torsions:
  status: ('A' for Active; 'I' for Inactive)
    1  A    between atoms: C_4  and  C_25
    2  A    between atoms: C_4  and  C_41
    3  A    between atoms: C_5  and  C_36
    4  A    between atoms: C_7  and  C_27
    5  A    between atoms: C_8  and  C_15
    6  A    between atoms: C_8  and  C_40
    7  A    between atoms: C_9  and  C_27
    8  A    between atoms: C_9  and  C_41
    9  A    between atoms: C_12  and  O_17
   10  A    between atoms: C_13  and  N_29
   11  A    between atoms: C_15  and  C_23
   12  A    between atoms: C_16  and  N_24
   13  A    between atoms: O_17  and  C_25
   14  A    between atoms: C_27  and  C_36
   15  A    between atoms: O_28  and  C_32
   16  A    between atoms: C_33  and  C_40
                            x       y       z     vdW  Elec       q    Type
                         _______ _______ _______ _____ _____    ______ ____

>  <TORSDO>
F 16

$$$$
