=
 OpenBabel11032419483D

 27 32  0  0  1  0  0  0  0  0999 V2000
  189.2890  176.8850  145.4490 O   0  0  0  0  0  0  0  0  0  0  0  0
  189.1270  178.1160  147.6160 C   0  0  0  0  0  2  0  0  0  0  0  0
  188.4590  176.7540  147.7150 C   0  0  0  0  0  2  0  0  0  0  0  0
  188.4590  177.5020  146.3980 C   0  0  0  0  0  0  0  0  0  0  0  0
  183.7480  178.5480  142.6040 C   0  0  0  0  0  3  0  0  0  0  0  0
  187.0940  177.9570  145.9780 C   0  0  0  0  0  0  0  0  0  0  0  0
  184.5190  178.7150  145.2640 C   0  0  0  0  0  0  0  0  0  0  0  0
  182.8380  179.0140  143.5580 C   0  0  0  0  0  3  0  0  0  0  0  0
  183.2280  179.0970  144.8960 C   0  0  0  0  0  3  0  0  0  0  0  0
  185.0040  178.1780  142.9760 N   0  0  0  0  0  0  0  0  0  0  0  0
  184.9200  178.7820  146.5610 N   0  0  0  0  0  0  0  0  0  0  0  0
  186.6970  177.8670  144.6390 C   0  0  0  0  0  3  0  0  0  0  0  0
  185.4070  178.2510  144.2730 C   0  0  0  0  0  0  0  0  0  0  0  0
  186.1750  178.4120  146.9340 C   0  0  0  0  0  3  0  0  0  0  0  0
  191.5780  176.8930  145.3920 O   0  0  0  0  0  1  0  0  0  0  0  0
  190.4330  177.6890  145.3210 C   0  0  1  0  0  3  0  0  0  0  0  0
  190.4050  178.4750  144.0110 C   0  0  0  0  0  2  0  0  0  0  0  0
  191.2710  177.3670  141.9080 C   0  0  0  0  0  2  0  0  0  0  0  0
  191.0250  176.9520  139.2470 C   0  0  2  0  0  3  0  0  0  0  0  0
  188.8380  178.2400  142.0550 C   0  0  0  0  0  2  0  0  0  0  0  0
  190.7210  176.6680  140.6860 C   0  0  2  0  0  3  0  0  0  0  0  0
  190.0390  177.6050  142.8170 C   0  0  2  0  0  3  0  0  0  0  0  0
  190.0940  177.8860  139.9980 C   0  0  2  0  0  3  0  0  0  0  0  0
  188.7130  177.7240  140.6000 C   0  0  0  0  0  2  0  0  0  0  0  0
  189.8300  176.7640  137.0950 C   0  0  0  0  0  2  0  0  0  0  0  0
  190.2210  176.0240  138.3570 C   0  0  0  0  0  3  0  0  0  0  0  0
  190.9840  175.7870  137.0700 C   0  0  0  0  0  2  0  0  0  0  0  0
  1  4  1  0  0  0  0
  2  3  1  0  0  0  0
  4  2  1  0  0  0  0
  4  3  1  0  0  0  0
  5 10  2  0  0  0  0
  5  8  1  0  0  0  0
  6  4  1  0  0  0  0
  6 14  1  0  0  0  0
  7 11  1  0  0  0  0
  8  9  2  0  0  0  0
  9  7  1  0  0  0  0
 10 13  1  0  0  0  0
 11 14  2  0  0  0  0
 12  6  2  0  0  0  0
 13 12  1  0  0  0  0
 13  7  2  0  0  0  0
 16 15  1  6  0  0  0
 16  1  1  0  0  0  0
 17 16  1  0  0  0  0
 18 22  1  0  0  0  0
 19 26  1  6  0  0  0
 19 23  1  0  0  0  0
 19 21  1  0  0  0  0
 20 22  1  0  0  0  0
 21 18  1  1  0  0  0
 22 17  1  1  0  0  0
 23 24  1  6  0  0  0
 23 21  1  0  0  0  0
 24 20  1  0  0  0  0
 25 26  1  0  0  0  0
 27 25  1  0  0  0  0
 27 26  1  0  0  0  0
M  END
>  <MODEL>
1

>  <REMARK>
 VINA RESULT:      -9.1      0.000      0.000
  Name = 
  6 active torsions:
  status: ('A' for Active; 'I' for Inactive)
    1  A    between atoms: C_2  and  C_14
    2  A    between atoms: C_2  and  C_23
    3  A    between atoms: C_3  and  C_24
    4  A    between atoms: C_8  and  C_9
    5  A    between atoms: O_16  and  C_23
    6  A    between atoms: O_16  and  C_24
                            x       y       z     vdW  Elec       q    Type
                         _______ _______ _______ _____ _____    ______ ____

>  <TORSDO>
F 6

$$$$
=
 OpenBabel11032419483D

 27 32  0  0  1  0  0  0  0  0999 V2000
  185.1930  177.8180  144.6370 O   0  0  0  0  0  0  0  0  0  0  0  0
  184.8160  179.7970  143.1610 C   0  0  0  0  0  2  0  0  0  0  0  0
  184.1840  178.5480  142.5660 C   0  0  0  0  0  2  0  0  0  0  0  0
  185.4420  178.4340  143.4010 C   0  0  0  0  0  0  0  0  0  0  0  0
  189.4390  178.3870  138.7420 C   0  0  0  0  0  3  0  0  0  0  0  0
  186.6400  178.0040  142.6070 C   0  0  0  0  0  0  0  0  0  0  0  0
  188.9250  177.2510  141.2200 C   0  0  0  0  0  0  0  0  0  0  0  0
  190.3300  177.4450  139.2680 C   0  0  0  0  0  3  0  0  0  0  0  0
  190.0690  176.8750  140.5150 C   0  0  0  0  0  3  0  0  0  0  0  0
  188.3270  178.7450  139.4400 N   0  0  0  0  0  0  0  0  0  0  0  0
  188.6520  176.7130  142.4380 N   0  0  0  0  0  0  0  0  0  0  0  0
  186.9080  178.5800  141.3600 C   0  0  0  0  0  3  0  0  0  0  0  0
  188.0510  178.2020  140.6560 C   0  0  0  0  0  0  0  0  0  0  0  0
  187.5410  177.0700  143.1380 C   0  0  0  0  0  3  0  0  0  0  0  0
  183.5750  179.0400  145.7000 O   0  0  0  0  0  1  0  0  0  0  0  0
  184.9490  178.8440  145.5640 C   0  0  1  0  0  3  0  0  0  0  0  0
  185.5810  178.5200  146.9170 C   0  0  0  0  0  2  0  0  0  0  0  0
  187.6350  177.2410  146.1780 C   0  0  0  0  0  2  0  0  0  0  0  0
  190.0430  176.1800  146.8000 C   0  0  2  0  0  3  0  0  0  0  0  0
  187.6750  178.7230  148.3010 C   0  0  0  0  0  2  0  0  0  0  0  0
  189.1330  177.2900  146.3740 C   0  0  2  0  0  3  0  0  0  0  0  0
  187.1020  178.5240  146.8660 C   0  0  2  0  0  3  0  0  0  0  0  0
  189.1780  176.8610  147.8450 C   0  0  2  0  0  3  0  0  0  0  0  0
  189.1470  178.2600  148.4270 C   0  0  0  0  0  2  0  0  0  0  0  0
  192.1840  175.9540  148.0090 C   0  0  0  0  0  2  0  0  0  0  0  0
  191.4680  176.6900  146.8960 C   0  0  0  0  0  3  0  0  0  0  0  0
  192.4220  175.5600  146.5680 C   0  0  0  0  0  2  0  0  0  0  0  0
  1 16  1  0  0  0  0
  2  4  1  0  0  0  0
  3  2  1  0  0  0  0
  3  4  1  0  0  0  0
  4  1  1  0  0  0  0
  5  8  2  0  0  0  0
  5 10  1  0  0  0  0
  6 14  1  0  0  0  0
  6  4  1  0  0  0  0
  7 11  1  0  0  0  0
  8  9  1  0  0  0  0
  9  7  2  0  0  0  0
 10 13  2  0  0  0  0
 11 14  2  0  0  0  0
 12  6  2  0  0  0  0
 13  7  1  0  0  0  0
 13 12  1  0  0  0  0
 16 15  1  1  0  0  0
 16 17  1  0  0  0  0
 18 22  1  0  0  0  0
 19 26  1  1  0  0  0
 19 23  1  0  0  0  0
 20 24  1  0  0  0  0
 21 18  1  6  0  0  0
 21 19  1  0  0  0  0
 21 23  1  0  0  0  0
 22 17  1  1  0  0  0
 22 20  1  0  0  0  0
 23 24  1  1  0  0  0
 26 25  1  0  0  0  0
 27 26  1  0  0  0  0
 27 25  1  0  0  0  0
M  END
>  <MODEL>
2

>  <REMARK>
 VINA RESULT:      -8.4      2.475      6.726
  Name = 
  6 active torsions:
  status: ('A' for Active; 'I' for Inactive)
    1  A    between atoms: C_2  and  C_14
    2  A    between atoms: C_2  and  C_23
    3  A    between atoms: C_3  and  C_24
    4  A    between atoms: C_8  and  C_9
    5  A    between atoms: O_16  and  C_23
    6  A    between atoms: O_16  and  C_24
                            x       y       z     vdW  Elec       q    Type
                         _______ _______ _______ _____ _____    ______ ____

>  <TORSDO>
F 6

$$$$
=
 OpenBabel11032419483D

 27 32  0  0  1  0  0  0  0  0999 V2000
  186.7540  177.1440  146.1040 O   0  0  0  0  0  0  0  0  0  0  0  0
  185.9190  179.3680  146.8740 C   0  0  0  0  0  2  0  0  0  0  0  0
  184.8280  178.3140  146.9770 C   0  0  0  0  0  2  0  0  0  0  0  0
  185.8740  178.2160  145.8870 C   0  0  0  0  0  0  0  0  0  0  0  0
  185.8910  178.6710  139.7650 C   0  0  0  0  0  3  0  0  0  0  0  0
  185.3130  178.4230  144.5110 C   0  0  0  0  0  0  0  0  0  0  0  0
  184.2160  178.7090  141.9760 C   0  0  0  0  0  0  0  0  0  0  0  0
  184.5130  178.8370  139.5850 C   0  0  0  0  0  3  0  0  0  0  0  0
  183.6730  178.8560  140.6990 C   0  0  0  0  0  3  0  0  0  0  0  0
  186.4080  178.5290  141.0150 N   0  0  0  0  0  0  0  0  0  0  0  0
  183.4170  178.7190  143.0750 N   0  0  0  0  0  0  0  0  0  0  0  0
  186.1520  178.3970  143.3920 C   0  0  0  0  0  3  0  0  0  0  0  0
  185.6080  178.5450  142.1160 C   0  0  0  0  0  0  0  0  0  0  0  0
  183.9320  178.5770  144.3270 C   0  0  0  0  0  3  0  0  0  0  0  0
  187.7960  177.2870  148.1380 O   0  0  0  0  0  1  0  0  0  0  0  0
  187.8630  177.6600  146.7950 C   0  0  1  0  0  3  0  0  0  0  0  0
  189.1700  177.1760  146.1690 C   0  0  0  0  0  2  0  0  0  0  0  0
  189.1250  176.5200  143.7260 C   0  0  0  0  0  2  0  0  0  0  0  0
  190.3680  176.4670  141.3250 C   0  0  2  0  0  3  0  0  0  0  0  0
  190.7460  178.3440  144.5900 C   0  0  0  0  0  2  0  0  0  0  0  0
  189.5240  177.0990  142.3890 C   0  0  2  0  0  3  0  0  0  0  0  0
  189.3500  177.6690  144.7400 C   0  0  2  0  0  3  0  0  0  0  0  0
  191.0450  177.0290  142.5620 C   0  0  2  0  0  3  0  0  0  0  0  0
  191.2130  178.4300  143.1170 C   0  0  0  0  0  2  0  0  0  0  0  0
  191.7420  177.0090  139.3470 C   0  0  0  0  0  2  0  0  0  0  0  0
  190.5350  177.4260  140.1620 C   0  0  0  0  0  3  0  0  0  0  0  0
  190.3490  176.6670  138.8640 C   0  0  0  0  0  2  0  0  0  0  0  0
  1 16  1  0  0  0  0
  2  3  1  0  0  0  0
  4  1  1  0  0  0  0
  4  2  1  0  0  0  0
  4  3  1  0  0  0  0
  5 10  1  0  0  0  0
  6  4  1  0  0  0  0
  7 13  1  0  0  0  0
  7 11  1  0  0  0  0
  8  5  2  0  0  0  0
  8  9  1  0  0  0  0
  9  7  2  0  0  0  0
 10 13  2  0  0  0  0
 11 14  2  0  0  0  0
 12  6  2  0  0  0  0
 13 12  1  0  0  0  0
 14  6  1  0  0  0  0
 16 15  1  1  0  0  0
 17 16  1  0  0  0  0
 18 22  1  0  0  0  0
 19 26  1  6  0  0  0
 19 21  1  0  0  0  0
 19 23  1  0  0  0  0
 20 22  1  0  0  0  0
 21 23  1  0  0  0  0
 21 18  1  1  0  0  0
 22 17  1  1  0  0  0
 23 24  1  6  0  0  0
 24 20  1  0  0  0  0
 25 26  1  0  0  0  0
 27 25  1  0  0  0  0
 27 26  1  0  0  0  0
M  END
>  <MODEL>
3

>  <REMARK>
 VINA RESULT:      -8.1      1.711      3.094
  Name = 
  6 active torsions:
  status: ('A' for Active; 'I' for Inactive)
    1  A    between atoms: C_2  and  C_14
    2  A    between atoms: C_2  and  C_23
    3  A    between atoms: C_3  and  C_24
    4  A    between atoms: C_8  and  C_9
    5  A    between atoms: O_16  and  C_23
    6  A    between atoms: O_16  and  C_24
                            x       y       z     vdW  Elec       q    Type
                         _______ _______ _______ _____ _____    ______ ____

>  <TORSDO>
F 6

$$$$
=
 OpenBabel11032419483D

 27 32  0  0  1  0  0  0  0  0999 V2000
  189.0590  178.3030  146.8230 O   0  0  0  0  0  0  0  0  0  0  0  0
  189.9800  176.0110  147.1930 C   0  0  0  0  0  2  0  0  0  0  0  0
  191.0890  177.0510  147.2140 C   0  0  0  0  0  2  0  0  0  0  0  0
  189.8700  177.2630  146.3410 C   0  0  0  0  0  0  0  0  0  0  0  0
  188.9030  177.9110  140.3140 C   0  0  0  0  0  3  0  0  0  0  0  0
  190.1790  177.2070  144.8750 C   0  0  0  0  0  0  0  0  0  0  0  0
  190.8290  177.1860  142.1750 C   0  0  0  0  0  0  0  0  0  0  0  0
  190.1790  177.5390  139.8780 C   0  0  0  0  0  3  0  0  0  0  0  0
  191.1460  177.1750  140.8160 C   0  0  0  0  0  3  0  0  0  0  0  0
  188.6060  177.9180  141.6420 N   0  0  0  0  0  0  0  0  0  0  0  0
  191.7550  176.8410  143.1070 N   0  0  0  0  0  0  0  0  0  0  0  0
  189.2140  177.5790  143.9320 C   0  0  0  0  0  3  0  0  0  0  0  0
  189.5320  177.5660  142.5750 C   0  0  0  0  0  0  0  0  0  0  0  0
  191.4610  176.8470  144.4350 C   0  0  0  0  0  3  0  0  0  0  0  0
  187.9930  177.4460  148.6590 O   0  0  0  0  0  1  0  0  0  0  0  0
  187.8750  177.7130  147.2940 C   0  0  1  0  0  3  0  0  0  0  0  0
  186.6710  178.6140  147.0260 C   0  0  0  0  0  2  0  0  0  0  0  0
  186.4440  178.3410  144.5210 C   0  0  0  0  0  2  0  0  0  0  0  0
  184.9700  178.6990  142.2830 C   0  0  2  0  0  3  0  0  0  0  0  0
  184.3650  178.7110  146.0190 C   0  0  0  0  0  2  0  0  0  0  0  0
  185.3860  177.9550  143.5140 C   0  0  2  0  0  3  0  0  0  0  0  0
  185.7880  178.0890  145.9030 C   0  0  2  0  0  3  0  0  0  0  0  0
  184.4990  179.1990  143.6370 C   0  0  2  0  0  3  0  0  0  0  0  0
  183.5690  178.6360  144.6930 C   0  0  0  0  0  2  0  0  0  0  0  0
  182.8550  178.9600  141.0370 C   0  0  0  0  0  2  0  0  0  0  0  0
  183.8470  177.9560  141.5860 C   0  0  0  0  0  3  0  0  0  0  0  0
  183.8590  178.3080  140.1120 C   0  0  0  0  0  2  0  0  0  0  0  0
  1 16  1  0  0  0  0
  2  3  1  0  0  0  0
  4  1  1  0  0  0  0
  4  2  1  0  0  0  0
  4  3  1  0  0  0  0
  5 10  1  0  0  0  0
  6  4  1  0  0  0  0
  7 13  1  0  0  0  0
  7 11  1  0  0  0  0
  8  5  2  0  0  0  0
  8  9  1  0  0  0  0
  9  7  2  0  0  0  0
 10 13  2  0  0  0  0
 11 14  2  0  0  0  0
 12  6  2  0  0  0  0
 13 12  1  0  0  0  0
 14  6  1  0  0  0  0
 16 15  1  1  0  0  0
 17 16  1  0  0  0  0
 18 22  1  0  0  0  0
 19 26  1  6  0  0  0
 19 21  1  0  0  0  0
 19 23  1  0  0  0  0
 21 23  1  0  0  0  0
 21 18  1  1  0  0  0
 22 20  1  0  0  0  0
 22 17  1  1  0  0  0
 23 24  1  6  0  0  0
 24 20  1  0  0  0  0
 25 26  1  0  0  0  0
 27 25  1  0  0  0  0
 27 26  1  0  0  0  0
M  END
>  <MODEL>
4

>  <REMARK>
 VINA RESULT:      -8.0      2.049      5.861
  Name = 
  6 active torsions:
  status: ('A' for Active; 'I' for Inactive)
    1  A    between atoms: C_2  and  C_14
    2  A    between atoms: C_2  and  C_23
    3  A    between atoms: C_3  and  C_24
    4  A    between atoms: C_8  and  C_9
    5  A    between atoms: O_16  and  C_23
    6  A    between atoms: O_16  and  C_24
                            x       y       z     vdW  Elec       q    Type
                         _______ _______ _______ _____ _____    ______ ____

>  <TORSDO>
F 6

$$$$
=
 OpenBabel11032419483D

 27 32  0  0  1  0  0  0  0  0999 V2000
  189.3780  178.6280  144.7980 O   0  0  0  0  0  0  0  0  0  0  0  0
  191.6330  177.5700  144.6210 C   0  0  0  0  0  2  0  0  0  0  0  0
  191.6450  178.9740  144.0390 C   0  0  0  0  0  2  0  0  0  0  0  0
  190.3890  178.1340  143.9590 C   0  0  0  0  0  0  0  0  0  0  0  0
  187.3510  178.2500  138.6260 C   0  0  0  0  0  3  0  0  0  0  0  0
  190.0350  177.7350  142.5570 C   0  0  0  0  0  0  0  0  0  0  0  0
  189.4800  177.0370  139.9270 C   0  0  0  0  0  0  0  0  0  0  0  0
  188.1220  177.2980  137.9490 C   0  0  0  0  0  3  0  0  0  0  0  0
  189.1930  176.6890  138.6060 C   0  0  0  0  0  3  0  0  0  0  0  0
  187.6420  178.5800  139.9130 N   0  0  0  0  0  0  0  0  0  0  0  0
  190.5200  176.4620  140.5850 N   0  0  0  0  0  0  0  0  0  0  0  0
  188.9670  178.3490  141.8940 C   0  0  0  0  0  3  0  0  0  0  0  0
  188.6790  177.9990  140.5740 C   0  0  0  0  0  0  0  0  0  0  0  0
  190.8130  176.7910  141.8730 C   0  0  0  0  0  3  0  0  0  0  0  0
  189.4960  176.7510  146.1030 O   0  0  0  0  0  1  0  0  0  0  0  0
  188.6680  177.5170  145.2810 C   0  0  1  0  0  3  0  0  0  0  0  0
  187.4160  177.9550  146.0400 C   0  0  0  0  0  2  0  0  0  0  0  0
  186.4430  177.8790  143.7060 C   0  0  0  0  0  2  0  0  0  0  0  0
  184.5920  178.7650  141.9450 C   0  0  2  0  0  3  0  0  0  0  0  0
  185.0620  178.7830  145.7010 C   0  0  0  0  0  2  0  0  0  0  0  0
  185.0850  177.8740  143.0430 C   0  0  2  0  0  3  0  0  0  0  0  0
  186.1450  177.7700  145.2230 C   0  0  2  0  0  3  0  0  0  0  0  0
  184.6810  179.3190  143.3560 C   0  0  2  0  0  3  0  0  0  0  0  0
  183.9510  179.0110  144.6480 C   0  0  0  0  0  2  0  0  0  0  0  0
  182.8100  178.9950  140.2520 C   0  0  0  0  0  2  0  0  0  0  0  0
  183.1520  178.4250  141.6130 C   0  0  0  0  0  3  0  0  0  0  0  0
  183.1240  177.5230  140.3950 C   0  0  0  0  0  2  0  0  0  0  0  0
  1 16  1  0  0  0  0
  3  2  1  0  0  0  0
  4  3  1  0  0  0  0
  4  2  1  0  0  0  0
  4  1  1  0  0  0  0
  5 10  1  0  0  0  0
  6  4  1  0  0  0  0
  7 13  1  0  0  0  0
  7 11  1  0  0  0  0
  8  9  1  0  0  0  0
  8  5  2  0  0  0  0
  9  7  2  0  0  0  0
 10 13  2  0  0  0  0
 11 14  2  0  0  0  0
 12  6  2  0  0  0  0
 13 12  1  0  0  0  0
 14  6  1  0  0  0  0
 16 17  1  0  0  0  0
 16 15  1  1  0  0  0
 18 22  1  0  0  0  0
 19 26  1  1  0  0  0
 19 21  1  0  0  0  0
 19 23  1  0  0  0  0
 21 23  1  0  0  0  0
 21 18  1  6  0  0  0
 22 20  1  0  0  0  0
 22 17  1  1  0  0  0
 23 24  1  1  0  0  0
 24 20  1  0  0  0  0
 25 27  1  0  0  0  0
 25 26  1  0  0  0  0
 27 26  1  0  0  0  0
M  END
>  <MODEL>
5

>  <REMARK>
 VINA RESULT:      -8.0      2.054      5.962
  Name = 
  6 active torsions:
  status: ('A' for Active; 'I' for Inactive)
    1  A    between atoms: C_2  and  C_14
    2  A    between atoms: C_2  and  C_23
    3  A    between atoms: C_3  and  C_24
    4  A    between atoms: C_8  and  C_9
    5  A    between atoms: O_16  and  C_23
    6  A    between atoms: O_16  and  C_24
                            x       y       z     vdW  Elec       q    Type
                         _______ _______ _______ _____ _____    ______ ____

>  <TORSDO>
F 6

$$$$
=
 OpenBabel11032419483D

 27 32  0  0  1  0  0  0  0  0999 V2000
  184.3860  177.9620  144.5990 O   0  0  0  0  0  0  0  0  0  0  0  0
  182.9960  179.9730  144.0890 C   0  0  0  0  0  2  0  0  0  0  0  0
  182.2530  178.6950  143.7330 C   0  0  0  0  0  2  0  0  0  0  0  0
  183.7610  178.7490  143.6180 C   0  0  0  0  0  0  0  0  0  0  0  0
  187.8240  178.3420  139.0340 C   0  0  0  0  0  3  0  0  0  0  0  0
  184.2490  178.6620  142.2030 C   0  0  0  0  0  0  0  0  0  0  0  0
  185.1030  178.3980  139.5740 C   0  0  0  0  0  0  0  0  0  0  0  0
  186.9090  178.2410  137.9810 C   0  0  0  0  0  3  0  0  0  0  0  0
  185.5400  178.2690  138.2550 C   0  0  0  0  0  3  0  0  0  0  0  0
  187.3840  178.4680  140.3160 N   0  0  0  0  0  0  0  0  0  0  0  0
  183.7760  178.4230  139.8650 N   0  0  0  0  0  0  0  0  0  0  0  0
  185.6200  178.6260  141.9260 C   0  0  0  0  0  3  0  0  0  0  0  0
  186.0550  178.4990  140.6070 C   0  0  0  0  0  0  0  0  0  0  0  0
  183.3340  178.5470  141.1460 C   0  0  0  0  0  3  0  0  0  0  0  0
  184.2850  178.1600  146.8770 O   0  0  0  0  0  1  0  0  0  0  0  0
  184.6470  178.8020  145.6930 C   0  0  1  0  0  3  0  0  0  0  0  0
  186.1200  179.2080  145.7310 C   0  0  0  0  0  2  0  0  0  0  0  0
  187.8980  178.2110  147.2290 C   0  0  0  0  0  2  0  0  0  0  0  0
  190.3610  177.1240  147.4820 C   0  0  2  0  0  3  0  0  0  0  0  0
  187.9120  177.7890  144.6740 C   0  0  0  0  0  2  0  0  0  0  0  0
  188.8900  177.0710  147.2080 C   0  0  2  0  0  3  0  0  0  0  0  0
  187.0460  178.0200  145.9490 C   0  0  2  0  0  3  0  0  0  0  0  0
  189.8450  177.6290  146.1470 C   0  0  2  0  0  3  0  0  0  0  0  0
  189.1850  176.9560  144.9590 C   0  0  0  0  0  2  0  0  0  0  0  0
  192.1700  175.8380  146.4000 C   0  0  0  0  0  2  0  0  0  0  0  0
  190.9670  175.7440  147.3150 C   0  0  0  0  0  3  0  0  0  0  0  0
  192.3670  175.7440  147.8960 C   0  0  0  0  0  2  0  0  0  0  0  0
  1 16  1  0  0  0  0
  3  2  1  0  0  0  0
  4  3  1  0  0  0  0
  4  2  1  0  0  0  0
  4  1  1  0  0  0  0
  5 10  1  0  0  0  0
  6  4  1  0  0  0  0
  7 11  1  0  0  0  0
  7 13  1  0  0  0  0
  8  9  1  0  0  0  0
  8  5  2  0  0  0  0
  9  7  2  0  0  0  0
 10 13  2  0  0  0  0
 11 14  2  0  0  0  0
 12  6  2  0  0  0  0
 13 12  1  0  0  0  0
 14  6  1  0  0  0  0
 16 17  1  0  0  0  0
 16 15  1  1  0  0  0
 19 26  1  6  0  0  0
 20 24  1  0  0  0  0
 20 22  1  0  0  0  0
 21 18  1  1  0  0  0
 21 19  1  0  0  0  0
 22 17  1  6  0  0  0
 22 18  1  0  0  0  0
 23 24  1  6  0  0  0
 23 21  1  0  0  0  0
 23 19  1  0  0  0  0
 25 26  1  0  0  0  0
 25 27  1  0  0  0  0
 26 27  1  0  0  0  0
M  END
>  <MODEL>
6

>  <REMARK>
 VINA RESULT:      -7.9      3.098      6.446
  Name = 
  6 active torsions:
  status: ('A' for Active; 'I' for Inactive)
    1  A    between atoms: C_2  and  C_14
    2  A    between atoms: C_2  and  C_23
    3  A    between atoms: C_3  and  C_24
    4  A    between atoms: C_8  and  C_9
    5  A    between atoms: O_16  and  C_23
    6  A    between atoms: O_16  and  C_24
                            x       y       z     vdW  Elec       q    Type
                         _______ _______ _______ _____ _____    ______ ____

>  <TORSDO>
F 6

$$$$
=
 OpenBabel11032419483D

 27 32  0  0  1  0  0  0  0  0999 V2000
  185.0760  177.9040  142.7030 O   0  0  0  0  0  0  0  0  0  0  0  0
  183.5570  178.8160  144.4640 C   0  0  0  0  0  2  0  0  0  0  0  0
  184.5170  179.8850  143.9680 C   0  0  0  0  0  2  0  0  0  0  0  0
  184.9510  178.4350  143.9970 C   0  0  0  0  0  0  0  0  0  0  0  0
  190.5330  176.8960  146.0350 C   0  0  0  0  0  3  0  0  0  0  0  0
  186.0340  178.1630  144.9980 C   0  0  0  0  0  0  0  0  0  0  0  0
  188.0390  177.7700  146.8790 C   0  0  0  0  0  0  0  0  0  0  0  0
  190.3070  177.1270  147.3960 C   0  0  0  0  0  3  0  0  0  0  0  0
  189.0510  177.5670  147.8180 C   0  0  0  0  0  3  0  0  0  0  0  0
  189.5380  177.0980  145.1290 N   0  0  0  0  0  0  0  0  0  0  0  0
  186.8100  178.2030  147.2650 N   0  0  0  0  0  0  0  0  0  0  0  0
  187.2960  177.7290  144.5770 C   0  0  0  0  0  3  0  0  0  0  0  0
  188.3060  177.5250  145.5170 C   0  0  0  0  0  0  0  0  0  0  0  0
  185.8140  178.4060  146.3610 C   0  0  0  0  0  3  0  0  0  0  0  0
  186.6560  178.8930  141.3760 O   0  0  0  0  0  1  0  0  0  0  0  0
  185.3450  178.9800  141.8430 C   0  0  1  0  0  3  0  0  0  0  0  0
  184.3590  179.0060  140.6750 C   0  0  0  0  0  2  0  0  0  0  0  0
  183.4370  176.9760  139.4800 C   0  0  0  0  0  2  0  0  0  0  0  0
  181.2930  175.6360  138.5210 C   0  0  2  0  0  3  0  0  0  0  0  0
  181.9200  178.4540  140.9690 C   0  0  0  0  0  2  0  0  0  0  0  0
  182.2640  176.0300  139.5910 C   0  0  2  0  0  3  0  0  0  0  0  0
  183.3470  177.8710  140.7410 C   0  0  2  0  0  3  0  0  0  0  0  0
  181.1560  177.0020  139.1690 C   0  0  2  0  0  3  0  0  0  0  0  0
  180.7990  177.4650  140.5680 C   0  0  0  0  0  2  0  0  0  0  0  0
  178.9310  174.9290  138.3990 C   0  0  0  0  0  2  0  0  0  0  0  0
  180.2560  174.6870  139.0900 C   0  0  0  0  0  3  0  0  0  0  0  0
  179.7880  173.7500  137.9950 C   0  0  0  0  0  2  0  0  0  0  0  0
  1  4  1  0  0  0  0
  3  4  1  0  0  0  0
  3  2  1  0  0  0  0
  4  2  1  0  0  0  0
  4  6  1  0  0  0  0
  5  8  1  0  0  0  0
  6 14  1  0  0  0  0
  7 11  1  0  0  0  0
  7  9  1  0  0  0  0
  8  9  2  0  0  0  0
 10 13  1  0  0  0  0
 10  5  2  0  0  0  0
 12  6  2  0  0  0  0
 12 13  1  0  0  0  0
 13  7  2  0  0  0  0
 14 11  2  0  0  0  0
 16 15  1  6  0  0  0
 16  1  1  0  0  0  0
 17 16  1  0  0  0  0
 18 22  1  0  0  0  0
 19 26  1  1  0  0  0
 19 23  1  0  0  0  0
 19 21  1  0  0  0  0
 21 18  1  6  0  0  0
 22 17  1  6  0  0  0
 22 20  1  0  0  0  0
 23 21  1  0  0  0  0
 23 24  1  1  0  0  0
 24 20  1  0  0  0  0
 25 26  1  0  0  0  0
 27 25  1  0  0  0  0
 27 26  1  0  0  0  0
M  END
>  <MODEL>
7

>  <REMARK>
 VINA RESULT:      -7.7      3.949      7.027
  Name = 
  6 active torsions:
  status: ('A' for Active; 'I' for Inactive)
    1  A    between atoms: C_2  and  C_14
    2  A    between atoms: C_2  and  C_23
    3  A    between atoms: C_3  and  C_24
    4  A    between atoms: C_8  and  C_9
    5  A    between atoms: O_16  and  C_23
    6  A    between atoms: O_16  and  C_24
                            x       y       z     vdW  Elec       q    Type
                         _______ _______ _______ _____ _____    ______ ____

>  <TORSDO>
F 6

$$$$
=
 OpenBabel11032419483D

 27 32  0  0  1  0  0  0  0  0999 V2000
  189.9220  177.9860  143.6380 O   0  0  0  0  0  0  0  0  0  0  0  0
  189.0680  175.6910  143.1480 C   0  0  0  0  0  2  0  0  0  0  0  0
  190.5360  175.8140  142.7750 C   0  0  0  0  0  2  0  0  0  0  0  0
  189.6250  177.0180  142.6650 C   0  0  0  0  0  0  0  0  0  0  0  0
  190.1920  176.9780  136.5530 C   0  0  0  0  0  3  0  0  0  0  0  0
  189.4000  177.4600  141.2500 C   0  0  0  0  0  0  0  0  0  0  0  0
  188.8740  178.2450  138.6390 C   0  0  0  0  0  0  0  0  0  0  0  0
  189.2790  178.0000  136.2730 C   0  0  0  0  0  3  0  0  0  0  0  0
  188.6170  178.6370  137.3240 C   0  0  0  0  0  3  0  0  0  0  0  0
  190.4320  176.6050  137.8390 N   0  0  0  0  0  0  0  0  0  0  0  0
  188.2380  178.8470  139.6780 N   0  0  0  0  0  0  0  0  0  0  0  0
  190.0560  176.8190  140.1940 C   0  0  0  0  0  3  0  0  0  0  0  0
  189.8010  177.2120  138.8800 C   0  0  0  0  0  0  0  0  0  0  0  0
  188.4770  178.4760  140.9650 C   0  0  0  0  0  3  0  0  0  0  0  0
  191.1910  177.2670  145.4020 O   0  0  0  0  0  1  0  0  0  0  0  0
  189.8990  177.3360  144.8820 C   0  0  1  0  0  3  0  0  0  0  0  0
  188.9660  178.0550  145.8560 C   0  0  0  0  0  2  0  0  0  0  0  0
  187.0040  178.4600  144.3120 C   0  0  0  0  0  2  0  0  0  0  0  0
  184.4270  179.2180  144.0020 C   0  0  2  0  0  3  0  0  0  0  0  0
  186.6540  178.1070  146.8540 C   0  0  0  0  0  2  0  0  0  0  0  0
  185.5110  178.2260  144.2900 C   0  0  2  0  0  3  0  0  0  0  0  0
  187.4990  177.7450  145.5950 C   0  0  2  0  0  3  0  0  0  0  0  0
  185.1110  179.2510  145.3570 C   0  0  2  0  0  3  0  0  0  0  0  0
  185.1520  178.2940  146.5310 C   0  0  0  0  0  2  0  0  0  0  0  0
  181.9870  179.5850  143.9060 C   0  0  0  0  0  2  0  0  0  0  0  0
  183.0710  178.5500  144.1230 C   0  0  0  0  0  3  0  0  0  0  0  0
  182.3560  178.6330  142.7890 C   0  0  0  0  0  2  0  0  0  0  0  0
  1 16  1  0  0  0  0
  3  2  1  0  0  0  0
  4  3  1  0  0  0  0
  4  2  1  0  0  0  0
  4  1  1  0  0  0  0
  5 10  1  0  0  0  0
  6  4  1  0  0  0  0
  7 13  1  0  0  0  0
  7 11  1  0  0  0  0
  8  5  2  0  0  0  0
  8  9  1  0  0  0  0
  9  7  2  0  0  0  0
 10 13  2  0  0  0  0
 11 14  2  0  0  0  0
 12  6  2  0  0  0  0
 13 12  1  0  0  0  0
 14  6  1  0  0  0  0
 16 15  1  1  0  0  0
 16 17  1  0  0  0  0
 18 22  1  0  0  0  0
 19 26  1  1  0  0  0
 19 21  1  0  0  0  0
 19 23  1  0  0  0  0
 21 18  1  6  0  0  0
 21 23  1  0  0  0  0
 22 17  1  1  0  0  0
 22 20  1  0  0  0  0
 23 24  1  1  0  0  0
 24 20  1  0  0  0  0
 25 26  1  0  0  0  0
 27 25  1  0  0  0  0
 27 26  1  0  0  0  0
M  END
>  <MODEL>
8

>  <REMARK>
 VINA RESULT:      -7.6      2.097      6.891
  Name = 
  6 active torsions:
  status: ('A' for Active; 'I' for Inactive)
    1  A    between atoms: C_2  and  C_14
    2  A    between atoms: C_2  and  C_23
    3  A    between atoms: C_3  and  C_24
    4  A    between atoms: C_8  and  C_9
    5  A    between atoms: O_16  and  C_23
    6  A    between atoms: O_16  and  C_24
                            x       y       z     vdW  Elec       q    Type
                         _______ _______ _______ _____ _____    ______ ____

>  <TORSDO>
F 6

$$$$
=
 OpenBabel11032419483D

 27 32  0  0  1  0  0  0  0  0999 V2000
  190.0240  178.2440  139.4510 O   0  0  0  0  0  0  0  0  0  0  0  0
  189.0620  177.4680  137.2800 C   0  0  0  0  0  2  0  0  0  0  0  0
  189.0480  178.9860  137.3680 C   0  0  0  0  0  2  0  0  0  0  0  0
  188.8930  178.1540  138.6240 C   0  0  0  0  0  0  0  0  0  0  0  0
  184.7380  178.9680  143.0690 C   0  0  0  0  0  3  0  0  0  0  0  0
  187.5330  178.2720  139.2440 C   0  0  0  0  0  0  0  0  0  0  0  0
  184.9970  178.5870  140.3330 C   0  0  0  0  0  0  0  0  0  0  0  0
  183.5930  178.9340  142.2650 C   0  0  0  0  0  3  0  0  0  0  0  0
  183.7270  178.7420  140.8880 C   0  0  0  0  0  3  0  0  0  0  0  0
  185.9710  178.8160  142.5140 N   0  0  0  0  0  0  0  0  0  0  0  0
  185.1520  178.4040  138.9950 N   0  0  0  0  0  0  0  0  0  0  0  0
  187.3960  178.4720  140.6220 C   0  0  0  0  0  3  0  0  0  0  0  0
  186.1260  178.6260  141.1760 C   0  0  0  0  0  0  0  0  0  0  0  0
  186.3840  178.2510  138.4390 C   0  0  0  0  0  3  0  0  0  0  0  0
  190.5060  176.0160  139.2340 O   0  0  0  0  0  1  0  0  0  0  0  0
  190.1320  177.0190  140.1290 C   0  0  1  0  0  3  0  0  0  0  0  0
  191.1370  177.1170  141.2770 C   0  0  0  0  0  2  0  0  0  0  0  0
  189.3950  177.6070  143.0440 C   0  0  0  0  0  2  0  0  0  0  0  0
  188.8020  178.0260  145.6490 C   0  0  2  0  0  3  0  0  0  0  0  0
  191.6800  176.5650  143.6720 C   0  0  0  0  0  2  0  0  0  0  0  0
  189.0480  177.1670  144.4470 C   0  0  2  0  0  3  0  0  0  0  0  0
  190.5480  176.6690  142.6070 C   0  0  2  0  0  3  0  0  0  0  0  0
  190.2300  177.8110  145.1800 C   0  0  2  0  0  3  0  0  0  0  0  0
  191.1410  176.6010  145.1230 C   0  0  0  0  0  2  0  0  0  0  0  0
  189.0390  177.8430  148.1000 C   0  0  0  0  0  2  0  0  0  0  0  0
  188.5170  177.1530  146.8560 C   0  0  0  0  0  3  0  0  0  0  0  0
  187.5610  177.8820  147.7790 C   0  0  0  0  0  2  0  0  0  0  0  0
  1 16  1  0  0  0  0
  2  3  1  0  0  0  0
  2  4  1  0  0  0  0
  3  4  1  0  0  0  0
  4  6  1  0  0  0  0
  4  1  1  0  0  0  0
  6 12  2  0  0  0  0
  7  9  2  0  0  0  0
  7 13  1  0  0  0  0
  8  5  2  0  0  0  0
  9  8  1  0  0  0  0
 10  5  1  0  0  0  0
 11  7  1  0  0  0  0
 12 13  1  0  0  0  0
 13 10  2  0  0  0  0
 14 11  2  0  0  0  0
 14  6  1  0  0  0  0
 16 15  1  6  0  0  0
 16 17  1  0  0  0  0
 19 26  1  1  0  0  0
 20 24  1  0  0  0  0
 21 18  1  6  0  0  0
 21 23  1  0  0  0  0
 21 19  1  0  0  0  0
 22 17  1  6  0  0  0
 22 18  1  0  0  0  0
 22 20  1  0  0  0  0
 23 24  1  1  0  0  0
 23 19  1  0  0  0  0
 26 27  1  0  0  0  0
 26 25  1  0  0  0  0
 27 25  1  0  0  0  0
M  END
>  <MODEL>
9

>  <REMARK>
 VINA RESULT:      -7.6      2.406      6.422
  Name = 
  6 active torsions:
  status: ('A' for Active; 'I' for Inactive)
    1  A    between atoms: C_2  and  C_14
    2  A    between atoms: C_2  and  C_23
    3  A    between atoms: C_3  and  C_24
    4  A    between atoms: C_8  and  C_9
    5  A    between atoms: O_16  and  C_23
    6  A    between atoms: O_16  and  C_24
                            x       y       z     vdW  Elec       q    Type
                         _______ _______ _______ _____ _____    ______ ____

>  <TORSDO>
F 6

$$$$
