=
 OpenBabel11042412363D

 41 44  0  0  1  0  0  0  0  0999 V2000
  192.3970  176.6700  147.9990 O   0  0  0  0  0  1  0  0  0  0  0  0
  191.5950  176.5830  145.7270 C   0  0  0  0  0  3  0  0  0  0  0  0
  190.0740  177.1100  147.5350 C   0  0  0  0  0  3  0  0  0  0  0  0
  188.2290  177.1950  144.3690 N   0  0  0  0  0  0  0  0  0  0  0  0
  186.9720  177.5230  144.7770 C   0  0  0  0  0  0  0  0  0  0  0  0
  189.2620  177.0420  145.2390 C   0  0  0  0  0  0  0  0  0  0  0  0
  186.7100  177.7100  146.1360 C   0  0  0  0  0  3  0  0  0  0  0  0
  191.3560  176.7880  147.0890 C   0  0  0  0  0  0  0  0  0  0  0  0
  190.5620  176.6970  144.7900 C   0  0  0  0  0  0  0  0  0  0  0  0
  189.0290  177.2380  146.6200 C   0  0  0  0  0  0  0  0  0  0  0  0
  187.7460  177.5680  147.0600 C   0  0  0  0  0  3  0  0  0  0  0  0
  190.8820  176.4630  143.4110 N   0  0  0  0  0  2  0  0  0  0  0  0
  190.7050  177.4250  142.3340 C   0  0  0  0  0  2  0  0  0  0  0  0
  188.5910  176.9100  141.3340 O   0  0  0  0  0  0  0  0  0  0  0  0
  189.9830  176.7740  141.1710 C   0  0  1  0  0  3  0  0  0  0  0  0
  190.4100  177.4400  139.8790 C   0  0  2  0  0  3  0  0  0  0  0  0
  189.3060  179.2590  138.8460 O   0  0  0  0  0  1  0  0  0  0  0  0
  189.1370  177.9440  139.2780 C   0  0  2  0  0  3  0  0  0  0  0  0
  188.1750  177.9070  140.4340 C   0  0  0  0  0  2  0  0  0  0  0  0
  193.2700  175.6740  137.9150 C   0  0  0  0  0  0  0  0  0  0  0  0
  194.5160  175.8420  137.8060 O   0  0  0  0  0  0  0  0  0  0  0  0
  191.0930  176.4630  138.9700 C   0  0  0  0  0  0  0  0  0  0  0  0
  190.4070  175.5760  138.3900 O   0  0  0  0  0  0  0  0  0  0  0  0
  193.2010  177.4900  139.4760 O   0  0  0  0  0  1  0  0  0  0  0  0
  192.5190  176.5440  138.7840 N   0  0  0  0  0  0  0  0  0  0  0  0
  192.1760  173.9130  134.8650 N   0  0  0  0  0  2  0  0  0  0  0  0
  192.9150  172.8190  135.3800 C   0  0  0  0  0  0  0  0  0  0  0  0
  192.6130  174.5950  137.1110 C   0  0  1  0  0  3  0  0  0  0  0  0
  192.2650  175.0860  135.7090 C   0  0  0  0  0  2  0  0  0  0  0  0
  192.6490  171.6170  134.9920 N   0  0  0  0  0  2  0  0  0  0  0  0
  193.6780  173.1160  136.9600 S   0  0  0  0  0  0  0  0  0  0  0  0
  185.9410  177.6780  143.8490 O   0  0  0  0  0  0  0  0  0  0  0  0
  183.9280  178.7460  144.6480 C   0  0  0  0  0  1  0  0  0  0  0  0
  185.1620  178.8700  143.7690 C   0  0  2  0  0  3  0  0  0  0  0  0
  185.5410  179.6390  141.5680 O   0  0  0  0  0  0  0  0  0  0  0  0
  184.7580  179.1260  142.3530 C   0  0  0  0  0  0  0  0  0  0  0  0
  183.3970  178.7140  141.8930 C   0  0  0  0  0  2  0  0  0  0  0  0
  183.4780  177.6820  140.7750 C   0  0  0  0  0  2  0  0  0  0  0  0
  181.4670  178.8060  140.3600 C   0  0  0  0  0  1  0  0  0  0  0  0
  182.4670  177.9400  139.7600 N   0  0  0  0  0  0  0  0  0  0  0  0
  183.1140  178.7150  138.7180 C   0  0  0  0  0  1  0  0  0  0  0  0
  2  8  1  0  0  0  0
  4  5  2  0  0  0  0
  4  6  1  0  0  0  0
  5  7  1  0  0  0  0
  6 10  2  0  0  0  0
  7 11  2  0  0  0  0
  8  3  2  0  0  0  0
  8  1  1  0  0  0  0
  9  6  1  0  0  0  0
  9  2  2  0  0  0  0
 10 11  1  0  0  0  0
 10  3  1  0  0  0  0
 12  9  1  0  0  0  0
 13 12  1  0  0  0  0
 15 14  1  0  0  0  0
 15 13  1  1  0  0  0
 16 22  1  6  0  0  0
 16 15  1  0  0  0  0
 18 17  1  1  0  0  0
 18 16  1  0  0  0  0
 18 19  1  0  0  0  0
 19 14  1  0  0  0  0
 20 25  1  0  0  0  0
 21 20  2  0  0  0  0
 23 22  2  0  0  0  0
 25 22  1  0  0  0  0
 25 24  1  0  0  0  0
 26 27  1  0  0  0  0
 26 29  1  0  0  0  0
 27 31  1  0  0  0  0
 28 20  1  1  0  0  0
 29 28  1  0  0  0  0
 30 27  2  0  0  0  0
 31 28  1  0  0  0  0
 32  5  1  0  0  0  0
 34 32  1  0  0  0  0
 34 33  1  1  0  0  0
 35 36  2  0  0  0  0
 36 34  1  0  0  0  0
 37 36  1  0  0  0  0
 38 37  1  0  0  0  0
 40 39  1  0  0  0  0
 40 38  1  0  0  0  0
 41 40  1  0  0  0  0
M  END
>  <MODEL>
1

>  <REMARK>
 VINA RESULT:      -9.2      0.000      0.000
  Name = 
  11 active torsions:
  status: ('A' for Active; 'I' for Inactive)
    1  A    between atoms: C_4  and  N_9
    2  A    between atoms: C_4  and  C_18
    3  A    between atoms: C_6  and  C_25
    4  A    between atoms: C_7  and  N_16
    5  A    between atoms: C_7  and  C_29
    6  A    between atoms: N_9  and  C_30
    7  A    between atoms: C_13  and  C_29
    8  A    between atoms: C_13  and  C_39
    9  A    between atoms: C_17  and  O_33
   10  A    between atoms: C_19  and  C_34
   11  A    between atoms: O_33  and  C_39
                            x       y       z     vdW  Elec       q    Type
                         _______ _______ _______ _____ _____    ______ ____

>  <TORSDO>
F 11

$$$$
=
 OpenBabel11042412363D

 41 44  0  0  1  0  0  0  0  0999 V2000
  192.1140  176.9430  148.1040 O   0  0  0  0  0  1  0  0  0  0  0  0
  191.3100  176.7630  145.8380 C   0  0  0  0  0  3  0  0  0  0  0  0
  189.7880  177.3490  147.6270 C   0  0  0  0  0  3  0  0  0  0  0  0
  187.9390  177.2970  144.4610 N   0  0  0  0  0  0  0  0  0  0  0  0
  186.6800  177.6320  144.8580 C   0  0  0  0  0  0  0  0  0  0  0  0
  188.9740  177.1850  145.3360 C   0  0  0  0  0  0  0  0  0  0  0  0
  186.4180  177.8700  146.2090 C   0  0  0  0  0  3  0  0  0  0  0  0
  191.0710  177.0180  147.1910 C   0  0  0  0  0  0  0  0  0  0  0  0
  190.2760  176.8330  144.8990 C   0  0  0  0  0  0  0  0  0  0  0  0
  188.7410  177.4330  146.7080 C   0  0  0  0  0  0  0  0  0  0  0  0
  187.4560  177.7710  147.1360 C   0  0  0  0  0  3  0  0  0  0  0  0
  190.5960  176.5470  143.5290 N   0  0  0  0  0  2  0  0  0  0  0  0
  190.5050  177.4970  142.4310 C   0  0  0  0  0  2  0  0  0  0  0  0
  188.7490  176.6100  141.0660 O   0  0  0  0  0  0  0  0  0  0  0  0
  190.1450  176.7740  141.1490 C   0  0  1  0  0  3  0  0  0  0  0  0
  190.6320  177.5820  139.9640 C   0  0  2  0  0  3  0  0  0  0  0  0
  189.3560  179.1860  138.7830 O   0  0  0  0  0  1  0  0  0  0  0  0
  189.4010  177.8440  139.1560 C   0  0  2  0  0  3  0  0  0  0  0  0
  188.2880  177.5470  140.1240 C   0  0  0  0  0  2  0  0  0  0  0  0
  192.1230  174.9080  137.5600 C   0  0  0  0  0  0  0  0  0  0  0  0
  191.6530  173.9560  136.8790 O   0  0  0  0  0  0  0  0  0  0  0  0
  191.6510  176.8190  139.1730 C   0  0  0  0  0  0  0  0  0  0  0  0
  192.8650  177.1590  139.2380 O   0  0  0  0  0  0  0  0  0  0  0  0
  189.9020  175.4430  138.2770 O   0  0  0  0  0  1  0  0  0  0  0  0
  191.2270  175.7220  138.3410 N   0  0  0  0  0  0  0  0  0  0  0  0
  195.6830  174.0500  137.1090 N   0  0  0  0  0  2  0  0  0  0  0  0
  195.7020  175.1370  136.2000 C   0  0  0  0  0  0  0  0  0  0  0  0
  193.6040  175.1360  137.5570 C   0  0  1  0  0  3  0  0  0  0  0  0
  194.3660  173.8190  137.6660 C   0  0  0  0  0  2  0  0  0  0  0  0
  196.8160  175.7230  135.9140 N   0  0  0  0  0  2  0  0  0  0  0  0
  194.1540  176.0010  136.0430 S   0  0  0  0  0  0  0  0  0  0  0  0
  185.6470  177.7440  143.9260 O   0  0  0  0  0  0  0  0  0  0  0  0
  183.8160  179.2990  144.1660 C   0  0  0  0  0  1  0  0  0  0  0  0
  185.1470  179.0070  143.4920 C   0  0  2  0  0  3  0  0  0  0  0  0
  185.7230  179.6770  141.3010 O   0  0  0  0  0  0  0  0  0  0  0  0
  184.9800  179.0110  142.0060 C   0  0  0  0  0  0  0  0  0  0  0  0
  183.9180  178.1620  141.3860 C   0  0  0  0  0  2  0  0  0  0  0  0
  183.8310  178.3920  139.8830 C   0  0  0  0  0  2  0  0  0  0  0  0
  182.2740  178.8630  138.2000 C   0  0  0  0  0  1  0  0  0  0  0  0
  182.6760  179.2130  139.5510 N   0  0  0  0  0  0  0  0  0  0  0  0
  181.6000  178.7890  140.4260 C   0  0  0  0  0  1  0  0  0  0  0  0
  2  8  1  0  0  0  0
  4  5  2  0  0  0  0
  4  6  1  0  0  0  0
  5  7  1  0  0  0  0
  6 10  2  0  0  0  0
  7 11  2  0  0  0  0
  8  3  2  0  0  0  0
  8  1  1  0  0  0  0
  9  6  1  0  0  0  0
  9  2  2  0  0  0  0
 10 11  1  0  0  0  0
 10  3  1  0  0  0  0
 12  9  1  0  0  0  0
 13 12  1  0  0  0  0
 14 15  1  0  0  0  0
 15 13  1  1  0  0  0
 16 22  1  6  0  0  0
 16 15  1  0  0  0  0
 18 17  1  1  0  0  0
 18 16  1  0  0  0  0
 18 19  1  0  0  0  0
 19 14  1  0  0  0  0
 20 25  1  0  0  0  0
 21 20  2  0  0  0  0
 22 23  2  0  0  0  0
 24 25  1  0  0  0  0
 25 22  1  0  0  0  0
 26 29  1  0  0  0  0
 27 26  1  0  0  0  0
 28 20  1  6  0  0  0
 28 29  1  0  0  0  0
 30 27  2  0  0  0  0
 31 27  1  0  0  0  0
 31 28  1  0  0  0  0
 32  5  1  0  0  0  0
 34 32  1  0  0  0  0
 34 33  1  1  0  0  0
 35 36  2  0  0  0  0
 36 34  1  0  0  0  0
 37 36  1  0  0  0  0
 38 37  1  0  0  0  0
 39 40  1  0  0  0  0
 40 38  1  0  0  0  0
 40 41  1  0  0  0  0
M  END
>  <MODEL>
2

>  <REMARK>
 VINA RESULT:      -8.7      1.440      1.901
  Name = 
  11 active torsions:
  status: ('A' for Active; 'I' for Inactive)
    1  A    between atoms: C_4  and  N_9
    2  A    between atoms: C_4  and  C_18
    3  A    between atoms: C_6  and  C_25
    4  A    between atoms: C_7  and  N_16
    5  A    between atoms: C_7  and  C_29
    6  A    between atoms: N_9  and  C_30
    7  A    between atoms: C_13  and  C_29
    8  A    between atoms: C_13  and  C_39
    9  A    between atoms: C_17  and  O_33
   10  A    between atoms: C_19  and  C_34
   11  A    between atoms: O_33  and  C_39
                            x       y       z     vdW  Elec       q    Type
                         _______ _______ _______ _____ _____    ______ ____

>  <TORSDO>
F 11

$$$$
=
 OpenBabel11042412363D

 41 44  0  0  1  0  0  0  0  0999 V2000
  184.1800  178.9290  146.5720 O   0  0  0  0  0  1  0  0  0  0  0  0
  185.1640  178.5750  144.4000 C   0  0  0  0  0  3  0  0  0  0  0  0
  186.4250  178.0720  146.4040 C   0  0  0  0  0  3  0  0  0  0  0  0
  188.4770  177.2650  143.4750 N   0  0  0  0  0  0  0  0  0  0  0  0
  189.6250  176.8050  144.0460 C   0  0  0  0  0  0  0  0  0  0  0  0
  187.4180  177.6960  144.2110 C   0  0  0  0  0  0  0  0  0  0  0  0
  189.7420  176.7690  145.4360 C   0  0  0  0  0  3  0  0  0  0  0  0
  185.2560  178.5260  145.7930 C   0  0  0  0  0  0  0  0  0  0  0  0
  186.2350  178.1740  143.5930 C   0  0  0  0  0  0  0  0  0  0  0  0
  187.5040  177.6580  145.6210 C   0  0  0  0  0  0  0  0  0  0  0  0
  188.6740  177.1970  146.2260 C   0  0  0  0  0  3  0  0  0  0  0  0
  186.0700  178.2620  142.1700 N   0  0  0  0  0  2  0  0  0  0  0  0
  185.0740  179.0770  141.4910 C   0  0  0  0  0  2  0  0  0  0  0  0
  182.8360  178.2280  141.5450 O   0  0  0  0  0  0  0  0  0  0  0  0
  184.0440  178.1870  140.8240 C   0  0  1  0  0  3  0  0  0  0  0  0
  183.8060  178.6700  139.4080 C   0  0  2  0  0  3  0  0  0  0  0  0
  182.1250  180.1970  138.7460 O   0  0  0  0  0  1  0  0  0  0  0  0
  182.3400  178.9590  139.3510 C   0  0  2  0  0  3  0  0  0  0  0  0
  181.9490  179.0280  140.8020 C   0  0  0  0  0  2  0  0  0  0  0  0
  185.8440  176.8620  136.6270 C   0  0  0  0  0  0  0  0  0  0  0  0
  186.8990  177.1150  135.9840 O   0  0  0  0  0  0  0  0  0  0  0  0
  184.1940  177.6220  138.4090 C   0  0  0  0  0  0  0  0  0  0  0  0
  183.4680  176.5980  138.2750 O   0  0  0  0  0  0  0  0  0  0  0  0
  186.1540  178.8920  137.8600 O   0  0  0  0  0  1  0  0  0  0  0  0
  185.3930  177.7930  137.6300 N   0  0  0  0  0  0  0  0  0  0  0  0
  184.7850  173.9720  134.5940 N   0  0  0  0  0  2  0  0  0  0  0  0
  185.2140  173.1950  135.6980 C   0  0  0  0  0  0  0  0  0  0  0  0
  185.0790  175.6150  136.3000 C   0  0  1  0  0  3  0  0  0  0  0  0
  185.0130  175.3880  134.7930 C   0  0  0  0  0  2  0  0  0  0  0  0
  184.7540  172.0010  135.8680 N   0  0  0  0  0  2  0  0  0  0  0  0
  185.8250  174.1380  137.0780 S   0  0  0  0  0  0  0  0  0  0  0  0
  190.6860  176.3640  143.2530 O   0  0  0  0  0  0  0  0  0  0  0  0
  191.4670  178.6470  143.3090 C   0  0  0  0  0  1  0  0  0  0  0  0
  191.6660  177.2570  142.7290 C   0  0  2  0  0  3  0  0  0  0  0  0
  192.4410  177.8620  140.5810 O   0  0  0  0  0  0  0  0  0  0  0  0
  191.5730  177.3060  141.2380 C   0  0  0  0  0  0  0  0  0  0  0  0
  190.4260  176.6360  140.5530 C   0  0  0  0  0  2  0  0  0  0  0  0
  189.4050  177.6530  140.0590 C   0  0  0  0  0  2  0  0  0  0  0  0
  189.5600  178.4430  137.8620 C   0  0  0  0  0  1  0  0  0  0  0  0
  189.0200  177.3730  138.6840 N   0  0  0  0  0  0  0  0  0  0  0  0
  189.7180  176.1620  138.2960 C   0  0  0  0  0  1  0  0  0  0  0  0
  2  8  1  0  0  0  0
  4  5  2  0  0  0  0
  4  6  1  0  0  0  0
  5  7  1  0  0  0  0
  6 10  2  0  0  0  0
  7 11  2  0  0  0  0
  8  3  2  0  0  0  0
  8  1  1  0  0  0  0
  9  6  1  0  0  0  0
  9  2  2  0  0  0  0
 10 11  1  0  0  0  0
 10  3  1  0  0  0  0
 12  9  1  0  0  0  0
 13 12  1  0  0  0  0
 15 13  1  1  0  0  0
 15 14  1  0  0  0  0
 16 22  1  6  0  0  0
 16 15  1  0  0  0  0
 18 17  1  1  0  0  0
 18 16  1  0  0  0  0
 18 19  1  0  0  0  0
 19 14  1  0  0  0  0
 20 25  1  0  0  0  0
 21 20  2  0  0  0  0
 23 22  2  0  0  0  0
 25 24  1  0  0  0  0
 25 22  1  0  0  0  0
 26 29  1  0  0  0  0
 26 27  1  0  0  0  0
 27 30  2  0  0  0  0
 27 31  1  0  0  0  0
 28 20  1  6  0  0  0
 28 31  1  0  0  0  0
 29 28  1  0  0  0  0
 32  5  1  0  0  0  0
 34 32  1  0  0  0  0
 34 33  1  1  0  0  0
 35 36  2  0  0  0  0
 36 34  1  0  0  0  0
 37 36  1  0  0  0  0
 38 37  1  0  0  0  0
 39 40  1  0  0  0  0
 40 38  1  0  0  0  0
 41 40  1  0  0  0  0
M  END
>  <MODEL>
3

>  <REMARK>
 VINA RESULT:      -8.6      3.297      6.479
  Name = 
  11 active torsions:
  status: ('A' for Active; 'I' for Inactive)
    1  A    between atoms: C_4  and  N_9
    2  A    between atoms: C_4  and  C_18
    3  A    between atoms: C_6  and  C_25
    4  A    between atoms: C_7  and  N_16
    5  A    between atoms: C_7  and  C_29
    6  A    between atoms: N_9  and  C_30
    7  A    between atoms: C_13  and  C_29
    8  A    between atoms: C_13  and  C_39
    9  A    between atoms: C_17  and  O_33
   10  A    between atoms: C_19  and  C_34
   11  A    between atoms: O_33  and  C_39
                            x       y       z     vdW  Elec       q    Type
                         _______ _______ _______ _____ _____    ______ ____

>  <TORSDO>
F 11

$$$$
=
 OpenBabel11042412363D

 41 44  0  0  1  0  0  0  0  0999 V2000
  183.5230  179.0030  146.2200 O   0  0  0  0  0  1  0  0  0  0  0  0
  184.7630  178.5540  144.2010 C   0  0  0  0  0  3  0  0  0  0  0  0
  185.8060  178.2450  146.3640 C   0  0  0  0  0  3  0  0  0  0  0  0
  188.2090  177.3450  143.7460 N   0  0  0  0  0  0  0  0  0  0  0  0
  189.3020  176.9790  144.4720 C   0  0  0  0  0  0  0  0  0  0  0  0
  187.0570  177.7730  144.3270 C   0  0  0  0  0  0  0  0  0  0  0  0
  189.2600  177.0400  145.8660 C   0  0  0  0  0  3  0  0  0  0  0  0
  184.6960  178.6010  145.5960 C   0  0  0  0  0  0  0  0  0  0  0  0
  185.9330  178.1520  143.5490 C   0  0  0  0  0  0  0  0  0  0  0  0
  186.9830  177.8320  145.7370 C   0  0  0  0  0  0  0  0  0  0  0  0
  188.0930  177.4680  146.5000 C   0  0  0  0  0  3  0  0  0  0  0  0
  185.9280  178.1380  142.1140 N   0  0  0  0  0  2  0  0  0  0  0  0
  184.7460  177.9830  141.2810 C   0  0  0  0  0  2  0  0  0  0  0  0
  186.1330  178.8960  139.5570 O   0  0  0  0  0  0  0  0  0  0  0  0
  184.8280  178.9100  140.0860 C   0  0  1  0  0  3  0  0  0  0  0  0
  183.8470  178.4510  139.0270 C   0  0  2  0  0  3  0  0  0  0  0  0
  184.3460  176.9820  137.2410 O   0  0  0  0  0  1  0  0  0  0  0  0
  184.6890  178.2060  137.8160 C   0  0  2  0  0  3  0  0  0  0  0  0
  186.0820  178.1320  138.3780 C   0  0  0  0  0  2  0  0  0  0  0  0
  180.3880  180.0220  138.1730 C   0  0  0  0  0  0  0  0  0  0  0  0
  179.2430  179.5690  137.9020 O   0  0  0  0  0  0  0  0  0  0  0  0
  182.8080  179.4990  138.7640 C   0  0  0  0  0  0  0  0  0  0  0  0
  183.1320  180.7180  138.8230 O   0  0  0  0  0  0  0  0  0  0  0  0
  181.1660  177.7760  138.4680 O   0  0  0  0  0  1  0  0  0  0  0  0
  181.4560  179.1000  138.4650 N   0  0  0  0  0  0  0  0  0  0  0  0
  180.3480  183.4280  136.7590 N   0  0  0  0  0  2  0  0  0  0  0  0
  179.5460  183.7520  137.8810 C   0  0  0  0  0  0  0  0  0  0  0  0
  180.6030  181.5040  138.1490 C   0  0  1  0  0  3  0  0  0  0  0  0
  180.7020  182.0240  136.7180 C   0  0  0  0  0  2  0  0  0  0  0  0
  179.4620  184.9740  138.2870 N   0  0  0  0  0  2  0  0  0  0  0  0
  179.2560  182.4000  139.0010 S   0  0  0  0  0  0  0  0  0  0  0  0
  190.4630  176.5380  143.8350 O   0  0  0  0  0  0  0  0  0  0  0  0
  191.0440  178.8730  143.6360 C   0  0  0  0  0  1  0  0  0  0  0  0
  191.4200  177.4420  143.2870 C   0  0  2  0  0  3  0  0  0  0  0  0
  192.5320  177.4990  141.2040 O   0  0  0  0  0  0  0  0  0  0  0  0
  191.4900  177.2790  141.8020 C   0  0  0  0  0  0  0  0  0  0  0  0
  190.2830  176.8060  141.0600 C   0  0  0  0  0  2  0  0  0  0  0  0
  190.3940  177.1070  139.5700 C   0  0  0  0  0  2  0  0  0  0  0  0
  189.6720  175.8150  137.7580 C   0  0  0  0  0  1  0  0  0  0  0  0
  190.6650  175.8930  138.8160 N   0  0  0  0  0  0  0  0  0  0  0  0
  191.9470  176.0870  138.1650 C   0  0  0  0  0  1  0  0  0  0  0  0
  2  8  1  0  0  0  0
  4  6  1  0  0  0  0
  4  5  2  0  0  0  0
  5  7  1  0  0  0  0
  6 10  2  0  0  0  0
  7 11  2  0  0  0  0
  8  1  1  0  0  0  0
  8  3  2  0  0  0  0
  9  2  2  0  0  0  0
  9  6  1  0  0  0  0
 10  3  1  0  0  0  0
 10 11  1  0  0  0  0
 12  9  1  0  0  0  0
 13 12  1  0  0  0  0
 14 15  1  0  0  0  0
 15 13  1  1  0  0  0
 16 22  1  6  0  0  0
 16 15  1  0  0  0  0
 18 17  1  1  0  0  0
 18 19  1  0  0  0  0
 18 16  1  0  0  0  0
 19 14  1  0  0  0  0
 20 25  1  0  0  0  0
 21 20  2  0  0  0  0
 22 23  2  0  0  0  0
 25 24  1  0  0  0  0
 25 22  1  0  0  0  0
 26 27  1  0  0  0  0
 27 30  2  0  0  0  0
 27 31  1  0  0  0  0
 28 20  1  6  0  0  0
 28 31  1  0  0  0  0
 29 26  1  0  0  0  0
 29 28  1  0  0  0  0
 32  5  1  0  0  0  0
 34 33  1  6  0  0  0
 34 32  1  0  0  0  0
 35 36  2  0  0  0  0
 36 34  1  0  0  0  0
 37 36  1  0  0  0  0
 38 37  1  0  0  0  0
 39 40  1  0  0  0  0
 40 38  1  0  0  0  0
 41 40  1  0  0  0  0
M  END
>  <MODEL>
4

>  <REMARK>
 VINA RESULT:      -8.5      4.114      9.214
  Name = 
  11 active torsions:
  status: ('A' for Active; 'I' for Inactive)
    1  A    between atoms: C_4  and  N_9
    2  A    between atoms: C_4  and  C_18
    3  A    between atoms: C_6  and  C_25
    4  A    between atoms: C_7  and  N_16
    5  A    between atoms: C_7  and  C_29
    6  A    between atoms: N_9  and  C_30
    7  A    between atoms: C_13  and  C_29
    8  A    between atoms: C_13  and  C_39
    9  A    between atoms: C_17  and  O_33
   10  A    between atoms: C_19  and  C_34
   11  A    between atoms: O_33  and  C_39
                            x       y       z     vdW  Elec       q    Type
                         _______ _______ _______ _____ _____    ______ ____

>  <TORSDO>
F 11

$$$$
=
 OpenBabel11042412363D

 41 44  0  0  1  0  0  0  0  0999 V2000
  184.9280  178.6280  147.2090 O   0  0  0  0  0  1  0  0  0  0  0  0
  185.0380  178.2940  144.8240 C   0  0  0  0  0  3  0  0  0  0  0  0
  187.0000  177.9320  146.1940 C   0  0  0  0  0  3  0  0  0  0  0  0
  187.8410  177.2050  142.7010 N   0  0  0  0  0  0  0  0  0  0  0  0
  189.1500  176.8430  142.7890 C   0  0  0  0  0  0  0  0  0  0  0  0
  187.1110  177.5760  143.7870 C   0  0  0  0  0  0  0  0  0  0  0  0
  189.7890  176.8480  144.0310 C   0  0  0  0  0  3  0  0  0  0  0  0
  185.6550  178.2850  146.0780 C   0  0  0  0  0  0  0  0  0  0  0  0
  185.7490  177.9520  143.6680 C   0  0  0  0  0  0  0  0  0  0  0  0
  187.7290  177.5780  145.0580 C   0  0  0  0  0  0  0  0  0  0  0  0
  189.0720  177.2170  145.1700 C   0  0  0  0  0  3  0  0  0  0  0  0
  185.0500  177.9940  142.4160 N   0  0  0  0  0  2  0  0  0  0  0  0
  183.8890  178.8240  142.1320 C   0  0  0  0  0  2  0  0  0  0  0  0
  181.6800  178.4560  141.2830 O   0  0  0  0  0  0  0  0  0  0  0  0
  183.0420  178.1780  141.0540 C   0  0  1  0  0  3  0  0  0  0  0  0
  183.4500  178.7230  139.7010 C   0  0  2  0  0  3  0  0  0  0  0  0
  182.4590  180.5750  138.6150 O   0  0  0  0  0  1  0  0  0  0  0  0
  182.1960  179.3100  139.1380 C   0  0  2  0  0  3  0  0  0  0  0  0
  181.3050  179.4340  140.3450 C   0  0  0  0  0  2  0  0  0  0  0  0
  185.8140  176.8670  137.2250 C   0  0  0  0  0  0  0  0  0  0  0  0
  186.8940  177.1500  136.6380 O   0  0  0  0  0  0  0  0  0  0  0  0
  183.9840  177.6340  138.8200 C   0  0  0  0  0  0  0  0  0  0  0  0
  183.3440  176.5510  138.7200 O   0  0  0  0  0  0  0  0  0  0  0  0
  185.8860  179.0030  138.3060 O   0  0  0  0  0  1  0  0  0  0  0  0
  185.2240  177.8350  138.1150 N   0  0  0  0  0  0  0  0  0  0  0  0
  184.4860  174.1090  135.1660 N   0  0  0  0  0  2  0  0  0  0  0  0
  185.4030  173.2990  135.8820 C   0  0  0  0  0  0  0  0  0  0  0  0
  185.1650  175.5450  136.9490 C   0  0  1  0  0  3  0  0  0  0  0  0
  184.5710  175.5050  135.5450 C   0  0  0  0  0  2  0  0  0  0  0  0
  185.2130  172.0250  135.9660 N   0  0  0  0  0  2  0  0  0  0  0  0
  186.3480  174.1610  137.1190 S   0  0  0  0  0  0  0  0  0  0  0  0
  189.8610  176.4610  141.6500 O   0  0  0  0  0  0  0  0  0  0  0  0
  189.0200  177.1350  139.4900 C   0  0  0  0  0  1  0  0  0  0  0  0
  190.0810  177.3500  140.5570 C   0  0  2  0  0  3  0  0  0  0  0  0
  192.4380  177.5050  140.5740 O   0  0  0  0  0  0  0  0  0  0  0  0
  191.4410  177.1260  139.9780 C   0  0  0  0  0  0  0  0  0  0  0  0
  191.5730  176.4000  138.6790 C   0  0  0  0  0  2  0  0  0  0  0  0
  193.0190  176.3810  138.1990 C   0  0  0  0  0  2  0  0  0  0  0  0
  192.1750  174.4200  137.2420 C   0  0  0  0  0  1  0  0  0  0  0  0
  193.3890  175.0570  137.7220 N   0  0  0  0  0  0  0  0  0  0  0  0
  194.2380  175.2550  136.5630 C   0  0  0  0  0  1  0  0  0  0  0  0
  2  8  1  0  0  0  0
  4  5  2  0  0  0  0
  4  6  1  0  0  0  0
  5  7  1  0  0  0  0
  6 10  2  0  0  0  0
  7 11  2  0  0  0  0
  8  3  2  0  0  0  0
  8  1  1  0  0  0  0
  9  6  1  0  0  0  0
  9  2  2  0  0  0  0
 10 11  1  0  0  0  0
 10  3  1  0  0  0  0
 12  9  1  0  0  0  0
 13 12  1  0  0  0  0
 15 14  1  0  0  0  0
 15 13  1  1  0  0  0
 16 22  1  6  0  0  0
 16 15  1  0  0  0  0
 18 17  1  1  0  0  0
 18 16  1  0  0  0  0
 18 19  1  0  0  0  0
 19 14  1  0  0  0  0
 20 25  1  0  0  0  0
 21 20  2  0  0  0  0
 23 22  2  0  0  0  0
 25 24  1  0  0  0  0
 25 22  1  0  0  0  0
 26 29  1  0  0  0  0
 26 27  1  0  0  0  0
 27 30  2  0  0  0  0
 27 31  1  0  0  0  0
 28 31  1  0  0  0  0
 28 20  1  6  0  0  0
 29 28  1  0  0  0  0
 32  5  1  0  0  0  0
 34 33  1  6  0  0  0
 34 32  1  0  0  0  0
 36 34  1  0  0  0  0
 36 35  2  0  0  0  0
 37 36  1  0  0  0  0
 38 37  1  0  0  0  0
 39 40  1  0  0  0  0
 40 38  1  0  0  0  0
 41 40  1  0  0  0  0
M  END
>  <MODEL>
5

>  <REMARK>
 VINA RESULT:      -8.4      3.116      7.165
  Name = 
  11 active torsions:
  status: ('A' for Active; 'I' for Inactive)
    1  A    between atoms: C_4  and  N_9
    2  A    between atoms: C_4  and  C_18
    3  A    between atoms: C_6  and  C_25
    4  A    between atoms: C_7  and  N_16
    5  A    between atoms: C_7  and  C_29
    6  A    between atoms: N_9  and  C_30
    7  A    between atoms: C_13  and  C_29
    8  A    between atoms: C_13  and  C_39
    9  A    between atoms: C_17  and  O_33
   10  A    between atoms: C_19  and  C_34
   11  A    between atoms: O_33  and  C_39
                            x       y       z     vdW  Elec       q    Type
                         _______ _______ _______ _____ _____    ______ ____

>  <TORSDO>
F 11

$$$$
=
 OpenBabel11042412363D

 41 44  0  0  1  0  0  0  0  0999 V2000
  190.4030  176.9320  146.6630 O   0  0  0  0  0  1  0  0  0  0  0  0
  189.4690  176.8930  144.4410 C   0  0  0  0  0  3  0  0  0  0  0  0
  188.1300  177.6490  146.3110 C   0  0  0  0  0  3  0  0  0  0  0  0
  186.1320  177.8880  143.2460 N   0  0  0  0  0  0  0  0  0  0  0  0
  184.9510  178.3800  143.7110 C   0  0  0  0  0  0  0  0  0  0  0  0
  187.1860  177.6270  144.0650 C   0  0  0  0  0  0  0  0  0  0  0  0
  184.7920  178.6300  145.0750 C   0  0  0  0  0  3  0  0  0  0  0  0
  189.3350  177.1580  145.8070 C   0  0  0  0  0  0  0  0  0  0  0  0
  188.4060  177.1120  143.5570 C   0  0  0  0  0  0  0  0  0  0  0  0
  187.0580  177.8840  145.4490 C   0  0  0  0  0  0  0  0  0  0  0  0
  185.8530  178.3820  145.9460 C   0  0  0  0  0  3  0  0  0  0  0  0
  188.6160  176.8060  142.1710 N   0  0  0  0  0  2  0  0  0  0  0  0
  189.1490  177.7290  141.1810 C   0  0  0  0  0  2  0  0  0  0  0  0
  187.6540  177.1660  139.3970 O   0  0  0  0  0  0  0  0  0  0  0  0
  189.0050  177.1390  139.7920 C   0  0  1  0  0  3  0  0  0  0  0  0
  189.8350  177.9470  138.8160 C   0  0  2  0  0  3  0  0  0  0  0  0
  189.0480  179.7740  137.5340 O   0  0  0  0  0  1  0  0  0  0  0  0
  188.8540  178.4160  137.7890 C   0  0  2  0  0  3  0  0  0  0  0  0
  187.5260  178.2100  138.4650 C   0  0  0  0  0  2  0  0  0  0  0  0
  193.2650  176.1570  138.3820 C   0  0  0  0  0  0  0  0  0  0  0  0
  194.3240  176.0760  139.0630 O   0  0  0  0  0  0  0  0  0  0  0  0
  190.9100  177.1060  138.1970 C   0  0  0  0  0  0  0  0  0  0  0  0
  190.7010  176.5600  137.0790 O   0  0  0  0  0  0  0  0  0  0  0  0
  192.2980  177.4970  140.1150 O   0  0  0  0  0  1  0  0  0  0  0  0
  192.1580  176.9230  138.8950 N   0  0  0  0  0  0  0  0  0  0  0  0
  194.5120  175.0490  135.0920 N   0  0  0  0  0  2  0  0  0  0  0  0
  194.2140  173.7440  135.5570 C   0  0  0  0  0  0  0  0  0  0  0  0
  193.2110  175.4800  137.0460 C   0  0  1  0  0  3  0  0  0  0  0  0
  194.2440  176.0650  136.0890 C   0  0  0  0  0  2  0  0  0  0  0  0
  194.0210  172.7850  134.7150 N   0  0  0  0  0  2  0  0  0  0  0  0
  193.5020  173.6800  137.1860 S   0  0  0  0  0  0  0  0  0  0  0  0
  183.8950  178.6400  142.8350 O   0  0  0  0  0  0  0  0  0  0  0  0
  184.8150  179.1770  140.6680 C   0  0  0  0  0  1  0  0  0  0  0  0
  183.9250  178.2390  141.4670 C   0  0  2  0  0  3  0  0  0  0  0  0
  181.5990  178.6400  141.5680 O   0  0  0  0  0  0  0  0  0  0  0  0
  182.5420  178.2400  140.9000 C   0  0  0  0  0  0  0  0  0  0  0  0
  182.3260  177.7840  139.4930 C   0  0  0  0  0  2  0  0  0  0  0  0
  182.6670  176.3080  139.3300 C   0  0  0  0  0  2  0  0  0  0  0  0
  183.9940  175.4530  137.6030 C   0  0  0  0  0  1  0  0  0  0  0  0
  182.6590  175.9280  137.9260 N   0  0  0  0  0  0  0  0  0  0  0  0
  181.7750  174.7840  137.8110 C   0  0  0  0  0  1  0  0  0  0  0  0
  2  8  1  0  0  0  0
  4  5  2  0  0  0  0
  4  6  1  0  0  0  0
  5  7  1  0  0  0  0
  6 10  2  0  0  0  0
  7 11  2  0  0  0  0
  8  3  2  0  0  0  0
  8  1  1  0  0  0  0
  9  6  1  0  0  0  0
  9  2  2  0  0  0  0
 10 11  1  0  0  0  0
 10  3  1  0  0  0  0
 12  9  1  0  0  0  0
 13 12  1  0  0  0  0
 14 15  1  0  0  0  0
 15 13  1  1  0  0  0
 16 22  1  6  0  0  0
 16 15  1  0  0  0  0
 18 17  1  1  0  0  0
 18 19  1  0  0  0  0
 18 16  1  0  0  0  0
 19 14  1  0  0  0  0
 20 25  1  0  0  0  0
 20 21  2  0  0  0  0
 22 25  1  0  0  0  0
 23 22  2  0  0  0  0
 25 24  1  0  0  0  0
 26 27  1  0  0  0  0
 26 29  1  0  0  0  0
 27 31  1  0  0  0  0
 28 31  1  0  0  0  0
 28 20  1  1  0  0  0
 29 28  1  0  0  0  0
 30 27  2  0  0  0  0
 32  5  1  0  0  0  0
 34 33  1  6  0  0  0
 34 32  1  0  0  0  0
 36 34  1  0  0  0  0
 36 35  2  0  0  0  0
 37 36  1  0  0  0  0
 38 37  1  0  0  0  0
 39 40  1  0  0  0  0
 40 38  1  0  0  0  0
 41 40  1  0  0  0  0
M  END
>  <MODEL>
6

>  <REMARK>
 VINA RESULT:      -8.2      1.842      2.410
  Name = 
  11 active torsions:
  status: ('A' for Active; 'I' for Inactive)
    1  A    between atoms: C_4  and  N_9
    2  A    between atoms: C_4  and  C_18
    3  A    between atoms: C_6  and  C_25
    4  A    between atoms: C_7  and  N_16
    5  A    between atoms: C_7  and  C_29
    6  A    between atoms: N_9  and  C_30
    7  A    between atoms: C_13  and  C_29
    8  A    between atoms: C_13  and  C_39
    9  A    between atoms: C_17  and  O_33
   10  A    between atoms: C_19  and  C_34
   11  A    between atoms: O_33  and  C_39
                            x       y       z     vdW  Elec       q    Type
                         _______ _______ _______ _____ _____    ______ ____

>  <TORSDO>
F 11

$$$$
=
 OpenBabel11042412363D

 41 44  0  0  1  0  0  0  0  0999 V2000
  184.9320  178.7000  147.0310 O   0  0  0  0  0  1  0  0  0  0  0  0
  185.1090  178.5380  144.6320 C   0  0  0  0  0  3  0  0  0  0  0  0
  186.9670  177.8780  146.0370 C   0  0  0  0  0  3  0  0  0  0  0  0
  187.8800  177.3360  142.5270 N   0  0  0  0  0  0  0  0  0  0  0  0
  189.1440  176.8390  142.6330 C   0  0  0  0  0  0  0  0  0  0  0  0
  187.1450  177.6960  143.6140 C   0  0  0  0  0  0  0  0  0  0  0  0
  189.7270  176.6870  143.8920 C   0  0  0  0  0  3  0  0  0  0  0  0
  185.6700  178.3720  145.9020 C   0  0  0  0  0  0  0  0  0  0  0  0
  185.8320  178.2140  143.4780 C   0  0  0  0  0  0  0  0  0  0  0  0
  187.7060  177.5400  144.9020 C   0  0  0  0  0  0  0  0  0  0  0  0
  189.0010  177.0380  145.0310 C   0  0  0  0  0  3  0  0  0  0  0  0
  185.1940  178.4210  142.2090 N   0  0  0  0  0  2  0  0  0  0  0  0
  183.7870  178.7390  142.0210 C   0  0  0  0  0  2  0  0  0  0  0  0
  181.9140  178.1940  140.6320 O   0  0  0  0  0  0  0  0  0  0  0  0
  183.3210  178.2450  140.6660 C   0  0  1  0  0  3  0  0  0  0  0  0
  183.8200  179.1880  139.5900 C   0  0  2  0  0  3  0  0  0  0  0  0
  182.6230  181.0370  138.7270 O   0  0  0  0  0  1  0  0  0  0  0  0
  182.5810  179.6530  138.8950 C   0  0  2  0  0  3  0  0  0  0  0  0
  181.4890  179.2920  139.8640 C   0  0  0  0  0  2  0  0  0  0  0  0
  184.9900  176.9370  136.6370 C   0  0  0  0  0  0  0  0  0  0  0  0
  184.4110  176.2400  135.7600 O   0  0  0  0  0  0  0  0  0  0  0  0
  184.7440  178.4840  138.6430 C   0  0  0  0  0  0  0  0  0  0  0  0
  185.9910  178.6210  138.7800 O   0  0  0  0  0  0  0  0  0  0  0  0
  182.8460  177.6110  137.4640 O   0  0  0  0  0  1  0  0  0  0  0  0
  184.1950  177.6750  137.5850 N   0  0  0  0  0  0  0  0  0  0  0  0
  188.3980  175.5860  136.2300 N   0  0  0  0  0  2  0  0  0  0  0  0
  188.6040  176.6990  135.3770 C   0  0  0  0  0  0  0  0  0  0  0  0
  186.4880  176.9450  136.6810 C   0  0  1  0  0  3  0  0  0  0  0  0
  187.0450  175.5260  136.7430 C   0  0  0  0  0  2  0  0  0  0  0  0
  189.8000  177.1260  135.1470 N   0  0  0  0  0  2  0  0  0  0  0  0
  187.2050  177.7880  135.2260 S   0  0  0  0  0  0  0  0  0  0  0  0
  189.8610  176.4750  141.4920 O   0  0  0  0  0  0  0  0  0  0  0  0
  189.0980  177.2760  139.3470 C   0  0  0  0  0  1  0  0  0  0  0  0
  190.1430  177.3990  140.4440 C   0  0  2  0  0  3  0  0  0  0  0  0
  192.5030  177.5050  140.4880 O   0  0  0  0  0  0  0  0  0  0  0  0
  191.5050  177.1410  139.8830 C   0  0  0  0  0  0  0  0  0  0  0  0
  191.6380  176.3990  138.5930 C   0  0  0  0  0  2  0  0  0  0  0  0
  193.0850  176.3670  138.1170 C   0  0  0  0  0  2  0  0  0  0  0  0
  194.2380  174.3370  137.9570 C   0  0  0  0  0  1  0  0  0  0  0  0
  193.3220  175.2200  137.2550 N   0  0  0  0  0  0  0  0  0  0  0  0
  192.0610  174.5100  137.1540 C   0  0  0  0  0  1  0  0  0  0  0  0
  2  8  1  0  0  0  0
  4  5  2  0  0  0  0
  4  6  1  0  0  0  0
  5  7  1  0  0  0  0
  6 10  2  0  0  0  0
  7 11  2  0  0  0  0
  8  3  2  0  0  0  0
  8  1  1  0  0  0  0
  9  6  1  0  0  0  0
  9  2  2  0  0  0  0
 10 11  1  0  0  0  0
 10  3  1  0  0  0  0
 12  9  1  0  0  0  0
 13 12  1  0  0  0  0
 14 15  1  0  0  0  0
 15 13  1  1  0  0  0
 16 22  1  6  0  0  0
 16 15  1  0  0  0  0
 18 17  1  1  0  0  0
 18 16  1  0  0  0  0
 18 19  1  0  0  0  0
 19 14  1  0  0  0  0
 20 25  1  0  0  0  0
 21 20  2  0  0  0  0
 22 23  2  0  0  0  0
 24 25  1  0  0  0  0
 25 22  1  0  0  0  0
 26 29  1  0  0  0  0
 27 26  1  0  0  0  0
 28 20  1  6  0  0  0
 28 29  1  0  0  0  0
 30 27  2  0  0  0  0
 31 27  1  0  0  0  0
 31 28  1  0  0  0  0
 32  5  1  0  0  0  0
 34 33  1  6  0  0  0
 34 32  1  0  0  0  0
 36 34  1  0  0  0  0
 36 35  2  0  0  0  0
 37 36  1  0  0  0  0
 38 37  1  0  0  0  0
 40 39  1  0  0  0  0
 40 38  1  0  0  0  0
 41 40  1  0  0  0  0
M  END
>  <MODEL>
7

>  <REMARK>
 VINA RESULT:      -8.2      2.890      7.149
  Name = 
  11 active torsions:
  status: ('A' for Active; 'I' for Inactive)
    1  A    between atoms: C_4  and  N_9
    2  A    between atoms: C_4  and  C_18
    3  A    between atoms: C_6  and  C_25
    4  A    between atoms: C_7  and  N_16
    5  A    between atoms: C_7  and  C_29
    6  A    between atoms: N_9  and  C_30
    7  A    between atoms: C_13  and  C_29
    8  A    between atoms: C_13  and  C_39
    9  A    between atoms: C_17  and  O_33
   10  A    between atoms: C_19  and  C_34
   11  A    between atoms: O_33  and  C_39
                            x       y       z     vdW  Elec       q    Type
                         _______ _______ _______ _____ _____    ______ ____

>  <TORSDO>
F 11

$$$$
=
 OpenBabel11042412363D

 41 44  0  0  1  0  0  0  0  0999 V2000
  187.8390  177.9750  147.9660 O   0  0  0  0  0  1  0  0  0  0  0  0
  187.6760  177.1970  145.6900 C   0  0  0  0  0  3  0  0  0  0  0  0
  185.9690  178.6500  146.6040 C   0  0  0  0  0  3  0  0  0  0  0  0
  185.1390  177.8910  143.1140 N   0  0  0  0  0  0  0  0  0  0  0  0
  183.9810  178.5860  142.9370 C   0  0  0  0  0  0  0  0  0  0  0  0
  185.8090  177.8800  144.2980 C   0  0  0  0  0  0  0  0  0  0  0  0
  183.4410  179.3170  143.9960 C   0  0  0  0  0  3  0  0  0  0  0  0
  187.1610  177.9410  146.7550 C   0  0  0  0  0  0  0  0  0  0  0  0
  187.0120  177.1470  144.4590 C   0  0  0  0  0  0  0  0  0  0  0  0
  185.2920  178.6230  145.3840 C   0  0  0  0  0  0  0  0  0  0  0  0
  184.1030  179.3350  145.2250 C   0  0  0  0  0  3  0  0  0  0  0  0
  187.5970  176.3540  143.4160 N   0  0  0  0  0  2  0  0  0  0  0  0
  189.0170  176.2860  143.1100 C   0  0  0  0  0  2  0  0  0  0  0  0
  190.0740  178.4070  142.7690 O   0  0  0  0  0  0  0  0  0  0  0  0
  189.3850  177.3680  142.1150 C   0  0  1  0  0  3  0  0  0  0  0  0
  190.2670  176.7760  141.0340 C   0  0  2  0  0  3  0  0  0  0  0  0
  192.6330  176.7480  141.0610 O   0  0  0  0  0  1  0  0  0  0  0  0
  191.5210  177.5890  141.0860 C   0  0  2  0  0  3  0  0  0  0  0  0
  191.4300  178.2730  142.4230 C   0  0  0  0  0  2  0  0  0  0  0  0
  189.6220  176.1750  137.2430 C   0  0  0  0  0  0  0  0  0  0  0  0
  190.1880  175.5080  136.3340 O   0  0  0  0  0  0  0  0  0  0  0  0
  189.6110  176.8720  139.6900 C   0  0  0  0  0  0  0  0  0  0  0  0
  188.5800  177.5870  139.5560 O   0  0  0  0  0  0  0  0  0  0  0  0
  191.2370  175.3460  138.8050 O   0  0  0  0  0  1  0  0  0  0  0  0
  190.1580  176.1350  138.5790 N   0  0  0  0  0  0  0  0  0  0  0  0
  187.2950  177.9960  135.0340 N   0  0  0  0  0  2  0  0  0  0  0  0
  186.3030  177.1490  135.5870 C   0  0  0  0  0  0  0  0  0  0  0  0
  188.4300  177.0110  136.8890 C   0  0  1  0  0  3  0  0  0  0  0  0
  188.6190  177.7000  135.5420 C   0  0  0  0  0  2  0  0  0  0  0  0
  185.0620  177.5020  135.5590 N   0  0  0  0  0  2  0  0  0  0  0  0
  186.8980  176.0150  136.8230 S   0  0  0  0  0  0  0  0  0  0  0  0
  183.3290  178.5760  141.7020 O   0  0  0  0  0  0  0  0  0  0  0  0
  184.8410  178.8960  139.8480 C   0  0  0  0  0  1  0  0  0  0  0  0
  183.8870  177.9450  140.5520 C   0  0  2  0  0  3  0  0  0  0  0  0
  182.2450  178.3500  138.9020 O   0  0  0  0  0  0  0  0  0  0  0  0
  182.7990  177.5270  139.6160 C   0  0  0  0  0  0  0  0  0  0  0  0
  182.4180  176.0840  139.5330 C   0  0  0  0  0  2  0  0  0  0  0  0
  183.1790  175.3730  138.4210 C   0  0  0  0  0  2  0  0  0  0  0  0
  183.0740  174.5090  136.2490 C   0  0  0  0  0  1  0  0  0  0  0  0
  182.4480  175.4460  137.1650 N   0  0  0  0  0  0  0  0  0  0  0  0
  181.1160  174.9360  137.4310 C   0  0  0  0  0  1  0  0  0  0  0  0
  2  8  1  0  0  0  0
  3  8  2  0  0  0  0
  4  6  1  0  0  0  0
  5  4  2  0  0  0  0
  5  7  1  0  0  0  0
  6  9  1  0  0  0  0
  6 10  2  0  0  0  0
  7 11  2  0  0  0  0
  8  1  1  0  0  0  0
  9  2  2  0  0  0  0
 10  3  1  0  0  0  0
 11 10  1  0  0  0  0
 12  9  1  0  0  0  0
 13 12  1  0  0  0  0
 15 14  1  0  0  0  0
 15 13  1  1  0  0  0
 16 22  1  6  0  0  0
 16 18  1  0  0  0  0
 16 15  1  0  0  0  0
 18 17  1  1  0  0  0
 18 19  1  0  0  0  0
 19 14  1  0  0  0  0
 20 25  1  0  0  0  0
 21 20  2  0  0  0  0
 23 22  2  0  0  0  0
 25 24  1  0  0  0  0
 25 22  1  0  0  0  0
 26 29  1  0  0  0  0
 26 27  1  0  0  0  0
 27 31  1  0  0  0  0
 28 20  1  6  0  0  0
 29 28  1  0  0  0  0
 30 27  2  0  0  0  0
 31 28  1  0  0  0  0
 32  5  1  0  0  0  0
 34 33  1  6  0  0  0
 34 32  1  0  0  0  0
 35 36  2  0  0  0  0
 36 34  1  0  0  0  0
 37 36  1  0  0  0  0
 38 37  1  0  0  0  0
 39 40  1  0  0  0  0
 40 41  1  0  0  0  0
 40 38  1  0  0  0  0
M  END
>  <MODEL>
8

>  <REMARK>
 VINA RESULT:      -8.0      2.937      4.384
  Name = 
  11 active torsions:
  status: ('A' for Active; 'I' for Inactive)
    1  A    between atoms: C_4  and  N_9
    2  A    between atoms: C_4  and  C_18
    3  A    between atoms: C_6  and  C_25
    4  A    between atoms: C_7  and  N_16
    5  A    between atoms: C_7  and  C_29
    6  A    between atoms: N_9  and  C_30
    7  A    between atoms: C_13  and  C_29
    8  A    between atoms: C_13  and  C_39
    9  A    between atoms: C_17  and  O_33
   10  A    between atoms: C_19  and  C_34
   11  A    between atoms: O_33  and  C_39
                            x       y       z     vdW  Elec       q    Type
                         _______ _______ _______ _____ _____    ______ ____

>  <TORSDO>
F 11

$$$$
=
 OpenBabel11042412363D

 41 44  0  0  1  0  0  0  0  0999 V2000
  189.0020  177.7130  147.2040 O   0  0  0  0  0  1  0  0  0  0  0  0
  188.6070  177.2970  144.8630 C   0  0  0  0  0  3  0  0  0  0  0  0
  186.8470  178.2130  146.2500 C   0  0  0  0  0  3  0  0  0  0  0  0
  185.6020  177.8800  142.8180 N   0  0  0  0  0  0  0  0  0  0  0  0
  184.3280  178.3490  142.9270 C   0  0  0  0  0  0  0  0  0  0  0  0
  186.4480  177.8110  143.8810 C   0  0  0  0  0  0  0  0  0  0  0  0
  183.8510  178.7760  144.1680 C   0  0  0  0  0  3  0  0  0  0  0  0
  188.1520  177.7410  146.1080 C   0  0  0  0  0  0  0  0  0  0  0  0
  187.7690  177.3160  143.7420 C   0  0  0  0  0  0  0  0  0  0  0  0
  185.9950  178.2490  145.1460 C   0  0  0  0  0  0  0  0  0  0  0  0
  184.6910  178.7270  145.2800 C   0  0  0  0  0  3  0  0  0  0  0  0
  188.3040  176.8340  142.5000 N   0  0  0  0  0  2  0  0  0  0  0  0
  189.0750  177.6280  141.5560 C   0  0  0  0  0  2  0  0  0  0  0  0
  187.5520  177.1740  139.7650 O   0  0  0  0  0  0  0  0  0  0  0  0
  188.9020  177.0780  140.1540 C   0  0  1  0  0  3  0  0  0  0  0  0
  189.7640  177.8720  139.1940 C   0  0  2  0  0  3  0  0  0  0  0  0
  189.0550  179.7610  137.9590 O   0  0  0  0  0  1  0  0  0  0  0  0
  188.8020  178.4090  138.1820 C   0  0  2  0  0  3  0  0  0  0  0  0
  187.4680  178.2450  138.8580 C   0  0  0  0  0  2  0  0  0  0  0  0
  193.2040  176.1650  138.5550 C   0  0  0  0  0  0  0  0  0  0  0  0
  194.3390  176.2070  139.1040 O   0  0  0  0  0  0  0  0  0  0  0  0
  190.7990  176.9990  138.5520 C   0  0  0  0  0  0  0  0  0  0  0  0
  190.4860  176.3110  137.5420 O   0  0  0  0  0  0  0  0  0  0  0  0
  192.3830  177.6750  140.2230 O   0  0  0  0  0  1  0  0  0  0  0  0
  192.1280  176.9490  139.1060 N   0  0  0  0  0  0  0  0  0  0  0  0
  193.8030  175.0670  135.0850 N   0  0  0  0  0  2  0  0  0  0  0  0
  194.1240  173.8160  135.6670 C   0  0  0  0  0  0  0  0  0  0  0  0
  193.0260  175.3250  137.3270 C   0  0  1  0  0  3  0  0  0  0  0  0
  193.4800  176.0720  136.0770 C   0  0  0  0  0  2  0  0  0  0  0  0
  194.0570  172.7370  134.9610 N   0  0  0  0  0  2  0  0  0  0  0  0
  193.9580  173.7560  137.4370 S   0  0  0  0  0  0  0  0  0  0  0  0
  183.4950  178.4100  141.8090 O   0  0  0  0  0  0  0  0  0  0  0  0
  184.3240  179.5290  139.8380 C   0  0  0  0  0  1  0  0  0  0  0  0
  183.9800  178.1980  140.4860 C   0  0  2  0  0  3  0  0  0  0  0  0
  182.5820  176.3600  139.9850 O   0  0  0  0  0  0  0  0  0  0  0  0
  182.9530  177.4810  139.6690 C   0  0  0  0  0  0  0  0  0  0  0  0
  182.3540  178.1640  138.4830 C   0  0  0  0  0  2  0  0  0  0  0  0
  180.8820  178.4840  138.7120 C   0  0  0  0  0  2  0  0  0  0  0  0
  180.3490  180.7350  139.0660 C   0  0  0  0  0  1  0  0  0  0  0  0
  180.7280  179.5040  139.7380 N   0  0  0  0  0  0  0  0  0  0  0  0
  179.5910  179.1090  140.5480 C   0  0  0  0  0  1  0  0  0  0  0  0
  2  8  1  0  0  0  0
  4  5  2  0  0  0  0
  4  6  1  0  0  0  0
  5  7  1  0  0  0  0
  6 10  2  0  0  0  0
  7 11  2  0  0  0  0
  8  3  2  0  0  0  0
  8  1  1  0  0  0  0
  9  6  1  0  0  0  0
  9  2  2  0  0  0  0
 10 11  1  0  0  0  0
 10  3  1  0  0  0  0
 12  9  1  0  0  0  0
 13 12  1  0  0  0  0
 14 15  1  0  0  0  0
 15 13  1  1  0  0  0
 16 22  1  6  0  0  0
 16 15  1  0  0  0  0
 18 17  1  1  0  0  0
 18 19  1  0  0  0  0
 18 16  1  0  0  0  0
 19 14  1  0  0  0  0
 20 21  2  0  0  0  0
 20 25  1  0  0  0  0
 22 25  1  0  0  0  0
 23 22  2  0  0  0  0
 25 24  1  0  0  0  0
 26 27  1  0  0  0  0
 26 29  1  0  0  0  0
 27 31  1  0  0  0  0
 28 31  1  0  0  0  0
 28 20  1  1  0  0  0
 29 28  1  0  0  0  0
 30 27  2  0  0  0  0
 32  5  1  0  0  0  0
 34 33  1  6  0  0  0
 34 32  1  0  0  0  0
 36 35  2  0  0  0  0
 36 34  1  0  0  0  0
 37 38  1  0  0  0  0
 37 36  1  0  0  0  0
 38 40  1  0  0  0  0
 39 40  1  0  0  0  0
 40 41  1  0  0  0  0
M  END
>  <MODEL>
9

>  <REMARK>
 VINA RESULT:      -7.9      1.750      2.738
  Name = 
  11 active torsions:
  status: ('A' for Active; 'I' for Inactive)
    1  A    between atoms: C_4  and  N_9
    2  A    between atoms: C_4  and  C_18
    3  A    between atoms: C_6  and  C_25
    4  A    between atoms: C_7  and  N_16
    5  A    between atoms: C_7  and  C_29
    6  A    between atoms: N_9  and  C_30
    7  A    between atoms: C_13  and  C_29
    8  A    between atoms: C_13  and  C_39
    9  A    between atoms: C_17  and  O_33
   10  A    between atoms: C_19  and  C_34
   11  A    between atoms: O_33  and  C_39
                            x       y       z     vdW  Elec       q    Type
                         _______ _______ _______ _____ _____    ______ ____

>  <TORSDO>
F 11

$$$$
