=
 OpenBabel11042410553D

 26 27  0  0  1  0  0  0  0  0999 V2000
  189.9310  177.0370  139.7930 C   0  0  0  0  0  0  0  0  0  0  0  0
  188.3310  178.6950  139.7670 N   0  0  0  0  0  0  0  0  0  0  0  0
  188.9520  177.7280  140.6030 C   0  0  0  0  0  0  0  0  0  0  0  0
  190.6920  176.1030  140.1610 O   0  0  0  0  0  0  0  0  0  0  0  0
  188.6840  177.5620  141.9080 C   0  0  1  0  0  3  0  0  0  0  0  0
  189.9010  177.5510  138.5120 O   0  0  0  0  0  0  0  0  0  0  0  0
  188.9210  178.5860  138.4300 C   0  0  0  0  0  2  0  0  0  0  0  0
  188.8070  175.4570  143.0020 O   0  0  0  0  0  1  0  0  0  0  0  0
  189.5150  176.6310  142.7390 C   0  0  2  0  0  3  0  0  0  0  0  0
  189.9120  177.3090  144.0470 C   0  0  0  0  0  2  0  0  0  0  0  0
  191.2030  178.1050  143.9040 C   0  0  0  0  0  0  0  0  0  0  0  0
  191.9000  177.6410  142.8080 F   0  0  0  0  0  0  0  0  0  0  0  0
  191.9860  177.9480  145.0350 F   0  0  0  0  0  0  0  0  0  0  0  0
  190.9210  179.4460  143.7210 F   0  0  0  0  0  0  0  0  0  0  0  0
  187.6980  178.3700  142.5710 N   0  0  0  0  0  2  0  0  0  0  0  0
  186.4000  178.2420  144.6750 C   0  0  0  0  0  2  0  0  0  0  0  0
  184.9450  178.2660  145.1400 C   0  0  0  0  0  2  0  0  0  0  0  0
  186.4810  177.8570  143.1980 C   0  0  0  0  0  3  0  0  0  0  0  0
  184.1370  179.2610  144.4100 N   0  0  0  0  0  0  0  0  0  0  0  0
  184.5610  179.4730  143.0140 C   0  0  0  0  0  2  0  0  0  0  0  0
  185.2280  178.2400  142.4010 C   0  0  0  0  0  2  0  0  0  0  0  0
  182.7710  178.7520  144.3720 C   0  0  0  0  0  2  0  0  0  0  0  0
  182.0520  179.3570  143.3010 O   0  0  0  0  0  0  0  0  0  0  0  0
  180.6640  179.5250  143.3230 C   0  0  0  0  0  0  0  0  0  0  0  0
  180.1510  180.5030  142.7170 O   0  0  0  0  0  0  0  0  0  0  0  0
  179.7710  178.5770  144.0550 C   0  0  0  0  0  1  0  0  0  0  0  0
  1  4  2  0  0  0  0
  1  3  1  0  0  0  0
  2  3  2  0  0  0  0
  3  5  1  0  0  0  0
  5 15  1  1  0  0  0
  5  9  1  0  0  0  0
  6  1  1  0  0  0  0
  7  6  1  0  0  0  0
  7  2  1  0  0  0  0
  9  8  1  1  0  0  0
  9 10  1  0  0  0  0
 11 10  1  0  0  0  0
 11 13  1  0  0  0  0
 12 11  1  0  0  0  0
 14 11  1  0  0  0  0
 15 18  1  0  0  0  0
 16 17  1  0  0  0  0
 18 16  1  0  0  0  0
 19 17  1  0  0  0  0
 20 19  1  0  0  0  0
 21 20  1  0  0  0  0
 21 18  1  0  0  0  0
 22 19  1  0  0  0  0
 23 24  1  0  0  0  0
 23 22  1  0  0  0  0
 24 26  1  0  0  0  0
 25 24  2  0  0  0  0
M  END
>  <MODEL>
1

>  <REMARK>
 VINA RESULT:      -7.1      0.000      0.000
  Name = 
  8 active torsions:
  status: ('A' for Active; 'I' for Inactive)
    1  A    between atoms: C_3  and  C_20
    2  A    between atoms: C_4  and  N_18
    3  A    between atoms: C_4  and  O_19
    4  A    between atoms: C_7  and  O_19
    5  A    between atoms: C_10  and  C_14
    6  A    between atoms: C_10  and  C_20
    7  A    between atoms: C_14  and  N_21
    8  A    between atoms: C_16  and  N_21
                            x       y       z     vdW  Elec       q    Type
                         _______ _______ _______ _____ _____    ______ ____

>  <TORSDO>
F 8

$$$$
=
 OpenBabel11042410553D

 26 27  0  0  1  0  0  0  0  0999 V2000
  188.2850  177.8850  146.7910 C   0  0  0  0  0  0  0  0  0  0  0  0
  187.3190  177.1520  144.8300 N   0  0  0  0  0  0  0  0  0  0  0  0
  188.5680  177.4430  145.4420 C   0  0  0  0  0  0  0  0  0  0  0  0
  189.1220  178.2420  147.6600 O   0  0  0  0  0  0  0  0  0  0  0  0
  189.7640  177.2730  144.8550 C   0  0  1  0  0  3  0  0  0  0  0  0
  186.9180  177.8760  146.9900 O   0  0  0  0  0  0  0  0  0  0  0  0
  186.2590  177.4310  145.8030 C   0  0  0  0  0  2  0  0  0  0  0  0
  191.8950  178.3150  144.9810 O   0  0  0  0  0  1  0  0  0  0  0  0
  191.0260  177.4490  145.6460 C   0  0  2  0  0  3  0  0  0  0  0  0
  191.6980  176.0970  145.8660 C   0  0  0  0  0  2  0  0  0  0  0  0
  191.9930  175.8430  147.3390 C   0  0  0  0  0  0  0  0  0  0  0  0
  191.1330  174.8740  147.8100 F   0  0  0  0  0  0  0  0  0  0  0  0
  191.8050  177.0050  148.0690 F   0  0  0  0  0  0  0  0  0  0  0  0
  193.2940  175.4040  147.4980 F   0  0  0  0  0  0  0  0  0  0  0  0
  189.8660  176.7840  143.5090 N   0  0  0  0  0  2  0  0  0  0  0  0
  190.9090  176.8080  141.2630 C   0  0  0  0  0  2  0  0  0  0  0  0
  190.6800  177.4340  139.8900 C   0  0  0  0  0  2  0  0  0  0  0  0
  190.1750  177.6080  142.3410 C   0  0  0  0  0  3  0  0  0  0  0  0
  189.2570  177.4380  139.5020 N   0  0  0  0  0  0  0  0  0  0  0  0
  188.3260  177.5740  140.6370 C   0  0  0  0  0  2  0  0  0  0  0  0
  188.9330  178.3360  141.8160 C   0  0  0  0  0  2  0  0  0  0  0  0
  189.0550  178.5950  138.6390 C   0  0  0  0  0  2  0  0  0  0  0  0
  187.6660  178.7830  138.3860 O   0  0  0  0  0  0  0  0  0  0  0  0
  187.0210  178.2380  137.2720 C   0  0  0  0  0  0  0  0  0  0  0  0
  187.4150  178.5490  136.1160 O   0  0  0  0  0  0  0  0  0  0  0  0
  185.8660  177.3010  137.4150 C   0  0  0  0  0  1  0  0  0  0  0  0
  1  6  1  0  0  0  0
  1  4  2  0  0  0  0
  2  3  2  0  0  0  0
  2  7  1  0  0  0  0
  3  1  1  0  0  0  0
  5 15  1  1  0  0  0
  5  3  1  0  0  0  0
  5  9  1  0  0  0  0
  7  6  1  0  0  0  0
  9  8  1  6  0  0  0
  9 10  1  0  0  0  0
 10 11  1  0  0  0  0
 11 14  1  0  0  0  0
 11 12  1  0  0  0  0
 11 13  1  0  0  0  0
 16 18  1  0  0  0  0
 17 16  1  0  0  0  0
 18 15  1  0  0  0  0
 19 17  1  0  0  0  0
 19 20  1  0  0  0  0
 20 21  1  0  0  0  0
 21 18  1  0  0  0  0
 22 19  1  0  0  0  0
 23 22  1  0  0  0  0
 24 26  1  0  0  0  0
 24 23  1  0  0  0  0
 25 24  2  0  0  0  0
M  END
>  <MODEL>
2

>  <REMARK>
 VINA RESULT:      -6.9      3.911      6.382
  Name = 
  8 active torsions:
  status: ('A' for Active; 'I' for Inactive)
    1  A    between atoms: C_3  and  C_20
    2  A    between atoms: C_4  and  N_18
    3  A    between atoms: C_4  and  O_19
    4  A    between atoms: C_7  and  O_19
    5  A    between atoms: C_10  and  C_14
    6  A    between atoms: C_10  and  C_20
    7  A    between atoms: C_14  and  N_21
    8  A    between atoms: C_16  and  N_21
                            x       y       z     vdW  Elec       q    Type
                         _______ _______ _______ _____ _____    ______ ____

>  <TORSDO>
F 8

$$$$
=
 OpenBabel11042410553D

 26 27  0  0  1  0  0  0  0  0999 V2000
  185.1220  179.0620  145.7490 C   0  0  0  0  0  0  0  0  0  0  0  0
  184.7500  178.1380  143.6700 N   0  0  0  0  0  0  0  0  0  0  0  0
  185.7610  178.3970  144.6340 C   0  0  0  0  0  0  0  0  0  0  0  0
  185.6740  179.4630  146.8070 O   0  0  0  0  0  0  0  0  0  0  0  0
  187.0460  178.0270  144.5120 C   0  0  1  0  0  3  0  0  0  0  0  0
  183.7770  179.2140  145.4720 O   0  0  0  0  0  0  0  0  0  0  0  0
  183.4830  178.6610  144.1890 C   0  0  0  0  0  2  0  0  0  0  0  0
  189.3060  178.3020  145.1900 O   0  0  0  0  0  1  0  0  0  0  0  0
  187.9960  178.1970  145.6600 C   0  0  2  0  0  3  0  0  0  0  0  0
  187.8740  177.0170  146.6180 C   0  0  0  0  0  2  0  0  0  0  0  0
  188.5490  177.3000  147.9550 C   0  0  0  0  0  0  0  0  0  0  0  0
  187.8620  176.6430  148.9540 F   0  0  0  0  0  0  0  0  0  0  0  0
  188.5340  178.6590  148.2170 F   0  0  0  0  0  0  0  0  0  0  0  0
  189.8550  176.8480  147.9370 F   0  0  0  0  0  0  0  0  0  0  0  0
  187.5090  177.3330  143.3420 N   0  0  0  0  0  2  0  0  0  0  0  0
  189.3540  176.7230  141.8080 C   0  0  0  0  0  2  0  0  0  0  0  0
  189.9180  177.1450  140.4530 C   0  0  0  0  0  2  0  0  0  0  0  0
  188.5070  177.8470  142.4050 C   0  0  0  0  0  3  0  0  0  0  0  0
  188.8600  177.4310  139.4660 N   0  0  0  0  0  0  0  0  0  0  0  0
  187.6240  177.9800  140.0530 C   0  0  0  0  0  2  0  0  0  0  0  0
  187.8740  178.7580  141.3470 C   0  0  0  0  0  2  0  0  0  0  0  0
  189.3890  178.4400  138.5570 C   0  0  0  0  0  2  0  0  0  0  0  0
  189.1360  178.0640  137.2070 O   0  0  0  0  0  0  0  0  0  0  0  0
  188.0050  178.4910  136.5030 C   0  0  0  0  0  0  0  0  0  0  0  0
  187.4170  179.5460  136.8600 O   0  0  0  0  0  0  0  0  0  0  0  0
  187.4700  177.7210  135.3400 C   0  0  0  0  0  1  0  0  0  0  0  0
  1  4  2  0  0  0  0
  2  7  1  0  0  0  0
  2  3  2  0  0  0  0
  3  1  1  0  0  0  0
  5 15  1  1  0  0  0
  5  3  1  0  0  0  0
  5  9  1  0  0  0  0
  6  1  1  0  0  0  0
  7  6  1  0  0  0  0
  9  8  1  6  0  0  0
  9 10  1  0  0  0  0
 10 11  1  0  0  0  0
 11 13  1  0  0  0  0
 11 12  1  0  0  0  0
 14 11  1  0  0  0  0
 16 18  1  0  0  0  0
 17 16  1  0  0  0  0
 18 15  1  0  0  0  0
 19 20  1  0  0  0  0
 19 17  1  0  0  0  0
 20 21  1  0  0  0  0
 21 18  1  0  0  0  0
 22 19  1  0  0  0  0
 23 22  1  0  0  0  0
 24 25  2  0  0  0  0
 24 23  1  0  0  0  0
 26 24  1  0  0  0  0
M  END
>  <MODEL>
3

>  <REMARK>
 VINA RESULT:      -6.6      2.714      6.705
  Name = 
  8 active torsions:
  status: ('A' for Active; 'I' for Inactive)
    1  A    between atoms: C_3  and  C_20
    2  A    between atoms: C_4  and  N_18
    3  A    between atoms: C_4  and  O_19
    4  A    between atoms: C_7  and  O_19
    5  A    between atoms: C_10  and  C_14
    6  A    between atoms: C_10  and  C_20
    7  A    between atoms: C_14  and  N_21
    8  A    between atoms: C_16  and  N_21
                            x       y       z     vdW  Elec       q    Type
                         _______ _______ _______ _____ _____    ______ ____

>  <TORSDO>
F 8

$$$$
=
 OpenBabel11042410553D

 26 27  0  0  1  0  0  0  0  0999 V2000
  189.6320  177.3750  146.9630 C   0  0  0  0  0  0  0  0  0  0  0  0
  190.6740  176.6520  145.0370 N   0  0  0  0  0  0  0  0  0  0  0  0
  189.4270  177.0900  145.5590 C   0  0  0  0  0  0  0  0  0  0  0  0
  188.7710  177.7840  147.7850 O   0  0  0  0  0  0  0  0  0  0  0  0
  188.3070  177.2450  144.8330 C   0  0  0  0  0  0  0  0  0  0  0  0
  190.9480  177.1110  147.2880 O   0  0  0  0  0  0  0  0  0  0  0  0
  191.6500  176.6530  146.1310 C   0  0  0  0  0  3  0  0  0  0  0  0
  186.4710  176.9780  146.3160 O   0  0  0  0  0  1  0  0  0  0  0  0
  187.0910  177.8740  145.4430 C   0  0  2  0  0  3  0  0  0  0  0  0
  186.1170  178.3000  144.3490 C   0  0  0  0  0  2  0  0  0  0  0  0
  185.0340  179.2290  144.8840 C   0  0  0  0  0  0  0  0  0  0  0  0
  184.7750  180.2060  143.9450 F   0  0  0  0  0  0  0  0  0  0  0  0
  185.4610  179.8320  146.0550 F   0  0  0  0  0  0  0  0  0  0  0  0
  183.8720  178.5210  145.1270 F   0  0  0  0  0  0  0  0  0  0  0  0
  188.2890  176.9490  143.4280 N   0  0  0  0  0  2  0  0  0  0  0  0
  189.8970  176.6750  141.5640 C   0  0  0  0  0  2  0  0  0  0  0  0
  190.2000  177.2880  140.2000 C   0  0  0  0  0  2  0  0  0  0  0  0
  189.0810  177.6480  142.4160 C   0  0  0  0  0  3  0  0  0  0  0  0
  188.9760  177.5820  139.4300 N   0  0  0  0  0  0  0  0  0  0  0  0
  187.8170  177.9520  140.2620 C   0  0  0  0  0  2  0  0  0  0  0  0
  188.2200  178.6060  141.5860 C   0  0  0  0  0  2  0  0  0  0  0  0
  189.2760  178.7260  138.5770 C   0  0  0  0  0  2  0  0  0  0  0  0
  188.1800  178.9890  137.7060 O   0  0  0  0  0  0  0  0  0  0  0  0
  187.9630  178.2710  136.5260 C   0  0  0  0  0  0  0  0  0  0  0  0
  186.7820  178.0510  136.1460 O   0  0  0  0  0  0  0  0  0  0  0  0
  189.0970  177.7480  135.7070 C   0  0  0  0  0  1  0  0  0  0  0  0
  1  6  1  0  0  0  0
  1  4  2  0  0  0  0
  2  3  1  0  0  0  0
  2  7  2  0  0  0  0
  3  1  1  0  0  0  0
  5  9  1  0  0  0  0
  5  3  2  0  0  0  0
  7  6  1  0  0  0  0
  9  8  1  1  0  0  0
 10 11  1  0  0  0  0
 10  9  1  0  0  0  0
 11 14  1  0  0  0  0
 11 13  1  0  0  0  0
 12 11  1  0  0  0  0
 15  5  1  0  0  0  0
 16 18  1  0  0  0  0
 17 16  1  0  0  0  0
 18 15  1  0  0  0  0
 19 17  1  0  0  0  0
 19 20  1  0  0  0  0
 20 21  1  0  0  0  0
 21 18  1  0  0  0  0
 22 19  1  0  0  0  0
 23 22  1  0  0  0  0
 24 23  1  0  0  0  0
 25 24  2  0  0  0  0
 26 24  1  0  0  0  0
M  END
>  <MODEL>
4

>  <REMARK>
 VINA RESULT:      -6.6      3.887      6.933
  Name = 
  8 active torsions:
  status: ('A' for Active; 'I' for Inactive)
    1  A    between atoms: C_3  and  C_20
    2  A    between atoms: C_4  and  N_18
    3  A    between atoms: C_4  and  O_19
    4  A    between atoms: C_7  and  O_19
    5  A    between atoms: C_10  and  C_14
    6  A    between atoms: C_10  and  C_20
    7  A    between atoms: C_14  and  N_21
    8  A    between atoms: C_16  and  N_21
                            x       y       z     vdW  Elec       q    Type
                         _______ _______ _______ _____ _____    ______ ____

>  <TORSDO>
F 8

$$$$
=
 OpenBabel11042410553D

 26 27  0  0  1  0  0  0  0  0999 V2000
  187.1930  177.6420  147.1870 C   0  0  0  0  0  0  0  0  0  0  0  0
  187.0460  178.3370  144.9940 N   0  0  0  0  0  0  0  0  0  0  0  0
  187.9580  177.8780  145.9820 C   0  0  0  0  0  0  0  0  0  0  0  0
  187.6330  177.2330  148.2940 O   0  0  0  0  0  0  0  0  0  0  0  0
  189.2680  177.6670  145.7730 C   0  0  1  0  0  3  0  0  0  0  0  0
  185.8690  177.9560  146.9500 O   0  0  0  0  0  0  0  0  0  0  0  0
  185.7130  178.4000  145.6010 C   0  0  0  0  0  2  0  0  0  0  0  0
  190.2010  177.8510  147.9490 O   0  0  0  0  0  1  0  0  0  0  0  0
  190.1090  177.0190  146.8320 C   0  0  2  0  0  3  0  0  0  0  0  0
  191.5000  176.7190  146.2850 C   0  0  0  0  0  2  0  0  0  0  0  0
  192.1200  175.4970  146.9520 C   0  0  0  0  0  0  0  0  0  0  0  0
  192.5390  174.6150  145.9770 F   0  0  0  0  0  0  0  0  0  0  0  0
  191.1850  174.8680  147.7560 F   0  0  0  0  0  0  0  0  0  0  0  0
  193.2090  175.8700  147.7170 F   0  0  0  0  0  0  0  0  0  0  0  0
  189.8630  177.9190  144.4900 N   0  0  0  0  0  2  0  0  0  0  0  0
  188.8580  178.1040  142.2340 C   0  0  0  0  0  2  0  0  0  0  0  0
  189.0820  177.5700  140.8220 C   0  0  0  0  0  2  0  0  0  0  0  0
  189.5370  177.1970  143.2610 C   0  0  0  0  0  3  0  0  0  0  0  0
  190.5100  177.5290  140.4550 N   0  0  0  0  0  0  0  0  0  0  0  0
  191.4150  177.2690  141.5890 C   0  0  0  0  0  2  0  0  0  0  0  0
  190.7550  176.4530  142.7010 C   0  0  0  0  0  2  0  0  0  0  0  0
  190.6750  176.4290  139.5120 C   0  0  0  0  0  2  0  0  0  0  0  0
  191.3400  176.8850  138.3380 O   0  0  0  0  0  0  0  0  0  0  0  0
  192.6490  176.5140  138.0190 C   0  0  0  0  0  0  0  0  0  0  0  0
  193.5750  176.7460  138.8410 O   0  0  0  0  0  0  0  0  0  0  0  0
  192.9830  175.8550  136.7200 C   0  0  0  0  0  1  0  0  0  0  0  0
  1  4  2  0  0  0  0
  2  7  1  0  0  0  0
  2  3  2  0  0  0  0
  3  1  1  0  0  0  0
  5 15  1  6  0  0  0
  5  3  1  0  0  0  0
  5  9  1  0  0  0  0
  6  1  1  0  0  0  0
  7  6  1  0  0  0  0
  9  8  1  1  0  0  0
 10  9  1  0  0  0  0
 10 11  1  0  0  0  0
 11 14  1  0  0  0  0
 11 13  1  0  0  0  0
 12 11  1  0  0  0  0
 16 18  1  0  0  0  0
 17 16  1  0  0  0  0
 18 15  1  0  0  0  0
 19 17  1  0  0  0  0
 19 20  1  0  0  0  0
 20 21  1  0  0  0  0
 21 18  1  0  0  0  0
 22 19  1  0  0  0  0
 23 22  1  0  0  0  0
 24 23  1  0  0  0  0
 24 25  2  0  0  0  0
 26 24  1  0  0  0  0
M  END
>  <MODEL>
5

>  <REMARK>
 VINA RESULT:      -6.4      3.571      7.737
  Name = 
  8 active torsions:
  status: ('A' for Active; 'I' for Inactive)
    1  A    between atoms: C_3  and  C_20
    2  A    between atoms: C_4  and  N_18
    3  A    between atoms: C_4  and  O_19
    4  A    between atoms: C_7  and  O_19
    5  A    between atoms: C_10  and  C_14
    6  A    between atoms: C_10  and  C_20
    7  A    between atoms: C_14  and  N_21
    8  A    between atoms: C_16  and  N_21
                            x       y       z     vdW  Elec       q    Type
                         _______ _______ _______ _____ _____    ______ ____

>  <TORSDO>
F 8

$$$$
=
 OpenBabel11042410553D

 26 27  0  0  1  0  0  0  0  0999 V2000
  189.4130  176.6710  147.1010 C   0  0  0  0  0  0  0  0  0  0  0  0
  191.0120  177.2920  145.5600 N   0  0  0  0  0  0  0  0  0  0  0  0
  189.6120  177.1330  145.7440 C   0  0  0  0  0  0  0  0  0  0  0  0
  188.3150  176.4060  147.6560 O   0  0  0  0  0  0  0  0  0  0  0  0
  188.6820  177.4240  144.8190 C   0  0  0  0  0  0  0  0  0  0  0  0
  190.6430  176.5390  147.7160 O   0  0  0  0  0  0  0  0  0  0  0  0
  191.6800  176.9080  146.8070 C   0  0  0  0  0  3  0  0  0  0  0  0
  186.5010  176.7540  144.1580 O   0  0  0  0  0  1  0  0  0  0  0  0
  187.2250  177.3840  145.1720 C   0  0  2  0  0  3  0  0  0  0  0  0
  186.7010  178.7990  145.3910 C   0  0  0  0  0  2  0  0  0  0  0  0
  185.6150  178.8430  146.4590 C   0  0  0  0  0  0  0  0  0  0  0  0
  184.4080  179.1440  145.8630 F   0  0  0  0  0  0  0  0  0  0  0  0
  185.9100  179.8170  147.3970 F   0  0  0  0  0  0  0  0  0  0  0  0
  185.5110  177.6160  147.0860 F   0  0  0  0  0  0  0  0  0  0  0  0
  189.0560  177.9160  143.5220 N   0  0  0  0  0  2  0  0  0  0  0  0
  188.6410  177.7790  141.0850 C   0  0  0  0  0  2  0  0  0  0  0  0
  189.3210  177.2470  139.8250 C   0  0  0  0  0  2  0  0  0  0  0  0
  189.2070  177.0880  142.3260 C   0  0  0  0  0  3  0  0  0  0  0  0
  190.7730  177.5080  139.8150 N   0  0  0  0  0  0  0  0  0  0  0  0
  191.3930  177.5020  141.1520 C   0  0  0  0  0  2  0  0  0  0  0  0
  190.6520  176.6080  142.1480 C   0  0  0  0  0  2  0  0  0  0  0  0
  191.3910  176.4330  139.0490 C   0  0  0  0  0  2  0  0  0  0  0  0
  190.3920  175.5470  138.5520 O   0  0  0  0  0  0  0  0  0  0  0  0
  190.5260  174.8600  137.3420 C   0  0  0  0  0  0  0  0  0  0  0  0
  190.2140  173.6410  137.2860 O   0  0  0  0  0  0  0  0  0  0  0  0
  191.0400  175.5330  136.1110 C   0  0  0  0  0  1  0  0  0  0  0  0
  1  4  2  0  0  0  0
  1  6  1  0  0  0  0
  2  3  1  0  0  0  0
  2  7  2  0  0  0  0
  3  1  1  0  0  0  0
  5  9  1  0  0  0  0
  5  3  2  0  0  0  0
  7  6  1  0  0  0  0
  9  8  1  6  0  0  0
  9 10  1  0  0  0  0
 10 11  1  0  0  0  0
 11 14  1  0  0  0  0
 11 13  1  0  0  0  0
 12 11  1  0  0  0  0
 15  5  1  0  0  0  0
 16 18  1  0  0  0  0
 17 16  1  0  0  0  0
 18 15  1  0  0  0  0
 19 17  1  0  0  0  0
 19 20  1  0  0  0  0
 20 21  1  0  0  0  0
 21 18  1  0  0  0  0
 22 19  1  0  0  0  0
 23 22  1  0  0  0  0
 24 23  1  0  0  0  0
 25 24  2  0  0  0  0
 26 24  1  0  0  0  0
M  END
>  <MODEL>
6

>  <REMARK>
 VINA RESULT:      -6.3      3.978      7.773
  Name = 
  8 active torsions:
  status: ('A' for Active; 'I' for Inactive)
    1  A    between atoms: C_3  and  C_20
    2  A    between atoms: C_4  and  N_18
    3  A    between atoms: C_4  and  O_19
    4  A    between atoms: C_7  and  O_19
    5  A    between atoms: C_10  and  C_14
    6  A    between atoms: C_10  and  C_20
    7  A    between atoms: C_14  and  N_21
    8  A    between atoms: C_16  and  N_21
                            x       y       z     vdW  Elec       q    Type
                         _______ _______ _______ _____ _____    ______ ____

>  <TORSDO>
F 8

$$$$
=
 OpenBabel11042410553D

 26 27  0  0  1  0  0  0  0  0999 V2000
  185.1770  179.1010  145.6890 C   0  0  0  0  0  0  0  0  0  0  0  0
  184.8950  178.0910  143.6360 N   0  0  0  0  0  0  0  0  0  0  0  0
  185.8640  178.3960  144.6290 C   0  0  0  0  0  0  0  0  0  0  0  0
  185.6830  179.5490  146.7510 O   0  0  0  0  0  0  0  0  0  0  0  0
  187.1560  178.0300  144.5730 C   0  0  1  0  0  3  0  0  0  0  0  0
  183.8440  179.2320  145.3530 O   0  0  0  0  0  0  0  0  0  0  0  0
  183.6050  178.6260  144.0820 C   0  0  0  0  0  2  0  0  0  0  0  0
  189.3720  178.4420  145.3220 O   0  0  0  0  0  1  0  0  0  0  0  0
  188.0570  178.2530  145.7510 C   0  0  2  0  0  3  0  0  0  0  0  0
  187.9800  177.0630  146.7010 C   0  0  0  0  0  2  0  0  0  0  0  0
  188.5570  177.3940  148.0720 C   0  0  0  0  0  0  0  0  0  0  0  0
  188.3560  178.7330  148.3340 F   0  0  0  0  0  0  0  0  0  0  0  0
  189.9150  177.1300  148.0930 F   0  0  0  0  0  0  0  0  0  0  0  0
  187.9260  176.6460  149.0500 F   0  0  0  0  0  0  0  0  0  0  0  0
  187.6680  177.2920  143.4530 N   0  0  0  0  0  2  0  0  0  0  0  0
  189.7920  176.3450  142.6010 C   0  0  0  0  0  2  0  0  0  0  0  0
  190.7280  176.4980  141.4050 C   0  0  0  0  0  2  0  0  0  0  0  0
  188.9200  177.5910  142.7580 C   0  0  0  0  0  3  0  0  0  0  0  0
  189.9970  176.6520  140.1330 N   0  0  0  0  0  0  0  0  0  0  0  0
  188.7040  177.3480  140.2630 C   0  0  0  0  0  2  0  0  0  0  0  0
  188.6720  178.3280  141.4370 C   0  0  0  0  0  2  0  0  0  0  0  0
  190.8350  177.4620  139.2570 C   0  0  0  0  0  2  0  0  0  0  0  0
  192.1460  176.9090  139.1830 O   0  0  0  0  0  0  0  0  0  0  0  0
  192.6820  176.3900  138.0010 C   0  0  0  0  0  0  0  0  0  0  0  0
  193.9300  176.2540  137.8950 O   0  0  0  0  0  0  0  0  0  0  0  0
  191.8110  175.9990  136.8510 C   0  0  0  0  0  1  0  0  0  0  0  0
  1  4  2  0  0  0  0
  2  7  1  0  0  0  0
  2  3  2  0  0  0  0
  3  1  1  0  0  0  0
  5 15  1  1  0  0  0
  5  3  1  0  0  0  0
  5  9  1  0  0  0  0
  6  1  1  0  0  0  0
  7  6  1  0  0  0  0
  9  8  1  6  0  0  0
  9 10  1  0  0  0  0
 10 11  1  0  0  0  0
 11 13  1  0  0  0  0
 11 12  1  0  0  0  0
 11 14  1  0  0  0  0
 16 18  1  0  0  0  0
 17 16  1  0  0  0  0
 18 15  1  0  0  0  0
 19 20  1  0  0  0  0
 19 17  1  0  0  0  0
 20 21  1  0  0  0  0
 21 18  1  0  0  0  0
 22 19  1  0  0  0  0
 23 22  1  0  0  0  0
 24 23  1  0  0  0  0
 25 24  2  0  0  0  0
 26 24  1  0  0  0  0
M  END
>  <MODEL>
7

>  <REMARK>
 VINA RESULT:      -6.3      2.869      7.681
  Name = 
  8 active torsions:
  status: ('A' for Active; 'I' for Inactive)
    1  A    between atoms: C_3  and  C_20
    2  A    between atoms: C_4  and  N_18
    3  A    between atoms: C_4  and  O_19
    4  A    between atoms: C_7  and  O_19
    5  A    between atoms: C_10  and  C_14
    6  A    between atoms: C_10  and  C_20
    7  A    between atoms: C_14  and  N_21
    8  A    between atoms: C_16  and  N_21
                            x       y       z     vdW  Elec       q    Type
                         _______ _______ _______ _____ _____    ______ ____

>  <TORSDO>
F 8

$$$$
=
 OpenBabel11042410553D

 26 27  0  0  1  0  0  0  0  0999 V2000
  184.8650  178.5680  139.6850 C   0  0  0  0  0  0  0  0  0  0  0  0
  187.1510  178.4210  139.4230 N   0  0  0  0  0  0  0  0  0  0  0  0
  186.1280  178.6250  140.3890 C   0  0  0  0  0  0  0  0  0  0  0  0
  183.7160  178.7060  140.1820 O   0  0  0  0  0  0  0  0  0  0  0  0
  186.3420  178.7830  141.7050 C   0  0  1  0  0  3  0  0  0  0  0  0
  185.1060  178.3510  138.3430 O   0  0  0  0  0  0  0  0  0  0  0  0
  186.5130  178.2540  138.1140 C   0  0  0  0  0  2  0  0  0  0  0  0
  184.9820  180.1230  143.1190 O   0  0  0  0  0  1  0  0  0  0  0  0
  185.1860  178.8200  142.6600 C   0  0  2  0  0  3  0  0  0  0  0  0
  185.4480  177.8840  143.8350 C   0  0  0  0  0  2  0  0  0  0  0  0
  185.0740  178.5260  145.1660 C   0  0  0  0  0  0  0  0  0  0  0  0
  185.5040  177.7130  146.1940 F   0  0  0  0  0  0  0  0  0  0  0  0
  183.7010  178.6740  145.2530 F   0  0  0  0  0  0  0  0  0  0  0  0
  185.6800  179.7620  145.2880 F   0  0  0  0  0  0  0  0  0  0  0  0
  187.6720  178.7750  142.2460 N   0  0  0  0  0  2  0  0  0  0  0  0
  189.4800  177.1720  141.7050 C   0  0  0  0  0  2  0  0  0  0  0  0
  190.5700  176.3750  142.4180 C   0  0  0  0  0  2  0  0  0  0  0  0
  188.3860  177.5790  142.6920 C   0  0  0  0  0  3  0  0  0  0  0  0
  191.2390  177.1560  143.4740 N   0  0  0  0  0  0  0  0  0  0  0  0
  190.3660  178.1380  144.1410 C   0  0  0  0  0  2  0  0  0  0  0  0
  188.8920  177.7260  144.1320 C   0  0  0  0  0  2  0  0  0  0  0  0
  191.6750  176.2080  144.4920 C   0  0  0  0  0  2  0  0  0  0  0  0
  191.9390  176.8870  145.7160 O   0  0  0  0  0  0  0  0  0  0  0  0
  191.5310  176.3930  146.9580 C   0  0  0  0  0  0  0  0  0  0  0  0
  190.3510  176.6020  147.3490 O   0  0  0  0  0  0  0  0  0  0  0  0
  192.4620  175.6290  147.8420 C   0  0  0  0  0  1  0  0  0  0  0  0
  1  4  2  0  0  0  0
  1  3  1  0  0  0  0
  2  3  2  0  0  0  0
  3  5  1  0  0  0  0
  5 15  1  1  0  0  0
  5  9  1  0  0  0  0
  6  1  1  0  0  0  0
  7  6  1  0  0  0  0
  7  2  1  0  0  0  0
  9  8  1  1  0  0  0
  9 10  1  0  0  0  0
 10 11  1  0  0  0  0
 11 13  1  0  0  0  0
 11 14  1  0  0  0  0
 11 12  1  0  0  0  0
 15 18  1  0  0  0  0
 16 17  1  0  0  0  0
 16 18  1  0  0  0  0
 17 19  1  0  0  0  0
 18 21  1  0  0  0  0
 19 20  1  0  0  0  0
 19 22  1  0  0  0  0
 21 20  1  0  0  0  0
 22 23  1  0  0  0  0
 23 24  1  0  0  0  0
 24 25  2  0  0  0  0
 24 26  1  0  0  0  0
M  END
>  <MODEL>
8

>  <REMARK>
 VINA RESULT:      -6.1      3.541      6.902
  Name = 
  8 active torsions:
  status: ('A' for Active; 'I' for Inactive)
    1  A    between atoms: C_3  and  C_20
    2  A    between atoms: C_4  and  N_18
    3  A    between atoms: C_4  and  O_19
    4  A    between atoms: C_7  and  O_19
    5  A    between atoms: C_10  and  C_14
    6  A    between atoms: C_10  and  C_20
    7  A    between atoms: C_14  and  N_21
    8  A    between atoms: C_16  and  N_21
                            x       y       z     vdW  Elec       q    Type
                         _______ _______ _______ _____ _____    ______ ____

>  <TORSDO>
F 8

$$$$
=
 OpenBabel11042410553D

 26 27  0  0  1  0  0  0  0  0999 V2000
  190.5010  176.3430  136.3840 C   0  0  0  0  0  0  0  0  0  0  0  0
  190.8920  175.1940  138.3440 N   0  0  0  0  0  0  0  0  0  0  0  0
  190.1810  176.2940  137.7950 C   0  0  0  0  0  0  0  0  0  0  0  0
  190.0770  177.1760  135.5410 O   0  0  0  0  0  0  0  0  0  0  0  0
  189.3380  177.0800  138.4840 C   0  0  1  0  0  3  0  0  0  0  0  0
  191.3830  175.3220  136.0870 O   0  0  0  0  0  0  0  0  0  0  0  0
  191.6680  174.5710  137.2680 C   0  0  0  0  0  2  0  0  0  0  0  0
  189.0360  179.3810  137.9810 O   0  0  0  0  0  1  0  0  0  0  0  0
  188.5070  178.1060  137.7740 C   0  0  2  0  0  3  0  0  0  0  0  0
  187.0660  178.0480  138.2690 C   0  0  0  0  0  2  0  0  0  0  0  0
  186.1360  177.4200  137.2380 C   0  0  0  0  0  0  0  0  0  0  0  0
  186.4380  177.9270  135.9910 F   0  0  0  0  0  0  0  0  0  0  0  0
  184.8190  177.7210  137.5390 F   0  0  0  0  0  0  0  0  0  0  0  0
  186.3020  176.0480  137.2160 F   0  0  0  0  0  0  0  0  0  0  0  0
  189.1030  176.8640  139.8850 N   0  0  0  0  0  2  0  0  0  0  0  0
  188.7110  178.0350  142.0310 C   0  0  0  0  0  2  0  0  0  0  0  0
  189.4070  178.2540  143.3720 C   0  0  0  0  0  2  0  0  0  0  0  0
  189.7280  177.6280  140.9640 C   0  0  0  0  0  3  0  0  0  0  0  0
  190.0620  177.0300  143.8730 N   0  0  0  0  0  0  0  0  0  0  0  0
  190.5750  176.1460  142.8120 C   0  0  0  0  0  2  0  0  0  0  0  0
  190.9510  176.9030  141.5370 C   0  0  0  0  0  2  0  0  0  0  0  0
  191.2070  177.4570  144.6680 C   0  0  0  0  0  2  0  0  0  0  0  0
  191.6680  176.3820  145.4810 O   0  0  0  0  0  0  0  0  0  0  0  0
  191.4820  176.3470  146.8660 C   0  0  0  0  0  0  0  0  0  0  0  0
  190.4920  176.9410  147.3710 O   0  0  0  0  0  0  0  0  0  0  0  0
  192.4340  175.6310  147.7670 C   0  0  0  0  0  1  0  0  0  0  0  0
  1  3  1  0  0  0  0
  3  2  2  0  0  0  0
  3  5  1  0  0  0  0
  4  1  2  0  0  0  0
  5 15  1  6  0  0  0
  6  1  1  0  0  0  0
  6  7  1  0  0  0  0
  7  2  1  0  0  0  0
  9  8  1  1  0  0  0
  9 10  1  0  0  0  0
  9  5  1  0  0  0  0
 11 13  1  0  0  0  0
 11 10  1  0  0  0  0
 12 11  1  0  0  0  0
 14 11  1  0  0  0  0
 15 18  1  0  0  0  0
 16 17  1  0  0  0  0
 17 19  1  0  0  0  0
 18 21  1  0  0  0  0
 18 16  1  0  0  0  0
 19 22  1  0  0  0  0
 20 19  1  0  0  0  0
 21 20  1  0  0  0  0
 22 23  1  0  0  0  0
 23 24  1  0  0  0  0
 24 25  2  0  0  0  0
 24 26  1  0  0  0  0
M  END
>  <MODEL>
9

>  <REMARK>
 VINA RESULT:      -6.1      5.485      7.302
  Name = 
  8 active torsions:
  status: ('A' for Active; 'I' for Inactive)
    1  A    between atoms: C_3  and  C_20
    2  A    between atoms: C_4  and  N_18
    3  A    between atoms: C_4  and  O_19
    4  A    between atoms: C_7  and  O_19
    5  A    between atoms: C_10  and  C_14
    6  A    between atoms: C_10  and  C_20
    7  A    between atoms: C_14  and  N_21
    8  A    between atoms: C_16  and  N_21
                            x       y       z     vdW  Elec       q    Type
                         _______ _______ _______ _____ _____    ______ ____

>  <TORSDO>
F 8

$$$$
