=
 OpenBabel11042410013D

 38 43  0  0  1  0  0  0  0  0999 V2000
  189.3500  177.1850  139.9390 C   0  0  0  0  0  0  0  0  0  0  0  0
  185.8550  177.1180  136.2890 C   0  0  0  0  0  0  0  0  0  0  0  0
  186.8340  176.1510  135.9600 C   0  0  0  0  0  3  0  0  0  0  0  0
  190.5150  176.8510  140.8290 C   0  0  0  0  0  2  0  0  0  0  0  0
  184.7550  177.2940  135.4610 O   0  0  0  0  0  1  0  0  0  0  0  0
  188.5830  178.8250  141.6320 C   0  0  0  0  0  2  0  0  0  0  0  0
  187.9320  176.0090  136.8140 C   0  0  0  0  0  0  0  0  0  0  0  0
  188.0370  176.7860  137.9150 C   0  0  0  0  0  0  0  0  0  0  0  0
  188.3670  177.9050  142.8490 C   0  0  2  0  0  3  0  0  0  0  0  0
  188.6840  176.4170  142.6180 C   0  0  0  0  0  2  0  0  0  0  0  0
  189.8970  175.4120  138.0580 C   0  0  2  0  0  3  0  0  0  0  0  0
  185.9820  177.9020  137.4630 C   0  0  0  0  0  3  0  0  0  0  0  0
  189.0910  175.0650  136.7660 C   0  0  0  0  0  2  0  0  0  0  0  0
  189.1650  176.5110  138.6850 N   0  0  0  0  0  0  0  0  0  0  0  0
  188.4330  178.1150  140.3160 C   0  0  0  0  0  0  0  0  0  0  0  0
  187.0990  177.7170  138.2930 C   0  0  0  0  0  0  0  0  0  0  0  0
  187.3110  178.4050  139.4980 O   0  0  0  0  0  0  0  0  0  0  0  0
  190.1140  176.1430  142.1330 C   0  0  0  0  0  2  0  0  0  0  0  0
  185.5020  178.2010  145.3080 C   0  0  0  0  0  3  0  0  0  0  0  0
  186.7870  178.0490  144.7790 C   0  0  0  0  0  3  0  0  0  0  0  0
  186.9830  178.0670  143.3930 C   0  0  0  0  0  0  0  0  0  0  0  0
  184.6000  178.3920  143.0700 C   0  0  0  0  0  3  0  0  0  0  0  0
  185.8830  178.2400  142.5390 C   0  0  0  0  0  3  0  0  0  0  0  0
  184.4090  178.3730  144.4540 C   0  0  0  0  0  0  0  0  0  0  0  0
  183.1650  178.5210  144.9690 F   0  0  0  0  0  0  0  0  0  0  0  0
  192.3440  174.8820  137.7650 N   0  0  0  0  0  2  0  0  0  0  0  0
  191.5220  177.0330  137.3780 O   0  0  0  0  0  0  0  0  0  0  0  0
  191.2870  175.8390  137.7080 C   0  0  0  0  0  0  0  0  0  0  0  0
  193.7200  175.2360  137.4520 C   0  0  0  0  0  2  0  0  0  0  0  0
  195.7420  173.7990  137.4800 C   0  0  0  0  0  2  0  0  0  0  0  0
  195.3500  175.3150  139.2520 N   0  0  0  0  0  2  0  0  0  0  0  0
  194.6720  174.4320  138.3180 C   0  0  1  0  0  3  0  0  0  0  0  0
  196.6250  174.7650  139.4910 N   0  0  0  0  0  2  0  0  0  0  0  0
  196.9620  173.9120  138.3540 C   0  0  2  0  0  3  0  0  0  0  0  0
  198.1630  174.4570  137.5750 C   0  0  1  0  0  3  0  0  0  0  0  0
  198.8260  173.3910  136.7130 C   0  0  0  0  0  1  0  0  0  0  0  0
  198.2420  175.2240  135.5010 C   0  0  0  0  0  1  0  0  0  0  0  0
  197.7650  175.5300  136.7760 O   0  0  0  0  0  0  0  0  0  0  0  0
  1 15  2  0  0  0  0
  1  4  1  0  0  0  0
  2 12  1  0  0  0  0
  3  2  2  0  0  0  0
  3  7  1  0  0  0  0
  4 18  1  0  0  0  0
  5  2  1  0  0  0  0
  6  9  1  0  0  0  0
  7  8  2  0  0  0  0
  8 16  1  0  0  0  0
  8 14  1  0  0  0  0
  9 21  1  6  0  0  0
 10  9  1  0  0  0  0
 11 28  1  6  0  0  0
 11 14  1  0  0  0  0
 12 16  2  0  0  0  0
 13  7  1  0  0  0  0
 13 11  1  0  0  0  0
 14  1  1  0  0  0  0
 15  6  1  0  0  0  0
 16 17  1  0  0  0  0
 17 15  1  0  0  0  0
 18 10  1  0  0  0  0
 20 19  1  0  0  0  0
 21 20  2  0  0  0  0
 22 24  1  0  0  0  0
 23 22  2  0  0  0  0
 23 21  1  0  0  0  0
 24 25  1  0  0  0  0
 24 19  2  0  0  0  0
 27 28  2  0  0  0  0
 28 26  1  0  0  0  0
 29 26  1  0  0  0  0
 30 32  1  0  0  0  0
 30 34  1  0  0  0  0
 31 33  1  0  0  0  0
 32 29  1  6  0  0  0
 32 31  1  0  0  0  0
 34 35  1  6  0  0  0
 34 33  1  0  0  0  0
 35 36  1  6  0  0  0
 37 38  1  0  0  0  0
 38 35  1  0  0  0  0
M  END
>  <MODEL>
1

>  <REMARK>
 VINA RESULT:      -9.3      0.000      0.000
  Name = 
  6 active torsions:
  status: ('A' for Active; 'I' for Inactive)
    1  A    between atoms: C_10  and  O_26
    2  A    between atoms: C_10  and  C_36
    3  A    between atoms: C_14  and  C_15
    4  A    between atoms: C_18  and  C_33
    5  A    between atoms: C_19  and  C_20
    6  A    between atoms: C_19  and  N_24
                            x       y       z     vdW  Elec       q    Type
                         _______ _______ _______ _____ _____    ______ ____

>  <TORSDO>
F 6

$$$$
=
 OpenBabel11042410013D

 38 43  0  0  1  0  0  0  0  0999 V2000
  189.2610  177.4570  140.4280 C   0  0  0  0  0  0  0  0  0  0  0  0
  185.0250  177.8960  137.7070 C   0  0  0  0  0  0  0  0  0  0  0  0
  185.8740  176.9860  137.0320 C   0  0  0  0  0  3  0  0  0  0  0  0
  190.5870  177.0040  140.9720 C   0  0  0  0  0  2  0  0  0  0  0  0
  183.7710  178.1840  137.1850 O   0  0  0  0  0  1  0  0  0  0  0  0
  188.9500  178.8420  142.4610 C   0  0  0  0  0  2  0  0  0  0  0  0
  187.1320  176.7290  137.5820 C   0  0  0  0  0  0  0  0  0  0  0  0
  187.5100  177.3430  138.7250 C   0  0  0  0  0  0  0  0  0  0  0  0
  188.9890  177.7600  143.5570 C   0  0  2  0  0  3  0  0  0  0  0  0
  189.2000  176.3200  143.0580 C   0  0  0  0  0  2  0  0  0  0  0  0
  189.3110  175.9670  138.2480 C   0  0  2  0  0  3  0  0  0  0  0  0
  185.4400  178.5080  138.9160 C   0  0  0  0  0  3  0  0  0  0  0  0
  188.2210  175.8030  137.1400 C   0  0  0  0  0  2  0  0  0  0  0  0
  188.7740  176.9660  139.1710 N   0  0  0  0  0  0  0  0  0  0  0  0
  188.4820  178.3240  141.1310 C   0  0  0  0  0  0  0  0  0  0  0  0
  186.7100  178.2100  139.4330 C   0  0  0  0  0  0  0  0  0  0  0  0
  187.2130  178.7230  140.6400 O   0  0  0  0  0  0  0  0  0  0  0  0
  190.4720  176.1190  142.2240 C   0  0  0  0  0  2  0  0  0  0  0  0
  186.7930  177.8880  146.6400 C   0  0  0  0  0  3  0  0  0  0  0  0
  187.9170  177.8100  145.8130 C   0  0  0  0  0  3  0  0  0  0  0  0
  187.7720  177.8410  144.4220 C   0  0  0  0  0  0  0  0  0  0  0  0
  185.3660  178.0290  144.6880 C   0  0  0  0  0  3  0  0  0  0  0  0
  186.4890  177.9510  143.8610 C   0  0  0  0  0  3  0  0  0  0  0  0
  185.5180  177.9970  146.0780 C   0  0  0  0  0  0  0  0  0  0  0  0
  184.4290  178.0720  146.8800 F   0  0  0  0  0  0  0  0  0  0  0  0
  191.8280  175.9100  138.1360 N   0  0  0  0  0  2  0  0  0  0  0  0
  190.5910  177.3090  136.7340 O   0  0  0  0  0  0  0  0  0  0  0  0
  190.5960  176.4410  137.6500 C   0  0  0  0  0  0  0  0  0  0  0  0
  193.1130  176.3400  137.6080 C   0  0  0  0  0  2  0  0  0  0  0  0
  194.5260  175.0840  136.0010 C   0  0  0  0  0  2  0  0  0  0  0  0
  195.1920  175.2660  138.2630 N   0  0  0  0  0  2  0  0  0  0  0  0
  194.0210  175.1400  137.4120 C   0  0  1  0  0  3  0  0  0  0  0  0
  196.2580  174.6280  137.5970 N   0  0  0  0  0  2  0  0  0  0  0  0
  195.9420  174.6040  136.1720 C   0  0  2  0  0  3  0  0  0  0  0  0
  196.9250  175.4530  135.3610 C   0  0  1  0  0  3  0  0  0  0  0  0
  196.3650  176.8310  135.0300 C   0  0  0  0  0  1  0  0  0  0  0  0
  199.0550  174.8520  135.3220 C   0  0  0  0  0  1  0  0  0  0  0  0
  198.1270  175.5880  136.0590 O   0  0  0  0  0  0  0  0  0  0  0  0
  1  4  1  0  0  0  0
  1 15  2  0  0  0  0
  2 12  1  0  0  0  0
  3  7  1  0  0  0  0
  3  2  2  0  0  0  0
  4 18  1  0  0  0  0
  5  2  1  0  0  0  0
  6  9  1  0  0  0  0
  7  8  2  0  0  0  0
  8 14  1  0  0  0  0
  8 16  1  0  0  0  0
  9 21  1  6  0  0  0
 10  9  1  0  0  0  0
 11 28  1  6  0  0  0
 11 14  1  0  0  0  0
 12 16  2  0  0  0  0
 13  7  1  0  0  0  0
 13 11  1  0  0  0  0
 14  1  1  0  0  0  0
 15  6  1  0  0  0  0
 16 17  1  0  0  0  0
 17 15  1  0  0  0  0
 18 10  1  0  0  0  0
 20 19  2  0  0  0  0
 21 20  1  0  0  0  0
 22 24  2  0  0  0  0
 23 21  2  0  0  0  0
 23 22  1  0  0  0  0
 24 19  1  0  0  0  0
 24 25  1  0  0  0  0
 27 28  2  0  0  0  0
 28 26  1  0  0  0  0
 29 26  1  0  0  0  0
 30 34  1  0  0  0  0
 30 32  1  0  0  0  0
 32 29  1  6  0  0  0
 32 31  1  0  0  0  0
 33 31  1  0  0  0  0
 34 35  1  6  0  0  0
 34 33  1  0  0  0  0
 35 36  1  1  0  0  0
 35 38  1  0  0  0  0
 37 38  1  0  0  0  0
M  END
>  <MODEL>
2

>  <REMARK>
 VINA RESULT:      -8.9      1.282      1.634
  Name = 
  6 active torsions:
  status: ('A' for Active; 'I' for Inactive)
    1  A    between atoms: C_10  and  O_26
    2  A    between atoms: C_10  and  C_36
    3  A    between atoms: C_14  and  C_15
    4  A    between atoms: C_18  and  C_33
    5  A    between atoms: C_19  and  C_20
    6  A    between atoms: C_19  and  N_24
                            x       y       z     vdW  Elec       q    Type
                         _______ _______ _______ _____ _____    ______ ____

>  <TORSDO>
F 6

$$$$
=
 OpenBabel11042410013D

 38 43  0  0  1  0  0  0  0  0999 V2000
  188.7490  177.6020  139.8470 C   0  0  0  0  0  0  0  0  0  0  0  0
  184.2230  177.7990  137.6050 C   0  0  0  0  0  0  0  0  0  0  0  0
  185.0400  176.9300  136.8430 C   0  0  0  0  0  3  0  0  0  0  0  0
  190.1490  177.2230  140.2430 C   0  0  0  0  0  2  0  0  0  0  0  0
  182.9070  178.0180  137.2240 O   0  0  0  0  0  1  0  0  0  0  0  0
  188.5890  178.9830  141.8990 C   0  0  0  0  0  2  0  0  0  0  0  0
  186.3630  176.7420  137.2520 C   0  0  0  0  0  0  0  0  0  0  0  0
  186.8300  177.3840  138.3460 C   0  0  0  0  0  0  0  0  0  0  0  0
  188.8060  177.9130  142.9860 C   0  0  2  0  0  3  0  0  0  0  0  0
  189.0350  176.4810  142.4690 C   0  0  0  0  0  2  0  0  0  0  0  0
  188.6380  176.1000  137.6760 C   0  0  2  0  0  3  0  0  0  0  0  0
  184.7350  178.4400  138.7610 C   0  0  0  0  0  3  0  0  0  0  0  0
  187.4440  175.8710  136.6950 C   0  0  0  0  0  2  0  0  0  0  0  0
  188.1530  177.0760  138.6510 N   0  0  0  0  0  0  0  0  0  0  0  0
  188.0070  178.4310  140.6290 C   0  0  0  0  0  0  0  0  0  0  0  0
  186.0680  178.2130  139.1360 C   0  0  0  0  0  0  0  0  0  0  0  0
  186.6720  178.7600  140.2790 O   0  0  0  0  0  0  0  0  0  0  0  0
  190.2180  176.3420  141.5010 C   0  0  0  0  0  2  0  0  0  0  0  0
  186.9270  177.6600  146.2650 C   0  0  0  0  0  3  0  0  0  0  0  0
  187.9560  177.6410  145.3200 C   0  0  0  0  0  3  0  0  0  0  0  0
  187.6870  177.9360  143.9790 C   0  0  0  0  0  0  0  0  0  0  0  0
  185.3480  178.2720  144.5340 C   0  0  0  0  0  3  0  0  0  0  0  0
  186.3760  178.2530  143.5890 C   0  0  0  0  0  3  0  0  0  0  0  0
  185.6230  177.9760  145.8720 C   0  0  0  0  0  0  0  0  0  0  0  0
  184.6260  177.9940  146.7890 F   0  0  0  0  0  0  0  0  0  0  0  0
  190.9980  175.8340  136.8320 N   0  0  0  0  0  2  0  0  0  0  0  0
  189.7890  177.7900  136.4300 O   0  0  0  0  0  0  0  0  0  0  0  0
  189.8240  176.6360  136.9400 C   0  0  0  0  0  0  0  0  0  0  0  0
  192.1900  176.3020  136.1430 C   0  0  0  0  0  2  0  0  0  0  0  0
  193.3370  174.8670  137.8100 C   0  0  0  0  0  2  0  0  0  0  0  0
  194.6090  176.0930  136.2380 N   0  0  0  0  0  2  0  0  0  0  0  0
  193.4020  176.1550  137.0440 C   0  0  1  0  0  3  0  0  0  0  0  0
  195.5310  175.2850  136.9330 N   0  0  0  0  0  2  0  0  0  0  0  0
  194.7740  174.4200  137.8330 C   0  0  2  0  0  3  0  0  0  0  0  0
  194.9100  172.9440  137.4440 C   0  0  1  0  0  3  0  0  0  0  0  0
  195.5590  172.7630  136.0780 C   0  0  0  0  0  1  0  0  0  0  0  0
  196.4600  171.3840  137.6910 C   0  0  0  0  0  1  0  0  0  0  0  0
  195.6510  172.2630  138.4120 O   0  0  0  0  0  0  0  0  0  0  0  0
  1  4  1  0  0  0  0
  1 15  2  0  0  0  0
  2 12  1  0  0  0  0
  3  7  1  0  0  0  0
  3  2  2  0  0  0  0
  4 18  1  0  0  0  0
  5  2  1  0  0  0  0
  6  9  1  0  0  0  0
  7  8  2  0  0  0  0
  8 14  1  0  0  0  0
  8 16  1  0  0  0  0
  9 21  1  1  0  0  0
 10  9  1  0  0  0  0
 11 28  1  6  0  0  0
 11 14  1  0  0  0  0
 12 16  2  0  0  0  0
 13  7  1  0  0  0  0
 13 11  1  0  0  0  0
 14  1  1  0  0  0  0
 15  6  1  0  0  0  0
 16 17  1  0  0  0  0
 17 15  1  0  0  0  0
 18 10  1  0  0  0  0
 20 19  2  0  0  0  0
 21 20  1  0  0  0  0
 22 24  2  0  0  0  0
 23 21  2  0  0  0  0
 23 22  1  0  0  0  0
 24 19  1  0  0  0  0
 24 25  1  0  0  0  0
 26 28  1  0  0  0  0
 27 28  2  0  0  0  0
 29 26  1  0  0  0  0
 30 34  1  0  0  0  0
 31 33  1  0  0  0  0
 31 32  1  0  0  0  0
 32 29  1  6  0  0  0
 32 30  1  0  0  0  0
 33 34  1  0  0  0  0
 34 35  1  6  0  0  0
 35 36  1  6  0  0  0
 35 38  1  0  0  0  0
 37 38  1  0  0  0  0
M  END
>  <MODEL>
3

>  <REMARK>
 VINA RESULT:      -8.7      1.777      2.149
  Name = 
  6 active torsions:
  status: ('A' for Active; 'I' for Inactive)
    1  A    between atoms: C_10  and  O_26
    2  A    between atoms: C_10  and  C_36
    3  A    between atoms: C_14  and  C_15
    4  A    between atoms: C_18  and  C_33
    5  A    between atoms: C_19  and  C_20
    6  A    between atoms: C_19  and  N_24
                            x       y       z     vdW  Elec       q    Type
                         _______ _______ _______ _____ _____    ______ ____

>  <TORSDO>
F 6

$$$$
=
 OpenBabel11042410013D

 38 43  0  0  1  0  0  0  0  0999 V2000
  189.4960  177.1390  140.1330 C   0  0  0  0  0  0  0  0  0  0  0  0
  186.1350  177.2670  136.3600 C   0  0  0  0  0  0  0  0  0  0  0  0
  187.0870  176.2670  136.0500 C   0  0  0  0  0  3  0  0  0  0  0  0
  190.6130  176.7460  141.0580 C   0  0  0  0  0  2  0  0  0  0  0  0
  185.0740  177.5000  135.4960 O   0  0  0  0  0  1  0  0  0  0  0  0
  188.7320  178.7820  141.8240 C   0  0  0  0  0  2  0  0  0  0  0  0
  188.1470  176.0690  136.9400 C   0  0  0  0  0  0  0  0  0  0  0  0
  188.2420  176.8230  138.0560 C   0  0  0  0  0  0  0  0  0  0  0  0
  188.4360  177.8530  143.0180 C   0  0  2  0  0  3  0  0  0  0  0  0
  188.7020  176.3570  142.7730 C   0  0  0  0  0  2  0  0  0  0  0  0
  190.0410  175.3750  138.2430 C   0  0  2  0  0  3  0  0  0  0  0  0
  186.2500  178.0270  137.5500 C   0  0  0  0  0  3  0  0  0  0  0  0
  189.2690  175.0800  136.9170 C   0  0  0  0  0  2  0  0  0  0  0  0
  189.3290  176.4930  138.8620 N   0  0  0  0  0  0  0  0  0  0  0  0
  188.6020  178.0990  140.4930 C   0  0  0  0  0  0  0  0  0  0  0  0
  187.3280  177.7850  138.4160 C   0  0  0  0  0  0  0  0  0  0  0  0
  187.5230  178.4450  139.6400 O   0  0  0  0  0  0  0  0  0  0  0  0
  190.1370  176.0340  142.3340 C   0  0  0  0  0  2  0  0  0  0  0  0
  185.5040  178.2690  145.3790 C   0  0  0  0  0  3  0  0  0  0  0  0
  186.8000  178.0730  144.8930 C   0  0  0  0  0  3  0  0  0  0  0  0
  187.0410  178.0610  143.5150 C   0  0  0  0  0  0  0  0  0  0  0  0
  184.6780  178.4430  143.1100 C   0  0  0  0  0  3  0  0  0  0  0  0
  185.9730  178.2480  142.6230 C   0  0  0  0  0  3  0  0  0  0  0  0
  184.4440  178.4540  144.4880 C   0  0  0  0  0  0  0  0  0  0  0  0
  183.1890  178.6440  144.9610 F   0  0  0  0  0  0  0  0  0  0  0  0
  192.4560  174.7330  137.9140 N   0  0  0  0  0  2  0  0  0  0  0  0
  191.7680  176.9580  137.7500 O   0  0  0  0  0  0  0  0  0  0  0  0
  191.4580  175.7510  137.9510 C   0  0  0  0  0  0  0  0  0  0  0  0
  193.8540  175.0340  137.6500 C   0  0  0  0  0  2  0  0  0  0  0  0
  195.6050  173.3600  137.1160 C   0  0  0  0  0  2  0  0  0  0  0  0
  193.4070  173.0660  136.2960 N   0  0  0  0  0  2  0  0  0  0  0  0
  194.3990  174.0840  136.5990 C   0  0  1  0  0  3  0  0  0  0  0  0
  194.1090  171.8950  135.9450 N   0  0  0  0  0  2  0  0  0  0  0  0
  195.4410  171.9800  136.5380 C   0  0  2  0  0  3  0  0  0  0  0  0
  195.6550  170.8970  137.5990 C   0  0  1  0  0  3  0  0  0  0  0  0
  194.7540  169.6880  137.3840 C   0  0  0  0  0  1  0  0  0  0  0  0
  197.2270  170.0140  136.3150 C   0  0  0  0  0  1  0  0  0  0  0  0
  196.9920  170.4930  137.6040 O   0  0  0  0  0  0  0  0  0  0  0  0
  1 15  2  0  0  0  0
  1  4  1  0  0  0  0
  2 12  1  0  0  0  0
  3  2  2  0  0  0  0
  3  7  1  0  0  0  0
  4 18  1  0  0  0  0
  5  2  1  0  0  0  0
  6  9  1  0  0  0  0
  7  8  2  0  0  0  0
  8 16  1  0  0  0  0
  8 14  1  0  0  0  0
  9 21  1  6  0  0  0
 10  9  1  0  0  0  0
 11 28  1  6  0  0  0
 11 14  1  0  0  0  0
 12 16  2  0  0  0  0
 13  7  1  0  0  0  0
 13 11  1  0  0  0  0
 14  1  1  0  0  0  0
 15  6  1  0  0  0  0
 16 17  1  0  0  0  0
 17 15  1  0  0  0  0
 18 10  1  0  0  0  0
 20 19  1  0  0  0  0
 21 20  2  0  0  0  0
 22 24  1  0  0  0  0
 23 22  2  0  0  0  0
 23 21  1  0  0  0  0
 24 25  1  0  0  0  0
 24 19  2  0  0  0  0
 26 28  1  0  0  0  0
 27 28  2  0  0  0  0
 29 26  1  0  0  0  0
 31 32  1  0  0  0  0
 32 30  1  0  0  0  0
 32 29  1  1  0  0  0
 33 31  1  0  0  0  0
 33 34  1  0  0  0  0
 34 30  1  0  0  0  0
 34 35  1  1  0  0  0
 35 36  1  6  0  0  0
 35 38  1  0  0  0  0
 37 38  1  0  0  0  0
M  END
>  <MODEL>
4

>  <REMARK>
 VINA RESULT:      -8.2      1.606      2.081
  Name = 
  6 active torsions:
  status: ('A' for Active; 'I' for Inactive)
    1  A    between atoms: C_10  and  O_26
    2  A    between atoms: C_10  and  C_36
    3  A    between atoms: C_14  and  C_15
    4  A    between atoms: C_18  and  C_33
    5  A    between atoms: C_19  and  C_20
    6  A    between atoms: C_19  and  N_24
                            x       y       z     vdW  Elec       q    Type
                         _______ _______ _______ _____ _____    ______ ____

>  <TORSDO>
F 6

$$$$
=
 OpenBabel11042410013D

 38 43  0  0  1  0  0  0  0  0999 V2000
  186.8190  178.2570  138.5610 C   0  0  0  0  0  0  0  0  0  0  0  0
  187.8200  178.1580  143.5130 C   0  0  0  0  0  0  0  0  0  0  0  0
  186.4150  178.0990  143.3610 C   0  0  0  0  0  3  0  0  0  0  0  0
  186.1340  178.1830  137.2240 C   0  0  0  0  0  2  0  0  0  0  0  0
  188.3780  178.1210  144.7840 O   0  0  0  0  0  1  0  0  0  0  0  0
  189.0040  178.2740  137.3910 C   0  0  0  0  0  2  0  0  0  0  0  0
  185.8910  178.1480  142.0660 C   0  0  0  0  0  0  0  0  0  0  0  0
  186.7200  178.2520  141.0040 C   0  0  0  0  0  0  0  0  0  0  0  0
  188.9440  176.9280  136.6440 C   0  0  2  0  0  3  0  0  0  0  0  0
  187.6570  176.1110  136.8550 C   0  0  0  0  0  2  0  0  0  0  0  0
  184.6240  178.1190  140.0260 C   0  0  2  0  0  3  0  0  0  0  0  0
  188.6660  178.2440  142.3790 C   0  0  0  0  0  3  0  0  0  0  0  0
  184.4780  178.0650  141.5800 C   0  0  0  0  0  2  0  0  0  0  0  0
  186.0590  178.2580  139.7790 N   0  0  0  0  0  0  0  0  0  0  0  0
  188.1760  178.2970  138.6440 C   0  0  0  0  0  0  0  0  0  0  0  0
  188.0920  178.2820  141.0990 C   0  0  0  0  0  0  0  0  0  0  0  0
  188.8270  178.3270  139.9040 O   0  0  0  0  0  0  0  0  0  0  0  0
  186.3670  176.8560  136.4830 C   0  0  0  0  0  2  0  0  0  0  0  0
  192.3490  175.9150  137.9560 C   0  0  0  0  0  3  0  0  0  0  0  0
  191.2170  176.6750  137.6500 C   0  0  0  0  0  3  0  0  0  0  0  0
  190.1470  176.0970  136.9570 C   0  0  0  0  0  0  0  0  0  0  0  0
  191.3500  173.9900  136.8800 C   0  0  0  0  0  3  0  0  0  0  0  0
  190.2180  174.7480  136.5730 C   0  0  0  0  0  3  0  0  0  0  0  0
  192.4160  174.5730  137.5710 C   0  0  0  0  0  0  0  0  0  0  0  0
  193.5140  173.8380  137.8690 F   0  0  0  0  0  0  0  0  0  0  0  0
  182.4700  179.1880  139.2720 N   0  0  0  0  0  2  0  0  0  0  0  0
  184.4920  180.3520  139.1720 O   0  0  0  0  0  0  0  0  0  0  0  0
  183.8790  179.2900  139.4710 C   0  0  0  0  0  0  0  0  0  0  0  0
  181.6890  180.2850  138.7220 C   0  0  0  0  0  2  0  0  0  0  0  0
  180.2390  179.3400  140.4990 C   0  0  0  0  0  2  0  0  0  0  0  0
  180.0560  181.6260  139.9220 N   0  0  0  0  0  2  0  0  0  0  0  0
  180.3120  180.3110  139.3590 C   0  0  1  0  0  3  0  0  0  0  0  0
  179.2160  181.4420  141.0390 N   0  0  0  0  0  2  0  0  0  0  0  0
  179.3910  180.0690  141.5060 C   0  0  2  0  0  3  0  0  0  0  0  0
  180.0140  180.0240  142.9040 C   0  0  1  0  0  3  0  0  0  0  0  0
  179.3410  178.9980  143.8060 C   0  0  0  0  0  1  0  0  0  0  0  0
  181.6680  178.9760  143.9370 C   0  0  0  0  0  1  0  0  0  0  0  0
  181.3790  179.7440  142.8080 O   0  0  0  0  0  0  0  0  0  0  0  0
  1 15  2  0  0  0  0
  1 14  1  0  0  0  0
  2  5  1  0  0  0  0
  3  2  1  0  0  0  0
  4  1  1  0  0  0  0
  6 15  1  0  0  0  0
  7  3  2  0  0  0  0
  8 16  2  0  0  0  0
  8  7  1  0  0  0  0
  9 10  1  0  0  0  0
  9 21  1  1  0  0  0
  9  6  1  0  0  0  0
 11 28  1  1  0  0  0
 11 13  1  0  0  0  0
 12  2  2  0  0  0  0
 13  7  1  0  0  0  0
 14 11  1  0  0  0  0
 14  8  1  0  0  0  0
 15 17  1  0  0  0  0
 16 12  1  0  0  0  0
 17 16  1  0  0  0  0
 18 10  1  0  0  0  0
 18  4  1  0  0  0  0
 20 19  1  0  0  0  0
 21 20  2  0  0  0  0
 22 24  1  0  0  0  0
 23 22  2  0  0  0  0
 23 21  1  0  0  0  0
 24 25  1  0  0  0  0
 24 19  2  0  0  0  0
 26 28  1  0  0  0  0
 27 28  2  0  0  0  0
 29 26  1  0  0  0  0
 30 34  1  0  0  0  0
 31 33  1  0  0  0  0
 32 29  1  1  0  0  0
 32 31  1  0  0  0  0
 32 30  1  0  0  0  0
 33 34  1  0  0  0  0
 34 35  1  1  0  0  0
 35 36  1  1  0  0  0
 38 35  1  0  0  0  0
 38 37  1  0  0  0  0
M  END
>  <MODEL>
5

>  <REMARK>
 VINA RESULT:      -7.8      4.613     11.203
  Name = 
  6 active torsions:
  status: ('A' for Active; 'I' for Inactive)
    1  A    between atoms: C_10  and  O_26
    2  A    between atoms: C_10  and  C_36
    3  A    between atoms: C_14  and  C_15
    4  A    between atoms: C_18  and  C_33
    5  A    between atoms: C_19  and  C_20
    6  A    between atoms: C_19  and  N_24
                            x       y       z     vdW  Elec       q    Type
                         _______ _______ _______ _____ _____    ______ ____

>  <TORSDO>
F 6

$$$$
=
 OpenBabel11042410013D

 38 43  0  0  1  0  0  0  0  0999 V2000
  190.2900  177.3330  141.2700 C   0  0  0  0  0  0  0  0  0  0  0  0
  186.3440  178.0590  138.1960 C   0  0  0  0  0  0  0  0  0  0  0  0
  187.2010  177.1180  137.5760 C   0  0  0  0  0  3  0  0  0  0  0  0
  191.5360  176.7970  141.9170 C   0  0  0  0  0  2  0  0  0  0  0  0
  185.1590  178.4260  137.5730 O   0  0  0  0  0  1  0  0  0  0  0  0
  189.8710  178.6900  143.3010 C   0  0  0  0  0  2  0  0  0  0  0  0
  188.3900  176.7810  138.2290 C   0  0  0  0  0  0  0  0  0  0  0  0
  188.6950  177.3500  139.4160 C   0  0  0  0  0  0  0  0  0  0  0  0
  189.7550  177.5850  144.3690 C   0  0  2  0  0  3  0  0  0  0  0  0
  189.9330  176.1460  143.8540 C   0  0  0  0  0  2  0  0  0  0  0  0
  190.4560  175.8870  139.0640 C   0  0  2  0  0  3  0  0  0  0  0  0
  186.6800  178.6220  139.4520 C   0  0  0  0  0  3  0  0  0  0  0  0
  189.4630  175.8060  137.8610 C   0  0  0  0  0  2  0  0  0  0  0  0
  189.8920  176.8950  139.9620 N   0  0  0  0  0  0  0  0  0  0  0  0
  189.4980  178.2260  141.9220 C   0  0  0  0  0  0  0  0  0  0  0  0
  187.8820  178.2450  140.0720 C   0  0  0  0  0  0  0  0  0  0  0  0
  188.3000  178.7040  141.3310 O   0  0  0  0  0  0  0  0  0  0  0  0
  191.2630  175.8940  143.1300 C   0  0  0  0  0  2  0  0  0  0  0  0
  186.0480  177.8170  145.1090 C   0  0  0  0  0  3  0  0  0  0  0  0
  187.2600  177.7010  144.4230 C   0  0  0  0  0  3  0  0  0  0  0  0
  188.4700  177.7140  145.1240 C   0  0  0  0  0  0  0  0  0  0  0  0
  187.2480  177.9590  147.2070 C   0  0  0  0  0  3  0  0  0  0  0  0
  188.4600  177.8440  146.5220 C   0  0  0  0  0  3  0  0  0  0  0  0
  186.0420  177.9460  146.5010 C   0  0  0  0  0  0  0  0  0  0  0  0
  184.8660  178.0580  147.1650 F   0  0  0  0  0  0  0  0  0  0  0  0
  192.6860  175.3240  138.0330 N   0  0  0  0  0  2  0  0  0  0  0  0
  192.1860  177.5040  138.7050 O   0  0  0  0  0  0  0  0  0  0  0  0
  191.8140  176.3030  138.5950 C   0  0  0  0  0  0  0  0  0  0  0  0
  194.0240  175.6600  137.5710 C   0  0  0  0  0  2  0  0  0  0  0  0
  195.7560  174.5940  136.1500 C   0  0  0  0  0  2  0  0  0  0  0  0
  193.5590  173.7190  136.1840 N   0  0  0  0  0  2  0  0  0  0  0  0
  194.3060  174.9640  136.2520 C   0  0  1  0  0  3  0  0  0  0  0  0
  194.3190  172.8220  135.4080 N   0  0  0  0  0  2  0  0  0  0  0  0
  195.7120  173.2570  135.4600 C   0  0  2  0  0  3  0  0  0  0  0  0
  196.5990  172.2290  136.1690 C   0  0  1  0  0  3  0  0  0  0  0  0
  198.0640  172.6430  136.1880 C   0  0  0  0  0  1  0  0  0  0  0  0
  196.0160  170.6490  137.6050 C   0  0  0  0  0  1  0  0  0  0  0  0
  196.1480  172.0320  137.4760 O   0  0  0  0  0  0  0  0  0  0  0  0
  1  4  1  0  0  0  0
  1 15  2  0  0  0  0
  2 12  1  0  0  0  0
  3  2  2  0  0  0  0
  3  7  1  0  0  0  0
  4 18  1  0  0  0  0
  5  2  1  0  0  0  0
  6  9  1  0  0  0  0
  7  8  2  0  0  0  0
  8 14  1  0  0  0  0
  8 16  1  0  0  0  0
  9 21  1  6  0  0  0
 10  9  1  0  0  0  0
 11 28  1  6  0  0  0
 11 14  1  0  0  0  0
 12 16  2  0  0  0  0
 13  7  1  0  0  0  0
 13 11  1  0  0  0  0
 14  1  1  0  0  0  0
 15  6  1  0  0  0  0
 16 17  1  0  0  0  0
 17 15  1  0  0  0  0
 18 10  1  0  0  0  0
 19 24  1  0  0  0  0
 20 19  2  0  0  0  0
 20 21  1  0  0  0  0
 21 23  2  0  0  0  0
 23 22  1  0  0  0  0
 24 25  1  0  0  0  0
 24 22  2  0  0  0  0
 26 28  1  0  0  0  0
 28 27  2  0  0  0  0
 29 26  1  0  0  0  0
 30 32  1  0  0  0  0
 31 32  1  0  0  0  0
 32 29  1  1  0  0  0
 33 34  1  0  0  0  0
 33 31  1  0  0  0  0
 34 30  1  0  0  0  0
 34 35  1  1  0  0  0
 35 36  1  1  0  0  0
 35 38  1  0  0  0  0
 38 37  1  0  0  0  0
M  END
>  <MODEL>
6

>  <REMARK>
 VINA RESULT:      -7.7      1.877      2.564
  Name = 
  6 active torsions:
  status: ('A' for Active; 'I' for Inactive)
    1  A    between atoms: C_10  and  O_26
    2  A    between atoms: C_10  and  C_36
    3  A    between atoms: C_14  and  C_15
    4  A    between atoms: C_18  and  C_33
    5  A    between atoms: C_19  and  C_20
    6  A    between atoms: C_19  and  N_24
                            x       y       z     vdW  Elec       q    Type
                         _______ _______ _______ _____ _____    ______ ____

>  <TORSDO>
F 6

$$$$
=
 OpenBabel11042410013D

 38 43  0  0  1  0  0  0  0  0999 V2000
  187.1120  177.5030  141.8040 C   0  0  0  0  0  0  0  0  0  0  0  0
  191.9930  177.1280  140.5480 C   0  0  0  0  0  0  0  0  0  0  0  0
  191.3390  177.8380  139.5130 C   0  0  0  0  0  3  0  0  0  0  0  0
  185.6600  177.8870  141.8540 C   0  0  0  0  0  2  0  0  0  0  0  0
  193.3600  176.9010  140.4700 O   0  0  0  0  0  1  0  0  0  0  0  0
  186.8690  176.4620  144.0400 C   0  0  0  0  0  2  0  0  0  0  0  0
  189.9600  178.0380  139.6220 C   0  0  0  0  0  0  0  0  0  0  0  0
  189.2890  177.5560  140.6910 C   0  0  0  0  0  0  0  0  0  0  0  0
  186.4360  177.6780  144.8810 C   0  0  2  0  0  3  0  0  0  0  0  0
  186.3050  179.0030  144.1090 C   0  0  0  0  0  2  0  0  0  0  0  0
  187.6430  178.6540  139.4860 C   0  0  2  0  0  3  0  0  0  0  0  0
  191.2660  176.6540  141.6680 C   0  0  0  0  0  3  0  0  0  0  0  0
  189.0070  178.7720  138.7330 C   0  0  0  0  0  2  0  0  0  0  0  0
  187.9300  177.8580  140.6790 N   0  0  0  0  0  0  0  0  0  0  0  0
  187.6880  176.8320  142.8370 C   0  0  0  0  0  0  0  0  0  0  0  0
  189.8830  176.8870  141.7350 C   0  0  0  0  0  0  0  0  0  0  0  0
  189.0680  176.5020  142.8110 O   0  0  0  0  0  0  0  0  0  0  0  0
  185.3380  178.9490  142.9190 C   0  0  0  0  0  2  0  0  0  0  0  0
  189.5590  177.7260  147.0240 C   0  0  0  0  0  3  0  0  0  0  0  0
  188.7000  177.5690  145.9320 C   0  0  0  0  0  3  0  0  0  0  0  0
  187.3350  177.8500  146.0640 C   0  0  0  0  0  0  0  0  0  0  0  0
  187.6940  178.4480  148.3890 C   0  0  0  0  0  3  0  0  0  0  0  0
  186.8350  178.2910  147.2990 C   0  0  0  0  0  3  0  0  0  0  0  0
  189.0560  178.1650  148.2510 C   0  0  0  0  0  0  0  0  0  0  0  0
  189.8900  178.3170  149.3090 F   0  0  0  0  0  0  0  0  0  0  0  0
  187.0600  176.9670  137.7070 N   0  0  0  0  0  2  0  0  0  0  0  0
  185.4090  178.2780  138.7100 O   0  0  0  0  0  0  0  0  0  0  0  0
  186.6300  177.9670  138.6280 C   0  0  0  0  0  0  0  0  0  0  0  0
  186.1280  176.2720  136.8330 C   0  0  0  0  0  2  0  0  0  0  0  0
  188.0460  175.4750  135.4770 C   0  0  0  0  0  2  0  0  0  0  0  0
  187.2260  174.1450  137.2520 N   0  0  0  0  0  2  0  0  0  0  0  0
  186.8030  175.0650  136.2090 C   0  0  1  0  0  3  0  0  0  0  0  0
  188.3840  173.4920  136.7840 N   0  0  0  0  0  2  0  0  0  0  0  0
  188.9940  174.3420  135.7660 C   0  0  2  0  0  3  0  0  0  0  0  0
  190.3670  174.8570  136.2080 C   0  0  1  0  0  3  0  0  0  0  0  0
  190.4340  176.3780  136.2350 C   0  0  0  0  0  1  0  0  0  0  0  0
  192.0610  174.5250  137.5940 C   0  0  0  0  0  1  0  0  0  0  0  0
  190.6820  174.3480  137.4700 O   0  0  0  0  0  0  0  0  0  0  0  0
  1  4  1  0  0  0  0
  1 15  2  0  0  0  0
  2 12  1  0  0  0  0
  3  7  1  0  0  0  0
  3  2  2  0  0  0  0
  4 18  1  0  0  0  0
  5  2  1  0  0  0  0
  6  9  1  0  0  0  0
  7  8  2  0  0  0  0
  8 16  1  0  0  0  0
  9 21  1  1  0  0  0
 10  9  1  0  0  0  0
 11 28  1  6  0  0  0
 11 14  1  0  0  0  0
 12 16  2  0  0  0  0
 13 11  1  0  0  0  0
 13  7  1  0  0  0  0
 14  8  1  0  0  0  0
 14  1  1  0  0  0  0
 15  6  1  0  0  0  0
 16 17  1  0  0  0  0
 17 15  1  0  0  0  0
 18 10  1  0  0  0  0
 19 24  1  0  0  0  0
 20 21  1  0  0  0  0
 20 19  2  0  0  0  0
 21 23  2  0  0  0  0
 23 22  1  0  0  0  0
 24 22  2  0  0  0  0
 24 25  1  0  0  0  0
 26 28  1  0  0  0  0
 28 27  2  0  0  0  0
 29 26  1  0  0  0  0
 30 34  1  0  0  0  0
 30 32  1  0  0  0  0
 32 29  1  1  0  0  0
 32 31  1  0  0  0  0
 33 31  1  0  0  0  0
 34 35  1  1  0  0  0
 34 33  1  0  0  0  0
 35 36  1  1  0  0  0
 35 38  1  0  0  0  0
 38 37  1  0  0  0  0
M  END
>  <MODEL>
7

>  <REMARK>
 VINA RESULT:      -7.6      3.615      6.064
  Name = 
  6 active torsions:
  status: ('A' for Active; 'I' for Inactive)
    1  A    between atoms: C_10  and  O_26
    2  A    between atoms: C_10  and  C_36
    3  A    between atoms: C_14  and  C_15
    4  A    between atoms: C_18  and  C_33
    5  A    between atoms: C_19  and  C_20
    6  A    between atoms: C_19  and  N_24
                            x       y       z     vdW  Elec       q    Type
                         _______ _______ _______ _____ _____    ______ ____

>  <TORSDO>
F 6

$$$$
=
 OpenBabel11042410013D

 38 43  0  0  1  0  0  0  0  0999 V2000
  186.0510  177.7550  143.8670 C   0  0  0  0  0  0  0  0  0  0  0  0
  189.5070  177.4400  140.1930 C   0  0  0  0  0  0  0  0  0  0  0  0
  188.4760  178.2940  139.7360 C   0  0  0  0  0  3  0  0  0  0  0  0
  184.8770  178.1610  144.7140 C   0  0  0  0  0  2  0  0  0  0  0  0
  190.6080  177.1950  139.3830 O   0  0  0  0  0  1  0  0  0  0  0  0
  186.9180  176.4350  145.7770 C   0  0  0  0  0  2  0  0  0  0  0  0
  187.3790  178.5090  140.5760 C   0  0  0  0  0  0  0  0  0  0  0  0
  187.3240  177.9060  141.7840 C   0  0  0  0  0  0  0  0  0  0  0  0
  187.0950  177.5400  146.8360 C   0  0  2  0  0  3  0  0  0  0  0  0
  186.6980  178.9570  146.3860 C   0  0  0  0  0  2  0  0  0  0  0  0
  185.3950  179.1890  141.7460 C   0  0  2  0  0  3  0  0  0  0  0  0
  189.4320  176.8390  141.4740 C   0  0  0  0  0  3  0  0  0  0  0  0
  186.1710  179.3750  140.4030 C   0  0  0  0  0  2  0  0  0  0  0  0
  186.1900  178.2370  142.5220 N   0  0  0  0  0  0  0  0  0  0  0  0
  187.0190  176.9410  144.3670 C   0  0  0  0  0  0  0  0  0  0  0  0
  188.3140  177.0920  142.2840 C   0  0  0  0  0  0  0  0  0  0  0  0
  188.1480  176.5870  143.5840 O   0  0  0  0  0  0  0  0  0  0  0  0
  185.2520  179.0810  145.8880 C   0  0  0  0  0  2  0  0  0  0  0  0
  190.7830  176.7640  147.2110 C   0  0  0  0  0  3  0  0  0  0  0  0
  189.4720  176.7800  146.7250 C   0  0  0  0  0  3  0  0  0  0  0  0
  188.4900  177.5340  147.3760 C   0  0  0  0  0  0  0  0  0  0  0  0
  190.1390  178.2580  149.0040 C   0  0  0  0  0  3  0  0  0  0  0  0
  188.8290  178.2750  148.5190 C   0  0  0  0  0  3  0  0  0  0  0  0
  191.1160  177.5020  148.3490 C   0  0  0  0  0  0  0  0  0  0  0  0
  192.3870  177.4860  148.8190 F   0  0  0  0  0  0  0  0  0  0  0  0
  183.8310  177.7390  140.4040 N   0  0  0  0  0  2  0  0  0  0  0  0
  183.0560  178.9890  142.2170 O   0  0  0  0  0  0  0  0  0  0  0  0
  184.0270  178.6440  141.4890 C   0  0  0  0  0  0  0  0  0  0  0  0
  182.5240  177.1840  140.0900 C   0  0  0  0  0  2  0  0  0  0  0  0
  183.4150  177.4310  137.7890 C   0  0  0  0  0  2  0  0  0  0  0  0
  183.0680  175.2730  138.6920 N   0  0  0  0  0  2  0  0  0  0  0  0
  182.5240  176.6210  138.6810 C   0  0  1  0  0  3  0  0  0  0  0  0
  183.7030  175.0730  137.4490 N   0  0  0  0  0  2  0  0  0  0  0  0
  184.0470  176.3860  136.9090 C   0  0  2  0  0  3  0  0  0  0  0  0
  185.5640  176.5760  136.8120 C   0  0  1  0  0  3  0  0  0  0  0  0
  186.0900  176.3220  135.4050 C   0  0  0  0  0  1  0  0  0  0  0  0
  186.9450  178.2460  136.3640 C   0  0  0  0  0  1  0  0  0  0  0  0
  185.9090  177.8670  137.2180 O   0  0  0  0  0  0  0  0  0  0  0  0
  1 15  2  0  0  0  0
  1  4  1  0  0  0  0
  2 12  1  0  0  0  0
  3  2  2  0  0  0  0
  3  7  1  0  0  0  0
  4 18  1  0  0  0  0
  5  2  1  0  0  0  0
  6  9  1  0  0  0  0
  7  8  2  0  0  0  0
  8 16  1  0  0  0  0
  8 14  1  0  0  0  0
  9 21  1  6  0  0  0
 10  9  1  0  0  0  0
 11 28  1  6  0  0  0
 11 14  1  0  0  0  0
 12 16  2  0  0  0  0
 13  7  1  0  0  0  0
 13 11  1  0  0  0  0
 14  1  1  0  0  0  0
 15  6  1  0  0  0  0
 16 17  1  0  0  0  0
 17 15  1  0  0  0  0
 18 10  1  0  0  0  0
 19 24  1  0  0  0  0
 20 19  2  0  0  0  0
 20 21  1  0  0  0  0
 21 23  2  0  0  0  0
 23 22  1  0  0  0  0
 24 25  1  0  0  0  0
 24 22  2  0  0  0  0
 26 28  1  0  0  0  0
 28 27  2  0  0  0  0
 29 26  1  0  0  0  0
 30 32  1  0  0  0  0
 32 31  1  0  0  0  0
 32 29  1  1  0  0  0
 33 31  1  0  0  0  0
 34 35  1  1  0  0  0
 34 33  1  0  0  0  0
 34 30  1  0  0  0  0
 35 36  1  6  0  0  0
 35 38  1  0  0  0  0
 37 38  1  0  0  0  0
M  END
>  <MODEL>
8

>  <REMARK>
 VINA RESULT:      -7.5      5.351      8.427
  Name = 
  6 active torsions:
  status: ('A' for Active; 'I' for Inactive)
    1  A    between atoms: C_10  and  O_26
    2  A    between atoms: C_10  and  C_36
    3  A    between atoms: C_14  and  C_15
    4  A    between atoms: C_18  and  C_33
    5  A    between atoms: C_19  and  C_20
    6  A    between atoms: C_19  and  N_24
                            x       y       z     vdW  Elec       q    Type
                         _______ _______ _______ _____ _____    ______ ____

>  <TORSDO>
F 6

$$$$
=
 OpenBabel11042410013D

 38 43  0  0  1  0  0  0  0  0999 V2000
  186.8470  177.5660  141.9500 C   0  0  0  0  0  0  0  0  0  0  0  0
  191.6420  177.1940  140.3980 C   0  0  0  0  0  0  0  0  0  0  0  0
  190.9270  177.9050  139.4060 C   0  0  0  0  0  3  0  0  0  0  0  0
  185.4000  177.9490  142.0890 C   0  0  0  0  0  2  0  0  0  0  0  0
  193.0030  176.9680  140.2370 O   0  0  0  0  0  1  0  0  0  0  0  0
  186.7410  176.5220  144.1950 C   0  0  0  0  0  2  0  0  0  0  0  0
  189.5570  178.1050  139.5990 C   0  0  0  0  0  0  0  0  0  0  0  0
  188.9520  177.6210  140.7060 C   0  0  0  0  0  0  0  0  0  0  0  0
  186.3590  177.7370  145.0620 C   0  0  2  0  0  3  0  0  0  0  0  0
  186.1810  179.0630  144.3010 C   0  0  0  0  0  2  0  0  0  0  0  0
  187.2350  178.7200  139.6050 C   0  0  2  0  0  3  0  0  0  0  0  0
  190.9850  176.7190  141.5600 C   0  0  0  0  0  3  0  0  0  0  0  0
  188.5510  178.8400  138.7710 C   0  0  0  0  0  2  0  0  0  0  0  0
  187.5950  177.9230  140.7780 N   0  0  0  0  0  0  0  0  0  0  0  0
  187.4850  176.8930  142.9450 C   0  0  0  0  0  0  0  0  0  0  0  0
  189.6090  176.9510  141.7120 C   0  0  0  0  0  0  0  0  0  0  0  0
  188.8610  176.5640  142.8350 O   0  0  0  0  0  0  0  0  0  0  0  0
  185.1430  179.0090  143.1720 C   0  0  0  0  0  2  0  0  0  0  0  0
  189.6100  177.8050  147.0050 C   0  0  0  0  0  3  0  0  0  0  0  0
  188.6860  177.6490  145.9670 C   0  0  0  0  0  3  0  0  0  0  0  0
  187.3290  177.9070  146.1880 C   0  0  0  0  0  0  0  0  0  0  0  0
  187.8240  178.4800  148.4940 C   0  0  0  0  0  3  0  0  0  0  0  0
  186.9000  178.3250  147.4580 C   0  0  0  0  0  3  0  0  0  0  0  0
  189.1790  178.2210  148.2680 C   0  0  0  0  0  0  0  0  0  0  0  0
  190.0750  178.3710  149.2720 F   0  0  0  0  0  0  0  0  0  0  0  0
  184.8090  178.4110  138.9980 N   0  0  0  0  0  2  0  0  0  0  0  0
  186.4770  177.1250  137.9890 O   0  0  0  0  0  0  0  0  0  0  0  0
  186.1720  178.0350  138.8090 C   0  0  0  0  0  0  0  0  0  0  0  0
  183.7260  177.7730  138.2660 C   0  0  0  0  0  2  0  0  0  0  0  0
  181.3770  178.2400  138.9140 C   0  0  0  0  0  2  0  0  0  0  0  0
  182.9140  180.0230  138.6940 N   0  0  0  0  0  2  0  0  0  0  0  0
  182.5570  178.7320  138.1310 C   0  0  1  0  0  3  0  0  0  0  0  0
  181.7300  180.5950  139.2020 N   0  0  0  0  0  2  0  0  0  0  0  0
  180.7910  179.5100  139.4690 C   0  0  2  0  0  3  0  0  0  0  0  0
  180.4870  179.3820  140.9650 C   0  0  1  0  0  3  0  0  0  0  0  0
  181.6470  178.7730  141.7420 C   0  0  0  0  0  1  0  0  0  0  0  0
  179.5180  180.3610  142.6980 C   0  0  0  0  0  1  0  0  0  0  0  0
  180.1710  180.6350  141.4960 O   0  0  0  0  0  0  0  0  0  0  0  0
  1  4  1  0  0  0  0
  1 15  2  0  0  0  0
  2 12  1  0  0  0  0
  3  7  1  0  0  0  0
  3  2  2  0  0  0  0
  4 18  1  0  0  0  0
  5  2  1  0  0  0  0
  6  9  1  0  0  0  0
  7  8  2  0  0  0  0
  8 14  1  0  0  0  0
  8 16  1  0  0  0  0
  9 21  1  1  0  0  0
 10  9  1  0  0  0  0
 11 28  1  6  0  0  0
 11 14  1  0  0  0  0
 12 16  2  0  0  0  0
 13  7  1  0  0  0  0
 13 11  1  0  0  0  0
 14  1  1  0  0  0  0
 15  6  1  0  0  0  0
 16 17  1  0  0  0  0
 17 15  1  0  0  0  0
 18 10  1  0  0  0  0
 19 24  1  0  0  0  0
 20 21  1  0  0  0  0
 20 19  2  0  0  0  0
 21 23  2  0  0  0  0
 23 22  1  0  0  0  0
 24 22  2  0  0  0  0
 24 25  1  0  0  0  0
 27 28  2  0  0  0  0
 28 26  1  0  0  0  0
 29 26  1  0  0  0  0
 30 34  1  0  0  0  0
 31 33  1  0  0  0  0
 32 29  1  1  0  0  0
 32 31  1  0  0  0  0
 32 30  1  0  0  0  0
 33 34  1  0  0  0  0
 34 35  1  1  0  0  0
 35 38  1  0  0  0  0
 35 36  1  1  0  0  0
 38 37  1  0  0  0  0
M  END
>  <MODEL>
9

>  <REMARK>
 VINA RESULT:      -7.5      4.460      9.582
  Name = 
  6 active torsions:
  status: ('A' for Active; 'I' for Inactive)
    1  A    between atoms: C_10  and  O_26
    2  A    between atoms: C_10  and  C_36
    3  A    between atoms: C_14  and  C_15
    4  A    between atoms: C_18  and  C_33
    5  A    between atoms: C_19  and  C_20
    6  A    between atoms: C_19  and  N_24
                            x       y       z     vdW  Elec       q    Type
                         _______ _______ _______ _____ _____    ______ ____

>  <TORSDO>
F 6

$$$$
