=
 OpenBabel11042413193D

 40 43  0  0  1  0  0  0  0  0999 V2000
  191.3160  176.6700  138.3010 C   0  0  0  0  0  3  0  0  0  0  0  0
  191.1710  177.1740  140.6730 C   0  0  0  0  0  0  0  0  0  0  0  0
  192.5720  177.1730  140.7420 C   0  0  0  0  0  3  0  0  0  0  0  0
  190.5390  176.9220  139.4440 C   0  0  0  0  0  0  0  0  0  0  0  0
  192.7110  176.6620  138.3820 C   0  0  0  0  0  0  0  0  0  0  0  0
  193.3390  176.9200  139.6030 C   0  0  0  0  0  3  0  0  0  0  0  0
  190.3870  175.3050  142.8120 O   0  0  0  0  0  0  0  0  0  0  0  0
  190.3610  177.4340  141.8300 N   0  0  0  0  0  2  0  0  0  0  0  0
  189.9980  176.5040  142.8610 C   0  0  0  0  0  0  0  0  0  0  0  0
  189.1610  176.9550  143.9860 C   0  0  0  0  0  0  0  0  0  0  0  0
  189.7430  177.4770  145.1480 C   0  0  0  0  0  3  0  0  0  0  0  0
  188.9620  177.8910  146.1830 N   0  0  0  0  0  0  0  0  0  0  0  0
  187.6050  177.8150  146.1240 C   0  0  0  0  0  0  0  0  0  0  0  0
  187.7650  176.8720  143.9140 C   0  0  0  0  0  3  0  0  0  0  0  0
  186.9810  177.3020  144.9850 C   0  0  0  0  0  3  0  0  0  0  0  0
  186.8220  178.2580  147.2250 N   0  0  0  0  0  1  0  0  0  0  0  0
  189.1430  176.9290  139.3810 O   0  0  0  0  0  0  0  0  0  0  0  0
  188.4170  176.6010  138.1970 C   0  0  0  0  0  2  0  0  0  0  0  0
  187.6730  177.7550  137.6910 N   0  0  0  0  0  0  0  0  0  0  0  0
  188.5510  178.6160  136.9000 C   0  0  0  0  0  1  0  0  0  0  0  0
  186.4790  177.3200  136.9450 C   0  0  2  0  0  3  0  0  0  0  0  0
  186.4790  177.7420  135.4760 C   0  0  0  0  0  1  0  0  0  0  0  0
  185.2110  177.8160  137.6220 C   0  0  0  0  0  2  0  0  0  0  0  0
  185.5510  178.7180  138.7090 N   0  0  0  0  0  2  0  0  0  0  0  0
  183.1030  178.6770  140.0250 S   0  0  0  0  0  0  0  0  0  0  0  0
  183.4870  179.0600  144.4140 C   0  0  0  0  0  3  0  0  0  0  0  0
  185.3440  178.9070  141.1860 C   0  0  0  0  0  0  0  0  0  0  0  0
  184.7930  178.7680  139.9170 C   0  0  0  0  0  0  0  0  0  0  0  0
  184.6000  179.0570  143.5580 C   0  0  0  0  0  3  0  0  0  0  0  0
  184.3720  178.9300  142.1890 C   0  0  0  0  0  0  0  0  0  0  0  0
  182.2210  178.9430  143.9100 N   0  0  0  0  0  0  0  0  0  0  0  0
  181.9880  178.8180  142.5720 C   0  0  0  0  0  0  0  0  0  0  0  0
  186.6770  179.0070  141.4210 F   0  0  0  0  0  0  0  0  0  0  0  0
  183.0780  178.8120  141.7040 C   0  0  0  0  0  0  0  0  0  0  0  0
  180.6570  178.6980  142.0830 N   0  0  0  0  0  1  0  0  0  0  0  0
  193.5270  176.4170  137.1620 C   0  0  0  0  0  2  0  0  0  0  0  0
  194.7120  175.6520  137.5100 N   0  0  0  0  0  2  0  0  0  0  0  0
  194.4060  174.2590  137.2300 C   0  0  0  0  0  2  0  0  0  0  0  0
  195.0390  173.3660  138.2810 C   0  0  0  0  0  2  0  0  0  0  0  0
  195.8430  174.1970  139.2620 C   0  0  0  0  0  1  0  0  0  0  0  0
  1  5  2  0  0  0  0
  1  4  1  0  0  0  0
  2  3  1  0  0  0  0
  2  8  1  0  0  0  0
  4  2  2  0  0  0  0
  5  6  1  0  0  0  0
  6  3  2  0  0  0  0
  7  9  2  0  0  0  0
  8  9  1  0  0  0  0
  9 10  1  0  0  0  0
 10 11  1  0  0  0  0
 11 12  2  0  0  0  0
 13 12  1  0  0  0  0
 13 16  1  0  0  0  0
 14 10  2  0  0  0  0
 14 15  1  0  0  0  0
 15 13  2  0  0  0  0
 17  4  1  0  0  0  0
 18 17  1  0  0  0  0
 19 18  1  0  0  0  0
 20 19  1  0  0  0  0
 21 22  1  6  0  0  0
 21 23  1  0  0  0  0
 21 19  1  0  0  0  0
 23 24  1  0  0  0  0
 24 28  1  0  0  0  0
 25 34  1  0  0  0  0
 27 33  1  0  0  0  0
 27 30  1  0  0  0  0
 28 25  1  0  0  0  0
 28 27  2  0  0  0  0
 29 26  2  0  0  0  0
 30 29  1  0  0  0  0
 31 26  1  0  0  0  0
 32 31  2  0  0  0  0
 34 30  2  0  0  0  0
 34 32  1  0  0  0  0
 35 32  1  0  0  0  0
 36 37  1  0  0  0  0
 36  5  1  0  0  0  0
 38 37  1  0  0  0  0
 38 39  1  0  0  0  0
 39 40  1  0  0  0  0
M  END
>  <MODEL>
1

>  <REMARK>
 VINA RESULT:      -8.3      0.000      0.000
  Name = 
  13 active torsions:
  status: ('A' for Active; 'I' for Inactive)
    1  A    between atoms: C_2  and  N_7
    2  A    between atoms: C_8  and  C_29
    3  A    between atoms: C_9  and  N_17
    4  A    between atoms: C_11  and  O_24
    5  A    between atoms: N_12  and  C_20
    6  A    between atoms: N_12  and  C_26
    7  A    between atoms: C_15  and  C_38
    8  A    between atoms: N_17  and  C_25
    9  A    between atoms: C_20  and  C_25
   10  A    between atoms: O_24  and  C_26
   11  A    between atoms: N_32  and  C_34
   12  A    between atoms: N_32  and  C_38
   13  A    between atoms: C_34  and  C_35
                            x       y       z     vdW  Elec       q    Type
                         _______ _______ _______ _____ _____    ______ ____

>  <TORSDO>
F 13

$$$$
=
 OpenBabel11042413193D

 40 43  0  0  1  0  0  0  0  0999 V2000
  187.3340  177.6530  145.3560 C   0  0  0  0  0  3  0  0  0  0  0  0
  185.2930  178.1150  144.1240 C   0  0  0  0  0  0  0  0  0  0  0  0
  184.7420  178.6840  145.2820 C   0  0  0  0  0  3  0  0  0  0  0  0
  186.5980  177.5970  144.1610 C   0  0  0  0  0  0  0  0  0  0  0  0
  186.7750  178.2130  146.5060 C   0  0  0  0  0  0  0  0  0  0  0  0
  185.4790  178.7340  146.4670 C   0  0  0  0  0  3  0  0  0  0  0  0
  185.6440  179.7570  141.7030 O   0  0  0  0  0  0  0  0  0  0  0  0
  184.5560  178.0540  142.8930 N   0  0  0  0  0  2  0  0  0  0  0  0
  184.7520  178.8650  141.7250 C   0  0  0  0  0  0  0  0  0  0  0  0
  183.9010  178.6530  140.5410 C   0  0  0  0  0  0  0  0  0  0  0  0
  183.6680  179.6910  139.6300 C   0  0  0  0  0  3  0  0  0  0  0  0
  182.8810  179.4850  138.5390 N   0  0  0  0  0  0  0  0  0  0  0  0
  182.3010  178.2780  138.2980 C   0  0  0  0  0  0  0  0  0  0  0  0
  183.3100  177.4060  140.3030 C   0  0  0  0  0  3  0  0  0  0  0  0
  182.5060  177.2150  139.1790 C   0  0  0  0  0  3  0  0  0  0  0  0
  181.4850  178.1010  137.1470 N   0  0  0  0  0  1  0  0  0  0  0  0
  187.1420  177.0360  143.0010 O   0  0  0  0  0  0  0  0  0  0  0  0
  188.5130  176.6570  142.8920 C   0  0  0  0  0  2  0  0  0  0  0  0
  189.2880  177.6610  142.1610 N   0  0  0  0  0  0  0  0  0  0  0  0
  190.6260  177.7840  142.7360 C   0  0  0  0  0  1  0  0  0  0  0  0
  189.3130  177.3530  140.7200 C   0  0  2  0  0  3  0  0  0  0  0  0
  190.7200  177.2550  140.1330 C   0  0  0  0  0  1  0  0  0  0  0  0
  188.5000  178.3720  139.9380 C   0  0  0  0  0  2  0  0  0  0  0  0
  188.6700  178.1530  138.5120 N   0  0  0  0  0  2  0  0  0  0  0  0
  188.2940  175.7140  137.2310 S   0  0  0  0  0  0  0  0  0  0  0  0
  184.2540  175.2760  135.4890 C   0  0  0  0  0  3  0  0  0  0  0  0
  186.5280  177.5230  137.4050 C   0  0  0  0  0  0  0  0  0  0  0  0
  187.8390  177.2530  137.7790 C   0  0  0  0  0  0  0  0  0  0  0  0
  184.6540  176.4300  136.1800 C   0  0  0  0  0  3  0  0  0  0  0  0
  185.9500  176.4690  136.6930 C   0  0  0  0  0  0  0  0  0  0  0  0
  185.1160  174.2270  135.3270 N   0  0  0  0  0  0  0  0  0  0  0  0
  186.3860  174.2560  135.8250 C   0  0  0  0  0  0  0  0  0  0  0  0
  185.8830  178.6800  137.7000 F   0  0  0  0  0  0  0  0  0  0  0  0
  186.8040  175.3910  136.5140 C   0  0  0  0  0  0  0  0  0  0  0  0
  187.2560  173.1460  135.6370 N   0  0  0  0  0  1  0  0  0  0  0  0
  187.5700  178.2880  147.7620 C   0  0  0  0  0  2  0  0  0  0  0  0
  188.4130  177.1110  147.8810 N   0  0  0  0  0  2  0  0  0  0  0  0
  189.7890  177.5740  147.8130 C   0  0  0  0  0  2  0  0  0  0  0  0
  190.6950  176.4460  147.3570 C   0  0  0  0  0  2  0  0  0  0  0  0
  191.4630  176.8580  146.1150 C   0  0  0  0  0  1  0  0  0  0  0  0
  1  5  1  0  0  0  0
  2  4  1  0  0  0  0
  2  3  2  0  0  0  0
  3  6  1  0  0  0  0
  4  1  2  0  0  0  0
  5 36  1  0  0  0  0
  6  5  2  0  0  0  0
  7  9  2  0  0  0  0
  8  2  1  0  0  0  0
  9  8  1  0  0  0  0
 10  9  1  0  0  0  0
 11 10  2  0  0  0  0
 12 11  1  0  0  0  0
 13 12  2  0  0  0  0
 13 15  1  0  0  0  0
 14 10  1  0  0  0  0
 15 14  2  0  0  0  0
 16 13  1  0  0  0  0
 17  4  1  0  0  0  0
 18 17  1  0  0  0  0
 19 20  1  0  0  0  0
 19 18  1  0  0  0  0
 21 22  1  6  0  0  0
 21 19  1  0  0  0  0
 23 21  1  0  0  0  0
 24 23  1  0  0  0  0
 25 28  1  0  0  0  0
 26 29  1  0  0  0  0
 27 33  1  0  0  0  0
 27 28  2  0  0  0  0
 28 24  1  0  0  0  0
 29 30  2  0  0  0  0
 30 27  1  0  0  0  0
 31 26  2  0  0  0  0
 31 32  1  0  0  0  0
 32 34  2  0  0  0  0
 34 30  1  0  0  0  0
 34 25  1  0  0  0  0
 35 32  1  0  0  0  0
 36 37  1  0  0  0  0
 38 37  1  0  0  0  0
 39 38  1  0  0  0  0
 40 39  1  0  0  0  0
M  END
>  <MODEL>
2

>  <REMARK>
 VINA RESULT:      -8.0      2.988      7.981
  Name = 
  13 active torsions:
  status: ('A' for Active; 'I' for Inactive)
    1  A    between atoms: C_2  and  N_7
    2  A    between atoms: C_8  and  C_29
    3  A    between atoms: C_9  and  N_17
    4  A    between atoms: C_11  and  O_24
    5  A    between atoms: N_12  and  C_20
    6  A    between atoms: N_12  and  C_26
    7  A    between atoms: C_15  and  C_38
    8  A    between atoms: N_17  and  C_25
    9  A    between atoms: C_20  and  C_25
   10  A    between atoms: O_24  and  C_26
   11  A    between atoms: N_32  and  C_34
   12  A    between atoms: N_32  and  C_38
   13  A    between atoms: C_34  and  C_35
                            x       y       z     vdW  Elec       q    Type
                         _______ _______ _______ _____ _____    ______ ____

>  <TORSDO>
F 13

$$$$
=
 OpenBabel11042413193D

 40 43  0  0  1  0  0  0  0  0999 V2000
  188.1200  177.3800  145.4810 C   0  0  0  0  0  3  0  0  0  0  0  0
  185.8570  178.1200  145.0030 C   0  0  0  0  0  0  0  0  0  0  0  0
  185.7240  178.5260  146.3400 C   0  0  0  0  0  3  0  0  0  0  0  0
  187.0630  177.5450  144.5710 C   0  0  0  0  0  0  0  0  0  0  0  0
  187.9760  177.7790  146.8120 C   0  0  0  0  0  0  0  0  0  0  0  0
  186.7780  178.3580  147.2400 C   0  0  0  0  0  3  0  0  0  0  0  0
  183.1550  179.1970  145.4700 O   0  0  0  0  0  0  0  0  0  0  0  0
  184.7890  178.2850  144.0580 N   0  0  0  0  0  2  0  0  0  0  0  0
  183.4810  178.8180  144.3120 C   0  0  0  0  0  0  0  0  0  0  0  0
  182.5100  178.9230  143.2090 C   0  0  0  0  0  0  0  0  0  0  0  0
  182.8840  178.6230  141.8930 C   0  0  0  0  0  3  0  0  0  0  0  0
  181.9790  178.7230  140.8820 N   0  0  0  0  0  0  0  0  0  0  0  0
  180.6960  179.1110  141.1100 C   0  0  0  0  0  0  0  0  0  0  0  0
  181.1910  179.3230  143.4570 C   0  0  0  0  0  3  0  0  0  0  0  0
  180.2780  179.4190  142.4060 C   0  0  0  0  0  3  0  0  0  0  0  0
  179.7790  179.2030  140.0270 N   0  0  0  0  0  1  0  0  0  0  0  0
  187.1900  177.1470  143.2370 O   0  0  0  0  0  0  0  0  0  0  0  0
  188.0180  177.8310  142.2980 C   0  0  0  0  0  2  0  0  0  0  0  0
  187.3670  177.9420  140.9920 N   0  0  0  0  0  0  0  0  0  0  0  0
  186.2910  178.9300  141.0460 C   0  0  0  0  0  1  0  0  0  0  0  0
  188.3560  178.2330  139.9390 C   0  0  2  0  0  3  0  0  0  0  0  0
  187.8090  178.0910  138.5200 C   0  0  0  0  0  1  0  0  0  0  0  0
  189.5900  177.3600  140.1040 C   0  0  0  0  0  2  0  0  0  0  0  0
  190.5380  177.6360  139.0380 N   0  0  0  0  0  2  0  0  0  0  0  0
  193.0450  176.5610  138.4990 S   0  0  0  0  0  0  0  0  0  0  0  0
  192.8540  172.7740  136.2250 C   0  0  0  0  0  3  0  0  0  0  0  0
  190.8550  175.5070  137.7800 C   0  0  0  0  0  0  0  0  0  0  0  0
  191.3500  176.6130  138.4620 C   0  0  0  0  0  0  0  0  0  0  0  0
  191.7030  173.4830  136.6020 C   0  0  0  0  0  3  0  0  0  0  0  0
  191.8710  174.6680  137.3190 C   0  0  0  0  0  0  0  0  0  0  0  0
  194.0980  173.2380  136.5530 N   0  0  0  0  0  0  0  0  0  0  0  0
  194.2720  174.3950  137.2540 C   0  0  0  0  0  0  0  0  0  0  0  0
  189.5320  175.2730  137.5850 F   0  0  0  0  0  0  0  0  0  0  0  0
  193.1440  175.1160  137.6390 C   0  0  0  0  0  0  0  0  0  0  0  0
  195.5810  174.8480  137.5780 N   0  0  0  0  0  1  0  0  0  0  0  0
  189.1080  177.6230  147.7650 C   0  0  0  0  0  2  0  0  0  0  0  0
  189.8610  176.4230  147.4400 N   0  0  0  0  0  2  0  0  0  0  0  0
  191.2410  176.8350  147.2450 C   0  0  0  0  0  2  0  0  0  0  0  0
  191.7030  176.4620  145.8490 C   0  0  0  0  0  2  0  0  0  0  0  0
  191.5470  177.6430  144.9100 C   0  0  0  0  0  1  0  0  0  0  0  0
  1  5  1  0  0  0  0
  2  3  2  0  0  0  0
  3  6  1  0  0  0  0
  4  2  1  0  0  0  0
  4  1  2  0  0  0  0
  5  6  2  0  0  0  0
  5 36  1  0  0  0  0
  8  9  1  0  0  0  0
  8  2  1  0  0  0  0
  9  7  2  0  0  0  0
 10 14  1  0  0  0  0
 10  9  1  0  0  0  0
 11 10  2  0  0  0  0
 12 13  2  0  0  0  0
 12 11  1  0  0  0  0
 13 15  1  0  0  0  0
 15 14  2  0  0  0  0
 16 13  1  0  0  0  0
 17  4  1  0  0  0  0
 18 17  1  0  0  0  0
 19 20  1  0  0  0  0
 19 18  1  0  0  0  0
 21 22  1  6  0  0  0
 21 23  1  0  0  0  0
 21 19  1  0  0  0  0
 24 23  1  0  0  0  0
 26 31  2  0  0  0  0
 26 29  1  0  0  0  0
 27 28  2  0  0  0  0
 28 25  1  0  0  0  0
 28 24  1  0  0  0  0
 29 30  2  0  0  0  0
 30 34  1  0  0  0  0
 30 27  1  0  0  0  0
 31 32  1  0  0  0  0
 32 35  1  0  0  0  0
 32 34  2  0  0  0  0
 33 27  1  0  0  0  0
 34 25  1  0  0  0  0
 37 36  1  0  0  0  0
 38 37  1  0  0  0  0
 39 38  1  0  0  0  0
 40 39  1  0  0  0  0
M  END
>  <MODEL>
3

>  <REMARK>
 VINA RESULT:      -7.7      2.976      8.944
  Name = 
  13 active torsions:
  status: ('A' for Active; 'I' for Inactive)
    1  A    between atoms: C_2  and  N_7
    2  A    between atoms: C_8  and  C_29
    3  A    between atoms: C_9  and  N_17
    4  A    between atoms: C_11  and  O_24
    5  A    between atoms: N_12  and  C_20
    6  A    between atoms: N_12  and  C_26
    7  A    between atoms: C_15  and  C_38
    8  A    between atoms: N_17  and  C_25
    9  A    between atoms: C_20  and  C_25
   10  A    between atoms: O_24  and  C_26
   11  A    between atoms: N_32  and  C_34
   12  A    between atoms: N_32  and  C_38
   13  A    between atoms: C_34  and  C_35
                            x       y       z     vdW  Elec       q    Type
                         _______ _______ _______ _____ _____    ______ ____

>  <TORSDO>
F 13

$$$$
=
 OpenBabel11042413193D

 40 43  0  0  1  0  0  0  0  0999 V2000
  187.7470  177.9030  138.6600 C   0  0  0  0  0  3  0  0  0  0  0  0
  189.4830  177.0380  137.1990 C   0  0  0  0  0  0  0  0  0  0  0  0
  188.5280  176.8840  136.1820 C   0  0  0  0  0  3  0  0  0  0  0  0
  189.0900  177.5520  138.4450 C   0  0  0  0  0  0  0  0  0  0  0  0
  186.8010  177.7380  137.6460 C   0  0  0  0  0  0  0  0  0  0  0  0
  187.1940  177.2330  136.4030 C   0  0  0  0  0  3  0  0  0  0  0  0
  190.8600  174.5350  137.9210 O   0  0  0  0  0  0  0  0  0  0  0  0
  190.8610  176.6890  136.9940 N   0  0  0  0  0  2  0  0  0  0  0  0
  191.5060  175.4580  137.3530 C   0  0  0  0  0  0  0  0  0  0  0  0
  192.9360  175.2720  137.0540 C   0  0  0  0  0  0  0  0  0  0  0  0
  193.4570  175.6110  135.7990 C   0  0  0  0  0  3  0  0  0  0  0  0
  194.7800  175.4340  135.5340 N   0  0  0  0  0  0  0  0  0  0  0  0
  195.6320  174.9300  136.4660 C   0  0  0  0  0  0  0  0  0  0  0  0
  193.8040  174.7520  138.0230 C   0  0  0  0  0  3  0  0  0  0  0  0
  195.1570  174.5790  137.7310 C   0  0  0  0  0  3  0  0  0  0  0  0
  197.0090  174.7610  136.1520 N   0  0  0  0  0  1  0  0  0  0  0  0
  190.0480  177.7070  139.4510 O   0  0  0  0  0  0  0  0  0  0  0  0
  190.0530  176.9260  140.6460 C   0  0  0  0  0  2  0  0  0  0  0  0
  191.4030  176.8020  141.1970 N   0  0  0  0  0  0  0  0  0  0  0  0
  192.3590  177.5250  140.3610 C   0  0  0  0  0  1  0  0  0  0  0  0
  191.4330  177.2360  142.6050 C   0  0  2  0  0  3  0  0  0  0  0  0
  191.6390  176.0950  143.6000 C   0  0  0  0  0  1  0  0  0  0  0  0
  190.1690  178.0040  142.9580 C   0  0  0  0  0  2  0  0  0  0  0  0
  189.2330  177.1290  143.6440 N   0  0  0  0  0  2  0  0  0  0  0  0
  187.3830  177.7740  145.6160 S   0  0  0  0  0  0  0  0  0  0  0  0
  183.4650  179.0090  143.9800 C   0  0  0  0  0  3  0  0  0  0  0  0
  186.9110  177.8730  143.1280 C   0  0  0  0  0  0  0  0  0  0  0  0
  187.9280  177.5640  144.0240 C   0  0  0  0  0  0  0  0  0  0  0  0
  184.5420  178.6420  143.1570 C   0  0  0  0  0  3  0  0  0  0  0  0
  185.7370  178.2690  143.7720 C   0  0  0  0  0  0  0  0  0  0  0  0
  183.5930  178.9980  145.3410 N   0  0  0  0  0  0  0  0  0  0  0  0
  184.7570  178.6340  145.9510 C   0  0  0  0  0  0  0  0  0  0  0  0
  187.0470  177.7990  141.7800 F   0  0  0  0  0  0  0  0  0  0  0  0
  185.8390  178.2660  145.1550 C   0  0  0  0  0  0  0  0  0  0  0  0
  184.8540  178.6340  147.3710 N   0  0  0  0  0  1  0  0  0  0  0  0
  185.3860  178.1340  137.8740 C   0  0  0  0  0  2  0  0  0  0  0  0
  185.3120  179.0870  138.9680 N   0  0  0  0  0  2  0  0  0  0  0  0
  183.9060  179.4010  139.1550 C   0  0  0  0  0  2  0  0  0  0  0  0
  183.0770  178.1310  139.1030 C   0  0  0  0  0  2  0  0  0  0  0  0
  182.1430  178.0630  140.2960 C   0  0  0  0  0  1  0  0  0  0  0  0
  2  4  2  0  0  0  0
  3  6  2  0  0  0  0
  3  2  1  0  0  0  0
  4  1  1  0  0  0  0
  4 17  1  0  0  0  0
  5 36  1  0  0  0  0
  5  1  2  0  0  0  0
  6  5  1  0  0  0  0
  8  2  1  0  0  0  0
  8  9  1  0  0  0  0
  9  7  2  0  0  0  0
 10  9  1  0  0  0  0
 10 14  1  0  0  0  0
 11 10  2  0  0  0  0
 12 11  1  0  0  0  0
 12 13  2  0  0  0  0
 13 15  1  0  0  0  0
 15 14  2  0  0  0  0
 16 13  1  0  0  0  0
 17 18  1  0  0  0  0
 18 19  1  0  0  0  0
 19 21  1  0  0  0  0
 20 19  1  0  0  0  0
 21 23  1  0  0  0  0
 21 22  1  1  0  0  0
 23 24  1  0  0  0  0
 24 28  1  0  0  0  0
 26 31  1  0  0  0  0
 27 30  1  0  0  0  0
 27 28  2  0  0  0  0
 28 25  1  0  0  0  0
 29 30  1  0  0  0  0
 29 26  2  0  0  0  0
 30 34  2  0  0  0  0
 31 32  2  0  0  0  0
 32 35  1  0  0  0  0
 33 27  1  0  0  0  0
 34 25  1  0  0  0  0
 34 32  1  0  0  0  0
 36 37  1  0  0  0  0
 37 38  1  0  0  0  0
 39 38  1  0  0  0  0
 39 40  1  0  0  0  0
M  END
>  <MODEL>
4

>  <REMARK>
 VINA RESULT:      -7.6      2.106      7.652
  Name = 
  13 active torsions:
  status: ('A' for Active; 'I' for Inactive)
    1  A    between atoms: C_2  and  N_7
    2  A    between atoms: C_8  and  C_29
    3  A    between atoms: C_9  and  N_17
    4  A    between atoms: C_11  and  O_24
    5  A    between atoms: N_12  and  C_20
    6  A    between atoms: N_12  and  C_26
    7  A    between atoms: C_15  and  C_38
    8  A    between atoms: N_17  and  C_25
    9  A    between atoms: C_20  and  C_25
   10  A    between atoms: O_24  and  C_26
   11  A    between atoms: N_32  and  C_34
   12  A    between atoms: N_32  and  C_38
   13  A    between atoms: C_34  and  C_35
                            x       y       z     vdW  Elec       q    Type
                         _______ _______ _______ _____ _____    ______ ____

>  <TORSDO>
F 13

$$$$
=
 OpenBabel11042413193D

 40 43  0  0  1  0  0  0  0  0999 V2000
  183.3000  178.6310  141.9470 C   0  0  0  0  0  3  0  0  0  0  0  0
  184.6110  178.3730  143.9750 C   0  0  0  0  0  0  0  0  0  0  0  0
  183.4770  178.7100  144.7310 C   0  0  0  0  0  3  0  0  0  0  0  0
  184.5200  178.3320  142.5740 C   0  0  0  0  0  0  0  0  0  0  0  0
  182.1790  178.9730  142.7060 C   0  0  0  0  0  0  0  0  0  0  0  0
  182.2670  179.0070  144.1010 C   0  0  0  0  0  3  0  0  0  0  0  0
  185.4220  178.8280  146.7700 O   0  0  0  0  0  0  0  0  0  0  0  0
  185.8650  178.0600  144.6000 N   0  0  0  0  0  2  0  0  0  0  0  0
  186.2330  178.2890  145.9680 C   0  0  0  0  0  0  0  0  0  0  0  0
  187.5710  177.8910  146.4380 C   0  0  0  0  0  0  0  0  0  0  0  0
  188.5550  177.4740  145.5340 C   0  0  0  0  0  3  0  0  0  0  0  0
  189.7870  177.1080  145.9790 N   0  0  0  0  0  0  0  0  0  0  0  0
  190.1040  177.1350  147.3020 C   0  0  0  0  0  0  0  0  0  0  0  0
  187.8840  177.9240  147.8030 C   0  0  0  0  0  3  0  0  0  0  0  0
  189.1540  177.5450  148.2400 C   0  0  0  0  0  3  0  0  0  0  0  0
  191.4030  176.7460  147.7290 N   0  0  0  0  0  1  0  0  0  0  0  0
  185.6530  177.9920  141.8280 O   0  0  0  0  0  0  0  0  0  0  0  0
  186.1280  178.7770  140.7360 C   0  0  0  0  0  2  0  0  0  0  0  0
  187.5900  178.8460  140.7240 N   0  0  0  0  0  0  0  0  0  0  0  0
  188.1420  178.0580  141.8240 C   0  0  0  0  0  1  0  0  0  0  0  0
  188.1200  178.4400  139.4100 C   0  0  2  0  0  3  0  0  0  0  0  0
  187.0400  178.0830  138.3910 C   0  0  0  0  0  1  0  0  0  0  0  0
  189.0920  177.2800  139.5570 C   0  0  0  0  0  2  0  0  0  0  0  0
  189.1430  176.5170  138.3220 N   0  0  0  0  0  2  0  0  0  0  0  0
  191.9010  176.1700  138.3450 S   0  0  0  0  0  0  0  0  0  0  0  0
  193.2230  172.6300  136.0490 C   0  0  0  0  0  3  0  0  0  0  0  0
  190.2800  174.6360  137.1450 C   0  0  0  0  0  0  0  0  0  0  0  0
  190.3030  175.7820  137.9320 C   0  0  0  0  0  0  0  0  0  0  0  0
  191.8710  172.9890  136.1670 C   0  0  0  0  0  3  0  0  0  0  0  0
  191.5580  174.1230  136.9140 C   0  0  0  0  0  0  0  0  0  0  0  0
  194.1970  173.3780  136.6510 N   0  0  0  0  0  0  0  0  0  0  0  0
  193.9000  174.4890  137.3840 C   0  0  0  0  0  0  0  0  0  0  0  0
  189.1420  174.0810  136.6570 F   0  0  0  0  0  0  0  0  0  0  0  0
  192.5650  174.8630  137.5150 C   0  0  0  0  0  0  0  0  0  0  0  0
  194.9400  175.2430  137.9980 N   0  0  0  0  0  1  0  0  0  0  0  0
  180.8840  179.2660  142.0360 C   0  0  0  0  0  2  0  0  0  0  0  0
  180.9520  178.8670  140.6400 N   0  0  0  0  0  2  0  0  0  0  0  0
  180.0820  179.7690  139.9050 C   0  0  0  0  0  2  0  0  0  0  0  0
  180.8410  180.3980  138.7510 C   0  0  0  0  0  2  0  0  0  0  0  0
  182.2930  179.9630  138.7770 C   0  0  0  0  0  1  0  0  0  0  0  0
  1  4  2  0  0  0  0
  1  5  1  0  0  0  0
  2  8  1  0  0  0  0
  2  3  2  0  0  0  0
  4  2  1  0  0  0  0
  5  6  2  0  0  0  0
  6  3  1  0  0  0  0
  8  9  1  0  0  0  0
  9 10  1  0  0  0  0
  9  7  2  0  0  0  0
 10 14  1  0  0  0  0
 11 12  1  0  0  0  0
 11 10  2  0  0  0  0
 12 13  2  0  0  0  0
 13 16  1  0  0  0  0
 13 15  1  0  0  0  0
 14 15  2  0  0  0  0
 17  4  1  0  0  0  0
 18 17  1  0  0  0  0
 19 18  1  0  0  0  0
 19 20  1  0  0  0  0
 21 22  1  6  0  0  0
 21 23  1  0  0  0  0
 21 19  1  0  0  0  0
 24 23  1  0  0  0  0
 26 29  2  0  0  0  0
 26 31  1  0  0  0  0
 27 28  2  0  0  0  0
 28 24  1  0  0  0  0
 28 25  1  0  0  0  0
 29 30  1  0  0  0  0
 30 27  1  0  0  0  0
 30 34  2  0  0  0  0
 31 32  2  0  0  0  0
 32 34  1  0  0  0  0
 32 35  1  0  0  0  0
 33 27  1  0  0  0  0
 34 25  1  0  0  0  0
 36  5  1  0  0  0  0
 37 36  1  0  0  0  0
 38 37  1  0  0  0  0
 39 40  1  0  0  0  0
 39 38  1  0  0  0  0
M  END
>  <MODEL>
5

>  <REMARK>
 VINA RESULT:      -7.4      3.016      9.295
  Name = 
  13 active torsions:
  status: ('A' for Active; 'I' for Inactive)
    1  A    between atoms: C_2  and  N_7
    2  A    between atoms: C_8  and  C_29
    3  A    between atoms: C_9  and  N_17
    4  A    between atoms: C_11  and  O_24
    5  A    between atoms: N_12  and  C_20
    6  A    between atoms: N_12  and  C_26
    7  A    between atoms: C_15  and  C_38
    8  A    between atoms: N_17  and  C_25
    9  A    between atoms: C_20  and  C_25
   10  A    between atoms: O_24  and  C_26
   11  A    between atoms: N_32  and  C_34
   12  A    between atoms: N_32  and  C_38
   13  A    between atoms: C_34  and  C_35
                            x       y       z     vdW  Elec       q    Type
                         _______ _______ _______ _____ _____    ______ ____

>  <TORSDO>
F 13

$$$$
=
 OpenBabel11042413193D

 40 43  0  0  1  0  0  0  0  0999 V2000
  183.4930  178.6100  142.1190 C   0  0  0  0  0  3  0  0  0  0  0  0
  185.0070  178.3030  143.9930 C   0  0  0  0  0  0  0  0  0  0  0  0
  183.9680  178.6540  144.8680 C   0  0  0  0  0  3  0  0  0  0  0  0
  184.7670  178.2790  142.6090 C   0  0  0  0  0  0  0  0  0  0  0  0
  182.4670  178.9660  142.9970 C   0  0  0  0  0  0  0  0  0  0  0  0
  182.7040  178.9830  144.3740 C   0  0  0  0  0  3  0  0  0  0  0  0
  186.0900  178.6260  146.7140 O   0  0  0  0  0  0  0  0  0  0  0  0
  186.3140  177.9580  144.4770 N   0  0  0  0  0  2  0  0  0  0  0  0
  186.8150  178.1220  145.8120 C   0  0  0  0  0  0  0  0  0  0  0  0
  188.1890  177.6980  146.1310 C   0  0  0  0  0  0  0  0  0  0  0  0
  188.5260  177.2680  147.4210 C   0  0  0  0  0  3  0  0  0  0  0  0
  189.7990  176.8790  147.7050 N   0  0  0  0  0  0  0  0  0  0  0  0
  190.7750  176.8930  146.7580 C   0  0  0  0  0  0  0  0  0  0  0  0
  189.1860  177.7170  145.1480 C   0  0  0  0  0  3  0  0  0  0  0  0
  190.4850  177.3130  145.4590 C   0  0  0  0  0  3  0  0  0  0  0  0
  192.0940  176.4780  147.0930 N   0  0  0  0  0  1  0  0  0  0  0  0
  185.8060  177.9240  141.7440 O   0  0  0  0  0  0  0  0  0  0  0  0
  186.1710  178.7060  140.6080 C   0  0  0  0  0  2  0  0  0  0  0  0
  187.6250  178.7760  140.4530 N   0  0  0  0  0  0  0  0  0  0  0  0
  188.2850  178.0560  141.5400 C   0  0  0  0  0  1  0  0  0  0  0  0
  188.0310  178.2940  139.1210 C   0  0  2  0  0  3  0  0  0  0  0  0
  186.8590  177.9360  138.2080 C   0  0  0  0  0  1  0  0  0  0  0  0
  188.9690  177.1030  139.2430 C   0  0  0  0  0  2  0  0  0  0  0  0
  190.1930  177.3590  138.5030 N   0  0  0  0  0  2  0  0  0  0  0  0
  190.4620  175.0480  136.9820 S   0  0  0  0  0  0  0  0  0  0  0  0
  194.5840  173.4480  136.9740 C   0  0  0  0  0  3  0  0  0  0  0  0
  192.3600  176.1540  138.2460 C   0  0  0  0  0  0  0  0  0  0  0  0
  191.0020  176.3030  137.9870 C   0  0  0  0  0  0  0  0  0  0  0  0
  194.2290  174.6090  137.6790 C   0  0  0  0  0  3  0  0  0  0  0  0
  192.9020  175.0310  137.6160 C   0  0  0  0  0  0  0  0  0  0  0  0
  193.6490  172.7580  136.2520 N   0  0  0  0  0  0  0  0  0  0  0  0
  192.3490  173.1640  136.1850 C   0  0  0  0  0  0  0  0  0  0  0  0
  193.0760  177.0060  139.0220 F   0  0  0  0  0  0  0  0  0  0  0  0
  191.9740  174.3130  136.8770 C   0  0  0  0  0  0  0  0  0  0  0  0
  191.4030  172.4210  135.4240 N   0  0  0  0  0  1  0  0  0  0  0  0
  181.1140  179.2930  142.4710 C   0  0  0  0  0  2  0  0  0  0  0  0
  181.0790  179.0720  141.0350 N   0  0  0  0  0  2  0  0  0  0  0  0
  179.7650  178.5340  140.7270 C   0  0  0  0  0  2  0  0  0  0  0  0
  179.8400  177.0240  140.5920 C   0  0  0  0  0  2  0  0  0  0  0  0
  181.1090  176.6230  139.8660 C   0  0  0  0  0  1  0  0  0  0  0  0
  1  4  2  0  0  0  0
  1  5  1  0  0  0  0
  2  8  1  0  0  0  0
  2  3  2  0  0  0  0
  4  2  1  0  0  0  0
  5  6  2  0  0  0  0
  6  3  1  0  0  0  0
  8  9  1  0  0  0  0
  9 10  1  0  0  0  0
  9  7  2  0  0  0  0
 10 11  1  0  0  0  0
 11 12  2  0  0  0  0
 13 16  1  0  0  0  0
 13 12  1  0  0  0  0
 14 15  1  0  0  0  0
 14 10  2  0  0  0  0
 15 13  2  0  0  0  0
 17  4  1  0  0  0  0
 18 17  1  0  0  0  0
 19 18  1  0  0  0  0
 19 20  1  0  0  0  0
 21 22  1  6  0  0  0
 21 23  1  0  0  0  0
 21 19  1  0  0  0  0
 24 23  1  0  0  0  0
 25 28  1  0  0  0  0
 26 29  1  0  0  0  0
 27 33  1  0  0  0  0
 28 27  2  0  0  0  0
 28 24  1  0  0  0  0
 30 29  2  0  0  0  0
 30 27  1  0  0  0  0
 31 26  2  0  0  0  0
 32 31  1  0  0  0  0
 32 34  2  0  0  0  0
 34 25  1  0  0  0  0
 34 30  1  0  0  0  0
 35 32  1  0  0  0  0
 36  5  1  0  0  0  0
 37 36  1  0  0  0  0
 38 37  1  0  0  0  0
 39 38  1  0  0  0  0
 40 39  1  0  0  0  0
M  END
>  <MODEL>
6

>  <REMARK>
 VINA RESULT:      -7.4      2.940      9.193
  Name = 
  13 active torsions:
  status: ('A' for Active; 'I' for Inactive)
    1  A    between atoms: C_2  and  N_7
    2  A    between atoms: C_8  and  C_29
    3  A    between atoms: C_9  and  N_17
    4  A    between atoms: C_11  and  O_24
    5  A    between atoms: N_12  and  C_20
    6  A    between atoms: N_12  and  C_26
    7  A    between atoms: C_15  and  C_38
    8  A    between atoms: N_17  and  C_25
    9  A    between atoms: C_20  and  C_25
   10  A    between atoms: O_24  and  C_26
   11  A    between atoms: N_32  and  C_34
   12  A    between atoms: N_32  and  C_38
   13  A    between atoms: C_34  and  C_35
                            x       y       z     vdW  Elec       q    Type
                         _______ _______ _______ _____ _____    ______ ____

>  <TORSDO>
F 13

$$$$
=
 OpenBabel11042413193D

 40 43  0  0  1  0  0  0  0  0999 V2000
  184.0110  178.4290  141.9560 C   0  0  0  0  0  3  0  0  0  0  0  0
  185.2780  178.4250  144.0280 C   0  0  0  0  0  0  0  0  0  0  0  0
  184.1220  178.8230  144.7160 C   0  0  0  0  0  3  0  0  0  0  0  0
  185.2210  178.2250  142.6380 C   0  0  0  0  0  0  0  0  0  0  0  0
  182.8670  178.8330  142.6480 C   0  0  0  0  0  0  0  0  0  0  0  0
  182.9220  179.0250  144.0310 C   0  0  0  0  0  3  0  0  0  0  0  0
  185.7150  177.7990  146.8740 O   0  0  0  0  0  0  0  0  0  0  0  0
  186.5220  178.2070  144.7110 N   0  0  0  0  0  2  0  0  0  0  0  0
  186.7060  177.8990  146.1000 C   0  0  0  0  0  0  0  0  0  0  0  0
  188.0670  177.6980  146.6270 C   0  0  0  0  0  0  0  0  0  0  0  0
  189.0670  177.1230  145.8320 C   0  0  0  0  0  3  0  0  0  0  0  0
  190.3200  176.9410  146.3290 N   0  0  0  0  0  0  0  0  0  0  0  0
  190.6430  177.3080  147.5980 C   0  0  0  0  0  0  0  0  0  0  0  0
  188.3870  178.0800  147.9360 C   0  0  0  0  0  3  0  0  0  0  0  0
  189.6790  177.8860  148.4270 C   0  0  0  0  0  3  0  0  0  0  0  0
  191.9640  177.1030  148.0820 N   0  0  0  0  0  1  0  0  0  0  0  0
  186.3760  177.8240  141.9600 O   0  0  0  0  0  0  0  0  0  0  0  0
  187.0880  178.6800  141.0680 C   0  0  0  0  0  2  0  0  0  0  0  0
  188.4980  178.2990  140.9740 N   0  0  0  0  0  0  0  0  0  0  0  0
  188.8770  177.4780  142.1230 C   0  0  0  0  0  1  0  0  0  0  0  0
  188.7770  177.6400  139.6860 C   0  0  2  0  0  3  0  0  0  0  0  0
  190.1860  177.0610  139.5790 C   0  0  0  0  0  1  0  0  0  0  0  0
  188.5240  178.5940  138.5290 C   0  0  0  0  0  2  0  0  0  0  0  0
  188.2150  177.8410  137.3250 N   0  0  0  0  0  2  0  0  0  0  0  0
  185.4990  177.2470  137.2860 S   0  0  0  0  0  0  0  0  0  0  0  0
  184.6770  172.9060  137.1150 C   0  0  0  0  0  3  0  0  0  0  0  0
  187.3420  175.5080  137.2280 C   0  0  0  0  0  0  0  0  0  0  0  0
  187.1560  176.8850  137.2800 C   0  0  0  0  0  0  0  0  0  0  0  0
  185.9810  173.4240  137.1420 C   0  0  0  0  0  3  0  0  0  0  0  0
  186.1330  174.8090  137.1950 C   0  0  0  0  0  0  0  0  0  0  0  0
  183.5940  173.7420  137.1420 N   0  0  0  0  0  0  0  0  0  0  0  0
  183.7340  175.0980  137.1940 C   0  0  0  0  0  0  0  0  0  0  0  0
  188.5620  174.9140  137.2120 F   0  0  0  0  0  0  0  0  0  0  0  0
  185.0190  175.6340  137.2210 C   0  0  0  0  0  0  0  0  0  0  0  0
  182.5850  175.9370  137.2210 N   0  0  0  0  0  1  0  0  0  0  0  0
  181.5830  179.0240  141.9210 C   0  0  0  0  0  2  0  0  0  0  0  0
  181.6270  178.3150  140.6540 N   0  0  0  0  0  2  0  0  0  0  0  0
  180.6650  178.9640  139.7780 C   0  0  0  0  0  2  0  0  0  0  0  0
  181.3290  179.3460  138.4680 C   0  0  0  0  0  2  0  0  0  0  0  0
  182.7090  179.9210  138.7260 C   0  0  0  0  0  1  0  0  0  0  0  0
  1  4  2  0  0  0  0
  1  5  1  0  0  0  0
  2  8  1  0  0  0  0
  2  3  2  0  0  0  0
  4  2  1  0  0  0  0
  5  6  2  0  0  0  0
  6  3  1  0  0  0  0
  8  9  1  0  0  0  0
  9 10  1  0  0  0  0
  9  7  2  0  0  0  0
 10 14  1  0  0  0  0
 11 12  1  0  0  0  0
 11 10  2  0  0  0  0
 12 13  2  0  0  0  0
 13 16  1  0  0  0  0
 13 15  1  0  0  0  0
 14 15  2  0  0  0  0
 17  4  1  0  0  0  0
 18 17  1  0  0  0  0
 19 18  1  0  0  0  0
 19 20  1  0  0  0  0
 21 22  1  1  0  0  0
 21 19  1  0  0  0  0
 23 21  1  0  0  0  0
 24 23  1  0  0  0  0
 26 31  2  0  0  0  0
 26 29  1  0  0  0  0
 27 28  2  0  0  0  0
 28 25  1  0  0  0  0
 28 24  1  0  0  0  0
 29 30  2  0  0  0  0
 30 34  1  0  0  0  0
 30 27  1  0  0  0  0
 31 32  1  0  0  0  0
 32 35  1  0  0  0  0
 32 34  2  0  0  0  0
 33 27  1  0  0  0  0
 34 25  1  0  0  0  0
 36  5  1  0  0  0  0
 37 36  1  0  0  0  0
 38 37  1  0  0  0  0
 39 40  1  0  0  0  0
 39 38  1  0  0  0  0
M  END
>  <MODEL>
7

>  <REMARK>
 VINA RESULT:      -7.3      3.066      7.627
  Name = 
  13 active torsions:
  status: ('A' for Active; 'I' for Inactive)
    1  A    between atoms: C_2  and  N_7
    2  A    between atoms: C_8  and  C_29
    3  A    between atoms: C_9  and  N_17
    4  A    between atoms: C_11  and  O_24
    5  A    between atoms: N_12  and  C_20
    6  A    between atoms: N_12  and  C_26
    7  A    between atoms: C_15  and  C_38
    8  A    between atoms: N_17  and  C_25
    9  A    between atoms: C_20  and  C_25
   10  A    between atoms: O_24  and  C_26
   11  A    between atoms: N_32  and  C_34
   12  A    between atoms: N_32  and  C_38
   13  A    between atoms: C_34  and  C_35
                            x       y       z     vdW  Elec       q    Type
                         _______ _______ _______ _____ _____    ______ ____

>  <TORSDO>
F 13

$$$$
=
 OpenBabel11042413193D

 40 43  0  0  1  0  0  0  0  0999 V2000
  188.8530  177.3100  139.5500 C   0  0  0  0  0  3  0  0  0  0  0  0
  190.7740  176.9220  138.1160 C   0  0  0  0  0  0  0  0  0  0  0  0
  190.0280  177.3820  137.0200 C   0  0  0  0  0  3  0  0  0  0  0  0
  190.1830  176.8880  139.3900 C   0  0  0  0  0  0  0  0  0  0  0  0
  188.1150  177.7580  138.4520 C   0  0  0  0  0  0  0  0  0  0  0  0
  188.7060  177.7990  137.1860 C   0  0  0  0  0  3  0  0  0  0  0  0
  191.7760  174.2450  137.4030 O   0  0  0  0  0  0  0  0  0  0  0  0
  192.1360  176.4910  137.9710 N   0  0  0  0  0  2  0  0  0  0  0  0
  192.5970  175.1790  137.6170 C   0  0  0  0  0  0  0  0  0  0  0  0
  194.0430  174.9210  137.5040 C   0  0  0  0  0  0  0  0  0  0  0  0
  194.7930  175.4840  136.4640 C   0  0  0  0  0  3  0  0  0  0  0  0
  196.1280  175.2390  136.3690 N   0  0  0  0  0  0  0  0  0  0  0  0
  196.7730  174.4500  137.2690 C   0  0  0  0  0  0  0  0  0  0  0  0
  194.6960  174.1060  138.4380 C   0  0  0  0  0  3  0  0  0  0  0  0
  196.0660  173.8680  138.3230 C   0  0  0  0  0  3  0  0  0  0  0  0
  198.1700  174.2170  137.1370 N   0  0  0  0  0  1  0  0  0  0  0  0
  190.9330  176.4330  140.4770 O   0  0  0  0  0  0  0  0  0  0  0  0
  191.2920  177.2690  141.5770 C   0  0  0  0  0  2  0  0  0  0  0  0
  190.4830  176.9720  142.7590 N   0  0  0  0  0  0  0  0  0  0  0  0
  190.1990  175.5410  142.8320 C   0  0  0  0  0  1  0  0  0  0  0  0
  191.1330  177.4870  143.9780 C   0  0  2  0  0  3  0  0  0  0  0  0
  191.6810  176.3950  144.8950 C   0  0  0  0  0  1  0  0  0  0  0  0
  190.1830  178.3830  144.7570 C   0  0  0  0  0  2  0  0  0  0  0  0
  189.0590  177.6040  145.2480 N   0  0  0  0  0  2  0  0  0  0  0  0
  187.1200  177.8150  143.2680 S   0  0  0  0  0  0  0  0  0  0  0  0
  183.1610  179.0050  144.8360 C   0  0  0  0  0  3  0  0  0  0  0  0
  186.6990  178.2500  145.7290 C   0  0  0  0  0  0  0  0  0  0  0  0
  187.7150  177.8800  144.8540 C   0  0  0  0  0  0  0  0  0  0  0  0
  184.2810  178.8400  145.6670 C   0  0  0  0  0  3  0  0  0  0  0  0
  185.4840  178.4620  145.0730 C   0  0  0  0  0  0  0  0  0  0  0  0
  183.2570  178.8000  143.4880 N   0  0  0  0  0  0  0  0  0  0  0  0
  184.4300  178.4290  142.8990 C   0  0  0  0  0  0  0  0  0  0  0  0
  186.8720  178.3880  147.0670 F   0  0  0  0  0  0  0  0  0  0  0  0
  185.5540  178.2600  143.7040 C   0  0  0  0  0  0  0  0  0  0  0  0
  184.4940  178.2240  141.4920 N   0  0  0  0  0  1  0  0  0  0  0  0
  186.7150  178.2260  138.6350 C   0  0  0  0  0  2  0  0  0  0  0  0
  185.9190  177.8580  137.4760 N   0  0  0  0  0  2  0  0  0  0  0  0
  184.5970  177.5090  137.9700 C   0  0  0  0  0  2  0  0  0  0  0  0
  183.9200  176.5480  137.0110 C   0  0  0  0  0  2  0  0  0  0  0  0
  182.9300  175.6730  137.7550 C   0  0  0  0  0  1  0  0  0  0  0  0
  2  4  2  0  0  0  0
  3  6  2  0  0  0  0
  3  2  1  0  0  0  0
  4  1  1  0  0  0  0
  4 17  1  0  0  0  0
  5 36  1  0  0  0  0
  5  1  2  0  0  0  0
  6  5  1  0  0  0  0
  7  9  2  0  0  0  0
  8  2  1  0  0  0  0
  9  8  1  0  0  0  0
 10  9  1  0  0  0  0
 10 14  1  0  0  0  0
 11 10  2  0  0  0  0
 12 11  1  0  0  0  0
 12 13  2  0  0  0  0
 13 15  1  0  0  0  0
 15 14  2  0  0  0  0
 16 13  1  0  0  0  0
 17 18  1  0  0  0  0
 18 19  1  0  0  0  0
 19 20  1  0  0  0  0
 19 21  1  0  0  0  0
 21 23  1  0  0  0  0
 21 22  1  1  0  0  0
 23 24  1  0  0  0  0
 25 34  1  0  0  0  0
 25 28  1  0  0  0  0
 26 29  1  0  0  0  0
 27 33  1  0  0  0  0
 28 24  1  0  0  0  0
 28 27  2  0  0  0  0
 30 29  2  0  0  0  0
 30 27  1  0  0  0  0
 31 26  2  0  0  0  0
 32 31  1  0  0  0  0
 32 34  2  0  0  0  0
 34 30  1  0  0  0  0
 35 32  1  0  0  0  0
 37 38  1  0  0  0  0
 37 36  1  0  0  0  0
 39 40  1  0  0  0  0
 39 38  1  0  0  0  0
M  END
>  <MODEL>
8

>  <REMARK>
 VINA RESULT:      -7.3      2.137      7.561
  Name = 
  13 active torsions:
  status: ('A' for Active; 'I' for Inactive)
    1  A    between atoms: C_2  and  N_7
    2  A    between atoms: C_8  and  C_29
    3  A    between atoms: C_9  and  N_17
    4  A    between atoms: C_11  and  O_24
    5  A    between atoms: N_12  and  C_20
    6  A    between atoms: N_12  and  C_26
    7  A    between atoms: C_15  and  C_38
    8  A    between atoms: N_17  and  C_25
    9  A    between atoms: C_20  and  C_25
   10  A    between atoms: O_24  and  C_26
   11  A    between atoms: N_32  and  C_34
   12  A    between atoms: N_32  and  C_38
   13  A    between atoms: C_34  and  C_35
                            x       y       z     vdW  Elec       q    Type
                         _______ _______ _______ _____ _____    ______ ____

>  <TORSDO>
F 13

$$$$
=
 OpenBabel11042413193D

 40 43  0  0  1  0  0  0  0  0999 V2000
  189.1720  178.2760  143.6550 C   0  0  0  0  0  3  0  0  0  0  0  0
  190.2770  176.7820  142.0910 C   0  0  0  0  0  0  0  0  0  0  0  0
  190.8610  176.1080  143.1740 C   0  0  0  0  0  3  0  0  0  0  0  0
  189.4260  177.8730  142.3330 C   0  0  0  0  0  0  0  0  0  0  0  0
  189.7660  177.6050  144.7260 C   0  0  0  0  0  0  0  0  0  0  0  0
  190.6070  176.5150  144.4850 C   0  0  0  0  0  3  0  0  0  0  0  0
  192.5390  177.5100  140.3490 O   0  0  0  0  0  0  0  0  0  0  0  0
  190.5210  176.3800  140.7340 N   0  0  0  0  0  2  0  0  0  0  0  0
  191.6360  176.7460  139.9090 C   0  0  0  0  0  0  0  0  0  0  0  0
  191.7260  176.2260  138.5330 C   0  0  0  0  0  0  0  0  0  0  0  0
  192.9350  176.2680  137.8280 C   0  0  0  0  0  3  0  0  0  0  0  0
  193.0070  175.7850  136.5580 N   0  0  0  0  0  0  0  0  0  0  0  0
  191.9220  175.2490  135.9380 C   0  0  0  0  0  0  0  0  0  0  0  0
  190.6010  175.6760  137.9050 C   0  0  0  0  0  3  0  0  0  0  0  0
  190.6960  175.1850  136.6030 C   0  0  0  0  0  3  0  0  0  0  0  0
  192.0370  174.7530  134.6100 N   0  0  0  0  0  1  0  0  0  0  0  0
  188.8430  178.5370  141.2500 O   0  0  0  0  0  0  0  0  0  0  0  0
  188.0230  177.8780  140.2860 C   0  0  0  0  0  2  0  0  0  0  0  0
  187.9420  178.6440  139.0410 N   0  0  0  0  0  0  0  0  0  0  0  0
  189.2820  178.9920  138.5730 C   0  0  0  0  0  1  0  0  0  0  0  0
  187.1560  177.9150  138.0300 C   0  0  2  0  0  3  0  0  0  0  0  0
  187.4150  178.3730  136.5960 C   0  0  0  0  0  1  0  0  0  0  0  0
  185.6700  178.0040  138.3370 C   0  0  0  0  0  2  0  0  0  0  0  0
  185.4410  178.9640  139.4040 N   0  0  0  0  0  2  0  0  0  0  0  0
  182.7050  178.6310  139.7650 S   0  0  0  0  0  0  0  0  0  0  0  0
  181.4790  178.8320  144.0090 C   0  0  0  0  0  3  0  0  0  0  0  0
  184.3580  179.0100  141.6490 C   0  0  0  0  0  0  0  0  0  0  0  0
  184.3060  178.8840  140.2650 C   0  0  0  0  0  0  0  0  0  0  0  0
  182.8160  178.9740  143.6040 C   0  0  0  0  0  3  0  0  0  0  0  0
  183.0980  178.8940  142.2410 C   0  0  0  0  0  0  0  0  0  0  0  0
  180.4910  178.6220  143.0870 N   0  0  0  0  0  0  0  0  0  0  0  0
  180.7580  178.5420  141.7520 C   0  0  0  0  0  0  0  0  0  0  0  0
  185.5040  179.2220  142.3420 F   0  0  0  0  0  0  0  0  0  0  0  0
  182.0770  178.6810  141.3280 C   0  0  0  0  0  0  0  0  0  0  0  0
  179.7040  178.3230  140.8210 N   0  0  0  0  0  1  0  0  0  0  0  0
  189.4740  178.0240  146.1230 C   0  0  0  0  0  2  0  0  0  0  0  0
  188.5460  177.0880  146.7330 N   0  0  0  0  0  2  0  0  0  0  0  0
  187.3400  177.8370  147.0450 C   0  0  0  0  0  2  0  0  0  0  0  0
  186.2800  177.5780  145.9900 C   0  0  0  0  0  2  0  0  0  0  0  0
  185.5220  178.8550  145.6820 C   0  0  0  0  0  1  0  0  0  0  0  0
  1  5  1  0  0  0  0
  2  4  1  0  0  0  0
  2  3  2  0  0  0  0
  3  6  1  0  0  0  0
  4  1  2  0  0  0  0
  5 36  1  0  0  0  0
  6  5  2  0  0  0  0
  8  2  1  0  0  0  0
  9  7  2  0  0  0  0
  9  8  1  0  0  0  0
 10  9  1  0  0  0  0
 11 10  2  0  0  0  0
 12 11  1  0  0  0  0
 13 12  2  0  0  0  0
 13 15  1  0  0  0  0
 14 10  1  0  0  0  0
 15 14  2  0  0  0  0
 16 13  1  0  0  0  0
 17  4  1  0  0  0  0
 18 17  1  0  0  0  0
 19 18  1  0  0  0  0
 20 19  1  0  0  0  0
 21 22  1  6  0  0  0
 21 23  1  0  0  0  0
 21 19  1  0  0  0  0
 23 24  1  0  0  0  0
 24 28  1  0  0  0  0
 25 28  1  0  0  0  0
 25 34  1  0  0  0  0
 27 30  1  0  0  0  0
 27 33  1  0  0  0  0
 28 27  2  0  0  0  0
 29 26  1  0  0  0  0
 30 29  2  0  0  0  0
 31 26  2  0  0  0  0
 32 31  1  0  0  0  0
 34 32  2  0  0  0  0
 34 30  1  0  0  0  0
 35 32  1  0  0  0  0
 36 37  1  0  0  0  0
 37 38  1  0  0  0  0
 39 38  1  0  0  0  0
 40 39  1  0  0  0  0
M  END
>  <MODEL>
9

>  <REMARK>
 VINA RESULT:      -7.3      1.687      6.327
  Name = 
  13 active torsions:
  status: ('A' for Active; 'I' for Inactive)
    1  A    between atoms: C_2  and  N_7
    2  A    between atoms: C_8  and  C_29
    3  A    between atoms: C_9  and  N_17
    4  A    between atoms: C_11  and  O_24
    5  A    between atoms: N_12  and  C_20
    6  A    between atoms: N_12  and  C_26
    7  A    between atoms: C_15  and  C_38
    8  A    between atoms: N_17  and  C_25
    9  A    between atoms: C_20  and  C_25
   10  A    between atoms: O_24  and  C_26
   11  A    between atoms: N_32  and  C_34
   12  A    between atoms: N_32  and  C_38
   13  A    between atoms: C_34  and  C_35
                            x       y       z     vdW  Elec       q    Type
                         _______ _______ _______ _____ _____    ______ ____

>  <TORSDO>
F 13

$$$$
