=
 OpenBabel11042410353D

 38 44  0  0  1  0  0  0  0  0999 V2000
  184.8230  178.6550  147.1400 O   0  0  0  0  0  0  0  0  0  0  0  0
  186.1260  177.4360  143.2120 C   0  0  0  0  0  2  0  0  0  0  0  0
  184.0580  178.7530  142.6860 C   0  0  0  0  0  0  0  0  0  0  0  0
  188.8340  177.4090  145.4810 O   0  0  0  0  0  0  0  0  0  0  0  0
  187.3860  178.1430  143.7040 C   0  0  1  0  0  3  0  0  0  0  0  0
  187.6150  178.0670  145.2220 C   0  0  1  0  0  3  0  0  0  0  0  0
  184.9410  178.2140  143.5510 N   0  0  0  0  0  0  0  0  0  0  0  0
  188.5900  177.4690  143.1320 C   0  0  2  0  0  3  0  0  0  0  0  0
  185.2560  178.2350  146.0340 C   0  0  0  0  0  0  0  0  0  0  0  0
  186.4920  177.3930  146.0150 C   0  0  0  0  0  2  0  0  0  0  0  0
  184.5380  178.5670  144.7880 C   0  0  0  0  0  0  0  0  0  0  0  0
  189.5770  177.4580  144.2890 C   0  0  1  0  0  3  0  0  0  0  0  0
  183.0710  179.4390  143.3760 C   0  0  0  0  0  3  0  0  0  0  0  0
  183.3820  179.3270  144.7240 C   0  0  0  0  0  3  0  0  0  0  0  0
  181.2030  176.5220  140.0520 C   0  0  1  0  0  3  0  0  0  0  0  0
  181.7980  177.6680  140.8040 C   0  0  0  0  0  0  0  0  0  0  0  0
  178.9310  176.2490  139.6250 N   0  0  0  0  0  0  0  0  0  0  0  0
  181.6560  177.4100  137.7680 N   0  0  0  0  0  0  0  0  0  0  0  0
  185.0610  178.4740  139.1670 C   0  0  0  0  0  0  0  0  0  0  0  0
  179.4730  176.7310  138.4330 N   0  0  0  0  0  2  0  0  0  0  0  0
  183.0510  177.7420  137.9120 C   0  0  0  0  0  2  0  0  0  0  0  0
  183.1470  178.0970  140.4200 C   0  0  0  0  0  0  0  0  0  0  0  0
  185.3220  178.8230  140.4170 C   0  0  0  0  0  2  0  0  0  0  0  0
  183.6860  178.0080  139.0640 C   0  0  0  0  0  0  0  0  0  0  0  0
  179.8370  176.1280  140.5440 C   0  0  0  0  0  3  0  0  0  0  0  0
  181.1530  178.2740  141.7040 O   0  0  0  0  0  0  0  0  0  0  0  0
  186.0330  178.5950  138.0460 C   0  0  0  0  0  1  0  0  0  0  0  0
  184.1110  178.5810  141.2150 C   0  0  0  0  0  0  0  0  0  0  0  0
  180.8500  176.9410  138.6730 C   0  0  0  0  0  0  0  0  0  0  0  0
  190.3870  178.6020  144.2930 O   0  0  0  0  0  0  0  0  0  0  0  0
  191.6910  178.1140  144.3880 C   0  0  0  0  0  1  0  0  0  0  0  0
  189.0880  178.1930  141.8830 C   0  0  0  0  0  2  0  0  0  0  0  0
  188.7000  177.4340  140.6260 C   0  0  0  0  0  2  0  0  0  0  0  0
  189.1710  178.1870  139.3920 C   0  0  0  0  0  2  0  0  0  0  0  0
  191.2010  176.6300  138.7570 C   0  0  0  0  0  1  0  0  0  0  0  0
  189.5540  177.4390  136.9540 C   0  0  0  0  0  2  0  0  0  0  0  0
  189.8540  177.2410  138.4210 C   0  0  0  0  0  0  0  0  0  0  0  0
  188.9100  176.2920  137.7250 C   0  0  0  0  0  2  0  0  0  0  0  0
  2  7  1  0  0  0  0
  3 13  2  0  0  0  0
  3  7  1  0  0  0  0
  5  2  1  1  0  0  0
  5  6  1  0  0  0  0
  6  4  1  0  0  0  0
  6 10  1  1  0  0  0
  7 11  1  0  0  0  0
  8 32  1  6  0  0  0
  8  5  1  0  0  0  0
  8 12  1  0  0  0  0
  9  1  2  0  0  0  0
 10  9  1  0  0  0  0
 11  9  1  0  0  0  0
 12 30  1  1  0  0  0
 12  4  1  0  0  0  0
 13 14  1  0  0  0  0
 14 11  2  0  0  0  0
 15 25  1  1  0  0  0
 15 16  1  0  0  0  0
 16 26  2  0  0  0  0
 17 25  2  0  0  0  0
 18 21  1  0  0  0  0
 18 29  2  0  0  0  0
 19 23  1  0  0  0  0
 20 29  1  0  0  0  0
 20 17  1  0  0  0  0
 21 24  1  0  0  0  0
 22 16  1  0  0  0  0
 22 28  2  0  0  0  0
 23 28  1  0  0  0  0
 24 19  2  0  0  0  0
 24 22  1  0  0  0  0
 27 19  1  0  0  0  0
 28  3  1  0  0  0  0
 29 15  1  0  0  0  0
 30 31  1  0  0  0  0
 33 32  1  0  0  0  0
 34 33  1  0  0  0  0
 36 38  1  0  0  0  0
 36 37  1  0  0  0  0
 37 35  1  0  0  0  0
 37 34  1  0  0  0  0
 38 37  1  0  0  0  0
M  END
>  <MODEL>
1

>  <REMARK>
 VINA RESULT:      -9.9      0.000      0.000
  Name = 
  6 active torsions:
  status: ('A' for Active; 'I' for Inactive)
    1  A    between atoms: C_5  and  C_35
    2  A    between atoms: O_7  and  C_30
    3  A    between atoms: C_16  and  C_19
    4  A    between atoms: C_16  and  C_23
    5  A    between atoms: C_23  and  C_34
    6  A    between atoms: C_25  and  C_34
                            x       y       z     vdW  Elec       q    Type
                         _______ _______ _______ _____ _____    ______ ____

>  <TORSDO>
F 6

$$$$
=
 OpenBabel11042410353D

 38 44  0  0  1  0  0  0  0  0999 V2000
  179.9330  180.2440  142.0420 O   0  0  0  0  0  0  0  0  0  0  0  0
  183.4240  177.8260  141.2820 C   0  0  0  0  0  2  0  0  0  0  0  0
  182.9640  178.8010  139.0170 C   0  0  0  0  0  0  0  0  0  0  0  0
  183.2300  178.6810  144.7040 O   0  0  0  0  0  0  0  0  0  0  0  0
  183.9520  178.7110  142.4080 C   0  0  1  0  0  3  0  0  0  0  0  0
  182.8890  179.1620  143.4230 C   0  0  1  0  0  3  0  0  0  0  0  0
  182.6700  178.6230  140.3210 N   0  0  0  0  0  0  0  0  0  0  0  0
  184.9220  177.9350  143.2360 C   0  0  2  0  0  3  0  0  0  0  0  0
  180.9340  179.4930  141.8990 C   0  0  0  0  0  0  0  0  0  0  0  0
  181.4540  178.7480  143.0870 C   0  0  0  0  0  2  0  0  0  0  0  0
  181.5670  179.3550  140.5730 C   0  0  0  0  0  0  0  0  0  0  0  0
  184.5960  178.3560  144.6600 C   0  0  1  0  0  3  0  0  0  0  0  0
  182.0310  179.6370  138.4260 C   0  0  0  0  0  3  0  0  0  0  0  0
  181.1390  179.9990  139.4250 C   0  0  0  0  0  3  0  0  0  0  0  0
  183.1600  174.6360  137.3780 C   0  0  1  0  0  3  0  0  0  0  0  0
  182.9090  176.1080  137.4100 C   0  0  0  0  0  0  0  0  0  0  0  0
  181.9600  173.1120  136.0900 N   0  0  0  0  0  0  0  0  0  0  0  0
  185.0560  174.7020  135.7630 N   0  0  0  0  0  0  0  0  0  0  0  0
  186.2400  177.7780  137.7180 C   0  0  0  0  0  0  0  0  0  0  0  0
  183.1550  173.3160  135.3980 N   0  0  0  0  0  2  0  0  0  0  0  0
  185.8640  175.7210  136.3840 C   0  0  0  0  0  2  0  0  0  0  0  0
  184.0640  176.9820  137.6450 C   0  0  0  0  0  0  0  0  0  0  0  0
  185.4710  178.6480  138.3530 C   0  0  0  0  0  2  0  0  0  0  0  0
  185.4280  176.6800  137.2150 C   0  0  0  0  0  0  0  0  0  0  0  0
  181.9120  173.8210  137.1750 C   0  0  0  0  0  3  0  0  0  0  0  0
  181.7610  176.5880  137.2030 O   0  0  0  0  0  0  0  0  0  0  0  0
  187.7070  177.9460  137.5210 C   0  0  0  0  0  1  0  0  0  0  0  0
  184.0910  178.1440  138.3130 C   0  0  0  0  0  0  0  0  0  0  0  0
  183.8920  174.2670  136.1410 C   0  0  0  0  0  0  0  0  0  0  0  0
  185.3510  179.4670  145.0600 O   0  0  0  0  0  0  0  0  0  0  0  0
  185.7070  179.1980  146.3820 C   0  0  0  0  0  1  0  0  0  0  0  0
  186.3620  178.2150  142.8090 C   0  0  0  0  0  2  0  0  0  0  0  0
  187.3060  177.1620  143.3630 C   0  0  0  0  0  2  0  0  0  0  0  0
  188.7440  177.5120  143.0160 C   0  0  0  0  0  2  0  0  0  0  0  0
  188.9170  177.5930  145.6450 C   0  0  0  0  0  1  0  0  0  0  0  0
  190.7010  178.7250  144.1780 C   0  0  0  0  0  2  0  0  0  0  0  0
  189.5540  177.7460  144.2780 C   0  0  0  0  0  0  0  0  0  0  0  0
  190.9680  177.2240  144.2020 C   0  0  0  0  0  2  0  0  0  0  0  0
  3  7  1  0  0  0  0
  5  2  1  6  0  0  0
  5  8  1  0  0  0  0
  5  6  1  0  0  0  0
  6 10  1  6  0  0  0
  6  4  1  0  0  0  0
  7 11  1  0  0  0  0
  7  2  1  0  0  0  0
  8 32  1  6  0  0  0
  8 12  1  0  0  0  0
  9  1  2  0  0  0  0
  9 10  1  0  0  0  0
 11  9  1  0  0  0  0
 12  4  1  0  0  0  0
 12 30  1  6  0  0  0
 13  3  2  0  0  0  0
 13 14  1  0  0  0  0
 14 11  2  0  0  0  0
 15 25  1  6  0  0  0
 15 16  1  0  0  0  0
 16 22  1  0  0  0  0
 17 25  2  0  0  0  0
 18 29  2  0  0  0  0
 18 21  1  0  0  0  0
 19 23  1  0  0  0  0
 20 17  1  0  0  0  0
 20 29  1  0  0  0  0
 21 24  1  0  0  0  0
 22 28  2  0  0  0  0
 24 22  1  0  0  0  0
 24 19  2  0  0  0  0
 26 16  2  0  0  0  0
 27 19  1  0  0  0  0
 28 23  1  0  0  0  0
 28  3  1  0  0  0  0
 29 15  1  0  0  0  0
 30 31  1  0  0  0  0
 32 33  1  0  0  0  0
 34 33  1  0  0  0  0
 34 37  1  0  0  0  0
 36 38  1  0  0  0  0
 36 37  1  0  0  0  0
 37 35  1  0  0  0  0
 38 37  1  0  0  0  0
M  END
>  <MODEL>
2

>  <REMARK>
 VINA RESULT:      -9.8      2.415      4.854
  Name = 
  6 active torsions:
  status: ('A' for Active; 'I' for Inactive)
    1  A    between atoms: C_5  and  C_35
    2  A    between atoms: O_7  and  C_30
    3  A    between atoms: C_16  and  C_19
    4  A    between atoms: C_16  and  C_23
    5  A    between atoms: C_23  and  C_34
    6  A    between atoms: C_25  and  C_34
                            x       y       z     vdW  Elec       q    Type
                         _______ _______ _______ _____ _____    ______ ____

>  <TORSDO>
F 6

$$$$
=
 OpenBabel11042410353D

 38 44  0  0  1  0  0  0  0  0999 V2000
  188.3220  177.8690  147.3680 O   0  0  0  0  0  0  0  0  0  0  0  0
  187.2940  177.2210  143.2280 C   0  0  0  0  0  2  0  0  0  0  0  0
  185.4380  178.7220  143.9950 C   0  0  0  0  0  0  0  0  0  0  0  0
  190.7460  176.6760  143.7490 O   0  0  0  0  0  0  0  0  0  0  0  0
  188.7110  177.7670  143.0700 C   0  0  1  0  0  3  0  0  0  0  0  0
  189.6620  177.4360  144.2320 C   0  0  1  0  0  3  0  0  0  0  0  0
  186.5560  178.0020  144.2140 N   0  0  0  0  0  0  0  0  0  0  0  0
  189.3610  177.1250  141.8890 C   0  0  2  0  0  3  0  0  0  0  0  0
  188.0790  177.6070  146.1600 C   0  0  0  0  0  0  0  0  0  0  0  0
  189.0130  176.7100  145.4140 C   0  0  0  0  0  2  0  0  0  0  0  0
  186.8820  178.1750  145.5110 C   0  0  0  0  0  0  0  0  0  0  0  0
  190.7860  176.8730  142.3580 C   0  0  1  0  0  3  0  0  0  0  0  0
  185.0330  179.3440  145.1650 C   0  0  0  0  0  3  0  0  0  0  0  0
  185.9630  179.0000  146.1360 C   0  0  0  0  0  3  0  0  0  0  0  0
  181.0630  178.1410  143.2230 C   0  0  1  0  0  3  0  0  0  0  0  0
  182.3390  178.8540  143.5310 C   0  0  0  0  0  0  0  0  0  0  0  0
  178.9620  178.7840  143.9920 N   0  0  0  0  0  0  0  0  0  0  0  0
  180.6970  179.1620  140.9800 N   0  0  0  0  0  0  0  0  0  0  0  0
  184.4610  178.6750  140.4580 C   0  0  0  0  0  0  0  0  0  0  0  0
  179.0190  179.2240  142.6680 N   0  0  0  0  0  2  0  0  0  0  0  0
  181.9960  178.9370  140.3990 C   0  0  0  0  0  2  0  0  0  0  0  0
  183.3930  178.8200  142.5100 C   0  0  0  0  0  0  0  0  0  0  0  0
  185.3930  178.6970  141.3980 C   0  0  0  0  0  2  0  0  0  0  0  0
  183.1440  178.7640  141.0710 C   0  0  0  0  0  0  0  0  0  0  0  0
  180.0610  178.1940  144.3440 C   0  0  0  0  0  3  0  0  0  0  0  0
  182.4940  179.4960  144.6060 O   0  0  0  0  0  0  0  0  0  0  0  0
  184.7480  178.6160  138.9980 C   0  0  0  0  0  1  0  0  0  0  0  0
  184.7180  178.7840  142.7010 C   0  0  0  0  0  0  0  0  0  0  0  0
  180.3010  178.8770  142.1840 C   0  0  0  0  0  0  0  0  0  0  0  0
  191.6290  177.9530  142.0650 O   0  0  0  0  0  0  0  0  0  0  0  0
  192.4710  177.4830  141.0570 C   0  0  0  0  0  1  0  0  0  0  0  0
  189.2530  178.0090  140.6490 C   0  0  0  0  0  2  0  0  0  0  0  0
  189.2600  177.1700  139.3830 C   0  0  0  0  0  2  0  0  0  0  0  0
  187.9210  177.2810  138.6710 C   0  0  0  0  0  2  0  0  0  0  0  0
  186.9850  177.6280  136.2310 C   0  0  0  0  0  1  0  0  0  0  0  0
  189.5190  177.6210  136.6750 C   0  0  0  0  0  2  0  0  0  0  0  0
  188.1180  177.7260  137.2330 C   0  0  0  0  0  0  0  0  0  0  0  0
  188.9530  178.9750  137.0890 C   0  0  0  0  0  2  0  0  0  0  0  0
  2  7  1  0  0  0  0
  3  7  1  0  0  0  0
  3 13  2  0  0  0  0
  4  6  1  0  0  0  0
  5  2  1  1  0  0  0
  5  6  1  0  0  0  0
  6 10  1  1  0  0  0
  7 11  1  0  0  0  0
  8 32  1  6  0  0  0
  8 12  1  0  0  0  0
  8  5  1  0  0  0  0
  9  1  2  0  0  0  0
 10  9  1  0  0  0  0
 11 14  2  0  0  0  0
 11  9  1  0  0  0  0
 12 30  1  1  0  0  0
 12  4  1  0  0  0  0
 13 14  1  0  0  0  0
 15 16  1  0  0  0  0
 15 25  1  1  0  0  0
 16 26  2  0  0  0  0
 17 25  2  0  0  0  0
 18 29  2  0  0  0  0
 19 24  2  0  0  0  0
 19 23  1  0  0  0  0
 20 17  1  0  0  0  0
 21 18  1  0  0  0  0
 21 24  1  0  0  0  0
 22 28  2  0  0  0  0
 22 16  1  0  0  0  0
 23 28  1  0  0  0  0
 24 22  1  0  0  0  0
 27 19  1  0  0  0  0
 28  3  1  0  0  0  0
 29 20  1  0  0  0  0
 29 15  1  0  0  0  0
 31 30  1  0  0  0  0
 33 32  1  0  0  0  0
 34 33  1  0  0  0  0
 35 37  1  0  0  0  0
 36 38  1  0  0  0  0
 36 37  1  0  0  0  0
 37 34  1  0  0  0  0
 38 37  1  0  0  0  0
M  END
>  <MODEL>
3

>  <REMARK>
 VINA RESULT:      -9.7      2.010      2.829
  Name = 
  6 active torsions:
  status: ('A' for Active; 'I' for Inactive)
    1  A    between atoms: C_5  and  C_35
    2  A    between atoms: O_7  and  C_30
    3  A    between atoms: C_16  and  C_19
    4  A    between atoms: C_16  and  C_23
    5  A    between atoms: C_23  and  C_34
    6  A    between atoms: C_25  and  C_34
                            x       y       z     vdW  Elec       q    Type
                         _______ _______ _______ _____ _____    ______ ____

>  <TORSDO>
F 6

$$$$
=
 OpenBabel11042410353D

 38 44  0  0  1  0  0  0  0  0999 V2000
  180.3960  179.3820  143.8060 O   0  0  0  0  0  0  0  0  0  0  0  0
  183.6530  178.7690  141.0430 C   0  0  0  0  0  2  0  0  0  0  0  0
  184.8030  178.5450  143.2600 C   0  0  0  0  0  0  0  0  0  0  0  0
  180.5610  178.0450  139.4960 O   0  0  0  0  0  0  0  0  0  0  0  0
  182.6880  177.6880  140.5630 C   0  0  1  0  0  3  0  0  0  0  0  0
  181.1990  178.0250  140.7520 C   0  0  1  0  0  3  0  0  0  0  0  0
  183.7160  178.7830  142.5000 N   0  0  0  0  0  0  0  0  0  0  0  0
  182.8270  177.5190  139.0860 C   0  0  2  0  0  3  0  0  0  0  0  0
  181.2940  179.2420  142.9340 C   0  0  0  0  0  0  0  0  0  0  0  0
  180.9190  179.3370  141.4890 C   0  0  0  0  0  2  0  0  0  0  0  0
  182.6900  178.9990  143.3470 C   0  0  0  0  0  0  0  0  0  0  0  0
  181.3940  177.3390  138.6100 C   0  0  1  0  0  3  0  0  0  0  0  0
  184.4750  178.6290  144.6040 C   0  0  0  0  0  3  0  0  0  0  0  0
  183.1180  178.9120  144.6610 C   0  0  0  0  0  3  0  0  0  0  0  0
  188.6160  177.9610  145.5400 C   0  0  1  0  0  3  0  0  0  0  0  0
  187.3410  177.6070  144.8470 C   0  0  0  0  0  0  0  0  0  0  0  0
  189.5160  176.7960  147.3430 N   0  0  0  0  0  0  0  0  0  0  0  0
  190.1450  176.8680  143.9050 N   0  0  0  0  0  0  0  0  0  0  0  0
  187.8390  178.3170  141.2100 C   0  0  0  0  0  0  0  0  0  0  0  0
  190.2520  176.3790  146.2330 N   0  0  0  0  0  2  0  0  0  0  0  0
  189.6230  177.4210  142.6810 C   0  0  0  0  0  3  0  0  0  0  0  0
  187.2470  177.9090  143.4140 C   0  0  0  0  0  0  0  0  0  0  0  0
  186.5400  178.5440  141.3280 C   0  0  0  0  0  3  0  0  0  0  0  0
  188.3810  177.8910  142.4920 C   0  0  0  0  0  0  0  0  0  0  0  0
  188.6020  177.6540  147.0120 C   0  0  0  0  0  3  0  0  0  0  0  0
  186.3960  177.0330  145.4550 O   0  0  0  0  0  0  0  0  0  0  0  0
  188.5970  178.4410  139.9340 C   0  0  0  0  0  1  0  0  0  0  0  0
  186.1620  178.2910  142.7260 C   0  0  0  0  0  0  0  0  0  0  0  0
  189.7030  177.0460  145.1130 C   0  0  0  0  0  0  0  0  0  0  0  0
  181.0160  175.9900  138.5930 O   0  0  0  0  0  0  0  0  0  0  0  0
  180.2410  175.8520  137.4410 C   0  0  0  0  0  1  0  0  0  0  0  0
  183.7550  176.3550  138.7470 C   0  0  0  0  0  2  0  0  0  0  0  0
  184.4780  176.6040  137.4350 C   0  0  0  0  0  2  0  0  0  0  0  0
  185.4480  177.7660  137.5820 C   0  0  0  0  0  2  0  0  0  0  0  0
  187.5100  176.1670  137.2080 C   0  0  0  0  0  1  0  0  0  0  0  0
  187.6080  178.6290  136.4670 C   0  0  0  0  0  2  0  0  0  0  0  0
  186.7650  177.4500  136.8970 C   0  0  0  0  0  0  0  0  0  0  0  0
  186.8030  177.8400  135.4390 C   0  0  0  0  0  2  0  0  0  0  0  0
  2  7  1  0  0  0  0
  3 13  2  0  0  0  0
  4  6  1  0  0  0  0
  5  6  1  0  0  0  0
  5  2  1  6  0  0  0
  6 10  1  6  0  0  0
  7  3  1  0  0  0  0
  7 11  1  0  0  0  0
  8 32  1  1  0  0  0
  8  5  1  0  0  0  0
  9 11  1  0  0  0  0
  9  1  2  0  0  0  0
 10  9  1  0  0  0  0
 11 14  2  0  0  0  0
 12 30  1  1  0  0  0
 12  8  1  0  0  0  0
 12  4  1  0  0  0  0
 13 14  1  0  0  0  0
 15 25  1  1  0  0  0
 16 26  2  0  0  0  0
 16 15  1  0  0  0  0
 18 29  2  0  0  0  0
 19 23  2  0  0  0  0
 19 24  1  0  0  0  0
 20 17  1  0  0  0  0
 21 18  1  0  0  0  0
 22 16  1  0  0  0  0
 23 28  1  0  0  0  0
 24 21  2  0  0  0  0
 24 22  1  0  0  0  0
 25 17  2  0  0  0  0
 27 19  1  0  0  0  0
 28  3  1  0  0  0  0
 28 22  2  0  0  0  0
 29 15  1  0  0  0  0
 29 20  1  0  0  0  0
 31 30  1  0  0  0  0
 33 34  1  0  0  0  0
 33 32  1  0  0  0  0
 36 37  1  0  0  0  0
 37 35  1  0  0  0  0
 37 34  1  0  0  0  0
 38 36  1  0  0  0  0
 38 37  1  0  0  0  0
M  END
>  <MODEL>
4

>  <REMARK>
 VINA RESULT:      -9.6      2.344      7.191
  Name = 
  6 active torsions:
  status: ('A' for Active; 'I' for Inactive)
    1  A    between atoms: C_5  and  C_35
    2  A    between atoms: O_7  and  C_30
    3  A    between atoms: C_16  and  C_19
    4  A    between atoms: C_16  and  C_23
    5  A    between atoms: C_23  and  C_34
    6  A    between atoms: C_25  and  C_34
                            x       y       z     vdW  Elec       q    Type
                         _______ _______ _______ _____ _____    ______ ____

>  <TORSDO>
F 6

$$$$
=
 OpenBabel11042410353D

 38 44  0  0  1  0  0  0  0  0999 V2000
  192.9710  176.7510  137.8640 O   0  0  0  0  0  0  0  0  0  0  0  0
  189.0400  176.6210  139.6380 C   0  0  0  0  0  2  0  0  0  0  0  0
  190.4320  177.5100  141.5250 C   0  0  0  0  0  0  0  0  0  0  0  0
  188.8070  176.7830  136.1170 O   0  0  0  0  0  0  0  0  0  0  0  0
  188.7540  177.4900  138.4160 C   0  0  1  0  0  3  0  0  0  0  0  0
  189.6280  177.1840  137.1890 C   0  0  1  0  0  3  0  0  0  0  0  0
  190.2870  177.0320  140.2730 N   0  0  0  0  0  0  0  0  0  0  0  0
  187.3660  177.2270  137.9340 C   0  0  2  0  0  3  0  0  0  0  0  0
  191.7980  176.6560  138.3140 C   0  0  0  0  0  0  0  0  0  0  0  0
  190.7210  176.1360  137.4170 C   0  0  0  0  0  2  0  0  0  0  0  0
  191.5110  177.0450  139.7080 C   0  0  0  0  0  0  0  0  0  0  0  0
  187.5070  177.2230  136.4200 C   0  0  1  0  0  3  0  0  0  0  0  0
  191.7620  177.8110  141.7710 C   0  0  0  0  0  3  0  0  0  0  0  0
  192.4540  177.5210  140.6030 C   0  0  0  0  0  3  0  0  0  0  0  0
  190.4930  176.5140  145.8930 C   0  0  1  0  0  3  0  0  0  0  0  0
  190.6290  177.3320  144.6500 C   0  0  0  0  0  0  0  0  0  0  0  0
  191.7530  176.8180  147.8270 N   0  0  0  0  0  0  0  0  0  0  0  0
  188.5310  177.7340  146.8260 N   0  0  0  0  0  0  0  0  0  0  0  0
  187.1940  177.7510  143.2350 C   0  0  0  0  0  0  0  0  0  0  0  0
  190.5180  177.4080  148.0970 N   0  0  0  0  0  2  0  0  0  0  0  0
  187.6730  177.7290  145.6680 C   0  0  0  0  0  3  0  0  0  0  0  0
  189.4210  177.5360  143.8430 C   0  0  0  0  0  0  0  0  0  0  0  0
  187.9190  177.7740  142.1280 C   0  0  0  0  0  3  0  0  0  0  0  0
  188.0680  177.6150  144.3910 C   0  0  0  0  0  0  0  0  0  0  0  0
  191.7910  176.3240  146.6290 C   0  0  0  0  0  3  0  0  0  0  0  0
  191.7270  177.8620  144.3250 O   0  0  0  0  0  0  0  0  0  0  0  0
  185.7120  177.8910  143.2670 C   0  0  0  0  0  1  0  0  0  0  0  0
  189.3310  177.6340  142.5100 C   0  0  0  0  0  0  0  0  0  0  0  0
  189.7400  177.2700  146.9240 C   0  0  0  0  0  0  0  0  0  0  0  0
  187.3090  178.4990  135.8750 O   0  0  0  0  0  0  0  0  0  0  0  0
  186.8010  178.2650  134.5970 C   0  0  0  0  0  1  0  0  0  0  0  0
  186.3860  178.2670  138.4730 C   0  0  0  0  0  2  0  0  0  0  0  0
  184.9510  177.8540  138.1960 C   0  0  0  0  0  2  0  0  0  0  0  0
  183.9880  178.8620  138.8030 C   0  0  0  0  0  2  0  0  0  0  0  0
  182.7590  176.6710  139.6030 C   0  0  0  0  0  1  0  0  0  0  0  0
  181.8270  178.9920  140.2060 C   0  0  0  0  0  2  0  0  0  0  0  0
  182.9920  178.1650  139.7130 C   0  0  0  0  0  0  0  0  0  0  0  0
  182.9980  178.6790  141.1320 C   0  0  0  0  0  2  0  0  0  0  0  0
  1  9  2  0  0  0  0
  2  7  1  0  0  0  0
  3 13  2  0  0  0  0
  3 28  1  0  0  0  0
  4 12  1  0  0  0  0
  4  6  1  0  0  0  0
  5  2  1  1  0  0  0
  6 10  1  1  0  0  0
  6  5  1  0  0  0  0
  7  3  1  0  0  0  0
  8  5  1  0  0  0  0
  8 32  1  6  0  0  0
  9 11  1  0  0  0  0
 10  9  1  0  0  0  0
 11  7  1  0  0  0  0
 11 14  2  0  0  0  0
 12 30  1  1  0  0  0
 12  8  1  0  0  0  0
 14 13  1  0  0  0  0
 15 25  1  1  0  0  0
 15 29  1  0  0  0  0
 16 15  1  0  0  0  0
 17 20  1  0  0  0  0
 18 29  2  0  0  0  0
 19 27  1  0  0  0  0
 19 24  1  0  0  0  0
 21 18  1  0  0  0  0
 22 24  1  0  0  0  0
 22 16  1  0  0  0  0
 23 28  1  0  0  0  0
 23 19  2  0  0  0  0
 24 21  2  0  0  0  0
 25 17  2  0  0  0  0
 26 16  2  0  0  0  0
 28 22  2  0  0  0  0
 29 20  1  0  0  0  0
 31 30  1  0  0  0  0
 33 32  1  0  0  0  0
 33 34  1  0  0  0  0
 34 37  1  0  0  0  0
 35 37  1  0  0  0  0
 36 38  1  0  0  0  0
 37 36  1  0  0  0  0
 37 38  1  0  0  0  0
M  END
>  <MODEL>
5

>  <REMARK>
 VINA RESULT:      -9.4      3.869      8.920
  Name = 
  6 active torsions:
  status: ('A' for Active; 'I' for Inactive)
    1  A    between atoms: C_5  and  C_35
    2  A    between atoms: O_7  and  C_30
    3  A    between atoms: C_16  and  C_19
    4  A    between atoms: C_16  and  C_23
    5  A    between atoms: C_23  and  C_34
    6  A    between atoms: C_25  and  C_34
                            x       y       z     vdW  Elec       q    Type
                         _______ _______ _______ _____ _____    ______ ____

>  <TORSDO>
F 6

$$$$
=
 OpenBabel11042410353D

 38 44  0  0  1  0  0  0  0  0999 V2000
  182.8510  179.2930  143.7190 O   0  0  0  0  0  0  0  0  0  0  0  0
  186.7470  177.4420  143.5960 C   0  0  0  0  0  2  0  0  0  0  0  0
  186.6540  178.6040  141.3760 C   0  0  0  0  0  0  0  0  0  0  0  0
  185.6800  177.8670  146.9380 O   0  0  0  0  0  0  0  0  0  0  0  0
  186.8750  178.2510  144.8840 C   0  0  1  0  0  3  0  0  0  0  0  0
  185.5610  178.4440  145.6570 C   0  0  1  0  0  3  0  0  0  0  0  0
  186.1110  178.2420  142.5560 N   0  0  0  0  0  0  0  0  0  0  0  0
  187.7460  177.5160  145.8490 C   0  0  2  0  0  3  0  0  0  0  0  0
  183.9610  178.6970  143.7520 C   0  0  0  0  0  0  0  0  0  0  0  0
  184.3130  177.8930  144.9620 C   0  0  0  0  0  2  0  0  0  0  0  0
  184.8830  178.7940  142.6030 C   0  0  0  0  0  0  0  0  0  0  0  0
  187.0560  177.7260  147.1870 C   0  0  1  0  0  3  0  0  0  0  0  0
  185.7580  179.3760  140.6550 C   0  0  0  0  0  3  0  0  0  0  0  0
  184.6250  179.5060  141.4440 C   0  0  0  0  0  3  0  0  0  0  0  0
  187.7310  176.6380  137.4960 C   0  0  1  0  0  3  0  0  0  0  0  0
  187.4740  177.7370  138.4760 C   0  0  0  0  0  0  0  0  0  0  0  0
  187.3840  176.7980  135.2000 N   0  0  0  0  0  0  0  0  0  0  0  0
  190.1850  177.0130  137.2810 N   0  0  0  0  0  0  0  0  0  0  0  0
  190.1510  177.5310  141.0770 C   0  0  0  0  0  0  0  0  0  0  0  0
  188.7610  176.9450  135.3740 N   0  0  0  0  0  2  0  0  0  0  0  0
  190.5440  177.0530  138.6760 C   0  0  0  0  0  2  0  0  0  0  0  0
  188.3310  177.7920  139.6650 C   0  0  0  0  0  0  0  0  0  0  0  0
  189.1500  178.0180  141.7950 C   0  0  0  0  0  2  0  0  0  0  0  0
  189.7280  177.3640  139.6950 C   0  0  0  0  0  0  0  0  0  0  0  0
  186.7760  176.6380  136.3340 C   0  0  0  0  0  3  0  0  0  0  0  0
  186.5850  178.6090  138.2720 O   0  0  0  0  0  0  0  0  0  0  0  0
  191.5090  177.2490  141.6210 C   0  0  0  0  0  1  0  0  0  0  0  0
  187.9930  178.1810  140.9030 C   0  0  0  0  0  0  0  0  0  0  0  0
  188.9980  176.8880  136.7670 C   0  0  0  0  0  0  0  0  0  0  0  0
  187.5300  178.8710  147.8430 O   0  0  0  0  0  0  0  0  0  0  0  0
  188.3510  178.3840  148.8600 C   0  0  0  0  0  1  0  0  0  0  0  0
  189.1850  178.0230  145.7940 C   0  0  0  0  0  2  0  0  0  0  0  0
  190.0820  177.0320  145.0720 C   0  0  0  0  0  2  0  0  0  0  0  0
  191.4990  177.1110  145.6200 C   0  0  0  0  0  2  0  0  0  0  0  0
  192.4080  174.6420  145.4630 C   0  0  0  0  0  1  0  0  0  0  0  0
  191.1560  175.4470  147.5610 C   0  0  0  0  0  2  0  0  0  0  0  0
  191.8850  175.8030  146.2860 C   0  0  0  0  0  0  0  0  0  0  0  0
  192.5860  175.9750  147.6120 C   0  0  0  0  0  2  0  0  0  0  0  0
  1  9  2  0  0  0  0
  3  7  1  0  0  0  0
  4 12  1  0  0  0  0
  5  2  1  6  0  0  0
  5  6  1  0  0  0  0
  5  8  1  0  0  0  0
  6 10  1  6  0  0  0
  6  4  1  0  0  0  0
  7 11  1  0  0  0  0
  7  2  1  0  0  0  0
  8 32  1  1  0  0  0
  8 12  1  0  0  0  0
  9 10  1  0  0  0  0
 11  9  1  0  0  0  0
 12 30  1  6  0  0  0
 13  3  2  0  0  0  0
 13 14  1  0  0  0  0
 14 11  2  0  0  0  0
 15 25  1  6  0  0  0
 15 16  1  0  0  0  0
 16 22  1  0  0  0  0
 17 20  1  0  0  0  0
 17 25  2  0  0  0  0
 18 21  1  0  0  0  0
 19 27  1  0  0  0  0
 19 23  1  0  0  0  0
 20 29  1  0  0  0  0
 21 24  1  0  0  0  0
 22 24  1  0  0  0  0
 22 28  2  0  0  0  0
 24 19  2  0  0  0  0
 26 16  2  0  0  0  0
 28  3  1  0  0  0  0
 28 23  1  0  0  0  0
 29 18  2  0  0  0  0
 29 15  1  0  0  0  0
 30 31  1  0  0  0  0
 33 34  1  0  0  0  0
 33 32  1  0  0  0  0
 34 37  1  0  0  0  0
 35 37  1  0  0  0  0
 36 38  1  0  0  0  0
 37 36  1  0  0  0  0
 37 38  1  0  0  0  0
M  END
>  <MODEL>
6

>  <REMARK>
 VINA RESULT:      -9.2      3.101      5.963
  Name = 
  6 active torsions:
  status: ('A' for Active; 'I' for Inactive)
    1  A    between atoms: C_5  and  C_35
    2  A    between atoms: O_7  and  C_30
    3  A    between atoms: C_16  and  C_19
    4  A    between atoms: C_16  and  C_23
    5  A    between atoms: C_23  and  C_34
    6  A    between atoms: C_25  and  C_34
                            x       y       z     vdW  Elec       q    Type
                         _______ _______ _______ _____ _____    ______ ____

>  <TORSDO>
F 6

$$$$
=
 OpenBabel11042410353D

 38 44  0  0  1  0  0  0  0  0999 V2000
  193.9090  176.7530  139.3260 O   0  0  0  0  0  0  0  0  0  0  0  0
  189.7790  177.7240  140.1130 C   0  0  0  0  0  2  0  0  0  0  0  0
  189.6150  176.4770  137.9440 C   0  0  0  0  0  0  0  0  0  0  0  0
  191.6490  177.7380  143.1100 O   0  0  0  0  0  0  0  0  0  0  0  0
  190.1310  176.9860  141.4010 C   0  0  1  0  0  3  0  0  0  0  0  0
  191.5970  177.1230  141.8430 C   0  0  1  0  0  3  0  0  0  0  0  0
  190.3200  177.0160  138.9580 N   0  0  0  0  0  0  0  0  0  0  0  0
  189.3640  177.5770  142.5380 C   0  0  2  0  0  3  0  0  0  0  0  0
  192.7330  177.1010  139.6150 C   0  0  0  0  0  0  0  0  0  0  0  0
  192.4990  177.8840  140.8670 C   0  0  0  0  0  2  0  0  0  0  0  0
  191.6170  176.7410  138.7180 C   0  0  0  0  0  0  0  0  0  0  0  0
  190.3710  177.5990  143.6770 C   0  0  1  0  0  3  0  0  0  0  0  0
  190.4690  175.8700  137.0370 C   0  0  0  0  0  3  0  0  0  0  0  0
  191.7530  176.0320  137.5380 C   0  0  0  0  0  3  0  0  0  0  0  0
  186.8900  173.8910  135.5020 C   0  0  1  0  0  3  0  0  0  0  0  0
  187.6680  174.3640  136.6860 C   0  0  0  0  0  0  0  0  0  0  0  0
  186.4080  171.6630  135.0320 N   0  0  0  0  0  0  0  0  0  0  0  0
  184.6270  174.3120  136.4580 N   0  0  0  0  0  0  0  0  0  0  0  0
  186.1160  177.5760  137.8040 C   0  0  0  0  0  0  0  0  0  0  0  0
  185.2340  172.1850  135.5770 N   0  0  0  0  0  2  0  0  0  0  0  0
  184.8070  175.6680  136.9120 C   0  0  0  0  0  2  0  0  0  0  0  0
  187.3200  175.6780  137.2400 C   0  0  0  0  0  0  0  0  0  0  0  0
  187.3760  177.7770  138.1580 C   0  0  0  0  0  2  0  0  0  0  0  0
  185.9760  176.2510  137.2180 C   0  0  0  0  0  0  0  0  0  0  0  0
  187.3450  172.5570  134.9790 C   0  0  0  0  0  3  0  0  0  0  0  0
  188.5610  173.6480  137.2180 O   0  0  0  0  0  0  0  0  0  0  0  0
  185.0180  178.5570  138.0280 C   0  0  0  0  0  1  0  0  0  0  0  0
  188.1430  176.5770  137.7970 C   0  0  0  0  0  0  0  0  0  0  0  0
  185.5080  173.5320  135.9060 C   0  0  0  0  0  0  0  0  0  0  0  0
  190.3240  176.4210  144.4360 O   0  0  0  0  0  0  0  0  0  0  0  0
  190.9390  176.7530  145.6430 C   0  0  0  0  0  1  0  0  0  0  0  0
  188.0980  176.7730  142.8290 C   0  0  0  0  0  2  0  0  0  0  0  0
  186.9590  177.6870  143.2450 C   0  0  0  0  0  2  0  0  0  0  0  0
  186.6650  177.5190  144.7270 C   0  0  0  0  0  2  0  0  0  0  0  0
  184.8680  179.3780  144.2100 C   0  0  0  0  0  1  0  0  0  0  0  0
  186.0550  179.2990  146.4910 C   0  0  0  0  0  2  0  0  0  0  0  0
  185.7020  178.5920  145.2030 C   0  0  0  0  0  0  0  0  0  0  0  0
  184.9650  178.2330  146.4700 C   0  0  0  0  0  2  0  0  0  0  0  0
  1  9  2  0  0  0  0
  3  7  1  0  0  0  0
  4 12  1  0  0  0  0
  5  2  1  6  0  0  0
  5  6  1  0  0  0  0
  5  8  1  0  0  0  0
  6 10  1  6  0  0  0
  6  4  1  0  0  0  0
  7  2  1  0  0  0  0
  8 32  1  1  0  0  0
  8 12  1  0  0  0  0
  9 10  1  0  0  0  0
 11  7  1  0  0  0  0
 11  9  1  0  0  0  0
 12 30  1  6  0  0  0
 13 14  1  0  0  0  0
 13  3  2  0  0  0  0
 14 11  2  0  0  0  0
 15 25  1  1  0  0  0
 15 29  1  0  0  0  0
 15 16  1  0  0  0  0
 16 26  2  0  0  0  0
 16 22  1  0  0  0  0
 17 20  1  0  0  0  0
 18 21  1  0  0  0  0
 19 27  1  0  0  0  0
 19 23  1  0  0  0  0
 20 29  1  0  0  0  0
 21 24  1  0  0  0  0
 22 28  2  0  0  0  0
 24 22  1  0  0  0  0
 24 19  2  0  0  0  0
 25 17  2  0  0  0  0
 28  3  1  0  0  0  0
 28 23  1  0  0  0  0
 29 18  2  0  0  0  0
 30 31  1  0  0  0  0
 32 33  1  0  0  0  0
 33 34  1  0  0  0  0
 34 37  1  0  0  0  0
 35 37  1  0  0  0  0
 37 38  1  0  0  0  0
 37 36  1  0  0  0  0
 38 36  1  0  0  0  0
M  END
>  <MODEL>
7

>  <REMARK>
 VINA RESULT:      -9.1      3.489      7.021
  Name = 
  6 active torsions:
  status: ('A' for Active; 'I' for Inactive)
    1  A    between atoms: C_5  and  C_35
    2  A    between atoms: O_7  and  C_30
    3  A    between atoms: C_16  and  C_19
    4  A    between atoms: C_16  and  C_23
    5  A    between atoms: C_23  and  C_34
    6  A    between atoms: C_25  and  C_34
                            x       y       z     vdW  Elec       q    Type
                         _______ _______ _______ _____ _____    ______ ____

>  <TORSDO>
F 6

$$$$
=
 OpenBabel11042410353D

 38 44  0  0  1  0  0  0  0  0999 V2000
  184.9100  176.6430  136.1620 O   0  0  0  0  0  0  0  0  0  0  0  0
  182.7510  176.2040  139.8710 C   0  0  0  0  0  2  0  0  0  0  0  0
  183.9600  178.3710  140.2280 C   0  0  0  0  0  0  0  0  0  0  0  0
  181.1920  174.3470  137.3010 O   0  0  0  0  0  0  0  0  0  0  0  0
  181.5950  176.1210  138.8770 C   0  0  1  0  0  3  0  0  0  0  0  0
  181.9610  175.5090  137.5150 C   0  0  1  0  0  3  0  0  0  0  0  0
  183.6650  177.2770  139.4980 N   0  0  0  0  0  0  0  0  0  0  0  0
  180.5480  175.1980  139.4080 C   0  0  2  0  0  3  0  0  0  0  0  0
  184.2690  176.4250  137.2240 C   0  0  0  0  0  0  0  0  0  0  0  0
  183.4450  175.1820  137.3280 C   0  0  0  0  0  2  0  0  0  0  0  0
  184.3490  177.3860  138.3420 C   0  0  0  0  0  0  0  0  0  0  0  0
  180.0980  174.4220  138.1800 C   0  0  1  0  0  3  0  0  0  0  0  0
  184.8550  179.1760  139.5420 C   0  0  0  0  0  3  0  0  0  0  0  0
  185.0990  178.5490  138.3280 C   0  0  0  0  0  3  0  0  0  0  0  0
  185.9430  177.5300  144.1570 C   0  0  1  0  0  3  0  0  0  0  0  0
  185.5510  178.2860  142.9290 C   0  0  0  0  0  0  0  0  0  0  0  0
  187.9650  177.7790  145.2820 N   0  0  0  0  0  0  0  0  0  0  0  0
  184.7140  178.9660  145.7810 N   0  0  0  0  0  0  0  0  0  0  0  0
  181.8880  178.9840  143.1950 C   0  0  0  0  0  0  0  0  0  0  0  0
  187.0350  178.4960  146.0370 N   0  0  0  0  0  2  0  0  0  0  0  0
  183.4240  179.0030  145.1410 C   0  0  0  0  0  3  0  0  0  0  0  0
  184.1250  178.5780  142.7430 C   0  0  0  0  0  0  0  0  0  0  0  0
  182.0260  178.8990  141.8810 C   0  0  0  0  0  3  0  0  0  0  0  0
  183.1820  178.8060  143.8360 C   0  0  0  0  0  0  0  0  0  0  0  0
  187.4160  177.2420  144.2380 C   0  0  0  0  0  3  0  0  0  0  0  0
  186.4130  178.6960  142.1030 O   0  0  0  0  0  0  0  0  0  0  0  0
  180.5980  179.2680  143.8830 C   0  0  0  0  0  1  0  0  0  0  0  0
  183.4430  178.6360  141.5920 C   0  0  0  0  0  0  0  0  0  0  0  0
  185.7990  178.3920  145.3560 C   0  0  0  0  0  0  0  0  0  0  0  0
  179.0240  175.0500  137.5340 O   0  0  0  0  0  0  0  0  0  0  0  0
  178.9330  174.4120  136.2960 C   0  0  0  0  0  1  0  0  0  0  0  0
  179.4340  175.9700  140.1110 C   0  0  0  0  0  2  0  0  0  0  0  0
  179.1490  177.2800  139.3970 C   0  0  0  0  0  2  0  0  0  0  0  0
  179.0650  178.4180  140.4020 C   0  0  0  0  0  2  0  0  0  0  0  0
  179.2870  181.0430  140.5070 C   0  0  0  0  0  1  0  0  0  0  0  0
  179.1300  179.8300  138.2440 C   0  0  0  0  0  2  0  0  0  0  0  0
  179.3800  179.7430  139.7320 C   0  0  0  0  0  0  0  0  0  0  0  0
  180.5500  179.6840  138.7800 C   0  0  0  0  0  2  0  0  0  0  0  0
  1  9  2  0  0  0  0
  3 28  1  0  0  0  0
  4  6  1  0  0  0  0
  4 12  1  0  0  0  0
  5  8  1  0  0  0  0
  5  2  1  1  0  0  0
  6 10  1  1  0  0  0
  6  5  1  0  0  0  0
  7  2  1  0  0  0  0
  7  3  1  0  0  0  0
  8 32  1  6  0  0  0
  9 10  1  0  0  0  0
  9 11  1  0  0  0  0
 11  7  1  0  0  0  0
 12 30  1  6  0  0  0
 12  8  1  0  0  0  0
 13  3  2  0  0  0  0
 14 11  2  0  0  0  0
 14 13  1  0  0  0  0
 15 25  1  6  0  0  0
 15 29  1  0  0  0  0
 16 15  1  0  0  0  0
 17 20  1  0  0  0  0
 19 24  1  0  0  0  0
 19 27  1  0  0  0  0
 21 18  1  0  0  0  0
 22 16  1  0  0  0  0
 22 24  1  0  0  0  0
 23 19  2  0  0  0  0
 24 21  2  0  0  0  0
 25 17  2  0  0  0  0
 26 16  2  0  0  0  0
 28 23  1  0  0  0  0
 28 22  2  0  0  0  0
 29 18  2  0  0  0  0
 29 20  1  0  0  0  0
 31 30  1  0  0  0  0
 33 32  1  0  0  0  0
 33 34  1  0  0  0  0
 36 38  1  0  0  0  0
 36 37  1  0  0  0  0
 37 34  1  0  0  0  0
 37 35  1  0  0  0  0
 38 37  1  0  0  0  0
M  END
>  <MODEL>
8

>  <REMARK>
 VINA RESULT:      -8.9      3.033      8.737
  Name = 
  6 active torsions:
  status: ('A' for Active; 'I' for Inactive)
    1  A    between atoms: C_5  and  C_35
    2  A    between atoms: O_7  and  C_30
    3  A    between atoms: C_16  and  C_19
    4  A    between atoms: C_16  and  C_23
    5  A    between atoms: C_23  and  C_34
    6  A    between atoms: C_25  and  C_34
                            x       y       z     vdW  Elec       q    Type
                         _______ _______ _______ _____ _____    ______ ____

>  <TORSDO>
F 6

$$$$
=
 OpenBabel11042410353D

 38 44  0  0  1  0  0  0  0  0999 V2000
  192.1120  176.2840  137.3590 O   0  0  0  0  0  0  0  0  0  0  0  0
  188.7270  177.8420  139.5330 C   0  0  0  0  0  2  0  0  0  0  0  0
  187.6310  176.8500  137.5070 C   0  0  0  0  0  0  0  0  0  0  0  0
  191.4430  177.2640  141.7170 O   0  0  0  0  0  0  0  0  0  0  0  0
  189.3360  176.9370  140.6000 C   0  0  1  0  0  3  0  0  0  0  0  0
  190.8640  176.7890  140.5220 C   0  0  1  0  0  3  0  0  0  0  0  0
  188.7170  177.1680  138.2400 N   0  0  0  0  0  0  0  0  0  0  0  0
  189.1080  177.5360  141.9490 C   0  0  2  0  0  3  0  0  0  0  0  0
  191.1830  176.7910  138.0420 C   0  0  0  0  0  0  0  0  0  0  0  0
  191.5230  177.4800  139.3250 C   0  0  0  0  0  2  0  0  0  0  0  0
  189.7890  176.7070  137.5650 C   0  0  0  0  0  0  0  0  0  0  0  0
  190.4180  177.2840  142.6790 C   0  0  1  0  0  3  0  0  0  0  0  0
  188.0120  176.1990  136.3450 C   0  0  0  0  0  3  0  0  0  0  0  0
  189.3960  176.1000  136.3850 C   0  0  0  0  0  3  0  0  0  0  0  0
  183.8470  174.7220  136.3970 C   0  0  1  0  0  3  0  0  0  0  0  0
  185.0610  175.0810  137.1920 C   0  0  0  0  0  0  0  0  0  0  0  0
  182.8890  172.6020  136.3190 N   0  0  0  0  0  0  0  0  0  0  0  0
  182.1700  175.5610  138.0380 N   0  0  0  0  0  0  0  0  0  0  0  0
  184.5290  178.5450  138.4950 C   0  0  0  0  0  0  0  0  0  0  0  0
  182.0840  173.3370  137.1910 N   0  0  0  0  0  2  0  0  0  0  0  0
  182.7090  176.8750  138.2820 C   0  0  0  0  0  2  0  0  0  0  0  0
  185.1420  176.4500  137.7150 C   0  0  0  0  0  0  0  0  0  0  0  0
  185.8470  178.5300  138.3710 C   0  0  0  0  0  2  0  0  0  0  0  0
  183.9860  177.2500  138.1120 C   0  0  0  0  0  0  0  0  0  0  0  0
  183.8730  173.3150  135.8680 C   0  0  0  0  0  3  0  0  0  0  0  0
  185.9610  174.2330  137.4420 O   0  0  0  0  0  0  0  0  0  0  0  0
  183.7510  179.7100  138.9990 C   0  0  0  0  0  1  0  0  0  0  0  0
  186.2380  177.2040  137.8720 C   0  0  0  0  0  0  0  0  0  0  0  0
  182.6630  174.6240  137.2860 C   0  0  0  0  0  0  0  0  0  0  0  0
  190.4040  176.0640  143.3680 O   0  0  0  0  0  0  0  0  0  0  0  0
  191.2430  176.2660  144.4640 C   0  0  0  0  0  1  0  0  0  0  0  0
  187.8820  176.9270  142.6250 C   0  0  0  0  0  2  0  0  0  0  0  0
  187.0050  178.0090  143.2310 C   0  0  0  0  0  2  0  0  0  0  0  0
  186.4470  177.5450  144.5680 C   0  0  0  0  0  2  0  0  0  0  0  0
  184.6230  179.4280  144.2940 C   0  0  0  0  0  1  0  0  0  0  0  0
  186.0530  179.2860  146.4280 C   0  0  0  0  0  2  0  0  0  0  0  0
  185.5540  178.6130  145.1710 C   0  0  0  0  0  0  0  0  0  0  0  0
  184.9560  178.2290  146.5030 C   0  0  0  0  0  2  0  0  0  0  0  0
  1  9  2  0  0  0  0
  3 28  1  0  0  0  0
  3  7  1  0  0  0  0
  4 12  1  0  0  0  0
  5  2  1  6  0  0  0
  5  8  1  0  0  0  0
  6 10  1  6  0  0  0
  6  5  1  0  0  0  0
  6  4  1  0  0  0  0
  7  2  1  0  0  0  0
  8 32  1  1  0  0  0
  8 12  1  0  0  0  0
  9 10  1  0  0  0  0
 11  9  1  0  0  0  0
 11  7  1  0  0  0  0
 12 30  1  6  0  0  0
 13 14  1  0  0  0  0
 13  3  2  0  0  0  0
 14 11  2  0  0  0  0
 15 25  1  1  0  0  0
 15 16  1  0  0  0  0
 15 29  1  0  0  0  0
 16 26  2  0  0  0  0
 16 22  1  0  0  0  0
 17 20  1  0  0  0  0
 18 21  1  0  0  0  0
 19 27  1  0  0  0  0
 20 29  1  0  0  0  0
 22 28  2  0  0  0  0
 22 24  1  0  0  0  0
 23 19  1  0  0  0  0
 24 21  1  0  0  0  0
 24 19  2  0  0  0  0
 25 17  2  0  0  0  0
 28 23  1  0  0  0  0
 29 18  2  0  0  0  0
 30 31  1  0  0  0  0
 32 33  1  0  0  0  0
 33 34  1  0  0  0  0
 34 37  1  0  0  0  0
 35 37  1  0  0  0  0
 36 38  1  0  0  0  0
 37 36  1  0  0  0  0
 37 38  1  0  0  0  0
M  END
>  <MODEL>
9

>  <REMARK>
 VINA RESULT:      -8.8      2.913      6.239
  Name = 
  6 active torsions:
  status: ('A' for Active; 'I' for Inactive)
    1  A    between atoms: C_5  and  C_35
    2  A    between atoms: O_7  and  C_30
    3  A    between atoms: C_16  and  C_19
    4  A    between atoms: C_16  and  C_23
    5  A    between atoms: C_23  and  C_34
    6  A    between atoms: C_25  and  C_34
                            x       y       z     vdW  Elec       q    Type
                         _______ _______ _______ _____ _____    ______ ____

>  <TORSDO>
F 6

$$$$
