=
 OpenBabel11042410343D

 38 43  0  0  1  0  0  0  0  0999 V2000
  186.8500  178.1710  144.0870 C   0  0  0  0  0  0  0  0  0  0  0  0
  185.0470  178.2700  146.2800 C   0  0  0  0  0  3  0  0  0  0  0  0
  189.9120  177.7000  146.2010 C   0  0  0  0  0  2  0  0  0  0  0  0
  186.4030  178.0650  146.5450 C   0  0  0  0  0  0  0  0  0  0  0  0
  187.3070  178.0540  145.4080 C   0  0  0  0  0  0  0  0  0  0  0  0
  184.5870  178.4740  144.9780 C   0  0  0  0  0  0  0  0  0  0  0  0
  188.5790  177.8780  145.8460 C   0  0  0  0  0  0  0  0  0  0  0  0
  188.1870  177.6500  148.3120 N   0  0  0  0  0  0  0  0  0  0  0  0
  185.4810  178.3770  143.8830 C   0  0  0  0  0  3  0  0  0  0  0  0
  186.8550  177.8480  147.9350 C   0  0  0  0  0  3  0  0  0  0  0  0
  188.9660  177.6980  147.2180 C   0  0  0  0  0  0  0  0  0  0  0  0
  181.8520  178.8670  142.5300 C   0  0  0  0  0  0  0  0  0  0  0  0
  182.0910  177.9760  141.3880 C   0  0  0  0  0  3  0  0  0  0  0  0
  179.2090  178.9010  139.2320 O   0  0  0  0  0  1  0  0  0  0  0  0
  180.8560  179.9800  142.4320 C   0  0  2  0  0  3  0  0  0  0  0  0
  183.1440  178.6280  144.7930 C   0  0  0  0  0  3  0  0  0  0  0  0
  182.5410  178.7250  143.6350 C   0  0  0  0  0  0  0  0  0  0  0  0
  180.1120  180.0850  143.5940 F   0  0  0  0  0  0  0  0  0  0  0  0
  180.1210  178.9380  140.2790 C   0  0  0  0  0  0  0  0  0  0  0  0
  181.2940  178.0020  140.3130 C   0  0  0  0  0  0  0  0  0  0  0  0
  179.9150  179.8200  141.2630 C   0  0  0  0  0  3  0  0  0  0  0  0
  181.5850  177.1110  139.2660 O   0  0  0  0  0  0  0  0  0  0  0  0
  182.4670  176.0030  139.3830 C   0  0  0  0  0  1  0  0  0  0  0  0
  187.5280  178.3080  141.6390 C   0  0  0  0  0  0  0  0  0  0  0  0
  188.3660  177.8750  140.6040 C   0  0  0  0  0  3  0  0  0  0  0  0
  187.7230  177.8120  142.9430 C   0  0  0  0  0  0  0  0  0  0  0  0
  189.5790  176.4600  142.1390 C   0  0  0  0  0  3  0  0  0  0  0  0
  188.7570  176.8990  143.1780 C   0  0  0  0  0  3  0  0  0  0  0  0
  189.3980  176.9500  140.8490 C   0  0  0  0  0  0  0  0  0  0  0  0
  186.4580  179.3080  141.3450 C   0  0  0  0  0  1  0  0  0  0  0  0
  190.1700  176.3770  139.7880 N   0  0  0  0  0  2  0  0  0  0  0  0
  192.2160  177.5030  140.0720 O   0  0  0  0  0  0  0  0  0  0  0  0
  191.4780  176.7840  139.3450 C   0  0  0  0  0  0  0  0  0  0  0  0
  192.4440  174.0660  137.0620 C   0  0  0  0  0  2  0  0  0  0  0  0
  193.7450  174.8510  137.1590 C   0  0  0  0  0  2  0  0  0  0  0  0
  191.3510  174.9750  137.5940 C   0  0  0  0  0  2  0  0  0  0  0  0
  192.0370  176.2610  138.0540 C   0  0  0  0  0  3  0  0  0  0  0  0
  193.4950  175.9120  138.2120 C   0  0  0  0  0  2  0  0  0  0  0  0
  1  5  1  0  0  0  0
  2  4  1  0  0  0  0
  3 11  1  0  0  0  0
  4 10  1  0  0  0  0
  5  7  1  0  0  0  0
  5  4  2  0  0  0  0
  6  2  2  0  0  0  0
  7  3  1  0  0  0  0
  7 11  2  0  0  0  0
  9  1  2  0  0  0  0
  9  6  1  0  0  0  0
 10  8  2  0  0  0  0
 11  8  1  0  0  0  0
 12 17  2  0  0  0  0
 13 12  1  0  0  0  0
 14 19  1  0  0  0  0
 15 12  1  0  0  0  0
 15 18  1  1  0  0  0
 16  6  1  0  0  0  0
 17 16  2  0  0  0  0
 19 20  1  0  0  0  0
 19 21  2  0  0  0  0
 20 13  2  0  0  0  0
 21 15  1  0  0  0  0
 22 23  1  0  0  0  0
 22 20  1  0  0  0  0
 24 26  1  0  0  0  0
 25 29  1  0  0  0  0
 25 24  2  0  0  0  0
 26 28  2  0  0  0  0
 26  1  1  0  0  0  0
 27 28  1  0  0  0  0
 29 27  2  0  0  0  0
 30 24  1  0  0  0  0
 31 29  1  0  0  0  0
 33 31  1  0  0  0  0
 33 32  2  0  0  0  0
 34 35  1  0  0  0  0
 34 36  1  0  0  0  0
 35 38  1  0  0  0  0
 36 37  1  0  0  0  0
 37 38  1  0  0  0  0
 37 33  1  0  0  0  0
M  END
>  <MODEL>
1

>  <REMARK>
 VINA RESULT:     -10.3      0.000      0.000
  Name = 
  5 active torsions:
  status: ('A' for Active; 'I' for Inactive)
    1  A    between atoms: N_2  and  C_35
    2  A    between atoms: C_3  and  C_14
    3  A    between atoms: O_12  and  C_30
    4  A    between atoms: C_17  and  C_23
    5  A    between atoms: C_19  and  C_25
                            x       y       z     vdW  Elec       q    Type
                         _______ _______ _______ _____ _____    ______ ____

>  <TORSDO>
F 5

$$$$
=
 OpenBabel11042410343D

 38 43  0  0  1  0  0  0  0  0999 V2000
  183.1330  178.2920  141.4760 C   0  0  0  0  0  0  0  0  0  0  0  0
  182.1300  179.4210  143.8820 C   0  0  0  0  0  3  0  0  0  0  0  0
  179.8820  178.5320  139.6220 C   0  0  0  0  0  2  0  0  0  0  0  0
  181.2640  179.3070  142.7920 C   0  0  0  0  0  0  0  0  0  0  0  0
  181.7940  178.6940  141.5860 C   0  0  0  0  0  0  0  0  0  0  0  0
  183.4420  178.9460  143.8170 C   0  0  0  0  0  0  0  0  0  0  0  0
  180.8170  178.6340  140.6450 C   0  0  0  0  0  0  0  0  0  0  0  0
  178.9340  179.7470  141.8710 N   0  0  0  0  0  0  0  0  0  0  0  0
  183.9520  178.4280  142.6020 C   0  0  0  0  0  3  0  0  0  0  0  0
  179.8840  179.8240  142.8930 C   0  0  0  0  0  3  0  0  0  0  0  0
  179.4780  179.1310  140.8090 C   0  0  0  0  0  0  0  0  0  0  0  0
  186.5810  178.0100  145.5180 C   0  0  0  0  0  0  0  0  0  0  0  0
  187.6590  177.9120  144.5260 C   0  0  0  0  0  3  0  0  0  0  0  0
  190.4500  176.8000  146.7150 O   0  0  0  0  0  1  0  0  0  0  0  0
  186.7490  177.4270  146.8870 C   0  0  2  0  0  3  0  0  0  0  0  0
  184.2890  179.1570  144.9910 C   0  0  0  0  0  3  0  0  0  0  0  0
  185.4410  178.5710  145.2020 C   0  0  0  0  0  0  0  0  0  0  0  0
  186.2330  178.2710  147.8530 F   0  0  0  0  0  0  0  0  0  0  0  0
  189.1640  177.1270  146.3030 C   0  0  0  0  0  0  0  0  0  0  0  0
  188.8800  177.4870  144.8740 C   0  0  0  0  0  0  0  0  0  0  0  0
  188.1900  177.1270  147.2200 C   0  0  0  0  0  3  0  0  0  0  0  0
  189.8600  177.4290  143.8670 O   0  0  0  0  0  0  0  0  0  0  0  0
  190.1300  176.2760  143.0820 C   0  0  0  0  0  1  0  0  0  0  0  0
  183.4050  176.8640  139.3890 C   0  0  0  0  0  0  0  0  0  0  0  0
  184.0620  176.6350  138.1730 C   0  0  0  0  0  3  0  0  0  0  0  0
  183.7360  178.0000  140.1530 C   0  0  0  0  0  0  0  0  0  0  0  0
  185.3750  178.6400  138.4720 C   0  0  0  0  0  3  0  0  0  0  0  0
  184.7130  178.8820  139.6770 C   0  0  0  0  0  3  0  0  0  0  0  0
  185.0500  177.5230  137.7070 C   0  0  0  0  0  0  0  0  0  0  0  0
  182.3470  175.9110  139.8390 C   0  0  0  0  0  1  0  0  0  0  0  0
  185.8410  177.2370  136.5490 N   0  0  0  0  0  2  0  0  0  0  0  0
  186.8680  175.2240  137.2000 O   0  0  0  0  0  0  0  0  0  0  0  0
  186.8280  176.2000  136.4020 C   0  0  0  0  0  0  0  0  0  0  0  0
  189.8430  175.0840  134.6150 C   0  0  0  0  0  2  0  0  0  0  0  0
  190.0250  176.5950  134.5940 C   0  0  0  0  0  2  0  0  0  0  0  0
  188.3910  174.8300  134.9760 C   0  0  0  0  0  2  0  0  0  0  0  0
  187.7560  176.1980  135.2230 C   0  0  0  0  0  3  0  0  0  0  0  0
  188.9050  177.1460  135.4520 C   0  0  0  0  0  2  0  0  0  0  0  0
  1  5  2  0  0  0  0
  1  9  1  0  0  0  0
  3  7  1  0  0  0  0
  3 11  1  0  0  0  0
  4 10  1  0  0  0  0
  4  2  2  0  0  0  0
  5  4  1  0  0  0  0
  6  2  1  0  0  0  0
  6 16  1  0  0  0  0
  7 11  2  0  0  0  0
  7  5  1  0  0  0  0
  8 10  2  0  0  0  0
  9  6  2  0  0  0  0
 11  8  1  0  0  0  0
 12 15  1  0  0  0  0
 13 20  2  0  0  0  0
 13 12  1  0  0  0  0
 15 21  1  0  0  0  0
 15 18  1  1  0  0  0
 16 17  2  0  0  0  0
 17 12  2  0  0  0  0
 19 14  1  0  0  0  0
 19 21  2  0  0  0  0
 20 19  1  0  0  0  0
 22 20  1  0  0  0  0
 23 22  1  0  0  0  0
 24 30  1  0  0  0  0
 24 26  1  0  0  0  0
 25 24  2  0  0  0  0
 26  1  1  0  0  0  0
 27 28  1  0  0  0  0
 28 26  2  0  0  0  0
 29 25  1  0  0  0  0
 29 27  2  0  0  0  0
 31 29  1  0  0  0  0
 33 31  1  0  0  0  0
 33 32  2  0  0  0  0
 34 36  1  0  0  0  0
 35 34  1  0  0  0  0
 35 38  1  0  0  0  0
 36 37  1  0  0  0  0
 37 38  1  0  0  0  0
 37 33  1  0  0  0  0
M  END
>  <MODEL>
2

>  <REMARK>
 VINA RESULT:     -10.3      3.669      7.228
  Name = 
  5 active torsions:
  status: ('A' for Active; 'I' for Inactive)
    1  A    between atoms: N_2  and  C_35
    2  A    between atoms: C_3  and  C_14
    3  A    between atoms: O_12  and  C_30
    4  A    between atoms: C_17  and  C_23
    5  A    between atoms: C_19  and  C_25
                            x       y       z     vdW  Elec       q    Type
                         _______ _______ _______ _____ _____    ______ ____

>  <TORSDO>
F 5

$$$$
=
 OpenBabel11042410343D

 38 43  0  0  1  0  0  0  0  0999 V2000
  188.2830  177.8910  143.4850 C   0  0  0  0  0  0  0  0  0  0  0  0
  186.7950  177.5480  145.8810 C   0  0  0  0  0  3  0  0  0  0  0  0
  191.6320  177.4590  145.1150 C   0  0  0  0  0  2  0  0  0  0  0  0
  188.1870  177.4420  145.9430 C   0  0  0  0  0  0  0  0  0  0  0  0
  188.9240  177.6570  144.7100 C   0  0  0  0  0  0  0  0  0  0  0  0
  186.1470  177.8660  144.6850 C   0  0  0  0  0  0  0  0  0  0  0  0
  190.2540  177.5510  144.9570 C   0  0  0  0  0  0  0  0  0  0  0  0
  190.2220  176.9860  147.4000 N   0  0  0  0  0  0  0  0  0  0  0  0
  186.8870  177.9890  143.4840 C   0  0  0  0  0  3  0  0  0  0  0  0
  188.8400  177.1010  147.2230 C   0  0  0  0  0  3  0  0  0  0  0  0
  190.8380  177.2420  146.2340 C   0  0  0  0  0  0  0  0  0  0  0  0
  183.0880  178.5760  142.7440 C   0  0  0  0  0  0  0  0  0  0  0  0
  183.2410  178.0420  141.3850 C   0  0  0  0  0  3  0  0  0  0  0  0
  180.0340  179.1720  139.8840 O   0  0  0  0  0  1  0  0  0  0  0  0
  182.0050  179.5600  143.0600 C   0  0  2  0  0  3  0  0  0  0  0  0
  184.6840  177.9020  144.7060 C   0  0  0  0  0  3  0  0  0  0  0  0
  183.9260  178.2290  143.6900 C   0  0  0  0  0  0  0  0  0  0  0  0
  181.4170  179.2780  144.2790 F   0  0  0  0  0  0  0  0  0  0  0  0
  181.0720  179.0360  140.7970 C   0  0  0  0  0  0  0  0  0  0  0  0
  182.3080  178.2580  140.4500 C   0  0  0  0  0  0  0  0  0  0  0  0
  180.9320  179.6060  141.9990 C   0  0  0  0  0  3  0  0  0  0  0  0
  182.5250  177.7060  139.1760 O   0  0  0  0  0  0  0  0  0  0  0  0
  183.3810  178.2760  138.1940 C   0  0  0  0  0  1  0  0  0  0  0  0
  188.4530  178.0890  140.9550 C   0  0  0  0  0  0  0  0  0  0  0  0
  189.1960  177.8830  139.7850 C   0  0  0  0  0  3  0  0  0  0  0  0
  189.0160  177.7590  142.2030 C   0  0  0  0  0  0  0  0  0  0  0  0
  191.0440  177.0190  141.0790 C   0  0  0  0  0  3  0  0  0  0  0  0
  190.3130  177.2370  142.2490 C   0  0  0  0  0  3  0  0  0  0  0  0
  190.4970  177.3480  139.8420 C   0  0  0  0  0  0  0  0  0  0  0  0
  187.0840  178.6780  140.8560 C   0  0  0  0  0  1  0  0  0  0  0  0
  191.2200  176.9880  138.6590 N   0  0  0  0  0  2  0  0  0  0  0  0
  190.2650  174.8930  138.1770 O   0  0  0  0  0  0  0  0  0  0  0  0
  191.1910  175.7240  137.9720 C   0  0  0  0  0  0  0  0  0  0  0  0
  194.1220  173.9240  136.6650 C   0  0  0  0  0  2  0  0  0  0  0  0
  194.5530  175.3720  136.4790 C   0  0  0  0  0  2  0  0  0  0  0  0
  192.6220  173.9470  136.8980 C   0  0  0  0  0  2  0  0  0  0  0  0
  192.2040  175.4170  136.9070 C   0  0  0  0  0  3  0  0  0  0  0  0
  193.4700  176.2010  137.1400 C   0  0  0  0  0  2  0  0  0  0  0  0
  1  5  1  0  0  0  0
  2  4  1  0  0  0  0
  3 11  1  0  0  0  0
  4 10  1  0  0  0  0
  5  7  1  0  0  0  0
  5  4  2  0  0  0  0
  6 16  1  0  0  0  0
  6  2  2  0  0  0  0
  7  3  1  0  0  0  0
  7 11  2  0  0  0  0
  9  1  2  0  0  0  0
  9  6  1  0  0  0  0
 10  8  2  0  0  0  0
 11  8  1  0  0  0  0
 12 15  1  0  0  0  0
 12 17  2  0  0  0  0
 13 12  1  0  0  0  0
 14 19  1  0  0  0  0
 15 18  1  1  0  0  0
 17 16  2  0  0  0  0
 19 21  2  0  0  0  0
 20 19  1  0  0  0  0
 20 13  2  0  0  0  0
 21 15  1  0  0  0  0
 22 20  1  0  0  0  0
 23 22  1  0  0  0  0
 24 26  1  0  0  0  0
 25 29  1  0  0  0  0
 25 24  2  0  0  0  0
 26 28  2  0  0  0  0
 26  1  1  0  0  0  0
 27 28  1  0  0  0  0
 29 27  2  0  0  0  0
 30 24  1  0  0  0  0
 31 29  1  0  0  0  0
 33 32  2  0  0  0  0
 33 31  1  0  0  0  0
 34 36  1  0  0  0  0
 35 34  1  0  0  0  0
 35 38  1  0  0  0  0
 36 37  1  0  0  0  0
 37 38  1  0  0  0  0
 37 33  1  0  0  0  0
M  END
>  <MODEL>
3

>  <REMARK>
 VINA RESULT:      -9.7      1.365      1.735
  Name = 
  5 active torsions:
  status: ('A' for Active; 'I' for Inactive)
    1  A    between atoms: N_2  and  C_35
    2  A    between atoms: C_3  and  C_14
    3  A    between atoms: O_12  and  C_30
    4  A    between atoms: C_17  and  C_23
    5  A    between atoms: C_19  and  C_25
                            x       y       z     vdW  Elec       q    Type
                         _______ _______ _______ _____ _____    ______ ____

>  <TORSDO>
F 5

$$$$
=
 OpenBabel11042410343D

 38 43  0  0  1  0  0  0  0  0999 V2000
  187.6920  177.6700  143.0400 C   0  0  0  0  0  0  0  0  0  0  0  0
  190.4520  177.6150  143.7100 C   0  0  0  0  0  3  0  0  0  0  0  0
  186.4940  177.7510  146.5920 C   0  0  0  0  0  2  0  0  0  0  0  0
  189.5180  177.6840  144.7470 C   0  0  0  0  0  0  0  0  0  0  0  0
  188.1130  177.6740  144.3770 C   0  0  0  0  0  0  0  0  0  0  0  0
  190.0460  177.5230  142.3770 C   0  0  0  0  0  0  0  0  0  0  0  0
  187.3520  177.7120  145.5000 C   0  0  0  0  0  0  0  0  0  0  0  0
  189.1360  177.8420  147.2570 N   0  0  0  0  0  0  0  0  0  0  0  0
  188.6710  177.5980  142.0440 C   0  0  0  0  0  3  0  0  0  0  0  0
  189.9820  177.7850  146.1460 C   0  0  0  0  0  3  0  0  0  0  0  0
  187.8600  177.7830  146.8430 C   0  0  0  0  0  0  0  0  0  0  0  0
  190.8590  176.7920  138.8510 C   0  0  0  0  0  0  0  0  0  0  0  0
  189.7720  177.2750  137.9920 C   0  0  0  0  0  3  0  0  0  0  0  0
  191.0160  176.1420  134.6780 O   0  0  0  0  0  1  0  0  0  0  0  0
  191.8830  175.8360  138.3210 C   0  0  2  0  0  3  0  0  0  0  0  0
  191.0950  177.5100  141.3570 C   0  0  0  0  0  3  0  0  0  0  0  0
  190.9230  177.1590  140.1070 C   0  0  0  0  0  0  0  0  0  0  0  0
  193.1500  176.1690  138.7620 F   0  0  0  0  0  0  0  0  0  0  0  0
  190.9230  176.2940  136.0550 C   0  0  0  0  0  0  0  0  0  0  0  0
  189.7770  177.0400  136.6740 C   0  0  0  0  0  0  0  0  0  0  0  0
  191.8930  175.7690  136.8130 C   0  0  0  0  0  3  0  0  0  0  0  0
  188.7040  177.5440  135.9200 O   0  0  0  0  0  0  0  0  0  0  0  0
  187.3600  177.5970  136.3810 C   0  0  0  0  0  1  0  0  0  0  0  0
  185.9190  178.4890  141.4090 C   0  0  0  0  0  0  0  0  0  0  0  0
  184.5840  178.8390  141.1700 C   0  0  0  0  0  3  0  0  0  0  0  0
  186.2940  178.0100  142.6800 C   0  0  0  0  0  0  0  0  0  0  0  0
  183.9930  178.2530  143.4360 C   0  0  0  0  0  3  0  0  0  0  0  0
  185.3200  177.8880  143.6770 C   0  0  0  0  0  3  0  0  0  0  0  0
  183.6140  178.7210  142.1820 C   0  0  0  0  0  0  0  0  0  0  0  0
  186.9160  178.6080  140.3040 C   0  0  0  0  0  1  0  0  0  0  0  0
  182.2790  179.2110  142.0130 N   0  0  0  0  0  2  0  0  0  0  0  0
  181.3430  177.4990  140.6980 O   0  0  0  0  0  0  0  0  0  0  0  0
  181.2550  178.6700  141.1580 C   0  0  0  0  0  0  0  0  0  0  0  0
  179.4380  181.6180  139.9140 C   0  0  0  0  0  2  0  0  0  0  0  0
  178.9310  181.5370  141.3470 C   0  0  0  0  0  2  0  0  0  0  0  0
  180.0830  180.2780  139.6090 C   0  0  0  0  0  2  0  0  0  0  0  0
  180.0000  179.4510  140.8910 C   0  0  0  0  0  3  0  0  0  0  0  0
  179.7480  180.4400  142.0000 C   0  0  0  0  0  2  0  0  0  0  0  0
  1  5  1  0  0  0  0
  2  4  1  0  0  0  0
  3 11  1  0  0  0  0
  4 10  1  0  0  0  0
  5  4  2  0  0  0  0
  5  7  1  0  0  0  0
  6  2  2  0  0  0  0
  7  3  1  0  0  0  0
  7 11  2  0  0  0  0
  9  6  1  0  0  0  0
  9  1  2  0  0  0  0
 10  8  2  0  0  0  0
 11  8  1  0  0  0  0
 12 17  2  0  0  0  0
 13 12  1  0  0  0  0
 14 19  1  0  0  0  0
 15 18  1  6  0  0  0
 15 12  1  0  0  0  0
 16  6  1  0  0  0  0
 17 16  2  0  0  0  0
 19 20  1  0  0  0  0
 19 21  2  0  0  0  0
 20 13  2  0  0  0  0
 21 15  1  0  0  0  0
 22 23  1  0  0  0  0
 22 20  1  0  0  0  0
 24 26  1  0  0  0  0
 25 24  2  0  0  0  0
 25 29  1  0  0  0  0
 26  1  1  0  0  0  0
 26 28  2  0  0  0  0
 27 28  1  0  0  0  0
 29 27  2  0  0  0  0
 30 24  1  0  0  0  0
 31 29  1  0  0  0  0
 32 33  2  0  0  0  0
 33 31  1  0  0  0  0
 34 35  1  0  0  0  0
 35 38  1  0  0  0  0
 36 34  1  0  0  0  0
 36 37  1  0  0  0  0
 37 33  1  0  0  0  0
 37 38  1  0  0  0  0
M  END
>  <MODEL>
4

>  <REMARK>
 VINA RESULT:      -9.4      3.379      8.856
  Name = 
  5 active torsions:
  status: ('A' for Active; 'I' for Inactive)
    1  A    between atoms: N_2  and  C_35
    2  A    between atoms: C_3  and  C_14
    3  A    between atoms: O_12  and  C_30
    4  A    between atoms: C_17  and  C_23
    5  A    between atoms: C_19  and  C_25
                            x       y       z     vdW  Elec       q    Type
                         _______ _______ _______ _____ _____    ______ ____

>  <TORSDO>
F 5

$$$$
=
 OpenBabel11042410343D

 38 43  0  0  1  0  0  0  0  0999 V2000
  188.5850  176.7100  138.0800 C   0  0  0  0  0  0  0  0  0  0  0  0
  190.2480  177.6680  140.1740 C   0  0  0  0  0  3  0  0  0  0  0  0
  191.4180  175.5070  135.9370 C   0  0  0  0  0  2  0  0  0  0  0  0
  190.8530  177.0570  139.0730 C   0  0  0  0  0  0  0  0  0  0  0  0
  189.9820  176.6080  138.0010 C   0  0  0  0  0  0  0  0  0  0  0  0
  188.8650  177.8540  140.2280 C   0  0  0  0  0  0  0  0  0  0  0  0
  190.7330  176.0730  137.0050 C   0  0  0  0  0  0  0  0  0  0  0  0
  193.0260  176.2900  137.9950 N   0  0  0  0  0  0  0  0  0  0  0  0
  188.0360  177.3330  139.2050 C   0  0  0  0  0  3  0  0  0  0  0  0
  192.3190  176.8720  139.0510 C   0  0  0  0  0  3  0  0  0  0  0  0
  192.1640  175.9430  137.0250 C   0  0  0  0  0  0  0  0  0  0  0  0
  188.7810  177.7330  143.9160 C   0  0  0  0  0  0  0  0  0  0  0  0
  190.1370  177.4880  144.4250 C   0  0  0  0  0  3  0  0  0  0  0  0
  189.4340  177.2920  148.0690 O   0  0  0  0  0  1  0  0  0  0  0  0
  187.5900  177.5540  144.8050 C   0  0  2  0  0  3  0  0  0  0  0  0
  188.3170  178.4550  141.4440 C   0  0  0  0  0  3  0  0  0  0  0  0
  188.5950  178.0690  142.6640 C   0  0  0  0  0  0  0  0  0  0  0  0
  186.6680  178.5660  144.6100 F   0  0  0  0  0  0  0  0  0  0  0  0
  189.2150  177.3630  146.6990 C   0  0  0  0  0  0  0  0  0  0  0  0
  190.3610  177.2990  145.7310 C   0  0  0  0  0  0  0  0  0  0  0  0
  187.9560  177.5050  146.2680 C   0  0  0  0  0  3  0  0  0  0  0  0
  191.6880  177.0800  146.1380 O   0  0  0  0  0  0  0  0  0  0  0  0
  192.1690  175.8470  146.6570 C   0  0  0  0  0  1  0  0  0  0  0  0
  186.9940  176.5420  136.1020 C   0  0  0  0  0  0  0  0  0  0  0  0
  186.1490  175.7540  135.3100 C   0  0  0  0  0  3  0  0  0  0  0  0
  187.7120  175.9450  137.1570 C   0  0  0  0  0  0  0  0  0  0  0  0
  186.7130  173.7950  136.6040 C   0  0  0  0  0  3  0  0  0  0  0  0
  187.5690  174.5720  137.3880 C   0  0  0  0  0  3  0  0  0  0  0  0
  186.0050  174.3750  135.5560 C   0  0  0  0  0  0  0  0  0  0  0  0
  187.1370  177.9960  135.7960 C   0  0  0  0  0  1  0  0  0  0  0  0
  185.0390  173.5790  134.8630 N   0  0  0  0  0  2  0  0  0  0  0  0
  183.1630  173.8430  136.2580 O   0  0  0  0  0  0  0  0  0  0  0  0
  183.7210  173.2170  135.3160 C   0  0  0  0  0  0  0  0  0  0  0  0
  180.9310  170.8360  135.0350 C   0  0  0  0  0  2  0  0  0  0  0  0
  182.1270  169.9240  134.8030 C   0  0  0  0  0  2  0  0  0  0  0  0
  181.4340  172.2580  134.8650 C   0  0  0  0  0  2  0  0  0  0  0  0
  182.9350  172.1610  134.5950 C   0  0  0  0  0  3  0  0  0  0  0  0
  183.3450  170.7870  135.0580 C   0  0  0  0  0  2  0  0  0  0  0  0
  1  9  1  0  0  0  0
  2  6  1  0  0  0  0
  3  7  1  0  0  0  0
  3 11  1  0  0  0  0
  4  2  2  0  0  0  0
  5  1  2  0  0  0  0
  5  4  1  0  0  0  0
  6 16  1  0  0  0  0
  7 11  2  0  0  0  0
  7  5  1  0  0  0  0
  8 10  2  0  0  0  0
  9  6  2  0  0  0  0
 10  4  1  0  0  0  0
 11  8  1  0  0  0  0
 12 13  1  0  0  0  0
 12 15  1  0  0  0  0
 13 20  2  0  0  0  0
 15 18  1  1  0  0  0
 15 21  1  0  0  0  0
 16 17  2  0  0  0  0
 17 12  2  0  0  0  0
 19 14  1  0  0  0  0
 20 22  1  0  0  0  0
 20 19  1  0  0  0  0
 21 19  2  0  0  0  0
 22 23  1  0  0  0  0
 24 26  1  0  0  0  0
 25 29  1  0  0  0  0
 25 24  2  0  0  0  0
 26 28  2  0  0  0  0
 26  1  1  0  0  0  0
 27 28  1  0  0  0  0
 29 27  2  0  0  0  0
 30 24  1  0  0  0  0
 31 33  1  0  0  0  0
 31 29  1  0  0  0  0
 33 32  2  0  0  0  0
 35 34  1  0  0  0  0
 35 38  1  0  0  0  0
 36 34  1  0  0  0  0
 37 36  1  0  0  0  0
 37 38  1  0  0  0  0
 37 33  1  0  0  0  0
M  END
>  <MODEL>
5

>  <REMARK>
 VINA RESULT:      -9.4      4.466      9.179
  Name = 
  5 active torsions:
  status: ('A' for Active; 'I' for Inactive)
    1  A    between atoms: N_2  and  C_35
    2  A    between atoms: C_3  and  C_14
    3  A    between atoms: O_12  and  C_30
    4  A    between atoms: C_17  and  C_23
    5  A    between atoms: C_19  and  C_25
                            x       y       z     vdW  Elec       q    Type
                         _______ _______ _______ _____ _____    ______ ____

>  <TORSDO>
F 5

$$$$
=
 OpenBabel11042410343D

 38 43  0  0  1  0  0  0  0  0999 V2000
  189.7110  176.7020  138.3070 C   0  0  0  0  0  0  0  0  0  0  0  0
  187.3460  178.2540  138.5660 C   0  0  0  0  0  3  0  0  0  0  0  0
  189.4130  176.2680  134.5940 C   0  0  0  0  0  2  0  0  0  0  0  0
  187.7270  177.8340  137.2890 C   0  0  0  0  0  0  0  0  0  0  0  0
  188.9210  177.0120  137.1900 C   0  0  0  0  0  0  0  0  0  0  0  0
  188.0750  177.8810  139.6980 C   0  0  0  0  0  0  0  0  0  0  0  0
  189.1240  176.6680  135.8930 C   0  0  0  0  0  0  0  0  0  0  0  0
  187.2180  177.8730  134.7970 N   0  0  0  0  0  0  0  0  0  0  0  0
  189.2790  177.1480  139.5600 C   0  0  0  0  0  3  0  0  0  0  0  0
  186.9350  178.2490  136.1130 C   0  0  0  0  0  3  0  0  0  0  0  0
  188.3030  177.0810  134.7880 C   0  0  0  0  0  0  0  0  0  0  0  0
  188.3460  177.6010  143.3680 C   0  0  0  0  0  0  0  0  0  0  0  0
  189.7500  177.3780  143.7350 C   0  0  0  0  0  3  0  0  0  0  0  0
  189.4030  177.0060  147.4170 O   0  0  0  0  0  1  0  0  0  0  0  0
  187.2500  177.3490  144.3570 C   0  0  2  0  0  3  0  0  0  0  0  0
  187.6290  178.4130  140.9860 C   0  0  0  0  0  3  0  0  0  0  0  0
  188.0320  177.9840  142.1550 C   0  0  0  0  0  0  0  0  0  0  0  0
  186.2870  178.3380  144.2940 F   0  0  0  0  0  0  0  0  0  0  0  0
  189.0530  177.1280  146.0790 C   0  0  0  0  0  0  0  0  0  0  0  0
  190.1020  177.1410  145.0050 C   0  0  0  0  0  0  0  0  0  0  0  0
  187.7560  177.2490  145.7750 C   0  0  0  0  0  3  0  0  0  0  0  0
  191.4680  176.9450  145.2750 O   0  0  0  0  0  0  0  0  0  0  0  0
  192.0550  175.6790  145.5410 C   0  0  0  0  0  1  0  0  0  0  0  0
  191.3620  174.8740  137.6700 C   0  0  0  0  0  0  0  0  0  0  0  0
  192.6900  174.4340  137.5980 C   0  0  0  0  0  3  0  0  0  0  0  0
  191.0860  176.1720  138.1440 C   0  0  0  0  0  0  0  0  0  0  0  0
  193.4690  176.5470  138.4680 C   0  0  0  0  0  3  0  0  0  0  0  0
  192.1490  176.9980  138.5280 C   0  0  0  0  0  3  0  0  0  0  0  0
  193.7510  175.2690  137.9950 C   0  0  0  0  0  0  0  0  0  0  0  0
  190.2650  173.9670  137.2190 C   0  0  0  0  0  1  0  0  0  0  0  0
  195.0990  174.7940  138.0740 N   0  0  0  0  0  2  0  0  0  0  0  0
  195.9990  175.6830  136.0910 O   0  0  0  0  0  0  0  0  0  0  0  0
  196.1150  174.8820  137.0580 C   0  0  0  0  0  0  0  0  0  0  0  0
  199.0790  173.1950  135.6800 C   0  0  0  0  0  2  0  0  0  0  0  0
  198.4620  172.0800  136.5130 C   0  0  0  0  0  2  0  0  0  0  0  0
  198.4290  174.4870  136.1380 C   0  0  0  0  0  2  0  0  0  0  0  0
  197.3920  174.1040  137.1940 C   0  0  0  0  0  3  0  0  0  0  0  0
  197.1370  172.6320  137.0000 C   0  0  0  0  0  2  0  0  0  0  0  0
  1  9  1  0  0  0  0
  2  6  1  0  0  0  0
  3 11  1  0  0  0  0
  3  7  1  0  0  0  0
  4  2  2  0  0  0  0
  5  4  1  0  0  0  0
  5  1  2  0  0  0  0
  6 16  1  0  0  0  0
  7  5  1  0  0  0  0
  8 10  2  0  0  0  0
  9  6  2  0  0  0  0
 10  4  1  0  0  0  0
 11  8  1  0  0  0  0
 11  7  2  0  0  0  0
 12 13  1  0  0  0  0
 12 15  1  0  0  0  0
 13 20  2  0  0  0  0
 15 18  1  1  0  0  0
 15 21  1  0  0  0  0
 16 17  2  0  0  0  0
 17 12  2  0  0  0  0
 19 14  1  0  0  0  0
 20 22  1  0  0  0  0
 20 19  1  0  0  0  0
 21 19  2  0  0  0  0
 22 23  1  0  0  0  0
 24 26  1  0  0  0  0
 25 24  2  0  0  0  0
 25 29  1  0  0  0  0
 26  1  1  0  0  0  0
 26 28  2  0  0  0  0
 27 28  1  0  0  0  0
 29 31  1  0  0  0  0
 29 27  2  0  0  0  0
 30 24  1  0  0  0  0
 32 33  2  0  0  0  0
 33 37  1  0  0  0  0
 33 31  1  0  0  0  0
 34 36  1  0  0  0  0
 34 35  1  0  0  0  0
 35 38  1  0  0  0  0
 36 37  1  0  0  0  0
 38 37  1  0  0  0  0
M  END
>  <MODEL>
6

>  <REMARK>
 VINA RESULT:      -9.4      5.022      8.312
  Name = 
  5 active torsions:
  status: ('A' for Active; 'I' for Inactive)
    1  A    between atoms: N_2  and  C_35
    2  A    between atoms: C_3  and  C_14
    3  A    between atoms: O_12  and  C_30
    4  A    between atoms: C_17  and  C_23
    5  A    between atoms: C_19  and  C_25
                            x       y       z     vdW  Elec       q    Type
                         _______ _______ _______ _____ _____    ______ ____

>  <TORSDO>
F 5

$$$$
=
 OpenBabel11042410343D

 38 43  0  0  1  0  0  0  0  0999 V2000
  188.3340  177.8020  140.1790 C   0  0  0  0  0  0  0  0  0  0  0  0
  190.7260  176.3820  140.7540 C   0  0  0  0  0  3  0  0  0  0  0  0
  189.0530  178.1870  136.5190 C   0  0  0  0  0  2  0  0  0  0  0  0
  190.4800  176.7590  139.4320 C   0  0  0  0  0  0  0  0  0  0  0  0
  189.2670  177.5150  139.1720 C   0  0  0  0  0  0  0  0  0  0  0  0
  189.8490  176.7340  141.7820 C   0  0  0  0  0  0  0  0  0  0  0  0
  189.2040  177.8250  137.8520 C   0  0  0  0  0  0  0  0  0  0  0  0
  191.2850  176.7030  137.0190 N   0  0  0  0  0  0  0  0  0  0  0  0
  188.6340  177.4010  141.4850 C   0  0  0  0  0  3  0  0  0  0  0  0
  191.4260  176.3650  138.3680 C   0  0  0  0  0  3  0  0  0  0  0  0
  190.1710  177.4370  136.8630 C   0  0  0  0  0  0  0  0  0  0  0  0
  189.2910  177.2070  145.4000 C   0  0  0  0  0  0  0  0  0  0  0  0
  187.8740  177.5070  145.6380 C   0  0  0  0  0  3  0  0  0  0  0  0
  187.9350  178.0460  149.3150 O   0  0  0  0  0  1  0  0  0  0  0  0
  190.3130  177.4620  146.4640 C   0  0  2  0  0  3  0  0  0  0  0  0
  190.1620  176.2490  143.1260 C   0  0  0  0  0  3  0  0  0  0  0  0
  189.6850  176.7520  144.2370 C   0  0  0  0  0  0  0  0  0  0  0  0
  191.2320  176.4310  146.5280 F   0  0  0  0  0  0  0  0  0  0  0  0
  188.3870  177.8430  148.0170 C   0  0  0  0  0  0  0  0  0  0  0  0
  187.4300  177.8210  146.8610 C   0  0  0  0  0  0  0  0  0  0  0  0
  189.6980  177.6540  147.8290 C   0  0  0  0  0  3  0  0  0  0  0  0
  186.0580  178.0870  147.0060 O   0  0  0  0  0  0  0  0  0  0  0  0
  185.3310  179.0000  146.1950 C   0  0  0  0  0  1  0  0  0  0  0  0
  186.0160  178.6380  140.8120 C   0  0  0  0  0  0  0  0  0  0  0  0
  184.7240  179.0020  140.4100 C   0  0  0  0  0  3  0  0  0  0  0  0
  186.9630  178.2560  139.8410 C   0  0  0  0  0  0  0  0  0  0  0  0
  185.2990  178.6020  138.0990 C   0  0  0  0  0  3  0  0  0  0  0  0
  186.5930  178.2530  138.4920 C   0  0  0  0  0  3  0  0  0  0  0  0
  184.3600  178.9870  139.0510 C   0  0  0  0  0  0  0  0  0  0  0  0
  186.3720  178.6860  142.2610 C   0  0  0  0  0  1  0  0  0  0  0  0
  183.0100  179.2080  138.6260 N   0  0  0  0  0  2  0  0  0  0  0  0
  182.8940  181.5560  138.7180 O   0  0  0  0  0  0  0  0  0  0  0  0
  182.2890  180.4530  138.6290 C   0  0  0  0  0  0  0  0  0  0  0  0
  179.2700  179.7300  136.6540 C   0  0  0  0  0  2  0  0  0  0  0  0
  179.1220  181.2270  136.8890 C   0  0  0  0  0  2  0  0  0  0  0  0
  180.3110  179.2390  137.6440 C   0  0  0  0  0  2  0  0  0  0  0  0
  180.8040  180.4690  138.4050 C   0  0  0  0  0  3  0  0  0  0  0  0
  180.4080  181.6560  137.5640 C   0  0  0  0  0  2  0  0  0  0  0  0
  1  9  1  0  0  0  0
  2  6  1  0  0  0  0
  3 11  1  0  0  0  0
  3  7  1  0  0  0  0
  4  2  2  0  0  0  0
  5  4  1  0  0  0  0
  5  1  2  0  0  0  0
  6 16  1  0  0  0  0
  7  5  1  0  0  0  0
  8 10  2  0  0  0  0
  9  6  2  0  0  0  0
 10  4  1  0  0  0  0
 11  8  1  0  0  0  0
 11  7  2  0  0  0  0
 12 13  1  0  0  0  0
 12 15  1  0  0  0  0
 13 20  2  0  0  0  0
 15 18  1  1  0  0  0
 15 21  1  0  0  0  0
 16 17  2  0  0  0  0
 17 12  2  0  0  0  0
 19 14  1  0  0  0  0
 20 22  1  0  0  0  0
 20 19  1  0  0  0  0
 21 19  2  0  0  0  0
 23 22  1  0  0  0  0
 24 30  1  0  0  0  0
 25 24  1  0  0  0  0
 26  1  1  0  0  0  0
 26 24  2  0  0  0  0
 27 28  2  0  0  0  0
 27 29  1  0  0  0  0
 28 26  1  0  0  0  0
 29 25  2  0  0  0  0
 31 33  1  0  0  0  0
 31 29  1  0  0  0  0
 33 32  2  0  0  0  0
 34 35  1  0  0  0  0
 34 36  1  0  0  0  0
 35 38  1  0  0  0  0
 36 37  1  0  0  0  0
 37 33  1  0  0  0  0
 38 37  1  0  0  0  0
M  END
>  <MODEL>
7

>  <REMARK>
 VINA RESULT:      -9.2      3.896      9.294
  Name = 
  5 active torsions:
  status: ('A' for Active; 'I' for Inactive)
    1  A    between atoms: N_2  and  C_35
    2  A    between atoms: C_3  and  C_14
    3  A    between atoms: O_12  and  C_30
    4  A    between atoms: C_17  and  C_23
    5  A    between atoms: C_19  and  C_25
                            x       y       z     vdW  Elec       q    Type
                         _______ _______ _______ _____ _____    ______ ____

>  <TORSDO>
F 5

$$$$
=
 OpenBabel11042410343D

 38 43  0  0  1  0  0  0  0  0999 V2000
  185.1600  178.5680  141.7600 C   0  0  0  0  0  0  0  0  0  0  0  0
  183.2110  178.5180  139.6940 C   0  0  0  0  0  3  0  0  0  0  0  0
  182.6800  178.9960  144.5410 C   0  0  0  0  0  2  0  0  0  0  0  0
  182.7740  178.6380  141.0160 C   0  0  0  0  0  0  0  0  0  0  0  0
  183.7940  178.6960  142.0490 C   0  0  0  0  0  0  0  0  0  0  0  0
  184.5710  178.4760  139.3830 C   0  0  0  0  0  0  0  0  0  0  0  0
  183.1990  178.8450  143.2600 C   0  0  0  0  0  0  0  0  0  0  0  0
  180.7830  178.8090  142.5910 N   0  0  0  0  0  0  0  0  0  0  0  0
  185.5380  178.4530  140.4180 C   0  0  0  0  0  3  0  0  0  0  0  0
  181.3260  178.6750  141.3100 C   0  0  0  0  0  3  0  0  0  0  0  0
  181.7810  178.9020  143.4850 C   0  0  0  0  0  0  0  0  0  0  0  0
  187.2400  177.5190  137.0190 C   0  0  0  0  0  0  0  0  0  0  0  0
  187.9580  176.3520  137.5450 C   0  0  0  0  0  3  0  0  0  0  0  0
  190.5600  175.9590  134.9200 O   0  0  0  0  0  1  0  0  0  0  0  0
  187.8220  178.3360  135.9070 C   0  0  2  0  0  3  0  0  0  0  0  0
  184.9310  178.2970  137.9770 C   0  0  0  0  0  3  0  0  0  0  0  0
  186.0980  177.8860  137.5460 C   0  0  0  0  0  0  0  0  0  0  0  0
  186.8500  178.6920  134.9910 F   0  0  0  0  0  0  0  0  0  0  0  0
  189.5160  176.5110  135.6510 C   0  0  0  0  0  0  0  0  0  0  0  0
  189.0400  175.8690  136.9220 C   0  0  0  0  0  0  0  0  0  0  0  0
  188.9370  177.6230  135.1830 C   0  0  0  0  0  3  0  0  0  0  0  0
  189.6660  174.7440  137.4840 O   0  0  0  0  0  0  0  0  0  0  0  0
  189.4850  173.4130  137.0190 C   0  0  0  0  0  1  0  0  0  0  0  0
  187.4890  177.9530  142.5790 C   0  0  0  0  0  0  0  0  0  0  0  0
  188.3370  177.6420  143.6490 C   0  0  0  0  0  3  0  0  0  0  0  0
  186.1420  178.2810  142.8330 C   0  0  0  0  0  0  0  0  0  0  0  0
  186.5300  177.9700  145.2160 C   0  0  0  0  0  3  0  0  0  0  0  0
  185.6820  178.2960  144.1550 C   0  0  0  0  0  3  0  0  0  0  0  0
  187.8620  177.6510  144.9740 C   0  0  0  0  0  0  0  0  0  0  0  0
  188.0340  177.9540  141.1880 C   0  0  0  0  0  1  0  0  0  0  0  0
  188.6630  177.1940  146.0690 N   0  0  0  0  0  2  0  0  0  0  0  0
  190.8090  177.8300  145.3440 O   0  0  0  0  0  0  0  0  0  0  0  0
  190.1000  177.1560  146.1410 C   0  0  0  0  0  0  0  0  0  0  0  0
  192.6670  176.7970  148.7520 C   0  0  0  0  0  2  0  0  0  0  0  0
  192.9060  175.5420  147.9240 C   0  0  0  0  0  2  0  0  0  0  0  0
  191.3020  177.3250  148.3510 C   0  0  0  0  0  2  0  0  0  0  0  0
  190.7840  176.4050  147.2460 C   0  0  0  0  0  3  0  0  0  0  0  0
  191.9950  175.6770  146.7200 C   0  0  0  0  0  2  0  0  0  0  0  0
  1  5  1  0  0  0  0
  1 26  1  0  0  0  0
  2  4  1  0  0  0  0
  4 10  2  0  0  0  0
  4  5  1  0  0  0  0
  5  7  2  0  0  0  0
  6  2  2  0  0  0  0
  6  9  1  0  0  0  0
  7 11  1  0  0  0  0
  7  3  1  0  0  0  0
  8 11  2  0  0  0  0
  9  1  2  0  0  0  0
 10  8  1  0  0  0  0
 11  3  1  0  0  0  0
 12 13  1  0  0  0  0
 12 17  2  0  0  0  0
 14 19  1  0  0  0  0
 15 18  1  6  0  0  0
 15 12  1  0  0  0  0
 16  6  1  0  0  0  0
 17 16  2  0  0  0  0
 19 20  1  0  0  0  0
 20 22  1  0  0  0  0
 20 13  2  0  0  0  0
 21 19  2  0  0  0  0
 21 15  1  0  0  0  0
 23 22  1  0  0  0  0
 24 26  2  0  0  0  0
 24 25  1  0  0  0  0
 25 29  2  0  0  0  0
 26 28  1  0  0  0  0
 28 27  2  0  0  0  0
 29 27  1  0  0  0  0
 29 31  1  0  0  0  0
 30 24  1  0  0  0  0
 31 33  1  0  0  0  0
 32 33  2  0  0  0  0
 33 37  1  0  0  0  0
 35 34  1  0  0  0  0
 36 34  1  0  0  0  0
 37 36  1  0  0  0  0
 38 37  1  0  0  0  0
 38 35  1  0  0  0  0
M  END
>  <MODEL>
8

>  <REMARK>
 VINA RESULT:      -8.8      3.729      7.713
  Name = 
  5 active torsions:
  status: ('A' for Active; 'I' for Inactive)
    1  A    between atoms: N_2  and  C_35
    2  A    between atoms: C_3  and  C_14
    3  A    between atoms: O_12  and  C_30
    4  A    between atoms: C_17  and  C_23
    5  A    between atoms: C_19  and  C_25
                            x       y       z     vdW  Elec       q    Type
                         _______ _______ _______ _____ _____    ______ ____

>  <TORSDO>
F 5

$$$$
=
 OpenBabel11042410343D

 38 43  0  0  1  0  0  0  0  0999 V2000
  190.6320  176.4150  137.4550 C   0  0  0  0  0  0  0  0  0  0  0  0
  191.6380  175.0800  135.1590 C   0  0  0  0  0  3  0  0  0  0  0  0
  187.0730  175.3670  136.9090 C   0  0  0  0  0  2  0  0  0  0  0  0
  190.2760  174.9710  135.4450 C   0  0  0  0  0  0  0  0  0  0  0  0
  189.7820  175.6920  136.6050 C   0  0  0  0  0  0  0  0  0  0  0  0
  192.4830  175.8660  135.9460 C   0  0  0  0  0  0  0  0  0  0  0  0
  188.4420  175.5040  136.7160 C   0  0  0  0  0  0  0  0  0  0  0  0
  188.0360  173.9620  134.7810 N   0  0  0  0  0  0  0  0  0  0  0  0
  191.9870  176.4910  137.1160 C   0  0  0  0  0  3  0  0  0  0  0  0
  189.4120  174.1270  134.5940 C   0  0  0  0  0  3  0  0  0  0  0  0
  187.6450  174.6910  135.8390 C   0  0  0  0  0  0  0  0  0  0  0  0
  195.7700  174.2860  136.5160 C   0  0  0  0  0  0  0  0  0  0  0  0
  195.6040  172.8290  136.5750 C   0  0  0  0  0  3  0  0  0  0  0  0
  199.1000  171.8120  137.3230 O   0  0  0  0  0  1  0  0  0  0  0  0
  197.0290  174.9310  137.0060 C   0  0  2  0  0  3  0  0  0  0  0  0
  193.9040  175.8760  135.6000 C   0  0  0  0  0  3  0  0  0  0  0  0
  194.7980  175.0450  136.0720 C   0  0  0  0  0  0  0  0  0  0  0  0
  197.4300  175.9460  136.1580 F   0  0  0  0  0  0  0  0  0  0  0  0
  197.9890  172.6230  137.1300 C   0  0  0  0  0  0  0  0  0  0  0  0
  196.6350  172.0280  136.8750 C   0  0  0  0  0  0  0  0  0  0  0  0
  198.1640  173.9490  137.1630 C   0  0  0  0  0  3  0  0  0  0  0  0
  196.3960  170.6440  136.9030 O   0  0  0  0  0  0  0  0  0  0  0  0
  195.2200  170.0480  137.4360 C   0  0  0  0  0  1  0  0  0  0  0  0
  189.3770  177.9800  139.0190 C   0  0  0  0  0  0  0  0  0  0  0  0
  189.0410  178.3460  140.3290 C   0  0  0  0  0  3  0  0  0  0  0  0
  190.1800  176.8430  138.8010 C   0  0  0  0  0  0  0  0  0  0  0  0
  190.2930  176.4760  141.2040 C   0  0  0  0  0  3  0  0  0  0  0  0
  190.6200  176.0980  139.9000 C   0  0  0  0  0  3  0  0  0  0  0  0
  189.4960  177.5940  141.4290 C   0  0  0  0  0  0  0  0  0  0  0  0
  188.8580  178.7900  137.8770 C   0  0  0  0  0  1  0  0  0  0  0  0
  189.2940  178.0280  142.7780 N   0  0  0  0  0  2  0  0  0  0  0  0
  187.9980  176.2560  143.6240 O   0  0  0  0  0  0  0  0  0  0  0  0
  188.4320  177.4310  143.7650 C   0  0  0  0  0  0  0  0  0  0  0  0
  188.0520  177.5970  147.4210 C   0  0  0  0  0  2  0  0  0  0  0  0
  186.6980  178.1150  146.9560 C   0  0  0  0  0  2  0  0  0  0  0  0
  188.9740  177.6600  146.2170 C   0  0  0  0  0  2  0  0  0  0  0  0
  188.1290  178.1570  145.0440 C   0  0  0  0  0  3  0  0  0  0  0  0
  186.6950  177.9340  145.4510 C   0  0  0  0  0  2  0  0  0  0  0  0
  1 26  1  0  0  0  0
  2  4  2  0  0  0  0
  2  6  1  0  0  0  0
  4  5  1  0  0  0  0
  5  7  1  0  0  0  0
  5  1  2  0  0  0  0
  6  9  2  0  0  0  0
  7  3  1  0  0  0  0
  8 11  1  0  0  0  0
  9  1  1  0  0  0  0
 10  8  2  0  0  0  0
 10  4  1  0  0  0  0
 11  7  2  0  0  0  0
 11  3  1  0  0  0  0
 12 13  1  0  0  0  0
 12 15  1  0  0  0  0
 13 20  2  0  0  0  0
 15 18  1  6  0  0  0
 15 21  1  0  0  0  0
 16  6  1  0  0  0  0
 16 17  2  0  0  0  0
 17 12  2  0  0  0  0
 19 21  2  0  0  0  0
 19 14  1  0  0  0  0
 20 22  1  0  0  0  0
 20 19  1  0  0  0  0
 22 23  1  0  0  0  0
 24 25  1  0  0  0  0
 25 29  2  0  0  0  0
 26 24  2  0  0  0  0
 26 28  1  0  0  0  0
 27 29  1  0  0  0  0
 28 27  2  0  0  0  0
 29 31  1  0  0  0  0
 30 24  1  0  0  0  0
 31 33  1  0  0  0  0
 32 33  2  0  0  0  0
 33 37  1  0  0  0  0
 35 34  1  0  0  0  0
 36 34  1  0  0  0  0
 37 38  1  0  0  0  0
 37 36  1  0  0  0  0
 38 35  1  0  0  0  0
M  END
>  <MODEL>
9

>  <REMARK>
 VINA RESULT:      -8.8      5.218     12.241
  Name = 
  5 active torsions:
  status: ('A' for Active; 'I' for Inactive)
    1  A    between atoms: N_2  and  C_35
    2  A    between atoms: C_3  and  C_14
    3  A    between atoms: O_12  and  C_30
    4  A    between atoms: C_17  and  C_23
    5  A    between atoms: C_19  and  C_25
                            x       y       z     vdW  Elec       q    Type
                         _______ _______ _______ _____ _____    ______ ____

>  <TORSDO>
F 5

$$$$
