=
 OpenBabel11042410383D

 44 48  0  0  1  0  0  0  0  0999 V2000
  186.7400  178.2600  144.7430 C   0  0  1  0  0  3  0  0  0  0  0  0
  187.4320  178.1260  142.2930 N   0  0  0  0  0  0  0  0  0  0  0  0
  184.8720  179.5470  143.6680 C   0  0  0  0  0  2  0  0  0  0  0  0
  187.1540  177.6760  146.0360 N   0  0  0  0  0  0  0  0  0  0  0  0
  185.3760  179.0650  146.8280 O   0  0  0  0  0  0  0  0  0  0  0  0
  186.2630  178.0270  147.1560 C   0  0  0  0  0  2  0  0  0  0  0  0
  185.2910  179.3780  142.2040 C   0  0  1  0  0  3  0  0  0  0  0  0
  184.5040  178.5060  145.8880 C   0  0  0  0  0  2  0  0  0  0  0  0
  187.7300  176.3190  143.7450 O   0  0  0  0  0  0  0  0  0  0  0  0
  187.3460  177.5110  143.5880 C   0  0  0  0  0  0  0  0  0  0  0  0
  186.8110  179.4270  142.0320 C   0  0  0  0  0  2  0  0  0  0  0  0
  185.2160  178.3480  144.5490 C   0  0  2  0  0  3  0  0  0  0  0  0
  189.7270  177.5690  141.5800 C   0  0  0  0  0  2  0  0  0  0  0  0
  187.9400  178.0650  139.8920 C   0  0  0  0  0  3  0  0  0  0  0  0
  190.5450  177.0820  140.4150 C   0  0  0  0  0  3  0  0  0  0  0  0
  190.1400  177.2910  139.1510 C   0  0  0  0  0  0  0  0  0  0  0  0
  188.2330  177.4860  141.2530 C   0  0  2  0  0  3  0  0  0  0  0  0
  188.8320  177.9330  138.9060 C   0  0  0  0  0  3  0  0  0  0  0  0
  190.9150  176.9160  138.0410 O   0  0  0  0  0  0  0  0  0  0  0  0
  191.7400  175.7860  137.9460 C   0  0  0  0  0  0  0  0  0  0  0  0
  193.0480  175.9880  137.8200 C   0  0  0  0  0  2  0  0  0  0  0  0
  191.1890  174.4930  137.9880 O   0  0  0  0  0  0  0  0  0  0  0  0
  191.0350  173.1090  136.1230 O   0  0  0  0  0  0  0  0  0  0  0  0
  190.4690  173.8530  136.9670 C   0  0  0  0  0  0  0  0  0  0  0  0
  189.0050  174.0910  136.8590 C   0  0  0  0  0  2  0  0  0  0  0  0
  188.2640  172.7700  136.9010 C   0  0  0  0  0  1  0  0  0  0  0  0
  184.7440  178.1900  141.6320 O   0  0  0  0  0  0  0  0  0  0  0  0
  183.0230  179.2990  138.4970 C   0  0  0  0  0  3  0  0  0  0  0  0
  183.9220  178.1890  140.5010 C   0  0  0  0  0  0  0  0  0  0  0  0
  183.1560  177.0390  140.2240 C   0  0  0  0  0  3  0  0  0  0  0  0
  181.5390  176.0810  138.6420 N   0  0  0  0  0  0  0  0  0  0  0  0
  182.2840  178.1430  138.2680 C   0  0  0  0  0  0  0  0  0  0  0  0
  180.9680  178.6100  136.1240 C   0  0  0  0  0  1  0  0  0  0  0  0
  183.8520  179.3130  139.6340 C   0  0  0  0  0  2  0  0  0  0  0  0
  182.3460  177.0570  139.0930 C   0  0  0  0  0  0  0  0  0  0  0  0
  180.9580  176.5290  137.5320 N   0  0  0  0  0  0  0  0  0  0  0  0
  181.3980  177.7840  137.2840 C   0  0  0  0  0  0  0  0  0  0  0  0
  188.4570  178.2390  146.3580 C   0  0  0  0  0  2  0  0  0  0  0  0
  189.0470  177.5100  147.5520 C   0  0  0  0  0  2  0  0  0  0  0  0
  189.9160  176.3560  147.0830 C   0  0  0  0  0  2  0  0  0  0  0  0
  191.2800  176.8130  146.8580 N   0  0  0  0  0  0  0  0  0  0  0  0
  192.1390  175.9480  147.6440 C   0  0  0  0  0  1  0  0  0  0  0  0
  191.6110  177.8070  144.7230 N   0  0  0  0  0  1  0  0  0  0  0  0
  191.6010  176.5570  145.4630 C   0  0  0  0  0  2  0  0  0  0  0  0
  1 10  1  6  0  0  0
  1  4  1  0  0  0  0
  2 10  1  0  0  0  0
  4 38  1  0  0  0  0
  4  6  1  0  0  0  0
  5  6  1  0  0  0  0
  7 27  1  1  0  0  0
  7  3  1  0  0  0  0
  8  5  1  0  0  0  0
 10  9  2  0  0  0  0
 11  7  1  0  0  0  0
 11  2  1  0  0  0  0
 12  3  1  6  0  0  0
 12  1  1  0  0  0  0
 12  8  1  0  0  0  0
 15 13  1  0  0  0  0
 16 15  2  0  0  0  0
 17 14  1  6  0  0  0
 17 13  1  0  0  0  0
 17  2  1  0  0  0  0
 18 16  1  0  0  0  0
 18 14  2  0  0  0  0
 19 16  1  0  0  0  0
 20 22  1  0  0  0  0
 20 19  1  0  0  0  0
 21 20  2  0  0  0  0
 23 24  2  0  0  0  0
 24 22  1  0  0  0  0
 25 26  1  0  0  0  0
 25 24  1  0  0  0  0
 28 34  1  0  0  0  0
 29 27  1  0  0  0  0
 30 29  2  0  0  0  0
 31 35  2  0  0  0  0
 32 28  2  0  0  0  0
 32 35  1  0  0  0  0
 33 37  1  0  0  0  0
 34 29  1  0  0  0  0
 35 30  1  0  0  0  0
 36 31  1  0  0  0  0
 37 36  2  0  0  0  0
 37 32  1  0  0  0  0
 38 39  1  0  0  0  0
 40 39  1  0  0  0  0
 41 40  1  0  0  0  0
 41 42  1  0  0  0  0
 43 44  1  0  0  0  0
 44 41  1  0  0  0  0
M  END
>  <MODEL>
1

>  <REMARK>
 VINA RESULT:      -8.0      0.000      0.000
  Name = 
  13 active torsions:
  status: ('A' for Active; 'I' for Inactive)
    1  A    between atoms: O_3  and  C_12
    2  A    between atoms: O_3  and  C_29
    3  A    between atoms: N_6  and  C_30
    4  A    between atoms: C_9  and  C_16
    5  A    between atoms: C_9  and  C_19
    6  A    between atoms: N_13  and  C_16
    7  A    between atoms: N_15  and  C_19
    8  A    between atoms: N_15  and  C_40
    9  A    between atoms: C_17  and  C_22
   10  A    between atoms: C_21  and  O_32
   11  A    between atoms: C_22  and  O_39
   12  A    between atoms: C_31  and  O_32
   13  A    between atoms: C_31  and  O_39
                            x       y       z     vdW  Elec       q    Type
                         _______ _______ _______ _____ _____    ______ ____

>  <TORSDO>
F 13

$$$$
=
 OpenBabel11042410383D

 44 48  0  0  1  0  0  0  0  0999 V2000
  186.6640  178.2460  144.5950 C   0  0  1  0  0  3  0  0  0  0  0  0
  187.4000  178.1050  142.1580 N   0  0  0  0  0  0  0  0  0  0  0  0
  184.8010  179.5050  143.4800 C   0  0  0  0  0  2  0  0  0  0  0  0
  187.0620  177.6750  145.8980 N   0  0  0  0  0  0  0  0  0  0  0  0
  185.2550  179.0480  146.6510 O   0  0  0  0  0  0  0  0  0  0  0  0
  186.1470  178.0220  147.0000 C   0  0  0  0  0  2  0  0  0  0  0  0
  185.2470  179.3320  142.0240 C   0  0  1  0  0  3  0  0  0  0  0  0
  184.4060  178.4750  145.6990 C   0  0  0  0  0  2  0  0  0  0  0  0
  187.6930  176.3100  143.6260 O   0  0  0  0  0  0  0  0  0  0  0  0
  187.2990  177.4970  143.4550 C   0  0  0  0  0  0  0  0  0  0  0  0
  186.7700  179.3980  141.8780 C   0  0  0  0  0  2  0  0  0  0  0  0
  185.1430  178.3160  144.3740 C   0  0  2  0  0  3  0  0  0  0  0  0
  189.7090  177.5160  141.5190 C   0  0  0  0  0  2  0  0  0  0  0  0
  187.9950  178.0760  139.7770 C   0  0  0  0  0  3  0  0  0  0  0  0
  190.5590  177.0340  140.3750 C   0  0  0  0  0  3  0  0  0  0  0  0
  190.2050  177.2720  139.1010 C   0  0  0  0  0  0  0  0  0  0  0  0
  188.2270  177.4670  141.1360 C   0  0  2  0  0  3  0  0  0  0  0  0
  188.9200  177.9440  138.8210 C   0  0  0  0  0  3  0  0  0  0  0  0
  191.0130  176.9020  138.0130 O   0  0  0  0  0  0  0  0  0  0  0  0
  191.6810  175.6790  137.8520 C   0  0  0  0  0  0  0  0  0  0  0  0
  190.9920  174.6640  137.3400 C   0  0  0  0  0  2  0  0  0  0  0  0
  193.0310  175.5480  138.2210 O   0  0  0  0  0  0  0  0  0  0  0  0
  194.5370  176.1670  136.5580 O   0  0  0  0  0  0  0  0  0  0  0  0
  194.1160  175.2970  137.3660 C   0  0  0  0  0  0  0  0  0  0  0  0
  194.7590  173.9570  137.3920 C   0  0  0  0  0  2  0  0  0  0  0  0
  195.4670  173.7500  138.7160 C   0  0  0  0  0  1  0  0  0  0  0  0
  184.7240  178.1350  141.4500 O   0  0  0  0  0  0  0  0  0  0  0  0
  182.0520  176.9380  139.1170 C   0  0  0  0  0  3  0  0  0  0  0  0
  183.7380  178.1250  140.4580 C   0  0  0  0  0  0  0  0  0  0  0  0
  183.4330  179.3330  139.7980 C   0  0  0  0  0  3  0  0  0  0  0  0
  182.0010  180.3240  138.0650 N   0  0  0  0  0  0  0  0  0  0  0  0
  181.7880  178.1510  138.4910 C   0  0  0  0  0  0  0  0  0  0  0  0
  179.9450  177.6370  136.7930 C   0  0  0  0  0  1  0  0  0  0  0  0
  183.0440  176.9340  140.1140 C   0  0  0  0  0  2  0  0  0  0  0  0
  182.4480  179.3020  138.8150 C   0  0  0  0  0  0  0  0  0  0  0  0
  181.0570  179.8420  137.2610 N   0  0  0  0  0  0  0  0  0  0  0  0
  180.9110  178.5190  137.5020 C   0  0  0  0  0  0  0  0  0  0  0  0
  188.3530  178.2540  146.2400 C   0  0  0  0  0  2  0  0  0  0  0  0
  188.8780  177.6160  147.5130 C   0  0  0  0  0  2  0  0  0  0  0  0
  189.7780  176.4400  147.1750 C   0  0  0  0  0  2  0  0  0  0  0  0
  191.0800  176.9160  146.7280 N   0  0  0  0  0  0  0  0  0  0  0  0
  192.0670  176.0310  147.3190 C   0  0  0  0  0  1  0  0  0  0  0  0
  191.6660  177.9070  144.6480 N   0  0  0  0  0  1  0  0  0  0  0  0
  191.1490  176.7110  145.2900 C   0  0  0  0  0  2  0  0  0  0  0  0
  1 10  1  6  0  0  0
  1  4  1  0  0  0  0
  2 10  1  0  0  0  0
  4 38  1  0  0  0  0
  4  6  1  0  0  0  0
  5  6  1  0  0  0  0
  7 27  1  1  0  0  0
  7  3  1  0  0  0  0
  8  5  1  0  0  0  0
 10  9  2  0  0  0  0
 11  7  1  0  0  0  0
 11  2  1  0  0  0  0
 12  3  1  6  0  0  0
 12  1  1  0  0  0  0
 12  8  1  0  0  0  0
 15 13  1  0  0  0  0
 16 15  2  0  0  0  0
 17 14  1  6  0  0  0
 17 13  1  0  0  0  0
 17  2  1  0  0  0  0
 18 16  1  0  0  0  0
 18 14  2  0  0  0  0
 19 16  1  0  0  0  0
 20 19  1  0  0  0  0
 20 22  1  0  0  0  0
 21 20  2  0  0  0  0
 23 24  2  0  0  0  0
 24 25  1  0  0  0  0
 24 22  1  0  0  0  0
 25 26  1  0  0  0  0
 28 34  1  0  0  0  0
 29 27  1  0  0  0  0
 30 29  2  0  0  0  0
 31 35  2  0  0  0  0
 32 35  1  0  0  0  0
 32 28  2  0  0  0  0
 33 37  1  0  0  0  0
 34 29  1  0  0  0  0
 35 30  1  0  0  0  0
 36 37  2  0  0  0  0
 36 31  1  0  0  0  0
 37 32  1  0  0  0  0
 38 39  1  0  0  0  0
 40 39  1  0  0  0  0
 41 40  1  0  0  0  0
 41 42  1  0  0  0  0
 43 44  1  0  0  0  0
 44 41  1  0  0  0  0
M  END
>  <MODEL>
2

>  <REMARK>
 VINA RESULT:      -7.7      1.301      2.111
  Name = 
  13 active torsions:
  status: ('A' for Active; 'I' for Inactive)
    1  A    between atoms: O_3  and  C_12
    2  A    between atoms: O_3  and  C_29
    3  A    between atoms: N_6  and  C_30
    4  A    between atoms: C_9  and  C_16
    5  A    between atoms: C_9  and  C_19
    6  A    between atoms: N_13  and  C_16
    7  A    between atoms: N_15  and  C_19
    8  A    between atoms: N_15  and  C_40
    9  A    between atoms: C_17  and  C_22
   10  A    between atoms: C_21  and  O_32
   11  A    between atoms: C_22  and  O_39
   12  A    between atoms: C_31  and  O_32
   13  A    between atoms: C_31  and  O_39
                            x       y       z     vdW  Elec       q    Type
                         _______ _______ _______ _____ _____    ______ ____

>  <TORSDO>
F 13

$$$$
=
 OpenBabel11042410383D

 44 48  0  0  1  0  0  0  0  0999 V2000
  181.8950  179.6110  139.3230 C   0  0  1  0  0  3  0  0  0  0  0  0
  184.2880  178.7810  139.6110 N   0  0  0  0  0  0  0  0  0  0  0  0
  181.6790  178.3250  141.4680 C   0  0  0  0  0  2  0  0  0  0  0  0
  181.1510  180.5390  138.4460 N   0  0  0  0  0  0  0  0  0  0  0  0
  179.3270  179.7940  139.8000 O   0  0  0  0  0  0  0  0  0  0  0  0
  179.7470  180.7370  138.8480 C   0  0  0  0  0  2  0  0  0  0  0  0
  183.1440  177.9100  141.6340 C   0  0  1  0  0  3  0  0  0  0  0  0
  180.0410  180.1140  140.9600 C   0  0  0  0  0  2  0  0  0  0  0  0
  183.8300  180.9130  138.7720 O   0  0  0  0  0  0  0  0  0  0  0  0
  183.3800  179.8120  139.1950 C   0  0  0  0  0  0  0  0  0  0  0  0
  183.8030  177.5780  140.2930 C   0  0  0  0  0  2  0  0  0  0  0  0
  181.4970  179.6900  140.8070 C   0  0  2  0  0  3  0  0  0  0  0  0
  186.0680  177.9120  138.1400 C   0  0  0  0  0  2  0  0  0  0  0  0
  186.5890  178.7010  140.4630 C   0  0  0  0  0  3  0  0  0  0  0  0
  187.5570  177.9010  137.9250 C   0  0  0  0  0  3  0  0  0  0  0  0
  188.4070  178.0660  138.9520 C   0  0  0  0  0  0  0  0  0  0  0  0
  185.7020  178.8920  139.2590 C   0  0  2  0  0  3  0  0  0  0  0  0
  187.8670  178.3470  140.2990 C   0  0  0  0  0  3  0  0  0  0  0  0
  189.8000  177.9850  138.7980 O   0  0  0  0  0  0  0  0  0  0  0  0
  190.6060  176.8760  139.0930 C   0  0  0  0  0  0  0  0  0  0  0  0
  191.5010  176.5050  138.1820 C   0  0  0  0  0  2  0  0  0  0  0  0
  190.4620  176.1910  140.3130 O   0  0  0  0  0  0  0  0  0  0  0  0
  191.5680  177.5890  141.8080 O   0  0  0  0  0  0  0  0  0  0  0  0
  190.6960  176.7050  141.5970 C   0  0  0  0  0  0  0  0  0  0  0  0
  189.9180  176.1640  142.7440 C   0  0  0  0  0  2  0  0  0  0  0  0
  190.3630  176.8320  144.0290 C   0  0  0  0  0  1  0  0  0  0  0  0
  183.8930  178.8920  142.3490 O   0  0  0  0  0  0  0  0  0  0  0  0
  186.6880  177.3790  144.3280 C   0  0  0  0  0  3  0  0  0  0  0  0
  184.7490  178.5840  143.4110 C   0  0  0  0  0  0  0  0  0  0  0  0
  184.5230  179.1980  144.6600 C   0  0  0  0  0  3  0  0  0  0  0  0
  185.3580  179.3410  146.9660 N   0  0  0  0  0  0  0  0  0  0  0  0
  186.4230  178.0060  145.5410 C   0  0  0  0  0  0  0  0  0  0  0  0
  188.2260  177.1460  147.1410 C   0  0  0  0  0  1  0  0  0  0  0  0
  185.8320  177.6780  143.2520 C   0  0  0  0  0  3  0  0  0  0  0  0
  185.3860  178.8780  145.7030 C   0  0  0  0  0  0  0  0  0  0  0  0
  186.3700  178.7720  147.6180 N   0  0  0  0  0  2  0  0  0  0  0  0
  187.0330  177.9550  146.7690 C   0  0  0  0  0  0  0  0  0  0  0  0
  181.1160  179.9350  137.1220 C   0  0  0  0  0  2  0  0  0  0  0  0
  180.9850  178.4290  137.2510 C   0  0  0  0  0  2  0  0  0  0  0  0
  181.6930  177.7410  136.0970 C   0  0  0  0  0  2  0  0  0  0  0  0
  182.9460  177.1570  136.5510 N   0  0  0  0  0  0  0  0  0  0  0  0
  182.6030  175.9230  137.2330 C   0  0  0  0  0  1  0  0  0  0  0  0
  184.5160  175.6090  135.6610 N   0  0  0  0  0  1  0  0  0  0  0  0
  183.7050  176.7790  135.3700 C   0  0  0  0  0  2  0  0  0  0  0  0
  1 10  1  1  0  0  0
  1 12  1  0  0  0  0
  2 11  1  0  0  0  0
  3  7  1  0  0  0  0
  4  6  1  0  0  0  0
  4  1  1  0  0  0  0
  5  8  1  0  0  0  0
  6  5  1  0  0  0  0
  7 27  1  6  0  0  0
  9 10  2  0  0  0  0
 10  2  1  0  0  0  0
 11  7  1  0  0  0  0
 12  8  1  6  0  0  0
 12  3  1  0  0  0  0
 15 13  1  0  0  0  0
 15 16  2  0  0  0  0
 16 18  1  0  0  0  0
 17 13  1  6  0  0  0
 17  2  1  0  0  0  0
 17 14  1  0  0  0  0
 18 14  2  0  0  0  0
 19 16  1  0  0  0  0
 19 20  1  0  0  0  0
 20 22  1  0  0  0  0
 21 20  2  0  0  0  0
 22 24  1  0  0  0  0
 24 23  2  0  0  0  0
 24 25  1  0  0  0  0
 25 26  1  0  0  0  0
 27 29  1  0  0  0  0
 28 32  1  0  0  0  0
 29 30  2  0  0  0  0
 30 35  1  0  0  0  0
 31 36  1  0  0  0  0
 32 35  1  0  0  0  0
 32 37  2  0  0  0  0
 34 29  1  0  0  0  0
 34 28  2  0  0  0  0
 35 31  2  0  0  0  0
 37 33  1  0  0  0  0
 37 36  1  0  0  0  0
 38 39  1  0  0  0  0
 38  4  1  0  0  0  0
 40 41  1  0  0  0  0
 40 39  1  0  0  0  0
 41 42  1  0  0  0  0
 44 43  1  0  0  0  0
 44 41  1  0  0  0  0
M  END
>  <MODEL>
3

>  <REMARK>
 VINA RESULT:      -7.7      2.569      7.998
  Name = 
  13 active torsions:
  status: ('A' for Active; 'I' for Inactive)
    1  A    between atoms: O_3  and  C_12
    2  A    between atoms: O_3  and  C_29
    3  A    between atoms: N_6  and  C_30
    4  A    between atoms: C_9  and  C_16
    5  A    between atoms: C_9  and  C_19
    6  A    between atoms: N_13  and  C_16
    7  A    between atoms: N_15  and  C_19
    8  A    between atoms: N_15  and  C_40
    9  A    between atoms: C_17  and  C_22
   10  A    between atoms: C_21  and  O_32
   11  A    between atoms: C_22  and  O_39
   12  A    between atoms: C_31  and  O_32
   13  A    between atoms: C_31  and  O_39
                            x       y       z     vdW  Elec       q    Type
                         _______ _______ _______ _____ _____    ______ ____

>  <TORSDO>
F 13

$$$$
=
 OpenBabel11042410383D

 44 48  0  0  1  0  0  0  0  0999 V2000
  181.0900  179.6060  139.6620 C   0  0  1  0  0  3  0  0  0  0  0  0
  183.2750  178.4020  139.1350 N   0  0  0  0  0  0  0  0  0  0  0  0
  181.4900  178.4110  141.8330 C   0  0  0  0  0  2  0  0  0  0  0  0
  180.2200  180.6270  139.0420 N   0  0  0  0  0  0  0  0  0  0  0  0
  178.9310  180.2140  141.0130 O   0  0  0  0  0  0  0  0  0  0  0  0
  179.1060  181.0580  139.9050 C   0  0  0  0  0  2  0  0  0  0  0  0
  182.8380  177.7660  141.4940 C   0  0  1  0  0  3  0  0  0  0  0  0
  180.0580  180.4340  141.8120 C   0  0  0  0  0  2  0  0  0  0  0  0
  182.8560  180.5660  138.3570 O   0  0  0  0  0  0  0  0  0  0  0  0
  182.4380  179.5600  138.9960 C   0  0  0  0  0  0  0  0  0  0  0  0
  182.9040  177.3070  140.0360 C   0  0  0  0  0  2  0  0  0  0  0  0
  181.2790  179.7750  141.1800 C   0  0  2  0  0  3  0  0  0  0  0  0
  184.4010  177.0000  137.4470 C   0  0  0  0  0  2  0  0  0  0  0  0
  185.7280  178.3290  139.1080 C   0  0  0  0  0  3  0  0  0  0  0  0
  185.7080  176.7840  136.7340 C   0  0  0  0  0  3  0  0  0  0  0  0
  186.8730  177.1360  137.3040 C   0  0  0  0  0  0  0  0  0  0  0  0
  184.4620  178.2750  138.2930 C   0  0  2  0  0  3  0  0  0  0  0  0
  186.8610  177.8200  138.6140 C   0  0  0  0  0  3  0  0  0  0  0  0
  188.1150  176.8800  136.7000 O   0  0  0  0  0  0  0  0  0  0  0  0
  189.3180  177.5540  136.9560 C   0  0  0  0  0  0  0  0  0  0  0  0
  189.3690  178.8530  136.6770 C   0  0  0  0  0  2  0  0  0  0  0  0
  190.4220  176.8670  137.4930 O   0  0  0  0  0  0  0  0  0  0  0  0
  192.1640  176.6790  139.0250 O   0  0  0  0  0  0  0  0  0  0  0  0
  190.9900  177.0510  138.7630 C   0  0  0  0  0  0  0  0  0  0  0  0
  190.1670  177.6700  139.8370 C   0  0  0  0  0  2  0  0  0  0  0  0
  190.0450  176.7150  141.0070 C   0  0  0  0  0  1  0  0  0  0  0  0
  183.9310  178.6250  141.8160 O   0  0  0  0  0  0  0  0  0  0  0  0
  186.9110  177.6580  143.8650 C   0  0  0  0  0  3  0  0  0  0  0  0
  184.7750  178.4190  142.9120 C   0  0  0  0  0  0  0  0  0  0  0  0
  184.3180  178.7870  144.1940 C   0  0  0  0  0  3  0  0  0  0  0  0
  184.9470  178.8470  146.5680 N   0  0  0  0  0  0  0  0  0  0  0  0
  186.4160  178.0320  145.1090 C   0  0  0  0  0  0  0  0  0  0  0  0
  188.2880  177.4780  146.7630 C   0  0  0  0  0  1  0  0  0  0  0  0
  186.0700  177.8580  142.7550 C   0  0  0  0  0  3  0  0  0  0  0  0
  185.1740  178.5740  145.2710 C   0  0  0  0  0  0  0  0  0  0  0  0
  186.0350  178.4850  147.2430 N   0  0  0  0  0  2  0  0  0  0  0  0
  186.9440  177.9860  146.3750 C   0  0  0  0  0  0  0  0  0  0  0  0
  179.6160  180.0130  137.8690 C   0  0  0  0  0  2  0  0  0  0  0  0
  180.1420  180.6850  136.6140 C   0  0  0  0  0  2  0  0  0  0  0  0
  179.6570  182.1230  136.5480 C   0  0  0  0  0  2  0  0  0  0  0  0
  180.7770  183.0210  136.3050 N   0  0  0  0  0  0  0  0  0  0  0  0
  180.3250  183.9860  135.3190 C   0  0  0  0  0  1  0  0  0  0  0  0
  181.9350  184.8580  137.2730 N   0  0  0  0  0  1  0  0  0  0  0  0
  181.0150  183.7640  137.5320 C   0  0  0  0  0  2  0  0  0  0  0  0
  1 10  1  6  0  0  0
  1 12  1  0  0  0  0
  2 11  1  0  0  0  0
  4  1  1  0  0  0  0
  4  6  1  0  0  0  0
  5  8  1  0  0  0  0
  6  5  1  0  0  0  0
  7 27  1  6  0  0  0
  7  3  1  0  0  0  0
  9 10  2  0  0  0  0
 10  2  1  0  0  0  0
 11  7  1  0  0  0  0
 12  8  1  1  0  0  0
 12  3  1  0  0  0  0
 15 16  2  0  0  0  0
 15 13  1  0  0  0  0
 16 18  1  0  0  0  0
 17 13  1  1  0  0  0
 17 14  1  0  0  0  0
 17  2  1  0  0  0  0
 18 14  2  0  0  0  0
 19 20  1  0  0  0  0
 19 16  1  0  0  0  0
 20 22  1  0  0  0  0
 21 20  2  0  0  0  0
 22 24  1  0  0  0  0
 24 23  2  0  0  0  0
 24 25  1  0  0  0  0
 25 26  1  0  0  0  0
 27 29  1  0  0  0  0
 28 32  1  0  0  0  0
 29 30  2  0  0  0  0
 30 35  1  0  0  0  0
 31 36  1  0  0  0  0
 32 35  1  0  0  0  0
 32 37  2  0  0  0  0
 34 29  1  0  0  0  0
 34 28  2  0  0  0  0
 35 31  2  0  0  0  0
 37 33  1  0  0  0  0
 37 36  1  0  0  0  0
 38  4  1  0  0  0  0
 39 38  1  0  0  0  0
 40 39  1  0  0  0  0
 41 40  1  0  0  0  0
 41 44  1  0  0  0  0
 42 41  1  0  0  0  0
 43 44  1  0  0  0  0
M  END
>  <MODEL>
4

>  <REMARK>
 VINA RESULT:      -7.0      3.132      8.580
  Name = 
  13 active torsions:
  status: ('A' for Active; 'I' for Inactive)
    1  A    between atoms: O_3  and  C_12
    2  A    between atoms: O_3  and  C_29
    3  A    between atoms: N_6  and  C_30
    4  A    between atoms: C_9  and  C_16
    5  A    between atoms: C_9  and  C_19
    6  A    between atoms: N_13  and  C_16
    7  A    between atoms: N_15  and  C_19
    8  A    between atoms: N_15  and  C_40
    9  A    between atoms: C_17  and  C_22
   10  A    between atoms: C_21  and  O_32
   11  A    between atoms: C_22  and  O_39
   12  A    between atoms: C_31  and  O_32
   13  A    between atoms: C_31  and  O_39
                            x       y       z     vdW  Elec       q    Type
                         _______ _______ _______ _____ _____    ______ ____

>  <TORSDO>
F 13

$$$$
=
 OpenBabel11042410383D

 44 48  0  0  1  0  0  0  0  0999 V2000
  182.7840  177.6290  138.1060 C   0  0  1  0  0  3  0  0  0  0  0  0
  183.8990  178.1900  140.3290 N   0  0  0  0  0  0  0  0  0  0  0  0
  184.9880  178.5220  137.3010 C   0  0  0  0  0  2  0  0  0  0  0  0
  181.5660  176.9400  137.6300 N   0  0  0  0  0  0  0  0  0  0  0  0
  182.4640  177.5800  135.5070 O   0  0  0  0  0  0  0  0  0  0  0  0
  181.5050  176.7920  136.1640 C   0  0  0  0  0  2  0  0  0  0  0  0
  185.6430  178.7750  138.6630 C   0  0  1  0  0  3  0  0  0  0  0  0
  183.6920  176.9980  135.8370 C   0  0  0  0  0  2  0  0  0  0  0  0
  182.5620  176.2890  140.0800 O   0  0  0  0  0  0  0  0  0  0  0  0
  183.0480  177.3300  139.5570 C   0  0  0  0  0  0  0  0  0  0  0  0
  184.6380  179.2870  139.6970 C   0  0  0  0  0  2  0  0  0  0  0  0
  184.0480  177.3180  137.2850 C   0  0  2  0  0  3  0  0  0  0  0  0
  182.8580  178.8520  142.4650 C   0  0  0  0  0  2  0  0  0  0  0  0
  185.3130  178.3610  142.3280 C   0  0  0  0  0  3  0  0  0  0  0  0
  183.0440  178.8260  143.9580 C   0  0  0  0  0  3  0  0  0  0  0  0
  184.2720  178.7860  144.5020 C   0  0  0  0  0  0  0  0  0  0  0  0
  183.9500  178.0250  141.7800 C   0  0  2  0  0  3  0  0  0  0  0  0
  185.4520  178.6820  143.6180 C   0  0  0  0  0  3  0  0  0  0  0  0
  184.4840  178.8360  145.8890 O   0  0  0  0  0  0  0  0  0  0  0  0
  185.7050  178.6430  146.5510 C   0  0  0  0  0  0  0  0  0  0  0  0
  186.1330  179.6150  147.3510 C   0  0  0  0  0  2  0  0  0  0  0  0
  186.4390  177.4580  146.3660 O   0  0  0  0  0  0  0  0  0  0  0  0
  188.4520  176.7890  147.3240 O   0  0  0  0  0  0  0  0  0  0  0  0
  187.8370  177.3260  146.3660 C   0  0  0  0  0  0  0  0  0  0  0  0
  188.6120  177.8690  145.2180 C   0  0  0  0  0  2  0  0  0  0  0  0
  188.6170  176.8670  144.0810 C   0  0  0  0  0  1  0  0  0  0  0  0
  186.3340  177.6210  139.1390 O   0  0  0  0  0  0  0  0  0  0  0  0
  189.7100  176.9640  137.6610 C   0  0  0  0  0  3  0  0  0  0  0  0
  187.7160  177.4470  139.0180 C   0  0  0  0  0  0  0  0  0  0  0  0
  188.5180  177.5940  140.1680 C   0  0  0  0  0  3  0  0  0  0  0  0
  190.8350  177.5100  140.9790 N   0  0  0  0  0  0  0  0  0  0  0  0
  190.4590  177.1150  138.8230 C   0  0  0  0  0  0  0  0  0  0  0  0
  192.8830  176.7170  138.1080 C   0  0  0  0  0  1  0  0  0  0  0  0
  188.3170  177.1340  137.7700 C   0  0  0  0  0  3  0  0  0  0  0  0
  189.8910  177.4180  140.0270 C   0  0  0  0  0  0  0  0  0  0  0  0
  192.0080  177.2700  140.3980 N   0  0  0  0  0  2  0  0  0  0  0  0
  191.8030  177.0260  139.0830 C   0  0  0  0  0  0  0  0  0  0  0  0
  180.4330  177.7730  138.0040 C   0  0  0  0  0  2  0  0  0  0  0  0
  180.7790  179.2350  137.7840 C   0  0  0  0  0  2  0  0  0  0  0  0
  179.5230  180.0850  137.8510 C   0  0  0  0  0  2  0  0  0  0  0  0
  179.7920  181.3250  138.5640 N   0  0  0  0  0  0  0  0  0  0  0  0
  179.8170  180.9910  139.9760 C   0  0  0  0  0  1  0  0  0  0  0  0
  181.0920  183.0230  137.5250 N   0  0  0  0  0  1  0  0  0  0  0  0
  181.1400  181.7450  138.2150 C   0  0  0  0  0  2  0  0  0  0  0  0
  1 10  1  1  0  0  0
  3  7  1  0  0  0  0
  4 38  1  0  0  0  0
  4  1  1  0  0  0  0
  5  8  1  0  0  0  0
  5  6  1  0  0  0  0
  6  4  1  0  0  0  0
  7 27  1  1  0  0  0
  7 11  1  0  0  0  0
 10  9  2  0  0  0  0
 10  2  1  0  0  0  0
 11  2  1  0  0  0  0
 12  8  1  6  0  0  0
 12  3  1  0  0  0  0
 12  1  1  0  0  0  0
 13 15  1  0  0  0  0
 14 18  2  0  0  0  0
 15 16  2  0  0  0  0
 16 19  1  0  0  0  0
 17  2  1  6  0  0  0
 17 14  1  0  0  0  0
 17 13  1  0  0  0  0
 18 16  1  0  0  0  0
 19 20  1  0  0  0  0
 20 21  2  0  0  0  0
 22 20  1  0  0  0  0
 24 22  1  0  0  0  0
 24 23  2  0  0  0  0
 25 24  1  0  0  0  0
 26 25  1  0  0  0  0
 28 34  2  0  0  0  0
 28 32  1  0  0  0  0
 29 27  1  0  0  0  0
 29 30  2  0  0  0  0
 32 37  2  0  0  0  0
 32 35  1  0  0  0  0
 33 37  1  0  0  0  0
 34 29  1  0  0  0  0
 35 30  1  0  0  0  0
 35 31  2  0  0  0  0
 36 31  1  0  0  0  0
 37 36  1  0  0  0  0
 39 40  1  0  0  0  0
 39 38  1  0  0  0  0
 40 41  1  0  0  0  0
 41 42  1  0  0  0  0
 43 44  1  0  0  0  0
 44 41  1  0  0  0  0
M  END
>  <MODEL>
5

>  <REMARK>
 VINA RESULT:      -6.9      2.835      9.522
  Name = 
  13 active torsions:
  status: ('A' for Active; 'I' for Inactive)
    1  A    between atoms: O_3  and  C_12
    2  A    between atoms: O_3  and  C_29
    3  A    between atoms: N_6  and  C_30
    4  A    between atoms: C_9  and  C_16
    5  A    between atoms: C_9  and  C_19
    6  A    between atoms: N_13  and  C_16
    7  A    between atoms: N_15  and  C_19
    8  A    between atoms: N_15  and  C_40
    9  A    between atoms: C_17  and  C_22
   10  A    between atoms: C_21  and  O_32
   11  A    between atoms: C_22  and  O_39
   12  A    between atoms: C_31  and  O_32
   13  A    between atoms: C_31  and  O_39
                            x       y       z     vdW  Elec       q    Type
                         _______ _______ _______ _____ _____    ______ ____

>  <TORSDO>
F 13

$$$$
=
 OpenBabel11042410383D

 44 48  0  0  1  0  0  0  0  0999 V2000
  190.0560  176.8110  145.5490 C   0  0  1  0  0  3  0  0  0  0  0  0
  188.6740  177.3440  143.4750 N   0  0  0  0  0  0  0  0  0  0  0  0
  191.1580  175.3090  143.8660 C   0  0  0  0  0  2  0  0  0  0  0  0
  190.2110  177.3190  146.9280 N   0  0  0  0  0  0  0  0  0  0  0  0
  191.7960  175.5320  147.0310 O   0  0  0  0  0  0  0  0  0  0  0  0
  191.3100  176.6810  147.6750 C   0  0  0  0  0  2  0  0  0  0  0  0
  190.3470  175.7160  142.6320 C   0  0  1  0  0  3  0  0  0  0  0  0
  192.4270  176.0090  145.8770 C   0  0  0  0  0  2  0  0  0  0  0  0
  189.2550  179.0050  145.0130 O   0  0  0  0  0  0  0  0  0  0  0  0
  189.2980  177.7850  144.6910 C   0  0  0  0  0  0  0  0  0  0  0  0
  188.8790  175.9830  142.9720 C   0  0  0  0  0  2  0  0  0  0  0  0
  191.3830  176.4490  144.8580 C   0  0  2  0  0  3  0  0  0  0  0  0
  186.2940  177.8780  143.1070 C   0  0  0  0  0  2  0  0  0  0  0  0
  187.9900  178.2470  141.2970 C   0  0  0  0  0  3  0  0  0  0  0  0
  185.3550  178.6760  142.2440 C   0  0  0  0  0  3  0  0  0  0  0  0
  185.6830  179.0030  140.9830 C   0  0  0  0  0  0  0  0  0  0  0  0
  187.7470  178.2380  142.7850 C   0  0  2  0  0  3  0  0  0  0  0  0
  187.0200  178.6430  140.4670 C   0  0  0  0  0  3  0  0  0  0  0  0
  184.8010  179.6810  140.1260 O   0  0  0  0  0  0  0  0  0  0  0  0
  183.9750  179.0990  139.1540 C   0  0  0  0  0  0  0  0  0  0  0  0
  182.9140  179.7920  138.7510 C   0  0  0  0  0  2  0  0  0  0  0  0
  184.2720  177.8280  138.6300 O   0  0  0  0  0  0  0  0  0  0  0  0
  183.8330  177.1370  136.4520 O   0  0  0  0  0  0  0  0  0  0  0  0
  184.6620  177.5310  137.3150 C   0  0  0  0  0  0  0  0  0  0  0  0
  186.0970  177.6510  136.9430 C   0  0  0  0  0  2  0  0  0  0  0  0
  186.8120  176.3440  137.2220 C   0  0  0  0  0  1  0  0  0  0  0  0
  190.9330  176.8290  141.9570 O   0  0  0  0  0  0  0  0  0  0  0  0
  193.3820  176.9640  139.1300 C   0  0  0  0  0  3  0  0  0  0  0  0
  191.4780  176.7500  140.6720 C   0  0  0  0  0  0  0  0  0  0  0  0
  190.6420  176.3570  139.6080 C   0  0  0  0  0  3  0  0  0  0  0  0
  190.5990  175.9350  137.1880 N   0  0  0  0  0  0  0  0  0  0  0  0
  192.5190  176.5760  138.1120 C   0  0  0  0  0  0  0  0  0  0  0  0
  193.9500  176.5720  135.9910 C   0  0  0  0  0  1  0  0  0  0  0  0
  192.8450  177.0500  140.4270 C   0  0  0  0  0  2  0  0  0  0  0  0
  191.2040  176.2830  138.3370 C   0  0  0  0  0  0  0  0  0  0  0  0
  191.5140  175.9990  136.2230 N   0  0  0  0  0  0  0  0  0  0  0  0
  192.6910  176.3880  136.7630 C   0  0  0  0  0  0  0  0  0  0  0  0
  188.9860  176.9890  147.6420 C   0  0  0  0  0  2  0  0  0  0  0  0
  188.4530  178.2280  148.3400 C   0  0  0  0  0  2  0  0  0  0  0  0
  186.9570  178.3540  148.1130 C   0  0  0  0  0  2  0  0  0  0  0  0
  186.6660  178.3800  146.6870 N   0  0  0  0  0  0  0  0  0  0  0  0
  186.0060  177.1250  146.3770 C   0  0  0  0  0  1  0  0  0  0  0  0
  184.4030  178.8380  146.1180 N   0  0  0  0  0  1  0  0  0  0  0  0
  185.6850  179.4300  146.4610 C   0  0  0  0  0  2  0  0  0  0  0  0
  1 10  1  6  0  0  0
  1  4  1  0  0  0  0
  2 10  1  0  0  0  0
  4 38  1  0  0  0  0
  4  6  1  0  0  0  0
  5  6  1  0  0  0  0
  7 27  1  1  0  0  0
  7 11  1  0  0  0  0
  7  3  1  0  0  0  0
  8  5  1  0  0  0  0
 10  9  2  0  0  0  0
 11  2  1  0  0  0  0
 12  3  1  6  0  0  0
 12  1  1  0  0  0  0
 12  8  1  0  0  0  0
 15 13  1  0  0  0  0
 16 15  2  0  0  0  0
 17 14  1  6  0  0  0
 17 13  1  0  0  0  0
 17  2  1  0  0  0  0
 18 16  1  0  0  0  0
 18 14  2  0  0  0  0
 19 16  1  0  0  0  0
 20 19  1  0  0  0  0
 21 20  2  0  0  0  0
 22 20  1  0  0  0  0
 23 24  2  0  0  0  0
 24 22  1  0  0  0  0
 25 26  1  0  0  0  0
 25 24  1  0  0  0  0
 28 34  1  0  0  0  0
 29 27  1  0  0  0  0
 30 29  2  0  0  0  0
 31 35  2  0  0  0  0
 32 35  1  0  0  0  0
 32 28  2  0  0  0  0
 33 37  1  0  0  0  0
 34 29  1  0  0  0  0
 35 30  1  0  0  0  0
 36 37  2  0  0  0  0
 36 31  1  0  0  0  0
 37 32  1  0  0  0  0
 38 39  1  0  0  0  0
 40 39  1  0  0  0  0
 41 40  1  0  0  0  0
 42 41  1  0  0  0  0
 43 44  1  0  0  0  0
 44 41  1  0  0  0  0
M  END
>  <MODEL>
6

>  <REMARK>
 VINA RESULT:      -6.8      3.046      6.926
  Name = 
  13 active torsions:
  status: ('A' for Active; 'I' for Inactive)
    1  A    between atoms: O_3  and  C_12
    2  A    between atoms: O_3  and  C_29
    3  A    between atoms: N_6  and  C_30
    4  A    between atoms: C_9  and  C_16
    5  A    between atoms: C_9  and  C_19
    6  A    between atoms: N_13  and  C_16
    7  A    between atoms: N_15  and  C_19
    8  A    between atoms: N_15  and  C_40
    9  A    between atoms: C_17  and  C_22
   10  A    between atoms: C_21  and  O_32
   11  A    between atoms: C_22  and  O_39
   12  A    between atoms: C_31  and  O_32
   13  A    between atoms: C_31  and  O_39
                            x       y       z     vdW  Elec       q    Type
                         _______ _______ _______ _____ _____    ______ ____

>  <TORSDO>
F 13

$$$$
=
 OpenBabel11042410383D

 44 48  0  0  1  0  0  0  0  0999 V2000
  190.0560  176.8170  145.5000 C   0  0  1  0  0  3  0  0  0  0  0  0
  188.6470  177.3520  143.4440 N   0  0  0  0  0  0  0  0  0  0  0  0
  191.1480  175.3310  143.7970 C   0  0  0  0  0  2  0  0  0  0  0  0
  190.2230  177.3200  146.8790 N   0  0  0  0  0  0  0  0  0  0  0  0
  191.8210  175.5430  146.9550 O   0  0  0  0  0  0  0  0  0  0  0  0
  191.3340  176.6850  147.6100 C   0  0  0  0  0  2  0  0  0  0  0  0
  190.3200  175.7390  142.5740 C   0  0  1  0  0  3  0  0  0  0  0  0
  192.4350  176.0290  145.7970 C   0  0  0  0  0  2  0  0  0  0  0  0
  189.2350  179.0090  144.9830 O   0  0  0  0  0  0  0  0  0  0  0  0
  189.2810  177.7920  144.6540 C   0  0  0  0  0  0  0  0  0  0  0  0
  188.8540  175.9950  142.9320 C   0  0  0  0  0  2  0  0  0  0  0  0
  191.3760  176.4670  144.7910 C   0  0  2  0  0  3  0  0  0  0  0  0
  186.2600  177.8840  143.1200 C   0  0  0  0  0  2  0  0  0  0  0  0
  187.9200  178.2480  141.2770 C   0  0  0  0  0  3  0  0  0  0  0  0
  185.3040  178.6800  142.2730 C   0  0  0  0  0  3  0  0  0  0  0  0
  185.6080  179.0010  141.0040 C   0  0  0  0  0  0  0  0  0  0  0  0
  187.7070  178.2440  142.7690 C   0  0  2  0  0  3  0  0  0  0  0  0
  186.9350  178.6410  140.4640 C   0  0  0  0  0  3  0  0  0  0  0  0
  184.7090  179.6770  140.1630 O   0  0  0  0  0  0  0  0  0  0  0  0
  183.6600  179.0990  139.4330 C   0  0  0  0  0  0  0  0  0  0  0  0
  183.9800  178.2450  138.4650 C   0  0  0  0  0  2  0  0  0  0  0  0
  182.3220  179.4190  139.7270 O   0  0  0  0  0  0  0  0  0  0  0  0
  180.4990  178.1010  140.3220 O   0  0  0  0  0  0  0  0  0  0  0  0
  181.4950  178.7880  140.6700 C   0  0  0  0  0  0  0  0  0  0  0  0
  181.7850  178.9670  142.1180 C   0  0  0  0  0  2  0  0  0  0  0  0
  180.5720  179.5450  142.8180 C   0  0  0  0  0  1  0  0  0  0  0  0
  190.8910  176.8580  141.8980 O   0  0  0  0  0  0  0  0  0  0  0  0
  193.4550  176.9840  139.1740 C   0  0  0  0  0  3  0  0  0  0  0  0
  191.4900  176.7730  140.6370 C   0  0  0  0  0  0  0  0  0  0  0  0
  190.6990  176.3710  139.5410 C   0  0  0  0  0  3  0  0  0  0  0  0
  190.7580  175.9340  137.1250 N   0  0  0  0  0  0  0  0  0  0  0  0
  192.6360  176.5870  138.1230 C   0  0  0  0  0  0  0  0  0  0  0  0
  194.1540  176.5740  136.0630 C   0  0  0  0  0  1  0  0  0  0  0  0
  192.8640  177.0760  140.4470 C   0  0  0  0  0  2  0  0  0  0  0  0
  191.3140  176.2920  138.2960 C   0  0  0  0  0  0  0  0  0  0  0  0
  191.7120  175.9960  136.1990 N   0  0  0  0  0  0  0  0  0  0  0  0
  192.8650  176.3910  136.7840 C   0  0  0  0  0  0  0  0  0  0  0  0
  189.0080  176.9800  147.6050 C   0  0  0  0  0  2  0  0  0  0  0  0
  188.4630  178.2160  148.2960 C   0  0  0  0  0  2  0  0  0  0  0  0
  186.9600  178.3080  148.0950 C   0  0  0  0  0  2  0  0  0  0  0  0
  186.6460  178.3780  146.6760 N   0  0  0  0  0  0  0  0  0  0  0  0
  185.9580  177.1430  146.3440 C   0  0  0  0  0  1  0  0  0  0  0  0
  184.3970  178.8940  146.1000 N   0  0  0  0  0  1  0  0  0  0  0  0
  185.6800  179.4500  146.4950 C   0  0  0  0  0  2  0  0  0  0  0  0
  1 10  1  6  0  0  0
  1  4  1  0  0  0  0
  2 10  1  0  0  0  0
  4 38  1  0  0  0  0
  4  6  1  0  0  0  0
  5  6  1  0  0  0  0
  7 27  1  1  0  0  0
  7 11  1  0  0  0  0
  7  3  1  0  0  0  0
  8  5  1  0  0  0  0
 10  9  2  0  0  0  0
 11  2  1  0  0  0  0
 12  3  1  6  0  0  0
 12  1  1  0  0  0  0
 12  8  1  0  0  0  0
 15 13  1  0  0  0  0
 16 15  2  0  0  0  0
 17 14  1  6  0  0  0
 17 13  1  0  0  0  0
 17  2  1  0  0  0  0
 18 16  1  0  0  0  0
 18 14  2  0  0  0  0
 19 16  1  0  0  0  0
 20 22  1  0  0  0  0
 20 19  1  0  0  0  0
 21 20  2  0  0  0  0
 22 24  1  0  0  0  0
 23 24  2  0  0  0  0
 24 25  1  0  0  0  0
 25 26  1  0  0  0  0
 28 34  1  0  0  0  0
 29 27  1  0  0  0  0
 30 29  2  0  0  0  0
 31 35  2  0  0  0  0
 32 35  1  0  0  0  0
 32 28  2  0  0  0  0
 33 37  1  0  0  0  0
 34 29  1  0  0  0  0
 35 30  1  0  0  0  0
 36 37  2  0  0  0  0
 36 31  1  0  0  0  0
 37 32  1  0  0  0  0
 38 39  1  0  0  0  0
 40 39  1  0  0  0  0
 41 40  1  0  0  0  0
 42 41  1  0  0  0  0
 43 44  1  0  0  0  0
 44 41  1  0  0  0  0
M  END
>  <MODEL>
7

>  <REMARK>
 VINA RESULT:      -6.8      3.076      7.572
  Name = 
  13 active torsions:
  status: ('A' for Active; 'I' for Inactive)
    1  A    between atoms: O_3  and  C_12
    2  A    between atoms: O_3  and  C_29
    3  A    between atoms: N_6  and  C_30
    4  A    between atoms: C_9  and  C_16
    5  A    between atoms: C_9  and  C_19
    6  A    between atoms: N_13  and  C_16
    7  A    between atoms: N_15  and  C_19
    8  A    between atoms: N_15  and  C_40
    9  A    between atoms: C_17  and  C_22
   10  A    between atoms: C_21  and  O_32
   11  A    between atoms: C_22  and  O_39
   12  A    between atoms: C_31  and  O_32
   13  A    between atoms: C_31  and  O_39
                            x       y       z     vdW  Elec       q    Type
                         _______ _______ _______ _____ _____    ______ ____

>  <TORSDO>
F 13

$$$$
=
 OpenBabel11042410383D

 44 48  0  0  1  0  0  0  0  0999 V2000
  191.1370  176.5920  138.2770 C   0  0  1  0  0  3  0  0  0  0  0  0
  188.6130  176.7750  137.9730 N   0  0  0  0  0  0  0  0  0  0  0  0
  190.5740  178.2320  140.0930 C   0  0  0  0  0  2  0  0  0  0  0  0
  192.2500  175.7680  137.7620 N   0  0  0  0  0  0  0  0  0  0  0  0
  193.5100  177.2000  139.2040 O   0  0  0  0  0  0  0  0  0  0  0  0
  193.5390  176.0320  138.4260 C   0  0  0  0  0  2  0  0  0  0  0  0
  189.0520  178.2530  139.9180 C   0  0  1  0  0  3  0  0  0  0  0  0
  192.6560  176.8980  140.2700 C   0  0  0  0  0  2  0  0  0  0  0  0
  189.7280  174.7380  137.7110 O   0  0  0  0  0  0  0  0  0  0  0  0
  189.8050  175.9750  137.9510 C   0  0  0  0  0  0  0  0  0  0  0  0
  188.6420  178.1620  138.4460 C   0  0  0  0  0  2  0  0  0  0  0  0
  191.2100  176.8770  139.7880 C   0  0  2  0  0  3  0  0  0  0  0  0
  187.4170  176.1990  135.8930 C   0  0  0  0  0  2  0  0  0  0  0  0
  186.1660  176.9730  137.9240 C   0  0  0  0  0  3  0  0  0  0  0  0
  186.0720  175.8150  135.3410 C   0  0  0  0  0  3  0  0  0  0  0  0
  184.9380  176.1890  135.9580 C   0  0  0  0  0  0  0  0  0  0  0  0
  187.3760  176.2250  137.4240 C   0  0  2  0  0  3  0  0  0  0  0  0
  185.0190  176.9160  137.2410 C   0  0  0  0  0  3  0  0  0  0  0  0
  183.6670  175.9110  135.4300 O   0  0  0  0  0  0  0  0  0  0  0  0
  182.9150  174.7470  135.6420 C   0  0  0  0  0  0  0  0  0  0  0  0
  181.6250  174.8890  135.9290 C   0  0  0  0  0  2  0  0  0  0  0  0
  183.5180  173.4790  135.5470 O   0  0  0  0  0  0  0  0  0  0  0  0
  183.3160  171.5090  136.7690 O   0  0  0  0  0  0  0  0  0  0  0  0
  183.8640  172.6320  136.6110 C   0  0  0  0  0  0  0  0  0  0  0  0
  184.8780  173.0910  137.5980 C   0  0  0  0  0  2  0  0  0  0  0  0
  186.2550  172.6190  137.1770 C   0  0  0  0  0  1  0  0  0  0  0  0
  188.4160  177.2400  140.6960 O   0  0  0  0  0  0  0  0  0  0  0  0
  189.1810  176.9740  144.3510 C   0  0  0  0  0  3  0  0  0  0  0  0
  188.2810  177.3080  142.0860 C   0  0  0  0  0  0  0  0  0  0  0  0
  187.0750  177.8020  142.6230 C   0  0  0  0  0  3  0  0  0  0  0  0
  185.9120  178.2960  144.7290 N   0  0  0  0  0  0  0  0  0  0  0  0
  187.9730  177.4650  144.8340 C   0  0  0  0  0  0  0  0  0  0  0  0
  188.2010  177.4060  147.3820 C   0  0  0  0  0  1  0  0  0  0  0  0
  189.3280  176.8980  142.9540 C   0  0  0  0  0  3  0  0  0  0  0  0
  186.9610  177.8630  144.0080 C   0  0  0  0  0  0  0  0  0  0  0  0
  186.2400  178.1800  146.0140 N   0  0  0  0  0  2  0  0  0  0  0  0
  187.4920  177.6750  146.1020 C   0  0  0  0  0  0  0  0  0  0  0  0
  192.4300  176.1260  136.3620 C   0  0  0  0  0  2  0  0  0  0  0  0
  193.6230  175.3790  135.7940 C   0  0  0  0  0  2  0  0  0  0  0  0
  194.4630  176.3090  134.9370 C   0  0  0  0  0  2  0  0  0  0  0  0
  195.6910  176.6630  135.6330 N   0  0  0  0  0  0  0  0  0  0  0  0
  196.5090  175.4640  135.6620 C   0  0  0  0  0  1  0  0  0  0  0  0
  195.8600  178.9570  135.0310 N   0  0  0  0  0  1  0  0  0  0  0  0
  196.4000  177.6270  134.8060 C   0  0  0  0  0  2  0  0  0  0  0  0
  1 10  1  1  0  0  0
  1 12  1  0  0  0  0
  2 11  1  0  0  0  0
  4  1  1  0  0  0  0
  4  6  1  0  0  0  0
  5  8  1  0  0  0  0
  6  5  1  0  0  0  0
  7  3  1  0  0  0  0
  7 27  1  1  0  0  0
  9 10  2  0  0  0  0
 10  2  1  0  0  0  0
 11  7  1  0  0  0  0
 12  3  1  6  0  0  0
 12  8  1  0  0  0  0
 15 13  1  0  0  0  0
 15 16  2  0  0  0  0
 16 18  1  0  0  0  0
 17 13  1  6  0  0  0
 17 14  1  0  0  0  0
 17  2  1  0  0  0  0
 18 14  2  0  0  0  0
 19 20  1  0  0  0  0
 19 16  1  0  0  0  0
 20 21  2  0  0  0  0
 22 20  1  0  0  0  0
 22 24  1  0  0  0  0
 24 23  2  0  0  0  0
 24 25  1  0  0  0  0
 26 25  1  0  0  0  0
 27 29  1  0  0  0  0
 28 32  1  0  0  0  0
 29 30  2  0  0  0  0
 29 34  1  0  0  0  0
 30 35  1  0  0  0  0
 31 36  1  0  0  0  0
 32 37  2  0  0  0  0
 34 28  2  0  0  0  0
 35 31  2  0  0  0  0
 35 32  1  0  0  0  0
 36 37  1  0  0  0  0
 37 33  1  0  0  0  0
 38  4  1  0  0  0  0
 39 38  1  0  0  0  0
 40 41  1  0  0  0  0
 40 39  1  0  0  0  0
 41 42  1  0  0  0  0
 44 43  1  0  0  0  0
 44 41  1  0  0  0  0
M  END
>  <MODEL>
8

>  <REMARK>
 VINA RESULT:      -6.7      3.939      8.523
  Name = 
  13 active torsions:
  status: ('A' for Active; 'I' for Inactive)
    1  A    between atoms: O_3  and  C_12
    2  A    between atoms: O_3  and  C_29
    3  A    between atoms: N_6  and  C_30
    4  A    between atoms: C_9  and  C_16
    5  A    between atoms: C_9  and  C_19
    6  A    between atoms: N_13  and  C_16
    7  A    between atoms: N_15  and  C_19
    8  A    between atoms: N_15  and  C_40
    9  A    between atoms: C_17  and  C_22
   10  A    between atoms: C_21  and  O_32
   11  A    between atoms: C_22  and  O_39
   12  A    between atoms: C_31  and  O_32
   13  A    between atoms: C_31  and  O_39
                            x       y       z     vdW  Elec       q    Type
                         _______ _______ _______ _____ _____    ______ ____

>  <TORSDO>
F 13

$$$$
=
 OpenBabel11042410383D

 44 48  0  0  1  0  0  0  0  0999 V2000
  184.9950  178.4110  143.4000 C   0  0  1  0  0  3  0  0  0  0  0  0
  187.3730  177.7240  142.7900 N   0  0  0  0  0  0  0  0  0  0  0  0
  185.6550  177.1580  145.4720 C   0  0  0  0  0  2  0  0  0  0  0  0
  183.9270  179.2780  142.8580 N   0  0  0  0  0  0  0  0  0  0  0  0
  182.7730  178.4570  144.7850 O   0  0  0  0  0  0  0  0  0  0  0  0
  182.7590  179.4030  143.7470 C   0  0  0  0  0  2  0  0  0  0  0  0
  187.1030  176.8310  145.0900 C   0  0  1  0  0  3  0  0  0  0  0  0
  183.8400  178.8410  145.6030 C   0  0  0  0  0  2  0  0  0  0  0  0
  186.5120  179.8100  142.1820 O   0  0  0  0  0  0  0  0  0  0  0  0
  186.3160  178.6940  142.7380 C   0  0  0  0  0  0  0  0  0  0  0  0
  187.2440  176.5090  143.6000 C   0  0  0  0  0  2  0  0  0  0  0  0
  185.1630  178.4970  144.9270 C   0  0  2  0  0  3  0  0  0  0  0  0
  188.1770  177.8530  140.4610 C   0  0  0  0  0  2  0  0  0  0  0  0
  189.6300  176.9080  142.2730 C   0  0  0  0  0  3  0  0  0  0  0  0
  189.4180  177.8500  139.6110 C   0  0  0  0  0  3  0  0  0  0  0  0
  190.5390  177.2370  140.0250 C   0  0  0  0  0  0  0  0  0  0  0  0
  188.5510  177.9080  141.9460 C   0  0  2  0  0  3  0  0  0  0  0  0
  190.5770  176.6310  141.3730 C   0  0  0  0  0  3  0  0  0  0  0  0
  191.6900  177.1500  139.2250 O   0  0  0  0  0  0  0  0  0  0  0  0
  191.9700  176.1570  138.2760 C   0  0  0  0  0  0  0  0  0  0  0  0
  193.0090  176.3490  137.4700 C   0  0  0  0  0  2  0  0  0  0  0  0
  191.1710  175.0020  138.1940 O   0  0  0  0  0  0  0  0  0  0  0  0
  190.8520  173.3750  136.5600 O   0  0  0  0  0  0  0  0  0  0  0  0
  190.5430  174.4950  137.0450 C   0  0  0  0  0  0  0  0  0  0  0  0
  189.5100  175.3220  136.3640 C   0  0  0  0  0  2  0  0  0  0  0  0
  188.2470  175.3570  137.2000 C   0  0  0  0  0  1  0  0  0  0  0  0
  188.0010  177.8670  145.4830 O   0  0  0  0  0  0  0  0  0  0  0  0
  190.2790  178.1080  148.4440 C   0  0  0  0  0  3  0  0  0  0  0  0
  189.0870  177.6610  146.3390 C   0  0  0  0  0  0  0  0  0  0  0  0
  190.1000  176.7650  145.9400 C   0  0  0  0  0  3  0  0  0  0  0  0
  192.2380  175.7740  146.6310 N   0  0  0  0  0  0  0  0  0  0  0  0
  191.2540  177.2190  148.0060 C   0  0  0  0  0  0  0  0  0  0  0  0
  192.9970  177.1690  149.8780 C   0  0  0  0  0  1  0  0  0  0  0  0
  189.1820  178.3260  147.5900 C   0  0  0  0  0  3  0  0  0  0  0  0
  191.1710  176.5730  146.8060 C   0  0  0  0  0  0  0  0  0  0  0  0
  193.0080  175.8990  147.7100 N   0  0  0  0  0  2  0  0  0  0  0  0
  192.4270  176.7750  148.5610 C   0  0  0  0  0  0  0  0  0  0  0  0
  183.4470  178.6470  141.6370 C   0  0  0  0  0  2  0  0  0  0  0  0
  181.9290  178.6360  141.6310 C   0  0  0  0  0  2  0  0  0  0  0  0
  181.4080  179.1960  140.3200 C   0  0  0  0  0  2  0  0  0  0  0  0
  182.3760  178.9710  139.2560 N   0  0  0  0  0  0  0  0  0  0  0  0
  181.6720  178.2670  138.2000 C   0  0  0  0  0  1  0  0  0  0  0  0
  184.1780  180.4570  138.8120 N   0  0  0  0  0  1  0  0  0  0  0  0
  182.7410  180.2700  138.7150 C   0  0  0  0  0  2  0  0  0  0  0  0
  1 10  1  6  0  0  0
  1 12  1  0  0  0  0
  2 11  1  0  0  0  0
  4  1  1  0  0  0  0
  4  6  1  0  0  0  0
  5  8  1  0  0  0  0
  6  5  1  0  0  0  0
  7  3  1  0  0  0  0
  7 27  1  6  0  0  0
  9 10  2  0  0  0  0
 10  2  1  0  0  0  0
 11  7  1  0  0  0  0
 12  3  1  1  0  0  0
 12  8  1  0  0  0  0
 15 16  2  0  0  0  0
 15 13  1  0  0  0  0
 16 18  1  0  0  0  0
 17 13  1  6  0  0  0
 17 14  1  0  0  0  0
 17  2  1  0  0  0  0
 18 14  2  0  0  0  0
 19 16  1  0  0  0  0
 20 19  1  0  0  0  0
 21 20  2  0  0  0  0
 22 20  1  0  0  0  0
 23 24  2  0  0  0  0
 24 22  1  0  0  0  0
 25 24  1  0  0  0  0
 25 26  1  0  0  0  0
 27 29  1  0  0  0  0
 29 34  1  0  0  0  0
 30 29  2  0  0  0  0
 30 35  1  0  0  0  0
 31 35  2  0  0  0  0
 31 36  1  0  0  0  0
 32 28  1  0  0  0  0
 32 37  2  0  0  0  0
 34 28  2  0  0  0  0
 35 32  1  0  0  0  0
 36 37  1  0  0  0  0
 37 33  1  0  0  0  0
 38  4  1  0  0  0  0
 39 38  1  0  0  0  0
 40 39  1  0  0  0  0
 41 40  1  0  0  0  0
 42 41  1  0  0  0  0
 44 43  1  0  0  0  0
 44 41  1  0  0  0  0
M  END
>  <MODEL>
9

>  <REMARK>
 VINA RESULT:      -6.6      1.774      7.902
  Name = 
  13 active torsions:
  status: ('A' for Active; 'I' for Inactive)
    1  A    between atoms: O_3  and  C_12
    2  A    between atoms: O_3  and  C_29
    3  A    between atoms: N_6  and  C_30
    4  A    between atoms: C_9  and  C_16
    5  A    between atoms: C_9  and  C_19
    6  A    between atoms: N_13  and  C_16
    7  A    between atoms: N_15  and  C_19
    8  A    between atoms: N_15  and  C_40
    9  A    between atoms: C_17  and  C_22
   10  A    between atoms: C_21  and  O_32
   11  A    between atoms: C_22  and  O_39
   12  A    between atoms: C_31  and  O_32
   13  A    between atoms: C_31  and  O_39
                            x       y       z     vdW  Elec       q    Type
                         _______ _______ _______ _____ _____    ______ ____

>  <TORSDO>
F 13

$$$$
