=
 OpenBabel11032420323D

 33 34  0  0  1  0  0  0  0  0999 V2000
  189.1670  177.8890  139.8290 C   0  0  1  0  0  3  0  0  0  0  0  0
  190.1930  176.9240  140.3510 C   0  0  0  0  0  0  0  0  0  0  0  0
  190.7310  176.0990  139.5610 O   0  0  0  0  0  0  0  0  0  0  0  0
  190.1420  175.9510  142.6510 C   0  0  0  0  0  3  0  0  0  0  0  0
  190.5100  175.9750  143.9610 N   0  0  0  0  0  0  0  0  0  0  0  0
  191.3130  176.9480  144.4680 C   0  0  0  0  0  0  0  0  0  0  0  0
  190.5880  176.9470  141.7730 C   0  0  0  0  0  0  0  0  0  0  0  0
  191.7780  177.9650  143.6230 C   0  0  0  0  0  3  0  0  0  0  0  0
  191.4120  177.9600  142.2770 C   0  0  0  0  0  3  0  0  0  0  0  0
  191.6630  176.9060  145.8590 N   0  0  0  0  0  2  0  0  0  0  0  0
  192.4990  175.9270  148.0230 C   0  0  0  0  0  1  0  0  0  0  0  0
  192.2050  175.7890  146.5740 C   0  0  0  0  0  0  0  0  0  0  0  0
  192.4350  174.6920  145.9990 O   0  0  0  0  0  0  0  0  0  0  0  0
  188.5150  177.3990  138.5340 C   0  0  0  0  0  2  0  0  0  0  0  0
  188.4780  178.4700  137.4550 C   0  0  0  0  0  2  0  0  0  0  0  0
  187.7160  177.9510  136.2520 C   0  0  0  0  0  2  0  0  0  0  0  0
  186.3500  177.4440  136.6760 C   0  0  0  0  0  2  0  0  0  0  0  0
  185.5200  177.3250  135.5600 O   0  0  0  0  0  1  0  0  0  0  0  0
  188.1500  178.2620  140.9000 C   0  0  0  0  0  2  0  0  0  0  0  0
  186.8810  178.6070  140.2830 N   0  0  0  0  0  2  0  0  0  0  0  0
  186.0190  179.0950  141.3460 C   0  0  0  0  0  2  0  0  0  0  0  0
  184.5900  178.6280  141.1170 C   0  0  0  0  0  2  0  0  0  0  0  0
  183.7890  178.6400  142.4100 C   0  0  0  0  0  2  0  0  0  0  0  0
  184.4980  179.4650  143.4660 C   0  0  0  0  0  2  0  0  0  0  0  0
  184.2010  178.8880  144.8380 C   0  0  0  0  0  2  0  0  0  0  0  0
  187.7380  177.5470  145.5340 C   0  0  0  0  0  2  0  0  0  0  0  0
  186.4130  177.8340  144.8780 C   0  0  0  0  0  3  0  0  0  0  0  0
  185.6930  178.9480  146.9270 C   0  0  0  0  0  3  0  0  0  0  0  0
  187.5620  177.3430  147.0460 C   0  0  2  0  0  3  0  0  0  0  0  0
  185.4710  178.5280  145.5280 C   0  0  0  0  0  0  0  0  0  0  0  0
  186.6990  178.4250  147.6360 C   0  0  0  0  0  3  0  0  0  0  0  0
  188.8870  177.3200  147.7330 C   0  0  0  0  0  3  0  0  0  0  0  0
  189.3250  178.3630  148.3350 N   0  0  0  0  0  2  0  0  0  0  0  0
  1 14  1  6  0  0  0
  1  2  1  0  0  0  0
  1 19  1  0  0  0  0
  2  7  1  0  0  0  0
  3  2  2  0  0  0  0
  4  5  1  0  0  0  0
  5  6  2  0  0  0  0
  6 10  1  0  0  0  0
  7  9  1  0  0  0  0
  7  4  2  0  0  0  0
  8  6  1  0  0  0  0
  9  8  2  0  0  0  0
 10 12  1  0  0  0  0
 12 11  1  0  0  0  0
 13 12  2  0  0  0  0
 15 14  1  0  0  0  0
 16 17  1  0  0  0  0
 16 15  1  0  0  0  0
 18 17  1  0  0  0  0
 20 19  1  0  0  0  0
 20 21  1  0  0  0  0
 22 21  1  0  0  0  0
 22 23  1  0  0  0  0
 23 24  1  0  0  0  0
 24 25  1  0  0  0  0
 25 30  1  0  0  0  0
 26 29  1  0  0  0  0
 27 30  2  0  0  0  0
 27 26  1  0  0  0  0
 28 31  2  0  0  0  0
 29 31  1  0  0  0  0
 29 32  1  1  0  0  0
 30 28  1  0  0  0  0
 32 33  2  0  0  0  0
M  END
>  <MODEL>
1

>  <REMARK>
 VINA RESULT:      -7.8      0.000      0.000
  Name = 
  16 active torsions:
  status: ('A' for Active; 'I' for Inactive)
    1  A    between atoms: C_1  and  C_21
    2  A    between atoms: N_3  and  C_13
    3  A    between atoms: C_4  and  C_9
    4  A    between atoms: C_4  and  C_24
    5  A    between atoms: C_6  and  C_26
    6  A    between atoms: C_6  and  C_30
    7  A    between atoms: C_8  and  C_29
    8  A    between atoms: C_8  and  C_30
    9  A    between atoms: C_9  and  C_27
   10  A    between atoms: C_12  and  C_17
   11  A    between atoms: C_12  and  C_27
   12  A    between atoms: C_15  and  N_19
   13  A    between atoms: C_15  and  C_27
   14  A    between atoms: N_19  and  C_26
   15  A    between atoms: C_20  and  C_24
   16  A    between atoms: C_25  and  C_29
                            x       y       z     vdW  Elec       q    Type
                         _______ _______ _______ _____ _____    ______ ____

>  <TORSDO>
F 16

$$$$
=
 OpenBabel11032420323D

 33 34  0  0  1  0  0  0  0  0999 V2000
  188.5270  177.5560  140.6770 C   0  0  1  0  0  3  0  0  0  0  0  0
  189.2330  177.8540  139.3850 C   0  0  0  0  0  0  0  0  0  0  0  0
  189.0280  178.9540  138.8020 O   0  0  0  0  0  0  0  0  0  0  0  0
  189.7060  175.7240  138.1670 C   0  0  0  0  0  3  0  0  0  0  0  0
  190.5800  174.8290  137.6330 N   0  0  0  0  0  0  0  0  0  0  0  0
  191.9270  175.0100  137.6920 C   0  0  0  0  0  0  0  0  0  0  0  0
  190.1780  176.8790  138.8050 C   0  0  0  0  0  0  0  0  0  0  0  0
  192.4390  176.1510  138.3250 C   0  0  0  0  0  3  0  0  0  0  0  0
  191.5610  177.0820  138.8800 C   0  0  0  0  0  3  0  0  0  0  0  0
  192.7870  174.0250  137.1030 N   0  0  0  0  0  2  0  0  0  0  0  0
  194.8860  172.6820  136.7370 C   0  0  0  0  0  1  0  0  0  0  0  0
  194.1410  173.7370  137.4710 C   0  0  0  0  0  0  0  0  0  0  0  0
  194.7150  174.3630  138.4020 O   0  0  0  0  0  0  0  0  0  0  0  0
  189.4720  177.6100  141.8790 C   0  0  0  0  0  2  0  0  0  0  0  0
  189.8500  176.2270  142.3890 C   0  0  0  0  0  2  0  0  0  0  0  0
  191.1380  176.3150  143.1840 C   0  0  0  0  0  2  0  0  0  0  0  0
  191.8780  177.5940  142.8410 C   0  0  0  0  0  2  0  0  0  0  0  0
  191.9190  178.4340  143.9570 O   0  0  0  0  0  1  0  0  0  0  0  0
  187.2910  178.4280  140.8560 C   0  0  0  0  0  2  0  0  0  0  0  0
  186.9380  178.5080  142.2630 N   0  0  0  0  0  2  0  0  0  0  0  0
  185.6390  179.1560  142.3310 C   0  0  0  0  0  2  0  0  0  0  0  0
  184.6260  178.2300  142.9850 C   0  0  0  0  0  2  0  0  0  0  0  0
  184.0910  178.8200  144.2810 C   0  0  0  0  0  2  0  0  0  0  0  0
  185.2340  179.2370  145.1860 C   0  0  0  0  0  2  0  0  0  0  0  0
  185.4000  178.2120  146.2920 C   0  0  0  0  0  2  0  0  0  0  0  0
  189.1420  177.4620  145.8210 C   0  0  0  0  0  2  0  0  0  0  0  0
  187.6630  177.6050  145.5750 C   0  0  0  0  0  3  0  0  0  0  0  0
  187.3770  178.1830  147.9310 C   0  0  0  0  0  3  0  0  0  0  0  0
  189.4110  176.9640  147.2480 C   0  0  2  0  0  3  0  0  0  0  0  0
  186.8450  177.9820  146.5670 C   0  0  0  0  0  0  0  0  0  0  0  0
  188.5990  177.7420  148.2480 C   0  0  0  0  0  3  0  0  0  0  0  0
  190.8620  177.0710  147.5800 C   0  0  0  0  0  3  0  0  0  0  0  0
  191.7490  176.6240  146.7690 N   0  0  0  0  0  2  0  0  0  0  0  0
  1 19  1  1  0  0  0
  1 14  1  0  0  0  0
  2  1  1  0  0  0  0
  3  2  2  0  0  0  0
  4  7  2  0  0  0  0
  5  6  2  0  0  0  0
  5  4  1  0  0  0  0
  6  8  1  0  0  0  0
  7  9  1  0  0  0  0
  7  2  1  0  0  0  0
  8  9  2  0  0  0  0
 10 12  1  0  0  0  0
 10  6  1  0  0  0  0
 11 12  1  0  0  0  0
 12 13  2  0  0  0  0
 14 15  1  0  0  0  0
 15 16  1  0  0  0  0
 17 16  1  0  0  0  0
 17 18  1  0  0  0  0
 19 20  1  0  0  0  0
 20 21  1  0  0  0  0
 21 22  1  0  0  0  0
 22 23  1  0  0  0  0
 23 24  1  0  0  0  0
 24 25  1  0  0  0  0
 25 30  1  0  0  0  0
 26 29  1  0  0  0  0
 27 26  1  0  0  0  0
 27 30  2  0  0  0  0
 28 31  2  0  0  0  0
 29 32  1  1  0  0  0
 29 31  1  0  0  0  0
 30 28  1  0  0  0  0
 33 32  2  0  0  0  0
M  END
>  <MODEL>
2

>  <REMARK>
 VINA RESULT:      -7.7      2.945      5.243
  Name = 
  16 active torsions:
  status: ('A' for Active; 'I' for Inactive)
    1  A    between atoms: C_1  and  C_21
    2  A    between atoms: N_3  and  C_13
    3  A    between atoms: C_4  and  C_9
    4  A    between atoms: C_4  and  C_24
    5  A    between atoms: C_6  and  C_26
    6  A    between atoms: C_6  and  C_30
    7  A    between atoms: C_8  and  C_29
    8  A    between atoms: C_8  and  C_30
    9  A    between atoms: C_9  and  C_27
   10  A    between atoms: C_12  and  C_17
   11  A    between atoms: C_12  and  C_27
   12  A    between atoms: C_15  and  N_19
   13  A    between atoms: C_15  and  C_27
   14  A    between atoms: N_19  and  C_26
   15  A    between atoms: C_20  and  C_24
   16  A    between atoms: C_25  and  C_29
                            x       y       z     vdW  Elec       q    Type
                         _______ _______ _______ _____ _____    ______ ____

>  <TORSDO>
F 16

$$$$
=
 OpenBabel11032420323D

 33 34  0  0  1  0  0  0  0  0999 V2000
  190.1620  177.3210  144.7630 C   0  0  1  0  0  3  0  0  0  0  0  0
  190.5020  178.2510  143.6330 C   0  0  0  0  0  0  0  0  0  0  0  0
  191.3180  179.1950  143.8270 O   0  0  0  0  0  0  0  0  0  0  0  0
  190.6430  177.4420  141.2740 C   0  0  0  0  0  3  0  0  0  0  0  0
  190.0910  177.2620  140.0440 N   0  0  0  0  0  0  0  0  0  0  0  0
  188.8230  177.6630  139.7550 C   0  0  0  0  0  0  0  0  0  0  0  0
  189.9080  178.0550  142.2970 C   0  0  0  0  0  0  0  0  0  0  0  0
  188.0560  178.2840  140.7500 C   0  0  0  0  0  3  0  0  0  0  0  0
  188.6020  178.4780  142.0180 C   0  0  0  0  0  3  0  0  0  0  0  0
  188.3060  177.4360  138.4360 N   0  0  0  0  0  2  0  0  0  0  0  0
  187.7690  177.9310  136.0260 C   0  0  0  0  0  1  0  0  0  0  0  0
  188.3710  178.3350  137.3230 C   0  0  0  0  0  0  0  0  0  0  0  0
  188.9260  179.4620  137.4210 O   0  0  0  0  0  0  0  0  0  0  0  0
  191.3300  177.1360  145.7340 C   0  0  0  0  0  2  0  0  0  0  0  0
  191.9880  175.7710  145.6030 C   0  0  0  0  0  2  0  0  0  0  0  0
  192.3060  175.2280  146.9830 C   0  0  0  0  0  2  0  0  0  0  0  0
  192.1220  176.3140  148.0270 C   0  0  0  0  0  2  0  0  0  0  0  0
  193.2890  176.4510  148.7810 O   0  0  0  0  0  1  0  0  0  0  0  0
  188.8710  177.7340  145.4610 C   0  0  0  0  0  2  0  0  0  0  0  0
  188.7900  177.1060  146.7690 N   0  0  0  0  0  2  0  0  0  0  0  0
  188.3160  178.1240  147.6900 C   0  0  0  0  0  2  0  0  0  0  0  0
  186.8080  178.0210  147.8530 C   0  0  0  0  0  2  0  0  0  0  0  0
  186.0870  179.0740  147.0240 C   0  0  0  0  0  2  0  0  0  0  0  0
  185.0120  178.4320  146.1700 C   0  0  0  0  0  2  0  0  0  0  0  0
  185.4940  178.3510  144.7330 C   0  0  0  0  0  2  0  0  0  0  0  0
  182.0150  179.2280  143.3480 C   0  0  0  0  0  2  0  0  0  0  0  0
  183.1410  178.8630  144.2790 C   0  0  0  0  0  3  0  0  0  0  0  0
  184.6050  178.6260  142.3390 C   0  0  0  0  0  3  0  0  0  0  0  0
  182.1640  178.5010  142.0040 C   0  0  2  0  0  3  0  0  0  0  0  0
  184.3660  178.6190  143.7970 C   0  0  0  0  0  0  0  0  0  0  0  0
  183.5740  178.6110  141.4880 C   0  0  0  0  0  3  0  0  0  0  0  0
  181.2110  179.0520  140.9970 C   0  0  0  0  0  3  0  0  0  0  0  0
  180.2340  179.7960  141.3650 N   0  0  0  0  0  2  0  0  0  0  0  0
  1 19  1  1  0  0  0
  1 14  1  0  0  0  0
  2  3  2  0  0  0  0
  2  1  1  0  0  0  0
  4  7  2  0  0  0  0
  5  4  1  0  0  0  0
  6  5  2  0  0  0  0
  6  8  1  0  0  0  0
  7  2  1  0  0  0  0
  8  9  2  0  0  0  0
  9  7  1  0  0  0  0
 10  6  1  0  0  0  0
 11 12  1  0  0  0  0
 12 13  2  0  0  0  0
 12 10  1  0  0  0  0
 15 14  1  0  0  0  0
 15 16  1  0  0  0  0
 16 17  1  0  0  0  0
 17 18  1  0  0  0  0
 19 20  1  0  0  0  0
 20 21  1  0  0  0  0
 21 22  1  0  0  0  0
 23 22  1  0  0  0  0
 24 23  1  0  0  0  0
 25 24  1  0  0  0  0
 26 27  1  0  0  0  0
 28 30  1  0  0  0  0
 29 32  1  6  0  0  0
 29 26  1  0  0  0  0
 30 27  2  0  0  0  0
 30 25  1  0  0  0  0
 31 29  1  0  0  0  0
 31 28  2  0  0  0  0
 32 33  2  0  0  0  0
M  END
>  <MODEL>
3

>  <REMARK>
 VINA RESULT:      -7.6      2.214      7.623
  Name = 
  16 active torsions:
  status: ('A' for Active; 'I' for Inactive)
    1  A    between atoms: C_1  and  C_21
    2  A    between atoms: N_3  and  C_13
    3  A    between atoms: C_4  and  C_9
    4  A    between atoms: C_4  and  C_24
    5  A    between atoms: C_6  and  C_26
    6  A    between atoms: C_6  and  C_30
    7  A    between atoms: C_8  and  C_29
    8  A    between atoms: C_8  and  C_30
    9  A    between atoms: C_9  and  C_27
   10  A    between atoms: C_12  and  C_17
   11  A    between atoms: C_12  and  C_27
   12  A    between atoms: C_15  and  N_19
   13  A    between atoms: C_15  and  C_27
   14  A    between atoms: N_19  and  C_26
   15  A    between atoms: C_20  and  C_24
   16  A    between atoms: C_25  and  C_29
                            x       y       z     vdW  Elec       q    Type
                         _______ _______ _______ _____ _____    ______ ____

>  <TORSDO>
F 16

$$$$
=
 OpenBabel11032420323D

 33 34  0  0  1  0  0  0  0  0999 V2000
  187.7920  177.7230  137.1900 C   0  0  1  0  0  3  0  0  0  0  0  0
  188.6710  178.5920  138.0430 C   0  0  0  0  0  0  0  0  0  0  0  0
  189.0180  179.7310  137.6240 O   0  0  0  0  0  0  0  0  0  0  0  0
  190.3390  177.4680  139.5250 C   0  0  0  0  0  3  0  0  0  0  0  0
  190.7440  177.0470  140.7540 N   0  0  0  0  0  0  0  0  0  0  0  0
  189.9940  177.2490  141.8710 C   0  0  0  0  0  0  0  0  0  0  0  0
  189.1150  178.1320  139.3740 C   0  0  0  0  0  0  0  0  0  0  0  0
  188.7620  177.9060  141.7610 C   0  0  0  0  0  3  0  0  0  0  0  0
  188.3260  178.3450  140.5110 C   0  0  0  0  0  3  0  0  0  0  0  0
  190.4890  176.7800  143.1340 N   0  0  0  0  0  2  0  0  0  0  0  0
  191.5750  176.9040  145.4030 C   0  0  0  0  0  1  0  0  0  0  0  0
  191.1140  177.5660  144.1560 C   0  0  0  0  0  0  0  0  0  0  0  0
  191.2830  178.8070  144.0170 O   0  0  0  0  0  0  0  0  0  0  0  0
  188.4070  176.3450  136.9390 C   0  0  0  0  0  2  0  0  0  0  0  0
  189.1360  176.2630  135.6070 C   0  0  0  0  0  2  0  0  0  0  0  0
  190.0410  175.0460  135.5980 C   0  0  0  0  0  2  0  0  0  0  0  0
  189.5060  173.9910  136.5480 C   0  0  0  0  0  2  0  0  0  0  0  0
  190.4280  173.7620  137.5710 O   0  0  0  0  0  1  0  0  0  0  0  0
  186.3730  177.6470  137.7410 C   0  0  0  0  0  2  0  0  0  0  0  0
  185.8930  178.9790  138.0660 N   0  0  0  0  0  2  0  0  0  0  0  0
  184.6280  178.8090  138.7590 C   0  0  0  0  0  2  0  0  0  0  0  0
  184.8510  178.8160  140.2640 C   0  0  0  0  0  2  0  0  0  0  0  0
  183.5930  178.4050  141.0130 C   0  0  0  0  0  2  0  0  0  0  0  0
  183.9010  178.1640  142.4770 C   0  0  0  0  0  2  0  0  0  0  0  0
  184.9530  179.1560  142.9400 C   0  0  0  0  0  2  0  0  0  0  0  0
  185.7280  178.6850  146.6770 C   0  0  0  0  0  2  0  0  0  0  0  0
  185.1760  179.2140  145.3790 C   0  0  0  0  0  3  0  0  0  0  0  0
  186.6160  177.6460  144.1840 C   0  0  0  0  0  3  0  0  0  0  0  0
  187.1890  178.2450  146.5070 C   0  0  2  0  0  3  0  0  0  0  0  0
  185.5720  178.6920  144.2120 C   0  0  0  0  0  0  0  0  0  0  0  0
  187.3540  177.4020  145.2710 C   0  0  0  0  0  3  0  0  0  0  0  0
  187.6540  177.4850  147.7050 C   0  0  0  0  0  3  0  0  0  0  0  0
  188.7540  176.8280  147.6710 N   0  0  0  0  0  2  0  0  0  0  0  0
  1 14  1  1  0  0  0
  1 19  1  0  0  0  0
  1  2  1  0  0  0  0
  2  7  1  0  0  0  0
  3  2  2  0  0  0  0
  4  5  1  0  0  0  0
  5  6  2  0  0  0  0
  6 10  1  0  0  0  0
  7  4  2  0  0  0  0
  7  9  1  0  0  0  0
  8  6  1  0  0  0  0
  9  8  2  0  0  0  0
 10 12  1  0  0  0  0
 12 11  1  0  0  0  0
 13 12  2  0  0  0  0
 15 14  1  0  0  0  0
 16 15  1  0  0  0  0
 16 17  1  0  0  0  0
 17 18  1  0  0  0  0
 19 20  1  0  0  0  0
 20 21  1  0  0  0  0
 21 22  1  0  0  0  0
 22 23  1  0  0  0  0
 23 24  1  0  0  0  0
 24 25  1  0  0  0  0
 25 30  1  0  0  0  0
 27 26  1  0  0  0  0
 28 30  1  0  0  0  0
 28 31  2  0  0  0  0
 29 26  1  0  0  0  0
 29 32  1  1  0  0  0
 30 27  2  0  0  0  0
 31 29  1  0  0  0  0
 33 32  2  0  0  0  0
M  END
>  <MODEL>
4

>  <REMARK>
 VINA RESULT:      -7.4      2.012      3.109
  Name = 
  16 active torsions:
  status: ('A' for Active; 'I' for Inactive)
    1  A    between atoms: C_1  and  C_21
    2  A    between atoms: N_3  and  C_13
    3  A    between atoms: C_4  and  C_9
    4  A    between atoms: C_4  and  C_24
    5  A    between atoms: C_6  and  C_26
    6  A    between atoms: C_6  and  C_30
    7  A    between atoms: C_8  and  C_29
    8  A    between atoms: C_8  and  C_30
    9  A    between atoms: C_9  and  C_27
   10  A    between atoms: C_12  and  C_17
   11  A    between atoms: C_12  and  C_27
   12  A    between atoms: C_15  and  N_19
   13  A    between atoms: C_15  and  C_27
   14  A    between atoms: N_19  and  C_26
   15  A    between atoms: C_20  and  C_24
   16  A    between atoms: C_25  and  C_29
                            x       y       z     vdW  Elec       q    Type
                         _______ _______ _______ _____ _____    ______ ____

>  <TORSDO>
F 16

$$$$
=
 OpenBabel11032420323D

 33 34  0  0  1  0  0  0  0  0999 V2000
  187.8380  177.9010  139.0440 C   0  0  1  0  0  3  0  0  0  0  0  0
  188.9370  178.3510  138.1240 C   0  0  0  0  0  0  0  0  0  0  0  0
  188.9470  179.5400  137.6980 O   0  0  0  0  0  0  0  0  0  0  0  0
  190.0740  176.9120  136.4280 C   0  0  0  0  0  3  0  0  0  0  0  0
  191.0690  176.0560  136.0700 N   0  0  0  0  0  0  0  0  0  0  0  0
  192.0330  175.6620  136.9450 C   0  0  0  0  0  0  0  0  0  0  0  0
  190.0140  177.4210  137.7310 C   0  0  0  0  0  0  0  0  0  0  0  0
  192.0060  176.1460  138.2600 C   0  0  0  0  0  3  0  0  0  0  0  0
  190.9950  177.0240  138.6480 C   0  0  0  0  0  3  0  0  0  0  0  0
  193.0540  174.7600  136.4950 N   0  0  0  0  0  2  0  0  0  0  0  0
  195.3220  174.0220  135.6850 C   0  0  0  0  0  1  0  0  0  0  0  0
  194.4010  175.0950  136.1430 C   0  0  0  0  0  0  0  0  0  0  0  0
  194.8210  176.2810  136.2100 O   0  0  0  0  0  0  0  0  0  0  0  0
  188.0270  178.4240  140.4700 C   0  0  0  0  0  2  0  0  0  0  0  0
  188.5060  177.3450  141.4300 C   0  0  0  0  0  2  0  0  0  0  0  0
  189.5650  177.9210  142.3500 C   0  0  0  0  0  2  0  0  0  0  0  0
  190.7530  176.9810  142.4320 C   0  0  0  0  0  2  0  0  0  0  0  0
  190.3220  175.6980  142.7730 O   0  0  0  0  0  1  0  0  0  0  0  0
  186.4620  178.2200  138.4730 C   0  0  0  0  0  2  0  0  0  0  0  0
  185.6940  178.9960  139.4310 N   0  0  0  0  0  2  0  0  0  0  0  0
  184.3170  178.5430  139.3270 C   0  0  0  0  0  2  0  0  0  0  0  0
  183.9180  177.7920  140.5880 C   0  0  0  0  0  2  0  0  0  0  0  0
  183.9170  178.7080  141.8020 C   0  0  0  0  0  2  0  0  0  0  0  0
  185.0310  178.3260  142.7570 C   0  0  0  0  0  2  0  0  0  0  0  0
  184.5810  178.5820  144.1840 C   0  0  0  0  0  2  0  0  0  0  0  0
  187.9710  177.5130  145.6520 C   0  0  0  0  0  2  0  0  0  0  0  0
  186.7770  177.6500  144.7440 C   0  0  0  0  0  3  0  0  0  0  0  0
  185.6760  178.9780  146.4720 C   0  0  0  0  0  3  0  0  0  0  0  0
  187.5360  177.4930  147.1240 C   0  0  2  0  0  3  0  0  0  0  0  0
  185.7170  178.3740  145.1240 C   0  0  0  0  0  0  0  0  0  0  0  0
  186.5540  178.5980  147.4070 C   0  0  0  0  0  3  0  0  0  0  0  0
  188.7170  177.6210  148.0260 C   0  0  0  0  0  3  0  0  0  0  0  0
  189.8880  177.3030  147.6130 N   0  0  0  0  0  2  0  0  0  0  0  0
  1 19  1  6  0  0  0
  1 14  1  0  0  0  0
  2  1  1  0  0  0  0
  3  2  2  0  0  0  0
  4  7  2  0  0  0  0
  5  4  1  0  0  0  0
  5  6  2  0  0  0  0
  6  8  1  0  0  0  0
  7  2  1  0  0  0  0
  7  9  1  0  0  0  0
  8  9  2  0  0  0  0
 10  6  1  0  0  0  0
 11 12  1  0  0  0  0
 12 13  2  0  0  0  0
 12 10  1  0  0  0  0
 14 15  1  0  0  0  0
 15 16  1  0  0  0  0
 16 17  1  0  0  0  0
 17 18  1  0  0  0  0
 19 20  1  0  0  0  0
 21 20  1  0  0  0  0
 21 22  1  0  0  0  0
 22 23  1  0  0  0  0
 23 24  1  0  0  0  0
 24 25  1  0  0  0  0
 25 30  1  0  0  0  0
 26 29  1  0  0  0  0
 27 30  2  0  0  0  0
 27 26  1  0  0  0  0
 28 31  2  0  0  0  0
 29 31  1  0  0  0  0
 29 32  1  1  0  0  0
 30 28  1  0  0  0  0
 33 32  2  0  0  0  0
M  END
>  <MODEL>
5

>  <REMARK>
 VINA RESULT:      -7.4      3.103      5.363
  Name = 
  16 active torsions:
  status: ('A' for Active; 'I' for Inactive)
    1  A    between atoms: C_1  and  C_21
    2  A    between atoms: N_3  and  C_13
    3  A    between atoms: C_4  and  C_9
    4  A    between atoms: C_4  and  C_24
    5  A    between atoms: C_6  and  C_26
    6  A    between atoms: C_6  and  C_30
    7  A    between atoms: C_8  and  C_29
    8  A    between atoms: C_8  and  C_30
    9  A    between atoms: C_9  and  C_27
   10  A    between atoms: C_12  and  C_17
   11  A    between atoms: C_12  and  C_27
   12  A    between atoms: C_15  and  N_19
   13  A    between atoms: C_15  and  C_27
   14  A    between atoms: N_19  and  C_26
   15  A    between atoms: C_20  and  C_24
   16  A    between atoms: C_25  and  C_29
                            x       y       z     vdW  Elec       q    Type
                         _______ _______ _______ _____ _____    ______ ____

>  <TORSDO>
F 16

$$$$
=
 OpenBabel11032420323D

 33 34  0  0  1  0  0  0  0  0999 V2000
  188.8590  178.1810  140.0930 C   0  0  1  0  0  3  0  0  0  0  0  0
  189.8240  177.1170  140.5300 C   0  0  0  0  0  0  0  0  0  0  0  0
  189.6240  176.5010  141.6130 O   0  0  0  0  0  0  0  0  0  0  0  0
  192.2400  177.3520  139.9430 C   0  0  0  0  0  3  0  0  0  0  0  0
  193.3130  177.0310  139.1690 N   0  0  0  0  0  0  0  0  0  0  0  0
  193.2210  176.1490  138.1370 C   0  0  0  0  0  0  0  0  0  0  0  0
  190.9900  176.7720  139.6930 C   0  0  0  0  0  0  0  0  0  0  0  0
  191.9870  175.5500  137.8520 C   0  0  0  0  0  3  0  0  0  0  0  0
  190.8740  175.8650  138.6320 C   0  0  0  0  0  3  0  0  0  0  0  0
  194.3970  175.8560  137.3680 N   0  0  0  0  0  2  0  0  0  0  0  0
  195.8490  175.6370  135.3220 C   0  0  0  0  0  1  0  0  0  0  0  0
  194.5540  176.0020  135.9510 C   0  0  0  0  0  0  0  0  0  0  0  0
  193.6150  176.4300  135.2280 O   0  0  0  0  0  0  0  0  0  0  0  0
  188.0910  177.7840  138.8300 C   0  0  0  0  0  2  0  0  0  0  0  0
  188.4910  178.6110  137.6170 C   0  0  0  0  0  2  0  0  0  0  0  0
  188.8180  177.6870  136.4600 C   0  0  0  0  0  2  0  0  0  0  0  0
  187.5430  177.2390  135.7720 C   0  0  0  0  0  2  0  0  0  0  0  0
  186.9230  178.3320  135.1620 O   0  0  0  0  0  1  0  0  0  0  0  0
  187.9430  178.6120  141.2320 C   0  0  0  0  0  2  0  0  0  0  0  0
  186.5770  178.7340  140.7530 N   0  0  0  0  0  2  0  0  0  0  0  0
  185.8040  179.3090  141.8410 C   0  0  0  0  0  2  0  0  0  0  0  0
  185.1750  178.2050  142.6770 C   0  0  0  0  0  2  0  0  0  0  0  0
  184.4510  178.7710  143.8890 C   0  0  0  0  0  2  0  0  0  0  0  0
  185.4320  179.0490  145.0110 C   0  0  0  0  0  2  0  0  0  0  0  0
  185.7810  177.7460  145.7080 C   0  0  0  0  0  2  0  0  0  0  0  0
  189.5500  177.4380  145.0080 C   0  0  0  0  0  2  0  0  0  0  0  0
  188.0530  177.4470  144.8400 C   0  0  0  0  0  3  0  0  0  0  0  0
  187.8340  177.7740  147.2500 C   0  0  0  0  0  3  0  0  0  0  0  0
  189.9410  176.8420  146.3680 C   0  0  2  0  0  3  0  0  0  0  0  0
  187.2550  177.6450  145.8970 C   0  0  0  0  0  0  0  0  0  0  0  0
  189.1090  177.4360  147.4720 C   0  0  0  0  0  3  0  0  0  0  0  0
  191.3900  177.0680  146.6460 C   0  0  0  0  0  3  0  0  0  0  0  0
  192.0200  176.3110  147.4660 N   0  0  0  0  0  2  0  0  0  0  0  0
  1 14  1  6  0  0  0
  1  2  1  0  0  0  0
  1 19  1  0  0  0  0
  2  3  2  0  0  0  0
  5  4  1  0  0  0  0
  6  5  2  0  0  0  0
  7  4  2  0  0  0  0
  7  2  1  0  0  0  0
  8  6  1  0  0  0  0
  8  9  2  0  0  0  0
  9  7  1  0  0  0  0
 10  6  1  0  0  0  0
 11 12  1  0  0  0  0
 12 10  1  0  0  0  0
 13 12  2  0  0  0  0
 15 14  1  0  0  0  0
 16 15  1  0  0  0  0
 17 16  1  0  0  0  0
 18 17  1  0  0  0  0
 20 19  1  0  0  0  0
 20 21  1  0  0  0  0
 21 22  1  0  0  0  0
 22 23  1  0  0  0  0
 23 24  1  0  0  0  0
 24 25  1  0  0  0  0
 25 30  1  0  0  0  0
 26 29  1  0  0  0  0
 27 26  1  0  0  0  0
 27 30  2  0  0  0  0
 28 31  2  0  0  0  0
 29 32  1  1  0  0  0
 29 31  1  0  0  0  0
 30 28  1  0  0  0  0
 32 33  2  0  0  0  0
M  END
>  <MODEL>
6

>  <REMARK>
 VINA RESULT:      -7.3      2.926      4.674
  Name = 
  16 active torsions:
  status: ('A' for Active; 'I' for Inactive)
    1  A    between atoms: C_1  and  C_21
    2  A    between atoms: N_3  and  C_13
    3  A    between atoms: C_4  and  C_9
    4  A    between atoms: C_4  and  C_24
    5  A    between atoms: C_6  and  C_26
    6  A    between atoms: C_6  and  C_30
    7  A    between atoms: C_8  and  C_29
    8  A    between atoms: C_8  and  C_30
    9  A    between atoms: C_9  and  C_27
   10  A    between atoms: C_12  and  C_17
   11  A    between atoms: C_12  and  C_27
   12  A    between atoms: C_15  and  N_19
   13  A    between atoms: C_15  and  C_27
   14  A    between atoms: N_19  and  C_26
   15  A    between atoms: C_20  and  C_24
   16  A    between atoms: C_25  and  C_29
                            x       y       z     vdW  Elec       q    Type
                         _______ _______ _______ _____ _____    ______ ____

>  <TORSDO>
F 16

$$$$
=
 OpenBabel11032420323D

 33 34  0  0  1  0  0  0  0  0999 V2000
  188.7810  177.4170  145.1990 C   0  0  1  0  0  3  0  0  0  0  0  0
  189.5810  178.1640  144.1690 C   0  0  0  0  0  0  0  0  0  0  0  0
  190.4770  178.9710  144.5400 O   0  0  0  0  0  0  0  0  0  0  0  0
  190.1990  177.1290  141.9810 C   0  0  0  0  0  3  0  0  0  0  0  0
  189.9730  176.9280  140.6540 N   0  0  0  0  0  0  0  0  0  0  0  0
  188.9210  177.4980  140.0060 C   0  0  0  0  0  0  0  0  0  0  0  0
  189.3400  177.9440  142.7290 C   0  0  0  0  0  0  0  0  0  0  0  0
  188.0400  178.3220  140.7190 C   0  0  0  0  0  3  0  0  0  0  0  0
  188.2540  178.5420  142.0790 C   0  0  0  0  0  3  0  0  0  0  0  0
  188.7440  177.2360  138.6070 N   0  0  0  0  0  2  0  0  0  0  0  0
  188.5880  177.7360  136.1430 C   0  0  0  0  0  1  0  0  0  0  0  0
  188.8100  178.1910  137.5400 C   0  0  0  0  0  0  0  0  0  0  0  0
  189.0480  179.4080  137.7630 O   0  0  0  0  0  0  0  0  0  0  0  0
  189.1860  177.7880  146.6270 C   0  0  0  0  0  2  0  0  0  0  0  0
  189.8500  176.6360  147.3650 C   0  0  0  0  0  2  0  0  0  0  0  0
  191.3560  176.8040  147.3160 C   0  0  0  0  0  2  0  0  0  0  0  0
  191.9900  175.6350  146.5850 C   0  0  0  0  0  2  0  0  0  0  0  0
  192.0560  175.9090  145.2170 O   0  0  0  0  0  1  0  0  0  0  0  0
  187.2840  177.5510  144.9530 C   0  0  0  0  0  2  0  0  0  0  0  0
  186.5800  177.6630  146.2190 N   0  0  0  0  0  2  0  0  0  0  0  0
  185.7650  178.8630  146.1380 C   0  0  0  0  0  2  0  0  0  0  0  0
  184.5200  178.5950  145.3060 C   0  0  0  0  0  2  0  0  0  0  0  0
  184.2150  179.7570  144.3750 C   0  0  0  0  0  2  0  0  0  0  0  0
  184.9320  179.5800  143.0510 C   0  0  0  0  0  2  0  0  0  0  0  0
  184.5220  178.2580  142.4290 C   0  0  0  0  0  2  0  0  0  0  0  0
  181.6300  178.5910  139.9170 C   0  0  0  0  0  2  0  0  0  0  0  0
  182.4340  178.2640  141.1470 C   0  0  0  0  0  3  0  0  0  0  0  0
  184.4430  179.0020  139.9730 C   0  0  0  0  0  3  0  0  0  0  0  0
  182.4620  178.3640  138.6470 C   0  0  2  0  0  3  0  0  0  0  0  0
  183.7520  178.4970  141.1770 C   0  0  0  0  0  0  0  0  0  0  0  0
  183.8290  178.9800  138.7850 C   0  0  0  0  0  3  0  0  0  0  0  0
  181.7700  178.9300  137.4530 C   0  0  0  0  0  3  0  0  0  0  0  0
  180.4900  178.9340  137.3850 N   0  0  0  0  0  2  0  0  0  0  0  0
  1 19  1  1  0  0  0
  1 14  1  0  0  0  0
  2  3  2  0  0  0  0
  2  1  1  0  0  0  0
  4  7  2  0  0  0  0
  5  4  1  0  0  0  0
  6  5  2  0  0  0  0
  6  8  1  0  0  0  0
  7  2  1  0  0  0  0
  8  9  2  0  0  0  0
  9  7  1  0  0  0  0
 10  6  1  0  0  0  0
 11 12  1  0  0  0  0
 12 13  2  0  0  0  0
 12 10  1  0  0  0  0
 14 15  1  0  0  0  0
 16 15  1  0  0  0  0
 17 16  1  0  0  0  0
 18 17  1  0  0  0  0
 19 20  1  0  0  0  0
 21 20  1  0  0  0  0
 22 21  1  0  0  0  0
 23 22  1  0  0  0  0
 24 23  1  0  0  0  0
 25 24  1  0  0  0  0
 26 27  1  0  0  0  0
 27 30  2  0  0  0  0
 28 30  1  0  0  0  0
 29 32  1  6  0  0  0
 29 31  1  0  0  0  0
 29 26  1  0  0  0  0
 30 25  1  0  0  0  0
 31 28  2  0  0  0  0
 33 32  2  0  0  0  0
M  END
>  <MODEL>
7

>  <REMARK>
 VINA RESULT:      -7.2      2.469      7.734
  Name = 
  16 active torsions:
  status: ('A' for Active; 'I' for Inactive)
    1  A    between atoms: C_1  and  C_21
    2  A    between atoms: N_3  and  C_13
    3  A    between atoms: C_4  and  C_9
    4  A    between atoms: C_4  and  C_24
    5  A    between atoms: C_6  and  C_26
    6  A    between atoms: C_6  and  C_30
    7  A    between atoms: C_8  and  C_29
    8  A    between atoms: C_8  and  C_30
    9  A    between atoms: C_9  and  C_27
   10  A    between atoms: C_12  and  C_17
   11  A    between atoms: C_12  and  C_27
   12  A    between atoms: C_15  and  N_19
   13  A    between atoms: C_15  and  C_27
   14  A    between atoms: N_19  and  C_26
   15  A    between atoms: C_20  and  C_24
   16  A    between atoms: C_25  and  C_29
                            x       y       z     vdW  Elec       q    Type
                         _______ _______ _______ _____ _____    ______ ____

>  <TORSDO>
F 16

$$$$
=
 OpenBabel11032420323D

 33 34  0  0  1  0  0  0  0  0999 V2000
  189.8050  177.7930  139.4650 C   0  0  1  0  0  3  0  0  0  0  0  0
  190.6690  177.4270  140.6390 C   0  0  0  0  0  0  0  0  0  0  0  0
  191.8610  177.0580  140.4450 O   0  0  0  0  0  0  0  0  0  0  0  0
  190.6080  178.5070  142.8900 C   0  0  0  0  0  3  0  0  0  0  0  0
  190.1180  178.5880  144.1580 N   0  0  0  0  0  0  0  0  0  0  0  0
  189.1720  177.7280  144.6230 C   0  0  0  0  0  0  0  0  0  0  0  0
  190.1420  177.5180  142.0150 C   0  0  0  0  0  0  0  0  0  0  0  0
  188.6830  176.7220  143.7790 C   0  0  0  0  0  3  0  0  0  0  0  0
  189.1710  176.6210  142.4760 C   0  0  0  0  0  3  0  0  0  0  0  0
  188.7000  177.8770  145.9700 N   0  0  0  0  0  2  0  0  0  0  0  0
  188.7240  177.6970  148.4820 C   0  0  0  0  0  1  0  0  0  0  0  0
  189.3750  177.4690  147.1660 C   0  0  0  0  0  0  0  0  0  0  0  0
  190.5070  176.9170  147.1240 O   0  0  0  0  0  0  0  0  0  0  0  0
  189.5780  176.6090  138.5220 C   0  0  0  0  0  2  0  0  0  0  0  0
  190.1170  176.8640  137.1230 C   0  0  0  0  0  2  0  0  0  0  0  0
  191.3450  176.0060  136.8890 C   0  0  0  0  0  2  0  0  0  0  0  0
  191.3290  174.8060  137.8180 C   0  0  0  0  0  2  0  0  0  0  0  0
  190.6270  173.7550  137.2250 O   0  0  0  0  0  1  0  0  0  0  0  0
  188.5060  178.4540  139.9090 C   0  0  0  0  0  2  0  0  0  0  0  0
  187.5670  178.4980  138.8020 N   0  0  0  0  0  2  0  0  0  0  0  0
  186.2420  178.3270  139.3720 C   0  0  0  0  0  2  0  0  0  0  0  0
  185.2010  178.2500  138.2660 C   0  0  0  0  0  2  0  0  0  0  0  0
  183.7890  178.2560  138.8310 C   0  0  0  0  0  2  0  0  0  0  0  0
  183.7890  177.7620  140.2640 C   0  0  0  0  0  2  0  0  0  0  0  0
  183.1160  178.7930  141.1520 C   0  0  0  0  0  2  0  0  0  0  0  0
  183.2670  178.7820  144.9950 C   0  0  0  0  0  2  0  0  0  0  0  0
  182.8130  178.9970  143.5750 C   0  0  0  0  0  3  0  0  0  0  0  0
  184.9740  178.1590  142.8080 C   0  0  0  0  0  3  0  0  0  0  0  0
  184.7820  178.9980  145.1200 C   0  0  2  0  0  3  0  0  0  0  0  0
  183.6100  178.6640  142.5510 C   0  0  0  0  0  0  0  0  0  0  0  0
  185.5180  178.2760  144.0230 C   0  0  0  0  0  3  0  0  0  0  0  0
  185.2740  178.5360  146.4500 C   0  0  0  0  0  3  0  0  0  0  0  0
  185.6810  179.3820  147.3230 N   0  0  0  0  0  2  0  0  0  0  0  0
  1 14  1  1  0  0  0
  1 19  1  0  0  0  0
  1  2  1  0  0  0  0
  2  7  1  0  0  0  0
  3  2  2  0  0  0  0
  4  5  1  0  0  0  0
  5  6  2  0  0  0  0
  6 10  1  0  0  0  0
  7  9  1  0  0  0  0
  7  4  2  0  0  0  0
  8  6  1  0  0  0  0
  9  8  2  0  0  0  0
 10 12  1  0  0  0  0
 12 11  1  0  0  0  0
 13 12  2  0  0  0  0
 15 14  1  0  0  0  0
 16 15  1  0  0  0  0
 16 17  1  0  0  0  0
 18 17  1  0  0  0  0
 20 21  1  0  0  0  0
 20 19  1  0  0  0  0
 22 23  1  0  0  0  0
 22 21  1  0  0  0  0
 23 24  1  0  0  0  0
 24 25  1  0  0  0  0
 25 30  1  0  0  0  0
 26 29  1  0  0  0  0
 27 26  1  0  0  0  0
 28 31  2  0  0  0  0
 29 32  1  1  0  0  0
 30 28  1  0  0  0  0
 30 27  2  0  0  0  0
 31 29  1  0  0  0  0
 32 33  2  0  0  0  0
M  END
>  <MODEL>
8

>  <REMARK>
 VINA RESULT:      -7.2      2.184      3.376
  Name = 
  16 active torsions:
  status: ('A' for Active; 'I' for Inactive)
    1  A    between atoms: C_1  and  C_21
    2  A    between atoms: N_3  and  C_13
    3  A    between atoms: C_4  and  C_9
    4  A    between atoms: C_4  and  C_24
    5  A    between atoms: C_6  and  C_26
    6  A    between atoms: C_6  and  C_30
    7  A    between atoms: C_8  and  C_29
    8  A    between atoms: C_8  and  C_30
    9  A    between atoms: C_9  and  C_27
   10  A    between atoms: C_12  and  C_17
   11  A    between atoms: C_12  and  C_27
   12  A    between atoms: C_15  and  N_19
   13  A    between atoms: C_15  and  C_27
   14  A    between atoms: N_19  and  C_26
   15  A    between atoms: C_20  and  C_24
   16  A    between atoms: C_25  and  C_29
                            x       y       z     vdW  Elec       q    Type
                         _______ _______ _______ _____ _____    ______ ____

>  <TORSDO>
F 16

$$$$
=
 OpenBabel11032420323D

 33 34  0  0  1  0  0  0  0  0999 V2000
  189.7260  177.2860  138.7080 C   0  0  1  0  0  3  0  0  0  0  0  0
  190.1220  176.0680  137.9220 C   0  0  0  0  0  0  0  0  0  0  0  0
  189.2300  175.3610  137.3750 O   0  0  0  0  0  0  0  0  0  0  0  0
  192.5480  176.6600  137.9800 C   0  0  0  0  0  3  0  0  0  0  0  0
  193.8590  176.3220  137.8380 N   0  0  0  0  0  0  0  0  0  0  0  0
  194.2470  175.0650  137.4910 C   0  0  0  0  0  0  0  0  0  0  0  0
  191.5450  175.7060  137.7680 C   0  0  0  0  0  0  0  0  0  0  0  0
  193.2730  174.0830  137.2670 C   0  0  0  0  0  3  0  0  0  0  0  0
  191.9240  174.4080  137.4060 C   0  0  0  0  0  3  0  0  0  0  0  0
  195.6480  174.7800  137.3640 N   0  0  0  0  0  2  0  0  0  0  0  0
  197.9610  174.0940  138.0850 C   0  0  0  0  0  1  0  0  0  0  0  0
  196.5290  174.3290  138.4000 C   0  0  0  0  0  0  0  0  0  0  0  0
  196.1140  174.1310  139.5730 O   0  0  0  0  0  0  0  0  0  0  0  0
  188.5590  178.0370  138.0630 C   0  0  0  0  0  2  0  0  0  0  0  0
  187.2690  177.9070  138.8590 C   0  0  0  0  0  2  0  0  0  0  0  0
  186.1100  178.4280  138.0320 C   0  0  0  0  0  2  0  0  0  0  0  0
  184.8900  178.6320  138.9110 C   0  0  0  0  0  2  0  0  0  0  0  0
  184.6610  179.9960  139.0980 O   0  0  0  0  0  1  0  0  0  0  0  0
  189.4790  176.9520  140.1740 C   0  0  0  0  0  2  0  0  0  0  0  0
  190.4320  177.6580  141.0120 N   0  0  0  0  0  2  0  0  0  0  0  0
  190.3110  177.0950  142.3460 C   0  0  0  0  0  2  0  0  0  0  0  0
  191.3930  177.6600  143.2530 C   0  0  0  0  0  2  0  0  0  0  0  0
  190.8300  178.0520  144.6100 C   0  0  0  0  0  2  0  0  0  0  0  0
  189.9020  176.9720  145.1320 C   0  0  0  0  0  2  0  0  0  0  0  0
  189.1750  177.4850  146.3610 C   0  0  0  0  0  2  0  0  0  0  0  0
  185.8850  177.9330  144.4210 C   0  0  0  0  0  2  0  0  0  0  0  0
  187.3360  177.7150  144.7570 C   0  0  0  0  0  3  0  0  0  0  0  0
  186.8130  178.1750  147.0980 C   0  0  0  0  0  3  0  0  0  0  0  0
  185.2600  178.9780  145.3570 C   0  0  2  0  0  3  0  0  0  0  0  0
  187.7570  177.7940  146.0260 C   0  0  0  0  0  0  0  0  0  0  0  0
  185.6210  178.6950  146.7910 C   0  0  0  0  0  3  0  0  0  0  0  0
  183.7760  179.0050  145.2030 C   0  0  0  0  0  3  0  0  0  0  0  0
  183.2300  178.6350  144.1040 N   0  0  0  0  0  2  0  0  0  0  0  0
  1 14  1  6  0  0  0
  1 19  1  0  0  0  0
  2  1  1  0  0  0  0
  3  2  2  0  0  0  0
  5  4  1  0  0  0  0
  6  5  2  0  0  0  0
  7  2  1  0  0  0  0
  7  4  2  0  0  0  0
  8  9  2  0  0  0  0
  8  6  1  0  0  0  0
  9  7  1  0  0  0  0
 10  6  1  0  0  0  0
 10 12  1  0  0  0  0
 11 12  1  0  0  0  0
 12 13  2  0  0  0  0
 14 15  1  0  0  0  0
 16 15  1  0  0  0  0
 16 17  1  0  0  0  0
 17 18  1  0  0  0  0
 19 20  1  0  0  0  0
 20 21  1  0  0  0  0
 21 22  1  0  0  0  0
 22 23  1  0  0  0  0
 23 24  1  0  0  0  0
 24 25  1  0  0  0  0
 26 27  1  0  0  0  0
 26 29  1  0  0  0  0
 27 30  2  0  0  0  0
 29 32  1  1  0  0  0
 29 31  1  0  0  0  0
 30 25  1  0  0  0  0
 30 28  1  0  0  0  0
 31 28  2  0  0  0  0
 33 32  2  0  0  0  0
M  END
>  <MODEL>
9

>  <REMARK>
 VINA RESULT:      -7.2      3.755      5.520
  Name = 
  16 active torsions:
  status: ('A' for Active; 'I' for Inactive)
    1  A    between atoms: C_1  and  C_21
    2  A    between atoms: N_3  and  C_13
    3  A    between atoms: C_4  and  C_9
    4  A    between atoms: C_4  and  C_24
    5  A    between atoms: C_6  and  C_26
    6  A    between atoms: C_6  and  C_30
    7  A    between atoms: C_8  and  C_29
    8  A    between atoms: C_8  and  C_30
    9  A    between atoms: C_9  and  C_27
   10  A    between atoms: C_12  and  C_17
   11  A    between atoms: C_12  and  C_27
   12  A    between atoms: C_15  and  N_19
   13  A    between atoms: C_15  and  C_27
   14  A    between atoms: N_19  and  C_26
   15  A    between atoms: C_20  and  C_24
   16  A    between atoms: C_25  and  C_29
                            x       y       z     vdW  Elec       q    Type
                         _______ _______ _______ _____ _____    ______ ____

>  <TORSDO>
F 16

$$$$
