=
 OpenBabel11032421053D

 59 67  0  0  1  0  0  0  0  0999 V2000
  189.8630  176.4240  136.2340 C   0  0  0  0  0  0  0  0  0  0  0  0
  185.3720  177.9520  137.9300 C   0  0  0  0  0  0  0  0  0  0  0  0
  186.2860  178.3120  138.8700 N   0  0  0  0  0  0  0  0  0  0  0  0
  187.1390  176.9910  136.6030 C   0  0  0  0  0  0  0  0  0  0  0  0
  187.5640  176.3210  135.4550 C   0  0  0  0  0  3  0  0  0  0  0  0
  189.4380  177.0970  137.3830 C   0  0  0  0  0  3  0  0  0  0  0  0
  188.0760  177.3850  137.5800 C   0  0  0  0  0  0  0  0  0  0  0  0
  185.7870  177.2640  136.7860 C   0  0  0  0  0  3  0  0  0  0  0  0
  188.9210  176.0390  135.2710 C   0  0  0  0  0  3  0  0  0  0  0  0
  187.6160  178.0500  138.7320 C   0  0  0  0  0  0  0  0  0  0  0  0
  184.6720  179.9960  139.6100 O   0  0  0  0  0  0  0  0  0  0  0  0
  181.0000  178.0210  139.6030 C   0  0  1  0  0  3  0  0  0  0  0  0
  182.4180  180.0960  139.0970 N   0  0  0  0  0  2  0  0  0  0  0  0
  182.1440  175.0030  137.8060 N   0  0  0  0  0  2  0  0  0  0  0  0
  183.9080  178.2030  138.1890 C   0  0  1  0  0  3  0  0  0  0  0  0
  183.1840  176.9670  138.7470 C   0  0  1  0  0  3  0  0  0  0  0  0
  180.1010  180.1240  138.9310 O   0  0  0  0  0  0  0  0  0  0  0  0
  181.1420  179.4500  139.1680 C   0  0  0  0  0  0  0  0  0  0  0  0
  181.7040  177.1070  138.5910 C   0  0  1  0  0  3  0  0  0  0  0  0
  181.1370  175.7690  138.4200 N   0  0  0  0  0  0  0  0  0  0  0  0
  183.6930  179.4470  139.0310 C   0  0  0  0  0  0  0  0  0  0  0  0
  180.8690  175.1420  139.7040 C   0  0  0  0  0  1  0  0  0  0  0  0
  183.4170  175.7260  137.9210 C   0  0  0  0  0  2  0  0  0  0  0  0
  181.5140  177.8360  141.0370 C   0  0  0  0  0  2  0  0  0  0  0  0
  180.7810  178.7430  142.0120 C   0  0  0  0  0  2  0  0  0  0  0  0
  181.7630  179.4740  142.8970 C   0  0  0  0  0  2  0  0  0  0  0  0
  182.7410  178.4810  143.4890 C   0  0  0  0  0  2  0  0  0  0  0  0
  184.8310  179.9000  143.4170 N   0  0  0  0  0  1  0  0  0  0  0  0
  184.6460  177.9520  142.1600 O   0  0  0  0  0  0  0  0  0  0  0  0
  184.1150  178.7500  142.9770 C   0  0  0  0  0  0  0  0  0  0  0  0
  191.2560  176.1360  136.0650 N   0  0  0  0  0  2  0  0  0  0  0  0
  193.8590  173.4790  136.7340 C   0  0  0  0  0  2  0  0  0  0  0  0
  194.1630  174.9570  136.9260 C   0  0  2  0  0  0  0  0  0  0  0  0
  191.9650  175.1200  136.8310 C   0  0  2  0  0  3  0  0  0  0  0  0
  193.0870  175.9090  138.0280 S   0  0  0  0  0  0  0  0  0  0  0  0
  193.0580  174.5130  135.9750 C   0  0  2  0  0  3  0  0  0  0  0  0
  196.9180  173.7920  136.7710 C   0  0  0  0  0  2  0  0  0  0  0  0
  195.2700  175.6240  136.1650 C   0  0  0  0  0  0  0  0  0  0  0  0
  195.0660  176.7470  135.6160 O   0  0  0  0  0  0  0  0  0  0  0  0
  197.6550  175.5760  135.3120 C   0  0  0  0  0  2  0  0  0  0  0  0
  196.5590  175.0110  136.0770 N   0  0  0  0  0  0  0  0  0  0  0  0
  198.8480  174.6940  135.5980 C   0  0  0  0  0  2  0  0  0  0  0  0
  198.3150  173.4520  136.2970 C   0  0  0  0  0  2  0  0  0  0  0  0
  188.5560  178.4440  139.8320 C   0  0  0  0  0  2  0  0  0  0  0  0
  188.6320  177.3940  140.8390 N   0  0  0  0  0  2  0  0  0  0  0  0
  190.4800  178.1350  142.2310 C   0  0  0  0  0  2  0  0  0  0  0  0
  190.5970  176.9920  143.2200 C   0  0  2  0  0  3  0  0  0  0  0  0
  190.0350  177.1690  141.1510 C   0  0  1  0  0  3  0  0  0  0  0  0
  190.1600  176.0250  142.1370 C   0  0  0  0  0  2  0  0  0  0  0  0
  189.5530  177.0970  144.2260 N   0  0  0  0  0  2  0  0  0  0  0  0
  190.9900  176.7420  146.0240 O   0  0  0  0  0  0  0  0  0  0  0  0
  189.8290  177.0140  145.6250 C   0  0  0  0  0  0  0  0  0  0  0  0
  188.7270  177.2970  146.6040 C   0  0  1  0  0  3  0  0  0  0  0  0
  189.2360  177.8320  147.9350 C   0  0  0  0  0  1  0  0  0  0  0  0
  187.6510  178.2060  146.0130 C   0  0  0  0  0  2  0  0  0  0  0  0
  186.2670  177.9340  146.5980 C   0  0  2  0  0  3  0  0  0  0  0  0
  184.1430  178.7360  146.5350 O   0  0  0  0  0  1  0  0  0  0  0  0
  185.4360  179.1400  146.4640 N   0  0  0  0  0  0  0  0  0  0  0  0
  186.0500  178.7930  147.7490 C   0  0  0  0  0  2  0  0  0  0  0  0
  1  6  1  0  0  0  0
  2  3  1  0  0  0  0
  4  8  1  0  0  0  0
  4  7  1  0  0  0  0
  5  4  2  0  0  0  0
  6  7  2  0  0  0  0
  7 10  1  0  0  0  0
  8  2  2  0  0  0  0
  9  5  1  0  0  0  0
  9  1  2  0  0  0  0
 10  3  2  0  0  0  0
 10 44  1  0  0  0  0
 12 24  1  1  0  0  0
 13 18  1  0  0  0  0
 14 23  1  0  0  0  0
 14 20  1  0  0  0  0
 15  2  1  1  0  0  0
 15 16  1  0  0  0  0
 15 21  1  0  0  0  0
 16 23  1  6  0  0  0
 17 18  2  0  0  0  0
 18 12  1  0  0  0  0
 19 20  1  1  0  0  0
 19 16  1  0  0  0  0
 19 12  1  0  0  0  0
 20 22  1  0  0  0  0
 21 13  1  0  0  0  0
 21 11  2  0  0  0  0
 24 25  1  0  0  0  0
 25 26  1  0  0  0  0
 26 27  1  0  0  0  0
 29 30  2  0  0  0  0
 30 28  1  0  0  0  0
 30 27  1  0  0  0  0
 31  1  1  0  0  0  0
 32 33  1  0  0  0  0
 33 38  1  6  0  0  0
 33 35  1  0  0  0  0
 34 31  1  6  0  0  0
 34 35  1  0  0  0  0
 36 32  1  1  0  0  0
 36 34  1  0  0  0  0
 36 33  1  0  0  0  0
 39 38  2  0  0  0  0
 40 42  1  0  0  0  0
 40 41  1  0  0  0  0
 41 38  1  0  0  0  0
 41 37  1  0  0  0  0
 42 43  1  0  0  0  0
 43 37  1  0  0  0  0
 44 45  1  0  0  0  0
 46 47  1  0  0  0  0
 47 50  1  1  0  0  0
 48 45  1  1  0  0  0
 48 49  1  0  0  0  0
 48 46  1  0  0  0  0
 49 47  1  0  0  0  0
 50 52  1  0  0  0  0
 52 51  2  0  0  0  0
 52 53  1  0  0  0  0
 53 54  1  1  0  0  0
 55 53  1  0  0  0  0
 56 55  1  6  0  0  0
 56 59  1  0  0  0  0
 58 57  1  0  0  0  0
 58 56  1  0  0  0  0
 58 59  1  0  0  0  0
M  END
>  <MODEL>
1

>  <REMARK>
 VINA RESULT:      -8.9      0.000      0.000
  Name = 
  16 active torsions:
  status: ('A' for Active; 'I' for Inactive)
    1  A    between atoms: C_3  and  C_25
    2  A    between atoms: C_4  and  N_43
    3  A    between atoms: C_5  and  C_7
    4  A    between atoms: C_5  and  C_14
    5  A    between atoms: C_6  and  C_11
    6  A    between atoms: C_7  and  C_9
    7  A    between atoms: C_8  and  C_29
    8  A    between atoms: C_9  and  C_21
    9  A    between atoms: C_13  and  C_25
   10  A    between atoms: C_13  and  C_57
   11  A    between atoms: N_15  and  C_26
   12  A    between atoms: C_19  and  N_43
   13  A    between atoms: C_21  and  C_56
   14  A    between atoms: N_30  and  C_39
   15  A    between atoms: N_30  and  C_51
   16  A    between atoms: C_51  and  C_54
                            x       y       z     vdW  Elec       q    Type
                         _______ _______ _______ _____ _____    ______ ____

>  <TORSDO>
F 16

$$$$
=
 OpenBabel11032421053D

 59 67  0  0  1  0  0  0  0  0999 V2000
  190.1530  175.2360  137.3280 C   0  0  0  0  0  0  0  0  0  0  0  0
  185.9910  178.0060  137.9520 C   0  0  0  0  0  0  0  0  0  0  0  0
  186.8560  178.3750  138.9340 N   0  0  0  0  0  0  0  0  0  0  0  0
  187.6160  176.4220  137.1400 C   0  0  0  0  0  0  0  0  0  0  0  0
  187.9940  175.4330  136.2310 C   0  0  0  0  0  3  0  0  0  0  0  0
  189.7750  176.2270  138.2380 C   0  0  0  0  0  3  0  0  0  0  0  0
  188.5070  176.8280  138.1550 C   0  0  0  0  0  0  0  0  0  0  0  0
  186.3550  177.0030  137.0490 C   0  0  0  0  0  3  0  0  0  0  0  0
  189.2580  174.8430  136.3240 C   0  0  0  0  0  3  0  0  0  0  0  0
  188.0930  177.8200  139.0630 C   0  0  0  0  0  0  0  0  0  0  0  0
  185.1100  179.3790  140.1490 O   0  0  0  0  0  0  0  0  0  0  0  0
  181.4040  178.8710  138.3070 C   0  0  1  0  0  3  0  0  0  0  0  0
  183.2650  180.3960  139.1920 N   0  0  0  0  0  2  0  0  0  0  0  0
  182.5540  176.5510  135.6720 N   0  0  0  0  0  2  0  0  0  0  0  0
  184.6090  178.6060  137.9200 C   0  0  1  0  0  3  0  0  0  0  0  0
  183.5150  177.5610  137.6420 C   0  0  1  0  0  3  0  0  0  0  0  0
  181.2210  181.2410  138.4810 O   0  0  0  0  0  0  0  0  0  0  0  0
  181.9570  180.2270  138.6330 C   0  0  0  0  0  0  0  0  0  0  0  0
  182.2500  178.2260  137.2010 C   0  0  1  0  0  3  0  0  0  0  0  0
  181.5510  177.3140  136.2950 N   0  0  0  0  0  0  0  0  0  0  0  0
  184.3310  179.4400  139.1570 C   0  0  0  0  0  0  0  0  0  0  0  0
  180.7160  176.3780  137.0300 C   0  0  0  0  0  1  0  0  0  0  0  0
  183.8040  176.7180  136.4240 C   0  0  0  0  0  2  0  0  0  0  0  0
  181.3080  178.0050  139.5710 C   0  0  0  0  0  2  0  0  0  0  0  0
  180.0440  178.3080  140.3590 C   0  0  0  0  0  2  0  0  0  0  0  0
  179.4760  177.0420  140.9570 C   0  0  0  0  0  2  0  0  0  0  0  0
  180.1570  175.8430  140.3330 C   0  0  0  0  0  2  0  0  0  0  0  0
  178.9310  174.3690  141.9780 N   0  0  0  0  0  1  0  0  0  0  0  0
  179.1670  173.7570  139.7470 O   0  0  0  0  0  0  0  0  0  0  0  0
  179.4000  174.6000  140.6530 C   0  0  0  0  0  0  0  0  0  0  0  0
  191.4480  174.6350  137.4430 N   0  0  0  0  0  2  0  0  0  0  0  0
  194.4920  175.2650  135.2920 C   0  0  0  0  0  2  0  0  0  0  0  0
  194.5480  174.3410  136.4990 C   0  0  2  0  0  0  0  0  0  0  0  0
  192.3510  174.4510  136.3150 C   0  0  2  0  0  3  0  0  0  0  0  0
  193.3730  172.9650  136.5690 S   0  0  0  0  0  0  0  0  0  0  0  0
  193.4950  175.4390  136.4160 C   0  0  2  0  0  3  0  0  0  0  0  0
  197.4790  173.7610  136.3020 C   0  0  0  0  0  2  0  0  0  0  0  0
  195.4910  174.6070  137.6330 C   0  0  0  0  0  0  0  0  0  0  0  0
  195.0410  175.0320  138.7380 O   0  0  0  0  0  0  0  0  0  0  0  0
  197.8640  174.6440  138.5210 C   0  0  0  0  0  2  0  0  0  0  0  0
  196.8920  174.3580  137.4820 N   0  0  0  0  0  0  0  0  0  0  0  0
  199.1800  174.1140  138.0040 C   0  0  0  0  0  2  0  0  0  0  0  0
  198.9750  173.8020  136.5280 C   0  0  0  0  0  2  0  0  0  0  0  0
  188.9730  178.2540  140.1970 C   0  0  0  0  0  2  0  0  0  0  0  0
  188.7380  177.4250  141.3720 N   0  0  0  0  0  2  0  0  0  0  0  0
  190.3360  178.0410  143.0950 C   0  0  0  0  0  2  0  0  0  0  0  0
  190.1590  176.9160  144.0940 C   0  0  2  0  0  3  0  0  0  0  0  0
  190.0290  177.0910  141.9540 C   0  0  1  0  0  3  0  0  0  0  0  0
  189.8610  175.9630  142.9530 C   0  0  0  0  0  2  0  0  0  0  0  0
  188.9520  177.1300  144.8750 N   0  0  0  0  0  2  0  0  0  0  0  0
  189.9790  176.7150  146.9240 O   0  0  0  0  0  0  0  0  0  0  0  0
  188.9440  177.0650  146.3020 C   0  0  0  0  0  0  0  0  0  0  0  0
  187.7000  177.4600  147.0440 C   0  0  1  0  0  3  0  0  0  0  0  0
  187.9700  177.8670  148.4850 C   0  0  0  0  0  1  0  0  0  0  0  0
  186.9040  178.5320  146.3020 C   0  0  0  0  0  2  0  0  0  0  0  0
  185.7290  177.9530  145.5170 C   0  0  2  0  0  3  0  0  0  0  0  0
  184.8640  177.9150  143.4180 O   0  0  0  0  0  1  0  0  0  0  0  0
  185.5540  178.7130  144.2710 N   0  0  0  0  0  0  0  0  0  0  0  0
  184.6740  178.9480  145.4210 C   0  0  0  0  0  2  0  0  0  0  0  0
  1 31  1  0  0  0  0
  1  6  1  0  0  0  0
  2  3  1  0  0  0  0
  3 10  2  0  0  0  0
  4  7  1  0  0  0  0
  5  9  1  0  0  0  0
  5  4  2  0  0  0  0
  7  6  2  0  0  0  0
  7 10  1  0  0  0  0
  8  4  1  0  0  0  0
  8  2  2  0  0  0  0
  9  1  2  0  0  0  0
 10 44  1  0  0  0  0
 12 18  1  0  0  0  0
 12 24  1  1  0  0  0
 14 20  1  0  0  0  0
 14 23  1  0  0  0  0
 15  2  1  1  0  0  0
 15 21  1  0  0  0  0
 16 23  1  6  0  0  0
 16 15  1  0  0  0  0
 17 18  2  0  0  0  0
 18 13  1  0  0  0  0
 19 20  1  1  0  0  0
 19 16  1  0  0  0  0
 19 12  1  0  0  0  0
 20 22  1  0  0  0  0
 21 13  1  0  0  0  0
 21 11  2  0  0  0  0
 24 25  1  0  0  0  0
 25 26  1  0  0  0  0
 27 30  1  0  0  0  0
 27 26  1  0  0  0  0
 29 30  2  0  0  0  0
 30 28  1  0  0  0  0
 32 33  1  0  0  0  0
 33 35  1  0  0  0  0
 33 38  1  1  0  0  0
 34 36  1  0  0  0  0
 34 35  1  0  0  0  0
 34 31  1  1  0  0  0
 36 32  1  6  0  0  0
 36 33  1  0  0  0  0
 37 43  1  0  0  0  0
 37 41  1  0  0  0  0
 38 39  2  0  0  0  0
 41 38  1  0  0  0  0
 41 40  1  0  0  0  0
 42 40  1  0  0  0  0
 43 42  1  0  0  0  0
 44 45  1  0  0  0  0
 46 47  1  0  0  0  0
 47 50  1  1  0  0  0
 48 45  1  1  0  0  0
 48 49  1  0  0  0  0
 48 46  1  0  0  0  0
 49 47  1  0  0  0  0
 50 52  1  0  0  0  0
 52 51  2  0  0  0  0
 52 53  1  0  0  0  0
 53 54  1  1  0  0  0
 55 53  1  0  0  0  0
 56 55  1  1  0  0  0
 57 58  1  0  0  0  0
 58 59  1  0  0  0  0
 58 56  1  0  0  0  0
 59 56  1  0  0  0  0
M  END
>  <MODEL>
2

>  <REMARK>
 VINA RESULT:      -8.6      1.776      2.469
  Name = 
  16 active torsions:
  status: ('A' for Active; 'I' for Inactive)
    1  A    between atoms: C_3  and  C_25
    2  A    between atoms: C_4  and  N_43
    3  A    between atoms: C_5  and  C_7
    4  A    between atoms: C_5  and  C_14
    5  A    between atoms: C_6  and  C_11
    6  A    between atoms: C_7  and  C_9
    7  A    between atoms: C_8  and  C_29
    8  A    between atoms: C_9  and  C_21
    9  A    between atoms: C_13  and  C_25
   10  A    between atoms: C_13  and  C_57
   11  A    between atoms: N_15  and  C_26
   12  A    between atoms: C_19  and  N_43
   13  A    between atoms: C_21  and  C_56
   14  A    between atoms: N_30  and  C_39
   15  A    between atoms: N_30  and  C_51
   16  A    between atoms: C_51  and  C_54
                            x       y       z     vdW  Elec       q    Type
                         _______ _______ _______ _____ _____    ______ ____

>  <TORSDO>
F 16

$$$$
=
 OpenBabel11032421053D

 59 67  0  0  1  0  0  0  0  0999 V2000
  191.2100  175.5440  137.7950 C   0  0  0  0  0  0  0  0  0  0  0  0
  186.7690  177.8480  138.3950 C   0  0  0  0  0  0  0  0  0  0  0  0
  187.5550  178.2390  139.4340 N   0  0  0  0  0  0  0  0  0  0  0  0
  188.5760  176.4840  137.5650 C   0  0  0  0  0  0  0  0  0  0  0  0
  189.0850  175.5950  136.6180 C   0  0  0  0  0  3  0  0  0  0  0  0
  190.7000  176.4350  138.7440 C   0  0  0  0  0  3  0  0  0  0  0  0
  189.3820  176.9120  138.6400 C   0  0  0  0  0  0  0  0  0  0  0  0
  187.2670  176.9430  137.4520 C   0  0  0  0  0  3  0  0  0  0  0  0
  190.3980  175.1270  136.7320 C   0  0  0  0  0  3  0  0  0  0  0  0
  188.8360  177.8010  139.5850 C   0  0  0  0  0  0  0  0  0  0  0  0
  185.6790  179.0080  140.6210 O   0  0  0  0  0  0  0  0  0  0  0  0
  182.1100  178.2380  138.6070 C   0  0  1  0  0  3  0  0  0  0  0  0
  183.7760  179.8890  139.6420 N   0  0  0  0  0  2  0  0  0  0  0  0
  183.5780  176.1870  135.9080 N   0  0  0  0  0  2  0  0  0  0  0  0
  185.3370  178.3100  138.3370 C   0  0  1  0  0  3  0  0  0  0  0  0
  184.3630  177.1800  137.9630 C   0  0  1  0  0  3  0  0  0  0  0  0
  181.6840  180.5660  138.8910 O   0  0  0  0  0  0  0  0  0  0  0  0
  182.5130  179.6220  139.0220 C   0  0  0  0  0  0  0  0  0  0  0  0
  183.0550  177.7400  137.5050 C   0  0  1  0  0  3  0  0  0  0  0  0
  182.4820  176.8140  136.5280 N   0  0  0  0  0  0  0  0  0  0  0  0
  184.9330  179.0450  139.6020 C   0  0  0  0  0  0  0  0  0  0  0  0
  181.7200  175.7620  137.1800 C   0  0  0  0  0  1  0  0  0  0  0  0
  184.7780  176.4360  136.7180 C   0  0  0  0  0  2  0  0  0  0  0  0
  182.0560  177.3000  139.8210 C   0  0  0  0  0  2  0  0  0  0  0  0
  180.6240  176.9750  140.2110 C   0  0  0  0  0  2  0  0  0  0  0  0
  179.9200  178.2110  140.7230 C   0  0  0  0  0  2  0  0  0  0  0  0
  179.9340  178.2050  142.2370 C   0  0  0  0  0  2  0  0  0  0  0  0
  182.2030  178.9830  143.0300 N   0  0  0  0  0  1  0  0  0  0  0  0
  180.3960  180.4420  142.9120 O   0  0  0  0  0  0  0  0  0  0  0  0
  180.8390  179.2750  142.7440 C   0  0  0  0  0  0  0  0  0  0  0  0
  192.5540  175.0670  137.9320 N   0  0  0  0  0  2  0  0  0  0  0  0
  195.9960  174.9140  136.3800 C   0  0  0  0  0  2  0  0  0  0  0  0
  195.1490  173.6650  136.5600 C   0  0  2  0  0  0  0  0  0  0  0  0
  193.5480  175.1510  136.8720 C   0  0  2  0  0  3  0  0  0  0  0  0
  193.4880  173.6540  135.8370 S   0  0  0  0  0  0  0  0  0  0  0  0
  194.9240  174.8830  137.4460 C   0  0  2  0  0  3  0  0  0  0  0  0
  196.9740  171.5770  135.4300 C   0  0  0  0  0  2  0  0  0  0  0  0
  195.6400  172.5080  137.3780 C   0  0  0  0  0  0  0  0  0  0  0  0
  195.2300  172.3610  138.5670 O   0  0  0  0  0  0  0  0  0  0  0  0
  197.1020  170.4470  137.5660 C   0  0  0  0  0  2  0  0  0  0  0  0
  196.5480  171.5570  136.8130 N   0  0  0  0  0  0  0  0  0  0  0  0
  197.8910  169.6320  136.5680 C   0  0  0  0  0  2  0  0  0  0  0  0
  198.0120  170.4810  135.3100 C   0  0  0  0  0  2  0  0  0  0  0  0
  189.6240  178.2490  140.7800 C   0  0  0  0  0  2  0  0  0  0  0  0
  189.8010  177.1470  141.7160 N   0  0  0  0  0  2  0  0  0  0  0  0
  191.2860  178.2230  143.3100 C   0  0  0  0  0  2  0  0  0  0  0  0
  191.4830  177.1260  144.3360 C   0  0  2  0  0  3  0  0  0  0  0  0
  191.1700  177.1880  142.2080 C   0  0  1  0  0  3  0  0  0  0  0  0
  191.3750  176.0900  143.2330 C   0  0  0  0  0  2  0  0  0  0  0  0
  190.3160  177.0370  145.1990 N   0  0  0  0  0  2  0  0  0  0  0  0
  191.5520  176.8800  147.1670 O   0  0  0  0  0  0  0  0  0  0  0  0
  190.4220  176.9690  146.6220 C   0  0  0  0  0  0  0  0  0  0  0  0
  189.1740  177.0480  147.4510 C   0  0  1  0  0  3  0  0  0  0  0  0
  189.1230  178.2860  148.3340 C   0  0  0  0  0  1  0  0  0  0  0  0
  187.9100  176.9140  146.6040 C   0  0  0  0  0  2  0  0  0  0  0  0
  187.2110  178.2520  146.3760 C   0  0  2  0  0  3  0  0  0  0  0  0
  185.3590  179.4000  147.0160 O   0  0  0  0  0  1  0  0  0  0  0  0
  185.8020  178.1400  146.7770 N   0  0  0  0  0  0  0  0  0  0  0  0
  186.1830  178.0960  145.3620 C   0  0  0  0  0  2  0  0  0  0  0  0
  1 31  1  0  0  0  0
  1  6  1  0  0  0  0
  2  3  1  0  0  0  0
  3 10  2  0  0  0  0
  4  7  1  0  0  0  0
  5  9  1  0  0  0  0
  5  4  2  0  0  0  0
  7  6  2  0  0  0  0
  7 10  1  0  0  0  0
  8  4  1  0  0  0  0
  8  2  2  0  0  0  0
  9  1  2  0  0  0  0
 10 44  1  0  0  0  0
 12 18  1  0  0  0  0
 12 24  1  1  0  0  0
 14 20  1  0  0  0  0
 14 23  1  0  0  0  0
 15  2  1  1  0  0  0
 15 21  1  0  0  0  0
 16 23  1  6  0  0  0
 16 15  1  0  0  0  0
 17 18  2  0  0  0  0
 18 13  1  0  0  0  0
 19 20  1  1  0  0  0
 19 16  1  0  0  0  0
 19 12  1  0  0  0  0
 20 22  1  0  0  0  0
 21 13  1  0  0  0  0
 21 11  2  0  0  0  0
 24 25  1  0  0  0  0
 25 26  1  0  0  0  0
 26 27  1  0  0  0  0
 27 30  1  0  0  0  0
 30 29  2  0  0  0  0
 30 28  1  0  0  0  0
 32 33  1  0  0  0  0
 33 38  1  1  0  0  0
 33 36  1  0  0  0  0
 34 36  1  0  0  0  0
 34 31  1  1  0  0  0
 35 33  1  0  0  0  0
 35 34  1  0  0  0  0
 36 32  1  6  0  0  0
 37 41  1  0  0  0  0
 38 39  2  0  0  0  0
 41 38  1  0  0  0  0
 41 40  1  0  0  0  0
 42 40  1  0  0  0  0
 43 37  1  0  0  0  0
 43 42  1  0  0  0  0
 44 45  1  0  0  0  0
 46 47  1  0  0  0  0
 47 50  1  1  0  0  0
 48 45  1  1  0  0  0
 48 49  1  0  0  0  0
 48 46  1  0  0  0  0
 49 47  1  0  0  0  0
 50 52  1  0  0  0  0
 52 51  2  0  0  0  0
 52 53  1  0  0  0  0
 53 54  1  6  0  0  0
 55 53  1  0  0  0  0
 56 55  1  1  0  0  0
 56 58  1  0  0  0  0
 58 57  1  0  0  0  0
 59 56  1  0  0  0  0
 59 58  1  0  0  0  0
M  END
>  <MODEL>
3

>  <REMARK>
 VINA RESULT:      -8.4      1.886      2.419
  Name = 
  16 active torsions:
  status: ('A' for Active; 'I' for Inactive)
    1  A    between atoms: C_3  and  C_25
    2  A    between atoms: C_4  and  N_43
    3  A    between atoms: C_5  and  C_7
    4  A    between atoms: C_5  and  C_14
    5  A    between atoms: C_6  and  C_11
    6  A    between atoms: C_7  and  C_9
    7  A    between atoms: C_8  and  C_29
    8  A    between atoms: C_9  and  C_21
    9  A    between atoms: C_13  and  C_25
   10  A    between atoms: C_13  and  C_57
   11  A    between atoms: N_15  and  C_26
   12  A    between atoms: C_19  and  N_43
   13  A    between atoms: C_21  and  C_56
   14  A    between atoms: N_30  and  C_39
   15  A    between atoms: N_30  and  C_51
   16  A    between atoms: C_51  and  C_54
                            x       y       z     vdW  Elec       q    Type
                         _______ _______ _______ _____ _____    ______ ____

>  <TORSDO>
F 16

$$$$
=
 OpenBabel11032421053D

 59 67  0  0  1  0  0  0  0  0999 V2000
  186.4100  177.4730  137.3990 C   0  0  0  0  0  0  0  0  0  0  0  0
  191.0200  175.6340  138.2620 C   0  0  0  0  0  0  0  0  0  0  0  0
  190.7540  176.5100  139.2690 N   0  0  0  0  0  0  0  0  0  0  0  0
  188.8600  176.1100  137.3030 C   0  0  0  0  0  0  0  0  0  0  0  0
  187.9080  175.9050  136.3040 C   0  0  0  0  0  3  0  0  0  0  0  0
  187.3630  177.6780  138.4000 C   0  0  0  0  0  3  0  0  0  0  0  0
  188.5950  177.0020  138.3620 C   0  0  0  0  0  0  0  0  0  0  0  0
  190.0780  175.4380  137.2490 C   0  0  0  0  0  3  0  0  0  0  0  0
  186.6860  176.5840  136.3530 C   0  0  0  0  0  3  0  0  0  0  0  0
  189.5800  177.1950  139.3490 C   0  0  0  0  0  0  0  0  0  0  0  0
  193.2370  177.1260  138.8540 O   0  0  0  0  0  0  0  0  0  0  0  0
  195.1990  173.9570  136.9850 C   0  0  1  0  0  3  0  0  0  0  0  0
  194.7600  175.3960  139.0610 N   0  0  0  0  0  2  0  0  0  0  0  0
  192.1680  172.2700  135.7150 N   0  0  0  0  0  2  0  0  0  0  0  0
  192.3720  174.9730  138.1960 C   0  0  1  0  0  3  0  0  0  0  0  0
  192.6650  174.3590  136.8160 C   0  0  1  0  0  3  0  0  0  0  0  0
  196.4660  173.8200  138.9990 O   0  0  0  0  0  0  0  0  0  0  0  0
  195.4940  174.3590  138.4000 C   0  0  0  0  0  0  0  0  0  0  0  0
  193.7830  173.3710  136.9050 C   0  0  1  0  0  3  0  0  0  0  0  0
  193.5620  172.3430  135.8870 N   0  0  0  0  0  0  0  0  0  0  0  0
  193.4740  175.8980  138.6790 C   0  0  0  0  0  0  0  0  0  0  0  0
  194.1150  172.7440  134.6040 C   0  0  0  0  0  1  0  0  0  0  0  0
  191.5580  173.4570  136.3280 C   0  0  0  0  0  2  0  0  0  0  0  0
  195.4140  175.1380  136.0290 C   0  0  0  0  0  2  0  0  0  0  0  0
  196.8880  175.4850  135.8960 C   0  0  0  0  0  2  0  0  0  0  0  0
  197.6190  174.4080  135.1280 C   0  0  0  0  0  2  0  0  0  0  0  0
  198.3620  173.5160  136.1010 C   0  0  0  0  0  2  0  0  0  0  0  0
  198.1650  171.4640  134.6390 N   0  0  0  0  0  1  0  0  0  0  0  0
  197.4460  171.4500  136.8500 O   0  0  0  0  0  0  0  0  0  0  0  0
  197.9600  172.0950  135.9000 C   0  0  0  0  0  0  0  0  0  0  0  0
  185.1670  178.1840  137.4590 N   0  0  0  0  0  2  0  0  0  0  0  0
  182.3900  176.1010  138.9530 C   0  0  0  0  0  2  0  0  0  0  0  0
  182.5310  177.5820  139.2690 C   0  0  2  0  0  0  0  0  0  0  0  0
  183.8680  177.5270  137.5140 C   0  0  2  0  0  3  0  0  0  0  0  0
  182.5670  178.7470  137.8830 S   0  0  0  0  0  0  0  0  0  0  0  0
  183.7400  176.7700  138.8190 C   0  0  2  0  0  3  0  0  0  0  0  0
  180.2680  178.6830  140.8910 C   0  0  0  0  0  2  0  0  0  0  0  0
  182.7180  178.0580  140.6790 C   0  0  0  0  0  0  0  0  0  0  0  0
  183.8750  178.0580  141.1930 O   0  0  0  0  0  0  0  0  0  0  0  0
  181.7040  178.9570  142.8190 C   0  0  0  0  0  2  0  0  0  0  0  0
  181.6010  178.5340  141.4350 N   0  0  0  0  0  0  0  0  0  0  0  0
  180.3420  179.5020  143.1800 C   0  0  0  0  0  2  0  0  0  0  0  0
  179.3970  179.0910  142.0600 C   0  0  0  0  0  2  0  0  0  0  0  0
  189.3800  178.1720  140.4690 C   0  0  0  0  0  2  0  0  0  0  0  0
  189.3740  177.4830  141.7520 N   0  0  0  0  0  2  0  0  0  0  0  0
  190.6410  178.5860  143.5070 C   0  0  0  0  0  2  0  0  0  0  0  0
  190.8730  177.4480  144.4800 C   0  0  2  0  0  3  0  0  0  0  0  0
  190.6970  177.6180  142.3430 C   0  0  1  0  0  3  0  0  0  0  0  0
  190.9380  176.4800  143.3150 C   0  0  0  0  0  2  0  0  0  0  0  0
  189.6660  177.1980  145.2510 N   0  0  0  0  0  2  0  0  0  0  0  0
  190.7510  177.2310  147.3110 O   0  0  0  0  0  0  0  0  0  0  0  0
  189.6670  177.1540  146.6790 C   0  0  0  0  0  0  0  0  0  0  0  0
  188.3580  177.0580  147.4060 C   0  0  1  0  0  3  0  0  0  0  0  0
  188.1770  178.1490  148.4520 C   0  0  0  0  0  1  0  0  0  0  0  0
  187.1690  177.0010  146.4480 C   0  0  0  0  0  2  0  0  0  0  0  0
  186.3650  178.2980  146.4320 C   0  0  2  0  0  3  0  0  0  0  0  0
  184.2270  179.0400  146.2420 O   0  0  0  0  0  1  0  0  0  0  0  0
  185.0530  178.0500  145.8180 N   0  0  0  0  0  0  0  0  0  0  0  0
  186.1240  178.7020  145.0580 C   0  0  0  0  0  2  0  0  0  0  0  0
  1 31  1  0  0  0  0
  1  6  1  0  0  0  0
  2  3  1  0  0  0  0
  3 10  2  0  0  0  0
  4  7  1  0  0  0  0
  5  9  1  0  0  0  0
  5  4  2  0  0  0  0
  7  6  2  0  0  0  0
  7 10  1  0  0  0  0
  8  4  1  0  0  0  0
  8  2  2  0  0  0  0
  9  1  2  0  0  0  0
 10 44  1  0  0  0  0
 12 24  1  6  0  0  0
 12 18  1  0  0  0  0
 14 20  1  0  0  0  0
 14 23  1  0  0  0  0
 15  2  1  6  0  0  0
 15 21  1  0  0  0  0
 16 23  1  1  0  0  0
 16 19  1  0  0  0  0
 16 15  1  0  0  0  0
 18 17  2  0  0  0  0
 18 13  1  0  0  0  0
 19 20  1  6  0  0  0
 19 12  1  0  0  0  0
 21 11  2  0  0  0  0
 21 13  1  0  0  0  0
 22 20  1  0  0  0  0
 25 24  1  0  0  0  0
 26 25  1  0  0  0  0
 26 27  1  0  0  0  0
 28 30  1  0  0  0  0
 30 27  1  0  0  0  0
 30 29  2  0  0  0  0
 32 33  1  0  0  0  0
 33 38  1  1  0  0  0
 34 31  1  1  0  0  0
 34 35  1  0  0  0  0
 34 36  1  0  0  0  0
 35 33  1  0  0  0  0
 36 32  1  6  0  0  0
 36 33  1  0  0  0  0
 37 41  1  0  0  0  0
 37 43  1  0  0  0  0
 38 39  2  0  0  0  0
 38 41  1  0  0  0  0
 40 42  1  0  0  0  0
 41 40  1  0  0  0  0
 43 42  1  0  0  0  0
 44 45  1  0  0  0  0
 46 47  1  0  0  0  0
 47 50  1  1  0  0  0
 48 45  1  1  0  0  0
 48 49  1  0  0  0  0
 48 46  1  0  0  0  0
 49 47  1  0  0  0  0
 50 52  1  0  0  0  0
 52 51  2  0  0  0  0
 52 53  1  0  0  0  0
 53 54  1  1  0  0  0
 55 53  1  0  0  0  0
 56 55  1  6  0  0  0
 58 57  1  0  0  0  0
 58 56  1  0  0  0  0
 59 58  1  0  0  0  0
 59 56  1  0  0  0  0
M  END
>  <MODEL>
4

>  <REMARK>
 VINA RESULT:      -7.8      2.414     10.852
  Name = 
  16 active torsions:
  status: ('A' for Active; 'I' for Inactive)
    1  A    between atoms: C_3  and  C_25
    2  A    between atoms: C_4  and  N_43
    3  A    between atoms: C_5  and  C_7
    4  A    between atoms: C_5  and  C_14
    5  A    between atoms: C_6  and  C_11
    6  A    between atoms: C_7  and  C_9
    7  A    between atoms: C_8  and  C_29
    8  A    between atoms: C_9  and  C_21
    9  A    between atoms: C_13  and  C_25
   10  A    between atoms: C_13  and  C_57
   11  A    between atoms: N_15  and  C_26
   12  A    between atoms: C_19  and  N_43
   13  A    between atoms: C_21  and  C_56
   14  A    between atoms: N_30  and  C_39
   15  A    between atoms: N_30  and  C_51
   16  A    between atoms: C_51  and  C_54
                            x       y       z     vdW  Elec       q    Type
                         _______ _______ _______ _____ _____    ______ ____

>  <TORSDO>
F 16

$$$$
=
 OpenBabel11032421053D

 59 67  0  0  1  0  0  0  0  0999 V2000
  181.2560  178.2470  139.6350 C   0  0  0  0  0  0  0  0  0  0  0  0
  185.8860  178.7230  141.5650 C   0  0  0  0  0  0  0  0  0  0  0  0
  186.0290  178.6770  140.2130 N   0  0  0  0  0  0  0  0  0  0  0  0
  183.5010  178.4960  141.3010 C   0  0  0  0  0  0  0  0  0  0  0  0
  182.2250  178.4020  141.8580 C   0  0  0  0  0  3  0  0  0  0  0  0
  182.5340  178.3410  139.0770 C   0  0  0  0  0  3  0  0  0  0  0  0
  183.6670  178.4650  139.9010 C   0  0  0  0  0  0  0  0  0  0  0  0
  184.6120  178.6120  142.1300 C   0  0  0  0  0  3  0  0  0  0  0  0
  181.1060  178.2800  141.0280 C   0  0  0  0  0  3  0  0  0  0  0  0
  184.9670  178.5510  139.3700 C   0  0  0  0  0  0  0  0  0  0  0  0
  188.2900  177.9770  140.4910 O   0  0  0  0  0  0  0  0  0  0  0  0
  189.4190  177.8310  144.5030 C   0  0  1  0  0  3  0  0  0  0  0  0
  189.6720  178.8140  142.1490 N   0  0  0  0  0  2  0  0  0  0  0  0
  186.0350  178.2820  145.9130 N   0  0  0  0  0  2  0  0  0  0  0  0
  187.1130  178.7830  142.4370 C   0  0  1  0  0  3  0  0  0  0  0  0
  186.9730  177.9410  143.7160 C   0  0  1  0  0  3  0  0  0  0  0  0
  191.1680  179.3140  143.8540 O   0  0  0  0  0  0  0  0  0  0  0  0
  190.1160  178.7090  143.5060 C   0  0  0  0  0  0  0  0  0  0  0  0
  187.9930  178.3480  144.7310 C   0  0  1  0  0  3  0  0  0  0  0  0
  187.4240  178.1240  146.0600 N   0  0  0  0  0  0  0  0  0  0  0  0
  188.3740  178.4650  141.6530 C   0  0  0  0  0  0  0  0  0  0  0  0
  187.6390  176.7560  146.5020 C   0  0  0  0  0  1  0  0  0  0  0  0
  185.7080  178.2420  144.4820 C   0  0  0  0  0  2  0  0  0  0  0  0
  189.4600  176.3630  144.0550 C   0  0  0  0  0  2  0  0  0  0  0  0
  190.8460  175.9660  143.5750 C   0  0  0  0  0  2  0  0  0  0  0  0
  191.6590  175.3960  144.7150 C   0  0  0  0  0  2  0  0  0  0  0  0
  192.0530  176.5140  145.6570 C   0  0  0  0  0  2  0  0  0  0  0  0
  192.7980  175.4720  147.8350 N   0  0  0  0  0  1  0  0  0  0  0  0
  190.6590  176.3480  147.5810 O   0  0  0  0  0  0  0  0  0  0  0  0
  191.7840  176.1130  147.0670 C   0  0  0  0  0  0  0  0  0  0  0  0
  180.1220  178.1130  138.7710 N   0  0  0  0  0  2  0  0  0  0  0  0
  179.4360  175.0260  136.7010 C   0  0  0  0  0  2  0  0  0  0  0  0
  180.6280  175.1040  137.6420 C   0  0  2  0  0  0  0  0  0  0  0  0
  179.5120  176.8330  138.4390 C   0  0  2  0  0  3  0  0  0  0  0  0
  180.3120  175.4960  139.3810 S   0  0  0  0  0  0  0  0  0  0  0  0
  180.0040  176.3750  137.0810 C   0  0  2  0  0  3  0  0  0  0  0  0
  181.8670  172.4100  137.2200 C   0  0  0  0  0  2  0  0  0  0  0  0
  182.0280  174.9410  137.1310 C   0  0  0  0  0  0  0  0  0  0  0  0
  182.7440  175.9650  136.9260 O   0  0  0  0  0  0  0  0  0  0  0  0
  183.8930  173.4110  136.3570 C   0  0  0  0  0  2  0  0  0  0  0  0
  182.5670  173.6360  136.9000 N   0  0  0  0  0  0  0  0  0  0  0  0
  184.1030  171.9150  136.4030 C   0  0  0  0  0  2  0  0  0  0  0  0
  182.7460  171.2930  136.7010 C   0  0  0  0  0  2  0  0  0  0  0  0
  185.2130  178.4670  137.8930 C   0  0  0  0  0  2  0  0  0  0  0  0
  186.6330  178.2890  137.6210 N   0  0  0  0  0  2  0  0  0  0  0  0
  187.9550  177.2790  135.8500 C   0  0  0  0  0  2  0  0  0  0  0  0
  188.7560  176.2460  136.6170 C   0  0  2  0  0  3  0  0  0  0  0  0
  186.7890  177.0970  136.8020 C   0  0  1  0  0  3  0  0  0  0  0  0
  187.5870  176.0570  137.5640 C   0  0  0  0  0  2  0  0  0  0  0  0
  189.8520  176.8900  137.3220 N   0  0  0  0  0  2  0  0  0  0  0  0
  190.6410  174.9200  138.2810 O   0  0  0  0  0  0  0  0  0  0  0  0
  190.7970  176.1550  138.1010 C   0  0  0  0  0  0  0  0  0  0  0  0
  191.9930  176.8670  138.6620 C   0  0  1  0  0  3  0  0  0  0  0  0
  191.8840  177.1270  140.1570 C   0  0  0  0  0  1  0  0  0  0  0  0
  193.3000  176.1590  138.3120 C   0  0  0  0  0  2  0  0  0  0  0  0
  193.5110  176.0240  136.8060 C   0  0  2  0  0  3  0  0  0  0  0  0
  193.0970  174.5900  135.0940 O   0  0  0  0  0  1  0  0  0  0  0  0
  193.3810  174.6110  136.4210 N   0  0  0  0  0  0  0  0  0  0  0  0
  194.7020  175.2320  136.5520 C   0  0  0  0  0  2  0  0  0  0  0  0
  1  9  1  0  0  0  0
  2  8  1  0  0  0  0
  3  2  2  0  0  0  0
  4  5  1  0  0  0  0
  4  8  2  0  0  0  0
  6  1  2  0  0  0  0
  6  7  1  0  0  0  0
  7  4  1  0  0  0  0
  9  5  2  0  0  0  0
 10  7  2  0  0  0  0
 10  3  1  0  0  0  0
 11 21  2  0  0  0  0
 12 24  1  6  0  0  0
 12 19  1  0  0  0  0
 13 18  1  0  0  0  0
 14 20  1  0  0  0  0
 15  2  1  6  0  0  0
 15 16  1  0  0  0  0
 16 23  1  1  0  0  0
 16 19  1  0  0  0  0
 18 17  2  0  0  0  0
 18 12  1  0  0  0  0
 19 20  1  1  0  0  0
 20 22  1  0  0  0  0
 21 13  1  0  0  0  0
 21 15  1  0  0  0  0
 23 14  1  0  0  0  0
 25 24  1  0  0  0  0
 25 26  1  0  0  0  0
 26 27  1  0  0  0  0
 27 30  1  0  0  0  0
 30 29  2  0  0  0  0
 30 28  1  0  0  0  0
 31  1  1  0  0  0  0
 32 33  1  0  0  0  0
 33 38  1  6  0  0  0
 33 35  1  0  0  0  0
 34 31  1  1  0  0  0
 34 35  1  0  0  0  0
 36 32  1  6  0  0  0
 36 33  1  0  0  0  0
 36 34  1  0  0  0  0
 39 38  2  0  0  0  0
 40 42  1  0  0  0  0
 40 41  1  0  0  0  0
 41 38  1  0  0  0  0
 41 37  1  0  0  0  0
 42 43  1  0  0  0  0
 43 37  1  0  0  0  0
 44 10  1  0  0  0  0
 45 44  1  0  0  0  0
 46 47  1  0  0  0  0
 46 48  1  0  0  0  0
 47 50  1  1  0  0  0
 47 49  1  0  0  0  0
 48 49  1  0  0  0  0
 48 45  1  1  0  0  0
 50 52  1  0  0  0  0
 52 51  2  0  0  0  0
 52 53  1  0  0  0  0
 53 54  1  1  0  0  0
 55 53  1  0  0  0  0
 56 55  1  1  0  0  0
 57 58  1  0  0  0  0
 58 59  1  0  0  0  0
 58 56  1  0  0  0  0
 59 56  1  0  0  0  0
M  END
>  <MODEL>
5

>  <REMARK>
 VINA RESULT:      -7.3      2.936      9.961
  Name = 
  16 active torsions:
  status: ('A' for Active; 'I' for Inactive)
    1  A    between atoms: C_3  and  C_25
    2  A    between atoms: C_4  and  N_43
    3  A    between atoms: C_5  and  C_7
    4  A    between atoms: C_5  and  C_14
    5  A    between atoms: C_6  and  C_11
    6  A    between atoms: C_7  and  C_9
    7  A    between atoms: C_8  and  C_29
    8  A    between atoms: C_9  and  C_21
    9  A    between atoms: C_13  and  C_25
   10  A    between atoms: C_13  and  C_57
   11  A    between atoms: N_15  and  C_26
   12  A    between atoms: C_19  and  N_43
   13  A    between atoms: C_21  and  C_56
   14  A    between atoms: N_30  and  C_39
   15  A    between atoms: N_30  and  C_51
   16  A    between atoms: C_51  and  C_54
                            x       y       z     vdW  Elec       q    Type
                         _______ _______ _______ _____ _____    ______ ____

>  <TORSDO>
F 16

$$$$
=
 OpenBabel11032421053D

 59 67  0  0  1  0  0  0  0  0999 V2000
  184.7010  178.7780  139.9200 C   0  0  0  0  0  0  0  0  0  0  0  0
  189.3080  177.3540  138.4580 C   0  0  0  0  0  0  0  0  0  0  0  0
  189.3260  177.3980  139.8180 N   0  0  0  0  0  0  0  0  0  0  0  0
  187.0020  178.0560  138.4850 C   0  0  0  0  0  0  0  0  0  0  0  0
  185.8300  178.3890  137.8050 C   0  0  0  0  0  3  0  0  0  0  0  0
  185.8750  178.4430  140.6020 C   0  0  0  0  0  3  0  0  0  0  0  0
  187.0340  178.0810  139.8940 C   0  0  0  0  0  0  0  0  0  0  0  0
  188.1430  177.7050  137.7700 C   0  0  0  0  0  3  0  0  0  0  0  0
  184.6840  178.7480  138.5200 C   0  0  0  0  0  3  0  0  0  0  0  0
  188.2340  177.7490  140.5510 C   0  0  0  0  0  0  0  0  0  0  0  0
  189.1950  175.5620  136.3930 O   0  0  0  0  0  0  0  0  0  0  0  0
  193.3320  175.5310  136.9120 C   0  0  1  0  0  3  0  0  0  0  0  0
  191.2690  175.9920  135.4620 N   0  0  0  0  0  2  0  0  0  0  0  0
  193.3830  177.4990  140.0380 N   0  0  0  0  0  2  0  0  0  0  0  0
  190.5770  177.0350  137.7120 C   0  0  1  0  0  3  0  0  0  0  0  0
  191.6900  176.5070  138.6340 C   0  0  1  0  0  3  0  0  0  0  0  0
  193.4230  176.0770  134.5940 O   0  0  0  0  0  0  0  0  0  0  0  0
  192.6910  175.9070  135.6090 C   0  0  0  0  0  0  0  0  0  0  0  0
  193.0220  176.6060  137.9620 C   0  0  1  0  0  3  0  0  0  0  0  0
  194.0360  176.8170  138.9960 N   0  0  0  0  0  0  0  0  0  0  0  0
  190.3150  176.1310  136.5210 C   0  0  0  0  0  0  0  0  0  0  0  0
  194.4920  175.5540  139.5530 C   0  0  0  0  0  1  0  0  0  0  0  0
  191.9330  177.3960  139.8280 C   0  0  0  0  0  2  0  0  0  0  0  0
  192.8970  174.1250  137.3470 C   0  0  0  0  0  2  0  0  0  0  0  0
  194.0460  173.1340  137.2590 C   0  0  0  0  0  2  0  0  0  0  0  0
  195.2150  173.7430  136.5190 C   0  0  0  0  0  2  0  0  0  0  0  0
  196.0130  172.6430  135.8510 C   0  0  0  0  0  2  0  0  0  0  0  0
  197.8190  171.4310  137.1370 N   0  0  0  0  0  1  0  0  0  0  0  0
  198.1690  173.5610  136.2740 O   0  0  0  0  0  0  0  0  0  0  0  0
  197.3870  172.5870  136.4250 C   0  0  0  0  0  0  0  0  0  0  0  0
  183.5380  179.1530  140.6690 N   0  0  0  0  0  2  0  0  0  0  0  0
  180.0690  178.1840  141.8130 C   0  0  0  0  0  2  0  0  0  0  0  0
  180.2880  179.0440  140.5770 C   0  0  2  0  0  0  0  0  0  0  0  0
  182.3580  178.3100  140.7940 C   0  0  2  0  0  3  0  0  0  0  0  0
  181.3630  178.3960  139.2720 S   0  0  0  0  0  0  0  0  0  0  0  0
  181.3390  178.9960  141.6810 C   0  0  2  0  0  3  0  0  0  0  0  0
  180.6880  180.7760  138.1680 C   0  0  0  0  0  2  0  0  0  0  0  0
  179.6990  180.4190  140.4780 C   0  0  0  0  0  0  0  0  0  0  0  0
  179.0620  180.9020  141.4600 O   0  0  0  0  0  0  0  0  0  0  0  0
  179.2870  182.5110  139.1080 C   0  0  0  0  0  2  0  0  0  0  0  0
  179.8750  181.1970  139.2900 N   0  0  0  0  0  0  0  0  0  0  0  0
  179.8280  183.0200  137.7930 C   0  0  0  0  0  2  0  0  0  0  0  0
  180.4890  181.8350  137.1040 C   0  0  0  0  0  2  0  0  0  0  0  0
  188.3470  177.8120  142.0450 C   0  0  0  0  0  2  0  0  0  0  0  0
  189.4880  178.6290  142.4370 N   0  0  0  0  0  2  0  0  0  0  0  0
  190.4040  178.4880  144.6830 C   0  0  0  0  0  2  0  0  0  0  0  0
  189.5840  177.3610  145.2780 C   0  0  2  0  0  3  0  0  0  0  0  0
  190.3310  177.8340  143.3170 C   0  0  1  0  0  3  0  0  0  0  0  0
  189.5170  176.7020  143.9140 C   0  0  0  0  0  2  0  0  0  0  0  0
  188.2640  177.8470  145.6460 N   0  0  0  0  0  2  0  0  0  0  0  0
  188.2570  176.8100  147.7310 O   0  0  0  0  0  0  0  0  0  0  0  0
  187.6770  177.5760  146.9190 C   0  0  0  0  0  0  0  0  0  0  0  0
  186.3870  178.2490  147.2870 C   0  0  1  0  0  3  0  0  0  0  0  0
  186.5210  179.7590  147.4220 C   0  0  0  0  0  1  0  0  0  0  0  0
  185.2500  177.8720  146.3380 C   0  0  0  0  0  2  0  0  0  0  0  0
  185.0190  178.9220  145.2530 C   0  0  2  0  0  3  0  0  0  0  0  0
  183.3340  179.9450  144.1270 O   0  0  0  0  0  1  0  0  0  0  0  0
  183.6660  178.7620  144.7010 N   0  0  0  0  0  0  0  0  0  0  0  0
  184.8360  178.2620  143.9720 C   0  0  0  0  0  2  0  0  0  0  0  0
  1  6  1  0  0  0  0
  1 31  1  0  0  0  0
  2  3  1  0  0  0  0
  3 10  2  0  0  0  0
  4  7  1  0  0  0  0
  5  4  2  0  0  0  0
  5  9  1  0  0  0  0
  7 10  1  0  0  0  0
  7  6  2  0  0  0  0
  8  2  2  0  0  0  0
  8  4  1  0  0  0  0
  9  1  2  0  0  0  0
 10 44  1  0  0  0  0
 11 21  2  0  0  0  0
 12 24  1  1  0  0  0
 12 19  1  0  0  0  0
 13 18  1  0  0  0  0
 13 21  1  0  0  0  0
 15  2  1  1  0  0  0
 15 16  1  0  0  0  0
 16 23  1  1  0  0  0
 17 18  2  0  0  0  0
 18 12  1  0  0  0  0
 19 16  1  0  0  0  0
 19 20  1  1  0  0  0
 20 22  1  0  0  0  0
 20 14  1  0  0  0  0
 21 15  1  0  0  0  0
 23 14  1  0  0  0  0
 25 24  1  0  0  0  0
 26 25  1  0  0  0  0
 27 30  1  0  0  0  0
 27 26  1  0  0  0  0
 29 30  2  0  0  0  0
 30 28  1  0  0  0  0
 33 38  1  6  0  0  0
 33 36  1  0  0  0  0
 33 32  1  0  0  0  0
 34 31  1  6  0  0  0
 34 36  1  0  0  0  0
 35 33  1  0  0  0  0
 35 34  1  0  0  0  0
 36 32  1  1  0  0  0
 37 41  1  0  0  0  0
 38 39  2  0  0  0  0
 40 41  1  0  0  0  0
 41 38  1  0  0  0  0
 42 40  1  0  0  0  0
 43 42  1  0  0  0  0
 43 37  1  0  0  0  0
 44 45  1  0  0  0  0
 46 47  1  0  0  0  0
 47 50  1  6  0  0  0
 48 45  1  6  0  0  0
 48 49  1  0  0  0  0
 48 46  1  0  0  0  0
 49 47  1  0  0  0  0
 50 52  1  0  0  0  0
 52 53  1  0  0  0  0
 52 51  2  0  0  0  0
 53 54  1  6  0  0  0
 55 53  1  0  0  0  0
 56 55  1  1  0  0  0
 57 58  1  0  0  0  0
 58 56  1  0  0  0  0
 59 58  1  0  0  0  0
 59 56  1  0  0  0  0
M  END
>  <MODEL>
6

>  <REMARK>
 VINA RESULT:      -7.1      2.726     10.891
  Name = 
  16 active torsions:
  status: ('A' for Active; 'I' for Inactive)
    1  A    between atoms: C_3  and  C_25
    2  A    between atoms: C_4  and  N_43
    3  A    between atoms: C_5  and  C_7
    4  A    between atoms: C_5  and  C_14
    5  A    between atoms: C_6  and  C_11
    6  A    between atoms: C_7  and  C_9
    7  A    between atoms: C_8  and  C_29
    8  A    between atoms: C_9  and  C_21
    9  A    between atoms: C_13  and  C_25
   10  A    between atoms: C_13  and  C_57
   11  A    between atoms: N_15  and  C_26
   12  A    between atoms: C_19  and  N_43
   13  A    between atoms: C_21  and  C_56
   14  A    between atoms: N_30  and  C_39
   15  A    between atoms: N_30  and  C_51
   16  A    between atoms: C_51  and  C_54
                            x       y       z     vdW  Elec       q    Type
                         _______ _______ _______ _____ _____    ______ ____

>  <TORSDO>
F 16

$$$$
=
 OpenBabel11032421053D

 59 67  0  0  1  0  0  0  0  0999 V2000
  186.4240  177.8970  137.8010 C   0  0  0  0  0  0  0  0  0  0  0  0
  191.0020  175.8950  138.4440 C   0  0  0  0  0  0  0  0  0  0  0  0
  190.7940  176.7370  139.4910 N   0  0  0  0  0  0  0  0  0  0  0  0
  188.8290  176.4690  137.5740 C   0  0  0  0  0  0  0  0  0  0  0  0
  187.8400  176.3310  136.5990 C   0  0  0  0  0  3  0  0  0  0  0  0
  187.4140  178.0350  138.7780 C   0  0  0  0  0  3  0  0  0  0  0  0
  188.6240  177.3260  138.6750 C   0  0  0  0  0  0  0  0  0  0  0  0
  190.0230  175.7650  137.4540 C   0  0  0  0  0  3  0  0  0  0  0  0
  186.6410  177.0420  136.7130 C   0  0  0  0  0  3  0  0  0  0  0  0
  189.6440  177.4520  139.6360 C   0  0  0  0  0  0  0  0  0  0  0  0
  193.2810  177.3070  138.9920 O   0  0  0  0  0  0  0  0  0  0  0  0
  195.0810  174.1390  136.9640 C   0  0  1  0  0  3  0  0  0  0  0  0
  194.7610  175.5300  139.0930 N   0  0  0  0  0  2  0  0  0  0  0  0
  191.9580  172.5730  135.7650 N   0  0  0  0  0  2  0  0  0  0  0  0
  192.3310  175.1980  138.3080 C   0  0  1  0  0  3  0  0  0  0  0  0
  192.5550  174.6160  136.9030 C   0  0  1  0  0  3  0  0  0  0  0  0
  196.4180  173.9110  138.9250 O   0  0  0  0  0  0  0  0  0  0  0  0
  195.4400  174.4920  138.3770 C   0  0  0  0  0  0  0  0  0  0  0  0
  193.6470  173.5950  136.9220 C   0  0  1  0  0  3  0  0  0  0  0  0
  193.3590  172.6030  135.8860 N   0  0  0  0  0  0  0  0  0  0  0  0
  193.4760  176.0780  138.7750 C   0  0  0  0  0  0  0  0  0  0  0  0
  193.8750  173.0240  134.5940 C   0  0  0  0  0  1  0  0  0  0  0  0
  191.4060  173.7590  136.4320 C   0  0  0  0  0  2  0  0  0  0  0  0
  195.2950  175.3410  136.0330 C   0  0  0  0  0  2  0  0  0  0  0  0
  196.7310  175.4160  135.5420 C   0  0  0  0  0  2  0  0  0  0  0  0
  197.2610  174.0330  135.2380 C   0  0  0  0  0  2  0  0  0  0  0  0
  198.6510  173.8900  135.8220 C   0  0  0  0  0  2  0  0  0  0  0  0
  199.1700  171.4700  135.3140 N   0  0  0  0  0  1  0  0  0  0  0  0
  198.8120  172.2000  137.4920 O   0  0  0  0  0  0  0  0  0  0  0  0
  198.8760  172.4860  136.2680 C   0  0  0  0  0  0  0  0  0  0  0  0
  185.2050  178.6390  137.9290 N   0  0  0  0  0  2  0  0  0  0  0  0
  182.1560  178.8630  140.1510 C   0  0  0  0  0  2  0  0  0  0  0  0
  182.0790  179.1660  138.6630 C   0  0  2  0  0  0  0  0  0  0  0  0
  184.0400  178.1530  138.6550 C   0  0  2  0  0  3  0  0  0  0  0  0
  182.6500  177.8950  137.5060 S   0  0  0  0  0  0  0  0  0  0  0  0
  183.4010  179.3000  139.4100 C   0  0  2  0  0  3  0  0  0  0  0  0
  181.0350  179.5690  135.8850 C   0  0  0  0  0  2  0  0  0  0  0  0
  181.6220  180.5060  138.1690 C   0  0  0  0  0  0  0  0  0  0  0  0
  181.7320  181.5220  138.9170 O   0  0  0  0  0  0  0  0  0  0  0  0
  180.5770  181.9020  136.3310 C   0  0  0  0  0  2  0  0  0  0  0  0
  181.0870  180.6470  136.8500 N   0  0  0  0  0  0  0  0  0  0  0  0
  180.2420  181.6370  134.8820 C   0  0  0  0  0  2  0  0  0  0  0  0
  180.2900  180.1280  134.6910 C   0  0  0  0  0  2  0  0  0  0  0  0
  189.5080  178.3890  140.7980 C   0  0  0  0  0  2  0  0  0  0  0  0
  189.1650  177.6540  142.0090 N   0  0  0  0  0  2  0  0  0  0  0  0
  190.7600  178.1320  143.7780 C   0  0  0  0  0  2  0  0  0  0  0  0
  190.4520  177.0320  144.7740 C   0  0  2  0  0  3  0  0  0  0  0  0
  190.4030  177.2080  142.6310 C   0  0  1  0  0  3  0  0  0  0  0  0
  190.1030  176.1050  143.6260 C   0  0  0  0  0  2  0  0  0  0  0  0
  189.2460  177.3570  145.5180 N   0  0  0  0  0  2  0  0  0  0  0  0
  189.9710  176.3630  147.4950 O   0  0  0  0  0  0  0  0  0  0  0  0
  189.0920  177.0370  146.9010 C   0  0  0  0  0  0  0  0  0  0  0  0
  187.8910  177.5520  147.6400 C   0  0  1  0  0  3  0  0  0  0  0  0
  188.2460  178.2220  148.9600 C   0  0  0  0  0  1  0  0  0  0  0  0
  187.0250  178.4600  146.7690 C   0  0  0  0  0  2  0  0  0  0  0  0
  186.2730  177.6910  145.6850 C   0  0  2  0  0  3  0  0  0  0  0  0
  185.8200  177.7760  143.4610 O   0  0  0  0  0  1  0  0  0  0  0  0
  186.0360  178.5760  144.5360 N   0  0  0  0  0  0  0  0  0  0  0  0
  184.9620  178.2860  145.4900 C   0  0  0  0  0  2  0  0  0  0  0  0
  1 31  1  0  0  0  0
  1  6  1  0  0  0  0
  2  3  1  0  0  0  0
  3 10  2  0  0  0  0
  4  7  1  0  0  0  0
  5  9  1  0  0  0  0
  5  4  2  0  0  0  0
  7  6  2  0  0  0  0
  7 10  1  0  0  0  0
  8  4  1  0  0  0  0
  8  2  2  0  0  0  0
  9  1  2  0  0  0  0
 10 44  1  0  0  0  0
 12 24  1  6  0  0  0
 12 18  1  0  0  0  0
 14 20  1  0  0  0  0
 14 23  1  0  0  0  0
 15  2  1  6  0  0  0
 15 21  1  0  0  0  0
 16 23  1  1  0  0  0
 16 19  1  0  0  0  0
 16 15  1  0  0  0  0
 18 17  2  0  0  0  0
 18 13  1  0  0  0  0
 19 20  1  6  0  0  0
 19 12  1  0  0  0  0
 21 11  2  0  0  0  0
 21 13  1  0  0  0  0
 22 20  1  0  0  0  0
 25 24  1  0  0  0  0
 26 25  1  0  0  0  0
 26 27  1  0  0  0  0
 27 30  1  0  0  0  0
 28 30  1  0  0  0  0
 30 29  2  0  0  0  0
 33 38  1  6  0  0  0
 33 36  1  0  0  0  0
 33 32  1  0  0  0  0
 34 31  1  6  0  0  0
 34 36  1  0  0  0  0
 35 34  1  0  0  0  0
 35 33  1  0  0  0  0
 36 32  1  1  0  0  0
 37 41  1  0  0  0  0
 38 39  2  0  0  0  0
 40 41  1  0  0  0  0
 41 38  1  0  0  0  0
 42 40  1  0  0  0  0
 43 42  1  0  0  0  0
 43 37  1  0  0  0  0
 44 45  1  0  0  0  0
 46 47  1  0  0  0  0
 47 50  1  1  0  0  0
 48 45  1  1  0  0  0
 48 49  1  0  0  0  0
 48 46  1  0  0  0  0
 49 47  1  0  0  0  0
 50 52  1  0  0  0  0
 52 51  2  0  0  0  0
 52 53  1  0  0  0  0
 53 54  1  1  0  0  0
 55 53  1  0  0  0  0
 56 55  1  1  0  0  0
 57 58  1  0  0  0  0
 58 59  1  0  0  0  0
 58 56  1  0  0  0  0
 59 56  1  0  0  0  0
M  END
>  <MODEL>
7

>  <REMARK>
 VINA RESULT:      -7.0      2.653     10.930
  Name = 
  16 active torsions:
  status: ('A' for Active; 'I' for Inactive)
    1  A    between atoms: C_3  and  C_25
    2  A    between atoms: C_4  and  N_43
    3  A    between atoms: C_5  and  C_7
    4  A    between atoms: C_5  and  C_14
    5  A    between atoms: C_6  and  C_11
    6  A    between atoms: C_7  and  C_9
    7  A    between atoms: C_8  and  C_29
    8  A    between atoms: C_9  and  C_21
    9  A    between atoms: C_13  and  C_25
   10  A    between atoms: C_13  and  C_57
   11  A    between atoms: N_15  and  C_26
   12  A    between atoms: C_19  and  N_43
   13  A    between atoms: C_21  and  C_56
   14  A    between atoms: N_30  and  C_39
   15  A    between atoms: N_30  and  C_51
   16  A    between atoms: C_51  and  C_54
                            x       y       z     vdW  Elec       q    Type
                         _______ _______ _______ _____ _____    ______ ____

>  <TORSDO>
F 16

$$$$
=
 OpenBabel11032421053D

 59 67  0  0  1  0  0  0  0  0999 V2000
  186.1150  178.4660  138.8050 C   0  0  0  0  0  0  0  0  0  0  0  0
  190.7780  176.7490  137.9770 C   0  0  0  0  0  0  0  0  0  0  0  0
  190.5400  176.6050  139.3090 N   0  0  0  0  0  0  0  0  0  0  0  0
  188.5770  177.6940  137.7040 C   0  0  0  0  0  0  0  0  0  0  0  0
  187.5900  178.2460  136.8880 C   0  0  0  0  0  3  0  0  0  0  0  0
  187.1030  177.9130  139.6230 C   0  0  0  0  0  3  0  0  0  0  0  0
  188.3420  177.5230  139.0840 C   0  0  0  0  0  0  0  0  0  0  0  0
  189.8000  177.3180  137.1560 C   0  0  0  0  0  3  0  0  0  0  0  0
  186.3620  178.6300  137.4360 C   0  0  0  0  0  3  0  0  0  0  0  0
  189.3610  176.9730  139.8830 C   0  0  0  0  0  0  0  0  0  0  0  0
  190.9230  174.9800  135.8950 O   0  0  0  0  0  0  0  0  0  0  0  0
  194.9310  174.8080  137.0310 C   0  0  1  0  0  3  0  0  0  0  0  0
  193.1270  175.3500  135.2930 N   0  0  0  0  0  2  0  0  0  0  0  0
  194.5710  176.7450  140.1560 N   0  0  0  0  0  2  0  0  0  0  0  0
  192.1350  176.3950  137.4270 C   0  0  1  0  0  3  0  0  0  0  0  0
  193.0790  175.8230  138.4980 C   0  0  1  0  0  3  0  0  0  0  0  0
  195.3880  175.3720  134.7610 O   0  0  0  0  0  0  0  0  0  0  0  0
  194.5070  175.2160  135.6510 C   0  0  0  0  0  0  0  0  0  0  0  0
  194.5000  175.8830  138.0370 C   0  0  1  0  0  3  0  0  0  0  0  0
  195.3520  176.0510  139.2150 N   0  0  0  0  0  0  0  0  0  0  0  0
  192.0280  175.5100  136.1980 C   0  0  0  0  0  0  0  0  0  0  0  0
  195.6790  174.7690  139.8160 C   0  0  0  0  0  1  0  0  0  0  0  0
  193.1660  176.6920  139.7280 C   0  0  0  0  0  2  0  0  0  0  0  0
  194.3910  173.4130  137.3760 C   0  0  0  0  0  2  0  0  0  0  0  0
  194.6800  172.4150  136.2660 C   0  0  0  0  0  2  0  0  0  0  0  0
  195.3960  171.2030  136.8170 C   0  0  0  0  0  2  0  0  0  0  0  0
  196.6050  171.6520  137.6110 C   0  0  0  0  0  2  0  0  0  0  0  0
  198.9860  172.3810  137.1850 N   0  0  0  0  0  1  0  0  0  0  0  0
  197.7350  171.3110  135.5420 O   0  0  0  0  0  0  0  0  0  0  0  0
  197.7900  171.7670  136.7150 C   0  0  0  0  0  0  0  0  0  0  0  0
  184.8660  178.8630  139.3850 N   0  0  0  0  0  2  0  0  0  0  0  0
  181.4270  177.3240  139.0920 C   0  0  0  0  0  2  0  0  0  0  0  0
  181.6610  178.6040  139.8780 C   0  0  2  0  0  0  0  0  0  0  0  0
  183.5730  178.5840  138.7770 C   0  0  2  0  0  3  0  0  0  0  0  0
  182.4470  179.9940  139.0240 S   0  0  0  0  0  0  0  0  0  0  0  0
  182.8000  177.6180  139.6530 C   0  0  2  0  0  3  0  0  0  0  0  0
  183.7720  178.8590  141.9860 C   0  0  0  0  0  2  0  0  0  0  0  0
  181.3250  178.6880  141.3370 C   0  0  0  0  0  0  0  0  0  0  0  0
  180.1190  178.5870  141.7110 O   0  0  0  0  0  0  0  0  0  0  0  0
  182.1010  178.9980  143.7290 C   0  0  0  0  0  2  0  0  0  0  0  0
  182.3620  178.8560  142.3090 N   0  0  0  0  0  0  0  0  0  0  0  0
  183.4580  179.0140  144.3920 C   0  0  0  0  0  2  0  0  0  0  0  0
  184.4850  179.1840  143.2820 C   0  0  0  0  0  2  0  0  0  0  0  0
  189.1920  176.8190  141.3650 C   0  0  0  0  0  2  0  0  0  0  0  0
  189.7280  177.9790  142.0640 N   0  0  0  0  0  2  0  0  0  0  0  0
  191.5460  178.5650  143.5650 C   0  0  0  0  0  2  0  0  0  0  0  0
  191.6180  177.3390  144.4530 C   0  0  2  0  0  3  0  0  0  0  0  0
  191.1180  177.7050  142.3930 C   0  0  1  0  0  3  0  0  0  0  0  0
  191.1990  176.4770  143.2780 C   0  0  0  0  0  2  0  0  0  0  0  0
  190.5470  177.3720  145.4350 N   0  0  0  0  0  2  0  0  0  0  0  0
  191.6780  176.0560  146.9890 O   0  0  0  0  0  0  0  0  0  0  0  0
  190.6650  176.7480  146.7150 C   0  0  0  0  0  0  0  0  0  0  0  0
  189.5860  176.9670  147.7360 C   0  0  1  0  0  3  0  0  0  0  0  0
  189.7240  178.2910  148.4730 C   0  0  0  0  0  1  0  0  0  0  0  0
  188.1890  176.8030  147.1400 C   0  0  0  0  0  2  0  0  0  0  0  0
  187.5720  178.1340  146.7160 C   0  0  2  0  0  3  0  0  0  0  0  0
  185.6810  179.3620  146.9890 O   0  0  0  0  0  1  0  0  0  0  0  0
  186.1160  178.0790  146.9100 N   0  0  0  0  0  0  0  0  0  0  0  0
  186.6990  177.9210  145.5740 C   0  0  0  0  0  2  0  0  0  0  0  0
  1 31  1  0  0  0  0
  1  6  1  0  0  0  0
  2  3  1  0  0  0  0
  3 10  2  0  0  0  0
  4  7  1  0  0  0  0
  5  9  1  0  0  0  0
  5  4  2  0  0  0  0
  7  6  2  0  0  0  0
  7 10  1  0  0  0  0
  8  4  1  0  0  0  0
  8  2  2  0  0  0  0
  9  1  2  0  0  0  0
 10 44  1  0  0  0  0
 11 21  2  0  0  0  0
 12 24  1  1  0  0  0
 12 19  1  0  0  0  0
 13 18  1  0  0  0  0
 13 21  1  0  0  0  0
 15  2  1  1  0  0  0
 15 16  1  0  0  0  0
 16 23  1  1  0  0  0
 17 18  2  0  0  0  0
 18 12  1  0  0  0  0
 19 16  1  0  0  0  0
 19 20  1  1  0  0  0
 20 22  1  0  0  0  0
 20 14  1  0  0  0  0
 21 15  1  0  0  0  0
 23 14  1  0  0  0  0
 25 26  1  0  0  0  0
 25 24  1  0  0  0  0
 26 27  1  0  0  0  0
 29 30  2  0  0  0  0
 30 28  1  0  0  0  0
 30 27  1  0  0  0  0
 32 33  1  0  0  0  0
 33 38  1  1  0  0  0
 34 35  1  0  0  0  0
 34 31  1  1  0  0  0
 34 36  1  0  0  0  0
 35 33  1  0  0  0  0
 36 32  1  6  0  0  0
 36 33  1  0  0  0  0
 37 41  1  0  0  0  0
 37 43  1  0  0  0  0
 38 39  2  0  0  0  0
 38 41  1  0  0  0  0
 40 42  1  0  0  0  0
 41 40  1  0  0  0  0
 43 42  1  0  0  0  0
 44 45  1  0  0  0  0
 46 47  1  0  0  0  0
 47 50  1  1  0  0  0
 48 45  1  1  0  0  0
 48 49  1  0  0  0  0
 48 46  1  0  0  0  0
 49 47  1  0  0  0  0
 50 52  1  0  0  0  0
 52 51  2  0  0  0  0
 52 53  1  0  0  0  0
 53 54  1  6  0  0  0
 55 53  1  0  0  0  0
 56 58  1  0  0  0  0
 56 55  1  1  0  0  0
 58 57  1  0  0  0  0
 59 56  1  0  0  0  0
 59 58  1  0  0  0  0
M  END
>  <MODEL>
8

>  <REMARK>
 VINA RESULT:      -6.9      2.540     10.692
  Name = 
  16 active torsions:
  status: ('A' for Active; 'I' for Inactive)
    1  A    between atoms: C_3  and  C_25
    2  A    between atoms: C_4  and  N_43
    3  A    between atoms: C_5  and  C_7
    4  A    between atoms: C_5  and  C_14
    5  A    between atoms: C_6  and  C_11
    6  A    between atoms: C_7  and  C_9
    7  A    between atoms: C_8  and  C_29
    8  A    between atoms: C_9  and  C_21
    9  A    between atoms: C_13  and  C_25
   10  A    between atoms: C_13  and  C_57
   11  A    between atoms: N_15  and  C_26
   12  A    between atoms: C_19  and  N_43
   13  A    between atoms: C_21  and  C_56
   14  A    between atoms: N_30  and  C_39
   15  A    between atoms: N_30  and  C_51
   16  A    between atoms: C_51  and  C_54
                            x       y       z     vdW  Elec       q    Type
                         _______ _______ _______ _____ _____    ______ ____

>  <TORSDO>
F 16

$$$$
=
 OpenBabel11032421053D

 59 67  0  0  1  0  0  0  0  0999 V2000
  184.5010  178.2920  138.3580 C   0  0  0  0  0  0  0  0  0  0  0  0
  189.3810  177.1740  137.7930 C   0  0  0  0  0  0  0  0  0  0  0  0
  189.1770  177.3710  139.1230 N   0  0  0  0  0  0  0  0  0  0  0  0
  187.0520  177.6430  137.3850 C   0  0  0  0  0  0  0  0  0  0  0  0
  185.9820  177.7820  136.5010 C   0  0  0  0  0  3  0  0  0  0  0  0
  185.5730  178.1520  139.2450 C   0  0  0  0  0  3  0  0  0  0  0  0
  186.8560  177.8290  138.7690 C   0  0  0  0  0  0  0  0  0  0  0  0
  188.3170  177.3290  136.8990 C   0  0  0  0  0  3  0  0  0  0  0  0
  184.7100  178.1040  136.9860 C   0  0  0  0  0  3  0  0  0  0  0  0
  187.9570  177.6930  139.6350 C   0  0  0  0  0  0  0  0  0  0  0  0
  189.7190  175.2900  135.8360 O   0  0  0  0  0  0  0  0  0  0  0  0
  193.7010  175.5310  137.0510 C   0  0  1  0  0  3  0  0  0  0  0  0
  191.8980  175.8040  135.2490 N   0  0  0  0  0  2  0  0  0  0  0  0
  193.1090  177.6310  140.0320 N   0  0  0  0  0  2  0  0  0  0  0  0
  190.7750  176.8990  137.2910 C   0  0  1  0  0  3  0  0  0  0  0  0
  191.7370  176.4800  138.4150 C   0  0  1  0  0  3  0  0  0  0  0  0
  194.1620  175.9820  134.7560 O   0  0  0  0  0  0  0  0  0  0  0  0
  193.2760  175.8110  135.6400 C   0  0  0  0  0  0  0  0  0  0  0  0
  193.1580  176.6300  137.9750 C   0  0  1  0  0  3  0  0  0  0  0  0
  193.9670  176.9450  139.1540 N   0  0  0  0  0  0  0  0  0  0  0  0
  190.7700  175.9310  136.1220 C   0  0  0  0  0  0  0  0  0  0  0  0
  194.3850  175.7370  139.8460 C   0  0  0  0  0  1  0  0  0  0  0  0
  191.7240  177.4320  139.5850 C   0  0  0  0  0  2  0  0  0  0  0  0
  193.2700  174.1210  137.4790 C   0  0  0  0  0  2  0  0  0  0  0  0
  194.3800  173.1080  137.2520 C   0  0  0  0  0  2  0  0  0  0  0  0
  195.6480  173.8010  136.8090 C   0  0  0  0  0  2  0  0  0  0  0  0
  196.6680  173.7410  137.9260 C   0  0  0  0  0  2  0  0  0  0  0  0
  197.7050  175.6230  136.5970 N   0  0  0  0  0  1  0  0  0  0  0  0
  198.3450  175.1940  138.7900 O   0  0  0  0  0  0  0  0  0  0  0  0
  197.6200  174.8820  137.8100 C   0  0  0  0  0  0  0  0  0  0  0  0
  183.2070  178.6310  138.8710 N   0  0  0  0  0  2  0  0  0  0  0  0
  180.1070  176.5720  138.2140 C   0  0  0  0  0  2  0  0  0  0  0  0
  180.1350  177.6440  139.2910 C   0  0  2  0  0  0  0  0  0  0  0  0
  181.9600  178.2620  138.2150 C   0  0  2  0  0  3  0  0  0  0  0  0
  180.6040  179.3240  138.8050 S   0  0  0  0  0  0  0  0  0  0  0  0
  181.4270  176.9830  138.8270 C   0  0  2  0  0  3  0  0  0  0  0  0
  180.0850  179.7320  141.4370 C   0  0  0  0  0  2  0  0  0  0  0  0
  179.8630  177.3060  140.7260 C   0  0  0  0  0  0  0  0  0  0  0  0
  179.7090  176.0970  141.0680 O   0  0  0  0  0  0  0  0  0  0  0  0
  179.4900  178.0860  143.1080 C   0  0  0  0  0  2  0  0  0  0  0  0
  179.8020  178.3400  141.7140 N   0  0  0  0  0  0  0  0  0  0  0  0
  179.6630  179.4120  143.8110 C   0  0  0  0  0  2  0  0  0  0  0  0
  179.7820  180.4710  142.7240 C   0  0  0  0  0  2  0  0  0  0  0  0
  187.8240  177.9330  141.1090 C   0  0  0  0  0  2  0  0  0  0  0  0
  188.9980  178.6260  141.6210 N   0  0  0  0  0  2  0  0  0  0  0  0
  189.8380  178.2460  143.8690 C   0  0  0  0  0  2  0  0  0  0  0  0
  188.9010  177.1640  144.3680 C   0  0  2  0  0  3  0  0  0  0  0  0
  189.7400  177.6970  142.4600 C   0  0  1  0  0  3  0  0  0  0  0  0
  188.8100  176.6090  142.9600 C   0  0  0  0  0  2  0  0  0  0  0  0
  187.6230  177.7460  144.7430 N   0  0  0  0  0  2  0  0  0  0  0  0
  187.7820  177.1200  146.9800 O   0  0  0  0  0  0  0  0  0  0  0  0
  187.1440  177.7350  146.0880 C   0  0  0  0  0  0  0  0  0  0  0  0
  185.8970  178.5000  146.4250 C   0  0  1  0  0  3  0  0  0  0  0  0
  186.0550  179.3820  147.6550 C   0  0  0  0  0  1  0  0  0  0  0  0
  185.3700  179.2950  145.2330 C   0  0  0  0  0  2  0  0  0  0  0  0
  184.3590  178.5070  144.4020 C   0  0  2  0  0  3  0  0  0  0  0  0
  183.9400  177.9000  142.2550 O   0  0  0  0  0  1  0  0  0  0  0  0
  184.4690  178.9080  142.9920 N   0  0  0  0  0  0  0  0  0  0  0  0
  183.3830  179.4200  143.8330 C   0  0  0  0  0  2  0  0  0  0  0  0
  1 31  1  0  0  0  0
  1  6  1  0  0  0  0
  2  3  1  0  0  0  0
  3 10  2  0  0  0  0
  4  7  1  0  0  0  0
  5  9  1  0  0  0  0
  5  4  2  0  0  0  0
  7  6  2  0  0  0  0
  7 10  1  0  0  0  0
  8  4  1  0  0  0  0
  8  2  2  0  0  0  0
  9  1  2  0  0  0  0
 10 44  1  0  0  0  0
 11 21  2  0  0  0  0
 12 24  1  1  0  0  0
 12 19  1  0  0  0  0
 13 18  1  0  0  0  0
 13 21  1  0  0  0  0
 15  2  1  1  0  0  0
 15 16  1  0  0  0  0
 16 23  1  1  0  0  0
 17 18  2  0  0  0  0
 18 12  1  0  0  0  0
 19 16  1  0  0  0  0
 19 20  1  1  0  0  0
 20 22  1  0  0  0  0
 20 14  1  0  0  0  0
 21 15  1  0  0  0  0
 23 14  1  0  0  0  0
 25 24  1  0  0  0  0
 26 25  1  0  0  0  0
 26 27  1  0  0  0  0
 28 30  1  0  0  0  0
 30 27  1  0  0  0  0
 30 29  2  0  0  0  0
 32 33  1  0  0  0  0
 33 38  1  1  0  0  0
 34 35  1  0  0  0  0
 34 36  1  0  0  0  0
 34 31  1  1  0  0  0
 35 33  1  0  0  0  0
 36 32  1  6  0  0  0
 36 33  1  0  0  0  0
 37 41  1  0  0  0  0
 37 43  1  0  0  0  0
 38 39  2  0  0  0  0
 38 41  1  0  0  0  0
 40 42  1  0  0  0  0
 41 40  1  0  0  0  0
 43 42  1  0  0  0  0
 44 45  1  0  0  0  0
 46 47  1  0  0  0  0
 47 50  1  6  0  0  0
 48 45  1  6  0  0  0
 48 49  1  0  0  0  0
 48 46  1  0  0  0  0
 49 47  1  0  0  0  0
 50 52  1  0  0  0  0
 52 53  1  0  0  0  0
 52 51  2  0  0  0  0
 53 54  1  1  0  0  0
 55 53  1  0  0  0  0
 56 55  1  1  0  0  0
 57 58  1  0  0  0  0
 58 59  1  0  0  0  0
 58 56  1  0  0  0  0
 59 56  1  0  0  0  0
M  END
>  <MODEL>
9

>  <REMARK>
 VINA RESULT:      -6.8      2.659     10.797
  Name = 
  16 active torsions:
  status: ('A' for Active; 'I' for Inactive)
    1  A    between atoms: C_3  and  C_25
    2  A    between atoms: C_4  and  N_43
    3  A    between atoms: C_5  and  C_7
    4  A    between atoms: C_5  and  C_14
    5  A    between atoms: C_6  and  C_11
    6  A    between atoms: C_7  and  C_9
    7  A    between atoms: C_8  and  C_29
    8  A    between atoms: C_9  and  C_21
    9  A    between atoms: C_13  and  C_25
   10  A    between atoms: C_13  and  C_57
   11  A    between atoms: N_15  and  C_26
   12  A    between atoms: C_19  and  N_43
   13  A    between atoms: C_21  and  C_56
   14  A    between atoms: N_30  and  C_39
   15  A    between atoms: N_30  and  C_51
   16  A    between atoms: C_51  and  C_54
                            x       y       z     vdW  Elec       q    Type
                         _______ _______ _______ _____ _____    ______ ____

>  <TORSDO>
F 16

$$$$
