=
 OpenBabel11042410403D

 44 49  0  0  1  0  0  0  0  0999 V2000
  186.5420  178.0760  138.3290 C   0  0  2  0  0  3  0  0  0  0  0  0
  188.3140  177.8590  142.1440 C   0  0  0  0  0  0  0  0  0  0  0  0
  190.2020  176.7980  141.0430 C   0  0  0  0  0  3  0  0  0  0  0  0
  186.9680  178.5180  142.0300 C   0  0  0  0  0  2  0  0  0  0  0  0
  188.2920  177.5360  139.7500 O   0  0  0  0  0  0  0  0  0  0  0  0
  186.2920  178.1540  140.7060 C   0  0  0  0  0  2  0  0  0  0  0  0
  188.9500  177.7100  143.3920 C   0  0  0  0  0  0  0  0  0  0  0  0
  187.2190  178.4000  139.5960 N   0  0  0  0  0  0  0  0  0  0  0  0
  188.9480  177.4060  140.9770 C   0  0  0  0  0  0  0  0  0  0  0  0
  190.8360  176.6490  142.2750 C   0  0  0  0  0  3  0  0  0  0  0  0
  190.2120  177.1000  143.4420 C   0  0  0  0  0  3  0  0  0  0  0  0
  189.2300  176.6610  146.1360 O   0  0  0  0  0  0  0  0  0  0  0  0
  188.4070  177.5840  145.8970 C   0  0  0  0  0  0  0  0  0  0  0  0
  188.2850  178.1500  144.5860 N   0  0  0  0  0  2  0  0  0  0  0  0
  187.5590  178.1100  147.0000 C   0  0  0  0  0  2  0  0  0  0  0  0
  186.0930  177.9420  146.6590 C   0  0  0  0  0  2  0  0  0  0  0  0
  185.4660  179.1860  146.7040 O   0  0  0  0  0  0  0  0  0  0  0  0
  185.1510  179.4710  145.3770 C   0  0  0  0  0  2  0  0  0  0  0  0
  183.2380  179.6140  143.9970 O   0  0  0  0  0  0  0  0  0  0  0  0
  183.7790  178.4070  143.7730 O   0  0  0  0  0  0  0  0  0  0  0  0
  183.7800  178.9170  145.0530 C   0  0  0  0  0  3  0  0  0  0  0  0
  189.5490  177.5950  137.0040 C   0  0  0  0  0  2  0  0  0  0  0  0
  187.2350  178.6350  137.0700 C   0  0  2  0  0  3  0  0  0  0  0  0
  186.6570  178.1950  135.7980 N   0  0  0  0  0  2  0  0  0  0  0  0
  187.2700  176.9660  135.3020 C   0  0  0  0  0  2  0  0  0  0  0  0
  188.5930  177.2830  134.6230 C   0  0  0  0  0  2  0  0  0  0  0  0
  188.7500  178.8870  137.0840 C   0  0  0  0  0  2  0  0  0  0  0  0
  189.7900  177.1340  135.5660 C   0  0  0  0  0  2  0  0  0  0  0  0
  184.7620  179.6750  138.8860 N   0  0  0  0  0  0  0  0  0  0  0  0
  185.0860  178.4830  138.3200 C   0  0  0  0  0  0  0  0  0  0  0  0
  184.0610  177.6420  137.8340 C   0  0  0  0  0  0  0  0  0  0  0  0
  182.4750  179.3120  138.4970 N   0  0  0  0  0  0  0  0  0  0  0  0
  183.4750  180.0920  138.9750 C   0  0  0  0  0  3  0  0  0  0  0  0
  182.7300  178.1040  137.9320 C   0  0  0  0  0  0  0  0  0  0  0  0
  181.6340  177.3300  137.4490 N   0  0  0  0  0  1  0  0  0  0  0  0
  184.2410  175.2610  137.8430 N   0  0  0  0  0  0  0  0  0  0  0  0
  184.4020  176.3750  137.2490 N   0  0  0  0  0  0  0  0  0  0  0  0
  185.5700  170.3730  135.4070 O   0  0  0  0  0  1  0  0  0  0  0  0
  185.2470  171.5820  136.0090 C   0  0  0  0  0  0  0  0  0  0  0  0
  183.9090  171.9540  136.1570 C   0  0  0  0  0  3  0  0  0  0  0  0
  183.5850  173.1750  136.7580 C   0  0  0  0  0  3  0  0  0  0  0  0
  186.2620  172.4280  136.4610 C   0  0  0  0  0  3  0  0  0  0  0  0
  185.9380  173.6470  137.0640 C   0  0  0  0  0  3  0  0  0  0  0  0
  184.5960  174.0270  137.2170 C   0  0  0  0  0  0  0  0  0  0  0  0
  1 30  1  1  0  0  0
  1  8  1  0  0  0  0
  2  7  1  0  0  0  0
  3 10  2  0  0  0  0
  4  2  1  0  0  0  0
  5  9  1  0  0  0  0
  6  4  1  0  0  0  0
  7 11  2  0  0  0  0
  7 14  1  0  0  0  0
  8  5  1  0  0  0  0
  8  6  1  0  0  0  0
  9  3  1  0  0  0  0
  9  2  2  0  0  0  0
 10 11  1  0  0  0  0
 13 12  2  0  0  0  0
 13 15  1  0  0  0  0
 14 13  1  0  0  0  0
 16 17  1  0  0  0  0
 16 15  1  0  0  0  0
 18 17  1  0  0  0  0
 19 21  1  0  0  0  0
 20 19  1  0  0  0  0
 20 21  1  0  0  0  0
 21 18  1  0  0  0  0
 22 27  1  0  0  0  0
 23 27  1  0  0  0  0
 23  1  1  1  0  0  0
 24 23  1  0  0  0  0
 25 24  1  0  0  0  0
 26 25  1  0  0  0  0
 26 28  1  0  0  0  0
 28 22  1  0  0  0  0
 29 33  1  0  0  0  0
 30 29  2  0  0  0  0
 31 34  2  0  0  0  0
 31 30  1  0  0  0  0
 32 33  2  0  0  0  0
 34 32  1  0  0  0  0
 35 34  1  0  0  0  0
 37 31  1  0  0  0  0
 37 36  2  0  0  0  0
 38 39  1  0  0  0  0
 39 40  2  0  0  0  0
 39 42  1  0  0  0  0
 40 41  1  0  0  0  0
 41 44  2  0  0  0  0
 42 43  2  0  0  0  0
 43 44  1  0  0  0  0
 44 36  1  0  0  0  0
M  END
>  <MODEL>
1

>  <REMARK>
 VINA RESULT:      -7.9      0.000      0.000
  Name = 
  11 active torsions:
  status: ('A' for Active; 'I' for Inactive)
    1  A    between atoms: C_5  and  C_41
    2  A    between atoms: N_7  and  C_24
    3  A    between atoms: C_9  and  C_41
    4  A    between atoms: O_10  and  C_37
    5  A    between atoms: O_10  and  C_43
    6  A    between atoms: C_11  and  N_27
    7  A    between atoms: C_28  and  N_39
    8  A    between atoms: N_31  and  C_41
    9  A    between atoms: C_32  and  C_37
   10  A    between atoms: C_32  and  C_38
   11  A    between atoms: C_35  and  C_43
                            x       y       z     vdW  Elec       q    Type
                         _______ _______ _______ _____ _____    ______ ____

>  <TORSDO>
F 11

$$$$
=
 OpenBabel11042410403D

 44 49  0  0  1  0  0  0  0  0999 V2000
  185.9740  177.8720  138.3640 C   0  0  2  0  0  3  0  0  0  0  0  0
  188.8800  178.0190  141.4100 C   0  0  0  0  0  0  0  0  0  0  0  0
  190.4160  177.0710  139.7840 C   0  0  0  0  0  3  0  0  0  0  0  0
  187.5080  178.5500  141.7200 C   0  0  0  0  0  2  0  0  0  0  0  0
  188.1310  177.5670  139.1580 O   0  0  0  0  0  0  0  0  0  0  0  0
  186.4870  178.0560  140.6930 C   0  0  0  0  0  2  0  0  0  0  0  0
  189.8910  177.9950  142.3890 C   0  0  0  0  0  0  0  0  0  0  0  0
  186.9830  178.3230  139.3380 N   0  0  0  0  0  0  0  0  0  0  0  0
  189.1530  177.5620  140.1120 C   0  0  0  0  0  0  0  0  0  0  0  0
  191.4220  177.0460  140.7500 C   0  0  0  0  0  3  0  0  0  0  0  0
  191.1590  177.5030  142.0440 C   0  0  0  0  0  3  0  0  0  0  0  0
  189.7600  176.3920  144.8640 O   0  0  0  0  0  0  0  0  0  0  0  0
  189.4940  177.6230  144.8970 C   0  0  0  0  0  0  0  0  0  0  0  0
  189.6000  178.4390  143.7240 N   0  0  0  0  0  2  0  0  0  0  0  0
  189.0820  178.2470  146.1830 C   0  0  0  0  0  2  0  0  0  0  0  0
  187.9590  177.4500  146.8160 C   0  0  0  0  0  2  0  0  0  0  0  0
  187.2340  178.2790  147.6690 O   0  0  0  0  0  0  0  0  0  0  0  0
  186.4880  179.0950  146.8200 C   0  0  0  0  0  2  0  0  0  0  0  0
  184.2690  178.2970  146.9520 O   0  0  0  0  0  0  0  0  0  0  0  0
  184.3240  179.0890  145.8700 O   0  0  0  0  0  0  0  0  0  0  0  0
  185.3970  178.2770  146.1640 C   0  0  0  0  0  3  0  0  0  0  0  0
  188.8360  178.6750  136.8830 C   0  0  0  0  0  2  0  0  0  0  0  0
  186.3690  178.0820  136.8880 C   0  0  2  0  0  3  0  0  0  0  0  0
  186.3360  176.8730  136.0600 N   0  0  0  0  0  2  0  0  0  0  0  0
  187.6120  176.1650  136.0550 C   0  0  0  0  0  2  0  0  0  0  0  0
  188.5740  176.8350  135.0870 C   0  0  0  0  0  2  0  0  0  0  0  0
  187.4310  179.1320  136.5270 C   0  0  0  0  0  2  0  0  0  0  0  0
  189.4930  177.8490  135.7760 C   0  0  0  0  0  2  0  0  0  0  0  0
  184.5480  179.8130  138.8460 N   0  0  0  0  0  0  0  0  0  0  0  0
  184.6100  178.4770  138.6070 C   0  0  0  0  0  0  0  0  0  0  0  0
  183.4330  177.7000  138.6840 C   0  0  0  0  0  0  0  0  0  0  0  0
  182.2280  179.7090  139.1910 N   0  0  0  0  0  0  0  0  0  0  0  0
  183.3750  180.4290  139.1320 C   0  0  0  0  0  3  0  0  0  0  0  0
  182.2230  178.3690  138.9760 C   0  0  0  0  0  0  0  0  0  0  0  0
  180.9840  177.6680  139.0530 N   0  0  0  0  0  1  0  0  0  0  0  0
  183.2330  175.7480  137.3240 N   0  0  0  0  0  0  0  0  0  0  0  0
  183.5010  176.2860  138.4460 N   0  0  0  0  0  0  0  0  0  0  0  0
  183.4850  170.1780  136.6190 O   0  0  0  0  0  1  0  0  0  0  0  0
  183.4290  171.5540  136.7940 C   0  0  0  0  0  0  0  0  0  0  0  0
  182.2350  172.2400  136.5590 C   0  0  0  0  0  3  0  0  0  0  0  0
  182.1800  173.6280  136.7300 C   0  0  0  0  0  3  0  0  0  0  0  0
  184.5680  172.2520  137.1990 C   0  0  0  0  0  3  0  0  0  0  0  0
  184.5130  173.6380  137.3720 C   0  0  0  0  0  3  0  0  0  0  0  0
  183.3170  174.3340  137.1390 C   0  0  0  0  0  0  0  0  0  0  0  0
  1 30  1  1  0  0  0
  1  8  1  0  0  0  0
  2  4  1  0  0  0  0
  2  7  1  0  0  0  0
  3  9  1  0  0  0  0
  3 10  2  0  0  0  0
  5  8  1  0  0  0  0
  5  9  1  0  0  0  0
  6  4  1  0  0  0  0
  7 14  1  0  0  0  0
  8  6  1  0  0  0  0
  9  2  2  0  0  0  0
 10 11  1  0  0  0  0
 11  7  2  0  0  0  0
 12 13  2  0  0  0  0
 13 15  1  0  0  0  0
 14 13  1  0  0  0  0
 15 16  1  0  0  0  0
 16 17  1  0  0  0  0
 18 17  1  0  0  0  0
 20 21  1  0  0  0  0
 20 19  1  0  0  0  0
 21 18  1  0  0  0  0
 21 19  1  0  0  0  0
 23  1  1  1  0  0  0
 24 23  1  0  0  0  0
 25 24  1  0  0  0  0
 26 28  1  0  0  0  0
 26 25  1  0  0  0  0
 27 22  1  0  0  0  0
 27 23  1  0  0  0  0
 28 22  1  0  0  0  0
 29 33  1  0  0  0  0
 30 31  1  0  0  0  0
 30 29  2  0  0  0  0
 31 34  2  0  0  0  0
 33 32  2  0  0  0  0
 34 35  1  0  0  0  0
 34 32  1  0  0  0  0
 36 37  2  0  0  0  0
 37 31  1  0  0  0  0
 38 39  1  0  0  0  0
 39 42  1  0  0  0  0
 40 41  1  0  0  0  0
 40 39  2  0  0  0  0
 41 44  2  0  0  0  0
 42 43  2  0  0  0  0
 44 36  1  0  0  0  0
 44 43  1  0  0  0  0
M  END
>  <MODEL>
2

>  <REMARK>
 VINA RESULT:      -7.5      1.238      1.492
  Name = 
  11 active torsions:
  status: ('A' for Active; 'I' for Inactive)
    1  A    between atoms: C_5  and  C_41
    2  A    between atoms: N_7  and  C_24
    3  A    between atoms: C_9  and  C_41
    4  A    between atoms: O_10  and  C_37
    5  A    between atoms: O_10  and  C_43
    6  A    between atoms: C_11  and  N_27
    7  A    between atoms: C_28  and  N_39
    8  A    between atoms: N_31  and  C_41
    9  A    between atoms: C_32  and  C_37
   10  A    between atoms: C_32  and  C_38
   11  A    between atoms: C_35  and  C_43
                            x       y       z     vdW  Elec       q    Type
                         _______ _______ _______ _____ _____    ______ ____

>  <TORSDO>
F 11

$$$$
=
 OpenBabel11042410403D

 44 49  0  0  1  0  0  0  0  0999 V2000
  186.3610  178.0470  138.2850 C   0  0  2  0  0  3  0  0  0  0  0  0
  188.5170  177.9010  141.9010 C   0  0  0  0  0  0  0  0  0  0  0  0
  190.3270  176.9230  140.6090 C   0  0  0  0  0  3  0  0  0  0  0  0
  187.1390  178.5030  141.9270 C   0  0  0  0  0  2  0  0  0  0  0  0
  188.2670  177.5810  139.5200 O   0  0  0  0  0  0  0  0  0  0  0  0
  186.3490  178.1110  140.6760 C   0  0  0  0  0  2  0  0  0  0  0  0
  189.2810  177.7780  143.0770 C   0  0  0  0  0  0  0  0  0  0  0  0
  187.1490  178.3990  139.4790 N   0  0  0  0  0  0  0  0  0  0  0  0
  189.0490  177.4780  140.6740 C   0  0  0  0  0  0  0  0  0  0  0  0
  191.0880  176.8000  141.7700 C   0  0  0  0  0  3  0  0  0  0  0  0
  190.5670  177.2230  142.9960 C   0  0  0  0  0  3  0  0  0  0  0  0
  187.2540  176.3950  144.7180 O   0  0  0  0  0  0  0  0  0  0  0  0
  187.7000  177.5160  145.0820 C   0  0  0  0  0  0  0  0  0  0  0  0
  188.7220  178.1880  144.3350 N   0  0  0  0  0  2  0  0  0  0  0  0
  187.1700  178.1450  146.3200 C   0  0  0  0  0  2  0  0  0  0  0  0
  187.9520  177.6700  147.5270 C   0  0  0  0  0  2  0  0  0  0  0  0
  189.1290  178.4080  147.6310 O   0  0  0  0  0  0  0  0  0  0  0  0
  190.0110  177.5730  148.3150 C   0  0  0  0  0  2  0  0  0  0  0  0
  191.5310  177.3850  146.5160 O   0  0  0  0  0  0  0  0  0  0  0  0
  192.0610  176.6920  147.5350 O   0  0  0  0  0  0  0  0  0  0  0  0
  190.6990  176.6510  147.3310 C   0  0  0  0  0  3  0  0  0  0  0  0
  189.3670  177.7610  136.9030 C   0  0  0  0  0  2  0  0  0  0  0  0
  186.9560  178.5500  136.9540 C   0  0  2  0  0  3  0  0  0  0  0  0
  186.3960  177.9270  135.7510 N   0  0  0  0  0  2  0  0  0  0  0  0
  187.1280  176.7280  135.3530 C   0  0  0  0  0  2  0  0  0  0  0  0
  188.3900  177.1150  134.5990 C   0  0  0  0  0  2  0  0  0  0  0  0
  188.4340  178.9620  136.8890 C   0  0  0  0  0  2  0  0  0  0  0  0
  189.6200  177.1880  135.5080 C   0  0  0  0  0  2  0  0  0  0  0  0
  184.6650  179.7100  138.9130 N   0  0  0  0  0  0  0  0  0  0  0  0
  184.9170  178.4850  138.3840 C   0  0  0  0  0  0  0  0  0  0  0  0
  183.8380  177.6420  138.0350 C   0  0  0  0  0  0  0  0  0  0  0  0
  182.3470  179.3770  138.7480 N   0  0  0  0  0  0  0  0  0  0  0  0
  183.3990  180.1590  139.0930 C   0  0  0  0  0  3  0  0  0  0  0  0
  182.5300  178.1370  138.2270 C   0  0  0  0  0  0  0  0  0  0  0  0
  181.3820  177.3640  137.8840 N   0  0  0  0  0  1  0  0  0  0  0  0
  183.7940  175.2550  138.0790 N   0  0  0  0  0  0  0  0  0  0  0  0
  184.1050  176.3400  137.4900 N   0  0  0  0  0  0  0  0  0  0  0  0
  184.8520  170.2240  135.8070 O   0  0  0  0  0  1  0  0  0  0  0  0
  184.5970  171.4680  136.3680 C   0  0  0  0  0  0  0  0  0  0  0  0
  183.2790  171.8880  136.5670 C   0  0  0  0  0  3  0  0  0  0  0  0
  183.0230  173.1440  137.1270 C   0  0  0  0  0  3  0  0  0  0  0  0
  185.6580  172.3020  136.7270 C   0  0  0  0  0  3  0  0  0  0  0  0
  185.4010  173.5560  137.2890 C   0  0  0  0  0  3  0  0  0  0  0  0
  184.0800  173.9840  137.4930 C   0  0  0  0  0  0  0  0  0  0  0  0
  1 30  1  1  0  0  0
  1  8  1  0  0  0  0
  2  4  1  0  0  0  0
  2  7  1  0  0  0  0
  3  9  1  0  0  0  0
  3 10  2  0  0  0  0
  5  9  1  0  0  0  0
  6  4  1  0  0  0  0
  7 14  1  0  0  0  0
  8  5  1  0  0  0  0
  8  6  1  0  0  0  0
  9  2  2  0  0  0  0
 10 11  1  0  0  0  0
 11  7  2  0  0  0  0
 12 13  2  0  0  0  0
 13 15  1  0  0  0  0
 14 13  1  0  0  0  0
 15 16  1  0  0  0  0
 16 17  1  0  0  0  0
 17 18  1  0  0  0  0
 19 21  1  0  0  0  0
 19 20  1  0  0  0  0
 21 20  1  0  0  0  0
 21 18  1  0  0  0  0
 23  1  1  1  0  0  0
 24 23  1  0  0  0  0
 25 24  1  0  0  0  0
 26 25  1  0  0  0  0
 26 28  1  0  0  0  0
 27 22  1  0  0  0  0
 27 23  1  0  0  0  0
 28 22  1  0  0  0  0
 29 33  1  0  0  0  0
 30 29  2  0  0  0  0
 31 34  2  0  0  0  0
 31 30  1  0  0  0  0
 32 33  2  0  0  0  0
 34 32  1  0  0  0  0
 35 34  1  0  0  0  0
 37 31  1  0  0  0  0
 37 36  2  0  0  0  0
 38 39  1  0  0  0  0
 39 40  2  0  0  0  0
 39 42  1  0  0  0  0
 40 41  1  0  0  0  0
 41 44  2  0  0  0  0
 42 43  2  0  0  0  0
 43 44  1  0  0  0  0
 44 36  1  0  0  0  0
M  END
>  <MODEL>
3

>  <REMARK>
 VINA RESULT:      -7.5      1.466      2.583
  Name = 
  11 active torsions:
  status: ('A' for Active; 'I' for Inactive)
    1  A    between atoms: C_5  and  C_41
    2  A    between atoms: N_7  and  C_24
    3  A    between atoms: C_9  and  C_41
    4  A    between atoms: O_10  and  C_37
    5  A    between atoms: O_10  and  C_43
    6  A    between atoms: C_11  and  N_27
    7  A    between atoms: C_28  and  N_39
    8  A    between atoms: N_31  and  C_41
    9  A    between atoms: C_32  and  C_37
   10  A    between atoms: C_32  and  C_38
   11  A    between atoms: C_35  and  C_43
                            x       y       z     vdW  Elec       q    Type
                         _______ _______ _______ _____ _____    ______ ____

>  <TORSDO>
F 11

$$$$
=
 OpenBabel11042410403D

 44 49  0  0  1  0  0  0  0  0999 V2000
  181.9390  178.0230  138.9720 C   0  0  2  0  0  3  0  0  0  0  0  0
  184.3410  178.5150  142.3970 C   0  0  0  0  0  0  0  0  0  0  0  0
  182.2710  178.9090  143.6080 C   0  0  0  0  0  3  0  0  0  0  0  0
  185.0220  178.1660  141.1040 C   0  0  0  0  0  2  0  0  0  0  0  0
  182.2230  178.4000  141.2420 O   0  0  0  0  0  0  0  0  0  0  0  0
  184.1000  178.4300  139.9120 C   0  0  0  0  0  2  0  0  0  0  0  0
  185.0800  178.7380  143.5750 C   0  0  0  0  0  0  0  0  0  0  0  0
  182.8020  177.7860  140.1420 N   0  0  0  0  0  0  0  0  0  0  0  0
  182.9400  178.5970  142.4250 C   0  0  0  0  0  0  0  0  0  0  0  0
  182.9990  179.1300  144.7770 C   0  0  0  0  0  3  0  0  0  0  0  0
  184.3940  179.0470  144.7590 C   0  0  0  0  0  3  0  0  0  0  0  0
  186.8340  176.4310  144.1320 O   0  0  0  0  0  0  0  0  0  0  0  0
  187.3380  177.5530  143.8620 C   0  0  0  0  0  0  0  0  0  0  0  0
  186.5140  178.6800  143.5360 N   0  0  0  0  0  2  0  0  0  0  0  0
  188.8170  177.7090  143.8630 C   0  0  0  0  0  2  0  0  0  0  0  0
  189.2940  178.1960  142.5110 C   0  0  0  0  0  2  0  0  0  0  0  0
  188.7660  177.3770  141.5150 O   0  0  0  0  0  0  0  0  0  0  0  0
  189.6420  177.5190  140.4400 C   0  0  0  0  0  2  0  0  0  0  0  0
  187.8520  178.6050  139.3470 O   0  0  0  0  0  0  0  0  0  0  0  0
  188.9690  178.9670  138.6970 O   0  0  0  0  0  0  0  0  0  0  0  0
  188.8490  177.6750  139.1600 C   0  0  0  0  0  3  0  0  0  0  0  0
  181.8750  181.3060  138.4770 C   0  0  0  0  0  2  0  0  0  0  0  0
  180.8510  179.0950  139.1850 C   0  0  2  0  0  3  0  0  0  0  0  0
  179.6930  178.9860  138.2940 N   0  0  0  0  0  2  0  0  0  0  0  0
  179.8670  179.7450  137.0580 C   0  0  0  0  0  2  0  0  0  0  0  0
  179.5720  181.2160  137.3070 C   0  0  0  0  0  2  0  0  0  0  0  0
  181.2540  180.5130  139.6160 C   0  0  0  0  0  2  0  0  0  0  0  0
  180.8350  182.0250  137.6170 C   0  0  0  0  0  2  0  0  0  0  0  0
  180.0950  176.4000  138.9690 N   0  0  0  0  0  0  0  0  0  0  0  0
  181.2980  176.7580  138.4490 C   0  0  0  0  0  0  0  0  0  0  0  0
  181.9380  175.9040  137.5230 C   0  0  0  0  0  0  0  0  0  0  0  0
  180.0600  174.4260  137.6990 N   0  0  0  0  0  0  0  0  0  0  0  0
  179.4760  175.2510  138.6020 C   0  0  0  0  0  3  0  0  0  0  0  0
  181.2680  174.7170  137.1520 C   0  0  0  0  0  0  0  0  0  0  0  0
  181.8290  173.8070  136.2090 N   0  0  0  0  0  1  0  0  0  0  0  0
  184.3230  175.8350  137.4360 N   0  0  0  0  0  0  0  0  0  0  0  0
  183.2170  176.2750  136.9850 N   0  0  0  0  0  0  0  0  0  0  0  0
  189.1890  177.4620  135.1410 O   0  0  0  0  0  1  0  0  0  0  0  0
  187.9890  177.0550  135.7090 C   0  0  0  0  0  0  0  0  0  0  0  0
  186.9570  177.9770  135.9000 C   0  0  0  0  0  3  0  0  0  0  0  0
  185.7500  177.5670  136.4780 C   0  0  0  0  0  3  0  0  0  0  0  0
  187.8170  175.7240  136.0960 C   0  0  0  0  0  3  0  0  0  0  0  0
  186.6110  175.3140  136.6710 C   0  0  0  0  0  3  0  0  0  0  0  0
  185.5690  176.2340  136.8650 C   0  0  0  0  0  0  0  0  0  0  0  0
  1 30  1  1  0  0  0
  1  8  1  0  0  0  0
  2  9  2  0  0  0  0
  2  7  1  0  0  0  0
  3 10  2  0  0  0  0
  4  2  1  0  0  0  0
  5  9  1  0  0  0  0
  6  8  1  0  0  0  0
  6  4  1  0  0  0  0
  7 11  2  0  0  0  0
  8  5  1  0  0  0  0
  9  3  1  0  0  0  0
 11 10  1  0  0  0  0
 13 15  1  0  0  0  0
 13 12  2  0  0  0  0
 14  7  1  0  0  0  0
 14 13  1  0  0  0  0
 16 15  1  0  0  0  0
 17 16  1  0  0  0  0
 18 17  1  0  0  0  0
 20 21  1  0  0  0  0
 20 19  1  0  0  0  0
 21 19  1  0  0  0  0
 21 18  1  0  0  0  0
 22 27  1  0  0  0  0
 23  1  1  6  0  0  0
 23 27  1  0  0  0  0
 24 23  1  0  0  0  0
 25 26  1  0  0  0  0
 25 24  1  0  0  0  0
 26 28  1  0  0  0  0
 28 22  1  0  0  0  0
 30 29  2  0  0  0  0
 31 30  1  0  0  0  0
 32 33  2  0  0  0  0
 33 29  1  0  0  0  0
 34 31  2  0  0  0  0
 34 32  1  0  0  0  0
 35 34  1  0  0  0  0
 37 36  2  0  0  0  0
 37 31  1  0  0  0  0
 38 39  1  0  0  0  0
 39 40  2  0  0  0  0
 39 42  1  0  0  0  0
 40 41  1  0  0  0  0
 41 44  2  0  0  0  0
 42 43  2  0  0  0  0
 43 44  1  0  0  0  0
 44 36  1  0  0  0  0
M  END
>  <MODEL>
4

>  <REMARK>
 VINA RESULT:      -7.5      2.597      5.893
  Name = 
  11 active torsions:
  status: ('A' for Active; 'I' for Inactive)
    1  A    between atoms: C_5  and  C_41
    2  A    between atoms: N_7  and  C_24
    3  A    between atoms: C_9  and  C_41
    4  A    between atoms: O_10  and  C_37
    5  A    between atoms: O_10  and  C_43
    6  A    between atoms: C_11  and  N_27
    7  A    between atoms: C_28  and  N_39
    8  A    between atoms: N_31  and  C_41
    9  A    between atoms: C_32  and  C_37
   10  A    between atoms: C_32  and  C_38
   11  A    between atoms: C_35  and  C_43
                            x       y       z     vdW  Elec       q    Type
                         _______ _______ _______ _____ _____    ______ ____

>  <TORSDO>
F 11

$$$$
=
 OpenBabel11042410403D

 44 49  0  0  1  0  0  0  0  0999 V2000
  181.9570  178.1490  138.6180 C   0  0  2  0  0  3  0  0  0  0  0  0
  184.1430  178.5280  142.1980 C   0  0  0  0  0  0  0  0  0  0  0  0
  181.9960  178.7790  143.3080 C   0  0  0  0  0  3  0  0  0  0  0  0
  184.9090  178.2780  140.9290 C   0  0  0  0  0  2  0  0  0  0  0  0
  182.0990  178.4050  140.9180 O   0  0  0  0  0  0  0  0  0  0  0  0
  184.0450  178.5770  139.7020 C   0  0  0  0  0  2  0  0  0  0  0  0
  184.8070  178.7090  143.4270 C   0  0  0  0  0  0  0  0  0  0  0  0
  182.7610  177.8760  139.8210 N   0  0  0  0  0  0  0  0  0  0  0  0
  182.7410  178.5590  142.1500 C   0  0  0  0  0  0  0  0  0  0  0  0
  182.6490  178.9580  144.5270 C   0  0  0  0  0  3  0  0  0  0  0  0
  184.0450  178.9250  144.5850 C   0  0  0  0  0  3  0  0  0  0  0  0
  186.5930  176.7910  144.7850 O   0  0  0  0  0  0  0  0  0  0  0  0
  187.0790  177.7840  144.1800 C   0  0  0  0  0  0  0  0  0  0  0  0
  186.2420  178.7040  143.4680 N   0  0  0  0  0  2  0  0  0  0  0  0
  188.5510  177.9950  144.1900 C   0  0  0  0  0  2  0  0  0  0  0  0
  189.2100  177.0470  145.1690 C   0  0  0  0  0  2  0  0  0  0  0  0
  189.4200  177.7080  146.3780 O   0  0  0  0  0  0  0  0  0  0  0  0
  189.9480  176.7350  147.2250 C   0  0  0  0  0  2  0  0  0  0  0  0
  192.2170  176.8790  147.8700 O   0  0  0  0  0  0  0  0  0  0  0  0
  191.9410  175.5730  147.7400 O   0  0  0  0  0  0  0  0  0  0  0  0
  191.3900  176.4670  146.8490 C   0  0  0  0  0  3  0  0  0  0  0  0
  181.9720  181.4670  138.4900 C   0  0  0  0  0  2  0  0  0  0  0  0
  180.8560  179.2120  138.8120 C   0  0  2  0  0  3  0  0  0  0  0  0
  179.8190  179.2240  137.7760 N   0  0  0  0  0  2  0  0  0  0  0  0
  180.1520  180.1110  136.6650 C   0  0  0  0  0  2  0  0  0  0  0  0
  179.8360  181.5510  137.0370 C   0  0  0  0  0  2  0  0  0  0  0  0
  181.2080  180.5650  139.4460 C   0  0  0  0  0  2  0  0  0  0  0  0
  181.0540  182.2970  137.5910 C   0  0  0  0  0  2  0  0  0  0  0  0
  180.1320  176.5090  138.4910 N   0  0  0  0  0  0  0  0  0  0  0  0
  181.3460  176.9000  138.0240 C   0  0  0  0  0  0  0  0  0  0  0  0
  182.0240  176.0920  137.0840 C   0  0  0  0  0  0  0  0  0  0  0  0
  180.1580  174.5890  137.1400 N   0  0  0  0  0  0  0  0  0  0  0  0
  179.5380  175.3700  138.0570 C   0  0  0  0  0  3  0  0  0  0  0  0
  181.3790  174.9150  136.6440 C   0  0  0  0  0  0  0  0  0  0  0  0
  181.9790  174.0500  135.6830 N   0  0  0  0  0  1  0  0  0  0  0  0
  184.4120  176.0820  137.0970 N   0  0  0  0  0  0  0  0  0  0  0  0
  183.3150  176.4970  136.6020 N   0  0  0  0  0  0  0  0  0  0  0  0
  189.3900  177.7090  135.0600 O   0  0  0  0  0  1  0  0  0  0  0  0
  188.1600  177.3130  135.5660 C   0  0  0  0  0  0  0  0  0  0  0  0
  187.6170  176.0800  135.1970 C   0  0  0  0  0  3  0  0  0  0  0  0
  186.3740  175.6830  135.7020 C   0  0  0  0  0  3  0  0  0  0  0  0
  187.4620  178.1500  136.4390 C   0  0  0  0  0  3  0  0  0  0  0  0
  186.2220  177.7520  136.9460 C   0  0  0  0  0  3  0  0  0  0  0  0
  185.6700  176.5150  136.5800 C   0  0  0  0  0  0  0  0  0  0  0  0
  1 30  1  1  0  0  0
  1  8  1  0  0  0  0
  2  7  1  0  0  0  0
  3 10  2  0  0  0  0
  4  2  1  0  0  0  0
  5  9  1  0  0  0  0
  6  8  1  0  0  0  0
  6  4  1  0  0  0  0
  7 14  1  0  0  0  0
  7 11  2  0  0  0  0
  8  5  1  0  0  0  0
  9  2  2  0  0  0  0
  9  3  1  0  0  0  0
 10 11  1  0  0  0  0
 13 15  1  0  0  0  0
 13 12  2  0  0  0  0
 14 13  1  0  0  0  0
 15 16  1  0  0  0  0
 16 17  1  0  0  0  0
 17 18  1  0  0  0  0
 20 19  1  0  0  0  0
 21 18  1  0  0  0  0
 21 20  1  0  0  0  0
 21 19  1  0  0  0  0
 22 27  1  0  0  0  0
 23  1  1  6  0  0  0
 23 27  1  0  0  0  0
 24 23  1  0  0  0  0
 25 26  1  0  0  0  0
 25 24  1  0  0  0  0
 26 28  1  0  0  0  0
 28 22  1  0  0  0  0
 30 29  2  0  0  0  0
 31 30  1  0  0  0  0
 32 33  2  0  0  0  0
 33 29  1  0  0  0  0
 34 31  2  0  0  0  0
 34 32  1  0  0  0  0
 35 34  1  0  0  0  0
 37 31  1  0  0  0  0
 37 36  2  0  0  0  0
 38 39  1  0  0  0  0
 39 42  1  0  0  0  0
 40 39  2  0  0  0  0
 40 41  1  0  0  0  0
 41 44  2  0  0  0  0
 42 43  2  0  0  0  0
 44 43  1  0  0  0  0
 44 36  1  0  0  0  0
M  END
>  <MODEL>
5

>  <REMARK>
 VINA RESULT:      -7.4      2.779      6.023
  Name = 
  11 active torsions:
  status: ('A' for Active; 'I' for Inactive)
    1  A    between atoms: C_5  and  C_41
    2  A    between atoms: N_7  and  C_24
    3  A    between atoms: C_9  and  C_41
    4  A    between atoms: O_10  and  C_37
    5  A    between atoms: O_10  and  C_43
    6  A    between atoms: C_11  and  N_27
    7  A    between atoms: C_28  and  N_39
    8  A    between atoms: N_31  and  C_41
    9  A    between atoms: C_32  and  C_37
   10  A    between atoms: C_32  and  C_38
   11  A    between atoms: C_35  and  C_43
                            x       y       z     vdW  Elec       q    Type
                         _______ _______ _______ _____ _____    ______ ____

>  <TORSDO>
F 11

$$$$
=
 OpenBabel11042410403D

 44 49  0  0  1  0  0  0  0  0999 V2000
  183.0830  178.8220  139.9470 C   0  0  2  0  0  3  0  0  0  0  0  0
  187.1610  178.5360  140.9590 C   0  0  0  0  0  0  0  0  0  0  0  0
  187.5630  178.1090  138.6010 C   0  0  0  0  0  3  0  0  0  0  0  0
  186.1860  178.8660  142.0540 C   0  0  0  0  0  2  0  0  0  0  0  0
  185.3170  178.5340  139.3990 O   0  0  0  0  0  0  0  0  0  0  0  0
  184.7550  178.5270  141.6310 C   0  0  0  0  0  2  0  0  0  0  0  0
  188.5350  178.3810  141.2280 C   0  0  0  0  0  0  0  0  0  0  0  0
  184.4730  179.1300  140.3230 N   0  0  0  0  0  0  0  0  0  0  0  0
  186.6870  178.4050  139.6450 C   0  0  0  0  0  0  0  0  0  0  0  0
  188.9240  177.9550  138.8620 C   0  0  0  0  0  3  0  0  0  0  0  0
  189.4050  178.0880  140.1670 C   0  0  0  0  0  3  0  0  0  0  0  0
  189.9590  176.3570  142.8350 O   0  0  0  0  0  0  0  0  0  0  0  0
  189.6570  177.4680  143.3470 C   0  0  0  0  0  0  0  0  0  0  0  0
  189.0120  178.4910  142.5780 N   0  0  0  0  0  2  0  0  0  0  0  0
  189.9930  177.7310  144.7720 C   0  0  0  0  0  2  0  0  0  0  0  0
  189.0000  177.0370  145.6810 C   0  0  0  0  0  2  0  0  0  0  0  0
  187.7060  177.3190  145.2480 O   0  0  0  0  0  0  0  0  0  0  0  0
  187.0710  177.8640  146.3620 C   0  0  0  0  0  2  0  0  0  0  0  0
  184.8210  178.5040  146.6960 O   0  0  0  0  0  0  0  0  0  0  0  0
  185.5650  179.5950  146.9330 O   0  0  0  0  0  0  0  0  0  0  0  0
  185.9250  178.7440  145.9100 C   0  0  0  0  0  3  0  0  0  0  0  0
  180.5590  179.8750  141.8320 C   0  0  0  0  0  2  0  0  0  0  0  0
  182.2520  178.1500  141.0600 C   0  0  2  0  0  3  0  0  0  0  0  0
  181.3960  177.0480  140.6120 N   0  0  0  0  0  2  0  0  0  0  0  0
  180.0650  177.5010  140.2180 C   0  0  0  0  0  2  0  0  0  0  0  0
  179.2010  177.7090  141.4510 C   0  0  0  0  0  2  0  0  0  0  0  0
  181.7300  178.9920  142.2330 C   0  0  0  0  0  2  0  0  0  0  0  0
  179.2110  179.1610  141.9390 C   0  0  0  0  0  2  0  0  0  0  0  0
  183.5390  176.7580  138.6960 N   0  0  0  0  0  0  0  0  0  0  0  0
  182.9840  177.9980  138.6830 C   0  0  0  0  0  0  0  0  0  0  0  0
  182.4270  178.5000  137.4860 C   0  0  0  0  0  0  0  0  0  0  0  0
  183.0020  176.4240  136.4350 N   0  0  0  0  0  0  0  0  0  0  0  0
  183.5490  175.9740  137.5900 C   0  0  0  0  0  3  0  0  0  0  0  0
  182.4450  177.6590  136.3510 C   0  0  0  0  0  0  0  0  0  0  0  0
  181.8870  178.0750  135.1060 N   0  0  0  0  0  1  0  0  0  0  0  0
  181.0050  180.2250  138.3250 N   0  0  0  0  0  0  0  0  0  0  0  0
  181.8550  179.8170  137.4690 N   0  0  0  0  0  0  0  0  0  0  0  0
  178.9550  185.4510  138.0630 O   0  0  0  0  0  1  0  0  0  0  0  0
  179.4570  184.1590  138.1320 C   0  0  0  0  0  0  0  0  0  0  0  0
  180.4830  183.7600  137.2710 C   0  0  0  0  0  3  0  0  0  0  0  0
  180.9840  182.4560  137.3370 C   0  0  0  0  0  3  0  0  0  0  0  0
  178.9310  183.2550  139.0570 C   0  0  0  0  0  3  0  0  0  0  0  0
  179.4350  181.9530  139.1250 C   0  0  0  0  0  3  0  0  0  0  0  0
  180.4650  181.5460  138.2640 C   0  0  0  0  0  0  0  0  0  0  0  0
  1 30  1  6  0  0  0
  1  8  1  0  0  0  0
  2  7  1  0  0  0  0
  2  4  1  0  0  0  0
  3 10  2  0  0  0  0
  3  9  1  0  0  0  0
  5  9  1  0  0  0  0
  5  8  1  0  0  0  0
  6  4  1  0  0  0  0
  7 14  1  0  0  0  0
  8  6  1  0  0  0  0
  9  2  2  0  0  0  0
 10 11  1  0  0  0  0
 11  7  2  0  0  0  0
 12 13  2  0  0  0  0
 13 15  1  0  0  0  0
 14 13  1  0  0  0  0
 15 16  1  0  0  0  0
 17 16  1  0  0  0  0
 17 18  1  0  0  0  0
 19 20  1  0  0  0  0
 21 18  1  0  0  0  0
 21 19  1  0  0  0  0
 21 20  1  0  0  0  0
 22 28  1  0  0  0  0
 22 27  1  0  0  0  0
 23  1  1  6  0  0  0
 23 27  1  0  0  0  0
 24 23  1  0  0  0  0
 25 24  1  0  0  0  0
 25 26  1  0  0  0  0
 26 28  1  0  0  0  0
 30 29  1  0  0  0  0
 31 30  2  0  0  0  0
 32 33  1  0  0  0  0
 33 29  2  0  0  0  0
 34 32  2  0  0  0  0
 34 31  1  0  0  0  0
 35 34  1  0  0  0  0
 37 31  1  0  0  0  0
 37 36  2  0  0  0  0
 38 39  1  0  0  0  0
 39 42  1  0  0  0  0
 40 41  1  0  0  0  0
 40 39  2  0  0  0  0
 41 44  2  0  0  0  0
 42 43  2  0  0  0  0
 44 36  1  0  0  0  0
 44 43  1  0  0  0  0
M  END
>  <MODEL>
6

>  <REMARK>
 VINA RESULT:      -7.3      3.074      6.808
  Name = 
  11 active torsions:
  status: ('A' for Active; 'I' for Inactive)
    1  A    between atoms: C_5  and  C_41
    2  A    between atoms: N_7  and  C_24
    3  A    between atoms: C_9  and  C_41
    4  A    between atoms: O_10  and  C_37
    5  A    between atoms: O_10  and  C_43
    6  A    between atoms: C_11  and  N_27
    7  A    between atoms: C_28  and  N_39
    8  A    between atoms: N_31  and  C_41
    9  A    between atoms: C_32  and  C_37
   10  A    between atoms: C_32  and  C_38
   11  A    between atoms: C_35  and  C_43
                            x       y       z     vdW  Elec       q    Type
                         _______ _______ _______ _____ _____    ______ ____

>  <TORSDO>
F 11

$$$$
=
 OpenBabel11042410403D

 44 49  0  0  1  0  0  0  0  0999 V2000
  181.7450  178.5200  138.1200 C   0  0  2  0  0  3  0  0  0  0  0  0
  184.5090  178.3690  141.2950 C   0  0  0  0  0  0  0  0  0  0  0  0
  186.2350  178.6500  139.6070 C   0  0  0  0  0  3  0  0  0  0  0  0
  183.0460  178.2870  141.6300 C   0  0  0  0  0  2  0  0  0  0  0  0
  183.9000  178.6150  138.9700 O   0  0  0  0  0  0  0  0  0  0  0  0
  182.2200  177.9390  140.3900 C   0  0  0  0  0  2  0  0  0  0  0  0
  185.4940  178.2830  142.2970 C   0  0  0  0  0  0  0  0  0  0  0  0
  182.5720  178.8480  139.2930 N   0  0  0  0  0  0  0  0  0  0  0  0
  184.8880  178.5590  139.9570 C   0  0  0  0  0  0  0  0  0  0  0  0
  187.2140  178.5650  140.5970 C   0  0  0  0  0  3  0  0  0  0  0  0
  186.8450  178.3800  141.9320 C   0  0  0  0  0  3  0  0  0  0  0  0
  184.9030  180.2890  144.3790 O   0  0  0  0  0  0  0  0  0  0  0  0
  184.8720  179.0620  144.6620 C   0  0  0  0  0  0  0  0  0  0  0  0
  185.1030  178.0620  143.6610 N   0  0  0  0  0  2  0  0  0  0  0  0
  184.5710  178.6410  146.0560 C   0  0  0  0  0  2  0  0  0  0  0  0
  185.7530  177.9000  146.6460 C   0  0  0  0  0  2  0  0  0  0  0  0
  186.9340  178.4960  146.2080 O   0  0  0  0  0  0  0  0  0  0  0  0
  187.9440  177.6400  146.6430 C   0  0  0  0  0  2  0  0  0  0  0  0
  189.6120  178.2530  145.0870 O   0  0  0  0  0  0  0  0  0  0  0  0
  190.1210  177.2460  145.8110 O   0  0  0  0  0  0  0  0  0  0  0  0
  188.7890  177.2150  145.4610 C   0  0  0  0  0  3  0  0  0  0  0  0
  181.3560  181.8010  138.4610 C   0  0  0  0  0  2  0  0  0  0  0  0
  180.5450  179.4640  137.8990 C   0  0  2  0  0  3  0  0  0  0  0  0
  180.1190  179.6060  136.5030 N   0  0  0  0  0  2  0  0  0  0  0  0
  180.8030  180.7010  135.8210 C   0  0  0  0  0  2  0  0  0  0  0  0
  180.1530  182.0260  136.1850 C   0  0  0  0  0  2  0  0  0  0  0  0
  180.3680  180.6950  138.7990 C   0  0  0  0  0  2  0  0  0  0  0  0
  180.8550  182.7270  137.3510 C   0  0  0  0  0  2  0  0  0  0  0  0
  180.0750  176.8260  138.7320 N   0  0  0  0  0  0  0  0  0  0  0  0
  181.2610  177.0880  138.1240 C   0  0  0  0  0  0  0  0  0  0  0  0
  182.0280  176.0210  137.6060 C   0  0  0  0  0  0  0  0  0  0  0  0
  180.3010  174.5240  138.3270 N   0  0  0  0  0  0  0  0  0  0  0  0
  179.5940  175.5630  138.8350 C   0  0  0  0  0  3  0  0  0  0  0  0
  181.5000  174.7160  137.7190 C   0  0  0  0  0  0  0  0  0  0  0  0
  182.1960  173.5830  137.2070 N   0  0  0  0  0  1  0  0  0  0  0  0
  184.4130  175.9920  137.4890 N   0  0  0  0  0  0  0  0  0  0  0  0
  183.2890  176.2970  136.9750 N   0  0  0  0  0  0  0  0  0  0  0  0
  189.2820  177.1150  134.9160 O   0  0  0  0  0  1  0  0  0  0  0  0
  188.0770  176.8420  135.5490 C   0  0  0  0  0  0  0  0  0  0  0  0
  187.9180  175.6570  136.2710 C   0  0  0  0  0  3  0  0  0  0  0  0
  186.7020  175.3800  136.9040 C   0  0  0  0  0  3  0  0  0  0  0  0
  187.0200  177.7510  135.4580 C   0  0  0  0  0  3  0  0  0  0  0  0
  185.8060  177.4760  136.0930 C   0  0  0  0  0  3  0  0  0  0  0  0
  185.6400  176.2880  136.8210 C   0  0  0  0  0  0  0  0  0  0  0  0
  1 30  1  1  0  0  0
  1  8  1  0  0  0  0
  2  4  1  0  0  0  0
  2  7  1  0  0  0  0
  3  9  1  0  0  0  0
  3 10  2  0  0  0  0
  5  8  1  0  0  0  0
  5  9  1  0  0  0  0
  6  4  1  0  0  0  0
  7 14  1  0  0  0  0
  8  6  1  0  0  0  0
  9  2  2  0  0  0  0
 10 11  1  0  0  0  0
 11  7  2  0  0  0  0
 12 13  2  0  0  0  0
 13 15  1  0  0  0  0
 14 13  1  0  0  0  0
 15 16  1  0  0  0  0
 17 18  1  0  0  0  0
 17 16  1  0  0  0  0
 19 21  1  0  0  0  0
 19 20  1  0  0  0  0
 21 20  1  0  0  0  0
 21 18  1  0  0  0  0
 22 27  1  0  0  0  0
 23  1  1  6  0  0  0
 23 27  1  0  0  0  0
 24 23  1  0  0  0  0
 25 26  1  0  0  0  0
 25 24  1  0  0  0  0
 26 28  1  0  0  0  0
 28 22  1  0  0  0  0
 29 33  1  0  0  0  0
 30 29  2  0  0  0  0
 31 34  2  0  0  0  0
 31 30  1  0  0  0  0
 32 33  2  0  0  0  0
 34 32  1  0  0  0  0
 35 34  1  0  0  0  0
 37 36  2  0  0  0  0
 37 31  1  0  0  0  0
 38 39  1  0  0  0  0
 39 40  1  0  0  0  0
 40 41  2  0  0  0  0
 42 39  2  0  0  0  0
 42 43  1  0  0  0  0
 43 44  2  0  0  0  0
 44 41  1  0  0  0  0
 44 36  1  0  0  0  0
M  END
>  <MODEL>
7

>  <REMARK>
 VINA RESULT:      -7.2      2.577      5.367
  Name = 
  11 active torsions:
  status: ('A' for Active; 'I' for Inactive)
    1  A    between atoms: C_5  and  C_41
    2  A    between atoms: N_7  and  C_24
    3  A    between atoms: C_9  and  C_41
    4  A    between atoms: O_10  and  C_37
    5  A    between atoms: O_10  and  C_43
    6  A    between atoms: C_11  and  N_27
    7  A    between atoms: C_28  and  N_39
    8  A    between atoms: N_31  and  C_41
    9  A    between atoms: C_32  and  C_37
   10  A    between atoms: C_32  and  C_38
   11  A    between atoms: C_35  and  C_43
                            x       y       z     vdW  Elec       q    Type
                         _______ _______ _______ _____ _____    ______ ____

>  <TORSDO>
F 11

$$$$
=
 OpenBabel11042410403D

 44 49  0  0  1  0  0  0  0  0999 V2000
  185.3880  177.9870  139.1490 C   0  0  2  0  0  3  0  0  0  0  0  0
  185.1600  178.5560  143.3160 C   0  0  0  0  0  0  0  0  0  0  0  0
  182.7560  178.7270  143.0100 C   0  0  0  0  0  3  0  0  0  0  0  0
  186.5150  178.3140  142.7120 C   0  0  0  0  0  2  0  0  0  0  0  0
  184.2000  178.3030  141.1140 O   0  0  0  0  0  0  0  0  0  0  0  0
  186.4870  178.5420  141.1990 C   0  0  0  0  0  2  0  0  0  0  0  0
  185.0090  178.7980  144.6950 C   0  0  0  0  0  0  0  0  0  0  0  0
  185.3800  177.7820  140.6070 N   0  0  0  0  0  0  0  0  0  0  0  0
  184.0300  178.5170  142.4850 C   0  0  0  0  0  0  0  0  0  0  0  0
  182.6000  178.9660  144.3750 C   0  0  0  0  0  3  0  0  0  0  0  0
  183.7210  179.0030  145.2100 C   0  0  0  0  0  3  0  0  0  0  0  0
  186.4340  176.5820  146.0250 O   0  0  0  0  0  0  0  0  0  0  0  0
  186.8080  177.7710  146.2090 C   0  0  0  0  0  0  0  0  0  0  0  0
  186.1700  178.8640  145.5370 N   0  0  0  0  0  2  0  0  0  0  0  0
  187.9460  178.0440  147.1270 C   0  0  0  0  0  2  0  0  0  0  0  0
  189.2410  178.1280  146.3460 C   0  0  0  0  0  2  0  0  0  0  0  0
  189.2750  177.1030  145.4030 O   0  0  0  0  0  0  0  0  0  0  0  0
  190.0910  177.5890  144.3820 C   0  0  0  0  0  2  0  0  0  0  0  0
  189.0830  175.9970  142.9570 O   0  0  0  0  0  0  0  0  0  0  0  0
  189.7050  176.8800  142.1600 O   0  0  0  0  0  0  0  0  0  0  0  0
  190.3010  176.5070  143.3450 C   0  0  0  0  0  3  0  0  0  0  0  0
  188.3900  176.7590  138.4330 C   0  0  0  0  0  2  0  0  0  0  0  0
  186.6800  178.6260  138.5990 C   0  0  2  0  0  3  0  0  0  0  0  0
  186.5960  179.0990  137.2140 N   0  0  0  0  0  2  0  0  0  0  0  0
  186.9750  178.0700  136.2500 C   0  0  0  0  0  2  0  0  0  0  0  0
  188.4900  177.9790  136.1570 C   0  0  0  0  0  2  0  0  0  0  0  0
  188.0460  178.1000  139.0620 C   0  0  0  0  0  2  0  0  0  0  0  0
  189.0730  176.8980  137.0720 C   0  0  0  0  0  2  0  0  0  0  0  0
  184.0740  180.0610  139.0770 N   0  0  0  0  0  0  0  0  0  0  0  0
  184.1940  178.7740  138.6590 C   0  0  0  0  0  0  0  0  0  0  0  0
  183.1720  178.2000  137.8710 C   0  0  0  0  0  0  0  0  0  0  0  0
  182.0210  180.3000  137.9630 N   0  0  0  0  0  0  0  0  0  0  0  0
  183.0050  180.8220  138.7350 C   0  0  0  0  0  3  0  0  0  0  0  0
  182.0730  179.0170  137.5230 C   0  0  0  0  0  0  0  0  0  0  0  0
  181.0060  178.5270  136.7140 N   0  0  0  0  0  1  0  0  0  0  0  0
  182.9650  175.8390  138.1640 N   0  0  0  0  0  0  0  0  0  0  0  0
  183.2920  176.8350  137.4410 N   0  0  0  0  0  0  0  0  0  0  0  0
  183.5830  170.5850  136.2690 O   0  0  0  0  0  1  0  0  0  0  0  0
  183.4240  171.8820  136.7360 C   0  0  0  0  0  0  0  0  0  0  0  0
  184.5310  172.5990  137.1970 C   0  0  0  0  0  3  0  0  0  0  0  0
  184.3690  173.9050  137.6740 C   0  0  0  0  0  3  0  0  0  0  0  0
  182.1560  172.4670  136.7520 C   0  0  0  0  0  3  0  0  0  0  0  0
  181.9960  173.7720  137.2260 C   0  0  0  0  0  3  0  0  0  0  0  0
  183.1030  174.5000  137.6900 C   0  0  0  0  0  0  0  0  0  0  0  0
  1 30  1  1  0  0  0
  1  8  1  0  0  0  0
  2  7  1  0  0  0  0
  3 10  2  0  0  0  0
  4  2  1  0  0  0  0
  5  9  1  0  0  0  0
  6  4  1  0  0  0  0
  7 11  2  0  0  0  0
  7 14  1  0  0  0  0
  8  5  1  0  0  0  0
  8  6  1  0  0  0  0
  9  3  1  0  0  0  0
  9  2  2  0  0  0  0
 10 11  1  0  0  0  0
 12 13  2  0  0  0  0
 13 15  1  0  0  0  0
 14 13  1  0  0  0  0
 16 15  1  0  0  0  0
 17 16  1  0  0  0  0
 18 17  1  0  0  0  0
 19 21  1  0  0  0  0
 20 19  1  0  0  0  0
 20 21  1  0  0  0  0
 21 18  1  0  0  0  0
 22 27  1  0  0  0  0
 23 27  1  0  0  0  0
 23  1  1  6  0  0  0
 24 23  1  0  0  0  0
 25 24  1  0  0  0  0
 26 25  1  0  0  0  0
 26 28  1  0  0  0  0
 28 22  1  0  0  0  0
 30 29  2  0  0  0  0
 31 30  1  0  0  0  0
 32 33  2  0  0  0  0
 33 29  1  0  0  0  0
 34 31  2  0  0  0  0
 34 32  1  0  0  0  0
 35 34  1  0  0  0  0
 37 31  1  0  0  0  0
 37 36  2  0  0  0  0
 38 39  1  0  0  0  0
 39 42  2  0  0  0  0
 39 40  1  0  0  0  0
 40 41  2  0  0  0  0
 41 44  1  0  0  0  0
 42 43  1  0  0  0  0
 43 44  2  0  0  0  0
 44 36  1  0  0  0  0
M  END
>  <MODEL>
8

>  <REMARK>
 VINA RESULT:      -7.0      1.591      3.608
  Name = 
  11 active torsions:
  status: ('A' for Active; 'I' for Inactive)
    1  A    between atoms: C_5  and  C_41
    2  A    between atoms: N_7  and  C_24
    3  A    between atoms: C_9  and  C_41
    4  A    between atoms: O_10  and  C_37
    5  A    between atoms: O_10  and  C_43
    6  A    between atoms: C_11  and  N_27
    7  A    between atoms: C_28  and  N_39
    8  A    between atoms: N_31  and  C_41
    9  A    between atoms: C_32  and  C_37
   10  A    between atoms: C_32  and  C_38
   11  A    between atoms: C_35  and  C_43
                            x       y       z     vdW  Elec       q    Type
                         _______ _______ _______ _____ _____    ______ ____

>  <TORSDO>
F 11

$$$$
=
 OpenBabel11042410403D

 44 49  0  0  1  0  0  0  0  0999 V2000
  183.3330  177.4150  137.5040 C   0  0  2  0  0  3  0  0  0  0  0  0
  187.5230  177.6850  137.1680 C   0  0  0  0  0  0  0  0  0  0  0  0
  187.2040  177.3480  134.7830 C   0  0  0  0  0  3  0  0  0  0  0  0
  186.9130  177.8630  138.5310 C   0  0  0  0  0  2  0  0  0  0  0  0
  185.2940  177.4460  136.2680 O   0  0  0  0  0  0  0  0  0  0  0  0
  185.4770  177.3340  138.5590 C   0  0  0  0  0  2  0  0  0  0  0  0
  188.9180  177.7200  136.9830 C   0  0  0  0  0  0  0  0  0  0  0  0
  184.7190  177.9080  137.4420 N   0  0  0  0  0  0  0  0  0  0  0  0
  186.6750  177.5060  136.0640 C   0  0  0  0  0  0  0  0  0  0  0  0
  188.5850  177.3810  134.5950 C   0  0  0  0  0  3  0  0  0  0  0  0
  189.4350  177.5640  135.6890 C   0  0  0  0  0  3  0  0  0  0  0  0
  190.3820  175.6350  138.4740 O   0  0  0  0  0  0  0  0  0  0  0  0
  190.4390  176.8350  138.8520 C   0  0  0  0  0  0  0  0  0  0  0  0
  189.7820  177.8770  138.1200 N   0  0  0  0  0  2  0  0  0  0  0  0
  191.2180  177.1800  140.0710 C   0  0  0  0  0  2  0  0  0  0  0  0
  190.2830  177.4510  141.2310 C   0  0  0  0  0  2  0  0  0  0  0  0
  191.0300  177.8480  142.3390 O   0  0  0  0  0  0  0  0  0  0  0  0
  190.3580  177.3020  143.4310 C   0  0  0  0  0  2  0  0  0  0  0  0
  188.1890  176.5190  143.9470 O   0  0  0  0  0  0  0  0  0  0  0  0
  188.2870  177.7460  144.4820 O   0  0  0  0  0  0  0  0  0  0  0  0
  188.8670  177.4980  143.2570 C   0  0  0  0  0  3  0  0  0  0  0  0
  184.2300  174.2230  137.3140 C   0  0  0  0  0  2  0  0  0  0  0  0
  183.0070  176.2910  136.4980 C   0  0  2  0  0  3  0  0  0  0  0  0
  181.6100  175.8480  136.4960 N   0  0  0  0  0  2  0  0  0  0  0  0
  181.3700  174.7560  137.4340 C   0  0  0  0  0  2  0  0  0  0  0  0
  181.8180  173.4380  136.8230 C   0  0  0  0  0  2  0  0  0  0  0  0
  184.0650  175.2240  136.1810 C   0  0  0  0  0  2  0  0  0  0  0  0
  183.2450  173.0570  137.2260 C   0  0  0  0  0  2  0  0  0  0  0  0
  181.6590  178.6310  136.1790 N   0  0  0  0  0  0  0  0  0  0  0  0
  182.3090  178.5190  137.3670 C   0  0  0  0  0  0  0  0  0  0  0  0
  182.0760  179.4740  138.3810 C   0  0  0  0  0  0  0  0  0  0  0  0
  180.5130  180.5440  136.9130 N   0  0  0  0  0  0  0  0  0  0  0  0
  180.7690  179.6270  135.9490 C   0  0  0  0  0  3  0  0  0  0  0  0
  181.1390  180.4970  138.1170 C   0  0  0  0  0  0  0  0  0  0  0  0
  180.8270  181.4920  139.0890 N   0  0  0  0  0  1  0  0  0  0  0  0
  182.2750  178.8230  140.6700 N   0  0  0  0  0  0  0  0  0  0  0  0
  182.7750  179.3640  139.6310 N   0  0  0  0  0  0  0  0  0  0  0  0
  185.1280  178.5460  145.5040 O   0  0  0  0  0  1  0  0  0  0  0  0
  184.4280  178.6120  144.3070 C   0  0  0  0  0  0  0  0  0  0  0  0
  183.0700  178.9410  144.3080 C   0  0  0  0  0  3  0  0  0  0  0  0
  182.3640  179.0020  143.1010 C   0  0  0  0  0  3  0  0  0  0  0  0
  185.0810  178.3440  143.1020 C   0  0  0  0  0  3  0  0  0  0  0  0
  184.3760  178.4070  141.8970 C   0  0  0  0  0  3  0  0  0  0  0  0
  183.0120  178.7380  141.8900 C   0  0  0  0  0  0  0  0  0  0  0  0
  1 30  1  6  0  0  0
  2  4  1  0  0  0  0
  3  9  1  0  0  0  0
  4  6  1  0  0  0  0
  5  8  1  0  0  0  0
  7  2  1  0  0  0  0
  7 14  1  0  0  0  0
  8  1  1  0  0  0  0
  8  6  1  0  0  0  0
  9  5  1  0  0  0  0
  9  2  2  0  0  0  0
 10  3  2  0  0  0  0
 10 11  1  0  0  0  0
 11  7  2  0  0  0  0
 12 13  2  0  0  0  0
 13 15  1  0  0  0  0
 14 13  1  0  0  0  0
 15 16  1  0  0  0  0
 16 17  1  0  0  0  0
 17 18  1  0  0  0  0
 19 20  1  0  0  0  0
 21 18  1  0  0  0  0
 21 19  1  0  0  0  0
 21 20  1  0  0  0  0
 23  1  1  1  0  0  0
 24 23  1  0  0  0  0
 24 25  1  0  0  0  0
 26 28  1  0  0  0  0
 26 25  1  0  0  0  0
 27 23  1  0  0  0  0
 27 22  1  0  0  0  0
 28 22  1  0  0  0  0
 29 30  1  0  0  0  0
 30 31  2  0  0  0  0
 31 37  1  0  0  0  0
 32 34  2  0  0  0  0
 33 29  2  0  0  0  0
 33 32  1  0  0  0  0
 34 31  1  0  0  0  0
 34 35  1  0  0  0  0
 36 44  1  0  0  0  0
 37 36  2  0  0  0  0
 39 40  1  0  0  0  0
 39 38  1  0  0  0  0
 41 40  2  0  0  0  0
 42 39  2  0  0  0  0
 43 42  1  0  0  0  0
 44 43  2  0  0  0  0
 44 41  1  0  0  0  0
M  END
>  <MODEL>
9

>  <REMARK>
 VINA RESULT:      -7.0      2.340      6.507
  Name = 
  11 active torsions:
  status: ('A' for Active; 'I' for Inactive)
    1  A    between atoms: C_5  and  C_41
    2  A    between atoms: N_7  and  C_24
    3  A    between atoms: C_9  and  C_41
    4  A    between atoms: O_10  and  C_37
    5  A    between atoms: O_10  and  C_43
    6  A    between atoms: C_11  and  N_27
    7  A    between atoms: C_28  and  N_39
    8  A    between atoms: N_31  and  C_41
    9  A    between atoms: C_32  and  C_37
   10  A    between atoms: C_32  and  C_38
   11  A    between atoms: C_35  and  C_43
                            x       y       z     vdW  Elec       q    Type
                         _______ _______ _______ _____ _____    ______ ____

>  <TORSDO>
F 11

$$$$
