=
 OpenBabel11032420113D

 36 39  0  0  1  0  0  0  0  0999 V2000
  189.9440  177.1640  140.9570 C   0  0  1  0  0  3  0  0  0  0  0  0
  191.5860  176.7550  142.6460 O   0  0  0  0  0  0  0  0  0  0  0  0
  189.4420  176.0880  143.2090 N   0  0  0  0  0  2  0  0  0  0  0  0
  190.3770  176.6890  142.3150 C   0  0  0  0  0  0  0  0  0  0  0  0
  188.0730  176.4800  143.2590 C   0  0  0  0  0  3  0  0  0  0  0  0
  187.6600  177.4130  144.1090 C   0  0  0  0  0  3  0  0  0  0  0  0
  185.5600  178.0610  142.9180 C   0  0  0  0  0  3  0  0  0  0  0  0
  185.6720  178.2480  145.3280 C   0  0  0  0  0  3  0  0  0  0  0  0
  184.3940  178.8160  145.3390 C   0  0  0  0  0  3  0  0  0  0  0  0
  183.6960  178.9950  144.1480 C   0  0  0  0  0  3  0  0  0  0  0  0
  186.2690  177.8910  144.1140 C   0  0  0  0  0  0  0  0  0  0  0  0
  184.2730  178.5990  142.9350 C   0  0  0  0  0  3  0  0  0  0  0  0
  189.0050  178.3790  140.9640 C   0  0  0  0  0  2  0  0  0  0  0  0
  184.9000  178.9720  138.7800 C   0  0  0  0  0  1  0  0  0  0  0  0
  186.3510  177.4030  137.4270 C   0  0  0  0  0  0  0  0  0  0  0  0
  186.1170  175.9360  135.7690 C   0  0  0  0  0  0  0  0  0  0  0  0
  187.6930  176.9080  137.0280 C   0  0  1  0  0  3  0  0  0  0  0  0
  188.2830  178.4470  139.6580 C   0  0  0  0  0  0  0  0  0  0  0  0
  186.1500  178.2580  138.5660 N   0  0  0  0  0  0  0  0  0  0  0  0
  185.4760  175.0660  134.7460 C   0  0  0  0  0  1  0  0  0  0  0  0
  188.9560  179.0570  137.1700 C   0  0  0  0  0  3  0  0  0  0  0  0
  187.0160  178.1410  139.6600 N   0  0  0  0  0  0  0  0  0  0  0  0
  185.4230  176.8440  136.6580 C   0  0  0  0  0  0  0  0  0  0  0  0
  187.3880  175.9490  135.9750 N   0  0  0  0  0  0  0  0  0  0  0  0
  188.9210  179.1920  138.6020 N   0  0  0  0  0  2  0  0  0  0  0  0
  188.4450  178.0550  136.4530 C   0  0  0  0  0  3  0  0  0  0  0  0
  182.7960  177.1100  136.8430 C   0  0  0  0  0  3  0  0  0  0  0  0
  183.9930  176.9930  136.7550 C   0  0  0  0  0  0  0  0  0  0  0  0
  190.9910  177.1500  140.0000 O   0  0  0  0  0  0  0  0  0  0  0  0
  190.7580  176.1760  139.0050 C   0  0  0  0  0  2  0  0  0  0  0  0
  191.3590  176.5340  137.7950 O   0  0  0  0  0  0  0  0  0  0  0  0
  191.4260  175.3510  137.0500 C   0  0  0  0  0  2  0  0  0  0  0  0
  192.5940  174.4850  137.5090 C   0  0  0  0  0  2  0  0  0  0  0  0
  194.4760  175.5480  138.4770 O   0  0  0  0  0  0  0  0  0  0  0  0
  193.9130  175.1870  137.2410 C   0  0  1  0  0  3  0  0  0  0  0  0
  195.0220  174.4230  137.8430 C   0  0  0  0  0  2  0  0  0  0  0  0
  1 13  1  1  0  0  0
  1  4  1  0  0  0  0
  3  5  1  0  0  0  0
  4  2  2  0  0  0  0
  4  3  1  0  0  0  0
  5  6  2  0  0  0  0
  6 11  1  0  0  0  0
  7 12  2  0  0  0  0
  7 11  1  0  0  0  0
  8  9  1  0  0  0  0
 10  9  2  0  0  0  0
 11  8  2  0  0  0  0
 12 10  1  0  0  0  0
 15 19  1  0  0  0  0
 16 24  2  0  0  0  0
 16 23  1  0  0  0  0
 17 26  1  6  0  0  0
 17 15  1  0  0  0  0
 18 22  2  0  0  0  0
 18 13  1  0  0  0  0
 19 14  1  0  0  0  0
 19 22  1  0  0  0  0
 20 16  1  0  0  0  0
 21 25  1  0  0  0  0
 23 28  1  0  0  0  0
 23 15  2  0  0  0  0
 24 17  1  0  0  0  0
 25 18  1  0  0  0  0
 26 21  2  0  0  0  0
 28 27  3  0  0  0  0
 29  1  1  0  0  0  0
 30 29  1  0  0  0  0
 31 30  1  0  0  0  0
 32 33  1  0  0  0  0
 32 31  1  0  0  0  0
 35 33  1  1  0  0  0
 35 36  1  0  0  0  0
 35 34  1  0  0  0  0
 36 34  1  0  0  0  0
M  END
>  <MODEL>
1

>  <REMARK>
 VINA RESULT:      -7.6      0.000      0.000
  Name = 
  12 active torsions:
  status: ('A' for Active; 'I' for Inactive)
    1  A    between atoms: C_3  and  C_12
    2  A    between atoms: C_3  and  C_17
    3  A    between atoms: C_6  and  N_26
    4  A    between atoms: C_7  and  C_34
    5  A    between atoms: O_8  and  C_22
    6  A    between atoms: O_8  and  C_30
    7  A    between atoms: C_17  and  C_28
    8  A    between atoms: C_17  and  O_31
    9  A    between atoms: C_18  and  C_25
   10  A    between atoms: C_22  and  O_31
   11  A    between atoms: C_25  and  C_30
   12  A    between atoms: C_27  and  C_32
                            x       y       z     vdW  Elec       q    Type
                         _______ _______ _______ _____ _____    ______ ____

>  <TORSDO>
F 12

$$$$
=
 OpenBabel11032420113D

 36 39  0  0  1  0  0  0  0  0999 V2000
  191.1390  177.1450  142.5790 C   0  0  1  0  0  3  0  0  0  0  0  0
  191.4160  175.0240  143.6470 O   0  0  0  0  0  0  0  0  0  0  0  0
  189.2600  175.4610  142.9250 N   0  0  0  0  0  2  0  0  0  0  0  0
  190.6260  175.8340  143.1040 C   0  0  0  0  0  0  0  0  0  0  0  0
  188.2030  176.4160  142.9190 C   0  0  0  0  0  3  0  0  0  0  0  0
  187.4260  176.5800  143.9820 C   0  0  0  0  0  3  0  0  0  0  0  0
  185.8960  178.2000  142.8480 C   0  0  0  0  0  3  0  0  0  0  0  0
  185.9320  178.0840  145.2640 C   0  0  0  0  0  3  0  0  0  0  0  0
  185.0310  179.1530  145.3250 C   0  0  0  0  0  3  0  0  0  0  0  0
  184.5560  179.7360  144.1530 C   0  0  0  0  0  3  0  0  0  0  0  0
  186.3860  177.6200  144.0250 C   0  0  0  0  0  0  0  0  0  0  0  0
  184.9750  179.2450  142.9110 C   0  0  0  0  0  3  0  0  0  0  0  0
  190.1490  177.9240  141.7010 C   0  0  0  0  0  2  0  0  0  0  0  0
  189.0660  178.8140  137.2280 C   0  0  0  0  0  1  0  0  0  0  0  0
  189.7930  176.4010  137.4520 C   0  0  0  0  0  0  0  0  0  0  0  0
  189.6820  174.5160  136.2730 C   0  0  0  0  0  0  0  0  0  0  0  0
  190.5630  175.3450  138.1570 C   0  0  1  0  0  3  0  0  0  0  0  0
  190.4250  177.6200  140.2640 C   0  0  0  0  0  0  0  0  0  0  0  0
  189.5550  177.6980  138.0250 N   0  0  0  0  0  0  0  0  0  0  0  0
  189.3220  173.5530  135.1970 C   0  0  0  0  0  1  0  0  0  0  0  0
  192.5100  176.7190  138.9030 C   0  0  0  0  0  3  0  0  0  0  0  0
  189.4530  177.8130  139.4170 N   0  0  0  0  0  0  0  0  0  0  0  0
  189.2980  175.9100  136.3210 C   0  0  0  0  0  0  0  0  0  0  0  0
  190.3790  174.1800  137.3030 N   0  0  0  0  0  0  0  0  0  0  0  0
  191.8090  177.5100  139.8780 N   0  0  0  0  0  2  0  0  0  0  0  0
  191.9940  175.7470  138.1480 C   0  0  0  0  0  3  0  0  0  0  0  0
  187.7100  177.1360  134.5940 C   0  0  0  0  0  3  0  0  0  0  0  0
  188.4340  176.5740  135.3770 C   0  0  0  0  0  0  0  0  0  0  0  0
  191.8820  177.8790  143.5390 O   0  0  0  0  0  0  0  0  0  0  0  0
  191.1220  178.1080  144.7050 C   0  0  0  0  0  2  0  0  0  0  0  0
  191.7820  177.6310  145.8410 O   0  0  0  0  0  0  0  0  0  0  0  0
  190.8280  176.8770  146.5350 C   0  0  0  0  0  2  0  0  0  0  0  0
  189.4850  177.5970  146.5680 C   0  0  0  0  0  2  0  0  0  0  0  0
  189.0930  178.1180  148.8450 O   0  0  0  0  0  0  0  0  0  0  0  0
  188.7160  177.2290  147.8230 C   0  0  1  0  0  3  0  0  0  0  0  0
  187.8530  178.3540  148.2330 C   0  0  0  0  0  2  0  0  0  0  0  0
  1 13  1  1  0  0  0
  1  4  1  0  0  0  0
  1 29  1  0  0  0  0
  3  4  1  0  0  0  0
  4  2  2  0  0  0  0
  5  3  1  0  0  0  0
  5  6  2  0  0  0  0
  6 11  1  0  0  0  0
  7 12  2  0  0  0  0
  7 11  1  0  0  0  0
  8  9  1  0  0  0  0
 10  9  2  0  0  0  0
 11  8  2  0  0  0  0
 12 10  1  0  0  0  0
 14 19  1  0  0  0  0
 15 19  1  0  0  0  0
 15 17  1  0  0  0  0
 16 23  1  0  0  0  0
 16 24  2  0  0  0  0
 17 26  1  6  0  0  0
 18 13  1  0  0  0  0
 19 22  1  0  0  0  0
 20 16  1  0  0  0  0
 21 25  1  0  0  0  0
 22 18  2  0  0  0  0
 23 15  2  0  0  0  0
 24 17  1  0  0  0  0
 25 18  1  0  0  0  0
 26 21  2  0  0  0  0
 27 28  3  0  0  0  0
 28 23  1  0  0  0  0
 29 30  1  0  0  0  0
 30 31  1  0  0  0  0
 31 32  1  0  0  0  0
 32 33  1  0  0  0  0
 35 33  1  6  0  0  0
 35 36  1  0  0  0  0
 35 34  1  0  0  0  0
 36 34  1  0  0  0  0
M  END
>  <MODEL>
2

>  <REMARK>
 VINA RESULT:      -7.5      2.681      5.333
  Name = 
  12 active torsions:
  status: ('A' for Active; 'I' for Inactive)
    1  A    between atoms: C_3  and  C_12
    2  A    between atoms: C_3  and  C_17
    3  A    between atoms: C_6  and  N_26
    4  A    between atoms: C_7  and  C_34
    5  A    between atoms: O_8  and  C_22
    6  A    between atoms: O_8  and  C_30
    7  A    between atoms: C_17  and  C_28
    8  A    between atoms: C_17  and  O_31
    9  A    between atoms: C_18  and  C_25
   10  A    between atoms: C_22  and  O_31
   11  A    between atoms: C_25  and  C_30
   12  A    between atoms: C_27  and  C_32
                            x       y       z     vdW  Elec       q    Type
                         _______ _______ _______ _____ _____    ______ ____

>  <TORSDO>
F 12

$$$$
=
 OpenBabel11032420113D

 36 39  0  0  1  0  0  0  0  0999 V2000
  188.9140  178.0630  140.5250 C   0  0  1  0  0  3  0  0  0  0  0  0
  190.7070  176.6310  139.8580 O   0  0  0  0  0  0  0  0  0  0  0  0
  190.0130  176.3440  142.0480 N   0  0  0  0  0  2  0  0  0  0  0  0
  189.9430  176.9990  140.7820 C   0  0  0  0  0  0  0  0  0  0  0  0
  189.7020  177.0070  143.2690 C   0  0  0  0  0  3  0  0  0  0  0  0
  188.7170  176.5760  144.0490 C   0  0  0  0  0  3  0  0  0  0  0  0
  189.4260  177.2670  146.3440 C   0  0  0  0  0  3  0  0  0  0  0  0
  187.1470  177.6540  145.6310 C   0  0  0  0  0  3  0  0  0  0  0  0
  186.8340  178.1370  146.9070 C   0  0  0  0  0  3  0  0  0  0  0  0
  187.8150  178.1950  147.8940 C   0  0  0  0  0  3  0  0  0  0  0  0
  188.4380  177.1950  145.3530 C   0  0  0  0  0  0  0  0  0  0  0  0
  189.1190  177.7770  147.6060 C   0  0  0  0  0  3  0  0  0  0  0  0
  189.0810  178.8210  139.2000 C   0  0  0  0  0  2  0  0  0  0  0  0
  185.4430  177.3360  136.6430 C   0  0  0  0  0  1  0  0  0  0  0  0
  187.1590  175.4850  136.8150 C   0  0  0  0  0  0  0  0  0  0  0  0
  187.2740  173.2890  136.4750 C   0  0  0  0  0  0  0  0  0  0  0  0
  188.5640  175.0410  137.0040 C   0  0  1  0  0  3  0  0  0  0  0  0
  188.6140  177.9520  138.0770 C   0  0  0  0  0  0  0  0  0  0  0  0
  186.7280  176.8270  137.1000 N   0  0  0  0  0  0  0  0  0  0  0  0
  186.8580  171.8910  136.1790 C   0  0  0  0  0  1  0  0  0  0  0  0
  189.7260  176.9510  135.8920 C   0  0  0  0  0  3  0  0  0  0  0  0
  187.3770  177.5440  138.1130 N   0  0  0  0  0  0  0  0  0  0  0  0
  186.4060  174.4460  136.4740 C   0  0  0  0  0  0  0  0  0  0  0  0
  188.4840  173.6030  136.7850 N   0  0  0  0  0  0  0  0  0  0  0  0
  189.4200  177.9480  136.8830 N   0  0  0  0  0  2  0  0  0  0  0  0
  189.3820  175.6620  135.9290 C   0  0  0  0  0  3  0  0  0  0  0  0
  183.7860  174.4130  136.0970 C   0  0  0  0  0  3  0  0  0  0  0  0
  184.9790  174.4230  136.2680 C   0  0  0  0  0  0  0  0  0  0  0  0
  187.6010  177.6720  140.8960 O   0  0  0  0  0  0  0  0  0  0  0  0
  186.9530  178.6920  141.6250 C   0  0  0  0  0  2  0  0  0  0  0  0
  185.9700  179.3190  140.8550 O   0  0  0  0  0  0  0  0  0  0  0  0
  184.7510  178.9490  141.4350 C   0  0  0  0  0  2  0  0  0  0  0  0
  184.9380  178.5770  142.9020 C   0  0  0  0  0  2  0  0  0  0  0  0
  182.9150  179.3800  143.8350 O   0  0  0  0  0  0  0  0  0  0  0  0
  184.3000  179.6200  143.8000 C   0  0  1  0  0  3  0  0  0  0  0  0
  183.6540  178.9650  144.9530 C   0  0  0  0  0  2  0  0  0  0  0  0
  1 13  1  6  0  0  0
  1  4  1  0  0  0  0
  1 29  1  0  0  0  0
  2  4  2  0  0  0  0
  3  5  1  0  0  0  0
  4  3  1  0  0  0  0
  5  6  2  0  0  0  0
  6 11  1  0  0  0  0
  7 12  1  0  0  0  0
  8  9  2  0  0  0  0
  9 10  1  0  0  0  0
 11  8  1  0  0  0  0
 11  7  2  0  0  0  0
 12 10  2  0  0  0  0
 14 19  1  0  0  0  0
 15 17  1  0  0  0  0
 15 19  1  0  0  0  0
 16 24  2  0  0  0  0
 17 26  1  6  0  0  0
 18 22  2  0  0  0  0
 18 13  1  0  0  0  0
 19 22  1  0  0  0  0
 20 16  1  0  0  0  0
 21 26  2  0  0  0  0
 21 25  1  0  0  0  0
 23 16  1  0  0  0  0
 23 15  2  0  0  0  0
 24 17  1  0  0  0  0
 25 18  1  0  0  0  0
 27 28  3  0  0  0  0
 28 23  1  0  0  0  0
 29 30  1  0  0  0  0
 31 32  1  0  0  0  0
 31 30  1  0  0  0  0
 32 33  1  0  0  0  0
 34 36  1  0  0  0  0
 35 33  1  6  0  0  0
 35 34  1  0  0  0  0
 35 36  1  0  0  0  0
M  END
>  <MODEL>
3

>  <REMARK>
 VINA RESULT:      -7.3      2.646      5.388
  Name = 
  12 active torsions:
  status: ('A' for Active; 'I' for Inactive)
    1  A    between atoms: C_3  and  C_12
    2  A    between atoms: C_3  and  C_17
    3  A    between atoms: C_6  and  N_26
    4  A    between atoms: C_7  and  C_34
    5  A    between atoms: O_8  and  C_22
    6  A    between atoms: O_8  and  C_30
    7  A    between atoms: C_17  and  C_28
    8  A    between atoms: C_17  and  O_31
    9  A    between atoms: C_18  and  C_25
   10  A    between atoms: C_22  and  O_31
   11  A    between atoms: C_25  and  C_30
   12  A    between atoms: C_27  and  C_32
                            x       y       z     vdW  Elec       q    Type
                         _______ _______ _______ _____ _____    ______ ____

>  <TORSDO>
F 12

$$$$
=
 OpenBabel11032420113D

 36 39  0  0  1  0  0  0  0  0999 V2000
  189.8240  177.3120  139.6640 C   0  0  1  0  0  3  0  0  0  0  0  0
  191.9650  177.3210  140.7270 O   0  0  0  0  0  0  0  0  0  0  0  0
  190.2440  176.5000  142.0400 N   0  0  0  0  0  2  0  0  0  0  0  0
  190.7390  177.0760  140.8320 C   0  0  0  0  0  0  0  0  0  0  0  0
  188.9230  176.7390  142.5140 C   0  0  0  0  0  3  0  0  0  0  0  0
  188.7130  177.3180  143.6900 C   0  0  0  0  0  3  0  0  0  0  0  0
  186.3320  177.9370  143.2480 C   0  0  0  0  0  3  0  0  0  0  0  0
  187.1130  177.7510  145.5300 C   0  0  0  0  0  3  0  0  0  0  0  0
  185.8630  178.1810  145.9890 C   0  0  0  0  0  3  0  0  0  0  0  0
  184.8480  178.4770  145.0830 C   0  0  0  0  0  3  0  0  0  0  0  0
  187.3590  177.6510  144.1570 C   0  0  0  0  0  0  0  0  0  0  0  0
  185.0770  178.3360  143.7090 C   0  0  0  0  0  3  0  0  0  0  0  0
  188.9700  178.5850  139.7570 C   0  0  0  0  0  2  0  0  0  0  0  0
  184.3940  179.3060  139.0330 C   0  0  0  0  0  1  0  0  0  0  0  0
  185.1420  177.2750  137.7230 C   0  0  0  0  0  0  0  0  0  0  0  0
  184.2190  175.5340  136.6870 C   0  0  0  0  0  0  0  0  0  0  0  0
  186.2070  176.5040  137.0320 C   0  0  1  0  0  3  0  0  0  0  0  0
  187.8220  178.4740  138.8060 C   0  0  0  0  0  0  0  0  0  0  0  0
  185.4290  178.3800  138.5980 N   0  0  0  0  0  0  0  0  0  0  0  0
  183.1920  174.5690  136.2090 C   0  0  0  0  0  1  0  0  0  0  0  0
  187.5670  178.4130  136.1700 C   0  0  0  0  0  3  0  0  0  0  0  0
  186.6290  178.3740  139.3210 N   0  0  0  0  0  0  0  0  0  0  0  0
  183.9620  176.7100  137.4900 C   0  0  0  0  0  0  0  0  0  0  0  0
  185.4750  175.3960  136.4350 N   0  0  0  0  0  0  0  0  0  0  0  0
  188.0710  178.8630  137.4410 N   0  0  0  0  0  2  0  0  0  0  0  0
  186.7650  177.3680  135.9590 C   0  0  0  0  0  3  0  0  0  0  0  0
  181.6070  177.4060  138.4790 C   0  0  0  0  0  3  0  0  0  0  0  0
  182.6810  177.0930  138.0280 C   0  0  0  0  0  0  0  0  0  0  0  0
  190.4250  177.0160  138.4140 O   0  0  0  0  0  0  0  0  0  0  0  0
  190.0590  175.7290  137.9650 C   0  0  0  0  0  2  0  0  0  0  0  0
  191.0660  174.7960  138.2290 O   0  0  0  0  0  0  0  0  0  0  0  0
  191.8930  174.8140  137.1000 C   0  0  0  0  0  2  0  0  0  0  0  0
  193.1430  173.9710  137.3290 C   0  0  0  0  0  2  0  0  0  0  0  0
  194.4080  175.5670  138.5380 O   0  0  0  0  0  0  0  0  0  0  0  0
  194.3820  174.8480  137.3300 C   0  0  1  0  0  3  0  0  0  0  0  0
  195.2690  174.4630  138.4450 C   0  0  0  0  0  2  0  0  0  0  0  0
  1 13  1  6  0  0  0
  1  4  1  0  0  0  0
  2  4  2  0  0  0  0
  3  5  1  0  0  0  0
  4  3  1  0  0  0  0
  5  6  2  0  0  0  0
  6 11  1  0  0  0  0
  7 12  2  0  0  0  0
  7 11  1  0  0  0  0
  8  9  1  0  0  0  0
 10  9  2  0  0  0  0
 11  8  2  0  0  0  0
 12 10  1  0  0  0  0
 15 19  1  0  0  0  0
 16 23  1  0  0  0  0
 17 26  1  6  0  0  0
 17 15  1  0  0  0  0
 18 22  2  0  0  0  0
 18 13  1  0  0  0  0
 19 14  1  0  0  0  0
 19 22  1  0  0  0  0
 20 16  1  0  0  0  0
 21 25  1  0  0  0  0
 23 15  2  0  0  0  0
 23 28  1  0  0  0  0
 24 16  2  0  0  0  0
 24 17  1  0  0  0  0
 25 18  1  0  0  0  0
 26 21  2  0  0  0  0
 28 27  3  0  0  0  0
 29  1  1  0  0  0  0
 30 31  1  0  0  0  0
 30 29  1  0  0  0  0
 32 33  1  0  0  0  0
 32 31  1  0  0  0  0
 35 33  1  1  0  0  0
 35 36  1  0  0  0  0
 35 34  1  0  0  0  0
 36 34  1  0  0  0  0
M  END
>  <MODEL>
4

>  <REMARK>
 VINA RESULT:      -7.2      1.201      1.468
  Name = 
  12 active torsions:
  status: ('A' for Active; 'I' for Inactive)
    1  A    between atoms: C_3  and  C_12
    2  A    between atoms: C_3  and  C_17
    3  A    between atoms: C_6  and  N_26
    4  A    between atoms: C_7  and  C_34
    5  A    between atoms: O_8  and  C_22
    6  A    between atoms: O_8  and  C_30
    7  A    between atoms: C_17  and  C_28
    8  A    between atoms: C_17  and  O_31
    9  A    between atoms: C_18  and  C_25
   10  A    between atoms: C_22  and  O_31
   11  A    between atoms: C_25  and  C_30
   12  A    between atoms: C_27  and  C_32
                            x       y       z     vdW  Elec       q    Type
                         _______ _______ _______ _____ _____    ______ ____

>  <TORSDO>
F 12

$$$$
=
 OpenBabel11032420113D

 36 39  0  0  1  0  0  0  0  0999 V2000
  184.6960  179.1250  138.9710 C   0  0  1  0  0  3  0  0  0  0  0  0
  183.0300  177.4850  138.4720 O   0  0  0  0  0  0  0  0  0  0  0  0
  183.3260  177.8970  140.7310 N   0  0  0  0  0  2  0  0  0  0  0  0
  183.6600  178.1090  139.3600 C   0  0  0  0  0  0  0  0  0  0  0  0
  184.2830  178.0230  141.7780 C   0  0  0  0  0  3  0  0  0  0  0  0
  183.9020  178.2630  143.0270 C   0  0  0  0  0  3  0  0  0  0  0  0
  186.1830  177.8550  143.9640 C   0  0  0  0  0  3  0  0  0  0  0  0
  184.4480  178.7510  145.3930 C   0  0  0  0  0  3  0  0  0  0  0  0
  185.3210  178.6910  146.4840 C   0  0  0  0  0  3  0  0  0  0  0  0
  186.6230  178.2260  146.3150 C   0  0  0  0  0  3  0  0  0  0  0  0
  184.8690  178.3100  144.1340 C   0  0  0  0  0  0  0  0  0  0  0  0
  187.0610  177.8250  145.0480 C   0  0  0  0  0  3  0  0  0  0  0  0
  185.5290  178.7620  137.7330 C   0  0  0  0  0  2  0  0  0  0  0  0
  188.5140  177.4780  141.1120 C   0  0  0  0  0  1  0  0  0  0  0  0
  189.5930  177.1090  138.8540 C   0  0  0  0  0  0  0  0  0  0  0  0
  191.6280  176.7560  138.0230 C   0  0  0  0  0  0  0  0  0  0  0  0
  189.4800  176.8490  137.3970 C   0  0  1  0  0  3  0  0  0  0  0  0
  186.6360  177.8440  138.1410 C   0  0  0  0  0  0  0  0  0  0  0  0
  188.4700  177.5110  139.6580 N   0  0  0  0  0  0  0  0  0  0  0  0
  193.1070  176.6100  137.9470 C   0  0  0  0  0  1  0  0  0  0  0  0
  187.4300  175.4230  137.4170 C   0  0  0  0  0  3  0  0  0  0  0  0
  187.4520  178.2670  139.0650 N   0  0  0  0  0  0  0  0  0  0  0  0
  190.8670  177.0240  139.2240 C   0  0  0  0  0  0  0  0  0  0  0  0
  190.8660  176.6710  136.9870 N   0  0  0  0  0  0  0  0  0  0  0  0
  186.4960  176.4570  137.7760 N   0  0  0  0  0  2  0  0  0  0  0  0
  188.7420  175.5700  137.2220 C   0  0  0  0  0  3  0  0  0  0  0  0
  191.8940  177.4820  141.6200 C   0  0  0  0  0  3  0  0  0  0  0  0
  191.4230  177.2770  140.5300 C   0  0  0  0  0  0  0  0  0  0  0  0
  184.2360  180.4630  139.0810 O   0  0  0  0  0  0  0  0  0  0  0  0
  182.8630  180.5570  138.7690 C   0  0  0  0  0  2  0  0  0  0  0  0
  182.5080  181.8670  138.4360 O   0  0  0  0  0  0  0  0  0  0  0  0
  181.1250  181.8330  138.2190 C   0  0  0  0  0  2  0  0  0  0  0  0
  180.7580  182.5790  136.9410 C   0  0  0  0  0  2  0  0  0  0  0  0
  181.9310  184.6160  137.2280 O   0  0  0  0  0  0  0  0  0  0  0  0
  180.6370  184.0670  137.2110 C   0  0  1  0  0  3  0  0  0  0  0  0
  181.1730  184.8310  136.0680 C   0  0  0  0  0  2  0  0  0  0  0  0
  1 13  1  6  0  0  0
  1 29  1  0  0  0  0
  1  4  1  0  0  0  0
  2  4  2  0  0  0  0
  3  5  1  0  0  0  0
  4  3  1  0  0  0  0
  5  6  2  0  0  0  0
  6 11  1  0  0  0  0
  7 11  2  0  0  0  0
  7 12  1  0  0  0  0
  8  9  2  0  0  0  0
 10  9  1  0  0  0  0
 11  8  1  0  0  0  0
 12 10  2  0  0  0  0
 13 18  1  0  0  0  0
 15 23  2  0  0  0  0
 15 19  1  0  0  0  0
 16 23  1  0  0  0  0
 17 26  1  1  0  0  0
 17 15  1  0  0  0  0
 18 22  2  0  0  0  0
 19 14  1  0  0  0  0
 20 16  1  0  0  0  0
 21 25  1  0  0  0  0
 22 19  1  0  0  0  0
 23 28  1  0  0  0  0
 24 17  1  0  0  0  0
 24 16  2  0  0  0  0
 25 18  1  0  0  0  0
 26 21  2  0  0  0  0
 28 27  3  0  0  0  0
 30 29  1  0  0  0  0
 31 30  1  0  0  0  0
 32 31  1  0  0  0  0
 33 32  1  0  0  0  0
 35 33  1  6  0  0  0
 35 34  1  0  0  0  0
 36 35  1  0  0  0  0
 36 34  1  0  0  0  0
M  END
>  <MODEL>
5

>  <REMARK>
 VINA RESULT:      -7.2      4.085      7.711
  Name = 
  12 active torsions:
  status: ('A' for Active; 'I' for Inactive)
    1  A    between atoms: C_3  and  C_12
    2  A    between atoms: C_3  and  C_17
    3  A    between atoms: C_6  and  N_26
    4  A    between atoms: C_7  and  C_34
    5  A    between atoms: O_8  and  C_22
    6  A    between atoms: O_8  and  C_30
    7  A    between atoms: C_17  and  C_28
    8  A    between atoms: C_17  and  O_31
    9  A    between atoms: C_18  and  C_25
   10  A    between atoms: C_22  and  O_31
   11  A    between atoms: C_25  and  C_30
   12  A    between atoms: C_27  and  C_32
                            x       y       z     vdW  Elec       q    Type
                         _______ _______ _______ _____ _____    ______ ____

>  <TORSDO>
F 12

$$$$
=
 OpenBabel11032420113D

 36 39  0  0  1  0  0  0  0  0999 V2000
  189.5290  177.1540  139.9390 C   0  0  1  0  0  3  0  0  0  0  0  0
  191.4130  177.4810  141.3730 O   0  0  0  0  0  0  0  0  0  0  0  0
  189.4330  177.0130  142.4790 N   0  0  0  0  0  2  0  0  0  0  0  0
  190.1820  177.2520  141.2880 C   0  0  0  0  0  0  0  0  0  0  0  0
  188.0540  177.3490  142.5940 C   0  0  0  0  0  3  0  0  0  0  0  0
  187.5010  177.5680  143.7810 C   0  0  0  0  0  3  0  0  0  0  0  0
  185.2840  178.1530  142.7870 C   0  0  0  0  0  3  0  0  0  0  0  0
  185.6030  178.3300  145.1780 C   0  0  0  0  0  3  0  0  0  0  0  0
  184.3130  178.8540  145.3080 C   0  0  0  0  0  3  0  0  0  0  0  0
  183.5070  179.0170  144.1840 C   0  0  0  0  0  3  0  0  0  0  0  0
  186.1020  178.0000  143.9140 C   0  0  0  0  0  0  0  0  0  0  0  0
  183.9860  178.6470  142.9220 C   0  0  0  0  0  3  0  0  0  0  0  0
  189.2420  178.4990  139.2560 C   0  0  0  0  0  2  0  0  0  0  0  0
  184.6180  179.2680  139.2900 C   0  0  0  0  0  1  0  0  0  0  0  0
  185.1200  177.2330  137.8730 C   0  0  0  0  0  0  0  0  0  0  0  0
  184.0230  175.5050  136.9990 C   0  0  0  0  0  0  0  0  0  0  0  0
  186.0510  176.4540  137.0160 C   0  0  1  0  0  3  0  0  0  0  0  0
  187.9540  178.4030  138.5050 C   0  0  0  0  0  0  0  0  0  0  0  0
  185.5580  178.3320  138.6900 N   0  0  0  0  0  0  0  0  0  0  0  0
  182.9230  174.5510  136.6930 C   0  0  0  0  0  1  0  0  0  0  0  0
  187.2720  178.3520  135.9460 C   0  0  0  0  0  3  0  0  0  0  0  0
  186.8590  178.3130  139.2070 N   0  0  0  0  0  0  0  0  0  0  0  0
  183.9130  176.6800  137.8350 C   0  0  0  0  0  0  0  0  0  0  0  0
  185.2200  175.3550  136.5450 N   0  0  0  0  0  0  0  0  0  0  0  0
  187.9810  178.7930  137.1180 N   0  0  0  0  0  2  0  0  0  0  0  0
  186.4350  177.3160  135.8670 C   0  0  0  0  0  3  0  0  0  0  0  0
  181.7620  177.3990  139.2010 C   0  0  0  0  0  3  0  0  0  0  0  0
  182.7410  177.0750  138.5750 C   0  0  0  0  0  0  0  0  0  0  0  0
  190.0590  176.1110  139.1350 O   0  0  0  0  0  0  0  0  0  0  0  0
  191.0110  176.6080  138.2200 C   0  0  0  0  0  2  0  0  0  0  0  0
  190.9860  175.8880  137.0230 O   0  0  0  0  0  0  0  0  0  0  0  0
  191.3610  174.5840  137.3650 C   0  0  0  0  0  2  0  0  0  0  0  0
  190.6060  173.5630  136.5220 C   0  0  0  0  0  2  0  0  0  0  0  0
  188.4290  173.9530  135.6750 O   0  0  0  0  0  0  0  0  0  0  0  0
  189.1240  173.5980  136.8440 C   0  0  1  0  0  3  0  0  0  0  0  0
  188.4080  172.5970  136.0310 C   0  0  0  0  0  2  0  0  0  0  0  0
  1 13  1  6  0  0  0
  1  4  1  0  0  0  0
  3  5  1  0  0  0  0
  4  2  2  0  0  0  0
  4  3  1  0  0  0  0
  5  6  2  0  0  0  0
  6 11  1  0  0  0  0
  7 12  2  0  0  0  0
  7 11  1  0  0  0  0
  8  9  1  0  0  0  0
 10  9  2  0  0  0  0
 11  8  2  0  0  0  0
 12 10  1  0  0  0  0
 15 19  1  0  0  0  0
 16 23  1  0  0  0  0
 17 26  1  6  0  0  0
 17 15  1  0  0  0  0
 18 22  2  0  0  0  0
 18 13  1  0  0  0  0
 19 22  1  0  0  0  0
 19 14  1  0  0  0  0
 20 16  1  0  0  0  0
 21 25  1  0  0  0  0
 23 15  2  0  0  0  0
 23 28  1  0  0  0  0
 24 16  2  0  0  0  0
 24 17  1  0  0  0  0
 25 18  1  0  0  0  0
 26 21  2  0  0  0  0
 28 27  3  0  0  0  0
 29  1  1  0  0  0  0
 30 29  1  0  0  0  0
 31 32  1  0  0  0  0
 31 30  1  0  0  0  0
 33 32  1  0  0  0  0
 34 36  1  0  0  0  0
 34 35  1  0  0  0  0
 35 33  1  6  0  0  0
 36 35  1  0  0  0  0
M  END
>  <MODEL>
6

>  <REMARK>
 VINA RESULT:      -7.2      1.656      2.372
  Name = 
  12 active torsions:
  status: ('A' for Active; 'I' for Inactive)
    1  A    between atoms: C_3  and  C_12
    2  A    between atoms: C_3  and  C_17
    3  A    between atoms: C_6  and  N_26
    4  A    between atoms: C_7  and  C_34
    5  A    between atoms: O_8  and  C_22
    6  A    between atoms: O_8  and  C_30
    7  A    between atoms: C_17  and  C_28
    8  A    between atoms: C_17  and  O_31
    9  A    between atoms: C_18  and  C_25
   10  A    between atoms: C_22  and  O_31
   11  A    between atoms: C_25  and  C_30
   12  A    between atoms: C_27  and  C_32
                            x       y       z     vdW  Elec       q    Type
                         _______ _______ _______ _____ _____    ______ ____

>  <TORSDO>
F 12

$$$$
=
 OpenBabel11032420113D

 36 39  0  0  1  0  0  0  0  0999 V2000
  184.9720  178.2810  142.4570 C   0  0  1  0  0  3  0  0  0  0  0  0
  182.7760  178.4820  143.3790 O   0  0  0  0  0  0  0  0  0  0  0  0
  184.4560  179.3850  144.6930 N   0  0  0  0  0  2  0  0  0  0  0  0
  184.0040  178.6900  143.5310 C   0  0  0  0  0  0  0  0  0  0  0  0
  185.7350  179.1510  145.2720 C   0  0  0  0  0  3  0  0  0  0  0  0
  185.9000  178.2350  146.2190 C   0  0  0  0  0  3  0  0  0  0  0  0
  187.5390  178.1920  148.1050 C   0  0  0  0  0  3  0  0  0  0  0  0
  188.2150  177.4080  145.9190 C   0  0  0  0  0  3  0  0  0  0  0  0
  189.5170  177.2150  146.3950 C   0  0  0  0  0  3  0  0  0  0  0  0
  189.8260  177.4980  147.7230 C   0  0  0  0  0  3  0  0  0  0  0  0
  187.2280  177.9210  146.7670 C   0  0  0  0  0  0  0  0  0  0  0  0
  188.8300  177.9690  148.5860 C   0  0  0  0  0  3  0  0  0  0  0  0
  185.3110  179.3770  141.4370 C   0  0  0  0  0  2  0  0  0  0  0  0
  181.9290  180.2870  138.3200 C   0  0  0  0  0  1  0  0  0  0  0  0
  182.4970  177.8230  138.2470 C   0  0  0  0  0  0  0  0  0  0  0  0
  181.6130  175.9370  137.4630 C   0  0  0  0  0  0  0  0  0  0  0  0
  183.4620  176.7140  138.4570 C   0  0  1  0  0  3  0  0  0  0  0  0
  184.6970  179.0260  140.1200 C   0  0  0  0  0  0  0  0  0  0  0  0
  182.7130  179.1460  138.7690 N   0  0  0  0  0  0  0  0  0  0  0  0
  180.6430  174.9930  136.8450 C   0  0  0  0  0  1  0  0  0  0  0  0
  185.5700  177.9210  137.8770 C   0  0  0  0  0  3  0  0  0  0  0  0
  183.4310  179.2920  139.9620 N   0  0  0  0  0  0  0  0  0  0  0  0
  181.4150  177.3600  137.6300 C   0  0  0  0  0  0  0  0  0  0  0  0
  182.7500  175.5570  137.9350 N   0  0  0  0  0  0  0  0  0  0  0  0
  185.6030  178.7870  139.0250 N   0  0  0  0  0  2  0  0  0  0  0  0
  184.6550  176.9870  137.6120 C   0  0  0  0  0  3  0  0  0  0  0  0
  179.2020  178.6800  137.0250 C   0  0  0  0  0  3  0  0  0  0  0  0
  180.2120  178.0830  137.3030 C   0  0  0  0  0  0  0  0  0  0  0  0
  186.0410  177.4850  142.9420 O   0  0  0  0  0  0  0  0  0  0  0  0
  187.2760  177.9090  142.4050 C   0  0  0  0  0  2  0  0  0  0  0  0
  188.2260  176.8860  142.4510 O   0  0  0  0  0  0  0  0  0  0  0  0
  189.3970  177.4420  141.9220 C   0  0  0  0  0  2  0  0  0  0  0  0
  189.2020  177.8290  140.4610 C   0  0  0  0  0  2  0  0  0  0  0  0
  190.5420  176.0050  139.7640 O   0  0  0  0  0  0  0  0  0  0  0  0
  190.3980  177.3970  139.6320 C   0  0  1  0  0  3  0  0  0  0  0  0
  189.9650  176.4670  138.5720 C   0  0  0  0  0  2  0  0  0  0  0  0
  1 13  1  1  0  0  0
  1 29  1  0  0  0  0
  1  4  1  0  0  0  0
  2  4  2  0  0  0  0
  3  5  1  0  0  0  0
  4  3  1  0  0  0  0
  5  6  2  0  0  0  0
  6 11  1  0  0  0  0
  7 12  1  0  0  0  0
  8  9  2  0  0  0  0
  8 11  1  0  0  0  0
  9 10  1  0  0  0  0
 10 12  2  0  0  0  0
 11  7  2  0  0  0  0
 14 19  1  0  0  0  0
 15 17  1  0  0  0  0
 15 19  1  0  0  0  0
 16 23  1  0  0  0  0
 16 24  2  0  0  0  0
 17 26  1  6  0  0  0
 18 13  1  0  0  0  0
 19 22  1  0  0  0  0
 20 16  1  0  0  0  0
 21 25  1  0  0  0  0
 22 18  2  0  0  0  0
 23 15  2  0  0  0  0
 24 17  1  0  0  0  0
 25 18  1  0  0  0  0
 26 21  2  0  0  0  0
 27 28  3  0  0  0  0
 28 23  1  0  0  0  0
 30 31  1  0  0  0  0
 30 29  1  0  0  0  0
 32 31  1  0  0  0  0
 33 32  1  0  0  0  0
 35 34  1  0  0  0  0
 35 33  1  1  0  0  0
 36 35  1  0  0  0  0
 36 34  1  0  0  0  0
M  END
>  <MODEL>
7

>  <REMARK>
 VINA RESULT:      -7.1      3.080      4.983
  Name = 
  12 active torsions:
  status: ('A' for Active; 'I' for Inactive)
    1  A    between atoms: C_3  and  C_12
    2  A    between atoms: C_3  and  C_17
    3  A    between atoms: C_6  and  N_26
    4  A    between atoms: C_7  and  C_34
    5  A    between atoms: O_8  and  C_22
    6  A    between atoms: O_8  and  C_30
    7  A    between atoms: C_17  and  C_28
    8  A    between atoms: C_17  and  O_31
    9  A    between atoms: C_18  and  C_25
   10  A    between atoms: C_22  and  O_31
   11  A    between atoms: C_25  and  C_30
   12  A    between atoms: C_27  and  C_32
                            x       y       z     vdW  Elec       q    Type
                         _______ _______ _______ _____ _____    ______ ____

>  <TORSDO>
F 12

$$$$
=
 OpenBabel11032420113D

 36 39  0  0  1  0  0  0  0  0999 V2000
  188.9420  177.4800  143.5690 C   0  0  1  0  0  3  0  0  0  0  0  0
  190.8190  176.0420  143.9190 O   0  0  0  0  0  0  0  0  0  0  0  0
  190.5540  176.7610  141.7340 N   0  0  0  0  0  2  0  0  0  0  0  0
  190.1370  176.7010  143.0970 C   0  0  0  0  0  0  0  0  0  0  0  0
  189.6320  176.9120  140.6590 C   0  0  0  0  0  3  0  0  0  0  0  0
  189.8350  177.8140  139.7060 C   0  0  0  0  0  3  0  0  0  0  0  0
  189.0380  179.0040  137.6580 C   0  0  0  0  0  3  0  0  0  0  0  0
  187.9310  176.9730  138.3640 C   0  0  0  0  0  3  0  0  0  0  0  0
  186.9980  177.1270  137.3330 C   0  0  0  0  0  3  0  0  0  0  0  0
  187.0900  178.2090  136.4610 C   0  0  0  0  0  3  0  0  0  0  0  0
  188.9400  177.9240  138.5440 C   0  0  0  0  0  0  0  0  0  0  0  0
  188.1250  179.1400  136.6120 C   0  0  0  0  0  3  0  0  0  0  0  0
  187.6090  176.7210  143.5160 C   0  0  0  0  0  2  0  0  0  0  0  0
  183.8770  179.3710  144.5280 C   0  0  0  0  0  1  0  0  0  0  0  0
  183.6230  178.4190  142.1980 C   0  0  0  0  0  0  0  0  0  0  0  0
  182.0150  178.1340  140.6860 C   0  0  0  0  0  0  0  0  0  0  0  0
  184.2240  177.8810  140.9510 C   0  0  1  0  0  3  0  0  0  0  0  0
  186.5460  177.6330  142.9960 C   0  0  0  0  0  0  0  0  0  0  0  0
  184.3770  178.5820  143.4120 N   0  0  0  0  0  0  0  0  0  0  0  0
  180.6650  178.1120  140.0610 C   0  0  0  0  0  1  0  0  0  0  0  0
  186.3140  179.2470  140.9080 C   0  0  0  0  0  3  0  0  0  0  0  0
  185.4350  177.7020  143.6730 N   0  0  0  0  0  0  0  0  0  0  0  0
  182.3170  178.5930  142.0240 C   0  0  0  0  0  0  0  0  0  0  0  0
  183.0710  177.7170  140.0770 N   0  0  0  0  0  0  0  0  0  0  0  0
  186.9570  178.6270  142.0360 N   0  0  0  0  0  2  0  0  0  0  0  0
  185.1240  178.9260  140.3960 C   0  0  0  0  0  3  0  0  0  0  0  0
  180.5360  179.3800  143.8180 C   0  0  0  0  0  3  0  0  0  0  0  0
  181.3490  179.0260  143.0010 C   0  0  0  0  0  0  0  0  0  0  0  0
  189.2050  178.2630  144.7230 O   0  0  0  0  0  0  0  0  0  0  0  0
  188.3720  177.8820  145.7960 C   0  0  0  0  0  2  0  0  0  0  0  0
  189.0210  178.0440  147.0230 O   0  0  0  0  0  0  0  0  0  0  0  0
  189.5300  176.7810  147.3450 C   0  0  0  0  0  2  0  0  0  0  0  0
  191.0470  176.7520  147.1940 C   0  0  0  0  0  2  0  0  0  0  0  0
  192.8840  175.2590  147.1190 O   0  0  0  0  0  0  0  0  0  0  0  0
  191.6030  175.4240  147.6740 C   0  0  1  0  0  3  0  0  0  0  0  0
  192.8280  175.6480  148.4650 C   0  0  0  0  0  2  0  0  0  0  0  0
  1 13  1  1  0  0  0
  1 29  1  0  0  0  0
  3  4  1  0  0  0  0
  4  1  1  0  0  0  0
  4  2  2  0  0  0  0
  5  3  1  0  0  0  0
  6  5  2  0  0  0  0
  7 11  1  0  0  0  0
  8 11  2  0  0  0  0
  9  8  1  0  0  0  0
 10 12  1  0  0  0  0
 10  9  2  0  0  0  0
 11  6  1  0  0  0  0
 12  7  2  0  0  0  0
 15 19  1  0  0  0  0
 16 23  1  0  0  0  0
 17 26  1  6  0  0  0
 17 15  1  0  0  0  0
 18 13  1  0  0  0  0
 18 22  2  0  0  0  0
 19 22  1  0  0  0  0
 19 14  1  0  0  0  0
 20 16  1  0  0  0  0
 21 25  1  0  0  0  0
 23 15  2  0  0  0  0
 23 28  1  0  0  0  0
 24 16  2  0  0  0  0
 24 17  1  0  0  0  0
 25 18  1  0  0  0  0
 26 21  2  0  0  0  0
 28 27  3  0  0  0  0
 29 30  1  0  0  0  0
 30 31  1  0  0  0  0
 31 32  1  0  0  0  0
 33 32  1  0  0  0  0
 34 35  1  0  0  0  0
 34 36  1  0  0  0  0
 35 33  1  6  0  0  0
 35 36  1  0  0  0  0
M  END
>  <MODEL>
8

>  <REMARK>
 VINA RESULT:      -7.1      3.160      6.680
  Name = 
  12 active torsions:
  status: ('A' for Active; 'I' for Inactive)
    1  A    between atoms: C_3  and  C_12
    2  A    between atoms: C_3  and  C_17
    3  A    between atoms: C_6  and  N_26
    4  A    between atoms: C_7  and  C_34
    5  A    between atoms: O_8  and  C_22
    6  A    between atoms: O_8  and  C_30
    7  A    between atoms: C_17  and  C_28
    8  A    between atoms: C_17  and  O_31
    9  A    between atoms: C_18  and  C_25
   10  A    between atoms: C_22  and  O_31
   11  A    between atoms: C_25  and  C_30
   12  A    between atoms: C_27  and  C_32
                            x       y       z     vdW  Elec       q    Type
                         _______ _______ _______ _____ _____    ______ ____

>  <TORSDO>
F 12

$$$$
=
 OpenBabel11032420113D

 36 39  0  0  1  0  0  0  0  0999 V2000
  188.2090  177.9480  138.8690 C   0  0  1  0  0  3  0  0  0  0  0  0
  190.4070  177.3690  138.1330 O   0  0  0  0  0  0  0  0  0  0  0  0
  188.7080  176.1540  137.1330 N   0  0  0  0  0  2  0  0  0  0  0  0
  189.1760  177.1370  138.0550 C   0  0  0  0  0  0  0  0  0  0  0  0
  187.5280  175.3910  137.3650 C   0  0  0  0  0  3  0  0  0  0  0  0
  186.6270  175.2170  136.4050 C   0  0  0  0  0  3  0  0  0  0  0  0
  185.5680  173.0780  137.1450 C   0  0  0  0  0  3  0  0  0  0  0  0
  184.1950  174.8130  136.1660 C   0  0  0  0  0  3  0  0  0  0  0  0
  183.0830  173.9670  136.2350 C   0  0  0  0  0  3  0  0  0  0  0  0
  183.2100  172.6860  136.7660 C   0  0  0  0  0  3  0  0  0  0  0  0
  185.4470  174.3620  136.5990 C   0  0  0  0  0  0  0  0  0  0  0  0
  184.4510  172.2470  137.2410 C   0  0  0  0  0  3  0  0  0  0  0  0
  188.8330  178.7180  140.0420 C   0  0  0  0  0  2  0  0  0  0  0  0
  185.6190  177.6300  143.2770 C   0  0  0  0  0  1  0  0  0  0  0  0
  187.8950  177.7780  144.3710 C   0  0  0  0  0  0  0  0  0  0  0  0
  188.7450  177.9480  146.4220 C   0  0  0  0  0  0  0  0  0  0  0  0
  189.3750  177.6900  144.2890 C   0  0  1  0  0  3  0  0  0  0  0  0
  188.5370  177.9950  141.3160 C   0  0  0  0  0  0  0  0  0  0  0  0
  187.0570  177.8400  143.2040 N   0  0  0  0  0  0  0  0  0  0  0  0
  188.8240  178.1100  147.8990 C   0  0  0  0  0  1  0  0  0  0  0  0
  189.5610  175.8950  142.5630 C   0  0  0  0  0  3  0  0  0  0  0  0
  187.5570  178.4490  142.0460 N   0  0  0  0  0  0  0  0  0  0  0  0
  187.5270  177.9010  145.6420 C   0  0  0  0  0  0  0  0  0  0  0  0
  189.7900  177.8460  145.6760 N   0  0  0  0  0  0  0  0  0  0  0  0
  189.0800  176.6660  141.4480 N   0  0  0  0  0  2  0  0  0  0  0  0
  189.7210  176.3240  143.8160 C   0  0  0  0  0  3  0  0  0  0  0  0
  185.0820  178.2510  146.5960 C   0  0  0  0  0  3  0  0  0  0  0  0
  186.1940  178.0880  146.1580 C   0  0  0  0  0  0  0  0  0  0  0  0
  187.2440  178.6260  138.0800 O   0  0  0  0  0  0  0  0  0  0  0  0
  185.9330  178.2970  138.4860 C   0  0  0  0  0  2  0  0  0  0  0  0
  185.2470  179.4250  138.9440 O   0  0  0  0  0  0  0  0  0  0  0  0
  184.5540  179.0010  140.0840 C   0  0  0  0  0  2  0  0  0  0  0  0
  183.0520  178.9770  139.8300 C   0  0  0  0  0  2  0  0  0  0  0  0
  182.4250  178.9690  142.1130 O   0  0  0  0  0  0  0  0  0  0  0  0
  182.3380  178.2150  140.9300 C   0  0  1  0  0  3  0  0  0  0  0  0
  181.1990  179.0060  141.4340 C   0  0  0  0  0  2  0  0  0  0  0  0
  1 13  1  6  0  0  0
  3  5  1  0  0  0  0
  3  4  1  0  0  0  0
  4  2  2  0  0  0  0
  4  1  1  0  0  0  0
  6 11  1  0  0  0  0
  6  5  2  0  0  0  0
  7 12  1  0  0  0  0
  8  9  2  0  0  0  0
  8 11  1  0  0  0  0
  9 10  1  0  0  0  0
 10 12  2  0  0  0  0
 11  7  2  0  0  0  0
 13 18  1  0  0  0  0
 15 23  2  0  0  0  0
 16 20  1  0  0  0  0
 17 26  1  1  0  0  0
 17 15  1  0  0  0  0
 17 24  1  0  0  0  0
 18 25  1  0  0  0  0
 18 22  2  0  0  0  0
 19 14  1  0  0  0  0
 19 15  1  0  0  0  0
 21 26  2  0  0  0  0
 22 19  1  0  0  0  0
 23 28  1  0  0  0  0
 23 16  1  0  0  0  0
 24 16  2  0  0  0  0
 25 21  1  0  0  0  0
 28 27  3  0  0  0  0
 29 30  1  0  0  0  0
 29  1  1  0  0  0  0
 30 31  1  0  0  0  0
 31 32  1  0  0  0  0
 33 32  1  0  0  0  0
 35 33  1  6  0  0  0
 35 36  1  0  0  0  0
 35 34  1  0  0  0  0
 36 34  1  0  0  0  0
M  END
>  <MODEL>
9

>  <REMARK>
 VINA RESULT:      -7.1      2.897      8.336
  Name = 
  12 active torsions:
  status: ('A' for Active; 'I' for Inactive)
    1  A    between atoms: C_3  and  C_12
    2  A    between atoms: C_3  and  C_17
    3  A    between atoms: C_6  and  N_26
    4  A    between atoms: C_7  and  C_34
    5  A    between atoms: O_8  and  C_22
    6  A    between atoms: O_8  and  C_30
    7  A    between atoms: C_17  and  C_28
    8  A    between atoms: C_17  and  O_31
    9  A    between atoms: C_18  and  C_25
   10  A    between atoms: C_22  and  O_31
   11  A    between atoms: C_25  and  C_30
   12  A    between atoms: C_27  and  C_32
                            x       y       z     vdW  Elec       q    Type
                         _______ _______ _______ _____ _____    ______ ____

>  <TORSDO>
F 12

$$$$
