=
 OpenBabel11042412273D

 26 28  0  0  1  0  0  0  0  0999 V2000
  187.7180  178.2470  144.4950 C   0  0  2  0  0  3  0  0  0  0  0  0
  185.7960  179.4300  141.5100 C   0  0  0  0  0  2  0  0  0  0  0  0
  187.1810  177.5660  143.2090 C   0  0  2  0  0  0  0  0  0  0  0  0
  187.6480  176.1230  143.1070 C   0  0  0  0  0  1  0  0  0  0  0  0
  187.7010  178.3280  141.9700 C   0  0  0  0  0  2  0  0  0  0  0  0
  185.0630  178.9060  142.7550 C   0  0  2  0  0  3  0  0  0  0  0  0
  185.6430  177.5650  143.2180 C   0  0  0  0  0  2  0  0  0  0  0  0
  186.6970  178.4780  140.9970 O   0  0  0  0  0  0  0  0  0  0  0  0
  183.6450  178.7620  142.4650 N   0  0  0  0  0  2  0  0  0  0  0  0
  182.6310  178.9600  143.4570 C   0  0  0  0  0  0  0  0  0  0  0  0
  182.9450  179.2980  144.6300 O   0  0  0  0  0  0  0  0  0  0  0  0
  180.3200  178.4300  144.0380 C   0  0  0  0  0  2  0  0  0  0  0  0
  181.2150  178.7770  143.1230 C   0  0  0  0  0  3  0  0  0  0  0  0
  189.1690  177.9980  144.8110 C   0  0  0  0  0  0  0  0  0  0  0  0
  191.5300  178.2460  144.3110 C   0  0  0  0  0  3  0  0  0  0  0  0
  191.8520  177.5080  145.4540 C   0  0  0  0  0  3  0  0  0  0  0  0
  190.1940  178.4880  143.9880 C   0  0  0  0  0  3  0  0  0  0  0  0
  189.4950  177.2590  145.9540 C   0  0  0  0  0  3  0  0  0  0  0  0
  190.8350  177.0010  146.2740 C   0  0  0  0  0  0  0  0  0  0  0  0
  192.4090  176.6970  148.0260 O   0  0  0  0  0  0  0  0  0  0  0  0
  192.4270  175.4710  147.3400 C   0  0  0  0  0  2  0  0  0  0  0  0
  191.1750  176.2440  147.5180 C   0  0  2  0  0  3  0  0  0  0  0  0
  186.8280  178.1670  145.7090 C   0  0  0  0  0  0  0  0  0  0  0  0
  186.7020  176.8510  146.4000 C   0  0  0  0  0  1  0  0  0  0  0  0
  186.1520  179.2360  146.1380 C   0  0  0  0  0  3  0  0  0  0  0  0
  185.2970  179.1760  147.2760 N   0  0  0  0  0  1  0  0  0  0  0  0
  1 14  1  0  0  0  0
  1 23  1  1  0  0  0
  2  6  1  0  0  0  0
  3  4  1  6  0  0  0
  3  7  1  0  0  0  0
  3  1  1  0  0  0  0
  5  3  1  0  0  0  0
  6  9  1  6  0  0  0
  6  7  1  0  0  0  0
  8  2  1  0  0  0  0
  8  5  1  0  0  0  0
  9 10  1  0  0  0  0
 10 11  2  0  0  0  0
 13 10  1  0  0  0  0
 13 12  2  0  0  0  0
 14 18  1  0  0  0  0
 15 16  2  0  0  0  0
 16 19  1  0  0  0  0
 17 15  1  0  0  0  0
 17 14  2  0  0  0  0
 18 19  2  0  0  0  0
 21 22  1  0  0  0  0
 21 20  1  0  0  0  0
 22 19  1  6  0  0  0
 22 20  1  0  0  0  0
 23 25  2  0  0  0  0
 23 24  1  0  0  0  0
 25 26  1  0  0  0  0
M  END
>  <MODEL>
1

>  <REMARK>
 VINA RESULT:      -7.5      0.000      0.000
  Name = 
  6 active torsions:
  status: ('A' for Active; 'I' for Inactive)
    1  A    between atoms: C_4  and  C_25
    2  A    between atoms: C_5  and  C_25
    3  A    between atoms: C_6  and  C_25
    4  A    between atoms: N_10  and  C_12
    5  A    between atoms: C_15  and  C_18
    6  A    between atoms: C_22  and  C_24
                            x       y       z     vdW  Elec       q    Type
                         _______ _______ _______ _____ _____    ______ ____

>  <TORSDO>
F 6

$$$$
=
 OpenBabel11042412273D

 26 28  0  0  1  0  0  0  0  0999 V2000
  189.6640  176.9300  143.4530 C   0  0  2  0  0  3  0  0  0  0  0  0
  189.2970  177.4120  139.7610 C   0  0  0  0  0  2  0  0  0  0  0  0
  189.9710  178.0920  142.4740 C   0  0  2  0  0  0  0  0  0  0  0  0
  190.4140  179.3430  143.2160 C   0  0  0  0  0  1  0  0  0  0  0  0
  188.6980  178.4360  141.6710 C   0  0  0  0  0  2  0  0  0  0  0  0
  190.5940  176.8330  140.3490 C   0  0  2  0  0  3  0  0  0  0  0  0
  191.1040  177.6870  141.5160 C   0  0  0  0  0  2  0  0  0  0  0  0
  188.9890  178.6690  140.3150 O   0  0  0  0  0  0  0  0  0  0  0  0
  191.6090  176.7500  139.3110 N   0  0  0  0  0  2  0  0  0  0  0  0
  191.6140  175.7170  138.3190 C   0  0  0  0  0  0  0  0  0  0  0  0
  190.7030  174.8470  138.3010 O   0  0  0  0  0  0  0  0  0  0  0  0
  193.7970  174.9820  137.5100 C   0  0  0  0  0  2  0  0  0  0  0  0
  192.6750  175.6590  137.3090 C   0  0  0  0  0  3  0  0  0  0  0  0
  188.5250  177.1630  144.4100 C   0  0  0  0  0  0  0  0  0  0  0  0
  186.1780  177.5760  144.8660 C   0  0  0  0  0  3  0  0  0  0  0  0
  186.4430  177.5840  146.2380 C   0  0  0  0  0  3  0  0  0  0  0  0
  187.2140  177.3690  143.9540 C   0  0  0  0  0  3  0  0  0  0  0  0
  188.7870  177.1720  145.7850 C   0  0  0  0  0  3  0  0  0  0  0  0
  187.7520  177.3950  146.7030 C   0  0  0  0  0  0  0  0  0  0  0  0
  187.8430  178.6500  148.7180 O   0  0  0  0  0  0  0  0  0  0  0  0
  189.1730  178.2510  148.5090 C   0  0  0  0  0  2  0  0  0  0  0  0
  188.0350  177.3650  148.1720 C   0  0  2  0  0  3  0  0  0  0  0  0
  190.8570  176.2780  144.1050 C   0  0  0  0  0  0  0  0  0  0  0  0
  191.6220  177.0670  145.1140 C   0  0  0  0  0  1  0  0  0  0  0  0
  191.2330  175.0420  143.7710 C   0  0  0  0  0  3  0  0  0  0  0  0
  192.3660  174.4140  144.3680 N   0  0  0  0  0  1  0  0  0  0  0  0
  1 23  1  1  0  0  0
  1 14  1  0  0  0  0
  2  8  1  0  0  0  0
  2  6  1  0  0  0  0
  3  4  1  1  0  0  0
  3  1  1  0  0  0  0
  5  3  1  0  0  0  0
  6  9  1  6  0  0  0
  6  7  1  0  0  0  0
  7  3  1  0  0  0  0
  8  5  1  0  0  0  0
 10  9  1  0  0  0  0
 11 10  2  0  0  0  0
 13 12  2  0  0  0  0
 13 10  1  0  0  0  0
 14 18  1  0  0  0  0
 15 16  2  0  0  0  0
 16 19  1  0  0  0  0
 17 14  2  0  0  0  0
 17 15  1  0  0  0  0
 18 19  2  0  0  0  0
 21 20  1  0  0  0  0
 22 19  1  6  0  0  0
 22 21  1  0  0  0  0
 22 20  1  0  0  0  0
 23 24  1  0  0  0  0
 25 23  2  0  0  0  0
 25 26  1  0  0  0  0
M  END
>  <MODEL>
2

>  <REMARK>
 VINA RESULT:      -7.4      4.146      6.722
  Name = 
  6 active torsions:
  status: ('A' for Active; 'I' for Inactive)
    1  A    between atoms: C_4  and  C_25
    2  A    between atoms: C_5  and  C_25
    3  A    between atoms: C_6  and  C_25
    4  A    between atoms: N_10  and  C_12
    5  A    between atoms: C_15  and  C_18
    6  A    between atoms: C_22  and  C_24
                            x       y       z     vdW  Elec       q    Type
                         _______ _______ _______ _____ _____    ______ ____

>  <TORSDO>
F 6

$$$$
=
 OpenBabel11042412273D

 26 28  0  0  1  0  0  0  0  0999 V2000
  189.7020  177.0210  143.8640 C   0  0  2  0  0  3  0  0  0  0  0  0
  189.1490  177.5370  140.1990 C   0  0  0  0  0  2  0  0  0  0  0  0
  190.0130  178.1700  142.8690 C   0  0  2  0  0  0  0  0  0  0  0  0
  190.5630  179.3920  143.5860 C   0  0  0  0  0  1  0  0  0  0  0  0
  188.7150  178.5830  142.1410 C   0  0  0  0  0  2  0  0  0  0  0  0
  190.4450  176.8880  140.7110 C   0  0  2  0  0  3  0  0  0  0  0  0
  191.0660  177.7090  141.8470 C   0  0  0  0  0  2  0  0  0  0  0  0
  188.9400  178.8060  140.7710 O   0  0  0  0  0  0  0  0  0  0  0  0
  191.3930  176.7560  139.6160 N   0  0  0  0  0  2  0  0  0  0  0  0
  191.1550  175.9070  138.4880 C   0  0  0  0  0  0  0  0  0  0  0  0
  190.0800  175.2560  138.3970 O   0  0  0  0  0  0  0  0  0  0  0  0
  193.3440  176.3620  137.5080 C   0  0  0  0  0  2  0  0  0  0  0  0
  192.1530  175.7850  137.4210 C   0  0  0  0  0  3  0  0  0  0  0  0
  188.6540  177.3200  144.9030 C   0  0  0  0  0  0  0  0  0  0  0  0
  187.9810  177.6670  147.2080 C   0  0  0  0  0  3  0  0  0  0  0  0
  186.6640  177.8860  146.7930 C   0  0  0  0  0  3  0  0  0  0  0  0
  188.9730  177.3820  146.2680 C   0  0  0  0  0  3  0  0  0  0  0  0
  187.3350  177.5390  144.4920 C   0  0  0  0  0  3  0  0  0  0  0  0
  186.3340  177.8100  145.4330 C   0  0  0  0  0  0  0  0  0  0  0  0
  184.9130  178.2600  143.5830 O   0  0  0  0  0  0  0  0  0  0  0  0
  184.8290  179.4240  144.3630 C   0  0  0  0  0  2  0  0  0  0  0  0
  184.9340  178.0810  144.9800 C   0  0  2  0  0  3  0  0  0  0  0  0
  190.8940  176.2860  144.4220 C   0  0  0  0  0  0  0  0  0  0  0  0
  191.6570  176.9290  145.5310 C   0  0  0  0  0  1  0  0  0  0  0  0
  191.2700  175.1060  143.9230 C   0  0  0  0  0  3  0  0  0  0  0  0
  192.4010  174.4020  144.4300 N   0  0  0  0  0  1  0  0  0  0  0  0
  1 23  1  1  0  0  0
  1 14  1  0  0  0  0
  2  6  1  0  0  0  0
  2  8  1  0  0  0  0
  3  4  1  1  0  0  0
  3  1  1  0  0  0  0
  5  3  1  0  0  0  0
  6  9  1  6  0  0  0
  6  7  1  0  0  0  0
  7  3  1  0  0  0  0
  8  5  1  0  0  0  0
 10  9  1  0  0  0  0
 11 10  2  0  0  0  0
 13 12  2  0  0  0  0
 13 10  1  0  0  0  0
 14 17  1  0  0  0  0
 16 15  1  0  0  0  0
 17 15  2  0  0  0  0
 18 14  2  0  0  0  0
 18 19  1  0  0  0  0
 19 16  2  0  0  0  0
 20 21  1  0  0  0  0
 20 22  1  0  0  0  0
 21 22  1  0  0  0  0
 22 19  1  6  0  0  0
 23 24  1  0  0  0  0
 25 23  2  0  0  0  0
 25 26  1  0  0  0  0
M  END
>  <MODEL>
3

>  <REMARK>
 VINA RESULT:      -7.2      3.811      6.964
  Name = 
  6 active torsions:
  status: ('A' for Active; 'I' for Inactive)
    1  A    between atoms: C_4  and  C_25
    2  A    between atoms: C_5  and  C_25
    3  A    between atoms: C_6  and  C_25
    4  A    between atoms: N_10  and  C_12
    5  A    between atoms: C_15  and  C_18
    6  A    between atoms: C_22  and  C_24
                            x       y       z     vdW  Elec       q    Type
                         _______ _______ _______ _____ _____    ______ ____

>  <TORSDO>
F 6

$$$$
=
 OpenBabel11042412273D

 26 28  0  0  1  0  0  0  0  0999 V2000
  187.0610  178.2120  144.8470 C   0  0  2  0  0  3  0  0  0  0  0  0
  188.9110  178.7140  148.0610 C   0  0  0  0  0  2  0  0  0  0  0  0
  187.0080  177.5460  146.2470 C   0  0  2  0  0  0  0  0  0  0  0  0
  185.8670  176.5460  146.3450 C   0  0  0  0  0  1  0  0  0  0  0  0
  186.7890  178.6320  147.3230 C   0  0  0  0  0  2  0  0  0  0  0  0
  189.4330  177.7280  147.0040 C   0  0  2  0  0  3  0  0  0  0  0  0
  188.3200  176.7920  146.5210 C   0  0  0  0  0  2  0  0  0  0  0  0
  187.5950  178.4090  148.4540 O   0  0  0  0  0  0  0  0  0  0  0  0
  190.5320  176.9530  147.5570 N   0  0  0  0  0  2  0  0  0  0  0  0
  191.5750  176.4040  146.7430 C   0  0  0  0  0  0  0  0  0  0  0  0
  191.5850  176.6050  145.5000 O   0  0  0  0  0  0  0  0  0  0  0  0
  192.9810  175.7290  148.6210 C   0  0  0  0  0  2  0  0  0  0  0  0
  192.6480  175.6060  147.3440 C   0  0  0  0  0  3  0  0  0  0  0  0
  185.7300  178.4770  144.1970 C   0  0  0  0  0  0  0  0  0  0  0  0
  183.4390  179.2750  144.2820 C   0  0  0  0  0  3  0  0  0  0  0  0
  183.2760  178.9560  142.9310 C   0  0  0  0  0  3  0  0  0  0  0  0
  184.6610  179.0340  144.9150 C   0  0  0  0  0  3  0  0  0  0  0  0
  185.5610  178.1590  142.8450 C   0  0  0  0  0  3  0  0  0  0  0  0
  184.3330  178.3850  142.2100 C   0  0  0  0  0  0  0  0  0  0  0  0
  185.2640  178.6070  140.0360 O   0  0  0  0  0  0  0  0  0  0  0  0
  184.0580  179.3240  139.9610 C   0  0  0  0  0  2  0  0  0  0  0  0
  184.1740  178.0780  140.7550 C   0  0  2  0  0  3  0  0  0  0  0  0
  188.0860  177.6600  143.8880 C   0  0  0  0  0  0  0  0  0  0  0  0
  187.9240  176.2520  143.4240 C   0  0  0  0  0  1  0  0  0  0  0  0
  189.1210  178.4010  143.4870 C   0  0  0  0  0  3  0  0  0  0  0  0
  190.1060  177.8920  142.5910 N   0  0  0  0  0  1  0  0  0  0  0  0
  1 23  1  6  0  0  0
  1  3  1  0  0  0  0
  2  8  1  0  0  0  0
  3  4  1  1  0  0  0
  3  7  1  0  0  0  0
  3  5  1  0  0  0  0
  5  8  1  0  0  0  0
  6  9  1  1  0  0  0
  6  2  1  0  0  0  0
  7  6  1  0  0  0  0
 10 13  1  0  0  0  0
 10  9  1  0  0  0  0
 11 10  2  0  0  0  0
 13 12  2  0  0  0  0
 14  1  1  0  0  0  0
 14 17  1  0  0  0  0
 15 17  2  0  0  0  0
 16 15  1  0  0  0  0
 18 14  2  0  0  0  0
 19 18  1  0  0  0  0
 19 16  2  0  0  0  0
 20 22  1  0  0  0  0
 21 20  1  0  0  0  0
 21 22  1  0  0  0  0
 22 19  1  1  0  0  0
 24 23  1  0  0  0  0
 25 23  2  0  0  0  0
 26 25  1  0  0  0  0
M  END
>  <MODEL>
4

>  <REMARK>
 VINA RESULT:      -7.0      2.464      7.692
  Name = 
  6 active torsions:
  status: ('A' for Active; 'I' for Inactive)
    1  A    between atoms: C_4  and  C_25
    2  A    between atoms: C_5  and  C_25
    3  A    between atoms: C_6  and  C_25
    4  A    between atoms: N_10  and  C_12
    5  A    between atoms: C_15  and  C_18
    6  A    between atoms: C_22  and  C_24
                            x       y       z     vdW  Elec       q    Type
                         _______ _______ _______ _____ _____    ______ ____

>  <TORSDO>
F 6

$$$$
=
 OpenBabel11042412273D

 26 28  0  0  1  0  0  0  0  0999 V2000
  189.2340  177.6850  143.3540 C   0  0  2  0  0  3  0  0  0  0  0  0
  191.8480  177.8780  140.6830 C   0  0  0  0  0  2  0  0  0  0  0  0
  190.1540  176.6490  142.6580 C   0  0  2  0  0  0  0  0  0  0  0  0
  190.0270  175.2750  143.2960 C   0  0  0  0  0  1  0  0  0  0  0  0
  191.6250  177.1030  142.7830 C   0  0  0  0  0  2  0  0  0  0  0  0
  190.3750  177.6350  140.3200 C   0  0  2  0  0  3  0  0  0  0  0  0
  189.7690  176.5170  141.1740 C   0  0  0  0  0  2  0  0  0  0  0  0
  192.3300  176.9070  141.5820 O   0  0  0  0  0  0  0  0  0  0  0  0
  190.2670  177.2990  138.9090 N   0  0  0  0  0  2  0  0  0  0  0  0
  189.4310  178.0280  138.0040 C   0  0  0  0  0  0  0  0  0  0  0  0
  188.7700  179.0220  138.4080 O   0  0  0  0  0  0  0  0  0  0  0  0
  189.9390  176.5500  136.1290 C   0  0  0  0  0  2  0  0  0  0  0  0
  189.3340  177.6340  136.5950 C   0  0  0  0  0  3  0  0  0  0  0  0
  189.1670  177.5980  144.8560 C   0  0  0  0  0  0  0  0  0  0  0  0
  187.9460  177.7640  146.9460 C   0  0  0  0  0  3  0  0  0  0  0  0
  189.1010  177.4140  147.6510 C   0  0  0  0  0  3  0  0  0  0  0  0
  187.9780  177.8590  145.5530 C   0  0  0  0  0  3  0  0  0  0  0  0
  190.3210  177.2480  145.5650 C   0  0  0  0  0  3  0  0  0  0  0  0
  190.2970  177.1660  146.9640 C   0  0  0  0  0  0  0  0  0  0  0  0
  192.4310  176.1300  146.8300 O   0  0  0  0  0  0  0  0  0  0  0  0
  191.6960  175.2820  147.6750 C   0  0  0  0  0  2  0  0  0  0  0  0
  191.5250  176.7530  147.7120 C   0  0  2  0  0  3  0  0  0  0  0  0
  187.8870  177.9110  142.7160 C   0  0  0  0  0  0  0  0  0  0  0  0
  186.7330  177.1070  143.2140 C   0  0  0  0  0  1  0  0  0  0  0  0
  187.7360  178.7860  141.7190 C   0  0  0  0  0  3  0  0  0  0  0  0
  186.4720  179.0030  141.0960 N   0  0  0  0  0  1  0  0  0  0  0  0
  1 23  1  6  0  0  0
  1 14  1  0  0  0  0
  2  8  1  0  0  0  0
  3  5  1  0  0  0  0
  3  4  1  1  0  0  0
  3  1  1  0  0  0  0
  6  9  1  6  0  0  0
  6  2  1  0  0  0  0
  6  7  1  0  0  0  0
  7  3  1  0  0  0  0
  8  5  1  0  0  0  0
 10 11  2  0  0  0  0
 10  9  1  0  0  0  0
 12 13  2  0  0  0  0
 13 10  1  0  0  0  0
 14 17  2  0  0  0  0
 14 18  1  0  0  0  0
 15 16  2  0  0  0  0
 17 15  1  0  0  0  0
 18 19  2  0  0  0  0
 19 16  1  0  0  0  0
 20 21  1  0  0  0  0
 20 22  1  0  0  0  0
 21 22  1  0  0  0  0
 22 19  1  6  0  0  0
 23 24  1  0  0  0  0
 25 23  2  0  0  0  0
 26 25  1  0  0  0  0
M  END
>  <MODEL>
5

>  <REMARK>
 VINA RESULT:      -6.9      3.222      5.456
  Name = 
  6 active torsions:
  status: ('A' for Active; 'I' for Inactive)
    1  A    between atoms: C_4  and  C_25
    2  A    between atoms: C_5  and  C_25
    3  A    between atoms: C_6  and  C_25
    4  A    between atoms: N_10  and  C_12
    5  A    between atoms: C_15  and  C_18
    6  A    between atoms: C_22  and  C_24
                            x       y       z     vdW  Elec       q    Type
                         _______ _______ _______ _____ _____    ______ ____

>  <TORSDO>
F 6

$$$$
=
 OpenBabel11042412273D

 26 28  0  0  1  0  0  0  0  0999 V2000
  189.3900  177.6940  143.2360 C   0  0  2  0  0  3  0  0  0  0  0  0
  191.9370  177.8600  140.5000 C   0  0  0  0  0  2  0  0  0  0  0  0
  190.2980  176.6520  142.5320 C   0  0  2  0  0  0  0  0  0  0  0  0
  190.1930  175.2870  143.1920 C   0  0  0  0  0  1  0  0  0  0  0  0
  191.7680  177.1150  142.6140 C   0  0  0  0  0  2  0  0  0  0  0  0
  190.4560  177.6060  140.1750 C   0  0  2  0  0  3  0  0  0  0  0  0
  189.8770  176.4970  141.0600 C   0  0  0  0  0  2  0  0  0  0  0  0
  192.4450  176.9050  141.3990 O   0  0  0  0  0  0  0  0  0  0  0  0
  190.3160  177.2490  138.7730 N   0  0  0  0  0  2  0  0  0  0  0  0
  189.5260  178.0160  137.8570 C   0  0  0  0  0  0  0  0  0  0  0  0
  188.9380  179.0610  138.2440 O   0  0  0  0  0  0  0  0  0  0  0  0
  188.2340  177.6680  135.8150 C   0  0  0  0  0  2  0  0  0  0  0  0
  189.3920  177.6010  136.4580 C   0  0  0  0  0  3  0  0  0  0  0  0
  189.3480  177.6170  144.7390 C   0  0  0  0  0  0  0  0  0  0  0  0
  190.4360  177.3170  146.8870 C   0  0  0  0  0  3  0  0  0  0  0  0
  189.2100  177.4920  147.5350 C   0  0  0  0  0  3  0  0  0  0  0  0
  190.5060  177.3770  145.4940 C   0  0  0  0  0  3  0  0  0  0  0  0
  188.1220  177.7910  145.3910 C   0  0  0  0  0  3  0  0  0  0  0  0
  188.0450  177.7170  146.7880 C   0  0  0  0  0  0  0  0  0  0  0  0
  185.6910  177.9110  146.5370 O   0  0  0  0  0  0  0  0  0  0  0  0
  186.0870  179.1800  146.9890 C   0  0  0  0  0  2  0  0  0  0  0  0
  186.7380  177.9420  147.4790 C   0  0  2  0  0  3  0  0  0  0  0  0
  188.0320  177.9160  142.6190 C   0  0  0  0  0  0  0  0  0  0  0  0
  186.8990  177.0730  143.0980 C   0  0  0  0  0  1  0  0  0  0  0  0
  187.8550  178.8220  141.6550 C   0  0  0  0  0  3  0  0  0  0  0  0
  186.5810  179.0370  141.0510 N   0  0  0  0  0  1  0  0  0  0  0  0
  1 23  1  6  0  0  0
  1 14  1  0  0  0  0
  2  8  1  0  0  0  0
  3  5  1  0  0  0  0
  3  4  1  1  0  0  0
  3  1  1  0  0  0  0
  6  9  1  6  0  0  0
  6  2  1  0  0  0  0
  6  7  1  0  0  0  0
  7  3  1  0  0  0  0
  8  5  1  0  0  0  0
 10 11  2  0  0  0  0
 10  9  1  0  0  0  0
 12 13  2  0  0  0  0
 13 10  1  0  0  0  0
 14 18  2  0  0  0  0
 14 17  1  0  0  0  0
 15 16  1  0  0  0  0
 17 15  2  0  0  0  0
 18 19  1  0  0  0  0
 19 16  2  0  0  0  0
 20 21  1  0  0  0  0
 20 22  1  0  0  0  0
 21 22  1  0  0  0  0
 22 19  1  6  0  0  0
 23 24  1  0  0  0  0
 25 23  2  0  0  0  0
 26 25  1  0  0  0  0
M  END
>  <MODEL>
6

>  <REMARK>
 VINA RESULT:      -6.7      3.352      5.837
  Name = 
  6 active torsions:
  status: ('A' for Active; 'I' for Inactive)
    1  A    between atoms: C_4  and  C_25
    2  A    between atoms: C_5  and  C_25
    3  A    between atoms: C_6  and  C_25
    4  A    between atoms: N_10  and  C_12
    5  A    between atoms: C_15  and  C_18
    6  A    between atoms: C_22  and  C_24
                            x       y       z     vdW  Elec       q    Type
                         _______ _______ _______ _____ _____    ______ ____

>  <TORSDO>
F 6

$$$$
=
 OpenBabel11042412273D

 26 28  0  0  1  0  0  0  0  0999 V2000
  188.5560  178.2370  143.3490 C   0  0  2  0  0  3  0  0  0  0  0  0
  188.2640  178.1360  147.0780 C   0  0  0  0  0  2  0  0  0  0  0  0
  188.0120  177.2030  144.3680 C   0  0  2  0  0  0  0  0  0  0  0  0
  187.3560  176.0240  143.6680 C   0  0  0  0  0  1  0  0  0  0  0  0
  186.9550  177.8770  145.2680 C   0  0  0  0  0  2  0  0  0  0  0  0
  189.5250  177.6060  146.3780 C   0  0  2  0  0  3  0  0  0  0  0  0
  189.1650  176.6570  145.2290 C   0  0  0  0  0  2  0  0  0  0  0  0
  187.1010  177.4940  146.6140 O   0  0  0  0  0  0  0  0  0  0  0  0
  190.3700  176.9210  147.3430 N   0  0  0  0  0  2  0  0  0  0  0  0
  191.6260  176.3310  146.9870 C   0  0  0  0  0  0  0  0  0  0  0  0
  192.0550  176.4140  145.8060 O   0  0  0  0  0  0  0  0  0  0  0  0
  193.1740  176.2800  148.8730 C   0  0  0  0  0  2  0  0  0  0  0  0
  192.4300  175.6280  147.9900 C   0  0  0  0  0  3  0  0  0  0  0  0
  187.7680  178.3790  142.0740 C   0  0  0  0  0  0  0  0  0  0  0  0
  185.7420  178.9760  140.8790 C   0  0  0  0  0  3  0  0  0  0  0  0
  186.3500  178.6280  139.6700 C   0  0  0  0  0  3  0  0  0  0  0  0
  186.4460  178.8500  142.0780 C   0  0  0  0  0  3  0  0  0  0  0  0
  188.3720  178.0310  140.8620 C   0  0  0  0  0  3  0  0  0  0  0  0
  187.6650  178.1420  139.6580 C   0  0  0  0  0  0  0  0  0  0  0  0
  189.7280  177.9460  138.4960 O   0  0  0  0  0  0  0  0  0  0  0  0
  189.0560  178.9770  137.8190 C   0  0  0  0  0  2  0  0  0  0  0  0
  188.3320  177.8030  138.3630 C   0  0  2  0  0  3  0  0  0  0  0  0
  190.0470  178.2240  143.1210 C   0  0  0  0  0  0  0  0  0  0  0  0
  190.8460  179.3680  143.6490 C   0  0  0  0  0  1  0  0  0  0  0  0
  190.6310  177.2320  142.4460 C   0  0  0  0  0  3  0  0  0  0  0  0
  192.0360  177.2090  142.2110 N   0  0  0  0  0  1  0  0  0  0  0  0
  1 23  1  6  0  0  0
  1  3  1  0  0  0  0
  3  4  1  6  0  0  0
  3  7  1  0  0  0  0
  3  5  1  0  0  0  0
  5  8  1  0  0  0  0
  6  2  1  0  0  0  0
  6  9  1  1  0  0  0
  7  6  1  0  0  0  0
  8  2  1  0  0  0  0
 10  9  1  0  0  0  0
 10 13  1  0  0  0  0
 11 10  2  0  0  0  0
 13 12  2  0  0  0  0
 14 17  1  0  0  0  0
 14  1  1  0  0  0  0
 15 17  2  0  0  0  0
 16 15  1  0  0  0  0
 18 14  2  0  0  0  0
 19 16  2  0  0  0  0
 19 18  1  0  0  0  0
 21 22  1  0  0  0  0
 21 20  1  0  0  0  0
 22 20  1  0  0  0  0
 22 19  1  1  0  0  0
 23 24  1  0  0  0  0
 25 23  2  0  0  0  0
 26 25  1  0  0  0  0
M  END
>  <MODEL>
7

>  <REMARK>
 VINA RESULT:      -6.7      3.150      7.462
  Name = 
  6 active torsions:
  status: ('A' for Active; 'I' for Inactive)
    1  A    between atoms: C_4  and  C_25
    2  A    between atoms: C_5  and  C_25
    3  A    between atoms: C_6  and  C_25
    4  A    between atoms: N_10  and  C_12
    5  A    between atoms: C_15  and  C_18
    6  A    between atoms: C_22  and  C_24
                            x       y       z     vdW  Elec       q    Type
                         _______ _______ _______ _____ _____    ______ ____

>  <TORSDO>
F 6

$$$$
=
 OpenBabel11042412273D

 26 28  0  0  1  0  0  0  0  0999 V2000
  188.6500  178.2210  143.3080 C   0  0  2  0  0  3  0  0  0  0  0  0
  188.2720  178.1390  147.0300 C   0  0  0  0  0  2  0  0  0  0  0  0
  188.0830  177.1920  144.3200 C   0  0  2  0  0  0  0  0  0  0  0  0
  187.4420  176.0100  143.6100 C   0  0  0  0  0  1  0  0  0  0  0  0
  187.0050  177.8710  145.1920 C   0  0  0  0  0  2  0  0  0  0  0  0
  189.5490  177.6050  146.3610 C   0  0  2  0  0  3  0  0  0  0  0  0
  189.2150  176.6510  145.2100 C   0  0  0  0  0  2  0  0  0  0  0  0
  187.1200  177.4950  146.5420 O   0  0  0  0  0  0  0  0  0  0  0  0
  190.3720  176.9250  147.3490 N   0  0  0  0  0  2  0  0  0  0  0  0
  191.6310  176.3260  147.0240 C   0  0  0  0  0  0  0  0  0  0  0  0
  192.0840  176.3950  145.8500 O   0  0  0  0  0  0  0  0  0  0  0  0
  193.1790  176.2820  148.9100 C   0  0  0  0  0  2  0  0  0  0  0  0
  192.4120  175.6280  148.0490 C   0  0  0  0  0  3  0  0  0  0  0  0
  187.9100  178.3330  142.0020 C   0  0  0  0  0  0  0  0  0  0  0  0
  187.8450  178.2530  139.5770 C   0  0  0  0  0  3  0  0  0  0  0  0
  186.4790  178.5470  139.6020 C   0  0  0  0  0  3  0  0  0  0  0  0
  188.5600  178.1490  140.7720 C   0  0  0  0  0  3  0  0  0  0  0  0
  186.5420  178.6280  142.0220 C   0  0  0  0  0  3  0  0  0  0  0  0
  185.8240  178.7480  140.8250 C   0  0  0  0  0  0  0  0  0  0  0  0
  183.7690  178.3510  141.9470 O   0  0  0  0  0  0  0  0  0  0  0  0
  183.5780  177.7760  140.6800 C   0  0  0  0  0  2  0  0  0  0  0  0
  184.3550  179.0250  140.8570 C   0  0  2  0  0  3  0  0  0  0  0  0
  190.1490  178.2290  143.1390 C   0  0  0  0  0  0  0  0  0  0  0  0
  190.9140  179.3700  143.7200 C   0  0  0  0  0  1  0  0  0  0  0  0
  190.7700  177.2560  142.4670 C   0  0  0  0  0  3  0  0  0  0  0  0
  192.1840  177.2530  142.2860 N   0  0  0  0  0  1  0  0  0  0  0  0
  1 23  1  6  0  0  0
  1  3  1  0  0  0  0
  3  4  1  6  0  0  0
  3  5  1  0  0  0  0
  3  7  1  0  0  0  0
  5  8  1  0  0  0  0
  6  2  1  0  0  0  0
  6  9  1  1  0  0  0
  7  6  1  0  0  0  0
  8  2  1  0  0  0  0
 10  9  1  0  0  0  0
 10 13  1  0  0  0  0
 11 10  2  0  0  0  0
 13 12  2  0  0  0  0
 14 18  1  0  0  0  0
 14  1  1  0  0  0  0
 15 16  2  0  0  0  0
 15 17  1  0  0  0  0
 16 19  1  0  0  0  0
 17 14  2  0  0  0  0
 19 18  2  0  0  0  0
 21 22  1  0  0  0  0
 21 20  1  0  0  0  0
 22 19  1  1  0  0  0
 22 20  1  0  0  0  0
 23 24  1  0  0  0  0
 25 23  2  0  0  0  0
 26 25  1  0  0  0  0
M  END
>  <MODEL>
8

>  <REMARK>
 VINA RESULT:      -6.6      2.773      7.518
  Name = 
  6 active torsions:
  status: ('A' for Active; 'I' for Inactive)
    1  A    between atoms: C_4  and  C_25
    2  A    between atoms: C_5  and  C_25
    3  A    between atoms: C_6  and  C_25
    4  A    between atoms: N_10  and  C_12
    5  A    between atoms: C_15  and  C_18
    6  A    between atoms: C_22  and  C_24
                            x       y       z     vdW  Elec       q    Type
                         _______ _______ _______ _____ _____    ______ ____

>  <TORSDO>
F 6

$$$$
=
 OpenBabel11042412273D

 26 28  0  0  1  0  0  0  0  0999 V2000
  182.7100  179.2020  139.5740 C   0  0  2  0  0  3  0  0  0  0  0  0
  180.8900  179.4110  142.8370 C   0  0  0  0  0  2  0  0  0  0  0  0
  181.9420  178.1850  140.4560 C   0  0  2  0  0  0  0  0  0  0  0  0
  181.8180  176.8340  139.7690 C   0  0  0  0  0  1  0  0  0  0  0  0
  180.5180  178.7160  140.7310 C   0  0  0  0  0  2  0  0  0  0  0  0
  182.3900  179.0810  142.7980 C   0  0  2  0  0  3  0  0  0  0  0  0
  182.6890  177.9710  141.7840 C   0  0  0  0  0  2  0  0  0  0  0  0
  180.1370  178.5040  142.0680 O   0  0  0  0  0  0  0  0  0  0  0  0
  182.8390  178.6810  144.1220 N   0  0  0  0  0  2  0  0  0  0  0  0
  184.1040  179.0790  144.6610 C   0  0  0  0  0  0  0  0  0  0  0  0
  184.8710  179.8270  143.9980 O   0  0  0  0  0  0  0  0  0  0  0  0
  185.8030  178.4940  146.3130 C   0  0  0  0  0  2  0  0  0  0  0  0
  184.5240  178.6270  145.9910 C   0  0  0  0  0  3  0  0  0  0  0  0
  181.9150  179.8400  138.4650 C   0  0  0  0  0  0  0  0  0  0  0  0
  180.7650  179.7240  136.3320 C   0  0  0  0  0  3  0  0  0  0  0  0
  180.4320  181.0780  136.4360 C   0  0  0  0  0  3  0  0  0  0  0  0
  181.5060  179.1070  137.3410 C   0  0  0  0  0  3  0  0  0  0  0  0
  181.5800  181.1950  138.5650 C   0  0  0  0  0  3  0  0  0  0  0  0
  180.8490  181.8220  137.5480 C   0  0  0  0  0  0  0  0  0  0  0  0
  180.4420  183.8670  136.4090 O   0  0  0  0  0  0  0  0  0  0  0  0
  181.5560  184.1460  137.2170 C   0  0  0  0  0  2  0  0  0  0  0  0
  180.4630  183.2610  137.6810 C   0  0  2  0  0  3  0  0  0  0  0  0
  184.0980  178.7950  139.1460 C   0  0  0  0  0  0  0  0  0  0  0  0
  184.2520  178.1140  137.8290 C   0  0  0  0  0  1  0  0  0  0  0  0
  185.1520  179.0160  139.9340 C   0  0  0  0  0  3  0  0  0  0  0  0
  186.4690  178.6280  139.5510 N   0  0  0  0  0  1  0  0  0  0  0  0
  1 23  1  6  0  0  0
  1  3  1  0  0  0  0
  3  4  1  6  0  0  0
  3  5  1  0  0  0  0
  3  7  1  0  0  0  0
  5  8  1  0  0  0  0
  6  2  1  0  0  0  0
  6  9  1  1  0  0  0
  7  6  1  0  0  0  0
  8  2  1  0  0  0  0
  9 10  1  0  0  0  0
 10 13  1  0  0  0  0
 11 10  2  0  0  0  0
 13 12  2  0  0  0  0
 14 18  1  0  0  0  0
 14  1  1  0  0  0  0
 15 16  2  0  0  0  0
 15 17  1  0  0  0  0
 16 19  1  0  0  0  0
 17 14  2  0  0  0  0
 19 18  2  0  0  0  0
 20 21  1  0  0  0  0
 20 22  1  0  0  0  0
 21 22  1  0  0  0  0
 22 19  1  6  0  0  0
 23 25  2  0  0  0  0
 24 23  1  0  0  0  0
 26 25  1  0  0  0  0
M  END
>  <MODEL>
9

>  <REMARK>
 VINA RESULT:      -6.4      4.576      9.632
  Name = 
  6 active torsions:
  status: ('A' for Active; 'I' for Inactive)
    1  A    between atoms: C_4  and  C_25
    2  A    between atoms: C_5  and  C_25
    3  A    between atoms: C_6  and  C_25
    4  A    between atoms: N_10  and  C_12
    5  A    between atoms: C_15  and  C_18
    6  A    between atoms: C_22  and  C_24
                            x       y       z     vdW  Elec       q    Type
                         _______ _______ _______ _____ _____    ______ ____

>  <TORSDO>
F 6

$$$$
