=
 OpenBabel11042411563D

 37 40  0  0  1  0  0  0  0  0999 V2000
  187.3020  178.0750  146.5730 C   0  0  0  0  0  3  0  0  0  0  0  0
  189.6860  177.1350  145.5460 C   0  0  0  0  0  0  0  0  0  0  0  0
  186.2950  178.1970  144.2460 C   0  0  0  0  0  0  0  0  0  0  0  0
  186.5310  178.2300  142.9250 C   0  0  0  0  0  3  0  0  0  0  0  0
  188.0530  178.0810  141.0850 C   0  0  0  0  0  0  0  0  0  0  0  0
  187.4230  177.8640  145.1730 C   0  0  0  0  0  0  0  0  0  0  0  0
  188.1510  178.0570  148.8570 C   0  0  0  0  0  1  0  0  0  0  0  0
  189.5030  177.3630  146.9360 C   0  0  0  0  0  0  0  0  0  0  0  0
  187.8400  177.8850  142.3560 C   0  0  0  0  0  0  0  0  0  0  0  0
  188.8410  177.1240  143.1740 C   0  0  1  0  0  3  0  0  0  0  0  0
  190.6100  177.0580  147.6260 N   0  0  0  0  0  0  0  0  0  0  0  0
  190.9690  176.6650  145.3900 C   0  0  0  0  0  3  0  0  0  0  0  0
  188.3310  177.8210  147.4360 N   0  0  0  0  0  0  0  0  0  0  0  0
  188.6560  177.3870  144.6450 C   0  0  0  0  0  0  0  0  0  0  0  0
  191.4970  176.6360  146.6870 C   0  0  0  0  0  3  0  0  0  0  0  0
  188.2570  178.2840  139.8150 C   0  0  0  0  0  3  0  0  0  0  0  0
  183.8830  178.5500  143.9060 C   0  0  0  0  0  3  0  0  0  0  0  0
  184.7120  178.8120  146.0850 O   0  0  0  0  0  1  0  0  0  0  0  0
  184.9260  178.5280  144.7410 C   0  0  0  0  0  0  0  0  0  0  0  0
  182.4940  178.8750  144.3510 C   0  0  0  0  0  2  0  0  0  0  0  0
  180.4940  178.6870  143.4520 C   0  0  0  0  0  1  0  0  0  0  0  0
  181.7300  179.2970  143.2650 O   0  0  0  0  0  0  0  0  0  0  0  0
  188.7080  175.7550  142.9220 O   0  0  0  0  0  0  0  0  0  0  0  0
  189.9730  175.3170  142.7230 N   0  0  0  0  0  1  0  0  0  0  0  0
  188.0790  177.1730  138.8440 C   0  0  0  0  0  2  0  0  0  0  0  0
  189.3520  176.9420  138.0980 C   0  0  0  0  0  0  0  0  0  0  0  0
  190.8140  176.9600  136.4690 N   0  0  0  0  0  0  0  0  0  0  0  0
  190.7730  176.0960  139.9350 O   0  0  0  0  0  1  0  0  0  0  0  0
  190.5360  176.4800  138.6220 C   0  0  0  0  0  0  0  0  0  0  0  0
  189.5590  177.2330  136.7990 N   0  0  0  0  0  0  0  0  0  0  0  0
  191.4370  176.4940  137.5720 C   0  0  0  0  0  0  0  0  0  0  0  0
  192.8510  176.0900  137.6010 C   0  0  0  0  0  0  0  0  0  0  0  0
  193.7520  176.9700  137.6390 O   0  0  0  0  0  0  0  0  0  0  0  0
  193.2470  174.6540  137.5870 C   0  0  0  0  0  1  0  0  0  0  0  0
  188.5750  177.7710  135.8670 C   0  0  0  0  0  2  0  0  0  0  0  0
  186.2890  176.8430  135.4820 C   0  0  0  0  0  1  0  0  0  0  0  0
  187.7710  176.6520  135.2260 C   0  0  0  0  0  2  0  0  0  0  0  0
  1 13  1  0  0  0  0
  2  8  1  0  0  0  0
  3 19  1  0  0  0  0
  3  6  1  0  0  0  0
  4  3  2  0  0  0  0
  5  9  2  0  0  0  0
  6  1  2  0  0  0  0
  8 13  1  0  0  0  0
  8 11  2  0  0  0  0
  9  4  1  0  0  0  0
  9 10  1  0  0  0  0
 10 23  1  1  0  0  0
 10 14  1  0  0  0  0
 12  2  1  0  0  0  0
 12 15  2  0  0  0  0
 13  7  1  0  0  0  0
 14  6  1  0  0  0  0
 14  2  2  0  0  0  0
 15 11  1  0  0  0  0
 16  5  2  0  0  0  0
 17 20  1  0  0  0  0
 17 19  2  0  0  0  0
 19 18  1  0  0  0  0
 22 21  1  0  0  0  0
 22 20  1  0  0  0  0
 24 23  1  0  0  0  0
 25 16  1  0  0  0  0
 26 29  2  0  0  0  0
 26 25  1  0  0  0  0
 27 30  1  0  0  0  0
 27 31  2  0  0  0  0
 29 28  1  0  0  0  0
 30 26  1  0  0  0  0
 31 32  1  0  0  0  0
 31 29  1  0  0  0  0
 32 33  2  0  0  0  0
 34 32  1  0  0  0  0
 35 30  1  0  0  0  0
 37 36  1  0  0  0  0
 37 35  1  0  0  0  0
M  END
>  <MODEL>
1

>  <REMARK>
 VINA RESULT:      -9.7      0.000      0.000
  Name = 
  9 active torsions:
  status: ('A' for Active; 'I' for Inactive)
    1  A    between atoms: C_3  and  C_27
    2  A    between atoms: C_4  and  C_13
    3  A    between atoms: C_4  and  C_37
    4  A    between atoms: C_5  and  N_25
    5  A    between atoms: C_5  and  C_33
    6  A    between atoms: C_6  and  C_18
    7  A    between atoms: O_7  and  C_29
    8  A    between atoms: C_12  and  C_26
    9  A    between atoms: O_21  and  C_27
                            x       y       z     vdW  Elec       q    Type
                         _______ _______ _______ _____ _____    ______ ____

>  <TORSDO>
F 9

$$$$
=
 OpenBabel11042411563D

 37 40  0  0  1  0  0  0  0  0999 V2000
  186.1070  178.5350  144.6930 C   0  0  0  0  0  3  0  0  0  0  0  0
  188.5070  177.3910  145.4370 C   0  0  0  0  0  0  0  0  0  0  0  0
  186.6800  178.2510  142.2360 C   0  0  0  0  0  0  0  0  0  0  0  0
  187.6490  178.0420  141.3300 C   0  0  0  0  0  3  0  0  0  0  0  0
  189.9290  177.5430  140.8090 C   0  0  0  0  0  0  0  0  0  0  0  0
  186.9990  178.0730  143.6890 C   0  0  0  0  0  0  0  0  0  0  0  0
  185.4440  178.9150  147.0080 C   0  0  0  0  0  1  0  0  0  0  0  0
  187.5720  177.8680  146.3930 C   0  0  0  0  0  0  0  0  0  0  0  0
  188.9890  177.5820  141.7110 C   0  0  0  0  0  0  0  0  0  0  0  0
  189.2200  176.9650  143.0600 C   0  0  1  0  0  3  0  0  0  0  0  0
  188.0170  177.6760  147.6430 N   0  0  0  0  0  0  0  0  0  0  0  0
  189.5700  176.8820  146.1450 C   0  0  0  0  0  3  0  0  0  0  0  0
  186.3940  178.4250  146.0240 N   0  0  0  0  0  0  0  0  0  0  0  0
  188.2400  177.4910  144.0740 C   0  0  0  0  0  0  0  0  0  0  0  0
  189.2280  177.0790  147.4900 C   0  0  0  0  0  3  0  0  0  0  0  0
  190.8620  177.5110  139.9010 C   0  0  0  0  0  3  0  0  0  0  0  0
  184.2210  178.1590  142.2850 C   0  0  0  0  0  3  0  0  0  0  0  0
  185.2130  179.6550  140.7730 O   0  0  0  0  0  1  0  0  0  0  0  0
  185.3320  178.6860  141.7630 C   0  0  0  0  0  0  0  0  0  0  0  0
  182.8500  178.5610  141.8460 C   0  0  0  0  0  2  0  0  0  0  0  0
  181.7400  178.7890  139.9590 C   0  0  0  0  0  1  0  0  0  0  0  0
  182.5000  177.8760  140.6840 O   0  0  0  0  0  0  0  0  0  0  0  0
  189.0990  175.5760  142.9670 O   0  0  0  0  0  0  0  0  0  0  0  0
  190.3680  175.1140  143.0420 N   0  0  0  0  0  1  0  0  0  0  0  0
  191.1570  176.2460  139.1780 C   0  0  0  0  0  2  0  0  0  0  0  0
  190.6760  176.3430  137.7690 C   0  0  0  0  0  0  0  0  0  0  0  0
  190.7050  176.3340  135.5790 N   0  0  0  0  0  0  0  0  0  0  0  0
  188.2410  176.4940  138.1600 O   0  0  0  0  0  1  0  0  0  0  0  0
  189.3680  176.4320  137.3530 C   0  0  0  0  0  0  0  0  0  0  0  0
  191.4550  176.2740  136.6720 N   0  0  0  0  0  0  0  0  0  0  0  0
  189.4170  176.4320  135.9700 C   0  0  0  0  0  0  0  0  0  0  0  0
  188.2840  176.5130  135.0350 C   0  0  0  0  0  0  0  0  0  0  0  0
  187.9180  177.6350  134.5940 O   0  0  0  0  0  0  0  0  0  0  0  0
  187.5550  175.2910  134.5940 C   0  0  0  0  0  1  0  0  0  0  0  0
  192.9070  176.1490  136.6500 C   0  0  0  0  0  2  0  0  0  0  0  0
  194.1990  174.3540  137.8100 C   0  0  0  0  0  1  0  0  0  0  0  0
  193.3230  174.6880  136.6190 C   0  0  0  0  0  2  0  0  0  0  0  0
  1 13  1  0  0  0  0
  2 12  1  0  0  0  0
  2  8  1  0  0  0  0
  3  6  1  0  0  0  0
  4  9  1  0  0  0  0
  4  3  2  0  0  0  0
  5  9  2  0  0  0  0
  6 14  1  0  0  0  0
  6  1  2  0  0  0  0
  8 11  2  0  0  0  0
  9 10  1  0  0  0  0
 10 23  1  6  0  0  0
 10 14  1  0  0  0  0
 12 15  2  0  0  0  0
 13  8  1  0  0  0  0
 13  7  1  0  0  0  0
 14  2  2  0  0  0  0
 15 11  1  0  0  0  0
 16  5  2  0  0  0  0
 18 19  1  0  0  0  0
 19  3  1  0  0  0  0
 19 17  2  0  0  0  0
 20 17  1  0  0  0  0
 21 22  1  0  0  0  0
 22 20  1  0  0  0  0
 23 24  1  0  0  0  0
 25 16  1  0  0  0  0
 26 25  1  0  0  0  0
 27 31  2  0  0  0  0
 27 30  1  0  0  0  0
 29 26  2  0  0  0  0
 29 28  1  0  0  0  0
 30 26  1  0  0  0  0
 31 29  1  0  0  0  0
 32 31  1  0  0  0  0
 33 32  2  0  0  0  0
 34 32  1  0  0  0  0
 35 30  1  0  0  0  0
 37 35  1  0  0  0  0
 37 36  1  0  0  0  0
M  END
>  <MODEL>
2

>  <REMARK>
 VINA RESULT:      -8.7      1.976      3.382
  Name = 
  9 active torsions:
  status: ('A' for Active; 'I' for Inactive)
    1  A    between atoms: C_3  and  C_27
    2  A    between atoms: C_4  and  C_13
    3  A    between atoms: C_4  and  C_37
    4  A    between atoms: C_5  and  N_25
    5  A    between atoms: C_5  and  C_33
    6  A    between atoms: C_6  and  C_18
    7  A    between atoms: O_7  and  C_29
    8  A    between atoms: C_12  and  C_26
    9  A    between atoms: O_21  and  C_27
                            x       y       z     vdW  Elec       q    Type
                         _______ _______ _______ _____ _____    ______ ____

>  <TORSDO>
F 9

$$$$
=
 OpenBabel11042411563D

 37 40  0  0  1  0  0  0  0  0999 V2000
  187.7390  177.8470  145.0410 C   0  0  0  0  0  3  0  0  0  0  0  0
  186.2270  178.0890  142.7450 C   0  0  0  0  0  0  0  0  0  0  0  0
  189.8390  177.4480  143.6710 C   0  0  0  0  0  0  0  0  0  0  0  0
  190.3480  177.1030  142.4780 C   0  0  0  0  0  3  0  0  0  0  0  0
  190.0400  176.5830  140.1640 C   0  0  0  0  0  0  0  0  0  0  0  0
  188.3750  177.7430  143.7750 C   0  0  0  0  0  0  0  0  0  0  0  0
  185.8010  178.1690  146.4840 C   0  0  0  0  0  1  0  0  0  0  0  0
  185.6510  178.1880  144.0390 C   0  0  0  0  0  0  0  0  0  0  0  0
  189.5290  177.0700  141.2600 C   0  0  0  0  0  0  0  0  0  0  0  0
  188.2070  177.7780  141.2200 C   0  0  1  0  0  3  0  0  0  0  0  0
  184.3320  178.4110  143.9660 N   0  0  0  0  0  0  0  0  0  0  0  0
  185.2040  178.2660  141.8440 C   0  0  0  0  0  3  0  0  0  0  0  0
  186.3970  178.0720  145.1630 N   0  0  0  0  0  0  0  0  0  0  0  0
  187.5910  177.8600  142.5920 C   0  0  0  0  0  0  0  0  0  0  0  0
  184.0630  178.4570  142.6350 C   0  0  0  0  0  3  0  0  0  0  0  0
  190.5570  176.0910  139.0750 C   0  0  0  0  0  3  0  0  0  0  0  0
  190.5080  176.7310  145.9290 C   0  0  0  0  0  3  0  0  0  0  0  0
  191.8660  178.3170  144.8570 O   0  0  0  0  0  1  0  0  0  0  0  0
  190.7480  177.4900  144.8560 C   0  0  0  0  0  0  0  0  0  0  0  0
  191.3860  176.7360  147.1380 C   0  0  0  0  0  2  0  0  0  0  0  0
  192.9030  175.6680  148.3230 C   0  0  0  0  0  1  0  0  0  0  0  0
  192.3040  175.6910  147.0670 O   0  0  0  0  0  0  0  0  0  0  0  0
  188.3810  179.0660  140.7060 O   0  0  0  0  0  0  0  0  0  0  0  0
  188.1910  178.9340  139.3730 N   0  0  0  0  0  1  0  0  0  0  0  0
  191.1660  176.9940  138.0640 C   0  0  0  0  0  2  0  0  0  0  0  0
  192.2340  176.2700  137.3140 C   0  0  0  0  0  0  0  0  0  0  0  0
  193.2760  175.2700  135.6680 N   0  0  0  0  0  0  0  0  0  0  0  0
  194.0600  176.3650  138.9760 O   0  0  0  0  0  1  0  0  0  0  0  0
  193.5170  176.0250  137.7450 C   0  0  0  0  0  0  0  0  0  0  0  0
  192.1270  175.8110  136.0520 N   0  0  0  0  0  0  0  0  0  0  0  0
  194.1480  175.3880  136.6910 C   0  0  0  0  0  0  0  0  0  0  0  0
  195.5370  174.9080  136.6390 C   0  0  0  0  0  0  0  0  0  0  0  0
  196.4450  175.6690  136.2100 O   0  0  0  0  0  0  0  0  0  0  0  0
  195.8990  173.5340  137.0850 C   0  0  0  0  0  1  0  0  0  0  0  0
  190.9430  175.8820  135.2040 C   0  0  0  0  0  2  0  0  0  0  0  0
  189.0530  174.5000  136.0700 C   0  0  0  0  0  1  0  0  0  0  0  0
  190.2460  174.5340  135.1360 C   0  0  0  0  0  2  0  0  0  0  0  0
  1 13  1  0  0  0  0
  2  8  1  0  0  0  0
  3  6  1  0  0  0  0
  3 19  1  0  0  0  0
  4  3  2  0  0  0  0
  5  9  2  0  0  0  0
  6  1  2  0  0  0  0
  8 13  1  0  0  0  0
  9  4  1  0  0  0  0
 10 23  1  1  0  0  0
 10  9  1  0  0  0  0
 10 14  1  0  0  0  0
 11  8  2  0  0  0  0
 12 15  2  0  0  0  0
 12  2  1  0  0  0  0
 13  7  1  0  0  0  0
 14  2  2  0  0  0  0
 14  6  1  0  0  0  0
 15 11  1  0  0  0  0
 16  5  2  0  0  0  0
 17 20  1  0  0  0  0
 19 18  1  0  0  0  0
 19 17  2  0  0  0  0
 22 20  1  0  0  0  0
 22 21  1  0  0  0  0
 24 23  1  0  0  0  0
 25 16  1  0  0  0  0
 26 29  2  0  0  0  0
 26 25  1  0  0  0  0
 27 30  1  0  0  0  0
 27 31  2  0  0  0  0
 29 28  1  0  0  0  0
 30 26  1  0  0  0  0
 31 29  1  0  0  0  0
 32 31  1  0  0  0  0
 32 34  1  0  0  0  0
 33 32  2  0  0  0  0
 35 30  1  0  0  0  0
 37 35  1  0  0  0  0
 37 36  1  0  0  0  0
M  END
>  <MODEL>
3

>  <REMARK>
 VINA RESULT:      -8.5      2.765      5.308
  Name = 
  9 active torsions:
  status: ('A' for Active; 'I' for Inactive)
    1  A    between atoms: C_3  and  C_27
    2  A    between atoms: C_4  and  C_13
    3  A    between atoms: C_4  and  C_37
    4  A    between atoms: C_5  and  N_25
    5  A    between atoms: C_5  and  C_33
    6  A    between atoms: C_6  and  C_18
    7  A    between atoms: O_7  and  C_29
    8  A    between atoms: C_12  and  C_26
    9  A    between atoms: O_21  and  C_27
                            x       y       z     vdW  Elec       q    Type
                         _______ _______ _______ _____ _____    ______ ____

>  <TORSDO>
F 9

$$$$
=
 OpenBabel11042411563D

 37 40  0  0  1  0  0  0  0  0999 V2000
  187.3080  178.0150  146.6690 C   0  0  0  0  0  3  0  0  0  0  0  0
  189.7360  177.1950  145.6440 C   0  0  0  0  0  0  0  0  0  0  0  0
  186.3290  178.1910  144.3330 C   0  0  0  0  0  0  0  0  0  0  0  0
  186.5820  178.2820  143.0180 C   0  0  0  0  0  3  0  0  0  0  0  0
  188.1320  178.2540  141.1970 C   0  0  0  0  0  0  0  0  0  0  0  0
  187.4540  177.8610  145.2640 C   0  0  0  0  0  0  0  0  0  0  0  0
  188.1260  177.9380  148.9640 C   0  0  0  0  0  1  0  0  0  0  0  0
  189.5260  177.3640  147.0380 C   0  0  0  0  0  0  0  0  0  0  0  0
  187.9090  178.0030  142.4570 C   0  0  0  0  0  0  0  0  0  0  0  0
  188.9240  177.2450  143.2600 C   0  0  1  0  0  3  0  0  0  0  0  0
  190.6340  177.0700  147.7330 N   0  0  0  0  0  0  0  0  0  0  0  0
  191.0360  176.7750  145.4890 C   0  0  0  0  0  3  0  0  0  0  0  0
  188.3320  177.7630  147.5370 N   0  0  0  0  0  0  0  0  0  0  0  0
  188.7100  177.4460  144.7370 C   0  0  0  0  0  0  0  0  0  0  0  0
  191.5480  176.7150  146.7920 C   0  0  0  0  0  3  0  0  0  0  0  0
  188.3470  178.5120  139.9390 C   0  0  0  0  0  3  0  0  0  0  0  0
  183.9280  178.5850  143.9590 C   0  0  0  0  0  3  0  0  0  0  0  0
  184.6830  178.5670  146.1810 O   0  0  0  0  0  1  0  0  0  0  0  0
  184.9420  178.4570  144.8200 C   0  0  0  0  0  0  0  0  0  0  0  0
  182.5240  178.8500  144.3950 C   0  0  0  0  0  2  0  0  0  0  0  0
  180.5070  178.6160  143.5460 C   0  0  0  0  0  1  0  0  0  0  0  0
  181.7420  179.2070  143.2990 O   0  0  0  0  0  0  0  0  0  0  0  0
  188.8420  175.8840  142.9550 O   0  0  0  0  0  0  0  0  0  0  0  0
  190.0800  175.5520  142.5220 N   0  0  0  0  0  1  0  0  0  0  0  0
  188.2210  177.4330  138.9240 C   0  0  0  0  0  2  0  0  0  0  0  0
  186.8970  177.5300  138.2420 C   0  0  0  0  0  0  0  0  0  0  0  0
  185.3070  177.1860  136.7760 N   0  0  0  0  0  0  0  0  0  0  0  0
  185.6470  178.8380  139.9250 O   0  0  0  0  0  1  0  0  0  0  0  0
  185.7680  178.1480  138.7270 C   0  0  0  0  0  0  0  0  0  0  0  0
  186.5800  176.9500  137.0680 N   0  0  0  0  0  0  0  0  0  0  0  0
  184.7850  177.9210  137.7800 C   0  0  0  0  0  0  0  0  0  0  0  0
  183.3860  178.3740  137.8170 C   0  0  0  0  0  0  0  0  0  0  0  0
  183.1170  179.5400  138.2100 O   0  0  0  0  0  0  0  0  0  0  0  0
  182.2710  177.4790  137.3970 C   0  0  0  0  0  1  0  0  0  0  0  0
  187.4740  176.1710  136.2200 C   0  0  0  0  0  2  0  0  0  0  0  0
  186.7040  173.9620  137.0920 C   0  0  0  0  0  1  0  0  0  0  0  0
  186.8480  174.8340  135.8610 C   0  0  0  0  0  2  0  0  0  0  0  0
  1 13  1  0  0  0  0
  2  8  1  0  0  0  0
  3 19  1  0  0  0  0
  3  6  1  0  0  0  0
  4  3  2  0  0  0  0
  5  9  2  0  0  0  0
  6  1  2  0  0  0  0
  8 13  1  0  0  0  0
  8 11  2  0  0  0  0
  9  4  1  0  0  0  0
  9 10  1  0  0  0  0
 10 23  1  1  0  0  0
 10 14  1  0  0  0  0
 12  2  1  0  0  0  0
 12 15  2  0  0  0  0
 13  7  1  0  0  0  0
 14  6  1  0  0  0  0
 14  2  2  0  0  0  0
 15 11  1  0  0  0  0
 16  5  2  0  0  0  0
 17 20  1  0  0  0  0
 17 19  2  0  0  0  0
 19 18  1  0  0  0  0
 22 21  1  0  0  0  0
 22 20  1  0  0  0  0
 24 23  1  0  0  0  0
 25 16  1  0  0  0  0
 26 29  2  0  0  0  0
 26 25  1  0  0  0  0
 27 30  1  0  0  0  0
 27 31  2  0  0  0  0
 29 28  1  0  0  0  0
 30 26  1  0  0  0  0
 31 32  1  0  0  0  0
 31 29  1  0  0  0  0
 32 33  2  0  0  0  0
 34 32  1  0  0  0  0
 35 30  1  0  0  0  0
 37 35  1  0  0  0  0
 37 36  1  0  0  0  0
M  END
>  <MODEL>
4

>  <REMARK>
 VINA RESULT:      -8.4      2.227      3.731
  Name = 
  9 active torsions:
  status: ('A' for Active; 'I' for Inactive)
    1  A    between atoms: C_3  and  C_27
    2  A    between atoms: C_4  and  C_13
    3  A    between atoms: C_4  and  C_37
    4  A    between atoms: C_5  and  N_25
    5  A    between atoms: C_5  and  C_33
    6  A    between atoms: C_6  and  C_18
    7  A    between atoms: O_7  and  C_29
    8  A    between atoms: C_12  and  C_26
    9  A    between atoms: O_21  and  C_27
                            x       y       z     vdW  Elec       q    Type
                         _______ _______ _______ _____ _____    ______ ____

>  <TORSDO>
F 9

$$$$
=
 OpenBabel11042411563D

 37 40  0  0  1  0  0  0  0  0999 V2000
  185.8120  178.2720  144.9360 C   0  0  0  0  0  3  0  0  0  0  0  0
  188.5090  177.6840  144.9870 C   0  0  0  0  0  0  0  0  0  0  0  0
  185.8070  178.2440  142.3970 C   0  0  0  0  0  0  0  0  0  0  0  0
  186.5430  178.3090  141.2770 C   0  0  0  0  0  3  0  0  0  0  0  0
  188.6750  178.3770  140.1960 C   0  0  0  0  0  0  0  0  0  0  0  0
  186.5060  178.0780  143.7120 C   0  0  0  0  0  0  0  0  0  0  0  0
  185.6770  178.3800  147.3670 C   0  0  0  0  0  1  0  0  0  0  0  0
  187.7600  177.8850  146.1760 C   0  0  0  0  0  0  0  0  0  0  0  0
  188.0020  178.1550  141.2900 C   0  0  0  0  0  0  0  0  0  0  0  0
  188.6860  177.5470  142.4790 C   0  0  1  0  0  3  0  0  0  0  0  0
  188.5310  177.7440  147.2640 N   0  0  0  0  0  0  0  0  0  0  0  0
  189.7970  177.4030  145.3760 C   0  0  0  0  0  3  0  0  0  0  0  0
  186.4360  178.1700  146.1470 N   0  0  0  0  0  0  0  0  0  0  0  0
  187.8990  177.7830  143.7400 C   0  0  0  0  0  0  0  0  0  0  0  0
  189.7650  177.4530  146.7760 C   0  0  0  0  0  3  0  0  0  0  0  0
  189.3390  178.6050  139.0990 C   0  0  0  0  0  3  0  0  0  0  0  0
  183.6340  179.0800  143.1950 C   0  0  0  0  0  3  0  0  0  0  0  0
  183.6340  177.7710  141.2480 O   0  0  0  0  0  1  0  0  0  0  0  0
  184.3230  178.3750  142.2940 C   0  0  0  0  0  0  0  0  0  0  0  0
  182.1500  179.2430  143.1350 C   0  0  0  0  0  2  0  0  0  0  0  0
  180.1820  178.5890  143.8750 C   0  0  0  0  0  1  0  0  0  0  0  0
  181.5450  178.4860  144.1370 O   0  0  0  0  0  0  0  0  0  0  0  0
  188.8460  176.1730  142.2750 O   0  0  0  0  0  0  0  0  0  0  0  0
  190.1850  175.9880  142.2130 N   0  0  0  0  0  1  0  0  0  0  0  0
  189.7100  177.4790  138.2030 C   0  0  0  0  0  2  0  0  0  0  0  0
  188.4930  176.9530  137.5180 C   0  0  0  0  0  0  0  0  0  0  0  0
  187.0760  175.5290  136.6480 N   0  0  0  0  0  0  0  0  0  0  0  0
  187.1500  179.0220  137.3890 O   0  0  0  0  0  1  0  0  0  0  0  0
  187.3650  177.6660  137.1890 C   0  0  0  0  0  0  0  0  0  0  0  0
  188.2800  175.6640  137.1880 N   0  0  0  0  0  0  0  0  0  0  0  0
  186.4920  176.7460  136.6360 C   0  0  0  0  0  0  0  0  0  0  0  0
  185.1390  176.9970  136.1160 C   0  0  0  0  0  0  0  0  0  0  0  0
  184.9540  177.0900  134.8740 O   0  0  0  0  0  0  0  0  0  0  0  0
  183.9720  177.1430  137.0320 C   0  0  0  0  0  1  0  0  0  0  0  0
  189.2080  174.5570  137.3820 C   0  0  0  0  0  2  0  0  0  0  0  0
  191.6590  174.2040  137.0620 C   0  0  0  0  0  1  0  0  0  0  0  0
  190.3680  174.6480  136.4040 C   0  0  0  0  0  2  0  0  0  0  0  0
  1 13  1  0  0  0  0
  2 12  1  0  0  0  0
  2  8  1  0  0  0  0
  3  6  1  0  0  0  0
  4  9  1  0  0  0  0
  4  3  2  0  0  0  0
  5  9  2  0  0  0  0
  6 14  1  0  0  0  0
  6  1  2  0  0  0  0
  8 11  2  0  0  0  0
  9 10  1  0  0  0  0
 10 23  1  6  0  0  0
 10 14  1  0  0  0  0
 12 15  2  0  0  0  0
 13  8  1  0  0  0  0
 13  7  1  0  0  0  0
 14  2  2  0  0  0  0
 15 11  1  0  0  0  0
 16  5  2  0  0  0  0
 18 19  1  0  0  0  0
 19  3  1  0  0  0  0
 19 17  2  0  0  0  0
 20 17  1  0  0  0  0
 20 22  1  0  0  0  0
 21 22  1  0  0  0  0
 24 23  1  0  0  0  0
 25 16  1  0  0  0  0
 26 25  1  0  0  0  0
 27 30  1  0  0  0  0
 29 28  1  0  0  0  0
 29 26  2  0  0  0  0
 30 35  1  0  0  0  0
 30 26  1  0  0  0  0
 31 27  2  0  0  0  0
 31 29  1  0  0  0  0
 32 31  1  0  0  0  0
 32 34  1  0  0  0  0
 33 32  2  0  0  0  0
 37 36  1  0  0  0  0
 37 35  1  0  0  0  0
M  END
>  <MODEL>
5

>  <REMARK>
 VINA RESULT:      -8.1      2.141      3.617
  Name = 
  9 active torsions:
  status: ('A' for Active; 'I' for Inactive)
    1  A    between atoms: C_3  and  C_27
    2  A    between atoms: C_4  and  C_13
    3  A    between atoms: C_4  and  C_37
    4  A    between atoms: C_5  and  N_25
    5  A    between atoms: C_5  and  C_33
    6  A    between atoms: C_6  and  C_18
    7  A    between atoms: O_7  and  C_29
    8  A    between atoms: C_12  and  C_26
    9  A    between atoms: O_21  and  C_27
                            x       y       z     vdW  Elec       q    Type
                         _______ _______ _______ _____ _____    ______ ____

>  <TORSDO>
F 9

$$$$
=
 OpenBabel11042411563D

 37 40  0  0  1  0  0  0  0  0999 V2000
  182.1970  178.6440  143.9410 C   0  0  0  0  0  3  0  0  0  0  0  0
  182.0750  178.6380  141.1840 C   0  0  0  0  0  0  0  0  0  0  0  0
  184.7350  178.6330  143.8750 C   0  0  0  0  0  0  0  0  0  0  0  0
  185.8340  178.3930  143.1420 C   0  0  0  0  0  3  0  0  0  0  0  0
  186.8520  177.8490  141.0470 C   0  0  0  0  0  0  0  0  0  0  0  0
  183.4030  178.6640  143.1910 C   0  0  0  0  0  0  0  0  0  0  0  0
  179.7700  178.6060  144.1590 C   0  0  0  0  0  1  0  0  0  0  0  0
  180.9060  178.6220  141.9890 C   0  0  0  0  0  0  0  0  0  0  0  0
  185.7800  178.2290  141.6840 C   0  0  0  0  0  0  0  0  0  0  0  0
  184.5780  178.6940  140.9160 C   0  0  1  0  0  3  0  0  0  0  0  0
  179.7980  178.6100  141.2340 N   0  0  0  0  0  0  0  0  0  0  0  0
  181.6520  178.6400  139.8750 C   0  0  0  0  0  3  0  0  0  0  0  0
  180.9700  178.6280  143.3420 N   0  0  0  0  0  0  0  0  0  0  0  0
  183.3380  178.6530  141.7680 C   0  0  0  0  0  0  0  0  0  0  0  0
  180.2530  178.6210  139.9540 C   0  0  0  0  0  3  0  0  0  0  0  0
  187.9270  177.4660  140.4200 C   0  0  0  0  0  3  0  0  0  0  0  0
  186.0870  178.8310  145.9220 C   0  0  0  0  0  3  0  0  0  0  0  0
  183.7570  179.0030  146.1490 O   0  0  0  0  0  1  0  0  0  0  0  0
  184.8800  178.8230  145.3490 C   0  0  0  0  0  0  0  0  0  0  0  0
  186.2850  179.0180  147.3910 C   0  0  0  0  0  2  0  0  0  0  0  0
  187.8760  177.6710  146.6860 C   0  0  0  0  0  1  0  0  0  0  0  0
  187.3060  178.1860  147.8460 O   0  0  0  0  0  0  0  0  0  0  0  0
  184.7900  179.9970  140.4580 O   0  0  0  0  0  0  0  0  0  0  0  0
  184.6230  179.9230  139.1180 N   0  0  0  0  0  1  0  0  0  0  0  0
  188.8230  178.4710  139.7910 C   0  0  0  0  0  2  0  0  0  0  0  0
  189.7460  177.7980  138.8310 C   0  0  0  0  0  0  0  0  0  0  0  0
  190.5960  177.1060  136.9350 N   0  0  0  0  0  0  0  0  0  0  0  0
  191.5570  177.1340  140.3750 O   0  0  0  0  0  1  0  0  0  0  0  0
  190.9640  177.2310  139.1240 C   0  0  0  0  0  0  0  0  0  0  0  0
  189.5610  177.7160  137.4990 N   0  0  0  0  0  0  0  0  0  0  0  0
  191.4730  176.7980  137.9130 C   0  0  0  0  0  0  0  0  0  0  0  0
  192.7550  176.1170  137.6740 C   0  0  0  0  0  0  0  0  0  0  0  0
  193.8070  176.7960  137.5350 O   0  0  0  0  0  0  0  0  0  0  0  0
  192.8400  174.6320  137.5930 C   0  0  0  0  0  1  0  0  0  0  0  0
  188.4100  178.2120  136.7540 C   0  0  0  0  0  2  0  0  0  0  0  0
  186.8250  176.3120  137.0850 C   0  0  0  0  0  1  0  0  0  0  0  0
  187.6700  177.0690  136.0800 C   0  0  0  0  0  2  0  0  0  0  0  0
  2 14  2  0  0  0  0
  2  8  1  0  0  0  0
  3 19  1  0  0  0  0
  4  3  2  0  0  0  0
  5  9  2  0  0  0  0
  6  3  1  0  0  0  0
  6  1  2  0  0  0  0
  8 13  1  0  0  0  0
  9  4  1  0  0  0  0
 10 23  1  1  0  0  0
 10  9  1  0  0  0  0
 10 14  1  0  0  0  0
 11  8  2  0  0  0  0
 12 15  2  0  0  0  0
 12  2  1  0  0  0  0
 13  1  1  0  0  0  0
 13  7  1  0  0  0  0
 14  6  1  0  0  0  0
 15 11  1  0  0  0  0
 16  5  2  0  0  0  0
 17 20  1  0  0  0  0
 19 17  2  0  0  0  0
 19 18  1  0  0  0  0
 20 22  1  0  0  0  0
 21 22  1  0  0  0  0
 24 23  1  0  0  0  0
 25 16  1  0  0  0  0
 26 29  2  0  0  0  0
 26 25  1  0  0  0  0
 27 30  1  0  0  0  0
 27 31  2  0  0  0  0
 29 28  1  0  0  0  0
 30 26  1  0  0  0  0
 31 29  1  0  0  0  0
 32 31  1  0  0  0  0
 33 32  2  0  0  0  0
 34 32  1  0  0  0  0
 35 30  1  0  0  0  0
 37 35  1  0  0  0  0
 37 36  1  0  0  0  0
M  END
>  <MODEL>
6

>  <REMARK>
 VINA RESULT:      -8.1      2.958      5.692
  Name = 
  9 active torsions:
  status: ('A' for Active; 'I' for Inactive)
    1  A    between atoms: C_3  and  C_27
    2  A    between atoms: C_4  and  C_13
    3  A    between atoms: C_4  and  C_37
    4  A    between atoms: C_5  and  N_25
    5  A    between atoms: C_5  and  C_33
    6  A    between atoms: C_6  and  C_18
    7  A    between atoms: O_7  and  C_29
    8  A    between atoms: C_12  and  C_26
    9  A    between atoms: O_21  and  C_27
                            x       y       z     vdW  Elec       q    Type
                         _______ _______ _______ _____ _____    ______ ____

>  <TORSDO>
F 9

$$$$
=
 OpenBabel11042411563D

 37 40  0  0  1  0  0  0  0  0999 V2000
  189.8530  177.2490  144.3690 C   0  0  0  0  0  3  0  0  0  0  0  0
  187.8330  177.6230  146.2130 C   0  0  0  0  0  0  0  0  0  0  0  0
  188.2700  177.7870  142.4580 C   0  0  0  0  0  0  0  0  0  0  0  0
  186.9930  177.8970  142.0610 C   0  0  0  0  0  3  0  0  0  0  0  0
  184.6560  177.8960  142.5680 C   0  0  0  0  0  0  0  0  0  0  0  0
  188.5620  177.6350  143.9200 C   0  0  0  0  0  0  0  0  0  0  0  0
  191.4710  176.6640  146.0950 C   0  0  0  0  0  1  0  0  0  0  0  0
  189.1450  177.2400  146.6010 C   0  0  0  0  0  0  0  0  0  0  0  0
  185.8790  177.9420  143.0160 C   0  0  0  0  0  0  0  0  0  0  0  0
  186.1360  178.2480  144.4620 C   0  0  1  0  0  3  0  0  0  0  0  0
  189.2370  177.1040  147.9310 N   0  0  0  0  0  0  0  0  0  0  0  0
  187.0960  177.7270  147.3690 C   0  0  0  0  0  3  0  0  0  0  0  0
  190.1340  177.0600  145.6930 N   0  0  0  0  0  0  0  0  0  0  0  0
  187.5200  177.8200  144.8720 C   0  0  0  0  0  0  0  0  0  0  0  0
  187.9940  177.4000  148.3940 C   0  0  0  0  0  3  0  0  0  0  0  0
  183.4370  177.8470  142.1110 C   0  0  0  0  0  3  0  0  0  0  0  0
  189.0480  177.7540  140.1240 C   0  0  0  0  0  3  0  0  0  0  0  0
  190.6860  177.8230  141.8030 O   0  0  0  0  0  1  0  0  0  0  0  0
  189.3480  177.7850  141.4250 C   0  0  0  0  0  0  0  0  0  0  0  0
  190.0890  177.7500  139.0510 C   0  0  0  0  0  2  0  0  0  0  0  0
  189.0650  178.8080  137.4140 C   0  0  0  0  0  1  0  0  0  0  0  0
  189.4940  177.5440  137.8080 O   0  0  0  0  0  0  0  0  0  0  0  0
  185.9840  179.6200  144.6840 O   0  0  0  0  0  0  0  0  0  0  0  0
  184.8800  179.7230  145.4580 N   0  0  0  0  0  1  0  0  0  0  0  0
  182.6700  179.1020  141.8940 C   0  0  0  0  0  2  0  0  0  0  0  0
  181.9200  179.0220  140.6060 C   0  0  0  0  0  0  0  0  0  0  0  0
  180.2850  178.6560  139.1970 N   0  0  0  0  0  0  0  0  0  0  0  0
  183.5320  180.1410  139.1050 O   0  0  0  0  0  1  0  0  0  0  0  0
  182.3270  179.5120  139.3880 C   0  0  0  0  0  0  0  0  0  0  0  0
  180.6780  178.5220  140.4560 N   0  0  0  0  0  0  0  0  0  0  0  0
  181.2810  179.2620  138.5180 C   0  0  0  0  0  0  0  0  0  0  0  0
  181.2110  179.5890  137.0850 C   0  0  0  0  0  0  0  0  0  0  0  0
  181.5680  178.7350  136.2310 O   0  0  0  0  0  0  0  0  0  0  0  0
  180.7240  180.9170  136.6180 C   0  0  0  0  0  1  0  0  0  0  0  0
  179.8580  177.9190  141.5000 C   0  0  0  0  0  2  0  0  0  0  0  0
  179.4410  178.8880  143.7640 C   0  0  0  0  0  1  0  0  0  0  0  0
  179.1150  178.9860  142.2870 C   0  0  0  0  0  2  0  0  0  0  0  0
  1 13  1  0  0  0  0
  2  8  1  0  0  0  0
  2 12  1  0  0  0  0
  3  6  1  0  0  0  0
  4  3  2  0  0  0  0
  4  9  1  0  0  0  0
  5  9  2  0  0  0  0
  6  1  2  0  0  0  0
  6 14  1  0  0  0  0
  8 11  2  0  0  0  0
  9 10  1  0  0  0  0
 10 23  1  6  0  0  0
 10 14  1  0  0  0  0
 11 15  1  0  0  0  0
 12 15  2  0  0  0  0
 13  7  1  0  0  0  0
 13  8  1  0  0  0  0
 14  2  2  0  0  0  0
 16  5  2  0  0  0  0
 17 19  2  0  0  0  0
 19 18  1  0  0  0  0
 19  3  1  0  0  0  0
 20 17  1  0  0  0  0
 21 22  1  0  0  0  0
 22 20  1  0  0  0  0
 23 24  1  0  0  0  0
 25 16  1  0  0  0  0
 26 25  1  0  0  0  0
 27 30  1  0  0  0  0
 28 29  1  0  0  0  0
 29 26  2  0  0  0  0
 30 26  1  0  0  0  0
 30 35  1  0  0  0  0
 31 27  2  0  0  0  0
 31 29  1  0  0  0  0
 32 31  1  0  0  0  0
 33 32  2  0  0  0  0
 34 32  1  0  0  0  0
 35 37  1  0  0  0  0
 37 36  1  0  0  0  0
M  END
>  <MODEL>
7

>  <REMARK>
 VINA RESULT:      -8.0      3.604      7.507
  Name = 
  9 active torsions:
  status: ('A' for Active; 'I' for Inactive)
    1  A    between atoms: C_3  and  C_27
    2  A    between atoms: C_4  and  C_13
    3  A    between atoms: C_4  and  C_37
    4  A    between atoms: C_5  and  N_25
    5  A    between atoms: C_5  and  C_33
    6  A    between atoms: C_6  and  C_18
    7  A    between atoms: O_7  and  C_29
    8  A    between atoms: C_12  and  C_26
    9  A    between atoms: O_21  and  C_27
                            x       y       z     vdW  Elec       q    Type
                         _______ _______ _______ _____ _____    ______ ____

>  <TORSDO>
F 9

$$$$
=
 OpenBabel11042411563D

 37 40  0  0  1  0  0  0  0  0999 V2000
  186.8650  178.6250  142.7140 C   0  0  0  0  0  3  0  0  0  0  0  0
  186.0840  178.6270  140.0670 C   0  0  0  0  0  0  0  0  0  0  0  0
  189.1860  177.8200  142.0760 C   0  0  0  0  0  0  0  0  0  0  0  0
  189.9510  177.2410  141.1370 C   0  0  0  0  0  3  0  0  0  0  0  0
  190.2200  176.3820  138.9210 C   0  0  0  0  0  0  0  0  0  0  0  0
  187.8020  178.2590  141.7110 C   0  0  0  0  0  0  0  0  0  0  0  0
  184.6670  179.3510  143.4780 C   0  0  0  0  0  1  0  0  0  0  0  0
  185.1950  178.9860  141.1140 C   0  0  0  0  0  0  0  0  0  0  0  0
  189.4990  177.0860  139.7490 C   0  0  0  0  0  0  0  0  0  0  0  0
  188.3450  177.8940  139.2350 C   0  0  1  0  0  3  0  0  0  0  0  0
  183.9870  179.3140  140.6330 N   0  0  0  0  0  0  0  0  0  0  0  0
  185.3780  178.7470  138.8930 C   0  0  0  0  0  3  0  0  0  0  0  0
  185.5830  178.9870  142.4110 N   0  0  0  0  0  0  0  0  0  0  0  0
  187.3940  178.2530  140.3470 C   0  0  0  0  0  0  0  0  0  0  0  0
  184.1000  179.1670  139.2870 C   0  0  0  0  0  3  0  0  0  0  0  0
  190.9450  175.6750  138.1020 C   0  0  0  0  0  3  0  0  0  0  0  0
  189.4760  177.0590  144.3990 C   0  0  0  0  0  3  0  0  0  0  0  0
  190.5300  179.0640  143.7830 O   0  0  0  0  0  1  0  0  0  0  0  0
  189.7340  177.9710  143.4570 C   0  0  0  0  0  0  0  0  0  0  0  0
  190.0010  177.1640  145.7940 C   0  0  0  0  0  2  0  0  0  0  0  0
  188.7010  177.9180  147.4030 C   0  0  0  0  0  1  0  0  0  0  0  0
  189.0250  176.7600  146.7030 O   0  0  0  0  0  0  0  0  0  0  0  0
  188.8220  179.0610  138.6310 O   0  0  0  0  0  0  0  0  0  0  0  0
  188.5760  178.8910  137.3120 N   0  0  0  0  0  1  0  0  0  0  0  0
  191.9220  176.3440  137.2030 C   0  0  0  0  0  2  0  0  0  0  0  0
  193.1330  175.4860  137.0420 C   0  0  0  0  0  0  0  0  0  0  0  0
  194.5970  174.1460  136.1170 N   0  0  0  0  0  0  0  0  0  0  0  0
  194.3120  176.0150  139.1480 O   0  0  0  0  0  1  0  0  0  0  0  0
  194.1850  175.3800  137.9200 C   0  0  0  0  0  0  0  0  0  0  0  0
  193.4200  174.7370  135.9600 N   0  0  0  0  0  0  0  0  0  0  0  0
  195.0890  174.5250  137.3160 C   0  0  0  0  0  0  0  0  0  0  0  0
  196.3880  174.0780  137.8430 C   0  0  0  0  0  0  0  0  0  0  0  0
  197.0700  174.8530  138.5640 O   0  0  0  0  0  0  0  0  0  0  0  0
  196.9190  172.7190  137.5420 C   0  0  0  0  0  1  0  0  0  0  0  0
  192.5880  174.5780  134.7730 C   0  0  0  0  0  2  0  0  0  0  0  0
  190.1460  174.0600  134.7200 C   0  0  0  0  0  1  0  0  0  0  0  0
  191.5310  173.5090  134.9950 C   0  0  0  0  0  2  0  0  0  0  0  0
  2 14  2  0  0  0  0
  2  8  1  0  0  0  0
  3 19  1  0  0  0  0
  4  3  2  0  0  0  0
  5  9  2  0  0  0  0
  6  3  1  0  0  0  0
  6  1  2  0  0  0  0
  8 13  1  0  0  0  0
  9  4  1  0  0  0  0
 10 23  1  1  0  0  0
 10  9  1  0  0  0  0
 10 14  1  0  0  0  0
 11  8  2  0  0  0  0
 12 15  2  0  0  0  0
 12  2  1  0  0  0  0
 13  1  1  0  0  0  0
 13  7  1  0  0  0  0
 14  6  1  0  0  0  0
 15 11  1  0  0  0  0
 16  5  2  0  0  0  0
 17 20  1  0  0  0  0
 19 18  1  0  0  0  0
 19 17  2  0  0  0  0
 20 22  1  0  0  0  0
 22 21  1  0  0  0  0
 24 23  1  0  0  0  0
 25 16  1  0  0  0  0
 26 25  1  0  0  0  0
 26 29  2  0  0  0  0
 27 31  2  0  0  0  0
 29 28  1  0  0  0  0
 30 27  1  0  0  0  0
 30 26  1  0  0  0  0
 31 32  1  0  0  0  0
 31 29  1  0  0  0  0
 32 33  2  0  0  0  0
 34 32  1  0  0  0  0
 35 37  1  0  0  0  0
 35 30  1  0  0  0  0
 36 37  1  0  0  0  0
M  END
>  <MODEL>
8

>  <REMARK>
 VINA RESULT:      -8.0      3.115      5.789
  Name = 
  9 active torsions:
  status: ('A' for Active; 'I' for Inactive)
    1  A    between atoms: C_3  and  C_27
    2  A    between atoms: C_4  and  C_13
    3  A    between atoms: C_4  and  C_37
    4  A    between atoms: C_5  and  N_25
    5  A    between atoms: C_5  and  C_33
    6  A    between atoms: C_6  and  C_18
    7  A    between atoms: O_7  and  C_29
    8  A    between atoms: C_12  and  C_26
    9  A    between atoms: O_21  and  C_27
                            x       y       z     vdW  Elec       q    Type
                         _______ _______ _______ _____ _____    ______ ____

>  <TORSDO>
F 9

$$$$
=
 OpenBabel11042411563D

 37 40  0  0  1  0  0  0  0  0999 V2000
  181.5830  178.5490  137.1350 C   0  0  0  0  0  3  0  0  0  0  0  0
  184.0830  177.4200  137.4420 C   0  0  0  0  0  0  0  0  0  0  0  0
  181.6400  179.4340  139.5140 C   0  0  0  0  0  0  0  0  0  0  0  0
  182.2060  179.3430  140.7280 C   0  0  0  0  0  3  0  0  0  0  0  0
  183.8790  178.4330  142.1740 C   0  0  0  0  0  0  0  0  0  0  0  0
  182.2740  178.7100  138.3660 C   0  0  0  0  0  0  0  0  0  0  0  0
  181.3680  177.7210  134.8530 C   0  0  0  0  0  1  0  0  0  0  0  0
  183.3450  177.2970  136.2350 C   0  0  0  0  0  0  0  0  0  0  0  0
  183.4590  178.6140  140.9530 C   0  0  0  0  0  0  0  0  0  0  0  0
  184.3510  178.2700  139.7970 C   0  0  1  0  0  3  0  0  0  0  0  0
  184.0250  176.5890  135.3220 N   0  0  0  0  0  0  0  0  0  0  0  0
  185.2710  176.7560  137.2460 C   0  0  0  0  0  3  0  0  0  0  0  0
  182.1200  177.8550  136.0880 N   0  0  0  0  0  0  0  0  0  0  0  0
  183.5600  178.1200  138.5250 C   0  0  0  0  0  0  0  0  0  0  0  0
  185.1910  176.2620  135.9370 C   0  0  0  0  0  3  0  0  0  0  0  0
  184.2880  178.2530  143.3970 C   0  0  0  0  0  3  0  0  0  0  0  0
  180.4240  181.5310  139.0890 C   0  0  0  0  0  3  0  0  0  0  0  0
  179.1430  179.6080  139.4950 O   0  0  0  0  0  1  0  0  0  0  0  0
  180.3820  180.2240  139.3620 C   0  0  0  0  0  0  0  0  0  0  0  0
  179.1950  182.3660  138.9280 C   0  0  0  0  0  2  0  0  0  0  0  0
  180.4840  183.3230  137.4210 C   0  0  0  0  0  1  0  0  0  0  0  0
  179.1680  182.9360  137.6570 O   0  0  0  0  0  0  0  0  0  0  0  0
  185.3140  179.2700  139.6350 O   0  0  0  0  0  0  0  0  0  0  0  0
  186.4990  178.6370  139.7930 N   0  0  0  0  0  1  0  0  0  0  0  0
  185.2810  179.1830  143.9970 C   0  0  0  0  0  2  0  0  0  0  0  0
  186.2710  178.4140  144.8070 C   0  0  0  0  0  0  0  0  0  0  0  0
  187.9790  177.1340  145.2950 N   0  0  0  0  0  0  0  0  0  0  0  0
  185.6510  179.1780  147.0730 O   0  0  0  0  0  1  0  0  0  0  0  0
  186.4190  178.4520  146.1730 C   0  0  0  0  0  0  0  0  0  0  0  0
  187.2370  177.6180  144.3080 N   0  0  0  0  0  0  0  0  0  0  0  0
  187.4970  177.6320  146.4540 C   0  0  0  0  0  0  0  0  0  0  0  0
  188.0690  177.3260  147.7740 C   0  0  0  0  0  0  0  0  0  0  0  0
  188.3060  176.1300  148.0900 O   0  0  0  0  0  0  0  0  0  0  0  0
  188.3770  178.4060  148.7530 C   0  0  0  0  0  1  0  0  0  0  0  0
  187.4640  177.3130  142.9010 C   0  0  0  0  0  2  0  0  0  0  0  0
  189.5410  177.4730  141.5240 C   0  0  0  0  0  1  0  0  0  0  0  0
  188.8670  176.7700  142.6860 C   0  0  0  0  0  2  0  0  0  0  0  0
  1  6  2  0  0  0  0
  2 14  2  0  0  0  0
  3  4  2  0  0  0  0
  4  9  1  0  0  0  0
  5 16  2  0  0  0  0
  6 14  1  0  0  0  0
  6  3  1  0  0  0  0
  7 13  1  0  0  0  0
  8  2  1  0  0  0  0
  9  5  2  0  0  0  0
 10 23  1  6  0  0  0
 10  9  1  0  0  0  0
 11 15  1  0  0  0  0
 11  8  2  0  0  0  0
 12  2  1  0  0  0  0
 13  8  1  0  0  0  0
 13  1  1  0  0  0  0
 14 10  1  0  0  0  0
 15 12  2  0  0  0  0
 16 25  1  0  0  0  0
 17 19  2  0  0  0  0
 19 18  1  0  0  0  0
 19  3  1  0  0  0  0
 20 17  1  0  0  0  0
 21 22  1  0  0  0  0
 22 20  1  0  0  0  0
 23 24  1  0  0  0  0
 25 26  1  0  0  0  0
 26 29  2  0  0  0  0
 27 31  2  0  0  0  0
 29 31  1  0  0  0  0
 29 28  1  0  0  0  0
 30 26  1  0  0  0  0
 30 27  1  0  0  0  0
 31 32  1  0  0  0  0
 32 33  2  0  0  0  0
 32 34  1  0  0  0  0
 35 30  1  0  0  0  0
 36 37  1  0  0  0  0
 37 35  1  0  0  0  0
M  END
>  <MODEL>
9

>  <REMARK>
 VINA RESULT:      -7.8      3.951      9.047
  Name = 
  9 active torsions:
  status: ('A' for Active; 'I' for Inactive)
    1  A    between atoms: C_3  and  C_27
    2  A    between atoms: C_4  and  C_13
    3  A    between atoms: C_4  and  C_37
    4  A    between atoms: C_5  and  N_25
    5  A    between atoms: C_5  and  C_33
    6  A    between atoms: C_6  and  C_18
    7  A    between atoms: O_7  and  C_29
    8  A    between atoms: C_12  and  C_26
    9  A    between atoms: O_21  and  C_27
                            x       y       z     vdW  Elec       q    Type
                         _______ _______ _______ _____ _____    ______ ____

>  <TORSDO>
F 9

$$$$
