=
 OpenBabel11042410403D

 44 51  0  0  1  0  0  0  0  0999 V2000
  184.0790  172.1650  136.4030 C   0  0  0  0  0  0  0  0  0  0  0  0
  184.9890  178.1530  139.8830 C   0  0  1  0  0  3  0  0  0  0  0  0
  182.3160  173.8800  136.1760 C   0  0  0  0  0  2  0  0  0  0  0  0
  183.0050  176.8680  139.0990 C   0  0  0  0  0  0  0  0  0  0  0  0
  183.4160  170.8650  136.1780 C   0  0  0  0  0  0  0  0  0  0  0  0
  189.6370  177.3730  134.8620 C   0  0  0  0  0  3  0  0  0  0  0  0
  188.8740  178.3840  135.2330 O   0  0  0  0  0  0  0  0  0  0  0  0
  180.8140  179.1940  139.4010 O   0  0  0  0  0  0  0  0  0  0  0  0
  181.2490  171.7700  135.5550 N   0  0  0  0  0  2  0  0  0  0  0  0
  185.3330  172.3500  136.1260 N   0  0  0  0  0  0  0  0  0  0  0  0
  187.0130  174.2870  136.4280 C   0  0  0  0  0  2  0  0  0  0  0  0
  185.9840  178.6350  138.8190 C   0  0  0  0  0  2  0  0  0  0  0  0
  183.4410  173.3630  137.0410 C   0  0  2  0  0  3  0  0  0  0  0  0
  184.6870  175.6650  137.5500 C   0  0  0  0  0  0  0  0  0  0  0  0
  187.8410  177.9090  135.8760 C   0  0  0  0  0  0  0  0  0  0  0  0
  181.4710  179.3440  140.4670 C   0  0  0  0  0  0  0  0  0  0  0  0
  182.1860  170.7390  135.7660 N   0  0  0  0  0  0  0  0  0  0  0  0
  181.1240  172.9730  136.3660 C   0  0  0  0  0  2  0  0  0  0  0  0
  185.1080  178.9720  141.1610 C   0  0  1  0  0  3  0  0  0  0  0  0
  186.9370  175.7470  136.5590 N   0  0  0  0  0  0  0  0  0  0  0  0
  187.9210  176.5610  135.9270 C   0  0  0  0  0  0  0  0  0  0  0  0
  186.6890  178.6870  136.4050 C   0  0  0  0  0  2  0  0  0  0  0  0
  186.0320  176.3570  137.5560 C   0  0  1  0  0  3  0  0  0  0  0  0
  189.0720  176.1690  135.2760 C   0  0  0  0  0  3  0  0  0  0  0  0
  184.6010  174.2980  137.0170 C   0  0  0  0  0  0  0  0  0  0  0  0
  184.2400  169.6280  136.2790 C   0  0  0  0  0  1  0  0  0  0  0  0
  183.7490  176.1670  138.2950 C   0  0  0  0  0  0  0  0  0  0  0  0
  182.8170  178.8590  140.5540 N   0  0  0  0  0  0  0  0  0  0  0  0
  183.5240  178.2480  139.4400 C   0  0  1  0  0  3  0  0  0  0  0  0
  183.6900  179.2310  141.6500 C   0  0  0  0  0  2  0  0  0  0  0  0
  181.9030  176.2000  139.8490 C   0  0  0  0  0  1  0  0  0  0  0  0
  185.6420  173.6820  136.4930 C   0  0  0  0  0  0  0  0  0  0  0  0
  185.8750  177.9190  137.4630 C   0  0  1  0  0  3  0  0  0  0  0  0
  185.9200  178.2550  142.1950 C   0  0  0  0  0  0  0  0  0  0  0  0
  187.1770  177.7120  141.8860 C   0  0  0  0  0  3  0  0  0  0  0  0
  186.1540  177.4710  144.4760 C   0  0  0  0  0  3  0  0  0  0  0  0
  185.4130  178.1330  143.4930 C   0  0  0  0  0  3  0  0  0  0  0  0
  187.4050  176.9300  144.1660 C   0  0  0  0  0  3  0  0  0  0  0  0
  187.9160  177.0500  142.8700 C   0  0  0  0  0  3  0  0  0  0  0  0
  180.8940  179.9830  141.5660 O   0  0  0  0  0  0  0  0  0  0  0  0
  178.9310  180.1140  143.5360 S   0  0  0  0  0  0  0  0  0  0  0  0
  181.2470  178.6740  143.9790 O   0  0  0  0  0  1  0  0  0  0  0  0
  180.1180  179.1200  142.8180 S   0  0  2  0  0  0  0  0  0  0  0  0
  179.4650  177.8900  142.2550 O   0  0  0  0  0  0  0  0  0  0  0  0
  1 13  1  0  0  0  0
  2 12  1  6  0  0  0
  2 19  1  0  0  0  0
  3 18  1  0  0  0  0
  4 31  1  0  0  0  0
  5 26  1  0  0  0  0
  5  1  1  0  0  0  0
  6  7  1  0  0  0  0
  6 24  2  0  0  0  0
  7 15  1  0  0  0  0
  8 16  2  0  0  0  0
  9 17  1  0  0  0  0
  9 18  1  0  0  0  0
 10  1  2  0  0  0  0
 10 32  1  0  0  0  0
 11 32  1  0  0  0  0
 11 20  1  0  0  0  0
 13  3  1  6  0  0  0
 14 27  2  0  0  0  0
 15 21  2  0  0  0  0
 15 22  1  0  0  0  0
 16 28  1  0  0  0  0
 16 40  1  0  0  0  0
 17  5  2  0  0  0  0
 19 30  1  0  0  0  0
 19 34  1  1  0  0  0
 20 23  1  0  0  0  0
 21 20  1  0  0  0  0
 23 14  1  6  0  0  0
 24 21  1  0  0  0  0
 25 13  1  0  0  0  0
 25 14  1  0  0  0  0
 27  4  2  0  0  0  0
 28 30  1  0  0  0  0
 29  4  1  1  0  0  0
 29  2  1  0  0  0  0
 29 28  1  0  0  0  0
 32 25  2  0  0  0  0
 33 22  1  6  0  0  0
 33 23  1  0  0  0  0
 33 12  1  0  0  0  0
 34 37  1  0  0  0  0
 35 34  2  0  0  0  0
 35 39  1  0  0  0  0
 37 36  2  0  0  0  0
 38 36  1  0  0  0  0
 39 38  2  0  0  0  0
 40 43  1  0  0  0  0
 43 44  2  6  0  0  0
 43 41  2  0  0  0  0
 43 42  1  0  0  0  0
M  END
>  <MODEL>
1

>  <REMARK>
 VINA RESULT:      -7.2      0.000      0.000
  Name = 
  3 active torsions:
  status: ('A' for Active; 'I' for Inactive)
    1  A    between atoms: C_9  and  C_25
    2  A    between atoms: O_18  and  S_21
    3  A    between atoms: O_18  and  C_22
                            x       y       z     vdW  Elec       q    Type
                         _______ _______ _______ _____ _____    ______ ____

>  <TORSDO>
F 3

$$$$
=
 OpenBabel11042410403D

 44 51  0  0  1  0  0  0  0  0999 V2000
  187.3760  177.7240  144.6630 C   0  0  0  0  0  0  0  0  0  0  0  0
  186.0460  176.9590  137.8490 C   0  0  1  0  0  3  0  0  0  0  0  0
  188.7660  179.0260  143.0910 C   0  0  0  0  0  2  0  0  0  0  0  0
  188.0640  177.5460  139.1830 C   0  0  0  0  0  0  0  0  0  0  0  0
  188.2030  177.5240  145.8700 C   0  0  0  0  0  0  0  0  0  0  0  0
  180.8470  180.0460  141.1450 C   0  0  0  0  0  3  0  0  0  0  0  0
  181.4790  180.3080  140.0160 O   0  0  0  0  0  0  0  0  0  0  0  0
  189.8540  178.7310  136.7960 O   0  0  0  0  0  0  0  0  0  0  0  0
  190.0570  178.9240  145.1630 N   0  0  0  0  0  2  0  0  0  0  0  0
  186.0810  177.7720  144.7220 N   0  0  0  0  0  0  0  0  0  0  0  0
  184.1700  177.9480  142.9940 C   0  0  0  0  0  2  0  0  0  0  0  0
  184.8260  177.8820  137.9700 C   0  0  0  0  0  2  0  0  0  0  0  0
  187.8980  177.8010  143.2590 C   0  0  2  0  0  3  0  0  0  0  0  0
  186.3810  178.0430  141.0800 C   0  0  0  0  0  0  0  0  0  0  0  0
  182.6680  179.7690  140.0720 C   0  0  0  0  0  0  0  0  0  0  0  0
  189.3610  177.7100  136.2430 C   0  0  0  0  0  0  0  0  0  0  0  0
  189.3530  178.1030  146.0660 N   0  0  0  0  0  0  0  0  0  0  0  0
  190.1080  178.7390  143.7200 C   0  0  0  0  0  2  0  0  0  0  0  0
  185.9980  176.1490  136.5600 C   0  0  1  0  0  3  0  0  0  0  0  0
  184.0190  178.4600  141.6270 N   0  0  0  0  0  0  0  0  0  0  0  0
  182.8240  179.1420  141.2600 C   0  0  0  0  0  0  0  0  0  0  0  0
  183.7420  179.8790  139.0500 C   0  0  0  0  0  2  0  0  0  0  0  0
  184.9580  178.0330  140.5670 C   0  0  1  0  0  3  0  0  0  0  0  0
  181.6660  179.3010  141.9910 C   0  0  0  0  0  3  0  0  0  0  0  0
  186.6080  177.9600  142.5290 C   0  0  0  0  0  0  0  0  0  0  0  0
  187.6250  176.7370  146.9960 C   0  0  0  0  0  1  0  0  0  0  0  0
  187.3290  177.8010  140.2250 C   0  0  0  0  0  0  0  0  0  0  0  0
  188.1480  177.1370  136.7450 N   0  0  0  0  0  0  0  0  0  0  0  0
  187.3830  177.7090  137.8420 C   0  0  1  0  0  3  0  0  0  0  0  0
  187.4130  176.1360  135.9970 C   0  0  0  0  0  2  0  0  0  0  0  0
  189.3700  176.8460  139.3580 C   0  0  0  0  0  1  0  0  0  0  0  0
  185.6150  177.9380  143.3950 C   0  0  0  0  0  0  0  0  0  0  0  0
  184.8330  178.8020  139.2010 C   0  0  1  0  0  3  0  0  0  0  0  0
  185.4960  174.7600  136.8070 C   0  0  0  0  0  0  0  0  0  0  0  0
  186.3650  173.7300  137.2030 C   0  0  0  0  0  3  0  0  0  0  0  0
  183.6390  173.2040  136.8750 C   0  0  0  0  0  3  0  0  0  0  0  0
  184.1330  174.4910  136.6460 C   0  0  0  0  0  3  0  0  0  0  0  0
  184.5070  172.1800  137.2680 C   0  0  0  0  0  3  0  0  0  0  0  0
  185.8700  172.4440  137.4310 C   0  0  0  0  0  3  0  0  0  0  0  0
  189.9920  177.1330  135.1380 O   0  0  0  0  0  0  0  0  0  0  0  0
  190.5470  174.4600  134.5940 S   0  0  0  0  0  0  0  0  0  0  0  0
  191.4710  175.6230  136.9250 O   0  0  0  0  0  1  0  0  0  0  0  0
  191.1530  175.8920  135.2970 S   0  0  2  0  0  0  0  0  0  0  0  0
  192.4210  176.2930  134.5980 O   0  0  0  0  0  0  0  0  0  0  0  0
  1 10  2  0  0  0  0
  1  5  1  0  0  0  0
  2 12  1  6  0  0  0
  3 18  1  0  0  0  0
  4 31  1  0  0  0  0
  4 27  2  0  0  0  0
  5 17  2  0  0  0  0
  5 26  1  0  0  0  0
  6 24  2  0  0  0  0
  7 15  1  0  0  0  0
  7  6  1  0  0  0  0
  9 17  1  0  0  0  0
 11 32  1  0  0  0  0
 13  3  1  1  0  0  0
 13  1  1  0  0  0  0
 14 25  1  0  0  0  0
 15 21  2  0  0  0  0
 16 28  1  0  0  0  0
 16  8  2  0  0  0  0
 18  9  1  0  0  0  0
 19 34  1  1  0  0  0
 19  2  1  0  0  0  0
 20 11  1  0  0  0  0
 21 20  1  0  0  0  0
 21 24  1  0  0  0  0
 22 33  1  0  0  0  0
 22 15  1  0  0  0  0
 23 14  1  1  0  0  0
 23 20  1  0  0  0  0
 25 13  1  0  0  0  0
 25 32  2  0  0  0  0
 27 14  2  0  0  0  0
 28 29  1  0  0  0  0
 29  2  1  0  0  0  0
 29  4  1  1  0  0  0
 30 19  1  0  0  0  0
 30 28  1  0  0  0  0
 32 10  1  0  0  0  0
 33 12  1  6  0  0  0
 33 23  1  0  0  0  0
 34 35  1  0  0  0  0
 35 39  2  0  0  0  0
 36 38  2  0  0  0  0
 37 34  2  0  0  0  0
 37 36  1  0  0  0  0
 38 39  1  0  0  0  0
 40 43  1  0  0  0  0
 40 16  1  0  0  0  0
 43 41  2  6  0  0  0
 43 42  1  0  0  0  0
 44 43  2  0  0  0  0
M  END
>  <MODEL>
2

>  <REMARK>
 VINA RESULT:      -5.2      4.077      9.288
  Name = 
  3 active torsions:
  status: ('A' for Active; 'I' for Inactive)
    1  A    between atoms: C_9  and  C_25
    2  A    between atoms: O_18  and  S_21
    3  A    between atoms: O_18  and  C_22
                            x       y       z     vdW  Elec       q    Type
                         _______ _______ _______ _____ _____    ______ ____

>  <TORSDO>
F 3

$$$$
=
 OpenBabel11042410403D

 44 51  0  0  1  0  0  0  0  0999 V2000
  183.4000  178.4790  141.7470 C   0  0  0  0  0  0  0  0  0  0  0  0
  184.8330  175.4220  135.6320 C   0  0  1  0  0  3  0  0  0  0  0  0
  185.3670  179.3090  140.5060 C   0  0  0  0  0  2  0  0  0  0  0  0
  186.1880  176.5820  137.3690 C   0  0  0  0  0  0  0  0  0  0  0  0
  183.6700  178.7540  143.1730 C   0  0  0  0  0  0  0  0  0  0  0  0
  178.9310  178.9640  135.4080 C   0  0  0  0  0  3  0  0  0  0  0  0
  179.9710  178.8960  134.5990 O   0  0  0  0  0  0  0  0  0  0  0  0
  188.8370  177.0700  135.6230 O   0  0  0  0  0  0  0  0  0  0  0  0
  185.7260  179.9990  142.8230 N   0  0  0  0  0  2  0  0  0  0  0  0
  182.1920  178.4330  141.2770 N   0  0  0  0  0  0  0  0  0  0  0  0
  181.1320  177.8730  138.9900 C   0  0  0  0  0  2  0  0  0  0  0  0
  183.7160  176.2270  134.9530 C   0  0  0  0  0  2  0  0  0  0  0  0
  184.4380  178.1370  140.7200 C   0  0  2  0  0  3  0  0  0  0  0  0
  183.9220  177.5250  138.1760 C   0  0  0  0  0  0  0  0  0  0  0  0
  181.0090  178.5060  135.2890 C   0  0  0  0  0  0  0  0  0  0  0  0
  188.5480  175.8860  135.2960 C   0  0  0  0  0  0  0  0  0  0  0  0
  184.6790  179.4600  143.5970 N   0  0  0  0  0  0  0  0  0  0  0  0
  186.3330  179.3580  141.6650 C   0  0  0  0  0  2  0  0  0  0  0  0
  185.2540  174.2350  134.7760 C   0  0  1  0  0  3  0  0  0  0  0  0
  181.5630  177.8960  137.5870 N   0  0  0  0  0  0  0  0  0  0  0  0
  180.6490  178.3170  136.5780 C   0  0  0  0  0  0  0  0  0  0  0  0
  182.4040  178.3670  134.7940 C   0  0  0  0  0  2  0  0  0  0  0  0
  182.8190  177.2280  137.1840 C   0  0  1  0  0  3  0  0  0  0  0  0
  179.3060  178.6070  136.7020 C   0  0  0  0  0  3  0  0  0  0  0  0
  183.5530  177.9390  139.5370 C   0  0  0  0  0  0  0  0  0  0  0  0
  182.6530  178.3320  144.1760 C   0  0  0  0  0  1  0  0  0  0  0  0
  185.1160  177.0990  137.8930 C   0  0  0  0  0  0  0  0  0  0  0  0
  187.2060  175.4080  135.4450 N   0  0  0  0  0  0  0  0  0  0  0  0
  186.1020  176.2400  135.8980 C   0  0  1  0  0  3  0  0  0  0  0  0
  186.7730  174.1590  134.8490 C   0  0  0  0  0  2  0  0  0  0  0  0
  187.2780  176.0900  138.2610 C   0  0  0  0  0  1  0  0  0  0  0  0
  182.2980  178.1170  139.9000 C   0  0  0  0  0  0  0  0  0  0  0  0
  183.2860  177.4960  135.7070 C   0  0  1  0  0  3  0  0  0  0  0  0
  184.6200  172.9660  135.2550 C   0  0  0  0  0  0  0  0  0  0  0  0
  184.8640  171.7410  134.6110 C   0  0  0  0  0  3  0  0  0  0  0  0
  183.1740  171.8330  136.8360 C   0  0  0  0  0  3  0  0  0  0  0  0
  183.7740  173.0050  136.3690 C   0  0  0  0  0  3  0  0  0  0  0  0
  183.4170  170.6160  136.1930 C   0  0  0  0  0  3  0  0  0  0  0  0
  184.2620  170.5710  135.0800 C   0  0  0  0  0  3  0  0  0  0  0  0
  189.5320  175.0360  134.7850 O   0  0  0  0  0  0  0  0  0  0  0  0
  191.5580  173.1440  135.0360 S   0  0  0  0  0  0  0  0  0  0  0  0
  190.4430  174.2910  137.2900 O   0  0  0  0  0  1  0  0  0  0  0  0
  190.8980  174.5720  135.6970 S   0  0  2  0  0  0  0  0  0  0  0  0
  191.9290  175.6640  135.6560 O   0  0  0  0  0  0  0  0  0  0  0  0
  1  5  1  0  0  0  0
  2 12  1  6  0  0  0
  2 29  1  0  0  0  0
  3 18  1  0  0  0  0
  4 27  2  0  0  0  0
  4 31  1  0  0  0  0
  5 17  2  0  0  0  0
  5 26  1  0  0  0  0
  6 24  2  0  0  0  0
  7 15  1  0  0  0  0
  7  6  1  0  0  0  0
  9 17  1  0  0  0  0
 10  1  2  0  0  0  0
 11 32  1  0  0  0  0
 12 33  1  0  0  0  0
 13  3  1  6  0  0  0
 13  1  1  0  0  0  0
 14 25  1  0  0  0  0
 15 21  2  0  0  0  0
 16 28  1  0  0  0  0
 16  8  2  0  0  0  0
 18  9  1  0  0  0  0
 19 30  1  0  0  0  0
 19 34  1  1  0  0  0
 19  2  1  0  0  0  0
 20 11  1  0  0  0  0
 21 24  1  0  0  0  0
 21 20  1  0  0  0  0
 22 15  1  0  0  0  0
 23 20  1  0  0  0  0
 23 14  1  1  0  0  0
 25 32  2  0  0  0  0
 25 13  1  0  0  0  0
 27 14  2  0  0  0  0
 28 29  1  0  0  0  0
 29  4  1  1  0  0  0
 30 28  1  0  0  0  0
 32 10  1  0  0  0  0
 33 22  1  6  0  0  0
 33 23  1  0  0  0  0
 34 37  1  0  0  0  0
 35 39  1  0  0  0  0
 35 34  2  0  0  0  0
 37 36  2  0  0  0  0
 38 36  1  0  0  0  0
 39 38  2  0  0  0  0
 40 16  1  0  0  0  0
 40 43  1  0  0  0  0
 43 41  2  6  0  0  0
 43 42  1  0  0  0  0
 44 43  2  0  0  0  0
M  END
>  <MODEL>
3

>  <REMARK>
 VINA RESULT:      -4.9      4.396      8.944
  Name = 
  3 active torsions:
  status: ('A' for Active; 'I' for Inactive)
    1  A    between atoms: C_9  and  C_25
    2  A    between atoms: O_18  and  S_21
    3  A    between atoms: O_18  and  C_22
                            x       y       z     vdW  Elec       q    Type
                         _______ _______ _______ _____ _____    ______ ____

>  <TORSDO>
F 3

$$$$
=
 OpenBabel11042410403D

 44 51  0  0  1  0  0  0  0  0999 V2000
  183.1120  178.6730  141.7290 C   0  0  0  0  0  0  0  0  0  0  0  0
  182.8180  175.2630  135.6400 C   0  0  1  0  0  3  0  0  0  0  0  0
  185.1780  178.5970  140.3790 C   0  0  0  0  0  2  0  0  0  0  0  0
  184.6210  175.7590  137.2830 C   0  0  0  0  0  0  0  0  0  0  0  0
  183.5460  178.8170  143.1330 C   0  0  0  0  0  0  0  0  0  0  0  0
  178.9310  180.9480  135.5860 C   0  0  0  0  0  3  0  0  0  0  0  0
  179.8040  180.4460  134.7330 O   0  0  0  0  0  0  0  0  0  0  0  0
  187.1370  175.0840  135.4070 O   0  0  0  0  0  0  0  0  0  0  0  0
  185.9130  179.0860  142.6580 N   0  0  0  0  0  2  0  0  0  0  0  0
  181.9720  179.1340  141.3150 N   0  0  0  0  0  0  0  0  0  0  0  0
  180.6590  179.0560  139.0930 C   0  0  0  0  0  2  0  0  0  0  0  0
  182.1060  176.4580  134.9900 C   0  0  0  0  0  2  0  0  0  0  0  0
  183.8580  177.9220  140.6660 C   0  0  2  0  0  3  0  0  0  0  0  0
  183.0020  177.5680  138.1650 C   0  0  0  0  0  0  0  0  0  0  0  0
  180.6190  179.6620  135.3860 C   0  0  0  0  0  0  0  0  0  0  0  0
  186.3650  174.1280  135.1250 C   0  0  0  0  0  0  0  0  0  0  0  0
  184.7780  179.0390  143.4920 N   0  0  0  0  0  0  0  0  0  0  0  0
  186.1360  178.2430  141.4920 C   0  0  0  0  0  2  0  0  0  0  0  0
  182.6600  174.0040  134.7980 C   0  0  1  0  0  3  0  0  0  0  0  0
  180.9860  178.8890  137.6720 N   0  0  0  0  0  0  0  0  0  0  0  0
  180.2810  179.6490  136.6950 C   0  0  0  0  0  0  0  0  0  0  0  0
  181.8010  178.9500  134.8330 C   0  0  0  0  0  2  0  0  0  0  0  0
  181.8250  177.7540  137.2320 C   0  0  1  0  0  3  0  0  0  0  0  0
  179.1900  180.4740  136.8700 C   0  0  0  0  0  3  0  0  0  0  0  0
  182.9100  178.1060  139.5290 C   0  0  0  0  0  0  0  0  0  0  0  0
  182.4990  178.8650  144.1910 C   0  0  0  0  0  1  0  0  0  0  0  0
  183.8920  176.6800  137.8400 C   0  0  0  0  0  0  0  0  0  0  0  0
  184.9550  174.2560  135.3470 N   0  0  0  0  0  0  0  0  0  0  0  0
  184.3250  175.4760  135.8260 C   0  0  1  0  0  3  0  0  0  0  0  0
  184.0100  173.3000  134.8050 C   0  0  0  0  0  2  0  0  0  0  0  0
  185.4510  174.8610  138.1380 C   0  0  0  0  0  1  0  0  0  0  0  0
  181.8650  178.7940  139.9440 C   0  0  0  0  0  0  0  0  0  0  0  0
  182.2850  177.7940  135.7280 C   0  0  1  0  0  3  0  0  0  0  0  0
  181.5790  173.1190  135.3380 C   0  0  0  0  0  0  0  0  0  0  0  0
  180.2450  173.2620  134.9240 C   0  0  0  0  0  3  0  0  0  0  0  0
  180.9220  171.2880  136.7840 C   0  0  0  0  0  3  0  0  0  0  0  0
  181.9120  172.1290  136.2690 C   0  0  0  0  0  3  0  0  0  0  0  0
  179.5940  171.4330  136.3710 C   0  0  0  0  0  3  0  0  0  0  0  0
  179.2560  172.4210  135.4410 C   0  0  0  0  0  3  0  0  0  0  0  0
  186.8750  172.9420  134.5940 O   0  0  0  0  0  0  0  0  0  0  0  0
  189.4970  172.0670  134.9310 S   0  0  0  0  0  0  0  0  0  0  0  0
  187.3910  170.3140  135.2930 O   0  0  0  0  0  0  0  0  0  0  0  0
  187.8920  171.9050  135.4910 S   0  0  2  0  0  0  0  0  0  0  0  0
  187.8320  172.2720  136.9460 O   0  0  0  0  0  1  0  0  0  0  0  0
  1  5  1  0  0  0  0
  2 12  1  6  0  0  0
  2 29  1  0  0  0  0
  3 18  1  0  0  0  0
  4 27  2  0  0  0  0
  4 31  1  0  0  0  0
  5 17  2  0  0  0  0
  5 26  1  0  0  0  0
  6 24  2  0  0  0  0
  7 15  1  0  0  0  0
  7  6  1  0  0  0  0
  9 17  1  0  0  0  0
 10  1  2  0  0  0  0
 11 32  1  0  0  0  0
 12 33  1  0  0  0  0
 13  3  1  6  0  0  0
 13  1  1  0  0  0  0
 14 25  1  0  0  0  0
 15 21  2  0  0  0  0
 16 28  1  0  0  0  0
 16  8  2  0  0  0  0
 18  9  1  0  0  0  0
 19 30  1  0  0  0  0
 19 34  1  1  0  0  0
 19  2  1  0  0  0  0
 20 11  1  0  0  0  0
 21 24  1  0  0  0  0
 21 20  1  0  0  0  0
 22 15  1  0  0  0  0
 23 20  1  0  0  0  0
 23 14  1  1  0  0  0
 25 32  2  0  0  0  0
 25 13  1  0  0  0  0
 27 14  2  0  0  0  0
 28 29  1  0  0  0  0
 29  4  1  1  0  0  0
 30 28  1  0  0  0  0
 32 10  1  0  0  0  0
 33 22  1  6  0  0  0
 33 23  1  0  0  0  0
 34 37  1  0  0  0  0
 35 34  2  0  0  0  0
 35 39  1  0  0  0  0
 37 36  2  0  0  0  0
 38 36  1  0  0  0  0
 39 38  2  0  0  0  0
 40 16  1  0  0  0  0
 40 43  1  0  0  0  0
 42 43  2  0  0  0  0
 43 41  2  6  0  0  0
 43 44  1  0  0  0  0
M  END
>  <MODEL>
4

>  <REMARK>
 VINA RESULT:      -4.5      4.349      9.085
  Name = 
  3 active torsions:
  status: ('A' for Active; 'I' for Inactive)
    1  A    between atoms: C_9  and  C_25
    2  A    between atoms: O_18  and  S_21
    3  A    between atoms: O_18  and  C_22
                            x       y       z     vdW  Elec       q    Type
                         _______ _______ _______ _____ _____    ______ ____

>  <TORSDO>
F 3

$$$$
