=
 OpenBabel11032419183D

 25 28  0  0  0  0  0  0  0  0999 V2000
  187.8070  177.8900  144.3830 C   0  0  0  0  0  0  0  0  0  0  0  0
  190.8600  175.5350  143.4370 C   0  0  0  0  0  2  0  0  0  0  0  0
  186.6560  178.0540  145.0910 C   0  0  0  0  0  0  0  0  0  0  0  0
  189.4470  175.5140  142.8550 C   0  0  0  0  0  2  0  0  0  0  0  0
  189.0150  178.0420  146.4470 C   0  0  0  0  0  0  0  0  0  0  0  0
  189.0390  177.8820  145.0410 C   0  0  0  0  0  0  0  0  0  0  0  0
  190.2350  177.7060  144.3460 O   0  0  0  0  0  0  0  0  0  0  0  0
  190.0860  176.4670  140.6430 C   0  0  0  0  0  3  0  0  0  0  0  0
  188.4090  177.6550  141.9440 C   0  0  0  0  0  0  0  0  0  0  0  0
  187.8180  178.2010  147.0940 N   0  0  0  0  0  0  0  0  0  0  0  0
  186.1670  177.8880  142.9480 C   0  0  0  0  0  3  0  0  0  0  0  0
  189.1000  178.4910  139.7580 C   0  0  0  0  0  0  0  0  0  0  0  0
  191.0240  176.5460  144.5710 C   0  0  0  0  0  2  0  0  0  0  0  0
  188.3080  178.5970  140.9100 C   0  0  0  0  0  3  0  0  0  0  0  0
  184.1640  178.2250  144.5260 C   0  0  0  0  0  1  0  0  0  0  0  0
  185.6080  178.0530  144.2100 C   0  0  0  0  0  0  0  0  0  0  0  0
  187.5170  177.7700  143.0650 N   0  0  0  0  0  0  0  0  0  0  0  0
  189.9860  177.4210  139.6300 C   0  0  0  0  0  3  0  0  0  0  0  0
  186.6520  178.2090  146.4350 N   0  0  0  0  0  0  0  0  0  0  0  0
  190.2750  178.0690  147.2400 C   0  0  0  0  0  1  0  0  0  0  0  0
  189.3080  176.5730  141.8050 C   0  0  0  0  0  0  0  0  0  0  0  0
  189.0100  179.4540  138.7060 N   0  0  0  0  0  2  0  0  0  0  0  0
  189.0280  179.0890  137.2970 C   0  0  0  0  0  2  0  0  0  0  0  0
  187.5250  177.1840  136.7400 C   0  0  0  0  0  1  0  0  0  0  0  0
  187.6350  178.6930  136.8450 C   0  0  0  0  0  2  0  0  0  0  0  0
  1  6  2  0  0  0  0
  1  3  1  0  0  0  0
  2 13  1  0  0  0  0
  3 19  2  0  0  0  0
  4  2  1  0  0  0  0
  5 10  2  0  0  0  0
  5 20  1  0  0  0  0
  6  5  1  0  0  0  0
  7 13  1  0  0  0  0
  7  6  1  0  0  0  0
  8 21  1  0  0  0  0
  9 17  1  0  0  0  0
 11 17  1  0  0  0  0
 11 16  2  0  0  0  0
 12 14  2  0  0  0  0
 14  9  1  0  0  0  0
 16 15  1  0  0  0  0
 16  3  1  0  0  0  0
 17  1  1  0  0  0  0
 18 12  1  0  0  0  0
 18  8  2  0  0  0  0
 19 10  1  0  0  0  0
 21  9  2  0  0  0  0
 21  4  1  0  0  0  0
 22 12  1  0  0  0  0
 23 22  1  0  0  0  0
 24 25  1  0  0  0  0
 25 23  1  0  0  0  0
M  END
>  <MODEL>
1

>  <REMARK>
 VINA RESULT:      -6.9      0.000      0.000
  Name = 
  3 active torsions:
  status: ('A' for Active; 'I' for Inactive)
    1  A    between atoms: C_13  and  N_21
    2  A    between atoms: C_15  and  C_20
    3  A    between atoms: C_15  and  N_21
                            x       y       z     vdW  Elec       q    Type
                         _______ _______ _______ _____ _____    ______ ____

>  <TORSDO>
F 3

$$$$
=
 OpenBabel11032419183D

 25 28  0  0  0  0  0  0  0  0999 V2000
  181.2950  177.9850  141.3670 C   0  0  0  0  0  0  0  0  0  0  0  0
  183.9440  178.4480  138.4470 C   0  0  0  0  0  2  0  0  0  0  0  0
  180.0580  178.2740  141.8540 C   0  0  0  0  0  0  0  0  0  0  0  0
  183.6440  179.4070  139.5980 C   0  0  0  0  0  2  0  0  0  0  0  0
  180.2450  176.5960  139.7220 C   0  0  0  0  0  0  0  0  0  0  0  0
  181.4340  177.1240  140.2750 C   0  0  0  0  0  0  0  0  0  0  0  0
  182.6870  176.8170  139.7460 O   0  0  0  0  0  0  0  0  0  0  0  0
  185.7620  178.9680  140.8340 C   0  0  0  0  0  3  0  0  0  0  0  0
  183.6670  178.5640  142.0020 C   0  0  0  0  0  0  0  0  0  0  0  0
  179.0320  176.9310  140.2650 N   0  0  0  0  0  0  0  0  0  0  0  0
  181.5730  179.3060  143.0770 C   0  0  0  0  0  3  0  0  0  0  0  0
  185.8010  178.1810  143.1210 C   0  0  0  0  0  0  0  0  0  0  0  0
  183.0230  177.2300  138.4280 C   0  0  0  0  0  2  0  0  0  0  0  0
  184.4000  178.1880  143.1370 C   0  0  0  0  0  3  0  0  0  0  0  0
  179.1300  179.6670  143.7940 C   0  0  0  0  0  1  0  0  0  0  0  0
  180.2060  179.1080  142.9310 C   0  0  0  0  0  0  0  0  0  0  0  0
  182.2340  178.6290  142.1010 N   0  0  0  0  0  0  0  0  0  0  0  0
  186.4770  178.5750  141.9670 C   0  0  0  0  0  3  0  0  0  0  0  0
  178.9310  177.7560  141.3140 N   0  0  0  0  0  0  0  0  0  0  0  0
  180.2850  175.6520  138.5700 C   0  0  0  0  0  1  0  0  0  0  0  0
  184.3600  178.9640  140.8360 C   0  0  0  0  0  0  0  0  0  0  0  0
  186.5530  177.7870  144.2710 N   0  0  0  0  0  2  0  0  0  0  0  0
  187.8910  177.2190  144.1840 C   0  0  0  0  0  2  0  0  0  0  0  0
  187.6290  177.7120  146.6100 C   0  0  0  0  0  1  0  0  0  0  0  0
  188.6170  177.3940  145.5040 C   0  0  0  0  0  2  0  0  0  0  0  0
  1  3  1  0  0  0  0
  1 17  1  0  0  0  0
  2  4  1  0  0  0  0
  3 16  1  0  0  0  0
  4 21  1  0  0  0  0
  5 10  2  0  0  0  0
  5  6  1  0  0  0  0
  6  1  2  0  0  0  0
  7  6  1  0  0  0  0
  8 21  2  0  0  0  0
  8 18  1  0  0  0  0
  9 17  1  0  0  0  0
  9 14  2  0  0  0  0
 10 19  1  0  0  0  0
 12 14  1  0  0  0  0
 12 22  1  0  0  0  0
 13  2  1  0  0  0  0
 13  7  1  0  0  0  0
 16 11  2  0  0  0  0
 16 15  1  0  0  0  0
 17 11  1  0  0  0  0
 18 12  2  0  0  0  0
 19  3  2  0  0  0  0
 20  5  1  0  0  0  0
 21  9  1  0  0  0  0
 23 22  1  0  0  0  0
 23 25  1  0  0  0  0
 25 24  1  0  0  0  0
M  END
>  <MODEL>
2

>  <REMARK>
 VINA RESULT:      -6.7      4.816      7.864
  Name = 
  3 active torsions:
  status: ('A' for Active; 'I' for Inactive)
    1  A    between atoms: C_13  and  N_21
    2  A    between atoms: C_15  and  C_20
    3  A    between atoms: C_15  and  N_21
                            x       y       z     vdW  Elec       q    Type
                         _______ _______ _______ _____ _____    ______ ____

>  <TORSDO>
F 3

$$$$
=
 OpenBabel11032419183D

 25 28  0  0  0  0  0  0  0  0999 V2000
  186.1030  178.3770  144.2850 C   0  0  0  0  0  0  0  0  0  0  0  0
  189.2830  176.0180  144.5710 C   0  0  0  0  0  2  0  0  0  0  0  0
  184.7920  178.5830  144.5880 C   0  0  0  0  0  0  0  0  0  0  0  0
  188.1160  175.9000  143.5920 C   0  0  0  0  0  2  0  0  0  0  0  0
  186.6230  178.7730  146.5900 C   0  0  0  0  0  0  0  0  0  0  0  0
  187.0750  178.4690  145.2850 C   0  0  0  0  0  0  0  0  0  0  0  0
  188.4250  178.2540  145.0090 O   0  0  0  0  0  0  0  0  0  0  0  0
  189.4070  176.6350  141.5910 C   0  0  0  0  0  3  0  0  0  0  0  0
  187.4200  177.9070  142.1850 C   0  0  0  0  0  0  0  0  0  0  0  0
  185.2870  178.9670  146.8210 N   0  0  0  0  0  0  0  0  0  0  0  0
  184.9800  178.1840  142.4280 C   0  0  0  0  0  3  0  0  0  0  0  0
  188.7520  178.5300  140.2380 C   0  0  0  0  0  0  0  0  0  0  0  0
  189.0990  177.1440  145.5860 C   0  0  0  0  0  2  0  0  0  0  0  0
  187.6470  178.7340  141.0750 C   0  0  0  0  0  3  0  0  0  0  0  0
  182.5930  178.6290  143.2750 C   0  0  0  0  0  1  0  0  0  0  0  0
  184.0630  178.4640  143.4340 C   0  0  0  0  0  0  0  0  0  0  0  0
  186.2280  178.1140  142.9620 N   0  0  0  0  0  0  0  0  0  0  0  0
  189.6270  177.4770  140.5000 C   0  0  0  0  0  3  0  0  0  0  0  0
  184.3790  178.8760  145.8420 N   0  0  0  0  0  0  0  0  0  0  0  0
  187.5800  178.9150  147.7220 C   0  0  0  0  0  1  0  0  0  0  0  0
  188.3120  176.8410  142.4430 C   0  0  0  0  0  0  0  0  0  0  0  0
  188.9940  179.3770  139.1120 N   0  0  0  0  0  2  0  0  0  0  0  0
  189.0560  178.8770  137.7460 C   0  0  0  0  0  2  0  0  0  0  0  0
  187.3810  177.1290  137.1630 C   0  0  0  0  0  1  0  0  0  0  0  0
  187.6550  178.6190  137.2230 C   0  0  0  0  0  2  0  0  0  0  0  0
  1  3  2  0  0  0  0
  1  6  1  0  0  0  0
  2 13  1  0  0  0  0
  3 19  1  0  0  0  0
  4  2  1  0  0  0  0
  5 10  1  0  0  0  0
  5 20  1  0  0  0  0
  6  5  2  0  0  0  0
  7  6  1  0  0  0  0
  7 13  1  0  0  0  0
  8 21  1  0  0  0  0
  9 21  2  0  0  0  0
  9 17  1  0  0  0  0
 11 17  1  0  0  0  0
 11 16  2  0  0  0  0
 12 18  1  0  0  0  0
 12 14  2  0  0  0  0
 14  9  1  0  0  0  0
 15 16  1  0  0  0  0
 16  3  1  0  0  0  0
 17  1  1  0  0  0  0
 18  8  2  0  0  0  0
 19 10  2  0  0  0  0
 21  4  1  0  0  0  0
 22 12  1  0  0  0  0
 23 22  1  0  0  0  0
 24 25  1  0  0  0  0
 25 23  1  0  0  0  0
M  END
>  <MODEL>
3

>  <REMARK>
 VINA RESULT:      -6.6      1.297      1.696
  Name = 
  3 active torsions:
  status: ('A' for Active; 'I' for Inactive)
    1  A    between atoms: C_13  and  N_21
    2  A    between atoms: C_15  and  C_20
    3  A    between atoms: C_15  and  N_21
                            x       y       z     vdW  Elec       q    Type
                         _______ _______ _______ _____ _____    ______ ____

>  <TORSDO>
F 3

$$$$
=
 OpenBabel11032419183D

 25 28  0  0  0  0  0  0  0  0999 V2000
  188.9140  176.2790  138.0480 C   0  0  0  0  0  0  0  0  0  0  0  0
  192.8710  176.2850  138.3620 C   0  0  0  0  0  2  0  0  0  0  0  0
  187.8180  176.6060  137.3110 C   0  0  0  0  0  0  0  0  0  0  0  0
  191.9080  177.4320  138.6630 C   0  0  0  0  0  2  0  0  0  0  0  0
  189.3930  174.5640  136.4440 C   0  0  0  0  0  0  0  0  0  0  0  0
  189.7460  175.2340  137.6390 C   0  0  0  0  0  0  0  0  0  0  0  0
  190.8820  174.8810  138.3660 O   0  0  0  0  0  0  0  0  0  0  0  0
  192.1660  177.3160  141.1390 C   0  0  0  0  0  3  0  0  0  0  0  0
  189.9270  177.0590  140.2220 C   0  0  0  0  0  0  0  0  0  0  0  0
  188.2740  174.9490  135.7530 N   0  0  0  0  0  0  0  0  0  0  0  0
  187.9080  177.9090  139.0870 C   0  0  0  0  0  3  0  0  0  0  0  0
  190.2940  176.9770  142.6330 C   0  0  0  0  0  0  0  0  0  0  0  0
  192.1730  175.0510  137.7950 C   0  0  0  0  0  2  0  0  0  0  0  0
  189.4330  176.9330  141.5290 C   0  0  0  0  0  3  0  0  0  0  0  0
  185.9090  178.3030  137.5170 C   0  0  0  0  0  1  0  0  0  0  0  0
  187.1680  177.6330  137.9430 C   0  0  0  0  0  0  0  0  0  0  0  0
  188.9890  177.0850  139.1340 N   0  0  0  0  0  0  0  0  0  0  0  0
  191.6600  177.1720  142.4320 C   0  0  0  0  0  3  0  0  0  0  0  0
  187.4930  175.9520  136.1720 N   0  0  0  0  0  0  0  0  0  0  0  0
  190.2010  173.4230  135.9330 C   0  0  0  0  0  1  0  0  0  0  0  0
  191.3130  177.2580  140.0270 C   0  0  0  0  0  0  0  0  0  0  0  0
  189.7980  176.8360  143.9660 N   0  0  0  0  0  2  0  0  0  0  0  0
  189.4150  177.9730  144.7910 C   0  0  0  0  0  2  0  0  0  0  0  0
  187.0060  177.3480  144.7420 C   0  0  0  0  0  1  0  0  0  0  0  0
  188.2030  177.6200  145.6320 C   0  0  0  0  0  2  0  0  0  0  0  0
  1 17  1  0  0  0  0
  2  4  1  0  0  0  0
  3 16  1  0  0  0  0
  3  1  2  0  0  0  0
  4 21  1  0  0  0  0
  5  6  2  0  0  0  0
  6  1  1  0  0  0  0
  6  7  1  0  0  0  0
  8 18  1  0  0  0  0
  9 14  2  0  0  0  0
 10 19  2  0  0  0  0
 10  5  1  0  0  0  0
 11 17  1  0  0  0  0
 12 22  1  0  0  0  0
 13  2  1  0  0  0  0
 13  7  1  0  0  0  0
 14 12  1  0  0  0  0
 15 16  1  0  0  0  0
 16 11  2  0  0  0  0
 17  9  1  0  0  0  0
 18 12  2  0  0  0  0
 19  3  1  0  0  0  0
 20  5  1  0  0  0  0
 21  9  1  0  0  0  0
 21  8  2  0  0  0  0
 22 23  1  0  0  0  0
 23 25  1  0  0  0  0
 24 25  1  0  0  0  0
M  END
>  <MODEL>
4

>  <REMARK>
 VINA RESULT:      -6.4      2.879      7.058
  Name = 
  3 active torsions:
  status: ('A' for Active; 'I' for Inactive)
    1  A    between atoms: C_13  and  N_21
    2  A    between atoms: C_15  and  C_20
    3  A    between atoms: C_15  and  N_21
                            x       y       z     vdW  Elec       q    Type
                         _______ _______ _______ _____ _____    ______ ____

>  <TORSDO>
F 3

$$$$
=
 OpenBabel11032419183D

 25 28  0  0  0  0  0  0  0  0999 V2000
  184.6450  178.7190  140.8660 C   0  0  0  0  0  0  0  0  0  0  0  0
  184.6660  176.9350  137.3200 C   0  0  0  0  0  2  0  0  0  0  0  0
  184.8210  178.6080  142.2100 C   0  0  0  0  0  0  0  0  0  0  0  0
  183.5510  176.9260  138.3640 C   0  0  0  0  0  2  0  0  0  0  0  0
  187.0160  178.4850  140.6090 C   0  0  0  0  0  0  0  0  0  0  0  0
  185.7470  178.6650  140.0090 C   0  0  0  0  0  0  0  0  0  0  0  0
  185.6000  178.7650  138.6260 O   0  0  0  0  0  0  0  0  0  0  0  0
  182.0220  178.4280  137.0920 C   0  0  0  0  0  3  0  0  0  0  0  0
  182.6870  179.1220  139.3270 C   0  0  0  0  0  0  0  0  0  0  0  0
  187.1160  178.3800  141.9710 N   0  0  0  0  0  0  0  0  0  0  0  0
  182.6790  178.9110  141.7850 C   0  0  0  0  0  3  0  0  0  0  0  0
  181.1820  180.5080  137.9970 C   0  0  0  0  0  0  0  0  0  0  0  0
  185.9240  177.6590  137.7950 C   0  0  0  0  0  2  0  0  0  0  0  0
  181.8920  180.2680  139.1810 C   0  0  0  0  0  3  0  0  0  0  0  0
  183.3000  178.6860  144.2710 C   0  0  0  0  0  1  0  0  0  0  0  0
  183.5950  178.7230  142.8130 C   0  0  0  0  0  0  0  0  0  0  0  0
  183.3290  178.8880  140.5910 N   0  0  0  0  0  0  0  0  0  0  0  0
  181.2490  179.5820  136.9560 C   0  0  0  0  0  3  0  0  0  0  0  0
  186.0420  178.4400  142.7670 N   0  0  0  0  0  0  0  0  0  0  0  0
  188.2560  178.4350  139.7860 C   0  0  0  0  0  1  0  0  0  0  0  0
  182.7480  178.1870  138.2670 C   0  0  0  0  0  0  0  0  0  0  0  0
  180.3810  181.6810  137.8390 N   0  0  0  0  0  2  0  0  0  0  0  0
  180.4650  182.5440  136.6690 C   0  0  0  0  0  2  0  0  0  0  0  0
  180.9900  184.8560  135.9120 C   0  0  0  0  0  1  0  0  0  0  0  0
  181.1530  183.8460  137.0310 C   0  0  0  0  0  2  0  0  0  0  0  0
  1  3  1  0  0  0  0
  2 13  1  0  0  0  0
  2  4  1  0  0  0  0
  3 19  2  0  0  0  0
  3 16  1  0  0  0  0
  5 10  2  0  0  0  0
  6  5  1  0  0  0  0
  6  1  2  0  0  0  0
  7  6  1  0  0  0  0
  8 21  1  0  0  0  0
  9 17  1  0  0  0  0
 10 19  1  0  0  0  0
 11 16  2  0  0  0  0
 12 14  2  0  0  0  0
 13  7  1  0  0  0  0
 14  9  1  0  0  0  0
 16 15  1  0  0  0  0
 17  1  1  0  0  0  0
 17 11  1  0  0  0  0
 18  8  2  0  0  0  0
 18 12  1  0  0  0  0
 20  5  1  0  0  0  0
 21  4  1  0  0  0  0
 21  9  2  0  0  0  0
 22 12  1  0  0  0  0
 23 25  1  0  0  0  0
 23 22  1  0  0  0  0
 24 25  1  0  0  0  0
M  END
>  <MODEL>
5

>  <REMARK>
 VINA RESULT:      -6.3      5.133      7.053
  Name = 
  3 active torsions:
  status: ('A' for Active; 'I' for Inactive)
    1  A    between atoms: C_13  and  N_21
    2  A    between atoms: C_15  and  C_20
    3  A    between atoms: C_15  and  N_21
                            x       y       z     vdW  Elec       q    Type
                         _______ _______ _______ _____ _____    ______ ____

>  <TORSDO>
F 3

$$$$
=
 OpenBabel11032419183D

 25 28  0  0  0  0  0  0  0  0999 V2000
  181.5120  179.3320  139.2760 C   0  0  0  0  0  0  0  0  0  0  0  0
  178.9800  179.7020  142.3110 C   0  0  0  0  0  2  0  0  0  0  0  0
  181.7280  178.8990  138.0040 C   0  0  0  0  0  0  0  0  0  0  0  0
  179.7950  178.4710  141.9170 C   0  0  0  0  0  2  0  0  0  0  0  0
  180.1400  181.0770  138.3730 C   0  0  0  0  0  0  0  0  0  0  0  0
  180.7060  180.4500  139.5080 C   0  0  0  0  0  0  0  0  0  0  0  0
  180.4570  180.9120  140.8000 O   0  0  0  0  0  0  0  0  0  0  0  0
  181.3920  178.6220  143.8240 C   0  0  0  0  0  3  0  0  0  0  0  0
  182.3120  178.6620  141.5730 C   0  0  0  0  0  0  0  0  0  0  0  0
  180.4010  180.5850  137.1210 N   0  0  0  0  0  0  0  0  0  0  0  0
  182.8530  177.6200  139.4020 C   0  0  0  0  0  3  0  0  0  0  0  0
  183.7850  178.7900  143.5140 C   0  0  0  0  0  0  0  0  0  0  0  0
  179.1390  180.8620  141.3300 C   0  0  0  0  0  2  0  0  0  0  0  0
  183.5980  178.7470  142.1250 C   0  0  0  0  0  3  0  0  0  0  0  0
  183.0980  177.0310  136.9110 C   0  0  0  0  0  1  0  0  0  0  0  0
  182.5680  177.8190  138.0570 C   0  0  0  0  0  0  0  0  0  0  0  0
  182.1850  178.5420  140.1460 N   0  0  0  0  0  0  0  0  0  0  0  0
  182.6770  178.7240  144.3580 C   0  0  0  0  0  3  0  0  0  0  0  0
  181.1820  179.5140  136.9300 N   0  0  0  0  0  0  0  0  0  0  0  0
  179.2830  182.2870  138.5100 C   0  0  0  0  0  1  0  0  0  0  0  0
  181.1940  178.5940  142.4360 C   0  0  0  0  0  0  0  0  0  0  0  0
  185.0920  178.8900  144.0820 N   0  0  0  0  0  2  0  0  0  0  0  0
  185.3300  178.9180  145.5190 C   0  0  0  0  0  2  0  0  0  0  0  0
  187.2000  177.4990  144.6910 C   0  0  0  0  0  1  0  0  0  0  0  0
  186.3570  177.8680  145.8970 C   0  0  0  0  0  2  0  0  0  0  0  0
  1  6  1  0  0  0  0
  1 17  1  0  0  0  0
  3 16  1  0  0  0  0
  3  1  2  0  0  0  0
  4  2  1  0  0  0  0
  4 21  1  0  0  0  0
  5 20  1  0  0  0  0
  5  6  2  0  0  0  0
  6  7  1  0  0  0  0
  7 13  1  0  0  0  0
  8 18  1  0  0  0  0
  9 14  2  0  0  0  0
  9 21  1  0  0  0  0
 10  5  1  0  0  0  0
 11 17  1  0  0  0  0
 12 22  1  0  0  0  0
 12 18  2  0  0  0  0
 13  2  1  0  0  0  0
 14 12  1  0  0  0  0
 15 16  1  0  0  0  0
 16 11  2  0  0  0  0
 17  9  1  0  0  0  0
 19 10  2  0  0  0  0
 19  3  1  0  0  0  0
 21  8  2  0  0  0  0
 22 23  1  0  0  0  0
 23 25  1  0  0  0  0
 24 25  1  0  0  0  0
M  END
>  <MODEL>
6

>  <REMARK>
 VINA RESULT:      -6.2      5.585      9.458
  Name = 
  3 active torsions:
  status: ('A' for Active; 'I' for Inactive)
    1  A    between atoms: C_13  and  N_21
    2  A    between atoms: C_15  and  C_20
    3  A    between atoms: C_15  and  N_21
                            x       y       z     vdW  Elec       q    Type
                         _______ _______ _______ _____ _____    ______ ____

>  <TORSDO>
F 3

$$$$
=
 OpenBabel11032419183D

 25 28  0  0  0  0  0  0  0  0999 V2000
  187.1940  178.0160  142.4870 C   0  0  0  0  0  0  0  0  0  0  0  0
  184.9750  179.6100  145.3680 C   0  0  0  0  0  2  0  0  0  0  0  0
  188.3540  178.0500  141.7770 C   0  0  0  0  0  0  0  0  0  0  0  0
  185.1200  180.0910  143.9250 C   0  0  0  0  0  2  0  0  0  0  0  0
  188.4520  177.2320  144.3700 C   0  0  0  0  0  0  0  0  0  0  0  0
  187.2010  177.5990  143.8210 C   0  0  0  0  0  0  0  0  0  0  0  0
  186.0310  177.5630  144.5790 O   0  0  0  0  0  0  0  0  0  0  0  0
  182.8490  179.3640  143.2020 C   0  0  0  0  0  3  0  0  0  0  0  0
  184.7610  178.4650  141.9950 C   0  0  0  0  0  0  0  0  0  0  0  0
  189.5800  177.2910  143.5940 N   0  0  0  0  0  0  0  0  0  0  0  0
  186.6900  178.6720  140.4720 C   0  0  0  0  0  3  0  0  0  0  0  0
  182.4900  177.8320  141.3640 C   0  0  0  0  0  0  0  0  0  0  0  0
  185.8830  178.4270  145.6980 C   0  0  0  0  0  2  0  0  0  0  0  0
  183.8760  177.7580  141.1690 C   0  0  0  0  0  3  0  0  0  0  0  0
  189.0140  178.6270  139.3700 C   0  0  0  0  0  1  0  0  0  0  0  0
  188.0640  178.4620  140.5030 C   0  0  0  0  0  0  0  0  0  0  0  0
  186.1660  178.4130  141.6990 N   0  0  0  0  0  0  0  0  0  0  0  0
  181.9820  178.6400  142.3810 C   0  0  0  0  0  3  0  0  0  0  0  0
  189.5410  177.6920  142.3170 N   0  0  0  0  0  0  0  0  0  0  0  0
  188.5660  176.7530  145.7750 C   0  0  0  0  0  1  0  0  0  0  0  0
  184.2370  179.2830  143.0230 C   0  0  0  0  0  0  0  0  0  0  0  0
  181.5850  177.1040  140.5320 N   0  0  0  0  0  2  0  0  0  0  0  0
  180.1410  177.2920  140.5810 C   0  0  0  0  0  2  0  0  0  0  0  0
  180.3750  174.8900  139.9690 C   0  0  0  0  0  1  0  0  0  0  0  0
  179.4400  175.9480  140.5220 C   0  0  0  0  0  2  0  0  0  0  0  0
  1  6  1  0  0  0  0
  2 13  1  0  0  0  0
  3 19  1  0  0  0  0
  3  1  2  0  0  0  0
  4  2  1  0  0  0  0
  5 20  1  0  0  0  0
  6  5  2  0  0  0  0
  6  7  1  0  0  0  0
  7 13  1  0  0  0  0
  9 21  2  0  0  0  0
 10  5  1  0  0  0  0
 11 16  2  0  0  0  0
 11 17  1  0  0  0  0
 12 18  1  0  0  0  0
 14 12  2  0  0  0  0
 14  9  1  0  0  0  0
 15 16  1  0  0  0  0
 16  3  1  0  0  0  0
 17  9  1  0  0  0  0
 17  1  1  0  0  0  0
 18  8  2  0  0  0  0
 19 10  2  0  0  0  0
 21  8  1  0  0  0  0
 21  4  1  0  0  0  0
 22 23  1  0  0  0  0
 22 12  1  0  0  0  0
 24 25  1  0  0  0  0
 25 23  1  0  0  0  0
M  END
>  <MODEL>
7

>  <REMARK>
 VINA RESULT:      -6.0      3.195      5.902
  Name = 
  3 active torsions:
  status: ('A' for Active; 'I' for Inactive)
    1  A    between atoms: C_13  and  N_21
    2  A    between atoms: C_15  and  C_20
    3  A    between atoms: C_15  and  N_21
                            x       y       z     vdW  Elec       q    Type
                         _______ _______ _______ _____ _____    ______ ____

>  <TORSDO>
F 3

$$$$
=
 OpenBabel11032419183D

 25 28  0  0  0  0  0  0  0  0999 V2000
  188.5870  175.6390  137.0820 C   0  0  0  0  0  0  0  0  0  0  0  0
  192.5270  175.5330  137.5600 C   0  0  0  0  0  2  0  0  0  0  0  0
  187.5350  175.8480  136.2450 C   0  0  0  0  0  0  0  0  0  0  0  0
  191.6170  176.7600  137.5660 C   0  0  0  0  0  2  0  0  0  0  0  0
  189.0260  173.5980  135.9050 C   0  0  0  0  0  0  0  0  0  0  0  0
  189.3750  174.4930  136.9430 C   0  0  0  0  0  0  0  0  0  0  0  0
  190.4660  174.2540  137.7780 O   0  0  0  0  0  0  0  0  0  0  0  0
  191.7870  177.1700  140.0180 C   0  0  0  0  0  3  0  0  0  0  0  0
  189.5690  176.8230  139.0810 C   0  0  0  0  0  0  0  0  0  0  0  0
  187.9520  173.8750  135.0990 N   0  0  0  0  0  0  0  0  0  0  0  0
  187.6370  177.4980  137.7030 C   0  0  0  0  0  3  0  0  0  0  0  0
  189.8520  177.2470  141.4680 C   0  0  0  0  0  0  0  0  0  0  0  0
  191.7820  174.2380  137.2410 C   0  0  0  0  0  2  0  0  0  0  0  0
  189.0260  177.0040  140.3620 C   0  0  0  0  0  3  0  0  0  0  0  0
  185.7150  177.6340  136.0000 C   0  0  0  0  0  1  0  0  0  0  0  0
  186.9210  177.0160  136.6140 C   0  0  0  0  0  0  0  0  0  0  0  0
  188.6700  176.6560  137.9720 N   0  0  0  0  0  0  0  0  0  0  0  0
  191.2320  177.3320  141.2890 C   0  0  0  0  0  3  0  0  0  0  0  0
  187.2130  174.9790  135.2600 N   0  0  0  0  0  0  0  0  0  0  0  0
  189.7880  172.3380  135.6860 C   0  0  0  0  0  1  0  0  0  0  0  0
  190.9700  176.9120  138.9080 C   0  0  0  0  0  0  0  0  0  0  0  0
  189.3050  177.4200  142.7770 N   0  0  0  0  0  2  0  0  0  0  0  0
  188.1310  176.6970  143.2450 C   0  0  0  0  0  2  0  0  0  0  0  0
  188.9520  177.8380  145.3000 C   0  0  0  0  0  1  0  0  0  0  0  0
  187.7700  177.1450  144.6490 C   0  0  0  0  0  2  0  0  0  0  0  0
  1 17  1  0  0  0  0
  2  4  1  0  0  0  0
  3 16  1  0  0  0  0
  3  1  2  0  0  0  0
  4 21  1  0  0  0  0
  5  6  2  0  0  0  0
  6  1  1  0  0  0  0
  6  7  1  0  0  0  0
  8 18  1  0  0  0  0
  9 14  2  0  0  0  0
 10 19  2  0  0  0  0
 10  5  1  0  0  0  0
 11 17  1  0  0  0  0
 12 22  1  0  0  0  0
 13  2  1  0  0  0  0
 13  7  1  0  0  0  0
 14 12  1  0  0  0  0
 15 16  1  0  0  0  0
 16 11  2  0  0  0  0
 17  9  1  0  0  0  0
 18 12  2  0  0  0  0
 19  3  1  0  0  0  0
 20  5  1  0  0  0  0
 21  9  1  0  0  0  0
 21  8  2  0  0  0  0
 22 23  1  0  0  0  0
 23 25  1  0  0  0  0
 25 24  1  0  0  0  0
M  END
>  <MODEL>
8

>  <REMARK>
 VINA RESULT:      -5.9      3.285      7.579
  Name = 
  3 active torsions:
  status: ('A' for Active; 'I' for Inactive)
    1  A    between atoms: C_13  and  N_21
    2  A    between atoms: C_15  and  C_20
    3  A    between atoms: C_15  and  N_21
                            x       y       z     vdW  Elec       q    Type
                         _______ _______ _______ _____ _____    ______ ____

>  <TORSDO>
F 3

$$$$
=
 OpenBabel11032419183D

 25 28  0  0  0  0  0  0  0  0999 V2000
  186.6320  177.1280  137.9810 C   0  0  0  0  0  0  0  0  0  0  0  0
  190.3600  176.7620  136.6660 C   0  0  0  0  0  2  0  0  0  0  0  0
  185.3860  177.6340  137.7790 C   0  0  0  0  0  0  0  0  0  0  0  0
  189.7470  177.9390  137.4220 C   0  0  0  0  0  2  0  0  0  0  0  0
  186.2200  175.5900  136.1900 C   0  0  0  0  0  0  0  0  0  0  0  0
  187.0970  176.0740  137.1890 C   0  0  0  0  0  0  0  0  0  0  0  0
  188.3730  175.5400  137.3630 O   0  0  0  0  0  0  0  0  0  0  0  0
  190.9410  177.4970  139.5640 C   0  0  0  0  0  3  0  0  0  0  0  0
  188.5090  177.5450  139.6140 C   0  0  0  0  0  0  0  0  0  0  0  0
  184.9780  176.1500  136.0440 N   0  0  0  0  0  0  0  0  0  0  0  0
  186.3320  178.6950  139.4640 C   0  0  0  0  0  3  0  0  0  0  0  0
  189.7820  177.1340  141.6560 C   0  0  0  0  0  0  0  0  0  0  0  0
  189.3450  175.6700  136.3340 C   0  0  0  0  0  2  0  0  0  0  0  0
  188.5570  177.3000  140.9940 C   0  0  0  0  0  3  0  0  0  0  0  0
  183.9440  179.4470  138.8740 C   0  0  0  0  0  1  0  0  0  0  0  0
  185.1730  178.6260  138.7000 C   0  0  0  0  0  0  0  0  0  0  0  0
  187.2300  177.7840  139.0040 N   0  0  0  0  0  0  0  0  0  0  0  0
  190.9710  177.2370  140.9350 C   0  0  0  0  0  3  0  0  0  0  0  0
  184.5590  177.1560  136.8220 N   0  0  0  0  0  0  0  0  0  0  0  0
  186.6100  174.4570  135.3060 C   0  0  0  0  0  1  0  0  0  0  0  0
  189.7200  177.6490  138.8910 C   0  0  0  0  0  0  0  0  0  0  0  0
  189.8360  176.8720  143.0590 N   0  0  0  0  0  2  0  0  0  0  0  0
  189.7330  177.9210  144.0640 C   0  0  0  0  0  2  0  0  0  0  0  0
  187.3860  177.3080  144.6220 C   0  0  0  0  0  1  0  0  0  0  0  0
  188.7880  177.4910  145.1700 C   0  0  0  0  0  2  0  0  0  0  0  0
  1 17  1  0  0  0  0
  2  4  1  0  0  0  0
  3  1  1  0  0  0  0
  3 16  1  0  0  0  0
  4 21  1  0  0  0  0
  5  6  1  0  0  0  0
  6  7  1  0  0  0  0
  6  1  2  0  0  0  0
  8 18  1  0  0  0  0
  9 14  2  0  0  0  0
 10  5  2  0  0  0  0
 10 19  1  0  0  0  0
 12 22  1  0  0  0  0
 13  2  1  0  0  0  0
 13  7  1  0  0  0  0
 14 12  1  0  0  0  0
 16 15  1  0  0  0  0
 16 11  2  0  0  0  0
 17 11  1  0  0  0  0
 17  9  1  0  0  0  0
 18 12  2  0  0  0  0
 19  3  2  0  0  0  0
 20  5  1  0  0  0  0
 21  8  2  0  0  0  0
 21  9  1  0  0  0  0
 22 23  1  0  0  0  0
 23 25  1  0  0  0  0
 24 25  1  0  0  0  0
M  END
>  <MODEL>
9

>  <REMARK>
 VINA RESULT:      -5.7      2.925      7.012
  Name = 
  3 active torsions:
  status: ('A' for Active; 'I' for Inactive)
    1  A    between atoms: C_13  and  N_21
    2  A    between atoms: C_15  and  C_20
    3  A    between atoms: C_15  and  N_21
                            x       y       z     vdW  Elec       q    Type
                         _______ _______ _______ _____ _____    ______ ____

>  <TORSDO>
F 3

$$$$
