=
 OpenBabel11032419203D

 25 26  0  0  1  0  0  0  0  0999 V2000
  191.9040  177.7360  141.9110 C   0  0  0  0  0  2  0  0  0  0  0  0
  188.9140  177.6430  140.3910 C   0  0  0  0  0  0  0  0  0  0  0  0
  188.7420  177.6670  142.6570 N   0  0  0  0  0  2  0  0  0  0  0  0
  191.0600  177.3910  143.0080 N   0  0  0  0  0  0  0  0  0  0  0  0
  190.0680  176.8630  140.9320 C   0  0  1  0  0  3  0  0  0  0  0  0
  191.3710  177.5000  140.7510 N   0  0  0  0  0  2  0  0  0  0  0  0
  188.1350  177.9880  141.4150 C   0  0  0  0  0  0  0  0  0  0  0  0
  189.8370  177.0340  142.3850 C   0  0  2  0  0  3  0  0  0  0  0  0
  186.9220  178.8520  141.3270 C   0  0  0  0  0  1  0  0  0  0  0  0
  189.0190  179.0510  138.4680 N   0  0  0  0  0  2  0  0  0  0  0  0
  188.6740  177.9050  138.9570 C   0  0  0  0  0  0  0  0  0  0  0  0
  188.1650  176.8610  138.0460 C   0  0  0  0  0  0  0  0  0  0  0  0
  186.8340  176.9190  137.5420 N   0  0  0  0  0  1  0  0  0  0  0  0
  188.8950  175.8810  137.7390 O   0  0  0  0  0  0  0  0  0  0  0  0
  191.2170  177.9130  144.3630 C   0  0  0  0  0  2  0  0  0  0  0  0
  191.7540  176.8430  145.3080 C   0  0  2  0  0  3  0  0  0  0  0  0
  191.8460  175.6210  144.6390 O   0  0  0  0  0  1  0  0  0  0  0  0
  190.8830  176.7100  146.5540 C   0  0  1  0  0  3  0  0  0  0  0  0
  191.6360  176.9170  147.7120 O   0  0  0  0  0  1  0  0  0  0  0  0
  189.8270  177.6220  146.5060 O   0  0  0  0  0  0  0  0  0  0  0  0
  189.2470  177.5570  147.7760 C   0  0  0  0  0  2  0  0  0  0  0  0
  187.7780  177.9310  147.6980 C   0  0  0  0  0  2  0  0  0  0  0  0
  187.2610  177.7300  146.2850 C   0  0  0  0  0  2  0  0  0  0  0  0
  185.8000  178.1370  146.1950 C   0  0  0  0  0  2  0  0  0  0  0  0
  185.5460  179.2680  147.0720 N   0  0  0  0  0  1  0  0  0  0  0  0
  1  4  1  0  0  0  0
  2  7  2  0  0  0  0
  4 15  1  0  0  0  0
  5  2  1  6  0  0  0
  5  8  1  0  0  0  0
  6  5  1  0  0  0  0
  6  1  1  0  0  0  0
  7  3  1  0  0  0  0
  8  3  1  6  0  0  0
  8  4  1  0  0  0  0
  9  7  1  0  0  0  0
 10 11  2  0  0  0  0
 11  2  1  0  0  0  0
 12 11  1  0  0  0  0
 13 12  1  0  0  0  0
 14 12  2  0  0  0  0
 15 16  1  0  0  0  0
 16 17  1  6  0  0  0
 16 18  1  0  0  0  0
 18 19  1  1  0  0  0
 20 18  1  0  0  0  0
 20 21  1  0  0  0  0
 22 21  1  0  0  0  0
 23 22  1  0  0  0  0
 24 23  1  0  0  0  0
 24 25  1  0  0  0  0
M  END
>  <MODEL>
1

>  <REMARK>
 VINA RESULT:      -6.7      0.000      0.000
  Name = 
  10 active torsions:
  status: ('A' for Active; 'I' for Inactive)
    1  A    between atoms: C_1  and  C_15
    2  A    between atoms: C_2  and  C_18
    3  A    between atoms: C_3  and  N_11
    4  A    between atoms: C_3  and  C_21
    5  A    between atoms: C_8  and  C_18
    6  A    between atoms: C_10  and  C_21
    7  A    between atoms: C_10  and  O_25
    8  A    between atoms: C_12  and  C_15
    9  A    between atoms: C_12  and  C_20
   10  A    between atoms: C_20  and  O_25
                            x       y       z     vdW  Elec       q    Type
                         _______ _______ _______ _____ _____    ______ ____

>  <TORSDO>
F 10

$$$$
=
 OpenBabel11032419203D

 25 26  0  0  1  0  0  0  0  0999 V2000
  187.0630  177.8450  142.7260 C   0  0  0  0  0  2  0  0  0  0  0  0
  188.9140  178.1300  139.9410 C   0  0  0  0  0  0  0  0  0  0  0  0
  190.1030  177.3250  141.7020 N   0  0  0  0  0  2  0  0  0  0  0  0
  188.3770  177.7090  143.2660 N   0  0  0  0  0  0  0  0  0  0  0  0
  188.3930  178.7980  141.1710 C   0  0  1  0  0  3  0  0  0  0  0  0
  187.0390  178.4010  141.5530 N   0  0  0  0  0  2  0  0  0  0  0  0
  189.9570  177.3790  140.2920 C   0  0  0  0  0  0  0  0  0  0  0  0
  189.2170  178.1240  142.2000 C   0  0  2  0  0  3  0  0  0  0  0  0
  190.7160  176.4730  139.3820 C   0  0  0  0  0  1  0  0  0  0  0  0
  188.9160  179.2600  137.8400 N   0  0  0  0  0  2  0  0  0  0  0  0
  188.3840  178.3420  138.5790 C   0  0  0  0  0  0  0  0  0  0  0  0
  187.3510  177.4630  137.9950 C   0  0  0  0  0  0  0  0  0  0  0  0
  186.0140  177.9240  137.8230 N   0  0  0  0  0  1  0  0  0  0  0  0
  187.6360  176.2770  137.6820 O   0  0  0  0  0  0  0  0  0  0  0  0
  188.7350  176.7810  144.3340 C   0  0  0  0  0  2  0  0  0  0  0  0
  189.3670  177.5130  145.5130 C   0  0  2  0  0  3  0  0  0  0  0  0
  190.7130  177.1580  145.6270 O   0  0  0  0  0  1  0  0  0  0  0  0
  188.6230  177.2240  146.8140 C   0  0  1  0  0  3  0  0  0  0  0  0
  188.9500  178.1640  147.7940 O   0  0  0  0  0  1  0  0  0  0  0  0
  187.2440  177.2290  146.5940 O   0  0  0  0  0  0  0  0  0  0  0  0
  186.7800  178.3500  147.2890 C   0  0  0  0  0  2  0  0  0  0  0  0
  185.3260  178.6130  146.9420 C   0  0  0  0  0  2  0  0  0  0  0  0
  185.2030  179.0390  145.4910 C   0  0  0  0  0  2  0  0  0  0  0  0
  183.7610  178.9210  145.0260 C   0  0  0  0  0  2  0  0  0  0  0  0
  183.6820  179.1500  143.5930 N   0  0  0  0  0  1  0  0  0  0  0  0
  1  4  1  0  0  0  0
  2  7  2  0  0  0  0
  4 15  1  0  0  0  0
  5  2  1  6  0  0  0
  5  6  1  0  0  0  0
  5  8  1  0  0  0  0
  6  1  1  0  0  0  0
  7  3  1  0  0  0  0
  8  3  1  6  0  0  0
  8  4  1  0  0  0  0
  9  7  1  0  0  0  0
 10 11  2  0  0  0  0
 11  2  1  0  0  0  0
 12 11  1  0  0  0  0
 13 12  1  0  0  0  0
 14 12  2  0  0  0  0
 15 16  1  0  0  0  0
 16 17  1  1  0  0  0
 16 18  1  0  0  0  0
 18 19  1  1  0  0  0
 20 18  1  0  0  0  0
 20 21  1  0  0  0  0
 22 21  1  0  0  0  0
 23 22  1  0  0  0  0
 24 23  1  0  0  0  0
 25 24  1  0  0  0  0
M  END
>  <MODEL>
2

>  <REMARK>
 VINA RESULT:      -6.7      1.686      2.676
  Name = 
  10 active torsions:
  status: ('A' for Active; 'I' for Inactive)
    1  A    between atoms: C_1  and  C_15
    2  A    between atoms: C_2  and  C_18
    3  A    between atoms: C_3  and  N_11
    4  A    between atoms: C_3  and  C_21
    5  A    between atoms: C_8  and  C_18
    6  A    between atoms: C_10  and  C_21
    7  A    between atoms: C_10  and  O_25
    8  A    between atoms: C_12  and  C_15
    9  A    between atoms: C_12  and  C_20
   10  A    between atoms: C_20  and  O_25
                            x       y       z     vdW  Elec       q    Type
                         _______ _______ _______ _____ _____    ______ ____

>  <TORSDO>
F 10

$$$$
=
 OpenBabel11032419203D

 25 26  0  0  1  0  0  0  0  0999 V2000
  188.0150  177.6130  142.2850 C   0  0  0  0  0  2  0  0  0  0  0  0
  188.8940  177.8980  139.0600 C   0  0  0  0  0  0  0  0  0  0  0  0
  190.3660  176.6490  140.2590 N   0  0  0  0  0  2  0  0  0  0  0  0
  189.3640  177.1530  142.3370 N   0  0  0  0  0  0  0  0  0  0  0  0
  188.9600  178.4860  140.4310 C   0  0  1  0  0  3  0  0  0  0  0  0
  187.7460  178.3140  141.2260 N   0  0  0  0  0  2  0  0  0  0  0  0
  189.7940  176.9180  138.9880 C   0  0  0  0  0  0  0  0  0  0  0  0
  189.8920  177.5330  141.0760 C   0  0  2  0  0  3  0  0  0  0  0  0
  189.9950  176.0100  137.8220 C   0  0  0  0  0  1  0  0  0  0  0  0
  188.5200  179.1840  137.0850 N   0  0  0  0  0  2  0  0  0  0  0  0
  188.0210  178.3890  137.9740 C   0  0  0  0  0  0  0  0  0  0  0  0
  186.6350  177.9060  137.8060 C   0  0  0  0  0  0  0  0  0  0  0  0
  186.3710  176.6530  137.1820 N   0  0  0  0  0  1  0  0  0  0  0  0
  185.6680  178.6230  138.1780 O   0  0  0  0  0  0  0  0  0  0  0  0
  189.8230  176.0390  143.1620 C   0  0  0  0  0  2  0  0  0  0  0  0
  191.0600  176.4210  143.9680 C   0  0  2  0  0  3  0  0  0  0  0  0
  191.9590  175.3530  143.9950 O   0  0  0  0  0  1  0  0  0  0  0  0
  190.6920  176.8490  145.3860 C   0  0  1  0  0  3  0  0  0  0  0  0
  191.8360  176.9920  146.1750 O   0  0  0  0  0  1  0  0  0  0  0  0
  189.9820  178.0520  145.3600 O   0  0  0  0  0  0  0  0  0  0  0  0
  189.1390  177.9880  146.4740 C   0  0  0  0  0  2  0  0  0  0  0  0
  187.8700  177.2330  146.1240 C   0  0  0  0  0  2  0  0  0  0  0  0
  186.7730  178.2060  145.7330 C   0  0  0  0  0  2  0  0  0  0  0  0
  185.9130  178.5450  146.9390 C   0  0  0  0  0  2  0  0  0  0  0  0
  184.5260  178.6980  146.5310 N   0  0  0  0  0  1  0  0  0  0  0  0
  1  4  1  0  0  0  0
  4 15  1  0  0  0  0
  5  2  1  6  0  0  0
  5  8  1  0  0  0  0
  5  6  1  0  0  0  0
  6  1  1  0  0  0  0
  7  2  2  0  0  0  0
  7  3  1  0  0  0  0
  8  3  1  6  0  0  0
  8  4  1  0  0  0  0
  9  7  1  0  0  0  0
 10 11  2  0  0  0  0
 11  2  1  0  0  0  0
 12 11  1  0  0  0  0
 12 14  2  0  0  0  0
 13 12  1  0  0  0  0
 15 16  1  0  0  0  0
 16 17  1  1  0  0  0
 16 18  1  0  0  0  0
 18 19  1  1  0  0  0
 20 18  1  0  0  0  0
 20 21  1  0  0  0  0
 22 21  1  0  0  0  0
 23 22  1  0  0  0  0
 23 24  1  0  0  0  0
 25 24  1  0  0  0  0
M  END
>  <MODEL>
3

>  <REMARK>
 VINA RESULT:      -6.7      1.532      2.355
  Name = 
  10 active torsions:
  status: ('A' for Active; 'I' for Inactive)
    1  A    between atoms: C_1  and  C_15
    2  A    between atoms: C_2  and  C_18
    3  A    between atoms: C_3  and  N_11
    4  A    between atoms: C_3  and  C_21
    5  A    between atoms: C_8  and  C_18
    6  A    between atoms: C_10  and  C_21
    7  A    between atoms: C_10  and  O_25
    8  A    between atoms: C_12  and  C_15
    9  A    between atoms: C_12  and  C_20
   10  A    between atoms: C_20  and  O_25
                            x       y       z     vdW  Elec       q    Type
                         _______ _______ _______ _____ _____    ______ ____

>  <TORSDO>
F 10

$$$$
=
 OpenBabel11032419203D

 25 26  0  0  1  0  0  0  0  0999 V2000
  187.8490  176.8430  142.8150 C   0  0  0  0  0  2  0  0  0  0  0  0
  190.8870  176.9950  144.2310 C   0  0  0  0  0  0  0  0  0  0  0  0
  190.6730  178.4110  142.4670 N   0  0  0  0  0  2  0  0  0  0  0  0
  188.5720  177.5550  141.8140 N   0  0  0  0  0  0  0  0  0  0  0  0
  190.0060  176.3250  143.2290 C   0  0  1  0  0  3  0  0  0  0  0  0
  188.6100  176.1890  143.6390 N   0  0  0  0  0  2  0  0  0  0  0  0
  191.3220  178.1360  143.6990 C   0  0  0  0  0  0  0  0  0  0  0  0
  189.9260  177.3890  142.2020 C   0  0  2  0  0  3  0  0  0  0  0  0
  192.1550  179.1560  144.3990 C   0  0  0  0  0  1  0  0  0  0  0  0
  192.1260  175.4810  145.5970 N   0  0  0  0  0  2  0  0  0  0  0  0
  191.2480  176.4290  145.5470 C   0  0  0  0  0  0  0  0  0  0  0  0
  190.7290  176.9920  146.8100 C   0  0  0  0  0  0  0  0  0  0  0  0
  189.3880  177.4640  146.9000 N   0  0  0  0  0  1  0  0  0  0  0  0
  191.4860  177.0970  147.8110 O   0  0  0  0  0  0  0  0  0  0  0  0
  188.0290  178.6690  141.0410 C   0  0  0  0  0  2  0  0  0  0  0  0
  186.6840  178.3060  140.4200 C   0  0  2  0  0  3  0  0  0  0  0  0
  186.7450  178.4560  139.0330 O   0  0  0  0  0  1  0  0  0  0  0  0
  185.5530  179.1510  141.0020 C   0  0  1  0  0  3  0  0  0  0  0  0
  184.7550  179.6800  139.9850 O   0  0  0  0  0  1  0  0  0  0  0  0
  184.7710  178.3820  141.8670 O   0  0  0  0  0  0  0  0  0  0  0  0
  184.8000  179.0770  143.0790 C   0  0  0  0  0  2  0  0  0  0  0  0
  183.5360  178.7960  143.8710 C   0  0  0  0  0  2  0  0  0  0  0  0
  183.8240  178.8650  145.3590 C   0  0  0  0  0  2  0  0  0  0  0  0
  185.3200  178.7700  145.6120 C   0  0  0  0  0  2  0  0  0  0  0  0
  185.6370  179.3210  146.9190 N   0  0  0  0  0  1  0  0  0  0  0  0
  1  6  1  0  0  0  0
  2 11  1  0  0  0  0
  3  7  1  0  0  0  0
  4  8  1  0  0  0  0
  4  1  1  0  0  0  0
  5  6  1  1  0  0  0
  5  2  1  0  0  0  0
  7  2  2  0  0  0  0
  7  9  1  0  0  0  0
  8  3  1  1  0  0  0
  8  5  1  0  0  0  0
 11 10  2  0  0  0  0
 11 12  1  0  0  0  0
 12 13  1  0  0  0  0
 12 14  2  0  0  0  0
 15  4  1  0  0  0  0
 16 17  1  6  0  0  0
 16 18  1  0  0  0  0
 16 15  1  0  0  0  0
 18 19  1  6  0  0  0
 18 20  1  0  0  0  0
 20 21  1  0  0  0  0
 21 22  1  0  0  0  0
 22 23  1  0  0  0  0
 23 24  1  0  0  0  0
 24 25  1  0  0  0  0
M  END
>  <MODEL>
4

>  <REMARK>
 VINA RESULT:      -6.5      2.551      6.314
  Name = 
  10 active torsions:
  status: ('A' for Active; 'I' for Inactive)
    1  A    between atoms: C_1  and  C_15
    2  A    between atoms: C_2  and  C_18
    3  A    between atoms: C_3  and  N_11
    4  A    between atoms: C_3  and  C_21
    5  A    between atoms: C_8  and  C_18
    6  A    between atoms: C_10  and  C_21
    7  A    between atoms: C_10  and  O_25
    8  A    between atoms: C_12  and  C_15
    9  A    between atoms: C_12  and  C_20
   10  A    between atoms: C_20  and  O_25
                            x       y       z     vdW  Elec       q    Type
                         _______ _______ _______ _____ _____    ______ ____

>  <TORSDO>
F 10

$$$$
=
 OpenBabel11032419203D

 25 26  0  0  1  0  0  0  0  0999 V2000
  186.3370  177.8670  143.9860 C   0  0  0  0  0  2  0  0  0  0  0  0
  189.5700  177.5450  144.8250 C   0  0  0  0  0  0  0  0  0  0  0  0
  189.2900  178.3300  142.7110 N   0  0  0  0  0  2  0  0  0  0  0  0
  186.9550  177.9790  142.7060 N   0  0  0  0  0  0  0  0  0  0  0  0
  188.3510  176.8870  144.2650 C   0  0  1  0  0  3  0  0  0  0  0  0
  187.0950  177.3100  144.8810 N   0  0  0  0  0  2  0  0  0  0  0  0
  190.1230  178.2770  143.8590 C   0  0  0  0  0  0  0  0  0  0  0  0
  188.2860  177.5480  142.9420 C   0  0  2  0  0  3  0  0  0  0  0  0
  191.3080  179.1680  144.0180 C   0  0  0  0  0  1  0  0  0  0  0  0
  189.3520  177.7110  147.1950 N   0  0  0  0  0  2  0  0  0  0  0  0
  190.0830  177.3400  146.1950 C   0  0  0  0  0  0  0  0  0  0  0  0
  191.3450  176.6200  146.4580 C   0  0  0  0  0  0  0  0  0  0  0  0
  191.9840  176.7090  147.7280 N   0  0  0  0  0  1  0  0  0  0  0  0
  191.8920  175.9510  145.5410 O   0  0  0  0  0  0  0  0  0  0  0  0
  186.5210  178.9020  141.6610 C   0  0  0  0  0  2  0  0  0  0  0  0
  186.6520  178.2720  140.2780 C   0  0  2  0  0  3  0  0  0  0  0  0
  187.8300  178.7080  139.6670 O   0  0  0  0  0  1  0  0  0  0  0  0
  185.4440  178.5890  139.4020 C   0  0  1  0  0  3  0  0  0  0  0  0
  184.7940  179.7420  139.8500 O   0  0  0  0  0  1  0  0  0  0  0  0
  185.8390  178.7550  138.0730 O   0  0  0  0  0  0  0  0  0  0  0  0
  185.3440  177.6260  137.4140 C   0  0  0  0  0  2  0  0  0  0  0  0
  186.2670  177.2430  136.2720 C   0  0  0  0  0  2  0  0  0  0  0  0
  187.5210  176.5810  136.8110 C   0  0  0  0  0  2  0  0  0  0  0  0
  188.7490  177.1090  136.0900 C   0  0  0  0  0  2  0  0  0  0  0  0
  189.0640  178.4470  136.5620 N   0  0  0  0  0  1  0  0  0  0  0  0
  1  6  1  0  0  0  0
  2 11  1  0  0  0  0
  3  7  1  0  0  0  0
  4  8  1  0  0  0  0
  4  1  1  0  0  0  0
  5  2  1  1  0  0  0
  5  6  1  0  0  0  0
  7  9  1  0  0  0  0
  7  2  2  0  0  0  0
  8  3  1  1  0  0  0
  8  5  1  0  0  0  0
 11 12  1  0  0  0  0
 11 10  2  0  0  0  0
 12 13  1  0  0  0  0
 14 12  2  0  0  0  0
 15  4  1  0  0  0  0
 16 17  1  6  0  0  0
 16 15  1  0  0  0  0
 18 19  1  1  0  0  0
 18 16  1  0  0  0  0
 20 18  1  0  0  0  0
 21 20  1  0  0  0  0
 22 23  1  0  0  0  0
 22 21  1  0  0  0  0
 24 25  1  0  0  0  0
 24 23  1  0  0  0  0
M  END
>  <MODEL>
5

>  <REMARK>
 VINA RESULT:      -6.4      2.647      7.955
  Name = 
  10 active torsions:
  status: ('A' for Active; 'I' for Inactive)
    1  A    between atoms: C_1  and  C_15
    2  A    between atoms: C_2  and  C_18
    3  A    between atoms: C_3  and  N_11
    4  A    between atoms: C_3  and  C_21
    5  A    between atoms: C_8  and  C_18
    6  A    between atoms: C_10  and  C_21
    7  A    between atoms: C_10  and  O_25
    8  A    between atoms: C_12  and  C_15
    9  A    between atoms: C_12  and  C_20
   10  A    between atoms: C_20  and  O_25
                            x       y       z     vdW  Elec       q    Type
                         _______ _______ _______ _____ _____    ______ ____

>  <TORSDO>
F 10

$$$$
=
 OpenBabel11032419203D

 25 26  0  0  1  0  0  0  0  0999 V2000
  186.5510  178.4930  141.3870 C   0  0  0  0  0  2  0  0  0  0  0  0
  189.7500  177.5110  141.6370 C   0  0  0  0  0  0  0  0  0  0  0  0
  188.5550  177.0800  143.5210 N   0  0  0  0  0  2  0  0  0  0  0  0
  186.6520  178.2740  142.7930 N   0  0  0  0  0  0  0  0  0  0  0  0
  188.7660  178.6220  141.8010 C   0  0  1  0  0  3  0  0  0  0  0  0
  187.7000  178.6440  140.8020 N   0  0  0  0  0  2  0  0  0  0  0  0
  189.6550  176.7160  142.7020 C   0  0  0  0  0  0  0  0  0  0  0  0
  188.0490  178.1560  143.0100 C   0  0  2  0  0  3  0  0  0  0  0  0
  190.3970  175.4370  142.8970 C   0  0  0  0  0  1  0  0  0  0  0  0
  191.9580  177.5640  140.7350 N   0  0  0  0  0  2  0  0  0  0  0  0
  190.6980  177.3850  140.5110 C   0  0  0  0  0  0  0  0  0  0  0  0
  190.2640  176.9460  139.1690 C   0  0  0  0  0  0  0  0  0  0  0  0
  190.5520  175.6300  138.7050 N   0  0  0  0  0  1  0  0  0  0  0  0
  189.6690  177.7510  138.4040 O   0  0  0  0  0  0  0  0  0  0  0  0
  185.6000  177.6770  143.6110 C   0  0  0  0  0  2  0  0  0  0  0  0
  185.0480  178.6800  144.6190 C   0  0  2  0  0  3  0  0  0  0  0  0
  184.8130  179.9050  143.9910 O   0  0  0  0  0  1  0  0  0  0  0  0
  185.9930  178.8570  145.8050 C   0  0  1  0  0  3  0  0  0  0  0  0
  185.3090  179.3610  146.9140 O   0  0  0  0  0  1  0  0  0  0  0  0
  186.5920  177.6380  146.1330 O   0  0  0  0  0  0  0  0  0  0  0  0
  187.4400  177.9390  147.2030 C   0  0  0  0  0  2  0  0  0  0  0  0
  188.4790  176.8450  147.3680 C   0  0  0  0  0  2  0  0  0  0  0  0
  189.7980  177.2810  146.7570 C   0  0  0  0  0  2  0  0  0  0  0  0
  190.9430  176.4710  147.3420 C   0  0  0  0  0  2  0  0  0  0  0  0
  192.0490  176.4240  146.4000 N   0  0  0  0  0  1  0  0  0  0  0  0
  1  4  1  0  0  0  0
  2  5  1  0  0  0  0
  2  7  2  0  0  0  0
  4  8  1  0  0  0  0
  4 15  1  0  0  0  0
  5  6  1  6  0  0  0
  5  8  1  0  0  0  0
  6  1  1  0  0  0  0
  7  9  1  0  0  0  0
  7  3  1  0  0  0  0
  8  3  1  6  0  0  0
 11 10  2  0  0  0  0
 11  2  1  0  0  0  0
 12 11  1  0  0  0  0
 13 12  1  0  0  0  0
 14 12  2  0  0  0  0
 15 16  1  0  0  0  0
 16 17  1  6  0  0  0
 16 18  1  0  0  0  0
 18 20  1  0  0  0  0
 18 19  1  1  0  0  0
 20 21  1  0  0  0  0
 21 22  1  0  0  0  0
 23 24  1  0  0  0  0
 23 22  1  0  0  0  0
 25 24  1  0  0  0  0
M  END
>  <MODEL>
6

>  <REMARK>
 VINA RESULT:      -6.3      2.530      4.424
  Name = 
  10 active torsions:
  status: ('A' for Active; 'I' for Inactive)
    1  A    between atoms: C_1  and  C_15
    2  A    between atoms: C_2  and  C_18
    3  A    between atoms: C_3  and  N_11
    4  A    between atoms: C_3  and  C_21
    5  A    between atoms: C_8  and  C_18
    6  A    between atoms: C_10  and  C_21
    7  A    between atoms: C_10  and  O_25
    8  A    between atoms: C_12  and  C_15
    9  A    between atoms: C_12  and  C_20
   10  A    between atoms: C_20  and  O_25
                            x       y       z     vdW  Elec       q    Type
                         _______ _______ _______ _____ _____    ______ ____

>  <TORSDO>
F 10

$$$$
=
 OpenBabel11032419203D

 25 26  0  0  1  0  0  0  0  0999 V2000
  186.9020  177.3900  143.3040 C   0  0  0  0  0  2  0  0  0  0  0  0
  186.1160  178.7110  140.3220 C   0  0  0  0  0  0  0  0  0  0  0  0
  188.2720  177.9990  140.4200 N   0  0  0  0  0  2  0  0  0  0  0  0
  188.2010  177.5610  142.7390 N   0  0  0  0  0  0  0  0  0  0  0  0
  186.6020  178.9610  141.7120 C   0  0  1  0  0  3  0  0  0  0  0  0
  185.9890  178.1130  142.7330 N   0  0  0  0  0  2  0  0  0  0  0  0
  187.1420  178.2580  139.6020 C   0  0  0  0  0  0  0  0  0  0  0  0
  187.9660  178.3920  141.6140 C   0  0  2  0  0  3  0  0  0  0  0  0
  187.0700  177.8000  138.1850 C   0  0  0  0  0  1  0  0  0  0  0  0
  184.5490  180.0360  139.1050 N   0  0  0  0  0  2  0  0  0  0  0  0
  184.7470  178.9940  139.8450 C   0  0  0  0  0  0  0  0  0  0  0  0
  183.6260  178.0640  140.0870 C   0  0  0  0  0  0  0  0  0  0  0  0
  182.8040  178.1980  141.2430 N   0  0  0  0  0  1  0  0  0  0  0  0
  183.4120  177.1130  139.2890 O   0  0  0  0  0  0  0  0  0  0  0  0
  189.2970  176.6080  142.8920 C   0  0  0  0  0  2  0  0  0  0  0  0
  190.4510  177.2150  143.6830 C   0  0  2  0  0  3  0  0  0  0  0  0
  191.6690  176.7840  143.1520 O   0  0  0  0  0  1  0  0  0  0  0  0
  190.3580  176.8650  145.1650 C   0  0  1  0  0  3  0  0  0  0  0  0
  191.6200  176.8900  145.7630 O   0  0  0  0  0  1  0  0  0  0  0  0
  189.5060  177.7570  145.8200 O   0  0  0  0  0  0  0  0  0  0  0  0
  189.5470  177.3640  147.1610 C   0  0  0  0  0  2  0  0  0  0  0  0
  188.2650  177.7730  147.8630 C   0  0  0  0  0  2  0  0  0  0  0  0
  187.1050  177.7600  146.8840 C   0  0  0  0  0  2  0  0  0  0  0  0
  186.0720  178.8040  147.2750 C   0  0  0  0  0  2  0  0  0  0  0  0
  184.9170  178.7100  146.3980 N   0  0  0  0  0  1  0  0  0  0  0  0
  4 15  1  0  0  0  0
  4  1  1  0  0  0  0
  5  2  1  6  0  0  0
  5  6  1  0  0  0  0
  6  1  1  0  0  0  0
  7  2  2  0  0  0  0
  7  3  1  0  0  0  0
  8  3  1  6  0  0  0
  8  5  1  0  0  0  0
  8  4  1  0  0  0  0
  9  7  1  0  0  0  0
 10 11  2  0  0  0  0
 11 12  1  0  0  0  0
 11  2  1  0  0  0  0
 12 13  1  0  0  0  0
 14 12  2  0  0  0  0
 15 16  1  0  0  0  0
 16 17  1  6  0  0  0
 16 18  1  0  0  0  0
 18 19  1  1  0  0  0
 18 20  1  0  0  0  0
 20 21  1  0  0  0  0
 21 22  1  0  0  0  0
 23 24  1  0  0  0  0
 23 22  1  0  0  0  0
 25 24  1  0  0  0  0
M  END
>  <MODEL>
7

>  <REMARK>
 VINA RESULT:      -6.3      2.403      3.335
  Name = 
  10 active torsions:
  status: ('A' for Active; 'I' for Inactive)
    1  A    between atoms: C_1  and  C_15
    2  A    between atoms: C_2  and  C_18
    3  A    between atoms: C_3  and  N_11
    4  A    between atoms: C_3  and  C_21
    5  A    between atoms: C_8  and  C_18
    6  A    between atoms: C_10  and  C_21
    7  A    between atoms: C_10  and  O_25
    8  A    between atoms: C_12  and  C_15
    9  A    between atoms: C_12  and  C_20
   10  A    between atoms: C_20  and  O_25
                            x       y       z     vdW  Elec       q    Type
                         _______ _______ _______ _____ _____    ______ ____

>  <TORSDO>
F 10

$$$$
=
 OpenBabel11032419203D

 25 26  0  0  1  0  0  0  0  0999 V2000
  186.4390  177.7520  143.9040 C   0  0  0  0  0  2  0  0  0  0  0  0
  189.6690  177.5530  144.7910 C   0  0  0  0  0  0  0  0  0  0  0  0
  189.3890  178.3810  142.6930 N   0  0  0  0  0  2  0  0  0  0  0  0
  187.0730  177.9260  142.6370 N   0  0  0  0  0  0  0  0  0  0  0  0
  188.4900  176.8570  144.1930 C   0  0  1  0  0  3  0  0  0  0  0  0
  187.2060  177.2060  144.7970 N   0  0  0  0  0  2  0  0  0  0  0  0
  190.2040  178.3340  143.8540 C   0  0  0  0  0  0  0  0  0  0  0  0
  188.4170  177.5490  142.8860 C   0  0  2  0  0  3  0  0  0  0  0  0
  191.3450  179.2730  144.0570 C   0  0  0  0  0  1  0  0  0  0  0  0
  189.4470  177.7360  147.1590 N   0  0  0  0  0  2  0  0  0  0  0  0
  190.1680  177.3350  146.1640 C   0  0  0  0  0  0  0  0  0  0  0  0
  191.4020  176.5710  146.4350 C   0  0  0  0  0  0  0  0  0  0  0  0
  192.0200  176.6170  147.7180 N   0  0  0  0  0  1  0  0  0  0  0  0
  191.9430  175.9010  145.5160 O   0  0  0  0  0  0  0  0  0  0  0  0
  186.6150  178.8560  141.6090 C   0  0  0  0  0  2  0  0  0  0  0  0
  186.7490  178.2500  140.2160 C   0  0  2  0  0  3  0  0  0  0  0  0
  187.9280  178.6960  139.6150 O   0  0  0  0  0  1  0  0  0  0  0  0
  185.5420  178.5820  139.3430 C   0  0  1  0  0  3  0  0  0  0  0  0
  184.8760  179.7120  139.8250 O   0  0  0  0  0  1  0  0  0  0  0  0
  185.9450  178.7970  138.0230 O   0  0  0  0  0  0  0  0  0  0  0  0
  185.6530  177.5990  137.3660 C   0  0  0  0  0  2  0  0  0  0  0  0
  184.1710  177.2900  137.4790 C   0  0  0  0  0  2  0  0  0  0  0  0
  183.9090  175.8430  137.1040 C   0  0  0  0  0  2  0  0  0  0  0  0
  183.1000  175.1540  138.1900 C   0  0  0  0  0  2  0  0  0  0  0  0
  182.8100  176.0930  139.2610 N   0  0  0  0  0  1  0  0  0  0  0  0
  1  6  1  0  0  0  0
  2 11  1  0  0  0  0
  3  7  1  0  0  0  0
  4  8  1  0  0  0  0
  4  1  1  0  0  0  0
  5  2  1  1  0  0  0
  5  6  1  0  0  0  0
  7  9  1  0  0  0  0
  7  2  2  0  0  0  0
  8  3  1  1  0  0  0
  8  5  1  0  0  0  0
 11 12  1  0  0  0  0
 11 10  2  0  0  0  0
 12 13  1  0  0  0  0
 14 12  2  0  0  0  0
 15  4  1  0  0  0  0
 16 17  1  6  0  0  0
 16 15  1  0  0  0  0
 18 19  1  1  0  0  0
 18 16  1  0  0  0  0
 20 18  1  0  0  0  0
 21 22  1  0  0  0  0
 21 20  1  0  0  0  0
 23 22  1  0  0  0  0
 23 24  1  0  0  0  0
 24 25  1  0  0  0  0
M  END
>  <MODEL>
8

>  <REMARK>
 VINA RESULT:      -6.2      3.090      7.718
  Name = 
  10 active torsions:
  status: ('A' for Active; 'I' for Inactive)
    1  A    between atoms: C_1  and  C_15
    2  A    between atoms: C_2  and  C_18
    3  A    between atoms: C_3  and  N_11
    4  A    between atoms: C_3  and  C_21
    5  A    between atoms: C_8  and  C_18
    6  A    between atoms: C_10  and  C_21
    7  A    between atoms: C_10  and  O_25
    8  A    between atoms: C_12  and  C_15
    9  A    between atoms: C_12  and  C_20
   10  A    between atoms: C_20  and  O_25
                            x       y       z     vdW  Elec       q    Type
                         _______ _______ _______ _____ _____    ______ ____

>  <TORSDO>
F 10

$$$$
=
 OpenBabel11032419203D

 25 26  0  0  1  0  0  0  0  0999 V2000
  188.3100  178.1780  140.2800 C   0  0  0  0  0  2  0  0  0  0  0  0
  189.3970  176.9340  137.3590 C   0  0  0  0  0  0  0  0  0  0  0  0
  190.4490  176.0080  139.1480 N   0  0  0  0  0  2  0  0  0  0  0  0
  189.4990  177.5110  140.7020 N   0  0  0  0  0  0  0  0  0  0  0  0
  189.5360  178.0020  138.3930 C   0  0  1  0  0  3  0  0  0  0  0  0
  188.2780  178.4250  139.0060 N   0  0  0  0  0  2  0  0  0  0  0  0
  190.0280  175.8470  137.8030 C   0  0  0  0  0  0  0  0  0  0  0  0
  190.1680  177.2260  139.4840 C   0  0  2  0  0  3  0  0  0  0  0  0
  190.0560  174.5220  137.1180 C   0  0  0  0  0  1  0  0  0  0  0  0
  189.4330  177.5060  135.0430 N   0  0  0  0  0  2  0  0  0  0  0  0
  188.7300  177.1080  136.0530 C   0  0  0  0  0  0  0  0  0  0  0  0
  187.3190  176.7280  135.8380 C   0  0  0  0  0  0  0  0  0  0  0  0
  186.2620  177.6030  136.2220 N   0  0  0  0  0  1  0  0  0  0  0  0
  187.0370  175.6020  135.3490 O   0  0  0  0  0  0  0  0  0  0  0  0
  189.6230  176.7620  141.9490 C   0  0  0  0  0  2  0  0  0  0  0  0
  190.5400  177.4790  142.9350 C   0  0  2  0  0  3  0  0  0  0  0  0
  191.8630  177.4050  142.4940 O   0  0  0  0  0  1  0  0  0  0  0  0
  190.4090  176.9000  144.3410 C   0  0  1  0  0  3  0  0  0  0  0  0
  191.1520  177.6490  145.2580 O   0  0  0  0  0  1  0  0  0  0  0  0
  189.0680  176.8710  144.7300 O   0  0  0  0  0  0  0  0  0  0  0  0
  189.0500  177.4910  145.9820 C   0  0  0  0  0  2  0  0  0  0  0  0
  187.6310  177.5440  146.5180 C   0  0  0  0  0  2  0  0  0  0  0  0
  186.6600  177.8700  145.3970 C   0  0  0  0  0  2  0  0  0  0  0  0
  185.7340  178.9990  145.8130 C   0  0  0  0  0  2  0  0  0  0  0  0
  184.9330  178.5880  146.9540 N   0  0  0  0  0  1  0  0  0  0  0  0
  1  4  1  0  0  0  0
  2  7  2  0  0  0  0
  4 15  1  0  0  0  0
  5  2  1  6  0  0  0
  5  6  1  0  0  0  0
  5  8  1  0  0  0  0
  6  1  1  0  0  0  0
  7  3  1  0  0  0  0
  8  3  1  6  0  0  0
  8  4  1  0  0  0  0
  9  7  1  0  0  0  0
 10 11  2  0  0  0  0
 11  2  1  0  0  0  0
 12 11  1  0  0  0  0
 12 13  1  0  0  0  0
 14 12  2  0  0  0  0
 15 16  1  0  0  0  0
 16 17  1  6  0  0  0
 16 18  1  0  0  0  0
 18 20  1  0  0  0  0
 18 19  1  1  0  0  0
 20 21  1  0  0  0  0
 21 22  1  0  0  0  0
 23 24  1  0  0  0  0
 23 22  1  0  0  0  0
 24 25  1  0  0  0  0
M  END
>  <MODEL>
9

>  <REMARK>
 VINA RESULT:      -6.1      1.904      3.090
  Name = 
  10 active torsions:
  status: ('A' for Active; 'I' for Inactive)
    1  A    between atoms: C_1  and  C_15
    2  A    between atoms: C_2  and  C_18
    3  A    between atoms: C_3  and  N_11
    4  A    between atoms: C_3  and  C_21
    5  A    between atoms: C_8  and  C_18
    6  A    between atoms: C_10  and  C_21
    7  A    between atoms: C_10  and  O_25
    8  A    between atoms: C_12  and  C_15
    9  A    between atoms: C_12  and  C_20
   10  A    between atoms: C_20  and  O_25
                            x       y       z     vdW  Elec       q    Type
                         _______ _______ _______ _____ _____    ______ ____

>  <TORSDO>
F 10

$$$$
