=
 OpenBabel11042413083D

 32 33  0  0  1  0  0  0  0  0999 V2000
  184.7450  179.3580  146.3450 O   0  0  0  0  0  0  0  0  0  0  0  0
  185.9510  178.1360  144.9950 C   0  0  0  0  0  0  0  0  0  0  0  0
  184.8830  178.9990  145.0900 C   0  0  0  0  0  0  0  0  0  0  0  0
  186.4030  178.0210  146.2920 C   0  0  0  0  0  0  0  0  0  0  0  0
  185.6400  178.7850  147.1000 N   0  0  0  0  0  0  0  0  0  0  0  0
  187.5140  177.1470  146.7730 C   0  0  0  0  0  2  0  0  0  0  0  0
  187.9930  177.5870  148.1450 C   0  0  0  0  0  2  0  0  0  0  0  0
  189.3220  178.0050  148.0770 O   0  0  0  0  0  0  0  0  0  0  0  0
  189.8800  177.2470  147.0490 C   0  0  0  0  0  2  0  0  0  0  0  0
  191.2350  176.7140  147.4820 C   0  0  0  0  0  2  0  0  0  0  0  0
  191.4890  176.9820  145.1760 C   0  0  0  0  0  1  0  0  0  0  0  0
  191.9660  176.2250  146.3230 N   0  0  0  0  0  2  0  0  0  0  0  0
  186.4520  177.4230  143.7850 C   0  0  0  0  0  2  0  0  0  0  0  0
  187.2650  178.3290  142.9880 N   0  0  0  0  0  2  0  0  0  0  0  0
  188.5010  177.6240  142.6880 C   0  0  1  0  0  3  0  0  0  0  0  0
  188.3840  176.1650  143.0970 C   0  0  0  0  0  1  0  0  0  0  0  0
  187.8790  178.3590  140.3110 C   0  0  0  0  0  0  0  0  0  0  0  0
  188.8600  177.7560  141.2310 C   0  0  0  0  0  0  0  0  0  0  0  0
  188.2540  178.6530  138.9640 N   0  0  0  0  0  0  0  0  0  0  0  0
  190.0690  177.3980  140.7530 C   0  0  0  0  0  0  0  0  0  0  0  0
  186.7250  178.6580  140.7130 O   0  0  0  0  0  0  0  0  0  0  0  0
  189.4110  178.3080  138.4840 C   0  0  0  0  0  3  0  0  0  0  0  0
  191.0350  176.8770  141.6090 O   0  0  0  0  0  1  0  0  0  0  0  0
  190.5910  176.1530  138.6740 C   0  0  0  0  0  1  0  0  0  0  0  0
  190.4190  177.5300  139.2870 C   0  0  2  0  0  3  0  0  0  0  0  0
  184.0290  179.4930  143.9680 C   0  0  0  0  0  2  0  0  0  0  0  0
  182.6680  178.8170  144.0100 C   0  0  0  0  0  2  0  0  0  0  0  0
  182.0890  178.8230  142.7360 O   0  0  0  0  0  0  0  0  0  0  0  0
  179.5290  178.1760  141.8670 O   0  0  0  0  0  0  0  0  0  0  0  0
  180.4270  179.0690  142.9930 P   0  0  0  0  0  0  0  0  0  0  0  0
  180.0480  178.6460  144.3950 O   0  0  0  0  0  1  0  0  0  0  0  0
  180.0760  180.7140  142.8020 O   0  0  0  0  0  1  0  0  0  0  0  0
  1  5  1  0  0  0  0
  2  3  2  0  0  0  0
  2  4  1  0  0  0  0
  3  1  1  0  0  0  0
  4  6  1  0  0  0  0
  4  5  2  0  0  0  0
  6  7  1  0  0  0  0
  8  7  1  0  0  0  0
  9 10  1  0  0  0  0
  9  8  1  0  0  0  0
 11 12  1  0  0  0  0
 12 10  1  0  0  0  0
 13  2  1  0  0  0  0
 14 13  1  0  0  0  0
 15 14  1  0  0  0  0
 15 16  1  6  0  0  0
 17 21  2  0  0  0  0
 17 18  1  0  0  0  0
 18 15  1  0  0  0  0
 19 17  1  0  0  0  0
 20 18  2  0  0  0  0
 20 23  1  0  0  0  0
 22 19  2  0  0  0  0
 22 25  1  0  0  0  0
 25 24  1  6  0  0  0
 25 20  1  0  0  0  0
 26 27  1  0  0  0  0
 26  3  1  0  0  0  0
 28 30  1  0  0  0  0
 28 27  1  0  0  0  0
 29 30  2  0  0  0  0
 30 31  1  0  0  0  0
 32 30  1  0  0  0  0
M  END
>  <MODEL>
1

>  <REMARK>
 VINA RESULT:      -7.7      0.000      0.000
  Name = 
  14 active torsions:
  status: ('A' for Active; 'I' for Inactive)
    1  A    between atoms: O_1  and  C_10
    2  A    between atoms: O_1  and  C_28
    3  A    between atoms: C_2  and  N_27
    4  A    between atoms: C_2  and  C_28
    5  A    between atoms: C_5  and  C_15
    6  A    between atoms: C_6  and  O_11
    7  A    between atoms: C_6  and  C_32
    8  A    between atoms: C_7  and  C_17
    9  A    between atoms: C_10  and  C_13
   10  A    between atoms: O_11  and  P_26
   11  A    between atoms: C_13  and  C_22
   12  A    between atoms: C_15  and  N_25
   13  A    between atoms: C_17  and  N_25
   14  A    between atoms: C_21  and  C_32
                            x       y       z     vdW  Elec       q    Type
                         _______ _______ _______ _____ _____    ______ ____

>  <TORSDO>
F 14

$$$$
=
 OpenBabel11042413083D

 32 33  0  0  1  0  0  0  0  0999 V2000
  185.7020  178.8790  147.1120 O   0  0  0  0  0  0  0  0  0  0  0  0
  186.4480  177.8770  145.3200 C   0  0  0  0  0  0  0  0  0  0  0  0
  186.6700  178.1170  146.6580 C   0  0  0  0  0  0  0  0  0  0  0  0
  185.2890  178.5690  145.0460 C   0  0  0  0  0  0  0  0  0  0  0  0
  184.8540  179.1760  146.1690 N   0  0  0  0  0  0  0  0  0  0  0  0
  184.6280  178.7050  143.7140 C   0  0  0  0  0  2  0  0  0  0  0  0
  183.1890  179.1640  143.8680 C   0  0  0  0  0  2  0  0  0  0  0  0
  182.4710  178.8900  142.7040 O   0  0  0  0  0  0  0  0  0  0  0  0
  183.4270  178.4390  141.7960 C   0  0  0  0  0  2  0  0  0  0  0  0
  182.7390  177.8720  140.5660 C   0  0  0  0  0  2  0  0  0  0  0  0
  184.1650  179.4020  139.5280 C   0  0  0  0  0  1  0  0  0  0  0  0
  183.5740  178.0790  139.3930 N   0  0  0  0  0  2  0  0  0  0  0  0
  187.3070  177.1170  144.3680 C   0  0  0  0  0  2  0  0  0  0  0  0
  187.9460  178.0420  143.4440 N   0  0  0  0  0  2  0  0  0  0  0  0
  189.0700  177.3320  142.8560 C   0  0  1  0  0  3  0  0  0  0  0  0
  188.9450  175.8410  143.1210 C   0  0  0  0  0  1  0  0  0  0  0  0
  188.0090  178.1700  140.6770 C   0  0  0  0  0  0  0  0  0  0  0  0
  189.1810  177.6170  141.3810 C   0  0  0  0  0  0  0  0  0  0  0  0
  188.1350  178.6090  139.3220 N   0  0  0  0  0  0  0  0  0  0  0  0
  190.3300  177.4420  140.6970 C   0  0  0  0  0  0  0  0  0  0  0  0
  186.9080  178.2990  141.2710 O   0  0  0  0  0  0  0  0  0  0  0  0
  189.2320  178.4410  138.6470 C   0  0  0  0  0  3  0  0  0  0  0  0
  191.4680  176.9740  141.3490 O   0  0  0  0  0  1  0  0  0  0  0  0
  190.6450  176.4320  138.4560 C   0  0  0  0  0  1  0  0  0  0  0  0
  190.4300  177.7270  139.2160 C   0  0  2  0  0  3  0  0  0  0  0  0
  187.7920  177.5850  147.4890 C   0  0  0  0  0  2  0  0  0  0  0  0
  189.0970  177.6560  146.7130 C   0  0  0  0  0  2  0  0  0  0  0  0
  189.6980  176.3940  146.6670 O   0  0  0  0  0  0  0  0  0  0  0  0
  192.1450  175.3090  145.9140 O   0  0  0  0  0  1  0  0  0  0  0  0
  191.3650  176.6890  146.5140 P   0  0  0  0  0  0  0  0  0  0  0  0
  191.6040  177.8530  145.5770 O   0  0  0  0  0  0  0  0  0  0  0  0
  192.0020  177.0680  148.0350 O   0  0  0  0  0  1  0  0  0  0  0  0
  2  3  2  0  0  0  0
  3  1  1  0  0  0  0
  3 26  1  0  0  0  0
  4  2  1  0  0  0  0
  4  5  2  0  0  0  0
  5  1  1  0  0  0  0
  6  7  1  0  0  0  0
  6  4  1  0  0  0  0
  8  7  1  0  0  0  0
  9  8  1  0  0  0  0
 10  9  1  0  0  0  0
 12 11  1  0  0  0  0
 12 10  1  0  0  0  0
 13  2  1  0  0  0  0
 14 13  1  0  0  0  0
 15 16  1  6  0  0  0
 15 14  1  0  0  0  0
 17 21  2  0  0  0  0
 17 18  1  0  0  0  0
 18 15  1  0  0  0  0
 19 17  1  0  0  0  0
 20 23  1  0  0  0  0
 20 18  2  0  0  0  0
 22 25  1  0  0  0  0
 22 19  2  0  0  0  0
 25 24  1  6  0  0  0
 25 20  1  0  0  0  0
 27 26  1  0  0  0  0
 28 27  1  0  0  0  0
 29 30  1  0  0  0  0
 30 28  1  0  0  0  0
 30 32  1  0  0  0  0
 31 30  2  0  0  0  0
M  END
>  <MODEL>
2

>  <REMARK>
 VINA RESULT:      -7.1      2.794      6.526
  Name = 
  14 active torsions:
  status: ('A' for Active; 'I' for Inactive)
    1  A    between atoms: O_1  and  C_10
    2  A    between atoms: O_1  and  C_28
    3  A    between atoms: C_2  and  N_27
    4  A    between atoms: C_2  and  C_28
    5  A    between atoms: C_5  and  C_15
    6  A    between atoms: C_6  and  O_11
    7  A    between atoms: C_6  and  C_32
    8  A    between atoms: C_7  and  C_17
    9  A    between atoms: C_10  and  C_13
   10  A    between atoms: O_11  and  P_26
   11  A    between atoms: C_13  and  C_22
   12  A    between atoms: C_15  and  N_25
   13  A    between atoms: C_17  and  N_25
   14  A    between atoms: C_21  and  C_32
                            x       y       z     vdW  Elec       q    Type
                         _______ _______ _______ _____ _____    ______ ____

>  <TORSDO>
F 14

$$$$
=
 OpenBabel11042413083D

 32 33  0  0  1  0  0  0  0  0999 V2000
  184.5170  179.2160  145.6460 O   0  0  0  0  0  0  0  0  0  0  0  0
  185.9890  177.9280  144.6730 C   0  0  0  0  0  0  0  0  0  0  0  0
  184.8390  178.6650  144.4980 C   0  0  0  0  0  0  0  0  0  0  0  0
  186.2890  178.0910  146.0080 C   0  0  0  0  0  0  0  0  0  0  0  0
  185.3650  178.8890  146.5810 N   0  0  0  0  0  0  0  0  0  0  0  0
  187.4130  177.4480  146.7520 C   0  0  0  0  0  2  0  0  0  0  0  0
  187.6260  178.1200  148.0970 C   0  0  0  0  0  2  0  0  0  0  0  0
  188.9320  177.9080  148.5360 O   0  0  0  0  0  0  0  0  0  0  0  0
  189.6870  177.8030  147.3680 C   0  0  0  0  0  2  0  0  0  0  0  0
  190.9760  177.0520  147.6570 C   0  0  0  0  0  2  0  0  0  0  0  0
  192.4380  175.4130  146.8660 C   0  0  0  0  0  1  0  0  0  0  0  0
  191.4360  176.3820  146.4510 N   0  0  0  0  0  2  0  0  0  0  0  0
  186.6980  177.0810  143.6720 C   0  0  0  0  0  2  0  0  0  0  0  0
  188.1230  177.0710  143.9660 N   0  0  0  0  0  2  0  0  0  0  0  0
  188.7130  178.1580  143.2010 C   0  0  1  0  0  3  0  0  0  0  0  0
  189.9390  178.6980  143.9190 C   0  0  0  0  0  1  0  0  0  0  0  0
  190.1690  176.7760  141.6060 C   0  0  0  0  0  0  0  0  0  0  0  0
  189.0500  177.7150  141.8010 C   0  0  0  0  0  0  0  0  0  0  0  0
  190.4030  176.2070  140.3150 N   0  0  0  0  0  0  0  0  0  0  0  0
  188.3260  178.1000  140.7310 C   0  0  0  0  0  0  0  0  0  0  0  0
  190.8960  176.4360  142.5740 O   0  0  0  0  0  0  0  0  0  0  0  0
  189.7200  176.5720  139.2720 C   0  0  0  0  0  3  0  0  0  0  0  0
  187.2290  178.9430  140.8930 O   0  0  0  0  0  1  0  0  0  0  0  0
  189.1420  178.8430  138.5120 C   0  0  0  0  0  1  0  0  0  0  0  0
  188.6740  177.6540  139.3280 C   0  0  2  0  0  3  0  0  0  0  0  0
  184.0830  178.8570  143.2240 C   0  0  0  0  0  2  0  0  0  0  0  0
  182.7010  179.4170  143.5150 C   0  0  0  0  0  2  0  0  0  0  0  0
  181.8470  178.3950  143.9420 O   0  0  0  0  0  0  0  0  0  0  0  0
  180.3680  180.3400  142.6170 O   0  0  0  0  0  1  0  0  0  0  0  0
  180.2950  178.8510  143.4220 P   0  0  0  0  0  0  0  0  0  0  0  0
  179.7270  177.8000  142.4930 O   0  0  0  0  0  0  0  0  0  0  0  0
  179.2810  178.9980  144.7700 O   0  0  0  0  0  1  0  0  0  0  0  0
  1  5  1  0  0  0  0
  2  4  1  0  0  0  0
  3  2  2  0  0  0  0
  3  1  1  0  0  0  0
  4  5  2  0  0  0  0
  4  6  1  0  0  0  0
  6  7  1  0  0  0  0
  7  8  1  0  0  0  0
  9 10  1  0  0  0  0
  9  8  1  0  0  0  0
 12 11  1  0  0  0  0
 12 10  1  0  0  0  0
 13 14  1  0  0  0  0
 13  2  1  0  0  0  0
 15 16  1  1  0  0  0
 15 14  1  0  0  0  0
 17 18  1  0  0  0  0
 17 21  2  0  0  0  0
 18 15  1  0  0  0  0
 19 17  1  0  0  0  0
 20 23  1  0  0  0  0
 20 18  2  0  0  0  0
 22 25  1  0  0  0  0
 22 19  2  0  0  0  0
 25 24  1  6  0  0  0
 25 20  1  0  0  0  0
 26 27  1  0  0  0  0
 26  3  1  0  0  0  0
 27 28  1  0  0  0  0
 29 30  1  0  0  0  0
 30 28  1  0  0  0  0
 30 32  1  0  0  0  0
 31 30  2  0  0  0  0
M  END
>  <MODEL>
3

>  <REMARK>
 VINA RESULT:      -7.1      1.145      2.028
  Name = 
  14 active torsions:
  status: ('A' for Active; 'I' for Inactive)
    1  A    between atoms: O_1  and  C_10
    2  A    between atoms: O_1  and  C_28
    3  A    between atoms: C_2  and  N_27
    4  A    between atoms: C_2  and  C_28
    5  A    between atoms: C_5  and  C_15
    6  A    between atoms: C_6  and  O_11
    7  A    between atoms: C_6  and  C_32
    8  A    between atoms: C_7  and  C_17
    9  A    between atoms: C_10  and  C_13
   10  A    between atoms: O_11  and  P_26
   11  A    between atoms: C_13  and  C_22
   12  A    between atoms: C_15  and  N_25
   13  A    between atoms: C_17  and  N_25
   14  A    between atoms: C_21  and  C_32
                            x       y       z     vdW  Elec       q    Type
                         _______ _______ _______ _____ _____    ______ ____

>  <TORSDO>
F 14

$$$$
=
 OpenBabel11042413083D

 32 33  0  0  1  0  0  0  0  0999 V2000
  187.1680  178.3660  138.8750 O   0  0  0  0  0  0  0  0  0  0  0  0
  188.1150  178.4690  140.8410 C   0  0  0  0  0  0  0  0  0  0  0  0
  188.3260  178.2980  139.4910 C   0  0  0  0  0  0  0  0  0  0  0  0
  186.7510  178.6260  140.9480 C   0  0  0  0  0  0  0  0  0  0  0  0
  186.1950  178.5580  139.7210 N   0  0  0  0  0  0  0  0  0  0  0  0
  185.9690  178.7810  142.2110 C   0  0  0  0  0  2  0  0  0  0  0  0
  184.4790  178.6680  141.9420 C   0  0  0  0  0  2  0  0  0  0  0  0
  183.8020  178.3610  143.1220 O   0  0  0  0  0  0  0  0  0  0  0  0
  184.1760  179.3620  144.0170 C   0  0  0  0  0  2  0  0  0  0  0  0
  183.8130  178.9460  145.4320 C   0  0  0  0  0  2  0  0  0  0  0  0
  185.8470  178.0490  146.1450 C   0  0  0  0  0  1  0  0  0  0  0  0
  184.9430  179.1750  146.3190 N   0  0  0  0  0  2  0  0  0  0  0  0
  189.1190  178.4100  141.9420 C   0  0  0  0  0  2  0  0  0  0  0  0
  189.0000  177.1400  142.6420 N   0  0  0  0  0  2  0  0  0  0  0  0
  190.3550  176.6900  142.9210 C   0  0  1  0  0  3  0  0  0  0  0  0
  191.3600  177.5960  142.2280 C   0  0  0  0  0  1  0  0  0  0  0  0
  191.6630  175.7230  144.9020 C   0  0  0  0  0  0  0  0  0  0  0  0
  190.6100  176.6250  144.4040 C   0  0  0  0  0  0  0  0  0  0  0  0
  192.0440  175.7650  146.2790 N   0  0  0  0  0  0  0  0  0  0  0  0
  189.9520  177.4080  145.2830 C   0  0  0  0  0  0  0  0  0  0  0  0
  192.2620  174.9430  144.1170 O   0  0  0  0  0  0  0  0  0  0  0  0
  191.4160  176.5070  147.1400 C   0  0  0  0  0  3  0  0  0  0  0  0
  188.9910  178.3100  144.8340 O   0  0  0  0  0  1  0  0  0  0  0  0
  188.9900  176.7790  147.4790 C   0  0  0  0  0  1  0  0  0  0  0  0
  190.2120  177.3330  146.7710 C   0  0  2  0  0  3  0  0  0  0  0  0
  189.6400  178.1050  138.8080 C   0  0  0  0  0  2  0  0  0  0  0  0
  189.9170  176.6230  138.6160 C   0  0  0  0  0  2  0  0  0  0  0  0
  191.2610  176.3450  138.8910 O   0  0  0  0  0  0  0  0  0  0  0  0
  193.4030  174.8950  137.8730 O   0  0  0  0  0  1  0  0  0  0  0  0
  191.7740  175.3060  137.6480 P   0  0  0  0  0  0  0  0  0  0  0  0
  190.9310  174.0490  137.6390 O   0  0  0  0  0  1  0  0  0  0  0  0
  191.6010  176.0940  136.1600 O   0  0  0  0  0  0  0  0  0  0  0  0
  1  3  1  0  0  0  0
  1  5  1  0  0  0  0
  2  4  1  0  0  0  0
  2 13  1  0  0  0  0
  3  2  2  0  0  0  0
  4  6  1  0  0  0  0
  5  4  2  0  0  0  0
  7  6  1  0  0  0  0
  7  8  1  0  0  0  0
  8  9  1  0  0  0  0
  9 10  1  0  0  0  0
 10 12  1  0  0  0  0
 11 12  1  0  0  0  0
 13 14  1  0  0  0  0
 14 15  1  0  0  0  0
 15 16  1  6  0  0  0
 15 18  1  0  0  0  0
 17 19  1  0  0  0  0
 18 17  1  0  0  0  0
 18 20  2  0  0  0  0
 19 22  2  0  0  0  0
 20 25  1  0  0  0  0
 21 17  2  0  0  0  0
 23 20  1  0  0  0  0
 25 22  1  0  0  0  0
 25 24  1  1  0  0  0
 26  3  1  0  0  0  0
 27 26  1  0  0  0  0
 27 28  1  0  0  0  0
 30 29  1  0  0  0  0
 30 28  1  0  0  0  0
 31 30  1  0  0  0  0
 32 30  2  0  0  0  0
M  END
>  <MODEL>
4

>  <REMARK>
 VINA RESULT:      -7.1      3.204      8.005
  Name = 
  14 active torsions:
  status: ('A' for Active; 'I' for Inactive)
    1  A    between atoms: O_1  and  C_10
    2  A    between atoms: O_1  and  C_28
    3  A    between atoms: C_2  and  N_27
    4  A    between atoms: C_2  and  C_28
    5  A    between atoms: C_5  and  C_15
    6  A    between atoms: C_6  and  O_11
    7  A    between atoms: C_6  and  C_32
    8  A    between atoms: C_7  and  C_17
    9  A    between atoms: C_10  and  C_13
   10  A    between atoms: O_11  and  P_26
   11  A    between atoms: C_13  and  C_22
   12  A    between atoms: C_15  and  N_25
   13  A    between atoms: C_17  and  N_25
   14  A    between atoms: C_21  and  C_32
                            x       y       z     vdW  Elec       q    Type
                         _______ _______ _______ _____ _____    ______ ____

>  <TORSDO>
F 14

$$$$
=
 OpenBabel11042413083D

 32 33  0  0  1  0  0  0  0  0999 V2000
  186.5350  178.5940  146.6210 O   0  0  0  0  0  0  0  0  0  0  0  0
  186.3750  177.9240  144.5480 C   0  0  0  0  0  0  0  0  0  0  0  0
  187.0930  177.8200  145.7190 C   0  0  0  0  0  0  0  0  0  0  0  0
  185.3760  178.8240  144.8480 C   0  0  0  0  0  0  0  0  0  0  0  0
  185.5010  179.2190  146.1320 N   0  0  0  0  0  0  0  0  0  0  0  0
  184.3430  179.3530  143.9080 C   0  0  0  0  0  2  0  0  0  0  0  0
  182.9630  178.8360  144.2750 C   0  0  0  0  0  2  0  0  0  0  0  0
  181.9850  179.5610  143.5960 O   0  0  0  0  0  0  0  0  0  0  0  0
  180.8300  178.7890  143.7070 C   0  0  0  0  0  2  0  0  0  0  0  0
  179.8330  179.2010  142.6370 C   0  0  0  0  0  2  0  0  0  0  0  0
  179.5320  180.9420  141.1100 C   0  0  0  0  0  1  0  0  0  0  0  0
  179.8190  180.6490  142.5060 N   0  0  0  0  0  2  0  0  0  0  0  0
  186.6620  177.2790  143.2350 C   0  0  0  0  0  2  0  0  0  0  0  0
  188.0870  177.0020  143.1300 N   0  0  0  0  0  2  0  0  0  0  0  0
  188.6700  178.1010  142.3770 C   0  0  1  0  0  3  0  0  0  0  0  0
  189.8620  178.6740  143.1260 C   0  0  0  0  0  1  0  0  0  0  0  0
  190.2520  176.8190  140.8190 C   0  0  0  0  0  0  0  0  0  0  0  0
  189.0560  177.6630  140.9890 C   0  0  0  0  0  0  0  0  0  0  0  0
  190.5450  176.2490  139.5420 N   0  0  0  0  0  0  0  0  0  0  0  0
  188.3110  177.9660  139.9060 C   0  0  0  0  0  0  0  0  0  0  0  0
  190.9960  176.5600  141.8000 O   0  0  0  0  0  0  0  0  0  0  0  0
  189.8440  176.5350  138.4870 C   0  0  0  0  0  3  0  0  0  0  0  0
  187.1460  178.7150  140.0440 O   0  0  0  0  0  1  0  0  0  0  0  0
  189.0820  178.7350  137.6790 C   0  0  0  0  0  1  0  0  0  0  0  0
  188.7090  177.5250  138.5150 C   0  0  2  0  0  3  0  0  0  0  0  0
  188.2840  176.9530  145.9650 C   0  0  0  0  0  2  0  0  0  0  0  0
  189.3310  177.7160  146.7600 C   0  0  0  0  0  2  0  0  0  0  0  0
  189.8060  176.9260  147.8120 O   0  0  0  0  0  0  0  0  0  0  0  0
  191.8110  177.2290  145.9100 O   0  0  0  0  0  0  0  0  0  0  0  0
  191.4300  176.5950  147.4350 P   0  0  0  0  0  0  0  0  0  0  0  0
  192.3410  177.2020  148.4780 O   0  0  0  0  0  1  0  0  0  0  0  0
  191.6610  174.9180  147.4120 O   0  0  0  0  0  1  0  0  0  0  0  0
  2  4  1  0  0  0  0
  2  3  2  0  0  0  0
  3 26  1  0  0  0  0
  3  1  1  0  0  0  0
  4  5  2  0  0  0  0
  5  1  1  0  0  0  0
  6  7  1  0  0  0  0
  6  4  1  0  0  0  0
  8  9  1  0  0  0  0
  8  7  1  0  0  0  0
 10  9  1  0  0  0  0
 11 12  1  0  0  0  0
 12 10  1  0  0  0  0
 13  2  1  0  0  0  0
 14 13  1  0  0  0  0
 15 16  1  1  0  0  0
 15 14  1  0  0  0  0
 17 18  1  0  0  0  0
 17 21  2  0  0  0  0
 18 15  1  0  0  0  0
 19 17  1  0  0  0  0
 20 23  1  0  0  0  0
 20 18  2  0  0  0  0
 22 25  1  0  0  0  0
 22 19  2  0  0  0  0
 25 24  1  6  0  0  0
 25 20  1  0  0  0  0
 26 27  1  0  0  0  0
 27 28  1  0  0  0  0
 29 30  2  0  0  0  0
 30 28  1  0  0  0  0
 30 31  1  0  0  0  0
 32 30  1  0  0  0  0
M  END
>  <MODEL>
5

>  <REMARK>
 VINA RESULT:      -7.0      3.124      7.312
  Name = 
  14 active torsions:
  status: ('A' for Active; 'I' for Inactive)
    1  A    between atoms: O_1  and  C_10
    2  A    between atoms: O_1  and  C_28
    3  A    between atoms: C_2  and  N_27
    4  A    between atoms: C_2  and  C_28
    5  A    between atoms: C_5  and  C_15
    6  A    between atoms: C_6  and  O_11
    7  A    between atoms: C_6  and  C_32
    8  A    between atoms: C_7  and  C_17
    9  A    between atoms: C_10  and  C_13
   10  A    between atoms: O_11  and  P_26
   11  A    between atoms: C_13  and  C_22
   12  A    between atoms: C_15  and  N_25
   13  A    between atoms: C_17  and  N_25
   14  A    between atoms: C_21  and  C_32
                            x       y       z     vdW  Elec       q    Type
                         _______ _______ _______ _____ _____    ______ ____

>  <TORSDO>
F 14

$$$$
=
 OpenBabel11042413083D

 32 33  0  0  1  0  0  0  0  0999 V2000
  188.0840  176.8350  144.6000 O   0  0  0  0  0  0  0  0  0  0  0  0
  188.2880  177.6600  142.5880 C   0  0  0  0  0  0  0  0  0  0  0  0
  188.9640  177.2170  143.7030 C   0  0  0  0  0  0  0  0  0  0  0  0
  186.9600  177.5140  142.9220 C   0  0  0  0  0  0  0  0  0  0  0  0
  186.8660  177.0040  144.1680 N   0  0  0  0  0  0  0  0  0  0  0  0
  185.7840  177.9090  142.0910 C   0  0  0  0  0  2  0  0  0  0  0  0
  184.9450  178.9540  142.8040 C   0  0  0  0  0  2  0  0  0  0  0  0
  183.7430  178.3920  143.2330 O   0  0  0  0  0  0  0  0  0  0  0  0
  183.3250  179.2070  144.2840 C   0  0  0  0  0  2  0  0  0  0  0  0
  184.5100  179.5410  145.1760 C   0  0  0  0  0  2  0  0  0  0  0  0
  185.8100  178.8620  146.9920 C   0  0  0  0  0  1  0  0  0  0  0  0
  184.5490  178.6270  146.3070 N   0  0  0  0  0  2  0  0  0  0  0  0
  188.8590  178.2440  141.3400 C   0  0  0  0  0  2  0  0  0  0  0  0
  189.0560  177.1900  140.3560 N   0  0  0  0  0  2  0  0  0  0  0  0
  190.0840  177.6620  139.4420 C   0  0  1  0  0  3  0  0  0  0  0  0
  191.4440  177.1290  139.8630 C   0  0  0  0  0  1  0  0  0  0  0  0
  189.2040  178.3030  137.1200 C   0  0  0  0  0  0  0  0  0  0  0  0
  189.7630  177.2790  138.0210 C   0  0  0  0  0  0  0  0  0  0  0  0
  189.0500  178.0190  135.7280 N   0  0  0  0  0  0  0  0  0  0  0  0
  190.0270  176.0510  137.5290 C   0  0  0  0  0  0  0  0  0  0  0  0
  188.8990  179.4420  137.5580 O   0  0  0  0  0  0  0  0  0  0  0  0
  189.2920  176.8400  135.2390 C   0  0  0  0  0  3  0  0  0  0  0  0
  190.6070  175.0810  138.3420 O   0  0  0  0  0  1  0  0  0  0  0  0
  188.5950  174.6340  136.0870 C   0  0  0  0  0  1  0  0  0  0  0  0
  189.6980  175.6740  136.1020 C   0  0  2  0  0  3  0  0  0  0  0  0
  190.4450  177.1360  143.8790 C   0  0  0  0  0  2  0  0  0  0  0  0
  190.8540  177.8020  145.1830 C   0  0  0  0  0  2  0  0  0  0  0  0
  191.9150  177.1030  145.7680 O   0  0  0  0  0  0  0  0  0  0  0  0
  192.0560  177.5000  148.5160 O   0  0  0  0  0  1  0  0  0  0  0  0
  191.3400  176.5860  147.2810 P   0  0  0  0  0  0  0  0  0  0  0  0
  189.8360  176.7370  147.3460 O   0  0  0  0  0  0  0  0  0  0  0  0
  191.7380  174.9550  147.4960 O   0  0  0  0  0  1  0  0  0  0  0  0
  2  4  1  0  0  0  0
  2  3  2  0  0  0  0
  3 26  1  0  0  0  0
  3  1  1  0  0  0  0
  4  5  2  0  0  0  0
  5  1  1  0  0  0  0
  6  7  1  0  0  0  0
  6  4  1  0  0  0  0
  7  8  1  0  0  0  0
  8  9  1  0  0  0  0
  9 10  1  0  0  0  0
 10 12  1  0  0  0  0
 12 11  1  0  0  0  0
 13  2  1  0  0  0  0
 14 13  1  0  0  0  0
 15 16  1  1  0  0  0
 15 14  1  0  0  0  0
 17 21  2  0  0  0  0
 17 18  1  0  0  0  0
 18 15  1  0  0  0  0
 19 17  1  0  0  0  0
 20 18  2  0  0  0  0
 20 23  1  0  0  0  0
 22 19  2  0  0  0  0
 22 25  1  0  0  0  0
 25 24  1  1  0  0  0
 25 20  1  0  0  0  0
 26 27  1  0  0  0  0
 27 28  1  0  0  0  0
 28 30  1  0  0  0  0
 30 31  2  0  0  0  0
 30 32  1  0  0  0  0
 30 29  1  0  0  0  0
M  END
>  <MODEL>
6

>  <REMARK>
 VINA RESULT:      -6.8      3.205      6.743
  Name = 
  14 active torsions:
  status: ('A' for Active; 'I' for Inactive)
    1  A    between atoms: O_1  and  C_10
    2  A    between atoms: O_1  and  C_28
    3  A    between atoms: C_2  and  N_27
    4  A    between atoms: C_2  and  C_28
    5  A    between atoms: C_5  and  C_15
    6  A    between atoms: C_6  and  O_11
    7  A    between atoms: C_6  and  C_32
    8  A    between atoms: C_7  and  C_17
    9  A    between atoms: C_10  and  C_13
   10  A    between atoms: O_11  and  P_26
   11  A    between atoms: C_13  and  C_22
   12  A    between atoms: C_15  and  N_25
   13  A    between atoms: C_17  and  N_25
   14  A    between atoms: C_21  and  C_32
                            x       y       z     vdW  Elec       q    Type
                         _______ _______ _______ _____ _____    ______ ____

>  <TORSDO>
F 14

$$$$
=
 OpenBabel11042413083D

 32 33  0  0  1  0  0  0  0  0999 V2000
  189.7290  178.1210  138.2510 O   0  0  0  0  0  0  0  0  0  0  0  0
  189.7460  177.4620  140.3330 C   0  0  0  0  0  0  0  0  0  0  0  0
  190.3960  177.3990  139.1210 C   0  0  0  0  0  0  0  0  0  0  0  0
  188.6530  178.2620  140.0830 C   0  0  0  0  0  0  0  0  0  0  0  0
  188.6690  178.6530  138.7920 N   0  0  0  0  0  0  0  0  0  0  0  0
  187.5650  178.6090  141.0460 C   0  0  0  0  0  2  0  0  0  0  0  0
  186.2050  178.5360  140.3760 C   0  0  0  0  0  2  0  0  0  0  0  0
  185.3620  179.5180  140.8950 O   0  0  0  0  0  0  0  0  0  0  0  0
  184.2710  178.8160  141.4050 C   0  0  0  0  0  2  0  0  0  0  0  0
  184.5180  178.4740  142.8650 C   0  0  0  0  0  2  0  0  0  0  0  0
  183.8750  178.9980  145.0470 C   0  0  0  0  0  1  0  0  0  0  0  0
  183.4000  178.9330  143.6740 N   0  0  0  0  0  2  0  0  0  0  0  0
  190.0940  176.7570  141.6000 C   0  0  0  0  0  2  0  0  0  0  0  0
  190.0000  177.6880  142.7150 N   0  0  0  0  0  2  0  0  0  0  0  0
  188.9810  177.1630  143.6100 C   0  0  1  0  0  3  0  0  0  0  0  0
  188.6260  175.7380  143.2190 C   0  0  0  0  0  1  0  0  0  0  0  0
  190.7870  176.7830  145.3900 C   0  0  0  0  0  0  0  0  0  0  0  0
  189.4290  177.2400  145.0460 C   0  0  0  0  0  0  0  0  0  0  0  0
  191.2990  177.0010  146.7070 N   0  0  0  0  0  0  0  0  0  0  0  0
  188.6530  177.7700  146.0140 C   0  0  0  0  0  0  0  0  0  0  0  0
  191.5170  176.2380  144.5230 O   0  0  0  0  0  0  0  0  0  0  0  0
  190.5640  177.5020  147.6530 C   0  0  0  0  0  3  0  0  0  0  0  0
  187.3870  178.2610  145.7070 O   0  0  0  0  0  1  0  0  0  0  0  0
  188.2620  176.9150  148.3070 C   0  0  0  0  0  1  0  0  0  0  0  0
  189.1090  177.8390  147.4540 C   0  0  2  0  0  3  0  0  0  0  0  0
  191.6680  176.6740  138.8230 C   0  0  0  0  0  2  0  0  0  0  0  0
  191.4410  175.6520  137.7210 C   0  0  0  0  0  2  0  0  0  0  0  0
  190.3110  174.8780  138.0070 O   0  0  0  0  0  0  0  0  0  0  0  0
  190.2520  173.3760  135.6680 O   0  0  0  0  0  1  0  0  0  0  0  0
  189.5260  174.6510  136.5170 P   0  0  0  0  0  0  0  0  0  0  0  0
  188.0620  174.3420  136.7410 O   0  0  0  0  0  1  0  0  0  0  0  0
  189.6540  176.0700  135.6020 O   0  0  0  0  0  0  0  0  0  0  0  0
  1  5  1  0  0  0  0
  1  3  1  0  0  0  0
  2 13  1  0  0  0  0
  3  2  2  0  0  0  0
  4  2  1  0  0  0  0
  4  6  1  0  0  0  0
  5  4  2  0  0  0  0
  7  8  1  0  0  0  0
  7  6  1  0  0  0  0
  8  9  1  0  0  0  0
  9 10  1  0  0  0  0
 10 12  1  0  0  0  0
 12 11  1  0  0  0  0
 13 14  1  0  0  0  0
 14 15  1  0  0  0  0
 15 16  1  6  0  0  0
 15 18  1  0  0  0  0
 17 19  1  0  0  0  0
 18 17  1  0  0  0  0
 18 20  2  0  0  0  0
 19 22  2  0  0  0  0
 20 25  1  0  0  0  0
 21 17  2  0  0  0  0
 23 20  1  0  0  0  0
 25 22  1  0  0  0  0
 25 24  1  1  0  0  0
 26  3  1  0  0  0  0
 27 28  1  0  0  0  0
 27 26  1  0  0  0  0
 29 30  1  0  0  0  0
 30 31  1  0  0  0  0
 30 28  1  0  0  0  0
 32 30  2  0  0  0  0
M  END
>  <MODEL>
7

>  <REMARK>
 VINA RESULT:      -6.6      3.426      8.358
  Name = 
  14 active torsions:
  status: ('A' for Active; 'I' for Inactive)
    1  A    between atoms: O_1  and  C_10
    2  A    between atoms: O_1  and  C_28
    3  A    between atoms: C_2  and  N_27
    4  A    between atoms: C_2  and  C_28
    5  A    between atoms: C_5  and  C_15
    6  A    between atoms: C_6  and  O_11
    7  A    between atoms: C_6  and  C_32
    8  A    between atoms: C_7  and  C_17
    9  A    between atoms: C_10  and  C_13
   10  A    between atoms: O_11  and  P_26
   11  A    between atoms: C_13  and  C_22
   12  A    between atoms: C_15  and  N_25
   13  A    between atoms: C_17  and  N_25
   14  A    between atoms: C_21  and  C_32
                            x       y       z     vdW  Elec       q    Type
                         _______ _______ _______ _____ _____    ______ ____

>  <TORSDO>
F 14

$$$$
=
 OpenBabel11042413083D

 32 33  0  0  1  0  0  0  0  0999 V2000
  184.7400  179.2200  144.5330 O   0  0  0  0  0  0  0  0  0  0  0  0
  186.4480  177.9860  143.9560 C   0  0  0  0  0  0  0  0  0  0  0  0
  185.3910  178.7420  143.4980 C   0  0  0  0  0  0  0  0  0  0  0  0
  186.3400  178.0600  145.3270 C   0  0  0  0  0  0  0  0  0  0  0  0
  185.2790  178.8260  145.6520 N   0  0  0  0  0  0  0  0  0  0  0  0
  187.2020  177.3610  146.3260 C   0  0  0  0  0  2  0  0  0  0  0  0
  187.4710  178.2520  147.5260 C   0  0  0  0  0  2  0  0  0  0  0  0
  188.8300  178.2360  147.8390 O   0  0  0  0  0  0  0  0  0  0  0  0
  189.4210  177.4970  146.8160 C   0  0  0  0  0  2  0  0  0  0  0  0
  190.5970  176.7080  147.3670 C   0  0  0  0  0  2  0  0  0  0  0  0
  191.2810  177.5940  145.3180 C   0  0  0  0  0  1  0  0  0  0  0  0
  191.7050  176.7530  146.4260 N   0  0  0  0  0  2  0  0  0  0  0  0
  187.4290  177.2000  143.1560 C   0  0  0  0  0  2  0  0  0  0  0  0
  188.2250  178.1030  142.3380 N   0  0  0  0  0  2  0  0  0  0  0  0
  189.5050  177.4490  142.1210 C   0  0  1  0  0  3  0  0  0  0  0  0
  189.4810  176.0450  142.7020 C   0  0  0  0  0  1  0  0  0  0  0  0
  191.2680  177.1980  140.2760 C   0  0  0  0  0  0  0  0  0  0  0  0
  189.8640  177.4290  140.6580 C   0  0  0  0  0  0  0  0  0  0  0  0
  191.6090  177.0040  138.9010 N   0  0  0  0  0  0  0  0  0  0  0  0
  188.9360  177.5540  139.6880 C   0  0  0  0  0  0  0  0  0  0  0  0
  192.1670  177.1280  141.1540 O   0  0  0  0  0  0  0  0  0  0  0  0
  190.7300  177.1280  137.9540 C   0  0  0  0  0  3  0  0  0  0  0  0
  187.5930  177.7180  140.0200 O   0  0  0  0  0  1  0  0  0  0  0  0
  189.0550  178.9030  137.6120 C   0  0  0  0  0  1  0  0  0  0  0  0
  189.3050  177.5370  138.2210 C   0  0  2  0  0  3  0  0  0  0  0  0
  185.0420  179.0210  142.0730 C   0  0  0  0  0  2  0  0  0  0  0  0
  183.6110  178.5930  141.7910 C   0  0  0  0  0  2  0  0  0  0  0  0
  183.5530  177.8630  140.6000 O   0  0  0  0  0  0  0  0  0  0  0  0
  184.1800  180.1280  139.1150 O   0  0  0  0  0  1  0  0  0  0  0  0
  182.9960  178.9540  139.4230 P   0  0  0  0  0  0  0  0  0  0  0  0
  182.6680  178.2180  138.1420 O   0  0  0  0  0  0  0  0  0  0  0  0
  181.5960  179.7160  139.9930 O   0  0  0  0  0  1  0  0  0  0  0  0
  1  5  1  0  0  0  0
  2  4  1  0  0  0  0
  3  2  2  0  0  0  0
  3  1  1  0  0  0  0
  4  5  2  0  0  0  0
  4  6  1  0  0  0  0
  6  7  1  0  0  0  0
  7  8  1  0  0  0  0
  9 10  1  0  0  0  0
  9  8  1  0  0  0  0
 11 12  1  0  0  0  0
 12 10  1  0  0  0  0
 13  2  1  0  0  0  0
 14 13  1  0  0  0  0
 15 14  1  0  0  0  0
 15 16  1  6  0  0  0
 17 18  1  0  0  0  0
 17 21  2  0  0  0  0
 18 15  1  0  0  0  0
 19 17  1  0  0  0  0
 20 23  1  0  0  0  0
 20 18  2  0  0  0  0
 22 25  1  0  0  0  0
 22 19  2  0  0  0  0
 25 24  1  1  0  0  0
 25 20  1  0  0  0  0
 26  3  1  0  0  0  0
 27 26  1  0  0  0  0
 28 27  1  0  0  0  0
 29 30  1  0  0  0  0
 30 32  1  0  0  0  0
 30 28  1  0  0  0  0
 31 30  2  0  0  0  0
M  END
>  <MODEL>
8

>  <REMARK>
 VINA RESULT:      -6.6      1.950      2.752
  Name = 
  14 active torsions:
  status: ('A' for Active; 'I' for Inactive)
    1  A    between atoms: O_1  and  C_10
    2  A    between atoms: O_1  and  C_28
    3  A    between atoms: C_2  and  N_27
    4  A    between atoms: C_2  and  C_28
    5  A    between atoms: C_5  and  C_15
    6  A    between atoms: C_6  and  O_11
    7  A    between atoms: C_6  and  C_32
    8  A    between atoms: C_7  and  C_17
    9  A    between atoms: C_10  and  C_13
   10  A    between atoms: O_11  and  P_26
   11  A    between atoms: C_13  and  C_22
   12  A    between atoms: C_15  and  N_25
   13  A    between atoms: C_17  and  N_25
   14  A    between atoms: C_21  and  C_32
                            x       y       z     vdW  Elec       q    Type
                         _______ _______ _______ _____ _____    ______ ____

>  <TORSDO>
F 14

$$$$
=
 OpenBabel11042413083D

 32 33  0  0  1  0  0  0  0  0999 V2000
  187.0580  178.3950  139.6820 O   0  0  0  0  0  0  0  0  0  0  0  0
  185.7980  179.0760  141.3300 C   0  0  0  0  0  0  0  0  0  0  0  0
  187.0670  178.6890  140.9610 C   0  0  0  0  0  0  0  0  0  0  0  0
  185.0650  178.9660  140.1690 C   0  0  0  0  0  0  0  0  0  0  0  0
  185.8690  178.5450  139.1710 N   0  0  0  0  0  0  0  0  0  0  0  0
  183.5990  179.2040  140.0170 C   0  0  0  0  0  2  0  0  0  0  0  0
  182.8070  177.9690  140.4100 C   0  0  0  0  0  2  0  0  0  0  0  0
  181.4720  178.1170  140.0360 O   0  0  0  0  0  0  0  0  0  0  0  0
  180.7670  178.1370  141.2380 C   0  0  0  0  0  2  0  0  0  0  0  0
  180.2640  179.5430  141.5150 C   0  0  0  0  0  2  0  0  0  0  0  0
  180.5690  178.7650  143.6960 C   0  0  0  0  0  1  0  0  0  0  0  0
  180.6520  179.9500  142.8570 N   0  0  0  0  0  2  0  0  0  0  0  0
  185.3090  179.4440  142.6900 C   0  0  0  0  0  2  0  0  0  0  0  0
  185.2400  178.2510  143.5210 N   0  0  0  0  0  2  0  0  0  0  0  0
  185.2270  178.7080  144.9020 C   0  0  1  0  0  3  0  0  0  0  0  0
  183.9490  178.2560  145.5900 C   0  0  0  0  0  1  0  0  0  0  0  0
  187.2990  177.2020  145.0150 C   0  0  0  0  0  0  0  0  0  0  0  0
  186.4460  178.2260  145.6440 C   0  0  0  0  0  0  0  0  0  0  0  0
  188.5490  176.8520  145.6140 N   0  0  0  0  0  0  0  0  0  0  0  0
  186.8170  178.7440  146.8330 C   0  0  0  0  0  0  0  0  0  0  0  0
  186.9580  176.6620  143.9320 O   0  0  0  0  0  0  0  0  0  0  0  0
  188.9180  177.3340  146.7620 C   0  0  0  0  0  3  0  0  0  0  0  0
  186.0600  179.7520  147.4240 O   0  0  0  0  0  1  0  0  0  0  0  0
  187.6210  177.5440  148.8470 C   0  0  0  0  0  1  0  0  0  0  0  0
  188.0400  178.2520  147.5720 C   0  0  2  0  0  3  0  0  0  0  0  0
  188.2780  178.6400  141.8350 C   0  0  0  0  0  2  0  0  0  0  0  0
  189.2890  177.6540  141.2720 C   0  0  0  0  0  2  0  0  0  0  0  0
  189.5870  176.6740  142.2250 O   0  0  0  0  0  0  0  0  0  0  0  0
  191.7470  175.7830  143.7310 O   0  0  0  0  0  1  0  0  0  0  0  0
  191.1280  177.0720  142.8200 P   0  0  0  0  0  0  0  0  0  0  0  0
  192.0660  177.3780  141.6730 O   0  0  0  0  0  0  0  0  0  0  0  0
  191.0040  178.4400  143.8090 O   0  0  0  0  0  1  0  0  0  0  0  0
  1  3  1  0  0  0  0
  2 13  1  0  0  0  0
  3  2  2  0  0  0  0
  3 26  1  0  0  0  0
  4  2  1  0  0  0  0
  5  1  1  0  0  0  0
  5  4  2  0  0  0  0
  6  4  1  0  0  0  0
  6  7  1  0  0  0  0
  8  7  1  0  0  0  0
  8  9  1  0  0  0  0
  9 10  1  0  0  0  0
 10 12  1  0  0  0  0
 12 11  1  0  0  0  0
 13 14  1  0  0  0  0
 14 15  1  0  0  0  0
 15 16  1  1  0  0  0
 15 18  1  0  0  0  0
 17 19  1  0  0  0  0
 17 18  1  0  0  0  0
 18 20  2  0  0  0  0
 19 22  2  0  0  0  0
 20 23  1  0  0  0  0
 20 25  1  0  0  0  0
 21 17  2  0  0  0  0
 22 25  1  0  0  0  0
 25 24  1  1  0  0  0
 27 26  1  0  0  0  0
 27 28  1  0  0  0  0
 28 30  1  0  0  0  0
 30 29  1  0  0  0  0
 30 32  1  0  0  0  0
 31 30  2  0  0  0  0
M  END
>  <MODEL>
9

>  <REMARK>
 VINA RESULT:      -6.6      3.130      8.415
  Name = 
  14 active torsions:
  status: ('A' for Active; 'I' for Inactive)
    1  A    between atoms: O_1  and  C_10
    2  A    between atoms: O_1  and  C_28
    3  A    between atoms: C_2  and  N_27
    4  A    between atoms: C_2  and  C_28
    5  A    between atoms: C_5  and  C_15
    6  A    between atoms: C_6  and  O_11
    7  A    between atoms: C_6  and  C_32
    8  A    between atoms: C_7  and  C_17
    9  A    between atoms: C_10  and  C_13
   10  A    between atoms: O_11  and  P_26
   11  A    between atoms: C_13  and  C_22
   12  A    between atoms: C_15  and  N_25
   13  A    between atoms: C_17  and  N_25
   14  A    between atoms: C_21  and  C_32
                            x       y       z     vdW  Elec       q    Type
                         _______ _______ _______ _____ _____    ______ ____

>  <TORSDO>
F 14

$$$$
