=
 OpenBabel11042411593D

 28 29  0  0  1  0  0  0  0  0999 V2000
  190.6930  177.9440  144.8680 C   0  0  1  0  0  3  0  0  0  0  0  0
  190.4140  177.4530  143.4800 C   0  0  0  0  0  0  0  0  0  0  0  0
  189.6480  177.7350  140.1870 C   0  0  0  0  0  0  0  0  0  0  0  0
  190.1140  178.2380  142.4920 N   0  0  0  0  0  0  0  0  0  0  0  0
  190.4730  176.0710  143.1260 N   0  0  0  0  0  0  0  0  0  0  0  0
  189.3450  178.1180  138.9800 C   0  0  0  0  0  3  0  0  0  0  0  0
  190.1700  176.0010  141.7640 N   0  0  0  0  0  0  0  0  0  0  0  0
  189.9510  177.3510  141.3950 C   0  0  0  0  0  0  0  0  0  0  0  0
  187.1020  177.6810  137.9810 C   0  0  0  0  0  0  0  0  0  0  0  0
  188.4700  177.3280  138.1790 N   0  0  0  0  0  2  0  0  0  0  0  0
  186.6150  178.7060  138.5280 O   0  0  0  0  0  0  0  0  0  0  0  0
  186.2310  176.8080  137.1480 C   0  0  0  0  0  2  0  0  0  0  0  0
  186.7710  175.4610  137.1220 N   0  0  0  0  0  1  0  0  0  0  0  0
  189.4250  178.1030  145.6370 C   0  0  0  0  0  3  0  0  0  0  0  0
  188.2960  177.7340  145.1220 N   0  0  0  0  0  0  0  0  0  0  0  0
  187.0190  177.7090  147.0750 O   0  0  0  0  0  0  0  0  0  0  0  0
  187.0530  177.8640  145.8220 C   0  0  0  0  0  0  0  0  0  0  0  0
  185.8170  178.1780  145.0660 C   0  0  0  0  0  0  0  0  0  0  0  0
  182.2540  179.1090  143.0230 N   0  0  0  0  0  1  0  0  0  0  0  0
  184.7120  178.6840  145.7640 C   0  0  0  0  0  3  0  0  0  0  0  0
  185.6930  177.9920  143.6690 C   0  0  0  0  0  0  0  0  0  0  0  0
  183.5290  178.9960  145.0970 C   0  0  0  0  0  3  0  0  0  0  0  0
  184.5250  178.3060  143.0450 N   0  0  0  0  0  0  0  0  0  0  0  0
  186.7700  177.4830  142.8890 N   0  0  0  0  0  1  0  0  0  0  0  0
  183.4530  178.7970  143.7210 C   0  0  0  0  0  0  0  0  0  0  0  0
  191.6200  176.9900  145.6080 C   0  0  0  0  0  2  0  0  0  0  0  0
  192.4460  175.6350  147.7080 C   0  0  0  0  0  1  0  0  0  0  0  0
  191.0530  176.7320  147.3180 S   0  0  0  0  0  0  0  0  0  0  0  0
  1 26  1  1  0  0  0
  1 14  1  0  0  0  0
  2  1  1  0  0  0  0
  3  8  2  0  0  0  0
  4  2  2  0  0  0  0
  5  2  1  0  0  0  0
  6  3  2  0  0  0  0
  7  5  2  0  0  0  0
  8  7  1  0  0  0  0
  8  4  1  0  0  0  0
  9 10  1  0  0  0  0
  9 11  2  0  0  0  0
 10  6  1  0  0  0  0
 12  9  1  0  0  0  0
 13 12  1  0  0  0  0
 15 14  2  0  0  0  0
 15 17  1  0  0  0  0
 17 16  2  0  0  0  0
 18 20  1  0  0  0  0
 18 17  1  0  0  0  0
 19 25  1  0  0  0  0
 21 18  2  0  0  0  0
 22 20  2  0  0  0  0
 23 21  1  0  0  0  0
 23 25  2  0  0  0  0
 24 21  1  0  0  0  0
 25 22  1  0  0  0  0
 26 28  1  0  0  0  0
 28 27  1  0  0  0  0
M  END
>  <MODEL>
1

>  <REMARK>
 VINA RESULT:      -8.2      0.000      0.000
  Name = 
  8 active torsions:
  status: ('A' for Active; 'I' for Inactive)
    1  A    between atoms: C_1  and  C_5
    2  A    between atoms: C_2  and  C_9
    3  A    between atoms: C_3  and  C_25
    4  A    between atoms: C_7  and  C_9
    5  A    between atoms: C_7  and  S_27
    6  A    between atoms: C_8  and  C_9
    7  A    between atoms: C_19  and  N_21
    8  A    between atoms: N_20  and  C_25
                            x       y       z     vdW  Elec       q    Type
                         _______ _______ _______ _____ _____    ______ ____

>  <TORSDO>
F 8

$$$$
=
 OpenBabel11042411593D

 28 29  0  0  1  0  0  0  0  0999 V2000
  188.0400  178.4260  140.8140 C   0  0  1  0  0  3  0  0  0  0  0  0
  186.5730  178.6710  140.9950 C   0  0  0  0  0  0  0  0  0  0  0  0
  183.6650  178.9530  142.7190 C   0  0  0  0  0  0  0  0  0  0  0  0
  185.9710  178.5920  142.1410 N   0  0  0  0  0  0  0  0  0  0  0  0
  185.7140  179.0330  139.9120 N   0  0  0  0  0  0  0  0  0  0  0  0
  182.7100  178.9970  143.6020 C   0  0  0  0  0  3  0  0  0  0  0  0
  184.4380  179.1890  140.4580 N   0  0  0  0  0  0  0  0  0  0  0  0
  184.6210  178.9100  141.8340 C   0  0  0  0  0  0  0  0  0  0  0  0
  180.3450  179.4450  142.9460 C   0  0  0  0  0  0  0  0  0  0  0  0
  181.4030  178.5400  143.2620 N   0  0  0  0  0  2  0  0  0  0  0  0
  180.5320  180.6900  142.9740 O   0  0  0  0  0  0  0  0  0  0  0  0
  178.9960  178.9100  142.6140 C   0  0  0  0  0  2  0  0  0  0  0  0
  179.1310  177.6860  141.8450 N   0  0  0  0  0  1  0  0  0  0  0  0
  188.5520  177.4960  141.8610 C   0  0  0  0  0  3  0  0  0  0  0  0
  189.3580  177.9230  142.7790 N   0  0  0  0  0  0  0  0  0  0  0  0
  190.6910  176.1530  143.5110 O   0  0  0  0  0  0  0  0  0  0  0  0
  189.8740  177.0700  143.8070 C   0  0  0  0  0  0  0  0  0  0  0  0
  189.4410  177.2720  145.2110 C   0  0  0  0  0  0  0  0  0  0  0  0
  188.0940  177.8620  149.1570 N   0  0  0  0  0  1  0  0  0  0  0  0
  188.0900  177.5460  145.4650 C   0  0  0  0  0  3  0  0  0  0  0  0
  190.3230  177.2020  146.3140 C   0  0  0  0  0  0  0  0  0  0  0  0
  187.6340  177.7430  146.7670 C   0  0  0  0  0  3  0  0  0  0  0  0
  189.8500  177.3980  147.5750 N   0  0  0  0  0  0  0  0  0  0  0  0
  191.7100  176.9270  146.1400 N   0  0  0  0  0  1  0  0  0  0  0  0
  188.5400  177.6640  147.8220 C   0  0  0  0  0  0  0  0  0  0  0  0
  188.3320  177.8500  139.4350 C   0  0  0  0  0  2  0  0  0  0  0  0
  189.9880  177.3100  137.4630 C   0  0  0  0  0  1  0  0  0  0  0  0
  190.0930  177.4240  139.2710 S   0  0  0  0  0  0  0  0  0  0  0  0
  1 26  1  6  0  0  0
  1  2  1  0  0  0  0
  1 14  1  0  0  0  0
  2  4  2  0  0  0  0
  3  6  2  0  0  0  0
  5  7  2  0  0  0  0
  5  2  1  0  0  0  0
  7  8  1  0  0  0  0
  8  4  1  0  0  0  0
  8  3  2  0  0  0  0
  9 11  2  0  0  0  0
  9 10  1  0  0  0  0
 10  6  1  0  0  0  0
 12  9  1  0  0  0  0
 13 12  1  0  0  0  0
 14 15  2  0  0  0  0
 15 17  1  0  0  0  0
 16 17  2  0  0  0  0
 17 18  1  0  0  0  0
 18 20  2  0  0  0  0
 18 21  1  0  0  0  0
 20 22  1  0  0  0  0
 21 23  2  0  0  0  0
 22 25  2  0  0  0  0
 23 25  1  0  0  0  0
 24 21  1  0  0  0  0
 25 19  1  0  0  0  0
 27 28  1  0  0  0  0
 28 26  1  0  0  0  0
M  END
>  <MODEL>
2

>  <REMARK>
 VINA RESULT:      -8.0      3.258      6.673
  Name = 
  8 active torsions:
  status: ('A' for Active; 'I' for Inactive)
    1  A    between atoms: C_1  and  C_5
    2  A    between atoms: C_2  and  C_9
    3  A    between atoms: C_3  and  C_25
    4  A    between atoms: C_7  and  C_9
    5  A    between atoms: C_7  and  S_27
    6  A    between atoms: C_8  and  C_9
    7  A    between atoms: C_19  and  N_21
    8  A    between atoms: N_20  and  C_25
                            x       y       z     vdW  Elec       q    Type
                         _______ _______ _______ _____ _____    ______ ____

>  <TORSDO>
F 8

$$$$
=
 OpenBabel11042411593D

 28 29  0  0  1  0  0  0  0  0999 V2000
  190.7470  177.8730  144.8370 C   0  0  1  0  0  3  0  0  0  0  0  0
  190.4360  177.4220  143.4430 C   0  0  0  0  0  0  0  0  0  0  0  0
  189.3410  177.7510  140.2490 C   0  0  0  0  0  0  0  0  0  0  0  0
  189.9150  178.1950  142.5410 N   0  0  0  0  0  0  0  0  0  0  0  0
  190.7050  176.0960  142.9840 N   0  0  0  0  0  0  0  0  0  0  0  0
  188.8690  178.1430  139.1000 C   0  0  0  0  0  3  0  0  0  0  0  0
  190.2990  176.0520  141.6480 N   0  0  0  0  0  0  0  0  0  0  0  0
  189.8140  177.3590  141.3980 C   0  0  0  0  0  0  0  0  0  0  0  0
  186.9090  177.6930  137.6240 C   0  0  0  0  0  0  0  0  0  0  0  0
  188.0790  177.2540  138.3140 N   0  0  0  0  0  2  0  0  0  0  0  0
  186.5250  178.8900  137.7030 O   0  0  0  0  0  0  0  0  0  0  0  0
  186.1140  176.7160  136.8300 C   0  0  0  0  0  2  0  0  0  0  0  0
  186.8590  175.4780  136.6920 N   0  0  0  0  0  1  0  0  0  0  0  0
  189.4980  178.0020  145.6420 C   0  0  0  0  0  3  0  0  0  0  0  0
  188.3710  177.5670  145.1770 N   0  0  0  0  0  0  0  0  0  0  0  0
  187.1330  177.4020  147.1480 O   0  0  0  0  0  0  0  0  0  0  0  0
  187.1460  177.6650  145.9130 C   0  0  0  0  0  0  0  0  0  0  0  0
  185.9040  178.0760  145.2140 C   0  0  0  0  0  0  0  0  0  0  0  0
  182.4310  179.2120  143.1210 N   0  0  0  0  0  1  0  0  0  0  0  0
  185.8600  177.9890  143.8150 C   0  0  0  0  0  3  0  0  0  0  0  0
  184.7560  178.5540  145.8870 C   0  0  0  0  0  0  0  0  0  0  0  0
  184.7150  178.3620  143.1140 C   0  0  0  0  0  3  0  0  0  0  0  0
  183.6520  178.9110  145.1750 N   0  0  0  0  0  0  0  0  0  0  0  0
  184.7220  178.6710  147.3060 N   0  0  0  0  0  1  0  0  0  0  0  0
  183.6080  178.8260  143.8200 C   0  0  0  0  0  0  0  0  0  0  0  0
  191.6970  176.9020  145.5260 C   0  0  0  0  0  2  0  0  0  0  0  0
  192.6460  175.5780  147.5930 C   0  0  0  0  0  1  0  0  0  0  0  0
  191.2250  176.6600  147.2660 S   0  0  0  0  0  0  0  0  0  0  0  0
  1 26  1  1  0  0  0
  1 14  1  0  0  0  0
  2  1  1  0  0  0  0
  3  8  2  0  0  0  0
  4  2  2  0  0  0  0
  5  2  1  0  0  0  0
  6  3  2  0  0  0  0
  7  5  2  0  0  0  0
  8  7  1  0  0  0  0
  8  4  1  0  0  0  0
  9 11  2  0  0  0  0
  9 10  1  0  0  0  0
 10  6  1  0  0  0  0
 12  9  1  0  0  0  0
 13 12  1  0  0  0  0
 15 14  2  0  0  0  0
 15 17  1  0  0  0  0
 17 16  2  0  0  0  0
 18 21  1  0  0  0  0
 18 17  1  0  0  0  0
 19 25  1  0  0  0  0
 20 18  2  0  0  0  0
 21 24  1  0  0  0  0
 22 20  1  0  0  0  0
 22 25  2  0  0  0  0
 23 21  2  0  0  0  0
 25 23  1  0  0  0  0
 26 28  1  0  0  0  0
 28 27  1  0  0  0  0
M  END
>  <MODEL>
3

>  <REMARK>
 VINA RESULT:      -8.0      0.997      1.344
  Name = 
  8 active torsions:
  status: ('A' for Active; 'I' for Inactive)
    1  A    between atoms: C_1  and  C_5
    2  A    between atoms: C_2  and  C_9
    3  A    between atoms: C_3  and  C_25
    4  A    between atoms: C_7  and  C_9
    5  A    between atoms: C_7  and  S_27
    6  A    between atoms: C_8  and  C_9
    7  A    between atoms: C_19  and  N_21
    8  A    between atoms: N_20  and  C_25
                            x       y       z     vdW  Elec       q    Type
                         _______ _______ _______ _____ _____    ______ ____

>  <TORSDO>
F 8

$$$$
=
 OpenBabel11042411593D

 28 29  0  0  1  0  0  0  0  0999 V2000
  188.5020  178.2870  140.5150 C   0  0  1  0  0  3  0  0  0  0  0  0
  187.0490  178.6450  140.5770 C   0  0  0  0  0  0  0  0  0  0  0  0
  183.9220  179.1380  139.3590 C   0  0  0  0  0  0  0  0  0  0  0  0
  186.2670  178.6390  139.5430 N   0  0  0  0  0  0  0  0  0  0  0  0
  186.3980  179.0100  141.7950 N   0  0  0  0  0  0  0  0  0  0  0  0
  182.8370  179.2510  138.6480 C   0  0  0  0  0  3  0  0  0  0  0  0
  185.0630  179.2590  141.4680 N   0  0  0  0  0  0  0  0  0  0  0  0
  185.0070  179.0250  140.0720 C   0  0  0  0  0  0  0  0  0  0  0  0
  180.7720  180.0900  139.7670 C   0  0  0  0  0  0  0  0  0  0  0  0
  181.9070  180.2950  138.9260 N   0  0  0  0  0  2  0  0  0  0  0  0
  180.5460  178.9630  140.2820 O   0  0  0  0  0  0  0  0  0  0  0  0
  179.8260  181.2130  140.0090 C   0  0  0  0  0  2  0  0  0  0  0  0
  179.4660  181.2560  141.4150 N   0  0  0  0  0  1  0  0  0  0  0  0
  188.8560  177.3250  141.5990 C   0  0  0  0  0  3  0  0  0  0  0  0
  189.6010  177.6990  142.5890 N   0  0  0  0  0  0  0  0  0  0  0  0
  190.6730  175.7980  143.4130 O   0  0  0  0  0  0  0  0  0  0  0  0
  189.9640  176.8140  143.6550 C   0  0  0  0  0  0  0  0  0  0  0  0
  189.5030  177.1030  145.0340 C   0  0  0  0  0  0  0  0  0  0  0  0
  188.0740  177.9260  148.9090 N   0  0  0  0  0  1  0  0  0  0  0  0
  188.1340  177.3130  145.2550 C   0  0  0  0  0  3  0  0  0  0  0  0
  190.3740  177.1770  146.1460 C   0  0  0  0  0  0  0  0  0  0  0  0
  187.6520  177.5860  146.5330 C   0  0  0  0  0  3  0  0  0  0  0  0
  189.8740  177.4450  147.3830 N   0  0  0  0  0  0  0  0  0  0  0  0
  191.7770  176.9740  146.0050 N   0  0  0  0  0  1  0  0  0  0  0  0
  188.5480  177.6480  147.5980 C   0  0  0  0  0  0  0  0  0  0  0  0
  188.8580  177.6830  139.1630 C   0  0  0  0  0  2  0  0  0  0  0  0
  190.5480  176.6410  137.4350 C   0  0  0  0  0  1  0  0  0  0  0  0
  190.4640  176.8300  139.2390 S   0  0  0  0  0  0  0  0  0  0  0  0
  1 26  1  6  0  0  0
  1  2  1  0  0  0  0
  1 14  1  0  0  0  0
  2  5  1  0  0  0  0
  3  8  2  0  0  0  0
  4  8  1  0  0  0  0
  4  2  2  0  0  0  0
  6 10  1  0  0  0  0
  6  3  2  0  0  0  0
  7  5  2  0  0  0  0
  8  7  1  0  0  0  0
  9 12  1  0  0  0  0
  9 11  2  0  0  0  0
 10  9  1  0  0  0  0
 12 13  1  0  0  0  0
 14 15  2  0  0  0  0
 15 17  1  0  0  0  0
 16 17  2  0  0  0  0
 17 18  1  0  0  0  0
 18 20  2  0  0  0  0
 18 21  1  0  0  0  0
 20 22  1  0  0  0  0
 21 23  2  0  0  0  0
 22 25  2  0  0  0  0
 23 25  1  0  0  0  0
 24 21  1  0  0  0  0
 25 19  1  0  0  0  0
 26 28  1  0  0  0  0
 27 28  1  0  0  0  0
M  END
>  <MODEL>
4

>  <REMARK>
 VINA RESULT:      -7.8      3.530      6.340
  Name = 
  8 active torsions:
  status: ('A' for Active; 'I' for Inactive)
    1  A    between atoms: C_1  and  C_5
    2  A    between atoms: C_2  and  C_9
    3  A    between atoms: C_3  and  C_25
    4  A    between atoms: C_7  and  C_9
    5  A    between atoms: C_7  and  S_27
    6  A    between atoms: C_8  and  C_9
    7  A    between atoms: C_19  and  N_21
    8  A    between atoms: N_20  and  C_25
                            x       y       z     vdW  Elec       q    Type
                         _______ _______ _______ _____ _____    ______ ____

>  <TORSDO>
F 8

$$$$
=
 OpenBabel11042411593D

 28 29  0  0  1  0  0  0  0  0999 V2000
  189.9280  177.1420  140.4090 C   0  0  1  0  0  3  0  0  0  0  0  0
  191.2720  176.9680  139.7690 C   0  0  0  0  0  0  0  0  0  0  0  0
  193.4670  175.9390  137.3960 C   0  0  0  0  0  0  0  0  0  0  0  0
  191.4540  176.3410  138.6480 N   0  0  0  0  0  0  0  0  0  0  0  0
  192.4700  177.4990  140.3380 N   0  0  0  0  0  0  0  0  0  0  0  0
  194.0790  175.4410  136.3600 C   0  0  0  0  0  3  0  0  0  0  0  0
  193.5060  177.1530  139.4670 N   0  0  0  0  0  0  0  0  0  0  0  0
  192.8540  176.4390  138.4320 C   0  0  0  0  0  0  0  0  0  0  0  0
  196.5590  175.5430  136.1040 C   0  0  0  0  0  0  0  0  0  0  0  0
  195.3720  174.8590  136.5090 N   0  0  0  0  0  2  0  0  0  0  0  0
  196.4960  176.6870  135.5810 O   0  0  0  0  0  0  0  0  0  0  0  0
  197.8800  174.8790  136.2680 C   0  0  0  0  0  2  0  0  0  0  0  0
  198.3980  175.1430  137.5990 N   0  0  0  0  0  1  0  0  0  0  0  0
  190.0710  177.4260  141.8660 C   0  0  0  0  0  3  0  0  0  0  0  0
  189.4600  176.6910  142.7390 N   0  0  0  0  0  0  0  0  0  0  0  0
  190.6760  176.7480  144.7300 O   0  0  0  0  0  0  0  0  0  0  0  0
  189.5690  176.9210  144.1490 C   0  0  0  0  0  0  0  0  0  0  0  0
  188.3750  177.3620  144.9110 C   0  0  0  0  0  0  0  0  0  0  0  0
  184.9230  178.6180  146.9700 N   0  0  0  0  0  1  0  0  0  0  0  0
  187.1970  177.6490  144.2080 C   0  0  0  0  0  3  0  0  0  0  0  0
  188.3630  177.5090  146.3180 C   0  0  0  0  0  0  0  0  0  0  0  0
  186.0490  178.0650  144.8800 C   0  0  0  0  0  3  0  0  0  0  0  0
  187.2270  177.9170  146.9470 N   0  0  0  0  0  0  0  0  0  0  0  0
  189.5190  177.2360  147.1030 N   0  0  0  0  0  1  0  0  0  0  0  0
  186.0840  178.1950  146.2670 C   0  0  0  0  0  0  0  0  0  0  0  0
  189.1490  178.2680  139.7450 C   0  0  0  0  0  2  0  0  0  0  0  0
  188.9620  178.7930  137.1720 C   0  0  0  0  0  1  0  0  0  0  0  0
  188.1790  177.6420  138.3380 S   0  0  0  0  0  0  0  0  0  0  0  0
  1 26  1  6  0  0  0
  1 14  1  0  0  0  0
  2  5  1  0  0  0  0
  2  1  1  0  0  0  0
  3  8  2  0  0  0  0
  4  2  2  0  0  0  0
  6 10  1  0  0  0  0
  6  3  2  0  0  0  0
  7  5  2  0  0  0  0
  8  4  1  0  0  0  0
  8  7  1  0  0  0  0
  9 12  1  0  0  0  0
  9 10  1  0  0  0  0
 11  9  2  0  0  0  0
 12 13  1  0  0  0  0
 14 15  2  0  0  0  0
 15 17  1  0  0  0  0
 17 16  2  0  0  0  0
 17 18  1  0  0  0  0
 18 21  1  0  0  0  0
 20 22  1  0  0  0  0
 20 18  2  0  0  0  0
 21 23  2  0  0  0  0
 21 24  1  0  0  0  0
 22 25  2  0  0  0  0
 25 23  1  0  0  0  0
 25 19  1  0  0  0  0
 27 28  1  0  0  0  0
 28 26  1  0  0  0  0
M  END
>  <MODEL>
5

>  <REMARK>
 VINA RESULT:      -7.6      4.921      6.406
  Name = 
  8 active torsions:
  status: ('A' for Active; 'I' for Inactive)
    1  A    between atoms: C_1  and  C_5
    2  A    between atoms: C_2  and  C_9
    3  A    between atoms: C_3  and  C_25
    4  A    between atoms: C_7  and  C_9
    5  A    between atoms: C_7  and  S_27
    6  A    between atoms: C_8  and  C_9
    7  A    between atoms: C_19  and  N_21
    8  A    between atoms: N_20  and  C_25
                            x       y       z     vdW  Elec       q    Type
                         _______ _______ _______ _____ _____    ______ ____

>  <TORSDO>
F 8

$$$$
=
 OpenBabel11042411593D

 28 29  0  0  1  0  0  0  0  0999 V2000
  190.6290  177.3360  140.5430 C   0  0  1  0  0  3  0  0  0  0  0  0
  189.2330  177.8300  140.3210 C   0  0  0  0  0  0  0  0  0  0  0  0
  186.0890  178.7450  141.2090 C   0  0  0  0  0  0  0  0  0  0  0  0
  188.3620  177.9630  141.2730 N   0  0  0  0  0  0  0  0  0  0  0  0
  188.7480  178.2160  139.0340 N   0  0  0  0  0  0  0  0  0  0  0  0
  184.9680  179.0290  141.8090 C   0  0  0  0  0  3  0  0  0  0  0  0
  187.4260  178.6280  139.2180 N   0  0  0  0  0  0  0  0  0  0  0  0
  187.2100  178.4610  140.6080 C   0  0  0  0  0  0  0  0  0  0  0  0
  183.3850  179.3340  139.9050 C   0  0  0  0  0  0  0  0  0  0  0  0
  183.7260  178.7560  141.1650 N   0  0  0  0  0  2  0  0  0  0  0  0
  184.1740  180.1260  139.3250 O   0  0  0  0  0  0  0  0  0  0  0  0
  182.0660  179.0250  139.2890 C   0  0  0  0  0  2  0  0  0  0  0  0
  181.4690  177.8830  139.9580 N   0  0  0  0  0  1  0  0  0  0  0  0
  190.7150  176.5430  141.8020 C   0  0  0  0  0  3  0  0  0  0  0  0
  191.1590  177.0850  142.8900 N   0  0  0  0  0  0  0  0  0  0  0  0
  192.0550  175.3920  144.2220 O   0  0  0  0  0  0  0  0  0  0  0  0
  191.2560  176.3650  144.1240 C   0  0  0  0  0  0  0  0  0  0  0  0
  190.4150  176.7710  145.2760 C   0  0  0  0  0  0  0  0  0  0  0  0
  187.9310  177.9450  148.4670 N   0  0  0  0  0  1  0  0  0  0  0  0
  189.1010  177.1950  145.0320 C   0  0  0  0  0  3  0  0  0  0  0  0
  190.8700  176.7530  146.6150 C   0  0  0  0  0  0  0  0  0  0  0  0
  188.2710  177.5850  146.0810 C   0  0  0  0  0  3  0  0  0  0  0  0
  190.0360  177.1390  147.6190 N   0  0  0  0  0  0  0  0  0  0  0  0
  192.1900  176.3340  146.9450 N   0  0  0  0  0  1  0  0  0  0  0  0
  188.7630  177.5500  147.3840 C   0  0  0  0  0  0  0  0  0  0  0  0
  191.1000  176.4850  139.3720 C   0  0  0  0  0  2  0  0  0  0  0  0
  192.7700  175.9400  137.4120 C   0  0  0  0  0  1  0  0  0  0  0  0
  192.8570  176.7940  139.0120 S   0  0  0  0  0  0  0  0  0  0  0  0
  1 26  1  6  0  0  0
  1 14  1  0  0  0  0
  2  1  1  0  0  0  0
  2  4  2  0  0  0  0
  3  6  2  0  0  0  0
  5  7  2  0  0  0  0
  5  2  1  0  0  0  0
  7  8  1  0  0  0  0
  8  3  2  0  0  0  0
  8  4  1  0  0  0  0
  9 10  1  0  0  0  0
 10  6  1  0  0  0  0
 11  9  2  0  0  0  0
 12  9  1  0  0  0  0
 12 13  1  0  0  0  0
 14 15  2  0  0  0  0
 15 17  1  0  0  0  0
 17 16  2  0  0  0  0
 17 18  1  0  0  0  0
 18 21  1  0  0  0  0
 20 18  2  0  0  0  0
 20 22  1  0  0  0  0
 21 24  1  0  0  0  0
 21 23  2  0  0  0  0
 22 25  2  0  0  0  0
 25 23  1  0  0  0  0
 25 19  1  0  0  0  0
 27 28  1  0  0  0  0
 28 26  1  0  0  0  0
M  END
>  <MODEL>
6

>  <REMARK>
 VINA RESULT:      -7.6      3.157      5.636
  Name = 
  8 active torsions:
  status: ('A' for Active; 'I' for Inactive)
    1  A    between atoms: C_1  and  C_5
    2  A    between atoms: C_2  and  C_9
    3  A    between atoms: C_3  and  C_25
    4  A    between atoms: C_7  and  C_9
    5  A    between atoms: C_7  and  S_27
    6  A    between atoms: C_8  and  C_9
    7  A    between atoms: C_19  and  N_21
    8  A    between atoms: N_20  and  C_25
                            x       y       z     vdW  Elec       q    Type
                         _______ _______ _______ _____ _____    ______ ____

>  <TORSDO>
F 8

$$$$
=
 OpenBabel11042411593D

 28 29  0  0  1  0  0  0  0  0999 V2000
  188.5680  178.5400  140.3890 C   0  0  1  0  0  3  0  0  0  0  0  0
  187.1030  178.5900  140.0790 C   0  0  0  0  0  0  0  0  0  0  0  0
  183.7860  178.6990  140.7820 C   0  0  0  0  0  0  0  0  0  0  0  0
  186.1800  178.5990  140.9900 N   0  0  0  0  0  0  0  0  0  0  0  0
  186.6010  178.6490  138.7430 N   0  0  0  0  0  0  0  0  0  0  0  0
  182.6010  178.7350  141.3190 C   0  0  0  0  0  3  0  0  0  0  0  0
  185.2090  178.6960  138.8480 N   0  0  0  0  0  0  0  0  0  0  0  0
  184.9730  178.6620  140.2440 C   0  0  0  0  0  0  0  0  0  0  0  0
  180.2700  177.8460  141.3700 C   0  0  0  0  0  0  0  0  0  0  0  0
  181.5180  178.0430  140.7030 N   0  0  0  0  0  2  0  0  0  0  0  0
  180.0930  178.2700  142.5430 O   0  0  0  0  0  0  0  0  0  0  0  0
  179.1810  177.1010  140.6830 C   0  0  0  0  0  2  0  0  0  0  0  0
  179.0110  175.8000  141.3050 N   0  0  0  0  0  1  0  0  0  0  0  0
  188.8540  177.5000  141.4200 C   0  0  0  0  0  3  0  0  0  0  0  0
  189.4920  177.8090  142.5030 N   0  0  0  0  0  0  0  0  0  0  0  0
  190.3850  175.7770  143.2210 O   0  0  0  0  0  0  0  0  0  0  0  0
  189.7870  176.8470  143.5230 C   0  0  0  0  0  0  0  0  0  0  0  0
  189.3840  177.1200  144.9240 C   0  0  0  0  0  0  0  0  0  0  0  0
  188.1230  177.8970  148.8650 N   0  0  0  0  0  1  0  0  0  0  0  0
  188.0230  177.2950  145.2100 C   0  0  0  0  0  3  0  0  0  0  0  0
  190.3060  177.2140  145.9920 C   0  0  0  0  0  0  0  0  0  0  0  0
  187.5960  177.5520  146.5110 C   0  0  0  0  0  3  0  0  0  0  0  0
  189.8590  177.4660  147.2520 N   0  0  0  0  0  0  0  0  0  0  0  0
  191.7050  177.0480  145.7830 N   0  0  0  0  0  1  0  0  0  0  0  0
  188.5400  177.6350  147.5320 C   0  0  0  0  0  0  0  0  0  0  0  0
  189.3820  178.2520  139.1360 C   0  0  0  0  0  2  0  0  0  0  0  0
  191.4580  176.6620  138.8280 C   0  0  0  0  0  1  0  0  0  0  0  0
  189.6570  176.4630  138.9390 S   0  0  0  0  0  0  0  0  0  0  0  0
  1 26  1  6  0  0  0
  1 14  1  0  0  0  0
  2  1  1  0  0  0  0
  2  4  2  0  0  0  0
  3  6  2  0  0  0  0
  5  7  2  0  0  0  0
  5  2  1  0  0  0  0
  7  8  1  0  0  0  0
  8  3  2  0  0  0  0
  8  4  1  0  0  0  0
  9 11  2  0  0  0  0
 10  6  1  0  0  0  0
 10  9  1  0  0  0  0
 12 13  1  0  0  0  0
 12  9  1  0  0  0  0
 14 15  2  0  0  0  0
 15 17  1  0  0  0  0
 16 17  2  0  0  0  0
 17 18  1  0  0  0  0
 18 20  2  0  0  0  0
 18 21  1  0  0  0  0
 20 22  1  0  0  0  0
 21 23  2  0  0  0  0
 22 25  2  0  0  0  0
 23 25  1  0  0  0  0
 24 21  1  0  0  0  0
 25 19  1  0  0  0  0
 27 28  1  0  0  0  0
 28 26  1  0  0  0  0
M  END
>  <MODEL>
7

>  <REMARK>
 VINA RESULT:      -7.5      3.515      6.307
  Name = 
  8 active torsions:
  status: ('A' for Active; 'I' for Inactive)
    1  A    between atoms: C_1  and  C_5
    2  A    between atoms: C_2  and  C_9
    3  A    between atoms: C_3  and  C_25
    4  A    between atoms: C_7  and  C_9
    5  A    between atoms: C_7  and  S_27
    6  A    between atoms: C_8  and  C_9
    7  A    between atoms: C_19  and  N_21
    8  A    between atoms: N_20  and  C_25
                            x       y       z     vdW  Elec       q    Type
                         _______ _______ _______ _____ _____    ______ ____

>  <TORSDO>
F 8

$$$$
=
 OpenBabel11042411593D

 28 29  0  0  1  0  0  0  0  0999 V2000
  183.4220  178.6270  143.7600 C   0  0  1  0  0  3  0  0  0  0  0  0
  184.2090  178.7990  142.4960 C   0  0  0  0  0  0  0  0  0  0  0  0
  185.0010  178.2720  139.2400 C   0  0  0  0  0  0  0  0  0  0  0  0
  183.9380  178.1710  141.3950 N   0  0  0  0  0  0  0  0  0  0  0  0
  185.3200  179.6910  142.3970 N   0  0  0  0  0  0  0  0  0  0  0  0
  185.0840  177.8960  137.9960 C   0  0  0  0  0  3  0  0  0  0  0  0
  185.7870  179.5940  141.0840 N   0  0  0  0  0  0  0  0  0  0  0  0
  184.9180  178.6490  140.4850 C   0  0  0  0  0  0  0  0  0  0  0  0
  186.8370  176.4390  136.9820 C   0  0  0  0  0  0  0  0  0  0  0  0
  186.3620  177.7220  137.3880 N   0  0  0  0  0  2  0  0  0  0  0  0
  186.1400  175.4060  137.1660 O   0  0  0  0  0  0  0  0  0  0  0  0
  188.1860  176.3160  136.3670 C   0  0  0  0  0  2  0  0  0  0  0  0
  188.4400  177.4620  135.5120 N   0  0  0  0  0  1  0  0  0  0  0  0
  184.2630  178.9380  144.9510 C   0  0  0  0  0  3  0  0  0  0  0  0
  185.3080  178.2250  145.2210 N   0  0  0  0  0  0  0  0  0  0  0  0
  185.6880  179.1220  147.3410 O   0  0  0  0  0  0  0  0  0  0  0  0
  186.1480  178.4870  146.3510 C   0  0  0  0  0  0  0  0  0  0  0  0
  187.5520  178.0100  146.3450 C   0  0  0  0  0  0  0  0  0  0  0  0
  191.5400  176.6640  146.2040 N   0  0  0  0  0  1  0  0  0  0  0  0
  188.1990  177.8400  145.1130 C   0  0  0  0  0  3  0  0  0  0  0  0
  188.2780  177.7170  147.5230 C   0  0  0  0  0  0  0  0  0  0  0  0
  189.5180  177.3950  145.0560 C   0  0  0  0  0  3  0  0  0  0  0  0
  189.5650  177.2850  147.4360 N   0  0  0  0  0  0  0  0  0  0  0  0
  187.6920  177.8660  148.8130 N   0  0  0  0  0  1  0  0  0  0  0  0
  190.1930  177.1190  146.2420 C   0  0  0  0  0  0  0  0  0  0  0  0
  182.1880  179.5180  143.7610 C   0  0  0  0  0  2  0  0  0  0  0  0
  180.3310  178.6340  142.1180 C   0  0  0  0  0  1  0  0  0  0  0  0
  180.6710  178.5220  143.8970 S   0  0  0  0  0  0  0  0  0  0  0  0
  1 26  1  6  0  0  0
  1 14  1  0  0  0  0
  2  1  1  0  0  0  0
  3  8  2  0  0  0  0
  4  2  2  0  0  0  0
  5  2  1  0  0  0  0
  6  3  2  0  0  0  0
  7  5  2  0  0  0  0
  8  7  1  0  0  0  0
  8  4  1  0  0  0  0
  9 11  2  0  0  0  0
  9 10  1  0  0  0  0
 10  6  1  0  0  0  0
 12  9  1  0  0  0  0
 13 12  1  0  0  0  0
 14 15  2  0  0  0  0
 15 17  1  0  0  0  0
 17 16  2  0  0  0  0
 18 17  1  0  0  0  0
 18 21  1  0  0  0  0
 19 25  1  0  0  0  0
 20 18  2  0  0  0  0
 21 24  1  0  0  0  0
 22 20  1  0  0  0  0
 22 25  2  0  0  0  0
 23 21  2  0  0  0  0
 25 23  1  0  0  0  0
 26 28  1  0  0  0  0
 27 28  1  0  0  0  0
M  END
>  <MODEL>
8

>  <REMARK>
 VINA RESULT:      -7.2      3.262      6.211
  Name = 
  8 active torsions:
  status: ('A' for Active; 'I' for Inactive)
    1  A    between atoms: C_1  and  C_5
    2  A    between atoms: C_2  and  C_9
    3  A    between atoms: C_3  and  C_25
    4  A    between atoms: C_7  and  C_9
    5  A    between atoms: C_7  and  S_27
    6  A    between atoms: C_8  and  C_9
    7  A    between atoms: C_19  and  N_21
    8  A    between atoms: N_20  and  C_25
                            x       y       z     vdW  Elec       q    Type
                         _______ _______ _______ _____ _____    ______ ____

>  <TORSDO>
F 8

$$$$
=
 OpenBabel11042411593D

 28 29  0  0  1  0  0  0  0  0999 V2000
  188.3220  176.9670  143.2830 C   0  0  1  0  0  3  0  0  0  0  0  0
  187.0660  177.7360  143.0080 C   0  0  0  0  0  0  0  0  0  0  0  0
  183.8660  178.7350  143.5240 C   0  0  0  0  0  0  0  0  0  0  0  0
  185.9880  177.6230  143.7200 N   0  0  0  0  0  0  0  0  0  0  0  0
  186.9590  178.6770  141.9390 N   0  0  0  0  0  0  0  0  0  0  0  0
  182.6490  178.9410  143.9390 C   0  0  0  0  0  3  0  0  0  0  0  0
  185.6640  179.1970  142.0010 N   0  0  0  0  0  0  0  0  0  0  0  0
  185.0840  178.5300  143.1080 C   0  0  0  0  0  0  0  0  0  0  0  0
  180.2580  178.7490  143.2530 C   0  0  0  0  0  0  0  0  0  0  0  0
  181.6010  179.1590  142.9970 N   0  0  0  0  0  2  0  0  0  0  0  0
  179.9570  178.1590  144.3240 O   0  0  0  0  0  0  0  0  0  0  0  0
  179.2090  178.9890  142.2250 C   0  0  0  0  0  2  0  0  0  0  0  0
  179.6400  178.4440  140.9500 N   0  0  0  0  0  1  0  0  0  0  0  0
  189.4110  177.3830  142.3530 C   0  0  0  0  0  3  0  0  0  0  0  0
  189.6020  176.7480  141.2420 N   0  0  0  0  0  0  0  0  0  0  0  0
  191.7440  177.5250  140.7430 O   0  0  0  0  0  0  0  0  0  0  0  0
  190.6310  177.1120  140.3150 C   0  0  0  0  0  0  0  0  0  0  0  0
  190.3760  176.9990  138.8580 C   0  0  0  0  0  0  0  0  0  0  0  0
  189.7230  176.5770  134.7200 N   0  0  0  0  0  1  0  0  0  0  0  0
  190.9810  175.9520  138.1490 C   0  0  0  0  0  3  0  0  0  0  0  0
  189.5500  177.8970  138.1420 C   0  0  0  0  0  0  0  0  0  0  0  0
  190.7710  175.8040  136.7790 C   0  0  0  0  0  3  0  0  0  0  0  0
  189.3630  177.7270  136.8050 N   0  0  0  0  0  0  0  0  0  0  0  0
  188.8990  178.9850  138.7910 N   0  0  0  0  0  1  0  0  0  0  0  0
  189.9490  176.7120  136.1170 C   0  0  0  0  0  0  0  0  0  0  0  0
  188.7790  177.1660  144.7220 C   0  0  0  0  0  2  0  0  0  0  0  0
  191.2800  176.9500  145.5150 C   0  0  0  0  0  1  0  0  0  0  0  0
  190.2390  178.2510  144.7930 S   0  0  0  0  0  0  0  0  0  0  0  0
  1 14  1  6  0  0  0
  1 26  1  0  0  0  0
  2  1  1  0  0  0  0
  2  4  2  0  0  0  0
  3  6  2  0  0  0  0
  5  7  2  0  0  0  0
  5  2  1  0  0  0  0
  7  8  1  0  0  0  0
  8  3  2  0  0  0  0
  8  4  1  0  0  0  0
  9 11  2  0  0  0  0
 10  9  1  0  0  0  0
 10  6  1  0  0  0  0
 12  9  1  0  0  0  0
 13 12  1  0  0  0  0
 15 14  2  0  0  0  0
 17 16  2  0  0  0  0
 17 15  1  0  0  0  0
 18 17  1  0  0  0  0
 19 25  1  0  0  0  0
 20 18  1  0  0  0  0
 21 24  1  0  0  0  0
 21 18  2  0  0  0  0
 22 20  2  0  0  0  0
 23 21  1  0  0  0  0
 25 22  1  0  0  0  0
 25 23  2  0  0  0  0
 26 28  1  0  0  0  0
 28 27  1  0  0  0  0
M  END
>  <MODEL>
9

>  <REMARK>
 VINA RESULT:      -7.1      2.792      7.177
  Name = 
  8 active torsions:
  status: ('A' for Active; 'I' for Inactive)
    1  A    between atoms: C_1  and  C_5
    2  A    between atoms: C_2  and  C_9
    3  A    between atoms: C_3  and  C_25
    4  A    between atoms: C_7  and  C_9
    5  A    between atoms: C_7  and  S_27
    6  A    between atoms: C_8  and  C_9
    7  A    between atoms: C_19  and  N_21
    8  A    between atoms: N_20  and  C_25
                            x       y       z     vdW  Elec       q    Type
                         _______ _______ _______ _____ _____    ______ ____

>  <TORSDO>
F 8

$$$$
