=
 OpenBabel11042412153D

 34 35  0  0  1  0  0  0  0  0999 V2000
  190.6940  178.4760  144.0180 C   0  0  0  0  0  1  0  0  0  0  0  0
  189.6500  177.8060  143.1440 C   0  0  1  0  0  3  0  0  0  0  0  0
  189.3750  177.7360  140.6520 C   0  0  0  0  0  0  0  0  0  0  0  0
  191.5000  177.0860  139.6630 C   0  0  0  0  0  2  0  0  0  0  0  0
  191.8660  177.3710  141.4230 S   0  0  0  0  0  0  0  0  0  0  0  0
  190.0730  177.5290  139.3490 C   0  0  1  0  0  3  0  0  0  0  0  0
  190.1400  177.6400  141.7340 C   0  0  0  0  0  0  0  0  0  0  0  0
  187.9830  178.0630  140.7400 N   0  0  0  0  0  2  0  0  0  0  0  0
  187.5950  179.2470  140.8200 O   0  0  0  0  0  1  0  0  0  0  0  0
  189.3630  176.4510  138.5360 C   0  0  0  0  0  2  0  0  0  0  0  0
  188.8530  176.9870  137.2000 C   0  0  2  0  0  3  0  0  0  0  0  0
  188.8710  178.5050  137.2080 C   0  0  0  0  0  1  0  0  0  0  0  0
  187.4640  176.4460  136.8510 C   0  0  0  0  0  2  0  0  0  0  0  0
  186.5530  177.4890  136.2150 C   0  0  0  0  0  2  0  0  0  0  0  0
  185.1860  177.3090  136.6750 N   0  0  0  0  0  2  0  0  0  0  0  0
  183.3670  177.7030  138.2850 N   0  0  0  0  0  1  0  0  0  0  0  0
  184.6830  177.9820  137.8290 C   0  0  0  0  0  0  0  0  0  0  0  0
  185.3940  178.8200  138.4460 O   0  0  0  0  0  0  0  0  0  0  0  0
  189.2620  176.5270  143.7120 N   0  0  0  0  0  2  0  0  0  0  0  0
  187.8110  176.5430  143.8420 C   0  0  0  0  0  2  0  0  0  0  0  0
  187.3520  177.6500  144.7880 C   0  0  1  0  0  3  0  0  0  0  0  0
  183.3990  178.9260  143.9660 N   0  0  0  0  0  0  0  0  0  0  0  0
  185.9470  178.0790  144.4970 C   0  0  0  0  0  0  0  0  0  0  0  0
  184.2020  178.5040  142.9560 C   0  0  0  0  0  0  0  0  0  0  0  0
  185.4680  178.0910  143.2230 N   0  0  0  0  0  0  0  0  0  0  0  0
  183.8430  178.9400  145.2500 C   0  0  0  0  0  3  0  0  0  0  0  0
  185.1370  178.5190  145.5440 C   0  0  0  0  0  3  0  0  0  0  0  0
  183.7230  178.5100  141.6180 N   0  0  0  0  0  1  0  0  0  0  0  0
  187.5400  177.2790  146.2550 C   0  0  0  0  0  2  0  0  0  0  0  0
  188.4460  178.2840  146.9450 C   0  0  0  0  0  2  0  0  0  0  0  0
  189.3500  177.5590  147.9220 C   0  0  0  0  0  2  0  0  0  0  0  0
  190.3300  176.6700  147.1740 C   0  0  0  0  0  2  0  0  0  0  0  0
  191.6400  176.9870  147.5420 O   0  0  0  0  0  0  0  0  0  0  0  0
  192.2840  175.7540  147.6250 C   0  0  0  0  0  1  0  0  0  0  0  0
  2 19  1  0  0  0  0
  2  1  1  1  0  0  0
  3  8  1  0  0  0  0
  3  7  2  0  0  0  0
  4  5  1  0  0  0  0
  5  7  1  0  0  0  0
  6 10  1  6  0  0  0
  6  4  1  0  0  0  0
  6  3  1  0  0  0  0
  7  2  1  0  0  0  0
  8  9  1  0  0  0  0
 11 12  1  1  0  0  0
 11 10  1  0  0  0  0
 13 11  1  0  0  0  0
 14 15  1  0  0  0  0
 14 13  1  0  0  0  0
 15 17  1  0  0  0  0
 17 16  1  0  0  0  0
 17 18  2  0  0  0  0
 19 20  1  0  0  0  0
 21 20  1  6  0  0  0
 21 29  1  0  0  0  0
 22 26  1  0  0  0  0
 23 21  1  0  0  0  0
 23 27  1  0  0  0  0
 24 25  1  0  0  0  0
 24 22  2  0  0  0  0
 25 23  2  0  0  0  0
 26 27  2  0  0  0  0
 28 24  1  0  0  0  0
 29 30  1  0  0  0  0
 30 31  1  0  0  0  0
 32 33  1  0  0  0  0
 32 31  1  0  0  0  0
 33 34  1  0  0  0  0
M  END
>  <MODEL>
1

>  <REMARK>
 VINA RESULT:      -6.9      0.000      0.000
  Name = 
  16 active torsions:
  status: ('A' for Active; 'I' for Inactive)
    1  A    between atoms: C_1  and  C_9
    2  A    between atoms: C_1  and  C_21
    3  A    between atoms: C_2  and  C_3
    4  A    between atoms: C_2  and  N_4
    5  A    between atoms: C_3  and  C_29
    6  A    between atoms: C_6  and  C_15
    7  A    between atoms: C_6  and  C_29
    8  A    between atoms: C_7  and  N_12
    9  A    between atoms: O_8  and  C_27
   10  A    between atoms: C_9  and  C_31
   11  A    between atoms: C_13  and  C_21
   12  A    between atoms: C_21  and  C_32
   13  A    between atoms: C_23  and  C_25
   14  A    between atoms: C_23  and  N_33
   15  A    between atoms: C_27  and  C_31
   16  A    between atoms: C_32  and  N_33
                            x       y       z     vdW  Elec       q    Type
                         _______ _______ _______ _____ _____    ______ ____

>  <TORSDO>
F 16

$$$$
=
 OpenBabel11042412153D

 34 35  0  0  1  0  0  0  0  0999 V2000
  190.8280  178.3680  143.1670 C   0  0  0  0  0  1  0  0  0  0  0  0
  189.5660  177.7870  142.5560 C   0  0  1  0  0  3  0  0  0  0  0  0
  188.7400  178.0210  140.2000 C   0  0  0  0  0  0  0  0  0  0  0  0
  190.3990  177.0580  138.7060 C   0  0  0  0  0  2  0  0  0  0  0  0
  191.1980  177.0890  140.3410 S   0  0  0  0  0  0  0  0  0  0  0  0
  189.0710  177.8080  138.7600 C   0  0  1  0  0  3  0  0  0  0  0  0
  189.6840  177.6660  141.0640 C   0  0  0  0  0  0  0  0  0  0  0  0
  187.5070  178.6110  140.6300 N   0  0  0  0  0  2  0  0  0  0  0  0
  186.5310  178.7190  139.8600 O   0  0  0  0  0  1  0  0  0  0  0  0
  187.9810  176.9810  138.0850 C   0  0  0  0  0  2  0  0  0  0  0  0
  187.6970  177.4630  136.6640 C   0  0  2  0  0  3  0  0  0  0  0  0
  186.2010  177.6130  136.4560 C   0  0  0  0  0  1  0  0  0  0  0  0
  188.3200  176.5470  135.6070 C   0  0  0  0  0  2  0  0  0  0  0  0
  187.3750  175.4510  135.1270 C   0  0  0  0  0  2  0  0  0  0  0  0
  187.8450  174.1510  135.5760 N   0  0  0  0  0  2  0  0  0  0  0  0
  187.8070  172.2480  137.1360 N   0  0  0  0  0  1  0  0  0  0  0  0
  187.2520  173.4750  136.6840 C   0  0  0  0  0  0  0  0  0  0  0  0
  186.2430  173.9560  137.2660 O   0  0  0  0  0  0  0  0  0  0  0  0
  189.2600  176.5010  143.1580 N   0  0  0  0  0  2  0  0  0  0  0  0
  187.8370  176.5080  143.4730 C   0  0  0  0  0  2  0  0  0  0  0  0
  187.4980  177.6070  144.4770 C   0  0  1  0  0  3  0  0  0  0  0  0
  183.4890  178.9210  144.1230 N   0  0  0  0  0  0  0  0  0  0  0  0
  186.0730  178.0490  144.3520 C   0  0  0  0  0  0  0  0  0  0  0  0
  184.1760  178.5300  143.0200 C   0  0  0  0  0  0  0  0  0  0  0  0
  185.4610  178.1040  143.1370 N   0  0  0  0  0  0  0  0  0  0  0  0
  184.0660  178.8910  145.3520 C   0  0  0  0  0  3  0  0  0  0  0  0
  185.3820  178.4570  145.4930 C   0  0  0  0  0  3  0  0  0  0  0  0
  183.5570  178.5810  141.7420 N   0  0  0  0  0  1  0  0  0  0  0  0
  187.8470  177.2170  145.9090 C   0  0  0  0  0  2  0  0  0  0  0  0
  189.0380  178.0210  146.4030 C   0  0  0  0  0  2  0  0  0  0  0  0
  189.6460  177.3330  147.6080 C   0  0  0  0  0  2  0  0  0  0  0  0
  190.8060  176.4490  147.1800 C   0  0  0  0  0  2  0  0  0  0  0  0
  191.9910  176.8970  147.7670 O   0  0  0  0  0  0  0  0  0  0  0  0
  192.6870  175.7290  148.0780 C   0  0  0  0  0  1  0  0  0  0  0  0
  2 19  1  0  0  0  0
  2  1  1  1  0  0  0
  3  8  1  0  0  0  0
  3  7  2  0  0  0  0
  4  6  1  0  0  0  0
  4  5  1  0  0  0  0
  5  7  1  0  0  0  0
  6 10  1  1  0  0  0
  6  3  1  0  0  0  0
  7  2  1  0  0  0  0
  9  8  1  0  0  0  0
 11 12  1  6  0  0  0
 11 10  1  0  0  0  0
 13 11  1  0  0  0  0
 14 15  1  0  0  0  0
 14 13  1  0  0  0  0
 15 17  1  0  0  0  0
 17 16  1  0  0  0  0
 17 18  2  0  0  0  0
 19 20  1  0  0  0  0
 21 20  1  6  0  0  0
 21 29  1  0  0  0  0
 22 26  1  0  0  0  0
 23 21  1  0  0  0  0
 23 27  1  0  0  0  0
 24 25  1  0  0  0  0
 24 22  2  0  0  0  0
 25 23  2  0  0  0  0
 26 27  2  0  0  0  0
 28 24  1  0  0  0  0
 29 30  1  0  0  0  0
 30 31  1  0  0  0  0
 32 31  1  0  0  0  0
 32 33  1  0  0  0  0
 33 34  1  0  0  0  0
M  END
>  <MODEL>
2

>  <REMARK>
 VINA RESULT:      -6.6      1.769      2.152
  Name = 
  16 active torsions:
  status: ('A' for Active; 'I' for Inactive)
    1  A    between atoms: C_1  and  C_9
    2  A    between atoms: C_1  and  C_21
    3  A    between atoms: C_2  and  C_3
    4  A    between atoms: C_2  and  N_4
    5  A    between atoms: C_3  and  C_29
    6  A    between atoms: C_6  and  C_15
    7  A    between atoms: C_6  and  C_29
    8  A    between atoms: C_7  and  N_12
    9  A    between atoms: O_8  and  C_27
   10  A    between atoms: C_9  and  C_31
   11  A    between atoms: C_13  and  C_21
   12  A    between atoms: C_21  and  C_32
   13  A    between atoms: C_23  and  C_25
   14  A    between atoms: C_23  and  N_33
   15  A    between atoms: C_27  and  C_31
   16  A    between atoms: C_32  and  N_33
                            x       y       z     vdW  Elec       q    Type
                         _______ _______ _______ _____ _____    ______ ____

>  <TORSDO>
F 16

$$$$
=
 OpenBabel11042412153D

 34 35  0  0  1  0  0  0  0  0999 V2000
  183.4820  178.7280  143.2530 C   0  0  0  0  0  1  0  0  0  0  0  0
  184.8680  179.3360  143.1350 C   0  0  1  0  0  3  0  0  0  0  0  0
  186.0840  178.3590  145.0990 C   0  0  0  0  0  0  0  0  0  0  0  0
  187.9160  176.9940  144.2650 C   0  0  0  0  0  2  0  0  0  0  0  0
  186.9430  177.4300  142.7900 S   0  0  0  0  0  0  0  0  0  0  0  0
  187.1790  177.4400  145.5260 C   0  0  1  0  0  3  0  0  0  0  0  0
  185.9050  178.4680  143.7870 C   0  0  0  0  0  0  0  0  0  0  0  0
  185.2450  179.0480  146.0340 N   0  0  0  0  0  2  0  0  0  0  0  0
  184.5510  178.4300  146.8660 O   0  0  0  0  0  1  0  0  0  0  0  0
  188.1430  178.1650  146.4600 C   0  0  0  0  0  2  0  0  0  0  0  0
  188.5340  177.3030  147.6580 C   0  0  2  0  0  3  0  0  0  0  0  0
  188.7470  178.1770  148.8800 C   0  0  0  0  0  1  0  0  0  0  0  0
  189.7620  176.4350  147.3700 C   0  0  0  0  0  2  0  0  0  0  0  0
  190.9280  177.2190  146.7800 C   0  0  0  0  0  2  0  0  0  0  0  0
  191.3280  176.6410  145.5070 N   0  0  0  0  0  2  0  0  0  0  0  0
  191.7560  176.8000  143.0890 N   0  0  0  0  0  1  0  0  0  0  0  0
  191.4470  177.4300  144.3240 C   0  0  0  0  0  0  0  0  0  0  0  0
  191.2810  178.6790  144.3640 O   0  0  0  0  0  0  0  0  0  0  0  0
  185.1950  179.5770  141.7410 N   0  0  0  0  0  2  0  0  0  0  0  0
  184.1650  178.9240  140.9440 C   0  0  0  0  0  2  0  0  0  0  0  0
  184.1790  179.4270  139.5020 C   0  0  1  0  0  3  0  0  0  0  0  0
  186.3350  176.8650  136.9110 N   0  0  0  0  0  0  0  0  0  0  0  0
  184.9450  178.5060  138.6040 C   0  0  0  0  0  0  0  0  0  0  0  0
  187.0000  177.7070  137.7420 C   0  0  0  0  0  0  0  0  0  0  0  0
  186.3060  178.5250  138.5760 N   0  0  0  0  0  0  0  0  0  0  0  0
  184.9770  176.8220  136.9000 C   0  0  0  0  0  3  0  0  0  0  0  0
  184.2480  177.6520  137.7480 C   0  0  0  0  0  3  0  0  0  0  0  0
  188.4200  177.7450  137.7280 N   0  0  0  0  0  1  0  0  0  0  0  0
  182.7790  179.7080  138.9680 C   0  0  0  0  0  2  0  0  0  0  0  0
  181.7290  179.2740  139.9760 C   0  0  0  0  0  2  0  0  0  0  0  0
  180.3840  179.8480  139.5800 C   0  0  0  0  0  2  0  0  0  0  0  0
  179.7920  180.6450  140.7310 C   0  0  0  0  0  2  0  0  0  0  0  0
  180.4570  180.3350  141.9200 O   0  0  0  0  0  0  0  0  0  0  0  0
  179.4400  180.2230  142.8660 C   0  0  0  0  0  1  0  0  0  0  0  0
  2  1  1  6  0  0  0
  2  7  1  0  0  0  0
  3  6  1  0  0  0  0
  3  8  1  0  0  0  0
  4  6  1  0  0  0  0
  5  7  1  0  0  0  0
  5  4  1  0  0  0  0
  6 10  1  1  0  0  0
  7  3  2  0  0  0  0
  8  9  1  0  0  0  0
 10 11  1  0  0  0  0
 11 12  1  1  0  0  0
 13 11  1  0  0  0  0
 14 13  1  0  0  0  0
 15 14  1  0  0  0  0
 16 17  1  0  0  0  0
 17 18  2  0  0  0  0
 17 15  1  0  0  0  0
 19  2  1  0  0  0  0
 20 19  1  0  0  0  0
 21 29  1  6  0  0  0
 21 20  1  0  0  0  0
 22 24  2  0  0  0  0
 23 21  1  0  0  0  0
 24 25  1  0  0  0  0
 25 23  2  0  0  0  0
 26 22  1  0  0  0  0
 26 27  2  0  0  0  0
 27 23  1  0  0  0  0
 28 24  1  0  0  0  0
 29 30  1  0  0  0  0
 31 30  1  0  0  0  0
 31 32  1  0  0  0  0
 32 33  1  0  0  0  0
 33 34  1  0  0  0  0
M  END
>  <MODEL>
3

>  <REMARK>
 VINA RESULT:      -6.5      2.944      8.670
  Name = 
  16 active torsions:
  status: ('A' for Active; 'I' for Inactive)
    1  A    between atoms: C_1  and  C_9
    2  A    between atoms: C_1  and  C_21
    3  A    between atoms: C_2  and  C_3
    4  A    between atoms: C_2  and  N_4
    5  A    between atoms: C_3  and  C_29
    6  A    between atoms: C_6  and  C_15
    7  A    between atoms: C_6  and  C_29
    8  A    between atoms: C_7  and  N_12
    9  A    between atoms: O_8  and  C_27
   10  A    between atoms: C_9  and  C_31
   11  A    between atoms: C_13  and  C_21
   12  A    between atoms: C_21  and  C_32
   13  A    between atoms: C_23  and  C_25
   14  A    between atoms: C_23  and  N_33
   15  A    between atoms: C_27  and  C_31
   16  A    between atoms: C_32  and  N_33
                            x       y       z     vdW  Elec       q    Type
                         _______ _______ _______ _____ _____    ______ ____

>  <TORSDO>
F 16

$$$$
=
 OpenBabel11042412153D

 34 35  0  0  1  0  0  0  0  0999 V2000
  191.3250  177.3230  140.8510 C   0  0  0  0  0  1  0  0  0  0  0  0
  190.0190  177.6620  140.1560 C   0  0  1  0  0  3  0  0  0  0  0  0
  189.4620  177.9370  137.7270 C   0  0  0  0  0  0  0  0  0  0  0  0
  190.2940  175.9940  136.5240 C   0  0  0  0  0  2  0  0  0  0  0  0
  190.9750  175.8360  138.2050 S   0  0  0  0  0  0  0  0  0  0  0  0
  189.6140  177.3510  136.3630 C   0  0  1  0  0  3  0  0  0  0  0  0
  190.0460  177.2610  138.7100 C   0  0  1  0  0  3  0  0  0  0  0  0
  188.7730  179.1710  137.9660 N   0  0  0  0  0  0  0  0  0  0  0  0
  188.1910  179.7820  137.0470 O   0  0  0  0  0  1  0  0  0  0  0  0
  188.2470  177.1720  135.7100 C   0  0  0  0  0  2  0  0  0  0  0  0
  187.5980  175.8460  136.0990 C   0  0  2  0  0  3  0  0  0  0  0  0
  186.9560  175.2050  134.8820 C   0  0  0  0  0  1  0  0  0  0  0  0
  186.5920  176.0080  137.2420 C   0  0  0  0  0  2  0  0  0  0  0  0
  185.3730  176.8390  136.8590 C   0  0  0  0  0  2  0  0  0  0  0  0
  185.4240  178.1360  137.5130 N   0  0  0  0  0  2  0  0  0  0  0  0
  184.6240  179.7610  139.1790 N   0  0  0  0  0  1  0  0  0  0  0  0
  184.5970  178.4500  138.6330 C   0  0  0  0  0  0  0  0  0  0  0  0
  183.8430  177.5770  139.1410 O   0  0  0  0  0  0  0  0  0  0  0  0
  188.9040  177.0380  140.8470 N   0  0  0  0  0  2  0  0  0  0  0  0
  188.1300  178.1100  141.4590 C   0  0  0  0  0  2  0  0  0  0  0  0
  187.8550  177.8200  142.9330 C   0  0  1  0  0  3  0  0  0  0  0  0
  183.8340  178.6400  143.9750 N   0  0  0  0  0  0  0  0  0  0  0  0
  186.4380  178.1330  143.3030 C   0  0  0  0  0  0  0  0  0  0  0  0
  184.7860  178.5710  144.9400 C   0  0  0  0  0  0  0  0  0  0  0  0
  186.0760  178.3120  144.6030 N   0  0  0  0  0  0  0  0  0  0  0  0
  184.1510  178.4560  142.6670 C   0  0  0  0  0  3  0  0  0  0  0  0
  185.4690  178.1910  142.3010 C   0  0  0  0  0  3  0  0  0  0  0  0
  184.4300  178.7530  146.3040 N   0  0  0  0  0  1  0  0  0  0  0  0
  188.2460  176.4020  143.3330 C   0  0  0  0  0  2  0  0  0  0  0  0
  189.5250  176.4150  144.1520 C   0  0  0  0  0  2  0  0  0  0  0  0
  189.6890  177.7710  144.8100 C   0  0  0  0  0  2  0  0  0  0  0  0
  189.6460  177.6310  146.3220 C   0  0  0  0  0  2  0  0  0  0  0  0
  188.4080  177.1220  146.7210 O   0  0  0  0  0  0  0  0  0  0  0  0
  188.0570  177.8930  147.8290 C   0  0  0  0  0  1  0  0  0  0  0  0
  2 19  1  0  0  0  0
  2  1  1  1  0  0  0
  3  8  2  0  0  0  0
  3  7  1  0  0  0  0
  4  5  1  0  0  0  0
  5  7  1  0  0  0  0
  6 10  1  1  0  0  0
  6  4  1  0  0  0  0
  6  3  1  0  0  0  0
  7  2  1  6  0  0  0
  9  8  1  0  0  0  0
 10 11  1  0  0  0  0
 11 12  1  6  0  0  0
 11 13  1  0  0  0  0
 14 13  1  0  0  0  0
 14 15  1  0  0  0  0
 15 17  1  0  0  0  0
 17 18  2  0  0  0  0
 17 16  1  0  0  0  0
 19 20  1  0  0  0  0
 21 20  1  6  0  0  0
 21 23  1  0  0  0  0
 21 29  1  0  0  0  0
 22 24  2  0  0  0  0
 23 25  2  0  0  0  0
 24 28  1  0  0  0  0
 25 24  1  0  0  0  0
 26 22  1  0  0  0  0
 27 26  2  0  0  0  0
 27 23  1  0  0  0  0
 29 30  1  0  0  0  0
 30 31  1  0  0  0  0
 31 32  1  0  0  0  0
 32 33  1  0  0  0  0
 33 34  1  0  0  0  0
M  END
>  <MODEL>
4

>  <REMARK>
 VINA RESULT:      -6.4      1.830      2.901
  Name = 
  16 active torsions:
  status: ('A' for Active; 'I' for Inactive)
    1  A    between atoms: C_1  and  C_9
    2  A    between atoms: C_1  and  C_21
    3  A    between atoms: C_2  and  C_3
    4  A    between atoms: C_2  and  N_4
    5  A    between atoms: C_3  and  C_29
    6  A    between atoms: C_6  and  C_15
    7  A    between atoms: C_6  and  C_29
    8  A    between atoms: C_7  and  N_12
    9  A    between atoms: O_8  and  C_27
   10  A    between atoms: C_9  and  C_31
   11  A    between atoms: C_13  and  C_21
   12  A    between atoms: C_21  and  C_32
   13  A    between atoms: C_23  and  C_25
   14  A    between atoms: C_23  and  N_33
   15  A    between atoms: C_27  and  C_31
   16  A    between atoms: C_32  and  N_33
                            x       y       z     vdW  Elec       q    Type
                         _______ _______ _______ _____ _____    ______ ____

>  <TORSDO>
F 16

$$$$
=
 OpenBabel11042412153D

 34 35  0  0  1  0  0  0  0  0999 V2000
  191.7410  177.4340  140.9670 C   0  0  0  0  0  1  0  0  0  0  0  0
  190.3670  177.6320  140.3540 C   0  0  1  0  0  3  0  0  0  0  0  0
  189.6740  177.8540  137.9540 C   0  0  0  0  0  0  0  0  0  0  0  0
  190.5570  175.9540  136.7210 C   0  0  0  0  0  2  0  0  0  0  0  0
  191.3300  175.8490  138.3660 S   0  0  0  0  0  0  0  0  0  0  0  0
  189.7920  177.2670  136.5870 C   0  0  1  0  0  3  0  0  0  0  0  0
  190.3460  177.2210  138.9100 C   0  0  0  0  0  0  0  0  0  0  0  0
  188.9260  179.0470  138.2220 N   0  0  0  0  0  2  0  0  0  0  0  0
  188.8410  179.9660  137.3810 O   0  0  0  0  0  1  0  0  0  0  0  0
  188.4060  177.0030  136.0050 C   0  0  0  0  0  2  0  0  0  0  0  0
  187.7520  175.7700  136.6250 C   0  0  2  0  0  3  0  0  0  0  0  0
  187.3610  174.7870  135.5370 C   0  0  0  0  0  1  0  0  0  0  0  0
  186.5560  176.1330  137.5080 C   0  0  0  0  0  2  0  0  0  0  0  0
  185.7470  177.3100  136.9740 C   0  0  0  0  0  2  0  0  0  0  0  0
  185.7060  178.3790  137.9580 N   0  0  0  0  0  2  0  0  0  0  0  0
  184.4880  179.9500  139.4080 N   0  0  0  0  0  1  0  0  0  0  0  0
  184.4780  178.8440  138.5170 C   0  0  0  0  0  0  0  0  0  0  0  0
  183.3870  178.2850  138.2270 O   0  0  0  0  0  0  0  0  0  0  0  0
  189.3660  176.9040  141.1150 N   0  0  0  0  0  2  0  0  0  0  0  0
  189.0040  177.7420  142.2500 C   0  0  0  0  0  2  0  0  0  0  0  0
  188.1720  176.9640  143.2680 C   0  0  1  0  0  3  0  0  0  0  0  0
  189.6580  177.3650  147.2120 N   0  0  0  0  0  0  0  0  0  0  0  0
  188.7040  177.1280  144.6570 C   0  0  0  0  0  0  0  0  0  0  0  0
  190.5000  177.0450  146.1970 C   0  0  0  0  0  0  0  0  0  0  0  0
  190.0220  176.9210  144.9310 N   0  0  0  0  0  0  0  0  0  0  0  0
  188.3350  177.5690  146.9820 C   0  0  0  0  0  3  0  0  0  0  0  0
  187.8250  177.4480  145.6920 C   0  0  0  0  0  3  0  0  0  0  0  0
  191.8790  176.8230  146.4610 N   0  0  0  0  0  1  0  0  0  0  0  0
  186.6870  177.3000  143.1860 C   0  0  0  0  0  2  0  0  0  0  0  0
  186.4600  178.4810  142.2580 C   0  0  0  0  0  2  0  0  0  0  0  0
  185.2510  179.2650  142.7280 C   0  0  0  0  0  2  0  0  0  0  0  0
  184.4120  178.4220  143.6740 C   0  0  0  0  0  2  0  0  0  0  0  0
  183.5180  179.2360  144.3750 O   0  0  0  0  0  0  0  0  0  0  0  0
  182.2930  179.0300  143.7420 C   0  0  0  0  0  1  0  0  0  0  0  0
  2  1  1  1  0  0  0
  2 19  1  0  0  0  0
  3  8  1  0  0  0  0
  3  7  2  0  0  0  0
  4  5  1  0  0  0  0
  5  7  1  0  0  0  0
  6 10  1  1  0  0  0
  6  4  1  0  0  0  0
  6  3  1  0  0  0  0
  7  2  1  0  0  0  0
  9  8  1  0  0  0  0
 10 11  1  0  0  0  0
 11 12  1  6  0  0  0
 11 13  1  0  0  0  0
 14 13  1  0  0  0  0
 14 15  1  0  0  0  0
 15 17  1  0  0  0  0
 17 16  1  0  0  0  0
 18 17  2  0  0  0  0
 19 20  1  0  0  0  0
 21 20  1  6  0  0  0
 21 23  1  0  0  0  0
 23 25  2  0  0  0  0
 23 27  1  0  0  0  0
 24 28  1  0  0  0  0
 24 22  2  0  0  0  0
 25 24  1  0  0  0  0
 26 22  1  0  0  0  0
 27 26  2  0  0  0  0
 29 21  1  0  0  0  0
 30 31  1  0  0  0  0
 30 29  1  0  0  0  0
 31 32  1  0  0  0  0
 32 33  1  0  0  0  0
 34 33  1  0  0  0  0
M  END
>  <MODEL>
5

>  <REMARK>
 VINA RESULT:      -6.4      2.536      4.716
  Name = 
  16 active torsions:
  status: ('A' for Active; 'I' for Inactive)
    1  A    between atoms: C_1  and  C_9
    2  A    between atoms: C_1  and  C_21
    3  A    between atoms: C_2  and  C_3
    4  A    between atoms: C_2  and  N_4
    5  A    between atoms: C_3  and  C_29
    6  A    between atoms: C_6  and  C_15
    7  A    between atoms: C_6  and  C_29
    8  A    between atoms: C_7  and  N_12
    9  A    between atoms: O_8  and  C_27
   10  A    between atoms: C_9  and  C_31
   11  A    between atoms: C_13  and  C_21
   12  A    between atoms: C_21  and  C_32
   13  A    between atoms: C_23  and  C_25
   14  A    between atoms: C_23  and  N_33
   15  A    between atoms: C_27  and  C_31
   16  A    between atoms: C_32  and  N_33
                            x       y       z     vdW  Elec       q    Type
                         _______ _______ _______ _____ _____    ______ ____

>  <TORSDO>
F 16

$$$$
=
 OpenBabel11042412153D

 34 35  0  0  1  0  0  0  0  0999 V2000
  183.4060  178.8700  143.9310 C   0  0  0  0  0  1  0  0  0  0  0  0
  184.7520  179.3510  143.4200 C   0  0  1  0  0  3  0  0  0  0  0  0
  186.1930  178.4010  145.2390 C   0  0  0  0  0  0  0  0  0  0  0  0
  187.9640  177.0900  144.2100 C   0  0  0  0  0  2  0  0  0  0  0  0
  186.8310  177.5050  142.8470 S   0  0  0  0  0  0  0  0  0  0  0  0
  187.3510  177.5110  145.5430 C   0  0  1  0  0  3  0  0  0  0  0  0
  185.8750  178.5100  143.9540 C   0  0  0  0  0  0  0  0  0  0  0  0
  185.4380  179.0640  146.2610 N   0  0  0  0  0  2  0  0  0  0  0  0
  184.6280  178.4430  146.9800 O   0  0  0  0  0  1  0  0  0  0  0  0
  188.3870  178.2590  146.3770 C   0  0  0  0  0  2  0  0  0  0  0  0
  188.8730  177.4300  147.5630 C   0  0  2  0  0  3  0  0  0  0  0  0
  188.2380  177.9350  148.8460 C   0  0  0  0  0  1  0  0  0  0  0  0
  190.4010  177.4070  147.6660 C   0  0  0  0  0  2  0  0  0  0  0  0
  191.0670  176.6030  146.5550 C   0  0  0  0  0  2  0  0  0  0  0  0
  191.3220  177.4530  145.4040 N   0  0  0  0  0  2  0  0  0  0  0  0
  191.9870  177.7910  143.0590 N   0  0  0  0  0  1  0  0  0  0  0  0
  191.6630  176.9130  144.1280 C   0  0  0  0  0  0  0  0  0  0  0  0
  191.6800  175.6670  143.9400 O   0  0  0  0  0  0  0  0  0  0  0  0
  184.7620  179.3690  141.9670 N   0  0  0  0  0  2  0  0  0  0  0  0
  183.6670  178.5160  141.5250 C   0  0  0  0  0  2  0  0  0  0  0  0
  183.3710  178.7220  140.0410 C   0  0  1  0  0  3  0  0  0  0  0  0
  179.9710  181.1870  139.5030 N   0  0  0  0  0  0  0  0  0  0  0  0
  182.1620  179.5790  139.8330 C   0  0  0  0  0  0  0  0  0  0  0  0
  181.0510  181.3310  138.6930 C   0  0  0  0  0  0  0  0  0  0  0  0
  182.1390  180.5360  138.8650 N   0  0  0  0  0  0  0  0  0  0  0  0
  179.9580  180.2520  140.4880 C   0  0  0  0  0  3  0  0  0  0  0  0
  181.0630  179.4260  140.6790 C   0  0  0  0  0  3  0  0  0  0  0  0
  181.0500  182.3250  137.6770 N   0  0  0  0  0  1  0  0  0  0  0  0
  184.5780  179.2460  139.2720 C   0  0  0  0  0  2  0  0  0  0  0  0
  185.1120  178.1810  138.3300 C   0  0  0  0  0  2  0  0  0  0  0  0
  186.6270  178.1970  138.3580 C   0  0  0  0  0  2  0  0  0  0  0  0
  187.1760  178.5110  136.9770 C   0  0  0  0  0  2  0  0  0  0  0  0
  188.3280  179.2930  137.0860 O   0  0  0  0  0  0  0  0  0  0  0  0
  189.0970  178.6450  138.0520 C   0  0  0  0  0  1  0  0  0  0  0  0
  2  1  1  6  0  0  0
  2  7  1  0  0  0  0
  3  6  1  0  0  0  0
  3  8  1  0  0  0  0
  4  6  1  0  0  0  0
  5  7  1  0  0  0  0
  5  4  1  0  0  0  0
  6 10  1  1  0  0  0
  7  3  2  0  0  0  0
  8  9  1  0  0  0  0
 10 11  1  0  0  0  0
 11 13  1  0  0  0  0
 11 12  1  1  0  0  0
 14 13  1  0  0  0  0
 15 14  1  0  0  0  0
 16 17  1  0  0  0  0
 17 15  1  0  0  0  0
 18 17  2  0  0  0  0
 19  2  1  0  0  0  0
 20 19  1  0  0  0  0
 21 29  1  6  0  0  0
 21 20  1  0  0  0  0
 22 26  1  0  0  0  0
 23 21  1  0  0  0  0
 23 27  1  0  0  0  0
 24 25  1  0  0  0  0
 24 22  2  0  0  0  0
 25 23  2  0  0  0  0
 26 27  2  0  0  0  0
 28 24  1  0  0  0  0
 30 31  1  0  0  0  0
 30 29  1  0  0  0  0
 32 33  1  0  0  0  0
 32 31  1  0  0  0  0
 33 34  1  0  0  0  0
M  END
>  <MODEL>
6

>  <REMARK>
 VINA RESULT:      -6.2      3.000      8.103
  Name = 
  16 active torsions:
  status: ('A' for Active; 'I' for Inactive)
    1  A    between atoms: C_1  and  C_9
    2  A    between atoms: C_1  and  C_21
    3  A    between atoms: C_2  and  C_3
    4  A    between atoms: C_2  and  N_4
    5  A    between atoms: C_3  and  C_29
    6  A    between atoms: C_6  and  C_15
    7  A    between atoms: C_6  and  C_29
    8  A    between atoms: C_7  and  N_12
    9  A    between atoms: O_8  and  C_27
   10  A    between atoms: C_9  and  C_31
   11  A    between atoms: C_13  and  C_21
   12  A    between atoms: C_21  and  C_32
   13  A    between atoms: C_23  and  C_25
   14  A    between atoms: C_23  and  N_33
   15  A    between atoms: C_27  and  C_31
   16  A    between atoms: C_32  and  N_33
                            x       y       z     vdW  Elec       q    Type
                         _______ _______ _______ _____ _____    ______ ____

>  <TORSDO>
F 16

$$$$
=
 OpenBabel11042412153D

 34 35  0  0  1  0  0  0  0  0999 V2000
  192.1770  177.5340  140.1680 C   0  0  0  0  0  1  0  0  0  0  0  0
  191.0440  176.5520  140.4000 C   0  0  1  0  0  3  0  0  0  0  0  0
  189.8890  177.3160  142.4910 C   0  0  0  0  0  0  0  0  0  0  0  0
  187.6900  178.1620  141.8870 C   0  0  0  0  0  2  0  0  0  0  0  0
  188.5430  177.8910  140.3020 S   0  0  0  0  0  0  0  0  0  0  0  0
  188.6670  177.9710  143.0440 C   0  0  1  0  0  3  0  0  0  0  0  0
  189.9190  177.1830  141.1690 C   0  0  0  0  0  0  0  0  0  0  0  0
  190.9820  176.8960  143.3160 N   0  0  0  0  0  2  0  0  0  0  0  0
  191.1460  175.6970  143.6210 O   0  0  0  0  0  1  0  0  0  0  0  0
  188.0350  177.0890  144.1160 C   0  0  0  0  0  2  0  0  0  0  0  0
  187.8870  177.8240  145.4460 C   0  0  2  0  0  3  0  0  0  0  0  0
  188.9730  177.3820  146.4090 C   0  0  0  0  0  1  0  0  0  0  0  0
  186.4930  177.6450  146.0540 C   0  0  0  0  0  2  0  0  0  0  0  0
  185.7230  178.9540  146.1910 C   0  0  0  0  0  2  0  0  0  0  0  0
  184.3440  178.7710  145.7710 N   0  0  0  0  0  2  0  0  0  0  0  0
  182.5130  179.0480  144.1500 N   0  0  0  0  0  1  0  0  0  0  0  0
  183.8900  179.1690  144.4780 C   0  0  0  0  0  0  0  0  0  0  0  0
  184.6970  179.6260  143.6250 O   0  0  0  0  0  0  0  0  0  0  0  0
  190.5720  176.0190  139.1340 N   0  0  0  0  0  2  0  0  0  0  0  0
  191.4110  176.5950  138.0920 C   0  0  0  0  0  2  0  0  0  0  0  0
  191.7870  175.5500  137.0440 C   0  0  1  0  0  3  0  0  0  0  0  0
  195.9720  174.9090  136.9920 N   0  0  0  0  0  0  0  0  0  0  0  0
  193.2630  175.3010  137.0180 C   0  0  0  0  0  0  0  0  0  0  0  0
  195.2260  174.4430  138.0260 C   0  0  0  0  0  0  0  0  0  0  0  0
  193.8820  174.6470  138.0380 N   0  0  0  0  0  0  0  0  0  0  0  0
  195.3950  175.5760  135.9600 C   0  0  0  0  0  3  0  0  0  0  0  0
  194.0190  175.7930  135.9530 C   0  0  0  0  0  3  0  0  0  0  0  0
  195.8520  173.7590  139.1030 N   0  0  0  0  0  1  0  0  0  0  0  0
  190.9970  174.2560  137.2010 C   0  0  0  0  0  2  0  0  0  0  0  0
  190.2840  173.9090  135.9050 C   0  0  0  0  0  2  0  0  0  0  0  0
  189.5220  175.1220  135.4090 C   0  0  0  0  0  2  0  0  0  0  0  0
  188.1550  175.1920  136.0700 C   0  0  0  0  0  2  0  0  0  0  0  0
  188.0580  176.3480  136.8470 O   0  0  0  0  0  0  0  0  0  0  0  0
  186.6910  176.4940  137.0820 C   0  0  0  0  0  1  0  0  0  0  0  0
  2  1  1  6  0  0  0
  2  7  1  0  0  0  0
  3  6  1  0  0  0  0
  3  8  1  0  0  0  0
  4  6  1  0  0  0  0
  5  7  1  0  0  0  0
  5  4  1  0  0  0  0
  6 10  1  1  0  0  0
  7  3  2  0  0  0  0
  8  9  1  0  0  0  0
 10 11  1  0  0  0  0
 11 13  1  0  0  0  0
 11 12  1  1  0  0  0
 13 14  1  0  0  0  0
 15 14  1  0  0  0  0
 16 17  1  0  0  0  0
 17 15  1  0  0  0  0
 18 17  2  0  0  0  0
 19  2  1  0  0  0  0
 20 19  1  0  0  0  0
 21 29  1  1  0  0  0
 21 20  1  0  0  0  0
 22 24  2  0  0  0  0
 23 21  1  0  0  0  0
 23 25  2  0  0  0  0
 24 25  1  0  0  0  0
 24 28  1  0  0  0  0
 26 22  1  0  0  0  0
 27 26  2  0  0  0  0
 27 23  1  0  0  0  0
 30 29  1  0  0  0  0
 31 30  1  0  0  0  0
 31 32  1  0  0  0  0
 32 33  1  0  0  0  0
 33 34  1  0  0  0  0
M  END
>  <MODEL>
7

>  <REMARK>
 VINA RESULT:      -6.2      3.623      9.185
  Name = 
  16 active torsions:
  status: ('A' for Active; 'I' for Inactive)
    1  A    between atoms: C_1  and  C_9
    2  A    between atoms: C_1  and  C_21
    3  A    between atoms: C_2  and  C_3
    4  A    between atoms: C_2  and  N_4
    5  A    between atoms: C_3  and  C_29
    6  A    between atoms: C_6  and  C_15
    7  A    between atoms: C_6  and  C_29
    8  A    between atoms: C_7  and  N_12
    9  A    between atoms: O_8  and  C_27
   10  A    between atoms: C_9  and  C_31
   11  A    between atoms: C_13  and  C_21
   12  A    between atoms: C_21  and  C_32
   13  A    between atoms: C_23  and  C_25
   14  A    between atoms: C_23  and  N_33
   15  A    between atoms: C_27  and  C_31
   16  A    between atoms: C_32  and  N_33
                            x       y       z     vdW  Elec       q    Type
                         _______ _______ _______ _____ _____    ______ ____

>  <TORSDO>
F 16

$$$$
=
 OpenBabel11042412153D

 34 35  0  0  1  0  0  0  0  0999 V2000
  187.8140  178.0360  136.3180 C   0  0  0  0  0  1  0  0  0  0  0  0
  187.2140  178.0080  137.7110 C   0  0  1  0  0  3  0  0  0  0  0  0
  184.8060  178.1980  138.3850 C   0  0  0  0  0  0  0  0  0  0  0  0
  183.5690  176.3900  137.3300 C   0  0  0  0  0  2  0  0  0  0  0  0
  185.2250  176.3320  136.5760 S   0  0  0  0  0  0  0  0  0  0  0  0
  183.4360  177.6380  138.1990 C   0  0  1  0  0  3  0  0  0  0  0  0
  185.7660  177.6130  137.6780 C   0  0  0  0  0  0  0  0  0  0  0  0
  185.0730  179.3230  139.2320 N   0  0  0  0  0  2  0  0  0  0  0  0
  184.4650  180.4030  139.0930 O   0  0  0  0  0  1  0  0  0  0  0  0
  182.8300  177.2670  139.5490 C   0  0  0  0  0  2  0  0  0  0  0  0
  181.5960  178.1060  139.8720 C   0  0  2  0  0  3  0  0  0  0  0  0
  181.2600  179.0080  138.6980 C   0  0  0  0  0  1  0  0  0  0  0  0
  181.7650  178.9100  141.1650 C   0  0  0  0  0  2  0  0  0  0  0  0
  183.0690  178.6100  141.8940 C   0  0  0  0  0  2  0  0  0  0  0  0
  182.9090  178.8360  143.3210 N   0  0  0  0  0  2  0  0  0  0  0  0
  183.8040  178.9980  145.6080 N   0  0  0  0  0  1  0  0  0  0  0  0
  184.0250  178.8600  144.2110 C   0  0  0  0  0  0  0  0  0  0  0  0
  185.2010  178.7590  143.7710 O   0  0  0  0  0  0  0  0  0  0  0  0
  187.9760  177.1180  138.5700 N   0  0  0  0  0  2  0  0  0  0  0  0
  188.7150  177.9570  139.5030 C   0  0  0  0  0  2  0  0  0  0  0  0
  189.6310  177.1190  140.3940 C   0  0  1  0  0  3  0  0  0  0  0  0
  193.5550  176.8020  138.8370 N   0  0  0  0  0  0  0  0  0  0  0  0
  191.0150  177.0260  139.8300 C   0  0  0  0  0  0  0  0  0  0  0  0
  192.5000  176.3320  138.1240 C   0  0  0  0  0  0  0  0  0  0  0  0
  191.2420  176.4390  138.6230 N   0  0  0  0  0  0  0  0  0  0  0  0
  193.3730  177.3850  140.0500 C   0  0  0  0  0  3  0  0  0  0  0  0
  192.0900  177.5050  140.5790 C   0  0  0  0  0  3  0  0  0  0  0  0
  192.7150  175.7130  136.8620 N   0  0  0  0  0  1  0  0  0  0  0  0
  189.6380  177.6010  141.8400 C   0  0  0  0  0  2  0  0  0  0  0  0
  188.2870  177.3510  142.4890 C   0  0  0  0  0  2  0  0  0  0  0  0
  188.4930  176.7420  143.8620 C   0  0  0  0  0  2  0  0  0  0  0  0
  188.3860  177.8130  144.9350 C   0  0  0  0  0  2  0  0  0  0  0  0
  189.5950  177.9210  145.6260 O   0  0  0  0  0  0  0  0  0  0  0  0
  189.4050  177.1590  146.7770 C   0  0  0  0  0  1  0  0  0  0  0  0
  2  1  1  6  0  0  0
  2 19  1  0  0  0  0
  3  8  1  0  0  0  0
  4  6  1  0  0  0  0
  5  4  1  0  0  0  0
  5  7  1  0  0  0  0
  6  3  1  0  0  0  0
  6 10  1  1  0  0  0
  7  2  1  0  0  0  0
  7  3  2  0  0  0  0
  9  8  1  0  0  0  0
 10 11  1  0  0  0  0
 11 12  1  6  0  0  0
 11 13  1  0  0  0  0
 13 14  1  0  0  0  0
 14 15  1  0  0  0  0
 15 17  1  0  0  0  0
 17 16  1  0  0  0  0
 18 17  2  0  0  0  0
 19 20  1  0  0  0  0
 21 20  1  6  0  0  0
 21 29  1  0  0  0  0
 22 26  1  0  0  0  0
 23 21  1  0  0  0  0
 23 27  1  0  0  0  0
 24 25  1  0  0  0  0
 24 22  2  0  0  0  0
 25 23  2  0  0  0  0
 26 27  2  0  0  0  0
 28 24  1  0  0  0  0
 29 30  1  0  0  0  0
 30 31  1  0  0  0  0
 31 32  1  0  0  0  0
 32 33  1  0  0  0  0
 33 34  1  0  0  0  0
M  END
>  <MODEL>
8

>  <REMARK>
 VINA RESULT:      -6.0      2.895      6.924
  Name = 
  16 active torsions:
  status: ('A' for Active; 'I' for Inactive)
    1  A    between atoms: C_1  and  C_9
    2  A    between atoms: C_1  and  C_21
    3  A    between atoms: C_2  and  C_3
    4  A    between atoms: C_2  and  N_4
    5  A    between atoms: C_3  and  C_29
    6  A    between atoms: C_6  and  C_15
    7  A    between atoms: C_6  and  C_29
    8  A    between atoms: C_7  and  N_12
    9  A    between atoms: O_8  and  C_27
   10  A    between atoms: C_9  and  C_31
   11  A    between atoms: C_13  and  C_21
   12  A    between atoms: C_21  and  C_32
   13  A    between atoms: C_23  and  C_25
   14  A    between atoms: C_23  and  N_33
   15  A    between atoms: C_27  and  C_31
   16  A    between atoms: C_32  and  N_33
                            x       y       z     vdW  Elec       q    Type
                         _______ _______ _______ _____ _____    ______ ____

>  <TORSDO>
F 16

$$$$
=
 OpenBabel11042412153D

 34 35  0  0  1  0  0  0  0  0999 V2000
  192.0540  177.5780  140.3410 C   0  0  0  0  0  1  0  0  0  0  0  0
  190.9460  176.5870  140.6450 C   0  0  1  0  0  3  0  0  0  0  0  0
  189.7930  177.3170  142.7490 C   0  0  0  0  0  0  0  0  0  0  0  0
  187.6310  178.2580  142.1530 C   0  0  0  0  0  2  0  0  0  0  0  0
  188.4920  178.0130  140.5680 S   0  0  0  0  0  0  0  0  0  0  0  0
  188.5880  177.9940  143.3120 C   0  0  1  0  0  3  0  0  0  0  0  0
  189.8340  177.2290  141.4240 C   0  0  0  0  0  0  0  0  0  0  0  0
  190.8620  176.8320  143.5700 N   0  0  0  0  0  2  0  0  0  0  0  0
  191.6880  177.6080  144.0920 O   0  0  0  0  0  1  0  0  0  0  0  0
  187.9140  177.0980  144.3470 C   0  0  0  0  0  2  0  0  0  0  0  0
  187.8300  177.7690  145.7160 C   0  0  2  0  0  3  0  0  0  0  0  0
  188.8800  177.1870  146.6450 C   0  0  0  0  0  1  0  0  0  0  0  0
  186.4280  177.6690  146.3230 C   0  0  0  0  0  2  0  0  0  0  0  0
  185.6780  178.9960  146.3260 C   0  0  0  0  0  2  0  0  0  0  0  0
  184.3180  178.8060  145.8490 N   0  0  0  0  0  2  0  0  0  0  0  0
  182.5820  178.9780  144.1140 N   0  0  0  0  0  1  0  0  0  0  0  0
  183.9420  179.0990  144.5040 C   0  0  0  0  0  0  0  0  0  0  0  0
  184.8040  179.4660  143.6600 O   0  0  0  0  0  0  0  0  0  0  0  0
  190.4440  175.9990  139.4150 N   0  0  0  0  0  2  0  0  0  0  0  0
  191.5620  175.9480  138.4820 C   0  0  0  0  0  2  0  0  0  0  0  0
  191.1020  175.5200  137.0910 C   0  0  1  0  0  3  0  0  0  0  0  0
  187.9740  177.9910  135.6650 N   0  0  0  0  0  0  0  0  0  0  0  0
  190.0110  176.4050  136.5730 C   0  0  0  0  0  0  0  0  0  0  0  0
  188.8030  178.4390  136.6420 C   0  0  0  0  0  0  0  0  0  0  0  0
  189.8080  177.6460  137.0950 N   0  0  0  0  0  0  0  0  0  0  0  0
  188.1350  176.7550  135.1250 C   0  0  0  0  0  3  0  0  0  0  0  0
  189.1620  175.9280  135.5740 C   0  0  0  0  0  3  0  0  0  0  0  0
  188.6080  179.7300  137.2030 N   0  0  0  0  0  1  0  0  0  0  0  0
  192.2580  175.4060  136.1030 C   0  0  0  0  0  2  0  0  0  0  0  0
  193.4990  176.0850  136.6570 C   0  0  0  0  0  2  0  0  0  0  0  0
  194.6590  175.1100  136.6340 C   0  0  0  0  0  2  0  0  0  0  0  0
  194.2190  173.7550  137.1640 C   0  0  0  0  0  2  0  0  0  0  0  0
  195.2780  173.1350  137.8310 O   0  0  0  0  0  0  0  0  0  0  0  0
  195.7480  174.1070  138.7130 C   0  0  0  0  0  1  0  0  0  0  0  0
  2  1  1  6  0  0  0
  2  7  1  0  0  0  0
  3  6  1  0  0  0  0
  3  8  1  0  0  0  0
  4  6  1  0  0  0  0
  5  7  1  0  0  0  0
  5  4  1  0  0  0  0
  6 10  1  1  0  0  0
  7  3  2  0  0  0  0
  8  9  1  0  0  0  0
 10 11  1  0  0  0  0
 11 13  1  0  0  0  0
 11 12  1  1  0  0  0
 13 14  1  0  0  0  0
 15 14  1  0  0  0  0
 16 17  1  0  0  0  0
 17 15  1  0  0  0  0
 18 17  2  0  0  0  0
 19  2  1  0  0  0  0
 20 19  1  0  0  0  0
 21 29  1  6  0  0  0
 21 20  1  0  0  0  0
 22 24  2  0  0  0  0
 23 21  1  0  0  0  0
 23 25  2  0  0  0  0
 24 25  1  0  0  0  0
 24 28  1  0  0  0  0
 26 27  2  0  0  0  0
 26 22  1  0  0  0  0
 27 23  1  0  0  0  0
 29 30  1  0  0  0  0
 31 30  1  0  0  0  0
 31 32  1  0  0  0  0
 32 33  1  0  0  0  0
 33 34  1  0  0  0  0
M  END
>  <MODEL>
9

>  <REMARK>
 VINA RESULT:      -5.9      3.193      8.080
  Name = 
  16 active torsions:
  status: ('A' for Active; 'I' for Inactive)
    1  A    between atoms: C_1  and  C_9
    2  A    between atoms: C_1  and  C_21
    3  A    between atoms: C_2  and  C_3
    4  A    between atoms: C_2  and  N_4
    5  A    between atoms: C_3  and  C_29
    6  A    between atoms: C_6  and  C_15
    7  A    between atoms: C_6  and  C_29
    8  A    between atoms: C_7  and  N_12
    9  A    between atoms: O_8  and  C_27
   10  A    between atoms: C_9  and  C_31
   11  A    between atoms: C_13  and  C_21
   12  A    between atoms: C_21  and  C_32
   13  A    between atoms: C_23  and  C_25
   14  A    between atoms: C_23  and  N_33
   15  A    between atoms: C_27  and  C_31
   16  A    between atoms: C_32  and  N_33
                            x       y       z     vdW  Elec       q    Type
                         _______ _______ _______ _____ _____    ______ ____

>  <TORSDO>
F 16

$$$$
