=
 OpenBabel11032420543D

 47 54  0  0  1  0  0  0  0  0999 V2000
  189.5920  176.6680  137.9900 N   0  0  0  0  0  0  0  0  0  0  0  0
  187.6940  174.8660  136.5190 C   0  0  0  0  0  2  0  0  0  0  0  0
  189.2540  177.2930  140.2190 N   0  0  0  0  0  0  0  0  0  0  0  0
  191.8110  176.6580  137.0310 N   0  0  0  0  0  0  0  0  0  0  0  0
  193.7330  177.2390  139.9760 N   0  0  0  0  0  0  0  0  0  0  0  0
  190.1180  172.1260  135.6610 C   0  0  0  0  0  3  0  0  0  0  0  0
  193.6040  177.0750  138.5790 N   0  0  0  0  0  0  0  0  0  0  0  0
  188.9500  172.8660  135.8260 C   0  0  0  0  0  3  0  0  0  0  0  0
  189.0010  174.2010  136.2450 C   0  0  0  0  0  0  0  0  0  0  0  0
  190.1630  176.7220  139.2890 C   0  0  2  0  0  3  0  0  0  0  0  0
  188.3700  177.4190  138.1100 C   0  0  0  0  0  0  0  0  0  0  0  0
  188.1700  177.7440  139.3990 C   0  0  0  0  0  0  0  0  0  0  0  0
  190.2570  174.8290  136.4710 C   0  0  0  0  0  0  0  0  0  0  0  0
  192.3660  177.1120  140.5380 C   0  0  0  0  0  3  0  0  0  0  0  0
  189.5380  177.7190  141.5820 C   0  0  0  0  0  1  0  0  0  0  0  0
  191.3620  172.7120  135.9110 C   0  0  0  0  0  0  0  0  0  0  0  0
  190.3890  176.3130  136.7960 C   0  0  1  0  0  3  0  0  0  0  0  0
  187.4320  177.7770  136.9640 C   0  0  2  0  0  3  0  0  0  0  0  0
  191.4900  176.6750  139.4140 C   0  0  0  0  0  0  0  0  0  0  0  0
  191.4240  174.0580  136.3000 C   0  0  0  0  0  3  0  0  0  0  0  0
  187.2720  175.8010  135.3980 C   0  0  0  0  0  2  0  0  0  0  0  0
  192.2970  176.6790  138.2400 C   0  0  0  0  0  0  0  0  0  0  0  0
  187.8450  177.2010  135.6090 C   0  0  0  0  0  2  0  0  0  0  0  0
  193.6960  172.1630  136.5170 O   0  0  0  0  0  0  0  0  0  0  0  0
  194.0370  170.3310  135.4600 N   0  0  0  0  0  0  0  0  0  0  0  0
  192.7860  170.7330  135.1640 C   0  0  0  0  0  3  0  0  0  0  0  0
  194.5590  171.2280  136.2870 N   0  0  0  0  0  0  0  0  0  0  0  0
  192.5940  171.9110  135.8570 C   0  0  0  0  0  0  0  0  0  0  0  0
  188.3540  180.0130  136.9740 O   0  0  0  0  0  1  0  0  0  0  0  0
  187.1700  179.2780  136.8540 C   0  0  0  0  0  2  0  0  0  0  0  0
  187.0530  178.5910  139.9200 C   0  0  0  0  0  2  0  0  0  0  0  0
  186.7110  178.1590  141.3430 C   0  0  0  0  0  2  0  0  0  0  0  0
  184.4330  178.9530  140.6410 C   0  0  0  0  0  1  0  0  0  0  0  0
  185.3660  178.7080  141.8170 C   0  0  1  0  0  3  0  0  0  0  0  0
  184.7590  177.8210  142.7290 O   0  0  0  0  0  0  0  0  0  0  0  0
  185.2240  178.6270  145.8010 C   0  0  2  0  0  3  0  0  0  0  0  0
  184.3930  177.8280  144.9860 O   0  0  0  0  0  0  0  0  0  0  0  0
  184.7030  179.9460  143.9420 C   0  0  0  0  0  2  0  0  0  0  0  0
  185.7240  179.8090  145.0170 C   0  0  0  0  0  2  0  0  0  0  0  0
  184.1420  178.5360  143.7890 C   0  0  1  0  0  0  0  0  0  0  0  0
  182.6290  178.6060  143.5960 C   0  0  0  0  0  1  0  0  0  0  0  0
  186.3870  177.8170  146.3700 C   0  0  0  0  0  3  0  0  0  0  0  0
  188.0900  177.5680  148.2120 C   0  0  0  0  0  2  0  0  0  0  0  0
  187.4150  177.5150  145.2690 C   0  0  0  0  0  2  0  0  0  0  0  0
  188.9260  176.8060  147.1670 C   0  0  0  0  0  2  0  0  0  0  0  0
  187.0320  178.4830  147.5930 C   0  0  0  0  0  2  0  0  0  0  0  0
  188.8570  177.4600  145.7880 C   0  0  0  0  0  2  0  0  0  0  0  0
  1 11  1  0  0  0  0
  1 10  1  0  0  0  0
  3 15  1  0  0  0  0
  4 22  2  0  0  0  0
  5 14  1  0  0  0  0
  6  8  2  0  0  0  0
  6 16  1  0  0  0  0
  7  5  2  0  0  0  0
  8  9  1  0  0  0  0
  9 13  2  0  0  0  0
  9  2  1  0  0  0  0
 10 19  1  6  0  0  0
 10  3  1  0  0  0  0
 11 12  2  0  0  0  0
 12 31  1  0  0  0  0
 12  3  1  0  0  0  0
 16 20  2  0  0  0  0
 17 13  1  1  0  0  0
 17  4  1  0  0  0  0
 17  1  1  0  0  0  0
 18 30  1  6  0  0  0
 18 11  1  0  0  0  0
 19 14  2  0  0  0  0
 20 13  1  0  0  0  0
 21 23  1  0  0  0  0
 21  2  1  0  0  0  0
 22  7  1  0  0  0  0
 22 19  1  0  0  0  0
 23 18  1  0  0  0  0
 25 27  2  0  0  0  0
 26 25  1  0  0  0  0
 26 28  2  0  0  0  0
 27 24  1  0  0  0  0
 28 16  1  0  0  0  0
 28 24  1  0  0  0  0
 30 29  1  0  0  0  0
 31 32  1  0  0  0  0
 32 34  1  0  0  0  0
 34 33  1  6  0  0  0
 34 35  1  0  0  0  0
 35 40  1  0  0  0  0
 36 42  1  6  0  0  0
 37 36  1  0  0  0  0
 38 39  1  0  0  0  0
 39 36  1  0  0  0  0
 40 41  1  6  0  0  0
 40 38  1  0  0  0  0
 40 37  1  0  0  0  0
 42 46  1  0  0  0  0
 44 47  1  0  0  0  0
 44 42  1  0  0  0  0
 45 43  1  0  0  0  0
 46 43  1  0  0  0  0
 47 45  1  0  0  0  0
M  END
>  <MODEL>
1

>  <REMARK>
 VINA RESULT:      -8.1      0.000      0.000
  Name = 
  8 active torsions:
  status: ('A' for Active; 'I' for Inactive)
    1  A    between atoms: C_4  and  C_6
    2  A    between atoms: C_15  and  O_36
    3  A    between atoms: C_15  and  C_40
    4  A    between atoms: C_22  and  C_24
    5  A    between atoms: C_24  and  C_40
    6  A    between atoms: C_30  and  O_36
    7  A    between atoms: C_31  and  C_35
    8  A    between atoms: C_33  and  C_37
                            x       y       z     vdW  Elec       q    Type
                         _______ _______ _______ _____ _____    ______ ____

>  <TORSDO>
F 8

$$$$
=
 OpenBabel11032420543D

 47 54  0  0  1  0  0  0  0  0999 V2000
  186.5610  176.5350  137.3130 N   0  0  0  0  0  0  0  0  0  0  0  0
  188.5110  177.7960  139.2160 C   0  0  0  0  0  2  0  0  0  0  0  0
  186.7110  174.2920  136.6670 N   0  0  0  0  0  0  0  0  0  0  0  0
  184.4450  177.7030  137.2460 N   0  0  0  0  0  0  0  0  0  0  0  0
  182.2780  174.9630  136.5380 N   0  0  0  0  0  0  0  0  0  0  0  0
  186.0650  178.8500  141.8670 C   0  0  0  0  0  3  0  0  0  0  0  0
  182.5320  176.3400  136.7310 N   0  0  0  0  0  0  0  0  0  0  0  0
  187.2430  178.5820  141.1730 C   0  0  0  0  0  3  0  0  0  0  0  0
  187.2090  178.1860  139.8310 C   0  0  0  0  0  0  0  0  0  0  0  0
  185.8720  175.2980  137.2150 C   0  0  2  0  0  3  0  0  0  0  0  0
  187.7970  176.3080  136.6120 C   0  0  0  0  0  0  0  0  0  0  0  0
  187.8870  175.0090  136.2750 C   0  0  0  0  0  0  0  0  0  0  0  0
  185.9650  178.0890  139.1480 C   0  0  0  0  0  0  0  0  0  0  0  0
  183.5790  174.2710  136.7140 C   0  0  0  0  0  3  0  0  0  0  0  0
  186.3170  172.9680  136.2080 C   0  0  0  0  0  1  0  0  0  0  0  0
  184.8290  178.7280  141.2260 C   0  0  0  0  0  0  0  0  0  0  0  0
  185.8670  177.7960  137.6540 C   0  0  1  0  0  3  0  0  0  0  0  0
  188.8540  177.3620  136.3120 C   0  0  2  0  0  3  0  0  0  0  0  0
  184.5380  175.3000  137.2050 C   0  0  0  0  0  0  0  0  0  0  0  0
  184.7880  178.3620  139.8720 C   0  0  0  0  0  3  0  0  0  0  0  0
  189.0790  178.8820  138.3180 C   0  0  0  0  0  2  0  0  0  0  0  0
  183.8480  176.5470  137.1860 C   0  0  0  0  0  0  0  0  0  0  0  0
  188.5490  178.7440  136.8920 C   0  0  0  0  0  2  0  0  0  0  0  0
  182.3740  178.9130  141.4550 O   0  0  0  0  0  0  0  0  0  0  0  0
  182.1100  179.0530  143.5760 N   0  0  0  0  0  0  0  0  0  0  0  0
  183.4350  178.9800  143.3450 C   0  0  0  0  0  3  0  0  0  0  0  0
  181.4970  179.0090  142.4000 N   0  0  0  0  0  0  0  0  0  0  0  0
  183.5750  178.8890  141.9760 C   0  0  0  0  0  0  0  0  0  0  0  0
  190.5520  177.2420  134.5940 O   0  0  0  0  0  1  0  0  0  0  0  0
  189.1910  177.4650  134.8250 C   0  0  0  0  0  2  0  0  0  0  0  0
  188.9850  174.3940  135.4670 C   0  0  0  0  0  2  0  0  0  0  0  0
  189.6380  173.2730  136.2710 C   0  0  0  0  0  2  0  0  0  0  0  0
  191.7170  172.4150  135.1520 C   0  0  0  0  0  1  0  0  0  0  0  0
  191.1640  173.3340  136.2320 C   0  0  1  0  0  3  0  0  0  0  0  0
  191.6060  174.6530  136.0050 O   0  0  0  0  0  0  0  0  0  0  0  0
  194.3800  174.2220  137.5610 C   0  0  2  0  0  3  0  0  0  0  0  0
  192.9890  174.0380  137.7180 O   0  0  0  0  0  0  0  0  0  0  0  0
  193.3850  176.1690  136.7310 C   0  0  0  0  0  2  0  0  0  0  0  0
  194.6410  175.3740  136.6300 C   0  0  0  0  0  2  0  0  0  0  0  0
  192.3310  175.1390  137.1250 C   0  0  1  0  0  0  0  0  0  0  0  0
  191.3930  175.7410  138.1680 C   0  0  0  0  0  1  0  0  0  0  0  0
  195.0540  172.9480  137.0570 C   0  0  0  0  0  3  0  0  0  0  0  0
  196.8820  171.2450  137.3970 C   0  0  0  0  0  2  0  0  0  0  0  0
  195.3160  173.0460  135.5460 C   0  0  0  0  0  2  0  0  0  0  0  0
  196.7720  171.0070  135.8790 C   0  0  0  0  0  2  0  0  0  0  0  0
  196.3270  172.6000  137.8400 C   0  0  0  0  0  2  0  0  0  0  0  0
  196.5870  172.3110  135.1040 C   0  0  0  0  0  2  0  0  0  0  0  0
  1 17  1  0  0  0  0
  2  9  1  0  0  0  0
  3 10  1  0  0  0  0
  5 14  1  0  0  0  0
  5  7  2  0  0  0  0
  7 22  1  0  0  0  0
  8  6  2  0  0  0  0
  9  8  1  0  0  0  0
 10 19  1  6  0  0  0
 10  1  1  0  0  0  0
 11  1  1  0  0  0  0
 12 11  2  0  0  0  0
 12  3  1  0  0  0  0
 13  9  2  0  0  0  0
 13 20  1  0  0  0  0
 14 19  2  0  0  0  0
 15  3  1  0  0  0  0
 16  6  1  0  0  0  0
 16 28  1  0  0  0  0
 17  4  1  1  0  0  0
 17 13  1  0  0  0  0
 18 30  1  6  0  0  0
 18 11  1  0  0  0  0
 18 23  1  0  0  0  0
 20 16  2  0  0  0  0
 21  2  1  0  0  0  0
 22 19  1  0  0  0  0
 22  4  2  0  0  0  0
 23 21  1  0  0  0  0
 24 28  1  0  0  0  0
 24 27  1  0  0  0  0
 26 25  1  0  0  0  0
 27 25  2  0  0  0  0
 28 26  2  0  0  0  0
 29 30  1  0  0  0  0
 31 32  1  0  0  0  0
 31 12  1  0  0  0  0
 34 33  1  6  0  0  0
 34 32  1  0  0  0  0
 35 34  1  0  0  0  0
 35 40  1  0  0  0  0
 36 42  1  6  0  0  0
 36 37  1  0  0  0  0
 38 40  1  0  0  0  0
 39 38  1  0  0  0  0
 39 36  1  0  0  0  0
 40 37  1  0  0  0  0
 40 41  1  1  0  0  0
 42 46  1  0  0  0  0
 43 46  1  0  0  0  0
 44 42  1  0  0  0  0
 45 43  1  0  0  0  0
 47 44  1  0  0  0  0
 47 45  1  0  0  0  0
M  END
>  <MODEL>
2

>  <REMARK>
 VINA RESULT:      -7.7      3.589     10.184
  Name = 
  8 active torsions:
  status: ('A' for Active; 'I' for Inactive)
    1  A    between atoms: C_4  and  C_6
    2  A    between atoms: C_15  and  O_36
    3  A    between atoms: C_15  and  C_40
    4  A    between atoms: C_22  and  C_24
    5  A    between atoms: C_24  and  C_40
    6  A    between atoms: C_30  and  O_36
    7  A    between atoms: C_31  and  C_35
    8  A    between atoms: C_33  and  C_37
                            x       y       z     vdW  Elec       q    Type
                         _______ _______ _______ _____ _____    ______ ____

>  <TORSDO>
F 8

$$$$
=
 OpenBabel11032420543D

 47 54  0  0  1  0  0  0  0  0999 V2000
  186.8880  176.3750  137.2840 N   0  0  0  0  0  0  0  0  0  0  0  0
  188.7260  177.8500  139.1440 C   0  0  0  0  0  2  0  0  0  0  0  0
  187.1770  174.1110  136.7710 N   0  0  0  0  0  0  0  0  0  0  0  0
  184.7110  177.4140  137.1150 N   0  0  0  0  0  0  0  0  0  0  0  0
  182.7160  174.5190  136.5300 N   0  0  0  0  0  0  0  0  0  0  0  0
  186.1720  178.9100  141.6880 C   0  0  0  0  0  3  0  0  0  0  0  0
  182.8890  175.9160  136.6470 N   0  0  0  0  0  0  0  0  0  0  0  0
  187.3770  178.6710  141.0310 C   0  0  0  0  0  3  0  0  0  0  0  0
  187.3920  178.1990  139.7130 C   0  0  0  0  0  0  0  0  0  0  0  0
  186.2720  175.0970  137.2460 C   0  0  2  0  0  3  0  0  0  0  0  0
  188.1490  176.1790  136.6180 C   0  0  0  0  0  0  0  0  0  0  0  0
  188.3180  174.8710  136.3580 C   0  0  0  0  0  0  0  0  0  0  0  0
  186.1700  177.9930  139.0160 C   0  0  0  0  0  0  0  0  0  0  0  0
  184.0500  173.9140  136.7660 C   0  0  0  0  0  3  0  0  0  0  0  0
  186.8670  172.7430  136.3810 C   0  0  0  0  0  1  0  0  0  0  0  0
  184.9580  178.6810  141.0350 C   0  0  0  0  0  0  0  0  0  0  0  0
  186.1170  177.6110  137.5410 C   0  0  1  0  0  3  0  0  0  0  0  0
  189.1510  177.2740  136.2750 C   0  0  2  0  0  3  0  0  0  0  0  0
  184.9410  175.0220  137.2130 C   0  0  0  0  0  0  0  0  0  0  0  0
  184.9650  178.2380  139.7040 C   0  0  0  0  0  3  0  0  0  0  0  0
  189.2500  178.9150  138.1940 C   0  0  0  0  0  2  0  0  0  0  0  0
  184.1820  176.2240  137.1110 C   0  0  0  0  0  0  0  0  0  0  0  0
  188.7560  178.6660  136.7700 C   0  0  0  0  0  2  0  0  0  0  0  0
  182.4930  178.7670  141.2090 O   0  0  0  0  0  0  0  0  0  0  0  0
  182.1780  178.9650  143.3180 N   0  0  0  0  0  0  0  0  0  0  0  0
  183.5090  178.9430  143.1160 C   0  0  0  0  0  3  0  0  0  0  0  0
  181.5920  178.8550  142.1320 N   0  0  0  0  0  0  0  0  0  0  0  0
  183.6830  178.8130  141.7540 C   0  0  0  0  0  0  0  0  0  0  0  0
  190.8950  177.3720  134.6030 O   0  0  0  0  0  1  0  0  0  0  0  0
  189.5100  177.3120  134.7910 C   0  0  0  0  0  2  0  0  0  0  0  0
  189.4650  174.2750  135.6040 C   0  0  0  0  0  2  0  0  0  0  0  0
  190.4140  173.5920  136.5850 C   0  0  0  0  0  2  0  0  0  0  0  0
  191.7980  175.5120  137.4280 C   0  0  0  0  0  1  0  0  0  0  0  0
  191.8000  174.2330  136.6040 C   0  0  1  0  0  3  0  0  0  0  0  0
  192.7580  173.3360  137.1210 O   0  0  0  0  0  0  0  0  0  0  0  0
  195.8590  173.1520  136.3150 C   0  0  2  0  0  3  0  0  0  0  0  0
  194.6570  173.7830  135.9290 O   0  0  0  0  0  0  0  0  0  0  0  0
  194.2120  171.4960  136.4220 C   0  0  0  0  0  2  0  0  0  0  0  0
  195.5560  171.8310  136.9680 C   0  0  0  0  0  2  0  0  0  0  0  0
  193.6030  172.8550  136.0880 C   0  0  1  0  0  0  0  0  0  0  0  0
  192.8540  172.7660  134.7610 C   0  0  0  0  0  1  0  0  0  0  0  0
  196.6800  174.0460  137.2430 C   0  0  0  0  0  3  0  0  0  0  0  0
  198.9120  174.4780  138.3330 C   0  0  0  0  0  2  0  0  0  0  0  0
  195.9030  174.3240  138.5390 C   0  0  0  0  0  2  0  0  0  0  0  0
  198.1010  175.2120  139.4180 C   0  0  0  0  0  2  0  0  0  0  0  0
  198.0800  173.4830  137.5220 C   0  0  0  0  0  2  0  0  0  0  0  0
  196.8090  174.4730  139.7670 C   0  0  0  0  0  2  0  0  0  0  0  0
  1 17  1  0  0  0  0
  2  9  1  0  0  0  0
  3 10  1  0  0  0  0
  5  7  2  0  0  0  0
  5 14  1  0  0  0  0
  7 22  1  0  0  0  0
  8  6  2  0  0  0  0
  9  8  1  0  0  0  0
 10 19  1  6  0  0  0
 10  1  1  0  0  0  0
 11  1  1  0  0  0  0
 12 11  2  0  0  0  0
 12  3  1  0  0  0  0
 13 20  1  0  0  0  0
 13  9  2  0  0  0  0
 14 19  2  0  0  0  0
 15  3  1  0  0  0  0
 16  6  1  0  0  0  0
 16 28  1  0  0  0  0
 17  4  1  1  0  0  0
 17 13  1  0  0  0  0
 18 30  1  6  0  0  0
 18 11  1  0  0  0  0
 18 23  1  0  0  0  0
 20 16  2  0  0  0  0
 21  2  1  0  0  0  0
 22  4  2  0  0  0  0
 22 19  1  0  0  0  0
 23 21  1  0  0  0  0
 24 28  1  0  0  0  0
 24 27  1  0  0  0  0
 26 25  1  0  0  0  0
 27 25  2  0  0  0  0
 28 26  2  0  0  0  0
 29 30  1  0  0  0  0
 31 12  1  0  0  0  0
 31 32  1  0  0  0  0
 32 34  1  0  0  0  0
 34 35  1  0  0  0  0
 34 33  1  1  0  0  0
 36 39  1  0  0  0  0
 36 42  1  1  0  0  0
 37 40  1  0  0  0  0
 37 36  1  0  0  0  0
 38 39  1  0  0  0  0
 40 41  1  6  0  0  0
 40 38  1  0  0  0  0
 40 35  1  0  0  0  0
 42 46  1  0  0  0  0
 42 44  1  0  0  0  0
 43 45  1  0  0  0  0
 44 47  1  0  0  0  0
 45 47  1  0  0  0  0
 46 43  1  0  0  0  0
M  END
>  <MODEL>
3

>  <REMARK>
 VINA RESULT:      -7.0      3.575     10.296
  Name = 
  8 active torsions:
  status: ('A' for Active; 'I' for Inactive)
    1  A    between atoms: C_4  and  C_6
    2  A    between atoms: C_15  and  O_36
    3  A    between atoms: C_15  and  C_40
    4  A    between atoms: C_22  and  C_24
    5  A    between atoms: C_24  and  C_40
    6  A    between atoms: C_30  and  O_36
    7  A    between atoms: C_31  and  C_35
    8  A    between atoms: C_33  and  C_37
                            x       y       z     vdW  Elec       q    Type
                         _______ _______ _______ _____ _____    ______ ____

>  <TORSDO>
F 8

$$$$
=
 OpenBabel11032420543D

 47 54  0  0  1  0  0  0  0  0999 V2000
  185.9130  177.9430  138.7670 N   0  0  0  0  0  0  0  0  0  0  0  0
  188.5210  177.0180  139.9320 C   0  0  0  0  0  2  0  0  0  0  0  0
  184.5940  176.5740  137.4040 N   0  0  0  0  0  0  0  0  0  0  0  0
  184.9250  179.7540  140.0280 N   0  0  0  0  0  0  0  0  0  0  0  0
  181.4760  179.0640  139.4540 N   0  0  0  0  0  0  0  0  0  0  0  0
  187.6710  177.4660  143.5650 C   0  0  0  0  0  3  0  0  0  0  0  0
  182.5230  179.8600  139.9690 N   0  0  0  0  0  0  0  0  0  0  0  0
  188.3210  177.1200  142.3830 C   0  0  0  0  0  3  0  0  0  0  0  0
  187.8310  177.5490  141.1440 C   0  0  0  0  0  0  0  0  0  0  0  0
  184.6210  177.3890  138.5670 C   0  0  2  0  0  3  0  0  0  0  0  0
  186.6320  177.6050  137.5670 C   0  0  0  0  0  0  0  0  0  0  0  0
  185.8770  176.7930  136.8080 C   0  0  0  0  0  0  0  0  0  0  0  0
  186.6770  178.3780  141.0830 C   0  0  0  0  0  0  0  0  0  0  0  0
  182.1210  177.8990  138.8000 C   0  0  0  0  0  3  0  0  0  0  0  0
  183.4210  176.0180  136.7440 C   0  0  0  0  0  1  0  0  0  0  0  0
  186.5150  178.2500  143.5270 C   0  0  0  0  0  0  0  0  0  0  0  0
  186.1700  178.9890  139.7810 C   0  0  1  0  0  3  0  0  0  0  0  0
  188.0370  178.0740  137.2130 C   0  0  2  0  0  3  0  0  0  0  0  0
  183.5700  177.9770  139.1400 C   0  0  0  0  0  0  0  0  0  0  0  0
  186.0350  178.7100  142.2920 C   0  0  0  0  0  3  0  0  0  0  0  0
  189.4570  178.0370  139.3030 C   0  0  0  0  0  2  0  0  0  0  0  0
  183.7600  179.2000  139.8460 C   0  0  0  0  0  0  0  0  0  0  0  0
  188.7130  178.9140  138.2980 C   0  0  0  0  0  2  0  0  0  0  0  0
  186.2520  178.6050  145.9600 O   0  0  0  0  0  0  0  0  0  0  0  0
  184.1630  179.0400  146.1480 N   0  0  0  0  0  0  0  0  0  0  0  0
  184.4020  178.7970  144.8450 C   0  0  0  0  0  3  0  0  0  0  0  0
  185.3140  178.9140  146.7950 N   0  0  0  0  0  0  0  0  0  0  0  0
  185.7510  178.5220  144.7540 C   0  0  0  0  0  0  0  0  0  0  0  0
  189.0810  178.2090  135.0360 O   0  0  0  0  0  1  0  0  0  0  0  0
  188.1090  178.7830  135.8620 C   0  0  0  0  0  2  0  0  0  0  0  0
  186.2400  176.2880  135.4470 C   0  0  0  0  0  2  0  0  0  0  0  0
  187.4320  175.3420  135.5600 C   0  0  0  0  0  2  0  0  0  0  0  0
  185.6850  173.7650  134.6810 C   0  0  0  0  0  1  0  0  0  0  0  0
  187.0420  173.8790  135.3600 C   0  0  1  0  0  3  0  0  0  0  0  0
  188.0140  173.2030  134.5940 O   0  0  0  0  0  0  0  0  0  0  0  0
  190.7600  172.8870  136.2260 C   0  0  2  0  0  3  0  0  0  0  0  0
  190.0960  172.3920  135.0840 O   0  0  0  0  0  0  0  0  0  0  0  0
  188.5460  172.5310  136.8870 C   0  0  0  0  0  2  0  0  0  0  0  0
  189.7540  173.3210  137.2560 C   0  0  0  0  0  2  0  0  0  0  0  0
  188.7220  172.2680  135.3950 C   0  0  1  0  0  0  0  0  0  0  0  0
  188.2970  170.8380  135.0740 C   0  0  0  0  0  1  0  0  0  0  0  0
  191.7020  174.0350  135.8650 C   0  0  0  0  0  3  0  0  0  0  0  0
  194.0670  174.9090  135.8620 C   0  0  0  0  0  2  0  0  0  0  0  0
  191.1230  175.3720  136.3510 C   0  0  0  0  0  2  0  0  0  0  0  0
  193.4190  176.3060  135.8540 C   0  0  0  0  0  2  0  0  0  0  0  0
  193.1330  173.8090  136.3720 C   0  0  0  0  0  2  0  0  0  0  0  0
  192.1990  176.3790  136.7730 C   0  0  0  0  0  2  0  0  0  0  0  0
  1 17  1  0  0  0  0
  2  9  1  0  0  0  0
  3 10  1  0  0  0  0
  5  7  2  0  0  0  0
  8  6  2  0  0  0  0
  9  8  1  0  0  0  0
 10  1  1  0  0  0  0
 10 19  1  6  0  0  0
 11  1  1  0  0  0  0
 12  3  1  0  0  0  0
 12 11  2  0  0  0  0
 13  9  2  0  0  0  0
 13 20  1  0  0  0  0
 14 19  2  0  0  0  0
 14  5  1  0  0  0  0
 15  3  1  0  0  0  0
 16  6  1  0  0  0  0
 16 28  1  0  0  0  0
 17  4  1  1  0  0  0
 17 13  1  0  0  0  0
 18 30  1  6  0  0  0
 18 11  1  0  0  0  0
 18 23  1  0  0  0  0
 19 22  1  0  0  0  0
 20 16  2  0  0  0  0
 21  2  1  0  0  0  0
 22  7  1  0  0  0  0
 22  4  2  0  0  0  0
 23 21  1  0  0  0  0
 24 27  1  0  0  0  0
 25 27  2  0  0  0  0
 26 25  1  0  0  0  0
 28 26  2  0  0  0  0
 28 24  1  0  0  0  0
 29 30  1  0  0  0  0
 31 32  1  0  0  0  0
 31 12  1  0  0  0  0
 34 33  1  6  0  0  0
 34 32  1  0  0  0  0
 35 34  1  0  0  0  0
 35 40  1  0  0  0  0
 36 42  1  6  0  0  0
 36 39  1  0  0  0  0
 37 40  1  0  0  0  0
 37 36  1  0  0  0  0
 38 39  1  0  0  0  0
 40 41  1  6  0  0  0
 40 38  1  0  0  0  0
 42 44  1  0  0  0  0
 42 46  1  0  0  0  0
 43 46  1  0  0  0  0
 44 47  1  0  0  0  0
 45 43  1  0  0  0  0
 45 47  1  0  0  0  0
M  END
>  <MODEL>
4

>  <REMARK>
 VINA RESULT:      -6.9      3.619      9.730
  Name = 
  8 active torsions:
  status: ('A' for Active; 'I' for Inactive)
    1  A    between atoms: C_4  and  C_6
    2  A    between atoms: C_15  and  O_36
    3  A    between atoms: C_15  and  C_40
    4  A    between atoms: C_22  and  C_24
    5  A    between atoms: C_24  and  C_40
    6  A    between atoms: C_30  and  O_36
    7  A    between atoms: C_31  and  C_35
    8  A    between atoms: C_33  and  C_37
                            x       y       z     vdW  Elec       q    Type
                         _______ _______ _______ _____ _____    ______ ____

>  <TORSDO>
F 8

$$$$
=
 OpenBabel11032420543D

 47 54  0  0  1  0  0  0  0  0999 V2000
  186.5150  177.9630  139.4700 N   0  0  0  0  0  0  0  0  0  0  0  0
  189.2710  176.7740  139.3820 C   0  0  0  0  0  2  0  0  0  0  0  0
  184.6690  176.9220  138.4790 N   0  0  0  0  0  0  0  0  0  0  0  0
  186.2260  179.4990  141.3150 N   0  0  0  0  0  0  0  0  0  0  0  0
  182.7570  179.0010  141.9630 N   0  0  0  0  0  0  0  0  0  0  0  0
  189.8480  176.4930  143.0850 C   0  0  0  0  0  3  0  0  0  0  0  0
  183.9890  179.6570  142.1830 N   0  0  0  0  0  0  0  0  0  0  0  0
  189.9880  176.3820  141.7030 C   0  0  0  0  0  3  0  0  0  0  0  0
  189.1220  177.0610  140.8380 C   0  0  0  0  0  0  0  0  0  0  0  0
  185.1940  177.4840  139.6730 C   0  0  2  0  0  3  0  0  0  0  0  0
  186.7130  177.8620  138.0480 C   0  0  0  0  0  0  0  0  0  0  0  0
  185.6610  177.2340  137.4950 C   0  0  0  0  0  0  0  0  0  0  0  0
  188.1070  177.9060  141.3670 C   0  0  0  0  0  0  0  0  0  0  0  0
  183.0090  177.9820  140.9160 C   0  0  0  0  0  3  0  0  0  0  0  0
  183.2910  176.5330  138.2180 C   0  0  0  0  0  1  0  0  0  0  0  0
  188.8360  177.2890  143.6260 C   0  0  0  0  0  0  0  0  0  0  0  0
  187.2190  178.7770  140.4840 C   0  0  1  0  0  3  0  0  0  0  0  0
  187.9290  178.3680  137.2830 C   0  0  2  0  0  3  0  0  0  0  0  0
  184.4830  177.9620  140.6950 C   0  0  0  0  0  0  0  0  0  0  0  0
  187.9830  177.9980  142.7670 C   0  0  0  0  0  3  0  0  0  0  0  0
  190.0030  177.8830  138.6430 C   0  0  0  0  0  2  0  0  0  0  0  0
  185.0290  179.0130  141.4870 C   0  0  0  0  0  0  0  0  0  0  0  0
  189.0280  178.9580  138.1680 C   0  0  0  0  0  2  0  0  0  0  0  0
  187.4730  177.6460  145.6590 O   0  0  0  0  0  0  0  0  0  0  0  0
  188.8190  177.0880  147.2290 N   0  0  0  0  0  0  0  0  0  0  0  0
  189.4880  176.9570  146.0680 C   0  0  0  0  0  3  0  0  0  0  0  0
  187.5940  177.5100  146.9390 N   0  0  0  0  0  0  0  0  0  0  0  0
  188.6000  177.3210  145.0770 C   0  0  0  0  0  0  0  0  0  0  0  0
  187.1810  180.5810  136.6580 O   0  0  0  0  0  1  0  0  0  0  0  0
  187.5680  179.3340  136.1560 C   0  0  0  0  0  2  0  0  0  0  0  0
  185.4550  177.0090  136.0300 C   0  0  0  0  0  2  0  0  0  0  0  0
  186.3380  175.8530  135.5670 C   0  0  0  0  0  2  0  0  0  0  0  0
  184.1320  174.7440  135.1010 C   0  0  0  0  0  1  0  0  0  0  0  0
  185.5830  174.5260  135.5030 C   0  0  1  0  0  3  0  0  0  0  0  0
  186.2020  173.6440  134.5940 O   0  0  0  0  0  0  0  0  0  0  0  0
  188.8160  172.6100  136.1430 C   0  0  2  0  0  3  0  0  0  0  0  0
  188.0810  172.3930  134.9580 O   0  0  0  0  0  0  0  0  0  0  0  0
  186.5660  172.6120  136.7830 C   0  0  0  0  0  2  0  0  0  0  0  0
  187.9000  173.1040  137.2290 C   0  0  0  0  0  2  0  0  0  0  0  0
  186.7060  172.5010  135.2680 C   0  0  1  0  0  0  0  0  0  0  0  0
  186.0160  171.2280  134.7830 C   0  0  0  0  0  1  0  0  0  0  0  0
  189.9660  173.5890  135.9100 C   0  0  0  0  0  3  0  0  0  0  0  0
  191.7800  175.0030  136.9420 C   0  0  0  0  0  2  0  0  0  0  0  0
  189.5280  174.7070  134.9510 C   0  0  0  0  0  2  0  0  0  0  0  0
  191.6520  175.8700  135.6750 C   0  0  0  0  0  2  0  0  0  0  0  0
  190.5430  174.1470  137.2190 C   0  0  0  0  0  2  0  0  0  0  0  0
  190.1960  176.0540  135.2490 C   0  0  0  0  0  2  0  0  0  0  0  0
  1 10  1  0  0  0  0
  1 17  1  0  0  0  0
  2  9  1  0  0  0  0
  3 10  1  0  0  0  0
  4 22  2  0  0  0  0
  5  7  2  0  0  0  0
  6 16  1  0  0  0  0
  8  6  2  0  0  0  0
  9 13  2  0  0  0  0
  9  8  1  0  0  0  0
 10 19  1  6  0  0  0
 11  1  1  0  0  0  0
 12 11  2  0  0  0  0
 12  3  1  0  0  0  0
 13 20  1  0  0  0  0
 14  5  1  0  0  0  0
 15  3  1  0  0  0  0
 16 28  1  0  0  0  0
 17  4  1  1  0  0  0
 17 13  1  0  0  0  0
 18 30  1  6  0  0  0
 18 11  1  0  0  0  0
 18 23  1  0  0  0  0
 19 14  2  0  0  0  0
 19 22  1  0  0  0  0
 20 16  2  0  0  0  0
 21  2  1  0  0  0  0
 22  7  1  0  0  0  0
 23 21  1  0  0  0  0
 24 27  1  0  0  0  0
 26 25  1  0  0  0  0
 27 25  2  0  0  0  0
 28 24  1  0  0  0  0
 28 26  2  0  0  0  0
 30 29  1  0  0  0  0
 31 12  1  0  0  0  0
 32 31  1  0  0  0  0
 34 33  1  6  0  0  0
 34 32  1  0  0  0  0
 35 40  1  0  0  0  0
 35 34  1  0  0  0  0
 36 42  1  6  0  0  0
 36 39  1  0  0  0  0
 37 40  1  0  0  0  0
 37 36  1  0  0  0  0
 38 39  1  0  0  0  0
 40 41  1  6  0  0  0
 40 38  1  0  0  0  0
 42 46  1  0  0  0  0
 43 46  1  0  0  0  0
 44 47  1  0  0  0  0
 44 42  1  0  0  0  0
 45 43  1  0  0  0  0
 47 45  1  0  0  0  0
M  END
>  <MODEL>
5

>  <REMARK>
 VINA RESULT:      -6.8      3.644      8.920
  Name = 
  8 active torsions:
  status: ('A' for Active; 'I' for Inactive)
    1  A    between atoms: C_4  and  C_6
    2  A    between atoms: C_15  and  O_36
    3  A    between atoms: C_15  and  C_40
    4  A    between atoms: C_22  and  C_24
    5  A    between atoms: C_24  and  C_40
    6  A    between atoms: C_30  and  O_36
    7  A    between atoms: C_31  and  C_35
    8  A    between atoms: C_33  and  C_37
                            x       y       z     vdW  Elec       q    Type
                         _______ _______ _______ _____ _____    ______ ____

>  <TORSDO>
F 8

$$$$
=
 OpenBabel11032420543D

 47 54  0  0  1  0  0  0  0  0999 V2000
  185.9590  175.5760  136.9730 N   0  0  0  0  0  0  0  0  0  0  0  0
  186.6620  178.0750  138.4810 C   0  0  0  0  0  2  0  0  0  0  0  0
  187.1790  173.5920  137.1970 N   0  0  0  0  0  0  0  0  0  0  0  0
  183.6440  175.5340  136.2770 N   0  0  0  0  0  0  0  0  0  0  0  0
  183.0570  172.0200  136.3880 N   0  0  0  0  0  0  0  0  0  0  0  0
  183.4110  178.5240  140.3130 C   0  0  0  0  0  3  0  0  0  0  0  0
  182.6640  173.3450  136.0960 N   0  0  0  0  0  0  0  0  0  0  0  0
  184.7290  178.6680  139.8850 C   0  0  0  0  0  3  0  0  0  0  0  0
  185.2050  177.9530  138.7790 C   0  0  0  0  0  0  0  0  0  0  0  0
  185.8910  174.1870  137.2580 C   0  0  2  0  0  3  0  0  0  0  0  0
  187.3130  175.7790  136.5300 C   0  0  0  0  0  0  0  0  0  0  0  0
  188.0120  174.6420  136.6940 C   0  0  0  0  0  0  0  0  0  0  0  0
  184.3310  177.0970  138.0550 C   0  0  0  0  0  0  0  0  0  0  0  0
  184.4350  172.1040  136.9310 C   0  0  0  0  0  3  0  0  0  0  0  0
  187.4960  172.1720  137.2070 C   0  0  0  0  0  1  0  0  0  0  0  0
  182.5440  177.6610  139.6370 C   0  0  0  0  0  0  0  0  0  0  0  0
  184.7460  176.3960  136.7650 C   0  0  1  0  0  3  0  0  0  0  0  0
  187.8810  177.0810  135.9780 C   0  0  2  0  0  3  0  0  0  0  0  0
  184.7260  173.5540  137.1130 C   0  0  0  0  0  0  0  0  0  0  0  0
  183.0040  176.9660  138.5100 C   0  0  0  0  0  3  0  0  0  0  0  0
  186.9400  179.0080  137.3140 C   0  0  0  0  0  2  0  0  0  0  0  0
  183.6130  174.2660  136.5770 C   0  0  0  0  0  0  0  0  0  0  0  0
  186.8970  178.2510  135.9880 C   0  0  0  0  0  2  0  0  0  0  0  0
  180.5460  176.2700  140.0710 O   0  0  0  0  0  0  0  0  0  0  0  0
  179.2720  177.6040  141.1590 N   0  0  0  0  0  0  0  0  0  0  0  0
  180.3880  178.2890  140.8450 C   0  0  0  0  0  3  0  0  0  0  0  0
  179.4060  176.3780  140.6710 N   0  0  0  0  0  0  0  0  0  0  0  0
  181.1890  177.4080  140.1480 C   0  0  0  0  0  0  0  0  0  0  0  0
  189.8480  177.3340  134.5940 O   0  0  0  0  0  1  0  0  0  0  0  0
  188.5120  176.9200  134.5960 C   0  0  0  0  0  2  0  0  0  0  0  0
  189.4330  174.4260  136.2760 C   0  0  0  0  0  2  0  0  0  0  0  0
  190.2700  174.0640  137.5000 C   0  0  0  0  0  2  0  0  0  0  0  0
  191.3970  176.2920  137.2230 C   0  0  0  0  0  1  0  0  0  0  0  0
  190.8240  175.2930  138.2180 C   0  0  1  0  0  3  0  0  0  0  0  0
  189.8220  175.9140  138.9920 O   0  0  0  0  0  0  0  0  0  0  0  0
  189.6990  177.9130  141.4990 C   0  0  2  0  0  3  0  0  0  0  0  0
  189.1980  177.7590  140.1890 O   0  0  0  0  0  0  0  0  0  0  0  0
  191.5130  177.1990  140.2090 C   0  0  0  0  0  2  0  0  0  0  0  0
  191.0360  177.2350  141.6190 C   0  0  0  0  0  2  0  0  0  0  0  0
  190.2270  177.2150  139.3870 C   0  0  1  0  0  0  0  0  0  0  0  0
  190.4070  178.1260  138.1760 C   0  0  0  0  0  1  0  0  0  0  0  0
  188.7160  177.3710  142.5350 C   0  0  0  0  0  3  0  0  0  0  0  0
  186.3800  177.4530  143.4800 C   0  0  0  0  0  2  0  0  0  0  0  0
  189.3650  177.3550  143.9280 C   0  0  0  0  0  2  0  0  0  0  0  0
  187.0220  176.9420  144.7830 C   0  0  0  0  0  2  0  0  0  0  0  0
  187.3770  178.1230  142.5330 C   0  0  0  0  0  2  0  0  0  0  0  0
  188.3670  177.6130  145.0630 C   0  0  0  0  0  2  0  0  0  0  0  0
  1 10  1  0  0  0  0
  2  9  1  0  0  0  0
  3 15  1  0  0  0  0
  3 10  1  0  0  0  0
  4 22  2  0  0  0  0
  5 14  1  0  0  0  0
  7  5  2  0  0  0  0
  7 22  1  0  0  0  0
  8  6  1  0  0  0  0
  9  8  2  0  0  0  0
 10 19  1  6  0  0  0
 11 12  2  0  0  0  0
 11  1  1  0  0  0  0
 12  3  1  0  0  0  0
 13 20  2  0  0  0  0
 13  9  1  0  0  0  0
 14 19  2  0  0  0  0
 16 28  1  0  0  0  0
 16  6  2  0  0  0  0
 17  4  1  1  0  0  0
 17  1  1  0  0  0  0
 17 13  1  0  0  0  0
 18 30  1  6  0  0  0
 18 23  1  0  0  0  0
 18 11  1  0  0  0  0
 20 16  1  0  0  0  0
 21  2  1  0  0  0  0
 22 19  1  0  0  0  0
 23 21  1  0  0  0  0
 24 28  1  0  0  0  0
 24 27  1  0  0  0  0
 26 25  1  0  0  0  0
 27 25  2  0  0  0  0
 28 26  2  0  0  0  0
 29 30  1  0  0  0  0
 31 12  1  0  0  0  0
 31 32  1  0  0  0  0
 32 34  1  0  0  0  0
 34 33  1  6  0  0  0
 34 35  1  0  0  0  0
 35 40  1  0  0  0  0
 36 39  1  0  0  0  0
 36 42  1  1  0  0  0
 37 36  1  0  0  0  0
 38 39  1  0  0  0  0
 40 41  1  6  0  0  0
 40 37  1  0  0  0  0
 40 38  1  0  0  0  0
 42 44  1  0  0  0  0
 43 45  1  0  0  0  0
 44 47  1  0  0  0  0
 45 47  1  0  0  0  0
 46 42  1  0  0  0  0
 46 43  1  0  0  0  0
M  END
>  <MODEL>
6

>  <REMARK>
 VINA RESULT:      -6.8      3.683      8.233
  Name = 
  8 active torsions:
  status: ('A' for Active; 'I' for Inactive)
    1  A    between atoms: C_4  and  C_6
    2  A    between atoms: C_15  and  O_36
    3  A    between atoms: C_15  and  C_40
    4  A    between atoms: C_22  and  C_24
    5  A    between atoms: C_24  and  C_40
    6  A    between atoms: C_30  and  O_36
    7  A    between atoms: C_31  and  C_35
    8  A    between atoms: C_33  and  C_37
                            x       y       z     vdW  Elec       q    Type
                         _______ _______ _______ _____ _____    ______ ____

>  <TORSDO>
F 8

$$$$
=
 OpenBabel11032420543D

 47 54  0  0  1  0  0  0  0  0999 V2000
  189.2340  176.9150  139.3400 N   0  0  0  0  0  0  0  0  0  0  0  0
  191.6100  177.9120  140.8810 C   0  0  0  0  0  2  0  0  0  0  0  0
  187.4750  178.3180  138.7010 N   0  0  0  0  0  0  0  0  0  0  0  0
  189.7120  174.8900  138.1080 N   0  0  0  0  0  0  0  0  0  0  0  0
  187.5160  175.3500  135.3380 N   0  0  0  0  0  0  0  0  0  0  0  0
  194.2810  176.9680  138.4120 C   0  0  0  0  0  3  0  0  0  0  0  0
  188.4410  174.5900  136.0880 N   0  0  0  0  0  0  0  0  0  0  0  0
  193.6120  177.5050  139.5110 C   0  0  0  0  0  3  0  0  0  0  0  0
  192.2720  177.1860  139.7590 C   0  0  0  0  0  0  0  0  0  0  0  0
  188.4420  177.3780  138.2570 C   0  0  2  0  0  3  0  0  0  0  0  0
  188.5840  177.4510  140.5070 C   0  0  0  0  0  0  0  0  0  0  0  0
  187.5970  178.2810  140.1270 C   0  0  0  0  0  0  0  0  0  0  0  0
  191.5870  176.2750  138.9080 C   0  0  0  0  0  0  0  0  0  0  0  0
  187.3480  176.6340  136.0620 C   0  0  0  0  0  3  0  0  0  0  0  0
  186.3480  178.8480  137.9470 C   0  0  0  0  0  1  0  0  0  0  0  0
  193.6170  176.0990  137.5430 C   0  0  0  0  0  0  0  0  0  0  0  0
  190.1740  175.7820  139.1980 C   0  0  1  0  0  3  0  0  0  0  0  0
  188.9610  177.1480  141.9510 C   0  0  2  0  0  3  0  0  0  0  0  0
  188.3690  176.6400  137.1480 C   0  0  0  0  0  0  0  0  0  0  0  0
  192.2840  175.7490  137.8020 C   0  0  0  0  0  3  0  0  0  0  0  0
  191.4800  177.0570  142.1310 C   0  0  0  0  0  2  0  0  0  0  0  0
  189.0000  175.3620  137.1240 C   0  0  0  0  0  0  0  0  0  0  0  0
  190.1860  176.2450  142.1060 C   0  0  0  0  0  2  0  0  0  0  0  0
  195.2650  176.2120  135.7020 O   0  0  0  0  0  0  0  0  0  0  0  0
  194.8840  174.4040  134.6190 N   0  0  0  0  0  0  0  0  0  0  0  0
  194.0030  174.4500  135.6370 C   0  0  0  0  0  3  0  0  0  0  0  0
  195.6360  175.4940  134.6930 N   0  0  0  0  0  0  0  0  0  0  0  0
  194.2710  175.6210  136.3160 C   0  0  0  0  0  0  0  0  0  0  0  0
  188.0380  175.3110  143.2250 O   0  0  0  0  0  1  0  0  0  0  0  0
  187.7920  176.6120  142.7750 C   0  0  0  0  0  2  0  0  0  0  0  0
  186.6390  178.9720  141.0450 C   0  0  0  0  0  2  0  0  0  0  0  0
  185.2880  178.2640  140.9920 C   0  0  0  0  0  2  0  0  0  0  0  0
  182.8900  178.6250  141.6490 C   0  0  0  0  0  1  0  0  0  0  0  0
  184.3410  178.7220  142.0990 C   0  0  1  0  0  3  0  0  0  0  0  0
  184.5290  177.9530  143.2670 O   0  0  0  0  0  0  0  0  0  0  0  0
  185.2890  178.7000  146.2940 C   0  0  2  0  0  3  0  0  0  0  0  0
  184.3960  177.9010  145.5490 O   0  0  0  0  0  0  0  0  0  0  0  0
  184.5540  180.0490  144.5310 C   0  0  0  0  0  2  0  0  0  0  0  0
  185.6820  179.9110  145.4930 C   0  0  0  0  0  2  0  0  0  0  0  0
  184.0090  178.6300  144.4010 C   0  0  1  0  0  0  0  0  0  0  0  0
  182.4830  178.6690  144.3660 C   0  0  0  0  0  1  0  0  0  0  0  0
  186.5210  177.9030  146.7210 C   0  0  0  0  0  3  0  0  0  0  0  0
  188.3030  177.5380  148.4660 C   0  0  0  0  0  2  0  0  0  0  0  0
  187.5250  177.8130  145.5610 C   0  0  0  0  0  2  0  0  0  0  0  0
  189.1470  176.9720  147.3080 C   0  0  0  0  0  2  0  0  0  0  0  0
  187.1680  178.4510  148.0000 C   0  0  0  0  0  2  0  0  0  0  0  0
  188.9860  177.7890  146.0270 C   0  0  0  0  0  2  0  0  0  0  0  0
  1 11  1  0  0  0  0
  2 21  1  0  0  0  0
  3 12  1  0  0  0  0
  5 14  1  0  0  0  0
  5  7  2  0  0  0  0
  6  8  1  0  0  0  0
  7 22  1  0  0  0  0
  8  9  2  0  0  0  0
  9  2  1  0  0  0  0
 10 19  1  1  0  0  0
 10  3  1  0  0  0  0
 10  1  1  0  0  0  0
 11 18  1  0  0  0  0
 12 11  2  0  0  0  0
 12 31  1  0  0  0  0
 13 17  1  0  0  0  0
 13  9  1  0  0  0  0
 14 19  2  0  0  0  0
 15  3  1  0  0  0  0
 16 20  1  0  0  0  0
 16  6  2  0  0  0  0
 17  4  1  6  0  0  0
 17  1  1  0  0  0  0
 18 23  1  0  0  0  0
 18 30  1  6  0  0  0
 20 13  2  0  0  0  0
 22 19  1  0  0  0  0
 22  4  2  0  0  0  0
 23 21  1  0  0  0  0
 24 28  1  0  0  0  0
 25 27  2  0  0  0  0
 25 26  1  0  0  0  0
 26 28  2  0  0  0  0
 27 24  1  0  0  0  0
 28 16  1  0  0  0  0
 30 29  1  0  0  0  0
 32 31  1  0  0  0  0
 32 34  1  0  0  0  0
 34 33  1  6  0  0  0
 34 35  1  0  0  0  0
 35 40  1  0  0  0  0
 36 42  1  6  0  0  0
 37 36  1  0  0  0  0
 38 39  1  0  0  0  0
 39 36  1  0  0  0  0
 40 41  1  6  0  0  0
 40 38  1  0  0  0  0
 40 37  1  0  0  0  0
 42 46  1  0  0  0  0
 44 47  1  0  0  0  0
 44 42  1  0  0  0  0
 45 43  1  0  0  0  0
 46 43  1  0  0  0  0
 47 45  1  0  0  0  0
M  END
>  <MODEL>
7

>  <REMARK>
 VINA RESULT:      -6.7      2.308      4.126
  Name = 
  8 active torsions:
  status: ('A' for Active; 'I' for Inactive)
    1  A    between atoms: C_4  and  C_6
    2  A    between atoms: C_15  and  O_36
    3  A    between atoms: C_15  and  C_40
    4  A    between atoms: C_22  and  C_24
    5  A    between atoms: C_24  and  C_40
    6  A    between atoms: C_30  and  O_36
    7  A    between atoms: C_31  and  C_35
    8  A    between atoms: C_33  and  C_37
                            x       y       z     vdW  Elec       q    Type
                         _______ _______ _______ _____ _____    ______ ____

>  <TORSDO>
F 8

$$$$
=
 OpenBabel11032420543D

 47 54  0  0  1  0  0  0  0  0999 V2000
  189.6550  176.5060  137.5160 N   0  0  0  0  0  0  0  0  0  0  0  0
  188.0240  174.6150  135.8490 C   0  0  0  0  0  2  0  0  0  0  0  0
  189.0510  177.0910  139.6990 N   0  0  0  0  0  0  0  0  0  0  0  0
  191.9590  176.6270  136.7940 N   0  0  0  0  0  0  0  0  0  0  0  0
  193.5270  177.2880  139.9270 N   0  0  0  0  0  0  0  0  0  0  0  0
  190.6750  172.0210  135.2400 C   0  0  0  0  0  3  0  0  0  0  0  0
  193.5540  177.1290  138.5230 N   0  0  0  0  0  0  0  0  0  0  0  0
  189.4550  172.6940  135.2850 C   0  0  0  0  0  3  0  0  0  0  0  0
  189.3880  174.0260  135.7110 C   0  0  0  0  0  0  0  0  0  0  0  0
  190.0820  176.5790  138.8680 C   0  0  2  0  0  3  0  0  0  0  0  0
  188.3870  177.1870  137.5100 C   0  0  0  0  0  0  0  0  0  0  0  0
  188.0360  177.4880  138.7720 C   0  0  0  0  0  0  0  0  0  0  0  0
  190.5770  174.7200  136.0690 C   0  0  0  0  0  0  0  0  0  0  0  0
  192.1180  177.0790  140.3420 C   0  0  0  0  0  3  0  0  0  0  0  0
  189.1670  177.5200  141.0860 C   0  0  0  0  0  1  0  0  0  0  0  0
  191.8510  172.6720  135.6210 C   0  0  0  0  0  0  0  0  0  0  0  0
  190.5910  176.2060  136.4110 C   0  0  1  0  0  3  0  0  0  0  0  0
  187.5550  177.5030  136.2730 C   0  0  2  0  0  3  0  0  0  0  0  0
  191.3900  176.6050  139.1310 C   0  0  0  0  0  0  0  0  0  0  0  0
  191.7960  174.0160  136.0190 C   0  0  0  0  0  3  0  0  0  0  0  0
  187.6700  175.5350  134.6930 C   0  0  0  0  0  2  0  0  0  0  0  0
  192.3140  176.6640  138.0480 C   0  0  0  0  0  0  0  0  0  0  0  0
  188.1390  176.9630  134.9670 C   0  0  0  0  0  2  0  0  0  0  0  0
  194.3110  172.4850  135.7880 O   0  0  0  0  0  0  0  0  0  0  0  0
  194.6160  170.3670  135.8670 N   0  0  0  0  0  0  0  0  0  0  0  0
  193.2910  170.5720  135.7410 C   0  0  0  0  0  3  0  0  0  0  0  0
  195.2040  171.5560  135.8930 N   0  0  0  0  0  0  0  0  0  0  0  0
  193.1240  171.9410  135.6940 C   0  0  0  0  0  0  0  0  0  0  0  0
  188.2000  179.7860  136.7440 O   0  0  0  0  0  1  0  0  0  0  0  0
  187.2220  178.9880  136.1400 C   0  0  0  0  0  2  0  0  0  0  0  0
  186.8240  178.2680  139.1750 C   0  0  0  0  0  2  0  0  0  0  0  0
  185.5710  177.5300  138.7140 C   0  0  0  0  0  2  0  0  0  0  0  0
  184.4380  179.7530  139.0070 C   0  0  0  0  0  1  0  0  0  0  0  0
  184.2840  178.2430  139.1220 C   0  0  1  0  0  3  0  0  0  0  0  0
  183.2010  177.8140  138.3290 O   0  0  0  0  0  0  0  0  0  0  0  0
  181.9920  177.9550  141.2980 C   0  0  2  0  0  3  0  0  0  0  0  0
  182.7050  177.0910  140.4410 O   0  0  0  0  0  0  0  0  0  0  0  0
  180.9400  178.1190  139.2160 C   0  0  0  0  0  2  0  0  0  0  0  0
  181.1190  178.8740  140.4880 C   0  0  0  0  0  2  0  0  0  0  0  0
  182.1840  177.2390  139.1360 C   0  0  1  0  0  0  0  0  0  0  0  0
  181.7960  175.8530  138.6270 C   0  0  0  0  0  1  0  0  0  0  0  0
  182.9380  178.7510  142.1960 C   0  0  0  0  0  3  0  0  0  0  0  0
  185.2740  179.0040  143.1090 C   0  0  0  0  0  2  0  0  0  0  0  0
  182.2890  178.9980  143.5670 C   0  0  0  0  0  2  0  0  0  0  0  0
  184.6000  179.7180  144.2950 C   0  0  0  0  0  2  0  0  0  0  0  0
  184.3220  178.1000  142.3240 C   0  0  0  0  0  2  0  0  0  0  0  0
  183.3010  179.0310  144.7170 C   0  0  0  0  0  2  0  0  0  0  0  0
  1 10  1  0  0  0  0
  3 15  1  0  0  0  0
  4 22  2  0  0  0  0
  5 14  1  0  0  0  0
  6  8  2  0  0  0  0
  6 16  1  0  0  0  0
  7  5  2  0  0  0  0
  8  9  1  0  0  0  0
  9  2  1  0  0  0  0
  9 13  2  0  0  0  0
 10 19  1  6  0  0  0
 10  3  1  0  0  0  0
 11  1  1  0  0  0  0
 11 12  2  0  0  0  0
 12 31  1  0  0  0  0
 12  3  1  0  0  0  0
 16 28  1  0  0  0  0
 16 20  2  0  0  0  0
 17 13  1  1  0  0  0
 17  4  1  0  0  0  0
 17  1  1  0  0  0  0
 18 30  1  6  0  0  0
 18 11  1  0  0  0  0
 19 14  2  0  0  0  0
 20 13  1  0  0  0  0
 21 23  1  0  0  0  0
 21  2  1  0  0  0  0
 22  7  1  0  0  0  0
 22 19  1  0  0  0  0
 23 18  1  0  0  0  0
 24 27  1  0  0  0  0
 25 27  2  0  0  0  0
 26 25  1  0  0  0  0
 28 26  2  0  0  0  0
 28 24  1  0  0  0  0
 30 29  1  0  0  0  0
 32 34  1  0  0  0  0
 32 31  1  0  0  0  0
 34 33  1  6  0  0  0
 35 34  1  0  0  0  0
 35 40  1  0  0  0  0
 36 42  1  6  0  0  0
 37 36  1  0  0  0  0
 38 39  1  0  0  0  0
 39 36  1  0  0  0  0
 40 41  1  6  0  0  0
 40 38  1  0  0  0  0
 40 37  1  0  0  0  0
 42 46  1  0  0  0  0
 42 44  1  0  0  0  0
 43 45  1  0  0  0  0
 44 47  1  0  0  0  0
 45 47  1  0  0  0  0
 46 43  1  0  0  0  0
M  END
>  <MODEL>
8

>  <REMARK>
 VINA RESULT:      -6.7      2.027      3.111
  Name = 
  8 active torsions:
  status: ('A' for Active; 'I' for Inactive)
    1  A    between atoms: C_4  and  C_6
    2  A    between atoms: C_15  and  O_36
    3  A    between atoms: C_15  and  C_40
    4  A    between atoms: C_22  and  C_24
    5  A    between atoms: C_24  and  C_40
    6  A    between atoms: C_30  and  O_36
    7  A    between atoms: C_31  and  C_35
    8  A    between atoms: C_33  and  C_37
                            x       y       z     vdW  Elec       q    Type
                         _______ _______ _______ _____ _____    ______ ____

>  <TORSDO>
F 8

$$$$
=
 OpenBabel11032420543D

 47 54  0  0  1  0  0  0  0  0999 V2000
  186.2760  177.5700  138.3880 N   0  0  0  0  0  0  0  0  0  0  0  0
  188.8140  177.1160  139.9270 C   0  0  0  0  0  2  0  0  0  0  0  0
  185.3350  175.9300  137.0110 N   0  0  0  0  0  0  0  0  0  0  0  0
  184.9050  179.3110  139.3550 N   0  0  0  0  0  0  0  0  0  0  0  0
  181.6790  178.0940  138.4490 N   0  0  0  0  0  0  0  0  0  0  0  0
  187.4550  177.7060  143.3810 C   0  0  0  0  0  3  0  0  0  0  0  0
  182.5370  179.0670  139.0080 N   0  0  0  0  0  0  0  0  0  0  0  0
  188.2920  177.3700  142.3180 C   0  0  0  0  0  3  0  0  0  0  0  0
  187.9110  177.6320  140.9970 C   0  0  0  0  0  0  0  0  0  0  0  0
  185.1060  176.8240  138.0900 C   0  0  2  0  0  3  0  0  0  0  0  0
  187.1810  177.2510  137.3150 C   0  0  0  0  0  0  0  0  0  0  0  0
  186.6440  176.2850  136.5510 C   0  0  0  0  0  0  0  0  0  0  0  0
  186.6740  178.2810  140.7270 C   0  0  0  0  0  0  0  0  0  0  0  0
  182.5510  176.9880  137.9840 C   0  0  0  0  0  3  0  0  0  0  0  0
  184.3410  175.1650  136.2730 C   0  0  0  0  0  1  0  0  0  0  0  0
  186.2200  178.3130  143.1370 C   0  0  0  0  0  0  0  0  0  0  0  0
  186.2610  178.7150  139.3250 C   0  0  1  0  0  3  0  0  0  0  0  0
  188.5460  177.8880  137.0850 C   0  0  2  0  0  3  0  0  0  0  0  0
  183.9220  177.2970  138.4810 C   0  0  0  0  0  0  0  0  0  0  0  0
  185.8450  178.6070  141.8180 C   0  0  0  0  0  3  0  0  0  0  0  0
  189.6790  178.2090  139.3210 C   0  0  0  0  0  2  0  0  0  0  0  0
  183.8560  178.5830  139.0900 C   0  0  0  0  0  0  0  0  0  0  0  0
  188.9600  178.8940  138.1600 C   0  0  0  0  0  2  0  0  0  0  0  0
  185.5930  178.6640  145.5030 O   0  0  0  0  0  0  0  0  0  0  0  0
  183.4860  179.0340  145.3800 N   0  0  0  0  0  0  0  0  0  0  0  0
  183.9210  178.7950  144.1280 C   0  0  0  0  0  3  0  0  0  0  0  0
  184.5340  178.9460  146.1900 N   0  0  0  0  0  0  0  0  0  0  0  0
  185.2770  178.5630  144.2370 C   0  0  0  0  0  0  0  0  0  0  0  0
  187.4580  178.9020  135.1780 O   0  0  0  0  0  1  0  0  0  0  0  0
  188.6940  178.4970  135.6920 C   0  0  0  0  0  2  0  0  0  0  0  0
  187.2410  175.7370  135.2920 C   0  0  0  0  0  2  0  0  0  0  0  0
  187.4320  174.2300  135.4380 C   0  0  0  0  0  2  0  0  0  0  0  0
  188.5070  172.4550  136.8530 C   0  0  0  0  0  1  0  0  0  0  0  0
  188.6310  173.8720  136.3130 C   0  0  1  0  0  3  0  0  0  0  0  0
  189.8340  174.0010  135.5890 O   0  0  0  0  0  0  0  0  0  0  0  0
  193.0100  174.0720  136.0500 C   0  0  2  0  0  3  0  0  0  0  0  0
  191.8120  173.7000  136.6970 O   0  0  0  0  0  0  0  0  0  0  0  0
  191.4940  175.7990  135.6180 C   0  0  0  0  0  2  0  0  0  0  0  0
  192.7410  175.1880  135.0790 C   0  0  0  0  0  2  0  0  0  0  0  0
  190.8230  174.6550  136.3710 C   0  0  1  0  0  0  0  0  0  0  0  0
  190.2310  175.1800  137.6760 C   0  0  0  0  0  1  0  0  0  0  0  0
  193.6530  172.8780  135.3470 C   0  0  0  0  0  3  0  0  0  0  0  0
  193.6240  170.3890  134.9510 C   0  0  0  0  0  2  0  0  0  0  0  0
  195.1790  172.9120  135.5280 C   0  0  0  0  0  2  0  0  0  0  0  0
  195.1250  170.5440  134.6450 C   0  0  0  0  0  2  0  0  0  0  0  0
  193.0520  171.5360  135.7860 C   0  0  0  0  0  2  0  0  0  0  0  0
  195.8090  171.5170  135.6050 C   0  0  0  0  0  2  0  0  0  0  0  0
  1 17  1  0  0  0  0
  2  9  1  0  0  0  0
  3 10  1  0  0  0  0
  5  7  2  0  0  0  0
  7 22  1  0  0  0  0
  8  6  2  0  0  0  0
  9  8  1  0  0  0  0
 10  1  1  0  0  0  0
 10 19  1  6  0  0  0
 11  1  1  0  0  0  0
 12  3  1  0  0  0  0
 12 11  2  0  0  0  0
 13  9  2  0  0  0  0
 13 20  1  0  0  0  0
 14  5  1  0  0  0  0
 14 19  2  0  0  0  0
 15  3  1  0  0  0  0
 16  6  1  0  0  0  0
 16 28  1  0  0  0  0
 17  4  1  1  0  0  0
 17 13  1  0  0  0  0
 18 30  1  6  0  0  0
 18 11  1  0  0  0  0
 18 23  1  0  0  0  0
 19 22  1  0  0  0  0
 20 16  2  0  0  0  0
 21  2  1  0  0  0  0
 22  4  2  0  0  0  0
 23 21  1  0  0  0  0
 24 27  1  0  0  0  0
 25 27  2  0  0  0  0
 26 28  2  0  0  0  0
 26 25  1  0  0  0  0
 28 24  1  0  0  0  0
 29 30  1  0  0  0  0
 31 32  1  0  0  0  0
 31 12  1  0  0  0  0
 32 34  1  0  0  0  0
 34 33  1  6  0  0  0
 35 34  1  0  0  0  0
 35 40  1  0  0  0  0
 36 42  1  6  0  0  0
 36 37  1  0  0  0  0
 38 40  1  0  0  0  0
 39 38  1  0  0  0  0
 39 36  1  0  0  0  0
 40 37  1  0  0  0  0
 40 41  1  1  0  0  0
 42 44  1  0  0  0  0
 42 46  1  0  0  0  0
 43 46  1  0  0  0  0
 44 47  1  0  0  0  0
 45 43  1  0  0  0  0
 45 47  1  0  0  0  0
M  END
>  <MODEL>
9

>  <REMARK>
 VINA RESULT:      -6.7      3.416     10.098
  Name = 
  8 active torsions:
  status: ('A' for Active; 'I' for Inactive)
    1  A    between atoms: C_4  and  C_6
    2  A    between atoms: C_15  and  O_36
    3  A    between atoms: C_15  and  C_40
    4  A    between atoms: C_22  and  C_24
    5  A    between atoms: C_24  and  C_40
    6  A    between atoms: C_30  and  O_36
    7  A    between atoms: C_31  and  C_35
    8  A    between atoms: C_33  and  C_37
                            x       y       z     vdW  Elec       q    Type
                         _______ _______ _______ _____ _____    ______ ____

>  <TORSDO>
F 8

$$$$
