=
 OpenBabel11042413043D

 40 43  0  0  1  0  0  0  0  0999 V2000
  188.7970  177.9890  139.9430 C   0  0  0  0  0  0  0  0  0  0  0  0
  190.2060  176.7310  138.5420 C   0  0  0  0  0  0  0  0  0  0  0  0
  188.8780  177.1510  137.5810 S   0  0  0  0  0  0  0  0  0  0  0  0
  190.0060  177.2760  139.8210 C   0  0  0  0  0  0  0  0  0  0  0  0
  190.9450  177.1070  140.9690 C   0  0  0  0  0  1  0  0  0  0  0  0
  188.0620  178.0150  138.7670 C   0  0  0  0  0  0  0  0  0  0  0  0
  192.4090  174.1200  137.0870 C   0  0  0  0  0  0  0  0  0  0  0  0
  191.1710  174.7340  137.5130 C   0  0  0  0  0  3  0  0  0  0  0  0
  193.0640  176.4730  138.1230 S   0  0  0  0  0  0  0  0  0  0  0  0
  191.3500  175.9260  138.0580 C   0  0  0  0  0  0  0  0  0  0  0  0
  192.4390  172.9960  136.5190 O   0  0  0  0  0  0  0  0  0  0  0  0
  193.6330  174.9240  137.3370 C   0  0  1  0  0  3  0  0  0  0  0  0
  195.6160  175.0480  138.6770 O   0  0  0  0  0  0  0  0  0  0  0  0
  194.5710  174.1860  138.2910 C   0  0  2  0  0  3  0  0  0  0  0  0
  195.9750  173.9970  137.8130 C   0  0  1  0  0  3  0  0  0  0  0  0
  196.2860  174.5550  136.4270 C   0  0  0  0  0  2  0  0  0  0  0  0
  198.0650  175.5050  135.2420 C   0  0  0  0  0  1  0  0  0  0  0  0
  197.3600  175.5290  136.5130 N   0  0  0  0  0  2  0  0  0  0  0  0
  186.8120  178.6810  138.5940 N   0  0  0  0  0  2  0  0  0  0  0  0
  184.5090  179.9500  139.5130 O   0  0  0  0  0  0  0  0  0  0  0  0
  183.2330  178.0010  139.4900 N   0  0  0  0  0  2  0  0  0  0  0  0
  184.4510  178.7120  139.2840 C   0  0  0  0  0  0  0  0  0  0  0  0
  185.6010  178.0120  138.8160 N   0  0  0  0  0  2  0  0  0  0  0  0
  182.0800  178.6570  139.9440 N   0  0  0  0  0  2  0  0  0  0  0  0
  180.9830  178.8540  143.3750 O   0  0  0  0  0  0  0  0  0  0  0  0
  182.0040  178.4430  141.3280 N   0  0  0  0  0  2  0  0  0  0  0  0
  181.0220  179.0920  142.1410 C   0  0  0  0  0  0  0  0  0  0  0  0
  180.0500  180.0560  141.5490 C   0  0  0  0  0  1  0  0  0  0  0  0
  188.3610  178.6840  141.1920 C   0  0  0  0  0  2  0  0  0  0  0  0
  187.5110  177.7530  142.0320 C   0  0  0  0  0  2  0  0  0  0  0  0
  186.1990  178.4310  142.3660 C   0  0  0  0  0  2  0  0  0  0  0  0
  185.7910  178.1230  144.1050 S   0  0  0  0  0  0  0  0  0  0  0  0
  187.3120  177.2710  144.3750 N   0  0  0  0  0  2  0  0  0  0  0  0
  187.7850  177.6680  145.6890 C   0  0  0  0  0  2  0  0  0  0  0  0
  191.3570  176.7190  144.9240 C   0  0  0  0  0  3  0  0  0  0  0  0
  191.8230  176.4060  146.2030 C   0  0  0  0  0  3  0  0  0  0  0  0
  190.0380  177.1390  144.7480 C   0  0  0  0  0  3  0  0  0  0  0  0
  190.9530  176.5130  147.2910 C   0  0  0  0  0  3  0  0  0  0  0  0
  189.2000  177.2430  145.8620 C   0  0  0  0  0  0  0  0  0  0  0  0
  189.6700  176.9250  147.1000 N   0  0  0  0  0  0  0  0  0  0  0  0
  1 29  1  0  0  0  0
  2  4  2  0  0  0  0
  3  2  1  0  0  0  0
  3  6  1  0  0  0  0
  4  1  1  0  0  0  0
  4  5  1  0  0  0  0
  6  1  2  0  0  0  0
  7  8  1  0  0  0  0
  8 10  2  0  0  0  0
 10  9  1  0  0  0  0
 10  2  1  0  0  0  0
 11  7  2  0  0  0  0
 12  7  1  1  0  0  0
 12  9  1  0  0  0  0
 12 14  1  0  0  0  0
 14 13  1  1  0  0  0
 15 16  1  6  0  0  0
 15 14  1  0  0  0  0
 15 13  1  0  0  0  0
 16 18  1  0  0  0  0
 17 18  1  0  0  0  0
 19  6  1  0  0  0  0
 19 23  1  0  0  0  0
 21 24  1  0  0  0  0
 22 21  1  0  0  0  0
 22 20  2  0  0  0  0
 23 22  1  0  0  0  0
 24 26  1  0  0  0  0
 26 27  1  0  0  0  0
 27 25  2  0  0  0  0
 28 27  1  0  0  0  0
 29 30  1  0  0  0  0
 30 31  1  0  0  0  0
 31 32  1  0  0  0  0
 32 33  1  0  0  0  0
 33 34  1  0  0  0  0
 34 39  1  0  0  0  0
 35 36  1  0  0  0  0
 36 38  2  0  0  0  0
 37 35  2  0  0  0  0
 37 39  1  0  0  0  0
 39 40  2  0  0  0  0
 40 38  1  0  0  0  0
M  END
>  <MODEL>
1

>  <REMARK>
 VINA RESULT:      -7.6      0.000      0.000
  Name = 
  15 active torsions:
  status: ('A' for Active; 'I' for Inactive)
    1  A    between atoms: C_1  and  C_12
    2  A    between atoms: C_1  and  C_24
    3  A    between atoms: N_3  and  N_17
    4  A    between atoms: N_3  and  N_34
    5  A    between atoms: N_5  and  S_33
    6  A    between atoms: N_5  and  C_40
    7  A    between atoms: C_6  and  C_24
    8  A    between atoms: C_7  and  C_30
    9  A    between atoms: N_10  and  C_15
   10  A    between atoms: C_12  and  S_33
   11  A    between atoms: N_14  and  C_31
   12  A    between atoms: N_14  and  N_37
   13  A    between atoms: C_15  and  C_32
   14  A    between atoms: C_20  and  C_39
   15  A    between atoms: C_21  and  C_40
                            x       y       z     vdW  Elec       q    Type
                         _______ _______ _______ _____ _____    ______ ____

>  <TORSDO>
F 15

$$$$
=
 OpenBabel11042413043D

 40 43  0  0  1  0  0  0  0  0999 V2000
  185.8880  178.0820  144.4070 C   0  0  0  0  0  0  0  0  0  0  0  0
  186.7040  178.2450  142.2080 C   0  0  0  0  0  0  0  0  0  0  0  0
  185.2830  179.1630  142.2280 S   0  0  0  0  0  0  0  0  0  0  0  0
  186.8970  177.7170  143.4950 C   0  0  0  0  0  0  0  0  0  0  0  0
  188.0320  176.8280  143.8820 C   0  0  0  0  0  1  0  0  0  0  0  0
  184.9190  178.9000  143.8450 C   0  0  0  0  0  0  0  0  0  0  0  0
  189.5010  177.7010  139.8270 C   0  0  0  0  0  0  0  0  0  0  0  0
  188.8570  177.8710  141.1100 C   0  0  0  0  0  3  0  0  0  0  0  0
  186.9230  178.0690  139.3220 S   0  0  0  0  0  0  0  0  0  0  0  0
  187.5530  178.0690  141.0080 C   0  0  0  0  0  0  0  0  0  0  0  0
  190.7350  177.4730  139.7220 O   0  0  0  0  0  0  0  0  0  0  0  0
  188.5970  177.7810  138.6500 C   0  0  1  0  0  3  0  0  0  0  0  0
  187.8820  179.3420  136.9780 O   0  0  0  0  0  0  0  0  0  0  0  0
  188.9930  178.9520  137.7520 C   0  0  2  0  0  3  0  0  0  0  0  0
  188.9230  178.7020  136.2800 C   0  0  1  0  0  3  0  0  0  0  0  0
  188.4770  177.3030  135.8640 C   0  0  0  0  0  2  0  0  0  0  0  0
  186.2220  176.9020  135.3900 C   0  0  0  0  0  1  0  0  0  0  0  0
  187.4680  177.3910  134.8240 N   0  0  0  0  0  2  0  0  0  0  0  0
  183.7940  179.4370  144.5390 N   0  0  0  0  0  2  0  0  0  0  0  0
  181.6580  179.7590  142.7800 O   0  0  0  0  0  0  0  0  0  0  0  0
  180.3360  178.1610  143.8410 N   0  0  0  0  0  2  0  0  0  0  0  0
  181.5360  178.9190  143.7110 C   0  0  0  0  0  0  0  0  0  0  0  0
  182.5970  178.7170  144.6420 N   0  0  0  0  0  2  0  0  0  0  0  0
  179.2740  178.3280  142.9410 N   0  0  0  0  0  2  0  0  0  0  0  0
  179.5600  176.2990  139.9730 O   0  0  0  0  0  0  0  0  0  0  0  0
  179.2760  177.2140  142.0900 N   0  0  0  0  0  2  0  0  0  0  0  0
  179.5510  177.3300  140.6920 C   0  0  0  0  0  0  0  0  0  0  0  0
  179.8170  178.6600  140.0690 C   0  0  0  0  0  1  0  0  0  0  0  0
  185.8740  177.6710  145.8440 C   0  0  0  0  0  2  0  0  0  0  0  0
  186.8520  178.5180  146.6330 C   0  0  0  0  0  2  0  0  0  0  0  0
  187.3070  177.7550  147.8580 C   0  0  0  0  0  2  0  0  0  0  0  0
  189.0400  178.1540  148.2040 S   0  0  0  0  0  0  0  0  0  0  0  0
  189.6050  176.7070  147.3690 N   0  0  0  0  0  2  0  0  0  0  0  0
  191.0300  176.8800  147.1510 C   0  0  0  0  0  2  0  0  0  0  0  0
  191.5150  178.2320  143.6610 C   0  0  0  0  0  3  0  0  0  0  0  0
  191.7890  177.0560  142.9610 C   0  0  0  0  0  3  0  0  0  0  0  0
  191.2710  178.1850  145.0340 C   0  0  0  0  0  3  0  0  0  0  0  0
  191.8100  175.8410  143.6520 C   0  0  0  0  0  3  0  0  0  0  0  0
  191.3090  176.9520  145.6910 C   0  0  0  0  0  0  0  0  0  0  0  0
  191.5700  175.8130  144.9910 N   0  0  0  0  0  0  0  0  0  0  0  0
  1 29  1  0  0  0  0
  2  3  1  0  0  0  0
  2  4  2  0  0  0  0
  3  6  1  0  0  0  0
  4  5  1  0  0  0  0
  4  1  1  0  0  0  0
  6  1  2  0  0  0  0
  6 19  1  0  0  0  0
  7  8  1  0  0  0  0
  9 10  1  0  0  0  0
 10  8  2  0  0  0  0
 10  2  1  0  0  0  0
 11  7  2  0  0  0  0
 12  9  1  1  0  0  0
 12  7  1  0  0  0  0
 14 13  1  6  0  0  0
 14 12  1  0  0  0  0
 15 16  1  1  0  0  0
 15 13  1  0  0  0  0
 15 14  1  0  0  0  0
 18 17  1  0  0  0  0
 18 16  1  0  0  0  0
 19 23  1  0  0  0  0
 20 22  2  0  0  0  0
 22 21  1  0  0  0  0
 22 23  1  0  0  0  0
 24 21  1  0  0  0  0
 25 27  2  0  0  0  0
 26 24  1  0  0  0  0
 27 26  1  0  0  0  0
 28 27  1  0  0  0  0
 29 30  1  0  0  0  0
 30 31  1  0  0  0  0
 31 32  1  0  0  0  0
 33 32  1  0  0  0  0
 34 33  1  0  0  0  0
 35 37  1  0  0  0  0
 36 38  1  0  0  0  0
 36 35  2  0  0  0  0
 37 39  2  0  0  0  0
 38 40  2  0  0  0  0
 39 34  1  0  0  0  0
 40 39  1  0  0  0  0
M  END
>  <MODEL>
2

>  <REMARK>
 VINA RESULT:      -7.6      4.240      5.693
  Name = 
  15 active torsions:
  status: ('A' for Active; 'I' for Inactive)
    1  A    between atoms: C_1  and  C_12
    2  A    between atoms: C_1  and  C_24
    3  A    between atoms: N_3  and  N_17
    4  A    between atoms: N_3  and  N_34
    5  A    between atoms: N_5  and  S_33
    6  A    between atoms: N_5  and  C_40
    7  A    between atoms: C_6  and  C_24
    8  A    between atoms: C_7  and  C_30
    9  A    between atoms: N_10  and  C_15
   10  A    between atoms: C_12  and  S_33
   11  A    between atoms: N_14  and  C_31
   12  A    between atoms: N_14  and  N_37
   13  A    between atoms: C_15  and  C_32
   14  A    between atoms: C_20  and  C_39
   15  A    between atoms: C_21  and  C_40
                            x       y       z     vdW  Elec       q    Type
                         _______ _______ _______ _____ _____    ______ ____

>  <TORSDO>
F 15

$$$$
=
 OpenBabel11042413043D

 40 43  0  0  1  0  0  0  0  0999 V2000
  188.7850  177.8870  137.9720 C   0  0  0  0  0  0  0  0  0  0  0  0
  190.7240  176.5590  137.9670 C   0  0  0  0  0  0  0  0  0  0  0  0
  190.5030  177.0220  139.5790 S   0  0  0  0  0  0  0  0  0  0  0  0
  189.6850  177.1200  137.2080 C   0  0  0  0  0  0  0  0  0  0  0  0
  189.5380  176.9640  135.7310 C   0  0  0  0  0  1  0  0  0  0  0  0
  189.1060  177.9170  139.3200 C   0  0  0  0  0  0  0  0  0  0  0  0
  192.8650  173.7830  136.7380 C   0  0  0  0  0  0  0  0  0  0  0  0
  191.6550  174.4350  137.1900 C   0  0  0  0  0  3  0  0  0  0  0  0
  193.5300  176.2930  137.2820 S   0  0  0  0  0  0  0  0  0  0  0  0
  191.8430  175.7060  137.5020 C   0  0  0  0  0  0  0  0  0  0  0  0
  192.8800  172.5800  136.3690 O   0  0  0  0  0  0  0  0  0  0  0  0
  194.0740  174.6460  136.7110 C   0  0  1  0  0  3  0  0  0  0  0  0
  195.9810  175.1570  138.0710 O   0  0  0  0  0  0  0  0  0  0  0  0
  195.1380  174.1030  137.6660 C   0  0  2  0  0  3  0  0  0  0  0  0
  196.5540  174.2130  137.2000 C   0  0  1  0  0  3  0  0  0  0  0  0
  196.7530  174.8400  135.8220 C   0  0  0  0  0  2  0  0  0  0  0  0
  196.6480  176.9990  134.9290 C   0  0  0  0  0  1  0  0  0  0  0  0
  197.2720  176.1900  135.9620 N   0  0  0  0  0  2  0  0  0  0  0  0
  188.3610  178.5980  140.3290 N   0  0  0  0  0  2  0  0  0  0  0  0
  189.6490  178.3740  142.7880 O   0  0  0  0  0  0  0  0  0  0  0  0
  187.9380  177.1180  143.7500 N   0  0  0  0  0  2  0  0  0  0  0  0
  188.5220  177.8240  142.6580 C   0  0  0  0  0  0  0  0  0  0  0  0
  187.8210  177.9050  141.4200 N   0  0  0  0  0  2  0  0  0  0  0  0
  188.5960  177.0230  144.9850 N   0  0  0  0  0  2  0  0  0  0  0  0
  187.3900  178.3520  148.1130 O   0  0  0  0  0  0  0  0  0  0  0  0
  187.7500  177.5920  145.9470 N   0  0  0  0  0  2  0  0  0  0  0  0
  188.1800  177.8230  147.2910 C   0  0  0  0  0  0  0  0  0  0  0  0
  189.5490  177.4340  147.7370 C   0  0  0  0  0  1  0  0  0  0  0  0
  187.5810  178.5680  137.4060 C   0  0  0  0  0  2  0  0  0  0  0  0
  186.3510  177.7100  137.6250 C   0  0  0  0  0  2  0  0  0  0  0  0
  185.2710  178.5360  138.2910 C   0  0  0  0  0  2  0  0  0  0  0  0
  183.7010  177.6330  138.2270 S   0  0  0  0  0  0  0  0  0  0  0  0
  183.1520  178.3560  139.7390 N   0  0  0  0  0  2  0  0  0  0  0  0
  184.2630  178.2710  140.6690 C   0  0  0  0  0  2  0  0  0  0  0  0
  184.2140  178.7710  144.4110 C   0  0  0  0  0  3  0  0  0  0  0  0
  182.8480  178.9650  144.6300 C   0  0  0  0  0  3  0  0  0  0  0  0
  184.6860  178.5490  143.1160 C   0  0  0  0  0  3  0  0  0  0  0  0
  181.9710  178.9280  143.5420 C   0  0  0  0  0  3  0  0  0  0  0  0
  183.7790  178.5280  142.0530 C   0  0  0  0  0  0  0  0  0  0  0  0
  182.4500  178.7110  142.2870 N   0  0  0  0  0  0  0  0  0  0  0  0
  1  6  2  0  0  0  0
  2  3  1  0  0  0  0
  4  2  2  0  0  0  0
  4  1  1  0  0  0  0
  5  4  1  0  0  0  0
  6  3  1  0  0  0  0
  6 19  1  0  0  0  0
  7  8  1  0  0  0  0
  8 10  2  0  0  0  0
  9 10  1  0  0  0  0
 10  2  1  0  0  0  0
 11  7  2  0  0  0  0
 12  7  1  1  0  0  0
 12  9  1  0  0  0  0
 12 14  1  0  0  0  0
 14 13  1  1  0  0  0
 15 16  1  6  0  0  0
 15 14  1  0  0  0  0
 15 13  1  0  0  0  0
 16 18  1  0  0  0  0
 17 18  1  0  0  0  0
 19 23  1  0  0  0  0
 21 24  1  0  0  0  0
 22 20  2  0  0  0  0
 22 21  1  0  0  0  0
 23 22  1  0  0  0  0
 24 26  1  0  0  0  0
 26 27  1  0  0  0  0
 27 28  1  0  0  0  0
 27 25  2  0  0  0  0
 29 30  1  0  0  0  0
 29  1  1  0  0  0  0
 30 31  1  0  0  0  0
 32 31  1  0  0  0  0
 32 33  1  0  0  0  0
 33 34  1  0  0  0  0
 34 39  1  0  0  0  0
 35 36  1  0  0  0  0
 37 35  2  0  0  0  0
 38 36  2  0  0  0  0
 39 40  2  0  0  0  0
 39 37  1  0  0  0  0
 40 38  1  0  0  0  0
M  END
>  <MODEL>
3

>  <REMARK>
 VINA RESULT:      -7.2      2.488      5.395
  Name = 
  15 active torsions:
  status: ('A' for Active; 'I' for Inactive)
    1  A    between atoms: C_1  and  C_12
    2  A    between atoms: C_1  and  C_24
    3  A    between atoms: N_3  and  N_17
    4  A    between atoms: N_3  and  N_34
    5  A    between atoms: N_5  and  S_33
    6  A    between atoms: N_5  and  C_40
    7  A    between atoms: C_6  and  C_24
    8  A    between atoms: C_7  and  C_30
    9  A    between atoms: N_10  and  C_15
   10  A    between atoms: C_12  and  S_33
   11  A    between atoms: N_14  and  C_31
   12  A    between atoms: N_14  and  N_37
   13  A    between atoms: C_15  and  C_32
   14  A    between atoms: C_20  and  C_39
   15  A    between atoms: C_21  and  C_40
                            x       y       z     vdW  Elec       q    Type
                         _______ _______ _______ _____ _____    ______ ____

>  <TORSDO>
F 15

$$$$
=
 OpenBabel11042413043D

 40 43  0  0  1  0  0  0  0  0999 V2000
  189.3980  177.8990  140.9930 C   0  0  0  0  0  0  0  0  0  0  0  0
  190.3690  176.7340  139.1960 C   0  0  0  0  0  0  0  0  0  0  0  0
  188.8160  177.1510  138.6720 S   0  0  0  0  0  0  0  0  0  0  0  0
  190.5330  177.2250  140.5020 C   0  0  0  0  0  0  0  0  0  0  0  0
  191.7640  177.0420  141.3260 C   0  0  0  0  0  1  0  0  0  0  0  0
  188.3580  177.9470  140.0770 C   0  0  0  0  0  0  0  0  0  0  0  0
  192.1090  174.2420  137.0630 C   0  0  0  0  0  0  0  0  0  0  0  0
  191.0350  174.8040  137.8500 C   0  0  0  0  0  3  0  0  0  0  0  0
  192.9920  176.5740  137.9690 S   0  0  0  0  0  0  0  0  0  0  0  0
  191.3410  175.9800  138.3720 C   0  0  0  0  0  0  0  0  0  0  0  0
  191.9950  173.1410  136.4630 O   0  0  0  0  0  0  0  0  0  0  0  0
  193.3390  175.0720  136.9880 C   0  0  1  0  0  3  0  0  0  0  0  0
  195.5380  175.2500  137.9250 O   0  0  0  0  0  0  0  0  0  0  0  0
  194.5240  174.3270  137.6030 C   0  0  2  0  0  3  0  0  0  0  0  0
  195.8090  174.3960  136.8400 C   0  0  1  0  0  3  0  0  0  0  0  0
  195.7660  175.1920  135.5380 C   0  0  0  0  0  2  0  0  0  0  0  0
  195.7780  177.4520  134.9360 C   0  0  0  0  0  1  0  0  0  0  0  0
  196.4930  176.4400  135.6950 N   0  0  0  0  0  2  0  0  0  0  0  0
  187.0980  178.5820  140.2960 N   0  0  0  0  0  0  0  0  0  0  0  0
  184.5020  179.4840  140.7480 O   0  0  0  0  0  0  0  0  0  0  0  0
  183.7770  178.9650  138.5950 N   0  0  0  0  0  2  0  0  0  0  0  0
  184.7770  179.0170  139.6090 C   0  0  0  0  0  0  0  0  0  0  0  0
  186.0890  178.5380  139.3260 N   0  0  0  0  0  0  0  0  0  0  0  0
  182.4770  179.4320  138.8360 N   0  0  0  0  0  2  0  0  0  0  0  0
  180.2790  177.1030  140.4950 O   0  0  0  0  0  0  0  0  0  0  0  0
  181.6760  178.3080  139.0820 N   0  0  0  0  0  2  0  0  0  0  0  0
  181.0010  178.1190  140.3280 C   0  0  0  0  0  0  0  0  0  0  0  0
  181.1490  179.1020  141.4400 C   0  0  0  0  0  1  0  0  0  0  0  0
  189.3250  178.5350  142.3430 C   0  0  0  0  0  2  0  0  0  0  0  0
  189.3470  177.4680  143.4190 C   0  0  0  0  0  2  0  0  0  0  0  0
  190.0300  178.0120  144.6560 C   0  0  0  0  0  2  0  0  0  0  0  0
  189.4930  177.0640  146.1030 S   0  0  0  0  0  0  0  0  0  0  0  0
  188.2960  178.2850  146.5360 N   0  0  0  0  0  2  0  0  0  0  0  0
  187.0740  177.5740  146.8650 C   0  0  0  0  0  2  0  0  0  0  0  0
  185.1330  178.2300  143.6950 C   0  0  0  0  0  3  0  0  0  0  0  0
  183.9700  178.8020  144.2150 C   0  0  0  0  0  3  0  0  0  0  0  0
  186.1520  177.8200  144.5560 C   0  0  0  0  0  3  0  0  0  0  0  0
  183.8470  178.9590  145.5980 C   0  0  0  0  0  3  0  0  0  0  0  0
  185.9890  177.9850  145.9340 C   0  0  0  0  0  0  0  0  0  0  0  0
  184.8510  178.5520  146.4230 N   0  0  0  0  0  0  0  0  0  0  0  0
  1 29  1  0  0  0  0
  2  4  2  0  0  0  0
  3  2  1  0  0  0  0
  3  6  1  0  0  0  0
  4  1  1  0  0  0  0
  4  5  1  0  0  0  0
  6 19  1  0  0  0  0
  6  1  2  0  0  0  0
  7  8  1  0  0  0  0
  8 10  2  0  0  0  0
  9 10  1  0  0  0  0
 10  2  1  0  0  0  0
 11  7  2  0  0  0  0
 12  7  1  1  0  0  0
 12 14  1  0  0  0  0
 12  9  1  0  0  0  0
 14 13  1  1  0  0  0
 15 16  1  6  0  0  0
 15 14  1  0  0  0  0
 15 13  1  0  0  0  0
 16 18  1  0  0  0  0
 17 18  1  0  0  0  0
 21 24  1  0  0  0  0
 21 22  1  0  0  0  0
 22 20  2  0  0  0  0
 23 22  1  0  0  0  0
 23 19  2  0  0  0  0
 24 26  1  0  0  0  0
 26 27  1  0  0  0  0
 27 25  2  0  0  0  0
 27 28  1  0  0  0  0
 29 30  1  0  0  0  0
 30 31  1  0  0  0  0
 31 32  1  0  0  0  0
 32 33  1  0  0  0  0
 33 34  1  0  0  0  0
 35 36  2  0  0  0  0
 35 37  1  0  0  0  0
 36 38  1  0  0  0  0
 37 39  2  0  0  0  0
 38 40  2  0  0  0  0
 39 40  1  0  0  0  0
 39 34  1  0  0  0  0
M  END
>  <MODEL>
4

>  <REMARK>
 VINA RESULT:      -7.1      1.763      2.901
  Name = 
  15 active torsions:
  status: ('A' for Active; 'I' for Inactive)
    1  A    between atoms: C_1  and  C_12
    2  A    between atoms: C_1  and  C_24
    3  A    between atoms: N_3  and  N_17
    4  A    between atoms: N_3  and  N_34
    5  A    between atoms: N_5  and  S_33
    6  A    between atoms: N_5  and  C_40
    7  A    between atoms: C_6  and  C_24
    8  A    between atoms: C_7  and  C_30
    9  A    between atoms: N_10  and  C_15
   10  A    between atoms: C_12  and  S_33
   11  A    between atoms: N_14  and  C_31
   12  A    between atoms: N_14  and  N_37
   13  A    between atoms: C_15  and  C_32
   14  A    between atoms: C_20  and  C_39
   15  A    between atoms: C_21  and  C_40
                            x       y       z     vdW  Elec       q    Type
                         _______ _______ _______ _____ _____    ______ ____

>  <TORSDO>
F 15

$$$$
=
 OpenBabel11042413043D

 40 43  0  0  1  0  0  0  0  0999 V2000
  184.6050  179.0690  142.1610 C   0  0  0  0  0  0  0  0  0  0  0  0
  183.3100  178.1050  140.4530 C   0  0  0  0  0  0  0  0  0  0  0  0
  184.8500  178.3090  139.7850 S   0  0  0  0  0  0  0  0  0  0  0  0
  183.3440  178.5730  141.7760 C   0  0  0  0  0  0  0  0  0  0  0  0
  182.1720  178.5880  142.7000 C   0  0  0  0  0  1  0  0  0  0  0  0
  185.5540  178.9790  141.1540 C   0  0  0  0  0  0  0  0  0  0  0  0
  180.0800  177.4940  138.7220 C   0  0  0  0  0  0  0  0  0  0  0  0
  181.0730  178.2330  139.4710 C   0  0  0  0  0  3  0  0  0  0  0  0
  182.1340  175.8490  139.0610 S   0  0  0  0  0  0  0  0  0  0  0  0
  182.1630  177.5250  139.7160 C   0  0  0  0  0  0  0  0  0  0  0  0
  178.9880  178.0110  138.3680 O   0  0  0  0  0  0  0  0  0  0  0  0
  180.4590  176.1000  138.3750 C   0  0  1  0  0  3  0  0  0  0  0  0
  180.0380  173.8120  138.9520 O   0  0  0  0  0  0  0  0  0  0  0  0
  179.4920  175.1090  139.0220 C   0  0  2  0  0  3  0  0  0  0  0  0
  178.9310  174.0570  138.1200 C   0  0  1  0  0  3  0  0  0  0  0  0
  179.3870  174.1180  136.6640 C   0  0  0  0  0  2  0  0  0  0  0  0
  181.2700  173.4440  135.4520 C   0  0  0  0  0  1  0  0  0  0  0  0
  180.2360  172.9800  136.3620 N   0  0  0  0  0  2  0  0  0  0  0  0
  186.9170  179.3840  141.2690 N   0  0  0  0  0  2  0  0  0  0  0  0
  188.7440  178.9580  139.2100 O   0  0  0  0  0  0  0  0  0  0  0  0
  189.9030  177.3000  140.3670 N   0  0  0  0  0  2  0  0  0  0  0  0
  188.8600  178.2650  140.2570 C   0  0  0  0  0  0  0  0  0  0  0  0
  187.9490  178.4400  141.3390 N   0  0  0  0  0  2  0  0  0  0  0  0
  190.8200  177.1040  139.3240 N   0  0  0  0  0  2  0  0  0  0  0  0
  190.3220  174.0400  137.4880 O   0  0  0  0  0  0  0  0  0  0  0  0
  190.7900  175.7400  139.0020 N   0  0  0  0  0  2  0  0  0  0  0  0
  190.3130  175.2720  137.7380 C   0  0  0  0  0  0  0  0  0  0  0  0
  189.7910  176.2230  136.7140 C   0  0  0  0  0  1  0  0  0  0  0  0
  184.9120  179.6020  143.5230 C   0  0  0  0  0  2  0  0  0  0  0  0
  185.3350  178.4700  144.4380 C   0  0  0  0  0  2  0  0  0  0  0  0
  184.6430  178.6150  145.7760 C   0  0  0  0  0  2  0  0  0  0  0  0
  185.8870  178.6820  147.0910 S   0  0  0  0  0  0  0  0  0  0  0  0
  187.0470  177.7710  146.1250 N   0  0  0  0  0  2  0  0  0  0  0  0
  188.2300  177.5950  146.9480 C   0  0  0  0  0  2  0  0  0  0  0  0
  191.6820  176.5130  145.8710 C   0  0  0  0  0  3  0  0  0  0  0  0
  191.5080  176.4270  144.4880 C   0  0  0  0  0  3  0  0  0  0  0  0
  190.6120  176.8890  146.6840 C   0  0  0  0  0  3  0  0  0  0  0  0
  190.2590  176.7250  143.9380 C   0  0  0  0  0  3  0  0  0  0  0  0
  189.3750  177.1710  146.0980 C   0  0  0  0  0  0  0  0  0  0  0  0
  189.2270  177.0900  144.7470 N   0  0  0  0  0  0  0  0  0  0  0  0
  1 29  1  0  0  0  0
  2  4  2  0  0  0  0
  3  2  1  0  0  0  0
  3  6  1  0  0  0  0
  4  1  1  0  0  0  0
  4  5  1  0  0  0  0
  6 19  1  0  0  0  0
  6  1  2  0  0  0  0
  7  8  1  0  0  0  0
  8 10  2  0  0  0  0
  9 10  1  0  0  0  0
 10  2  1  0  0  0  0
 11  7  2  0  0  0  0
 12  7  1  1  0  0  0
 12 14  1  0  0  0  0
 12  9  1  0  0  0  0
 14 13  1  1  0  0  0
 15 16  1  6  0  0  0
 15 13  1  0  0  0  0
 15 14  1  0  0  0  0
 17 18  1  0  0  0  0
 18 16  1  0  0  0  0
 19 23  1  0  0  0  0
 20 22  2  0  0  0  0
 22 21  1  0  0  0  0
 22 23  1  0  0  0  0
 24 21  1  0  0  0  0
 25 27  2  0  0  0  0
 26 24  1  0  0  0  0
 27 26  1  0  0  0  0
 28 27  1  0  0  0  0
 29 30  1  0  0  0  0
 30 31  1  0  0  0  0
 31 32  1  0  0  0  0
 33 34  1  0  0  0  0
 33 32  1  0  0  0  0
 35 37  1  0  0  0  0
 36 35  2  0  0  0  0
 38 36  1  0  0  0  0
 38 40  2  0  0  0  0
 39 37  2  0  0  0  0
 39 34  1  0  0  0  0
 40 39  1  0  0  0  0
M  END
>  <MODEL>
5

>  <REMARK>
 VINA RESULT:      -7.0      3.800      9.375
  Name = 
  15 active torsions:
  status: ('A' for Active; 'I' for Inactive)
    1  A    between atoms: C_1  and  C_12
    2  A    between atoms: C_1  and  C_24
    3  A    between atoms: N_3  and  N_17
    4  A    between atoms: N_3  and  N_34
    5  A    between atoms: N_5  and  S_33
    6  A    between atoms: N_5  and  C_40
    7  A    between atoms: C_6  and  C_24
    8  A    between atoms: C_7  and  C_30
    9  A    between atoms: N_10  and  C_15
   10  A    between atoms: C_12  and  S_33
   11  A    between atoms: N_14  and  C_31
   12  A    between atoms: N_14  and  N_37
   13  A    between atoms: C_15  and  C_32
   14  A    between atoms: C_20  and  C_39
   15  A    between atoms: C_21  and  C_40
                            x       y       z     vdW  Elec       q    Type
                         _______ _______ _______ _____ _____    ______ ____

>  <TORSDO>
F 15

$$$$
=
 OpenBabel11042413043D

 40 43  0  0  1  0  0  0  0  0999 V2000
  188.9010  177.9790  139.7350 C   0  0  0  0  0  0  0  0  0  0  0  0
  190.3410  176.6840  138.4030 C   0  0  0  0  0  0  0  0  0  0  0  0
  189.0340  177.0720  137.4020 S   0  0  0  0  0  0  0  0  0  0  0  0
  190.1130  177.2660  139.6600 C   0  0  0  0  0  0  0  0  0  0  0  0
  191.0280  177.1340  140.8310 C   0  0  0  0  0  1  0  0  0  0  0  0
  188.1910  177.9690  138.5430 C   0  0  0  0  0  0  0  0  0  0  0  0
  192.5770  174.0580  137.0240 C   0  0  0  0  0  0  0  0  0  0  0  0
  191.3280  174.6860  137.3950 C   0  0  0  0  0  3  0  0  0  0  0  0
  193.2130  176.3840  138.1300 S   0  0  0  0  0  0  0  0  0  0  0  0
  191.4970  175.8670  137.9670 C   0  0  0  0  0  0  0  0  0  0  0  0
  192.6190  172.9430  136.4420 O   0  0  0  0  0  0  0  0  0  0  0  0
  193.7980  174.8390  137.3510 C   0  0  1  0  0  3  0  0  0  0  0  0
  195.7100  174.9100  138.7950 O   0  0  0  0  0  0  0  0  0  0  0  0
  194.6730  174.0710  138.3420 C   0  0  2  0  0  3  0  0  0  0  0  0
  196.0980  173.8660  137.9360 C   0  0  1  0  0  3  0  0  0  0  0  0
  196.4890  174.4390  136.5770 C   0  0  0  0  0  2  0  0  0  0  0  0
  198.8270  174.5020  136.6320 C   0  0  0  0  0  1  0  0  0  0  0  0
  197.6320  175.3240  136.7220 N   0  0  0  0  0  2  0  0  0  0  0  0
  186.9430  178.6260  138.3240 N   0  0  0  0  0  2  0  0  0  0  0  0
  185.5130  177.3300  136.3160 O   0  0  0  0  0  0  0  0  0  0  0  0
  183.8120  176.6420  137.7510 N   0  0  0  0  0  2  0  0  0  0  0  0
  185.0400  177.3140  137.4840 C   0  0  0  0  0  0  0  0  0  0  0  0
  185.7300  177.9650  138.5480 N   0  0  0  0  0  2  0  0  0  0  0  0
  183.1090  175.9870  136.7300 N   0  0  0  0  0  2  0  0  0  0  0  0
  181.9820  172.5950  137.2190 O   0  0  0  0  0  0  0  0  0  0  0  0
  182.5080  174.8570  137.3050 N   0  0  0  0  0  2  0  0  0  0  0  0
  182.5190  173.5830  136.6560 C   0  0  0  0  0  0  0  0  0  0  0  0
  183.1460  173.4090  135.3140 C   0  0  0  0  0  1  0  0  0  0  0  0
  188.4380  178.7110  140.9530 C   0  0  0  0  0  2  0  0  0  0  0  0
  187.4810  177.8420  141.7450 C   0  0  0  0  0  2  0  0  0  0  0  0
  186.2810  178.6640  142.1630 C   0  0  0  0  0  2  0  0  0  0  0  0
  185.7060  178.1020  143.7860 S   0  0  0  0  0  0  0  0  0  0  0  0
  187.2620  177.3580  144.1490 N   0  0  0  0  0  2  0  0  0  0  0  0
  187.6410  177.8080  145.4770 C   0  0  0  0  0  2  0  0  0  0  0  0
  191.2940  177.0090  144.9640 C   0  0  0  0  0  3  0  0  0  0  0  0
  191.6780  176.6950  146.2700 C   0  0  0  0  0  3  0  0  0  0  0  0
  189.9760  177.3800  144.6970 C   0  0  0  0  0  3  0  0  0  0  0  0
  190.7280  176.7540  147.2920 C   0  0  0  0  0  3  0  0  0  0  0  0
  189.0560  177.4360  145.7480 C   0  0  0  0  0  0  0  0  0  0  0  0
  189.4460  177.1190  147.0130 N   0  0  0  0  0  0  0  0  0  0  0  0
  1 29  1  0  0  0  0
  2  4  2  0  0  0  0
  3  2  1  0  0  0  0
  3  6  1  0  0  0  0
  4  1  1  0  0  0  0
  4  5  1  0  0  0  0
  6  1  2  0  0  0  0
  7  8  1  0  0  0  0
  8 10  2  0  0  0  0
 10  9  1  0  0  0  0
 10  2  1  0  0  0  0
 11  7  2  0  0  0  0
 12  7  1  1  0  0  0
 12  9  1  0  0  0  0
 12 14  1  0  0  0  0
 14 13  1  1  0  0  0
 15 16  1  6  0  0  0
 15 14  1  0  0  0  0
 15 13  1  0  0  0  0
 16 18  1  0  0  0  0
 17 18  1  0  0  0  0
 19  6  1  0  0  0  0
 19 23  1  0  0  0  0
 20 22  2  0  0  0  0
 22 21  1  0  0  0  0
 22 23  1  0  0  0  0
 24 26  1  0  0  0  0
 24 21  1  0  0  0  0
 27 25  2  0  0  0  0
 27 26  1  0  0  0  0
 28 27  1  0  0  0  0
 29 30  1  0  0  0  0
 30 31  1  0  0  0  0
 31 32  1  0  0  0  0
 32 33  1  0  0  0  0
 33 34  1  0  0  0  0
 34 39  1  0  0  0  0
 35 36  1  0  0  0  0
 36 38  2  0  0  0  0
 37 35  2  0  0  0  0
 37 39  1  0  0  0  0
 39 40  2  0  0  0  0
 40 38  1  0  0  0  0
M  END
>  <MODEL>
6

>  <REMARK>
 VINA RESULT:      -6.7      2.289      2.809
  Name = 
  15 active torsions:
  status: ('A' for Active; 'I' for Inactive)
    1  A    between atoms: C_1  and  C_12
    2  A    between atoms: C_1  and  C_24
    3  A    between atoms: N_3  and  N_17
    4  A    between atoms: N_3  and  N_34
    5  A    between atoms: N_5  and  S_33
    6  A    between atoms: N_5  and  C_40
    7  A    between atoms: C_6  and  C_24
    8  A    between atoms: C_7  and  C_30
    9  A    between atoms: N_10  and  C_15
   10  A    between atoms: C_12  and  S_33
   11  A    between atoms: N_14  and  C_31
   12  A    between atoms: N_14  and  N_37
   13  A    between atoms: C_15  and  C_32
   14  A    between atoms: C_20  and  C_39
   15  A    between atoms: C_21  and  C_40
                            x       y       z     vdW  Elec       q    Type
                         _______ _______ _______ _____ _____    ______ ____

>  <TORSDO>
F 15

$$$$
=
 OpenBabel11042413043D

 40 43  0  0  1  0  0  0  0  0999 V2000
  188.7940  177.8540  139.2030 C   0  0  0  0  0  0  0  0  0  0  0  0
  190.1620  176.5320  137.8220 C   0  0  0  0  0  0  0  0  0  0  0  0
  188.7800  176.8590  136.9020 S   0  0  0  0  0  0  0  0  0  0  0  0
  190.0110  177.1580  139.0700 C   0  0  0  0  0  0  0  0  0  0  0  0
  191.0080  177.0870  140.1780 C   0  0  0  0  0  1  0  0  0  0  0  0
  188.0030  177.7850  138.0660 C   0  0  0  0  0  0  0  0  0  0  0  0
  192.3680  173.8380  136.5310 C   0  0  0  0  0  0  0  0  0  0  0  0
  191.1440  174.4490  136.9990 C   0  0  0  0  0  3  0  0  0  0  0  0
  192.9710  176.3520  137.1250 S   0  0  0  0  0  0  0  0  0  0  0  0
  191.3000  175.7180  137.3370 C   0  0  0  0  0  0  0  0  0  0  0  0
  192.4120  172.6430  136.1360 O   0  0  0  0  0  0  0  0  0  0  0  0
  193.5560  174.7310  136.5190 C   0  0  1  0  0  3  0  0  0  0  0  0
  195.4750  175.2560  137.8560 O   0  0  0  0  0  0  0  0  0  0  0  0
  194.6350  174.1960  137.4600 C   0  0  2  0  0  3  0  0  0  0  0  0
  196.0450  174.3170  136.9760 C   0  0  1  0  0  3  0  0  0  0  0  0
  196.2220  174.9470  135.5980 C   0  0  0  0  0  2  0  0  0  0  0  0
  196.3230  177.1980  134.9700 C   0  0  0  0  0  1  0  0  0  0  0  0
  197.0210  176.1560  135.7030 N   0  0  0  0  0  2  0  0  0  0  0  0
  186.7300  178.4120  137.9110 N   0  0  0  0  0  2  0  0  0  0  0  0
  184.9300  179.7510  139.5620 O   0  0  0  0  0  0  0  0  0  0  0  0
  183.4970  177.9230  139.7510 N   0  0  0  0  0  2  0  0  0  0  0  0
  184.6770  178.5540  139.2590 C   0  0  0  0  0  0  0  0  0  0  0  0
  185.5670  177.8210  138.4200 N   0  0  0  0  0  2  0  0  0  0  0  0
  182.5970  178.6140  140.5740 N   0  0  0  0  0  2  0  0  0  0  0  0
  179.3810  177.3430  141.6020 O   0  0  0  0  0  0  0  0  0  0  0  0
  181.4050  177.8740  140.5910 N   0  0  0  0  0  2  0  0  0  0  0  0
  180.4430  178.0150  141.6400 C   0  0  0  0  0  0  0  0  0  0  0  0
  180.6850  178.9400  142.7850 C   0  0  0  0  0  1  0  0  0  0  0  0
  188.4020  178.6240  140.4230 C   0  0  0  0  0  2  0  0  0  0  0  0
  187.9590  177.6710  141.5150 C   0  0  0  0  0  2  0  0  0  0  0  0
  188.6560  178.0280  142.8100 C   0  0  0  0  0  2  0  0  0  0  0  0
  189.5600  176.5820  143.4230 S   0  0  0  0  0  0  0  0  0  0  0  0
  190.4100  177.5470  144.6300 N   0  0  0  0  0  2  0  0  0  0  0  0
  190.3390  176.8100  145.8790 C   0  0  0  0  0  2  0  0  0  0  0  0
  188.4850  178.2350  148.8420 C   0  0  0  0  0  3  0  0  0  0  0  0
  187.2000  178.3630  148.3090 C   0  0  0  0  0  3  0  0  0  0  0  0
  189.5200  177.7330  148.0510 C   0  0  0  0  0  3  0  0  0  0  0  0
  186.9700  177.9780  146.9860 C   0  0  0  0  0  3  0  0  0  0  0  0
  189.2520  177.3680  146.7290 C   0  0  0  0  0  0  0  0  0  0  0  0
  187.9910  177.4910  146.2290 N   0  0  0  0  0  0  0  0  0  0  0  0
  1 29  1  0  0  0  0
  2  4  2  0  0  0  0
  3  2  1  0  0  0  0
  3  6  1  0  0  0  0
  4  1  1  0  0  0  0
  4  5  1  0  0  0  0
  6  1  2  0  0  0  0
  7  8  1  0  0  0  0
  8 10  2  0  0  0  0
  9 10  1  0  0  0  0
 10  2  1  0  0  0  0
 11  7  2  0  0  0  0
 12  7  1  1  0  0  0
 12  9  1  0  0  0  0
 12 14  1  0  0  0  0
 14 13  1  1  0  0  0
 15 16  1  6  0  0  0
 15 14  1  0  0  0  0
 15 13  1  0  0  0  0
 16 18  1  0  0  0  0
 17 18  1  0  0  0  0
 19  6  1  0  0  0  0
 19 23  1  0  0  0  0
 21 24  1  0  0  0  0
 22 20  2  0  0  0  0
 22 21  1  0  0  0  0
 23 22  1  0  0  0  0
 24 26  1  0  0  0  0
 25 27  2  0  0  0  0
 26 27  1  0  0  0  0
 27 28  1  0  0  0  0
 29 30  1  0  0  0  0
 30 31  1  0  0  0  0
 31 32  1  0  0  0  0
 32 33  1  0  0  0  0
 33 34  1  0  0  0  0
 34 39  1  0  0  0  0
 36 35  1  0  0  0  0
 37 35  2  0  0  0  0
 38 36  2  0  0  0  0
 39 37  1  0  0  0  0
 40 39  2  0  0  0  0
 40 38  1  0  0  0  0
M  END
>  <MODEL>
7

>  <REMARK>
 VINA RESULT:      -6.6      1.481      2.027
  Name = 
  15 active torsions:
  status: ('A' for Active; 'I' for Inactive)
    1  A    between atoms: C_1  and  C_12
    2  A    between atoms: C_1  and  C_24
    3  A    between atoms: N_3  and  N_17
    4  A    between atoms: N_3  and  N_34
    5  A    between atoms: N_5  and  S_33
    6  A    between atoms: N_5  and  C_40
    7  A    between atoms: C_6  and  C_24
    8  A    between atoms: C_7  and  C_30
    9  A    between atoms: N_10  and  C_15
   10  A    between atoms: C_12  and  S_33
   11  A    between atoms: N_14  and  C_31
   12  A    between atoms: N_14  and  N_37
   13  A    between atoms: C_15  and  C_32
   14  A    between atoms: C_20  and  C_39
   15  A    between atoms: C_21  and  C_40
                            x       y       z     vdW  Elec       q    Type
                         _______ _______ _______ _____ _____    ______ ____

>  <TORSDO>
F 15

$$$$
=
 OpenBabel11042413043D

 40 43  0  0  1  0  0  0  0  0999 V2000
  188.7320  177.9330  139.7530 C   0  0  0  0  0  0  0  0  0  0  0  0
  190.1530  176.6710  138.3700 C   0  0  0  0  0  0  0  0  0  0  0  0
  188.8570  177.1270  137.3830 S   0  0  0  0  0  0  0  0  0  0  0  0
  189.9310  177.2010  139.6510 C   0  0  0  0  0  0  0  0  0  0  0  0
  190.8390  177.0010  140.8180 C   0  0  0  0  0  1  0  0  0  0  0  0
  188.0270  177.9890  138.5600 C   0  0  0  0  0  0  0  0  0  0  0  0
  192.3480  174.0300  136.9550 C   0  0  0  0  0  0  0  0  0  0  0  0
  191.1120  174.6570  137.3660 C   0  0  0  0  0  3  0  0  0  0  0  0
  193.0120  176.3870  137.9760 S   0  0  0  0  0  0  0  0  0  0  0  0
  191.2960  175.8520  137.9020 C   0  0  0  0  0  0  0  0  0  0  0  0
  192.3740  172.9010  136.3970 O   0  0  0  0  0  0  0  0  0  0  0  0
  193.5760  174.8280  137.2090 C   0  0  1  0  0  3  0  0  0  0  0  0
  195.4400  174.9970  138.7060 O   0  0  0  0  0  0  0  0  0  0  0  0
  194.5000  174.0900  138.1770 C   0  0  2  0  0  3  0  0  0  0  0  0
  195.9470  174.0480  137.7990 C   0  0  1  0  0  3  0  0  0  0  0  0
  196.3090  174.7370  136.4860 C   0  0  0  0  0  2  0  0  0  0  0  0
  198.6320  174.4870  136.5950 C   0  0  0  0  0  1  0  0  0  0  0  0
  197.5580  175.4640  136.6350 N   0  0  0  0  0  2  0  0  0  0  0  0
  186.7930  178.6780  138.3660 N   0  0  0  0  0  2  0  0  0  0  0  0
  184.1820  179.4900  138.8970 O   0  0  0  0  0  0  0  0  0  0  0  0
  183.2240  177.7780  137.6400 N   0  0  0  0  0  2  0  0  0  0  0  0
  184.3490  178.4740  138.1700 C   0  0  0  0  0  0  0  0  0  0  0  0
  185.6640  178.0130  137.8700 N   0  0  0  0  0  2  0  0  0  0  0  0
  181.9160  178.2050  137.9090 N   0  0  0  0  0  2  0  0  0  0  0  0
  180.3210  176.0930  140.3600 O   0  0  0  0  0  0  0  0  0  0  0  0
  181.2410  177.1220  138.4900 N   0  0  0  0  0  2  0  0  0  0  0  0
  180.9440  177.0780  139.8880 C   0  0  0  0  0  0  0  0  0  0  0  0
  181.3730  178.1770  140.8000 C   0  0  0  0  0  1  0  0  0  0  0  0
  188.2780  178.6190  141.0010 C   0  0  0  0  0  2  0  0  0  0  0  0
  187.0630  177.9110  141.5660 C   0  0  0  0  0  2  0  0  0  0  0  0
  187.0040  178.1260  143.0630 C   0  0  0  0  0  2  0  0  0  0  0  0
  185.2760  178.3090  143.5760 S   0  0  0  0  0  0  0  0  0  0  0  0
  185.7440  179.0180  145.1210 N   0  0  0  0  0  2  0  0  0  0  0  0
  185.7370  177.9420  146.0940 C   0  0  0  0  0  2  0  0  0  0  0  0
  189.4050  177.2440  146.6530 C   0  0  0  0  0  3  0  0  0  0  0  0
  189.5430  177.6280  147.9880 C   0  0  0  0  0  3  0  0  0  0  0  0
  188.1630  177.3490  146.0230 C   0  0  0  0  0  3  0  0  0  0  0  0
  188.4270  178.1100  148.6780 C   0  0  0  0  0  3  0  0  0  0  0  0
  187.0730  177.8440  146.7430 C   0  0  0  0  0  0  0  0  0  0  0  0
  187.2240  178.2050  148.0470 N   0  0  0  0  0  0  0  0  0  0  0  0
  1 29  1  0  0  0  0
  2  4  2  0  0  0  0
  3  2  1  0  0  0  0
  3  6  1  0  0  0  0
  4  1  1  0  0  0  0
  4  5  1  0  0  0  0
  6  1  2  0  0  0  0
  7  8  1  0  0  0  0
  8 10  2  0  0  0  0
 10  9  1  0  0  0  0
 10  2  1  0  0  0  0
 11  7  2  0  0  0  0
 12  7  1  1  0  0  0
 12  9  1  0  0  0  0
 12 14  1  0  0  0  0
 14 13  1  1  0  0  0
 15 16  1  6  0  0  0
 15 14  1  0  0  0  0
 15 13  1  0  0  0  0
 16 18  1  0  0  0  0
 17 18  1  0  0  0  0
 19  6  1  0  0  0  0
 21 24  1  0  0  0  0
 21 22  1  0  0  0  0
 22 20  2  0  0  0  0
 23 22  1  0  0  0  0
 23 19  1  0  0  0  0
 24 26  1  0  0  0  0
 26 27  1  0  0  0  0
 27 25  2  0  0  0  0
 27 28  1  0  0  0  0
 29 30  1  0  0  0  0
 30 31  1  0  0  0  0
 31 32  1  0  0  0  0
 32 33  1  0  0  0  0
 33 34  1  0  0  0  0
 34 39  1  0  0  0  0
 35 36  1  0  0  0  0
 36 38  2  0  0  0  0
 37 35  2  0  0  0  0
 37 39  1  0  0  0  0
 39 40  2  0  0  0  0
 40 38  1  0  0  0  0
M  END
>  <MODEL>
8

>  <REMARK>
 VINA RESULT:      -6.5      1.499      1.711
  Name = 
  15 active torsions:
  status: ('A' for Active; 'I' for Inactive)
    1  A    between atoms: C_1  and  C_12
    2  A    between atoms: C_1  and  C_24
    3  A    between atoms: N_3  and  N_17
    4  A    between atoms: N_3  and  N_34
    5  A    between atoms: N_5  and  S_33
    6  A    between atoms: N_5  and  C_40
    7  A    between atoms: C_6  and  C_24
    8  A    between atoms: C_7  and  C_30
    9  A    between atoms: N_10  and  C_15
   10  A    between atoms: C_12  and  S_33
   11  A    between atoms: N_14  and  C_31
   12  A    between atoms: N_14  and  N_37
   13  A    between atoms: C_15  and  C_32
   14  A    between atoms: C_20  and  C_39
   15  A    between atoms: C_21  and  C_40
                            x       y       z     vdW  Elec       q    Type
                         _______ _______ _______ _____ _____    ______ ____

>  <TORSDO>
F 15

$$$$
=
 OpenBabel11042413043D

 40 43  0  0  1  0  0  0  0  0999 V2000
  189.0670  177.8720  138.7600 C   0  0  0  0  0  0  0  0  0  0  0  0
  190.2790  176.3340  137.4600 C   0  0  0  0  0  0  0  0  0  0  0  0
  188.8560  176.6290  136.5930 S   0  0  0  0  0  0  0  0  0  0  0  0
  190.2390  177.1030  138.6340 C   0  0  0  0  0  0  0  0  0  0  0  0
  191.3030  177.1030  139.6810 C   0  0  0  0  0  1  0  0  0  0  0  0
  188.2000  177.7190  137.6880 C   0  0  0  0  0  0  0  0  0  0  0  0
  192.2420  173.4380  136.2140 C   0  0  0  0  0  0  0  0  0  0  0  0
  191.0710  174.1670  136.6470 C   0  0  0  0  0  3  0  0  0  0  0  0
  193.0770  175.8730  136.8540 S   0  0  0  0  0  0  0  0  0  0  0  0
  191.3440  175.4110  137.0040 C   0  0  0  0  0  0  0  0  0  0  0  0
  192.1770  172.2470  135.8090 O   0  0  0  0  0  0  0  0  0  0  0  0
  193.5140  174.2050  136.2500 C   0  0  1  0  0  3  0  0  0  0  0  0
  195.3790  174.5380  137.7190 O   0  0  0  0  0  0  0  0  0  0  0  0
  194.5010  173.5550  137.2210 C   0  0  2  0  0  3  0  0  0  0  0  0
  195.9410  173.6090  136.8240 C   0  0  1  0  0  3  0  0  0  0  0  0
  196.2380  174.2940  135.4930 C   0  0  0  0  0  2  0  0  0  0  0  0
  196.3970  176.5640  134.9500 C   0  0  0  0  0  1  0  0  0  0  0  0
  197.0190  175.4990  135.7180 N   0  0  0  0  0  2  0  0  0  0  0  0
  186.9500  178.3920  137.5380 N   0  0  0  0  0  2  0  0  0  0  0  0
  185.0530  179.6230  139.1640 O   0  0  0  0  0  0  0  0  0  0  0  0
  183.5960  177.8050  139.1130 N   0  0  0  0  0  2  0  0  0  0  0  0
  184.8110  178.4570  138.7520 C   0  0  0  0  0  0  0  0  0  0  0  0
  185.7500  177.7790  137.9200 N   0  0  0  0  0  2  0  0  0  0  0  0
  182.6470  178.4430  139.9240 N   0  0  0  0  0  2  0  0  0  0  0  0
  179.9510  179.6430  137.8510 O   0  0  0  0  0  0  0  0  0  0  0  0
  181.4480  178.4850  139.1990 N   0  0  0  0  0  2  0  0  0  0  0  0
  181.0260  179.6600  138.5020 C   0  0  0  0  0  0  0  0  0  0  0  0
  181.8360  180.9110  138.5450 C   0  0  0  0  0  1  0  0  0  0  0  0
  188.7920  178.7940  139.9040 C   0  0  0  0  0  2  0  0  0  0  0  0
  188.0910  178.0410  141.0170 C   0  0  0  0  0  2  0  0  0  0  0  0
  188.9350  178.0940  142.2720 C   0  0  0  0  0  2  0  0  0  0  0  0
  189.3010  176.4070  142.8210 S   0  0  0  0  0  0  0  0  0  0  0  0
  187.7250  176.2510  143.5970 N   0  0  0  0  0  2  0  0  0  0  0  0
  187.7400  177.1300  144.7520 C   0  0  0  0  0  2  0  0  0  0  0  0
  184.3990  178.7170  144.0000 C   0  0  0  0  0  3  0  0  0  0  0  0
  183.9130  178.9280  145.2930 C   0  0  0  0  0  3  0  0  0  0  0  0
  185.6480  178.1240  143.8140 C   0  0  0  0  0  3  0  0  0  0  0  0
  184.6950  178.5430  146.3850 C   0  0  0  0  0  3  0  0  0  0  0  0
  186.3960  177.7440  144.9320 C   0  0  0  0  0  0  0  0  0  0  0  0
  185.9110  177.9650  146.1850 N   0  0  0  0  0  0  0  0  0  0  0  0
  1 29  1  0  0  0  0
  2  4  2  0  0  0  0
  3  2  1  0  0  0  0
  3  6  1  0  0  0  0
  4  1  1  0  0  0  0
  4  5  1  0  0  0  0
  6  1  2  0  0  0  0
  7  8  1  0  0  0  0
  8 10  2  0  0  0  0
  9 10  1  0  0  0  0
 10  2  1  0  0  0  0
 11  7  2  0  0  0  0
 12  7  1  1  0  0  0
 12  9  1  0  0  0  0
 12 14  1  0  0  0  0
 14 13  1  1  0  0  0
 15 16  1  6  0  0  0
 15 14  1  0  0  0  0
 15 13  1  0  0  0  0
 16 18  1  0  0  0  0
 17 18  1  0  0  0  0
 19  6  1  0  0  0  0
 19 23  1  0  0  0  0
 21 24  1  0  0  0  0
 22 21  1  0  0  0  0
 22 20  2  0  0  0  0
 23 22  1  0  0  0  0
 25 27  2  0  0  0  0
 26 24  1  0  0  0  0
 27 28  1  0  0  0  0
 27 26  1  0  0  0  0
 29 30  1  0  0  0  0
 30 31  1  0  0  0  0
 31 32  1  0  0  0  0
 32 33  1  0  0  0  0
 33 34  1  0  0  0  0
 34 39  1  0  0  0  0
 35 36  1  0  0  0  0
 36 38  2  0  0  0  0
 37 35  2  0  0  0  0
 37 39  1  0  0  0  0
 39 40  2  0  0  0  0
 40 38  1  0  0  0  0
M  END
>  <MODEL>
9

>  <REMARK>
 VINA RESULT:      -6.5      2.152      2.908
  Name = 
  15 active torsions:
  status: ('A' for Active; 'I' for Inactive)
    1  A    between atoms: C_1  and  C_12
    2  A    between atoms: C_1  and  C_24
    3  A    between atoms: N_3  and  N_17
    4  A    between atoms: N_3  and  N_34
    5  A    between atoms: N_5  and  S_33
    6  A    between atoms: N_5  and  C_40
    7  A    between atoms: C_6  and  C_24
    8  A    between atoms: C_7  and  C_30
    9  A    between atoms: N_10  and  C_15
   10  A    between atoms: C_12  and  S_33
   11  A    between atoms: N_14  and  C_31
   12  A    between atoms: N_14  and  N_37
   13  A    between atoms: C_15  and  C_32
   14  A    between atoms: C_20  and  C_39
   15  A    between atoms: C_21  and  C_40
                            x       y       z     vdW  Elec       q    Type
                         _______ _______ _______ _____ _____    ______ ____

>  <TORSDO>
F 15

$$$$
