=
 OpenBabel11042411223D

 25 27  0  0  1  0  0  0  0  0999 V2000
  188.2620  177.5500  144.6260 C   0  0  0  0  0  0  0  0  0  0  0  0
  189.4930  177.3240  146.7170 C   0  0  0  0  0  3  0  0  0  0  0  0
  188.3860  177.7050  148.8210 O   0  0  0  0  0  1  0  0  0  0  0  0
  188.3460  177.6540  147.4350 C   0  0  0  0  0  0  0  0  0  0  0  0
  189.4480  177.2680  145.3240 C   0  0  0  0  0  3  0  0  0  0  0  0
  187.0940  177.8960  145.3560 C   0  0  0  0  0  0  0  0  0  0  0  0
  187.1590  177.9360  146.7600 C   0  0  0  0  0  3  0  0  0  0  0  0
  188.2130  177.4350  143.1940 N   0  0  0  0  0  2  0  0  0  0  0  0
  191.4170  177.2500  140.4180 C   0  0  0  0  0  0  0  0  0  0  0  0
  190.5310  177.6060  142.6780 N   0  0  0  0  0  0  0  0  0  0  0  0
  190.2110  177.0640  139.9760 N   0  0  0  0  0  0  0  0  0  0  0  0
  191.6190  177.5710  141.7930 N   0  0  0  0  0  2  0  0  0  0  0  0
  189.3120  177.4160  142.2690 C   0  0  0  0  0  0  0  0  0  0  0  0
  189.0100  177.2210  140.8010 C   0  0  1  0  0  3  0  0  0  0  0  0
  188.1940  178.3890  140.2800 C   0  0  0  0  0  1  0  0  0  0  0  0
  192.5690  177.1080  139.5210 C   0  0  0  0  0  0  0  0  0  0  0  0
  193.7310  177.3800  139.9260 O   0  0  0  0  0  1  0  0  0  0  0  0
  192.3850  176.6700  138.2150 O   0  0  0  0  0  0  0  0  0  0  0  0
  183.3500  178.8990  143.4880 C   0  0  0  0  0  0  0  0  0  0  0  0
  184.4110  178.4310  142.7090 C   0  0  0  0  0  3  0  0  0  0  0  0
  184.7240  178.7050  145.4700 C   0  0  0  0  0  3  0  0  0  0  0  0
  183.5080  179.0380  144.8680 C   0  0  0  0  0  3  0  0  0  0  0  0
  185.7970  178.2220  144.7020 C   0  0  0  0  0  0  0  0  0  0  0  0
  182.1720  179.2210  142.9030 F   0  0  0  0  0  0  0  0  0  0  0  0
  185.6260  178.0980  143.3120 C   0  0  0  0  0  3  0  0  0  0  0  0
  1  5  2  0  0  0  0
  1  6  1  0  0  0  0
  2  4  2  0  0  0  0
  4  3  1  0  0  0  0
  5  2  1  0  0  0  0
  6  7  2  0  0  0  0
  7  4  1  0  0  0  0
  8  1  1  0  0  0  0
  9 12  1  0  0  0  0
 11  9  2  0  0  0  0
 11 14  1  0  0  0  0
 12 10  1  0  0  0  0
 13 10  2  0  0  0  0
 13  8  1  0  0  0  0
 14 15  1  6  0  0  0
 14 13  1  0  0  0  0
 16 17  1  0  0  0  0
 16  9  1  0  0  0  0
 18 16  2  0  0  0  0
 19 22  1  0  0  0  0
 20 25  1  0  0  0  0
 20 19  2  0  0  0  0
 22 21  2  0  0  0  0
 23  6  1  0  0  0  0
 23 21  1  0  0  0  0
 24 19  1  0  0  0  0
 25 23  2  0  0  0  0
M  END
>  <MODEL>
1

>  <REMARK>
 VINA RESULT:     -10.3      0.000      0.000
  Name = 
  3 active torsions:
  status: ('A' for Active; 'I' for Inactive)
    1  A    between atoms: C_1  and  N_7
    2  A    between atoms: C_3  and  C_11
    3  A    between atoms: C_15  and  C_21
                            x       y       z     vdW  Elec       q    Type
                         _______ _______ _______ _____ _____    ______ ____

>  <TORSDO>
F 3

$$$$
=
 OpenBabel11042411223D

 25 27  0  0  1  0  0  0  0  0999 V2000
  189.7250  177.1750  144.3780 C   0  0  0  0  0  0  0  0  0  0  0  0
  191.7510  176.7220  145.6550 C   0  0  0  0  0  3  0  0  0  0  0  0
  191.7200  176.8500  148.0590 O   0  0  0  0  0  1  0  0  0  0  0  0
  191.0620  176.9580  146.8430 C   0  0  0  0  0  0  0  0  0  0  0  0
  191.0850  176.8260  144.4340 C   0  0  0  0  0  3  0  0  0  0  0  0
  189.0240  177.4240  145.5870 C   0  0  0  0  0  0  0  0  0  0  0  0
  189.7120  177.3040  146.8070 C   0  0  0  0  0  3  0  0  0  0  0  0
  189.0360  177.2250  143.1170 N   0  0  0  0  0  2  0  0  0  0  0  0
  190.6280  177.0020  139.1910 C   0  0  0  0  0  0  0  0  0  0  0  0
  190.8890  177.2010  141.6220 N   0  0  0  0  0  0  0  0  0  0  0  0
  189.3390  176.9970  139.3300 N   0  0  0  0  0  0  0  0  0  0  0  0
  191.4590  177.1470  140.3410 N   0  0  0  0  0  2  0  0  0  0  0  0
  189.6010  177.1890  141.7970 C   0  0  0  0  0  0  0  0  0  0  0  0
  188.6600  177.1910  140.6150 C   0  0  1  0  0  3  0  0  0  0  0  0
  187.8770  178.4900  140.5770 C   0  0  0  0  0  1  0  0  0  0  0  0
  191.2350  176.8370  137.8640 C   0  0  0  0  0  0  0  0  0  0  0  0
  190.5210  176.8720  136.8270 O   0  0  0  0  0  0  0  0  0  0  0  0
  192.6050  176.6410  137.7460 O   0  0  0  0  0  1  0  0  0  0  0  0
  184.8870  178.6000  145.7180 C   0  0  0  0  0  0  0  0  0  0  0  0
  185.4600  178.2110  144.5050 C   0  0  0  0  0  3  0  0  0  0  0  0
  187.0000  178.2170  146.8340 C   0  0  0  0  0  3  0  0  0  0  0  0
  185.6580  178.6060  146.8820 C   0  0  0  0  0  3  0  0  0  0  0  0
  187.5870  177.8120  145.6240 C   0  0  0  0  0  0  0  0  0  0  0  0
  183.5870  178.9760  145.7630 F   0  0  0  0  0  0  0  0  0  0  0  0
  186.8010  177.8220  144.4590 C   0  0  0  0  0  3  0  0  0  0  0  0
  1  5  2  0  0  0  0
  1  6  1  0  0  0  0
  2  4  2  0  0  0  0
  4  3  1  0  0  0  0
  5  2  1  0  0  0  0
  6 23  1  0  0  0  0
  6  7  2  0  0  0  0
  7  4  1  0  0  0  0
  8  1  1  0  0  0  0
  9 11  2  0  0  0  0
  9 12  1  0  0  0  0
 10 13  2  0  0  0  0
 11 14  1  0  0  0  0
 12 10  1  0  0  0  0
 13  8  1  0  0  0  0
 14 15  1  6  0  0  0
 14 13  1  0  0  0  0
 16  9  1  0  0  0  0
 17 16  2  0  0  0  0
 18 16  1  0  0  0  0
 19 24  1  0  0  0  0
 19 22  1  0  0  0  0
 20 19  2  0  0  0  0
 21 22  2  0  0  0  0
 23 21  1  0  0  0  0
 25 20  1  0  0  0  0
 25 23  2  0  0  0  0
M  END
>  <MODEL>
2

>  <REMARK>
 VINA RESULT:      -9.8      1.547      2.217
  Name = 
  3 active torsions:
  status: ('A' for Active; 'I' for Inactive)
    1  A    between atoms: C_1  and  N_7
    2  A    between atoms: C_3  and  C_11
    3  A    between atoms: C_15  and  C_21
                            x       y       z     vdW  Elec       q    Type
                         _______ _______ _______ _____ _____    ______ ____

>  <TORSDO>
F 3

$$$$
=
 OpenBabel11042411223D

 25 27  0  0  1  0  0  0  0  0999 V2000
  187.4200  177.9850  143.6590 C   0  0  0  0  0  0  0  0  0  0  0  0
  185.1060  178.5560  144.1650 C   0  0  0  0  0  3  0  0  0  0  0  0
  184.3250  178.5430  146.4430 O   0  0  0  0  0  1  0  0  0  0  0  0
  185.3460  178.3580  145.5220 C   0  0  0  0  0  0  0  0  0  0  0  0
  186.1360  178.3760  143.2430 C   0  0  0  0  0  3  0  0  0  0  0  0
  187.6650  177.7740  145.0410 C   0  0  0  0  0  0  0  0  0  0  0  0
  186.6150  177.9720  145.9550 C   0  0  0  0  0  3  0  0  0  0  0  0
  188.4880  177.8560  142.7050 N   0  0  0  0  0  2  0  0  0  0  0  0
  188.4030  178.4350  138.5030 C   0  0  0  0  0  0  0  0  0  0  0  0
  187.2910  178.2200  140.6790 N   0  0  0  0  0  0  0  0  0  0  0  0
  189.5510  178.2270  139.0700 N   0  0  0  0  0  0  0  0  0  0  0  0
  187.2140  178.4000  139.2900 N   0  0  0  0  0  2  0  0  0  0  0  0
  188.4270  178.0170  141.2790 C   0  0  0  0  0  0  0  0  0  0  0  0
  189.7080  177.8920  140.4880 C   0  0  1  0  0  3  0  0  0  0  0  0
  190.2580  176.4840  140.6130 C   0  0  0  0  0  1  0  0  0  0  0  0
  188.3240  178.7320  137.0680 C   0  0  0  0  0  0  0  0  0  0  0  0
  187.3890  179.4440  136.6140 O   0  0  0  0  0  1  0  0  0  0  0  0
  189.2830  178.2260  136.1990 O   0  0  0  0  0  0  0  0  0  0  0  0
  191.4640  176.4930  146.6040 C   0  0  0  0  0  0  0  0  0  0  0  0
  191.2950  176.6420  145.2250 C   0  0  0  0  0  3  0  0  0  0  0  0
  189.1710  177.1820  146.9560 C   0  0  0  0  0  3  0  0  0  0  0  0
  190.4010  176.7600  147.4690 C   0  0  0  0  0  3  0  0  0  0  0  0
  188.9890  177.3480  145.5720 C   0  0  0  0  0  0  0  0  0  0  0  0
  192.6560  176.0850  147.1000 F   0  0  0  0  0  0  0  0  0  0  0  0
  190.0650  177.0640  144.7140 C   0  0  0  0  0  3  0  0  0  0  0  0
  1  6  1  0  0  0  0
  2  4  2  0  0  0  0
  4  7  1  0  0  0  0
  4  3  1  0  0  0  0
  5  1  2  0  0  0  0
  5  2  1  0  0  0  0
  6 23  1  0  0  0  0
  6  7  2  0  0  0  0
  8  1  1  0  0  0  0
  9 11  2  0  0  0  0
  9 12  1  0  0  0  0
 10 13  2  0  0  0  0
 11 14  1  0  0  0  0
 12 10  1  0  0  0  0
 13  8  1  0  0  0  0
 14 15  1  6  0  0  0
 14 13  1  0  0  0  0
 16  9  1  0  0  0  0
 17 16  1  0  0  0  0
 18 16  2  0  0  0  0
 19 24  1  0  0  0  0
 19 22  1  0  0  0  0
 20 19  2  0  0  0  0
 21 22  2  0  0  0  0
 23 21  1  0  0  0  0
 25 20  1  0  0  0  0
 25 23  2  0  0  0  0
M  END
>  <MODEL>
3

>  <REMARK>
 VINA RESULT:      -9.7      3.271      5.078
  Name = 
  3 active torsions:
  status: ('A' for Active; 'I' for Inactive)
    1  A    between atoms: C_1  and  N_7
    2  A    between atoms: C_3  and  C_11
    3  A    between atoms: C_15  and  C_21
                            x       y       z     vdW  Elec       q    Type
                         _______ _______ _______ _____ _____    ______ ____

>  <TORSDO>
F 3

$$$$
=
 OpenBabel11042411223D

 25 27  0  0  1  0  0  0  0  0999 V2000
  185.3150  178.4100  143.1660 C   0  0  0  0  0  0  0  0  0  0  0  0
  183.0120  178.7700  142.4560 C   0  0  0  0  0  3  0  0  0  0  0  0
  181.2850  179.1430  144.0920 O   0  0  0  0  0  1  0  0  0  0  0  0
  182.6160  178.9000  143.7850 C   0  0  0  0  0  0  0  0  0  0  0  0
  184.3520  178.5320  142.1500 C   0  0  0  0  0  3  0  0  0  0  0  0
  184.9120  178.5340  144.5220 C   0  0  0  0  0  0  0  0  0  0  0  0
  183.5580  178.7840  144.8060 C   0  0  0  0  0  3  0  0  0  0  0  0
  186.7010  178.2190  142.8370 N   0  0  0  0  0  2  0  0  0  0  0  0
  188.6060  178.4490  139.0530 C   0  0  0  0  0  0  0  0  0  0  0  0
  186.6010  178.3960  140.4650 N   0  0  0  0  0  0  0  0  0  0  0  0
  189.3510  178.3060  140.1050 N   0  0  0  0  0  0  0  0  0  0  0  0
  187.1870  178.4590  139.1920 N   0  0  0  0  0  2  0  0  0  0  0  0
  187.3180  178.2610  141.5400 C   0  0  0  0  0  0  0  0  0  0  0  0
  188.8170  178.0920  141.4540 C   0  0  1  0  0  3  0  0  0  0  0  0
  189.2110  176.7080  141.9340 C   0  0  0  0  0  1  0  0  0  0  0  0
  189.2150  178.6250  137.7290 C   0  0  0  0  0  0  0  0  0  0  0  0
  189.0250  179.6850  137.0740 O   0  0  0  0  0  0  0  0  0  0  0  0
  190.0070  177.6190  137.1890 O   0  0  0  0  0  1  0  0  0  0  0  0
  187.6030  178.1520  147.8570 C   0  0  0  0  0  0  0  0  0  0  0  0
  187.8160  177.3940  146.7030 C   0  0  0  0  0  3  0  0  0  0  0  0
  185.6520  179.1540  146.8350 C   0  0  0  0  0  3  0  0  0  0  0  0
  186.5190  179.0300  147.9240 C   0  0  0  0  0  3  0  0  0  0  0  0
  185.8590  178.4070  145.6630 C   0  0  0  0  0  0  0  0  0  0  0  0
  188.4440  178.0310  148.9110 F   0  0  0  0  0  0  0  0  0  0  0  0
  186.9480  177.5200  145.6150 C   0  0  0  0  0  3  0  0  0  0  0  0
  1  6  1  0  0  0  0
  2  4  2  0  0  0  0
  4  3  1  0  0  0  0
  4  7  1  0  0  0  0
  5  2  1  0  0  0  0
  5  1  2  0  0  0  0
  6  7  2  0  0  0  0
  6 23  1  0  0  0  0
  8  1  1  0  0  0  0
  9 12  1  0  0  0  0
  9 11  2  0  0  0  0
 10 13  2  0  0  0  0
 11 14  1  0  0  0  0
 12 10  1  0  0  0  0
 13  8  1  0  0  0  0
 14 13  1  0  0  0  0
 14 15  1  6  0  0  0
 16  9  1  0  0  0  0
 17 16  2  0  0  0  0
 18 16  1  0  0  0  0
 19 22  1  0  0  0  0
 19 24  1  0  0  0  0
 20 19  2  0  0  0  0
 21 22  2  0  0  0  0
 23 21  1  0  0  0  0
 25 23  2  0  0  0  0
 25 20  1  0  0  0  0
M  END
>  <MODEL>
4

>  <REMARK>
 VINA RESULT:      -9.5      3.136      4.766
  Name = 
  3 active torsions:
  status: ('A' for Active; 'I' for Inactive)
    1  A    between atoms: C_1  and  N_7
    2  A    between atoms: C_3  and  C_11
    3  A    between atoms: C_15  and  C_21
                            x       y       z     vdW  Elec       q    Type
                         _______ _______ _______ _____ _____    ______ ____

>  <TORSDO>
F 3

$$$$
=
 OpenBabel11042411223D

 25 27  0  0  1  0  0  0  0  0999 V2000
  188.1750  177.7030  142.5840 C   0  0  0  0  0  0  0  0  0  0  0  0
  189.9970  177.5200  140.9760 C   0  0  0  0  0  3  0  0  0  0  0  0
  192.2620  177.2300  141.7410 O   0  0  0  0  0  1  0  0  0  0  0  0
  190.9120  177.3870  142.0180 C   0  0  0  0  0  0  0  0  0  0  0  0
  188.6400  177.6720  141.2590 C   0  0  0  0  0  3  0  0  0  0  0  0
  189.1070  177.5770  143.6480 C   0  0  0  0  0  0  0  0  0  0  0  0
  190.4700  177.4140  143.3400 C   0  0  0  0  0  3  0  0  0  0  0  0
  186.7690  177.8050  142.8620 N   0  0  0  0  0  2  0  0  0  0  0  0
  183.6430  179.1960  140.3530 C   0  0  0  0  0  0  0  0  0  0  0  0
  186.0190  178.8600  140.8640 N   0  0  0  0  0  0  0  0  0  0  0  0
  183.3230  178.6700  141.4950 N   0  0  0  0  0  0  0  0  0  0  0  0
  185.0190  179.3490  140.0100 N   0  0  0  0  0  2  0  0  0  0  0  0
  185.7320  178.3190  142.0110 C   0  0  0  0  0  0  0  0  0  0  0  0
  184.3050  178.2630  142.5050 C   0  0  1  0  0  3  0  0  0  0  0  0
  184.1480  179.1340  143.7360 C   0  0  0  0  0  1  0  0  0  0  0  0
  182.6010  179.6120  139.4070 C   0  0  0  0  0  0  0  0  0  0  0  0
  181.5610  178.9160  139.2560 O   0  0  0  0  0  1  0  0  0  0  0  0
  182.7560  180.7800  138.6700 O   0  0  0  0  0  0  0  0  0  0  0  0
  188.0000  177.7190  147.8030 C   0  0  0  0  0  0  0  0  0  0  0  0
  187.0460  177.9960  146.8210 C   0  0  0  0  0  3  0  0  0  0  0  0
  189.6590  177.3460  146.0820 C   0  0  0  0  0  3  0  0  0  0  0  0
  189.3070  177.3960  147.4340 C   0  0  0  0  0  3  0  0  0  0  0  0
  188.7090  177.6110  145.0820 C   0  0  0  0  0  0  0  0  0  0  0  0
  187.6570  177.7680  149.1120 F   0  0  0  0  0  0  0  0  0  0  0  0
  187.4000  177.9450  145.4700 C   0  0  0  0  0  3  0  0  0  0  0  0
  1  8  1  0  0  0  0
  1  6  1  0  0  0  0
  2  5  1  0  0  0  0
  2  4  2  0  0  0  0
  3  4  1  0  0  0  0
  4  7  1  0  0  0  0
  5  1  2  0  0  0  0
  6 23  1  0  0  0  0
  7  6  2  0  0  0  0
  9 11  2  0  0  0  0
 10 13  2  0  0  0  0
 11 14  1  0  0  0  0
 12  9  1  0  0  0  0
 12 10  1  0  0  0  0
 13 14  1  0  0  0  0
 13  8  1  0  0  0  0
 14 15  1  1  0  0  0
 16  9  1  0  0  0  0
 17 16  1  0  0  0  0
 18 16  2  0  0  0  0
 19 24  1  0  0  0  0
 20 19  2  0  0  0  0
 21 22  2  0  0  0  0
 22 19  1  0  0  0  0
 23 25  2  0  0  0  0
 23 21  1  0  0  0  0
 25 20  1  0  0  0  0
M  END
>  <MODEL>
5

>  <REMARK>
 VINA RESULT:      -9.4      4.064      6.444
  Name = 
  3 active torsions:
  status: ('A' for Active; 'I' for Inactive)
    1  A    between atoms: C_1  and  N_7
    2  A    between atoms: C_3  and  C_11
    3  A    between atoms: C_15  and  C_21
                            x       y       z     vdW  Elec       q    Type
                         _______ _______ _______ _____ _____    ______ ____

>  <TORSDO>
F 3

$$$$
=
 OpenBabel11042411223D

 25 27  0  0  1  0  0  0  0  0999 V2000
  187.0570  178.2920  142.5050 C   0  0  0  0  0  0  0  0  0  0  0  0
  185.0380  178.6190  141.1810 C   0  0  0  0  0  3  0  0  0  0  0  0
  182.8860  178.7210  142.2600 O   0  0  0  0  0  1  0  0  0  0  0  0
  184.2640  178.5780  142.3390 C   0  0  0  0  0  0  0  0  0  0  0  0
  186.4230  178.4810  141.2660 C   0  0  0  0  0  3  0  0  0  0  0  0
  186.2700  178.2420  143.6860 C   0  0  0  0  0  0  0  0  0  0  0  0
  184.8760  178.3940  143.5790 C   0  0  0  0  0  3  0  0  0  0  0  0
  188.4900  178.2070  142.5860 N   0  0  0  0  0  2  0  0  0  0  0  0
  191.2690  177.0360  139.6020 C   0  0  0  0  0  0  0  0  0  0  0  0
  188.9790  177.2870  140.4450 N   0  0  0  0  0  0  0  0  0  0  0  0
  191.7320  177.5030  140.7200 N   0  0  0  0  0  0  0  0  0  0  0  0
  189.8620  176.8720  139.4370 N   0  0  0  0  0  2  0  0  0  0  0  0
  189.4090  177.7680  141.5740 C   0  0  0  0  0  0  0  0  0  0  0  0
  190.8890  177.8280  141.8750 C   0  0  1  0  0  3  0  0  0  0  0  0
  191.2240  176.8900  143.0190 C   0  0  0  0  0  1  0  0  0  0  0  0
  192.1800  176.7000  138.5010 C   0  0  0  0  0  0  0  0  0  0  0  0
  191.7250  176.3730  137.3730 O   0  0  0  0  0  0  0  0  0  0  0  0
  193.5550  176.7410  138.6990 O   0  0  0  0  0  1  0  0  0  0  0  0
  187.9030  177.6090  147.6160 C   0  0  0  0  0  0  0  0  0  0  0  0
  188.5850  177.1280  146.4950 C   0  0  0  0  0  3  0  0  0  0  0  0
  186.1740  178.5010  146.1770 C   0  0  0  0  0  3  0  0  0  0  0  0
  186.6970  178.2930  147.4570 C   0  0  0  0  0  3  0  0  0  0  0  0
  186.8530  178.0340  145.0400 C   0  0  0  0  0  0  0  0  0  0  0  0
  188.4110  177.4070  148.8550 F   0  0  0  0  0  0  0  0  0  0  0  0
  188.0610  177.3370  145.2170 C   0  0  0  0  0  3  0  0  0  0  0  0
  1  8  1  0  0  0  0
  1  6  1  0  0  0  0
  2  5  1  0  0  0  0
  2  4  2  0  0  0  0
  3  4  1  0  0  0  0
  4  7  1  0  0  0  0
  5  1  2  0  0  0  0
  6 23  1  0  0  0  0
  7  6  2  0  0  0  0
  9 11  2  0  0  0  0
 10 13  2  0  0  0  0
 11 14  1  0  0  0  0
 12  9  1  0  0  0  0
 12 10  1  0  0  0  0
 13 14  1  0  0  0  0
 13  8  1  0  0  0  0
 14 15  1  1  0  0  0
 16 18  1  0  0  0  0
 16  9  1  0  0  0  0
 17 16  2  0  0  0  0
 19 24  1  0  0  0  0
 20 19  2  0  0  0  0
 21 22  2  0  0  0  0
 22 19  1  0  0  0  0
 23 25  2  0  0  0  0
 23 21  1  0  0  0  0
 25 20  1  0  0  0  0
M  END
>  <MODEL>
6

>  <REMARK>
 VINA RESULT:      -9.3      2.720      4.314
  Name = 
  3 active torsions:
  status: ('A' for Active; 'I' for Inactive)
    1  A    between atoms: C_1  and  N_7
    2  A    between atoms: C_3  and  C_11
    3  A    between atoms: C_15  and  C_21
                            x       y       z     vdW  Elec       q    Type
                         _______ _______ _______ _____ _____    ______ ____

>  <TORSDO>
F 3

$$$$
=
 OpenBabel11042411223D

 25 27  0  0  1  0  0  0  0  0999 V2000
  186.4100  178.3780  145.3820 C   0  0  0  0  0  0  0  0  0  0  0  0
  186.3090  178.5540  147.8100 C   0  0  0  0  0  3  0  0  0  0  0  0
  188.2230  177.9650  149.1470 O   0  0  0  0  0  1  0  0  0  0  0  0
  187.6230  178.1010  147.9040 C   0  0  0  0  0  0  0  0  0  0  0  0
  185.7110  178.6950  146.5580 C   0  0  0  0  0  3  0  0  0  0  0  0
  187.7460  177.9080  145.4760 C   0  0  0  0  0  0  0  0  0  0  0  0
  188.3330  177.7830  146.7470 C   0  0  0  0  0  3  0  0  0  0  0  0
  185.8020  178.5800  144.0950 N   0  0  0  0  0  2  0  0  0  0  0  0
  181.7070  179.1320  143.1320 C   0  0  0  0  0  0  0  0  0  0  0  0
  183.5020  178.5810  144.7100 N   0  0  0  0  0  0  0  0  0  0  0  0
  182.5830  179.2730  142.1850 N   0  0  0  0  0  0  0  0  0  0  0  0
  182.1350  178.7370  144.4330 N   0  0  0  0  0  2  0  0  0  0  0  0
  184.4060  178.7240  143.7870 C   0  0  0  0  0  0  0  0  0  0  0  0
  184.0120  178.9930  142.3540 C   0  0  1  0  0  3  0  0  0  0  0  0
  184.3970  177.8140  141.4800 C   0  0  0  0  0  1  0  0  0  0  0  0
  180.2860  179.3990  142.8770 C   0  0  0  0  0  0  0  0  0  0  0  0
  179.9050  180.5500  142.5340 O   0  0  0  0  0  0  0  0  0  0  0  0
  179.3520  178.3800  143.0120 O   0  0  0  0  0  1  0  0  0  0  0  0
  190.1460  176.8290  142.0720 C   0  0  0  0  0  0  0  0  0  0  0  0
  189.0360  176.0530  142.4120 C   0  0  0  0  0  3  0  0  0  0  0  0
  189.6860  178.3000  143.9370 C   0  0  0  0  0  3  0  0  0  0  0  0
  190.4730  177.9510  142.8360 C   0  0  0  0  0  3  0  0  0  0  0  0
  188.5590  177.5360  144.2850 C   0  0  0  0  0  0  0  0  0  0  0  0
  190.9080  176.4900  141.0040 F   0  0  0  0  0  0  0  0  0  0  0  0
  188.2500  176.4040  143.5120 C   0  0  0  0  0  3  0  0  0  0  0  0
  1  6  2  0  0  0  0
  1  5  1  0  0  0  0
  2  4  1  0  0  0  0
  4  3  1  0  0  0  0
  5  2  2  0  0  0  0
  6  7  1  0  0  0  0
  7  4  2  0  0  0  0
  8  1  1  0  0  0  0
  9 12  1  0  0  0  0
 11 14  1  0  0  0  0
 11  9  2  0  0  0  0
 12 10  1  0  0  0  0
 13  8  1  0  0  0  0
 13 10  2  0  0  0  0
 14 15  1  6  0  0  0
 14 13  1  0  0  0  0
 16 18  1  0  0  0  0
 16  9  1  0  0  0  0
 17 16  2  0  0  0  0
 19 20  2  0  0  0  0
 19 22  1  0  0  0  0
 20 25  1  0  0  0  0
 21 23  1  0  0  0  0
 22 21  2  0  0  0  0
 23  6  1  0  0  0  0
 24 19  1  0  0  0  0
 25 23  2  0  0  0  0
M  END
>  <MODEL>
7

>  <REMARK>
 VINA RESULT:      -8.9      4.470      7.166
  Name = 
  3 active torsions:
  status: ('A' for Active; 'I' for Inactive)
    1  A    between atoms: C_1  and  N_7
    2  A    between atoms: C_3  and  C_11
    3  A    between atoms: C_15  and  C_21
                            x       y       z     vdW  Elec       q    Type
                         _______ _______ _______ _____ _____    ______ ____

>  <TORSDO>
F 3

$$$$
=
 OpenBabel11042411223D

 25 27  0  0  1  0  0  0  0  0999 V2000
  188.4920  177.5390  143.6910 C   0  0  0  0  0  0  0  0  0  0  0  0
  190.0370  177.1470  145.5340 C   0  0  0  0  0  3  0  0  0  0  0  0
  189.2750  177.3180  147.8120 O   0  0  0  0  0  1  0  0  0  0  0  0
  189.0170  177.3920  146.4510 C   0  0  0  0  0  0  0  0  0  0  0  0
  189.7730  177.2150  144.1660 C   0  0  0  0  0  3  0  0  0  0  0  0
  187.4520  177.7970  144.6240 C   0  0  0  0  0  0  0  0  0  0  0  0
  187.7380  177.7120  145.9980 C   0  0  0  0  0  3  0  0  0  0  0  0
  188.2180  177.5530  142.2800 N   0  0  0  0  0  2  0  0  0  0  0  0
  190.6770  176.2690  139.0700 C   0  0  0  0  0  0  0  0  0  0  0  0
  190.3130  176.7990  141.4370 N   0  0  0  0  0  0  0  0  0  0  0  0
  189.4570  176.6210  138.8040 N   0  0  0  0  0  0  0  0  0  0  0  0
  191.1670  176.3840  140.4040 N   0  0  0  0  0  2  0  0  0  0  0  0
  189.0830  177.1510  141.2060 C   0  0  0  0  0  0  0  0  0  0  0  0
  188.5440  177.1970  139.7960 C   0  0  1  0  0  3  0  0  0  0  0  0
  188.2240  178.6290  139.4100 C   0  0  0  0  0  1  0  0  0  0  0  0
  191.5430  175.7310  138.0140 C   0  0  0  0  0  0  0  0  0  0  0  0
  191.5470  174.4980  137.7580 O   0  0  0  0  0  1  0  0  0  0  0  0
  192.3660  176.5840  137.2880 O   0  0  0  0  0  0  0  0  0  0  0  0
  183.4600  178.9010  143.4610 C   0  0  0  0  0  0  0  0  0  0  0  0
  184.3620  178.4430  142.4980 C   0  0  0  0  0  3  0  0  0  0  0  0
  185.1530  178.6330  145.1690 C   0  0  0  0  0  3  0  0  0  0  0  0
  183.8560  178.9990  144.7960 C   0  0  0  0  0  3  0  0  0  0  0  0
  186.0680  178.1590  144.2140 C   0  0  0  0  0  0  0  0  0  0  0  0
  182.2040  179.2550  143.0990 F   0  0  0  0  0  0  0  0  0  0  0  0
  185.6570  178.0770  142.8720 C   0  0  0  0  0  3  0  0  0  0  0  0
  1  5  2  0  0  0  0
  1  6  1  0  0  0  0
  2  4  2  0  0  0  0
  4  3  1  0  0  0  0
  5  2  1  0  0  0  0
  6  7  2  0  0  0  0
  7  4  1  0  0  0  0
  8  1  1  0  0  0  0
  9 12  1  0  0  0  0
 11  9  2  0  0  0  0
 11 14  1  0  0  0  0
 12 10  1  0  0  0  0
 13 10  2  0  0  0  0
 13  8  1  0  0  0  0
 14 15  1  6  0  0  0
 14 13  1  0  0  0  0
 16  9  1  0  0  0  0
 17 16  1  0  0  0  0
 18 16  2  0  0  0  0
 19 22  1  0  0  0  0
 20 25  1  0  0  0  0
 20 19  2  0  0  0  0
 22 21  2  0  0  0  0
 23  6  1  0  0  0  0
 23 21  1  0  0  0  0
 24 19  1  0  0  0  0
 25 23  2  0  0  0  0
M  END
>  <MODEL>
8

>  <REMARK>
 VINA RESULT:      -8.9      1.183      1.407
  Name = 
  3 active torsions:
  status: ('A' for Active; 'I' for Inactive)
    1  A    between atoms: C_1  and  N_7
    2  A    between atoms: C_3  and  C_11
    3  A    between atoms: C_15  and  C_21
                            x       y       z     vdW  Elec       q    Type
                         _______ _______ _______ _____ _____    ______ ____

>  <TORSDO>
F 3

$$$$
=
 OpenBabel11042411223D

 25 27  0  0  1  0  0  0  0  0999 V2000
  187.8560  177.5330  143.3890 C   0  0  0  0  0  0  0  0  0  0  0  0
  188.5230  177.3610  145.7260 C   0  0  0  0  0  3  0  0  0  0  0  0
  186.9510  177.8760  147.4760 O   0  0  0  0  0  1  0  0  0  0  0  0
  187.2510  177.7630  146.1270 C   0  0  0  0  0  0  0  0  0  0  0  0
  188.8200  177.2430  144.3690 C   0  0  0  0  0  3  0  0  0  0  0  0
  186.5610  177.9520  143.7950 C   0  0  0  0  0  0  0  0  0  0  0  0
  186.2800  178.0540  145.1690 C   0  0  0  0  0  3  0  0  0  0  0  0
  188.1560  177.3550  141.9950 N   0  0  0  0  0  2  0  0  0  0  0  0
  191.9370  177.1440  140.0810 C   0  0  0  0  0  0  0  0  0  0  0  0
  190.5260  177.5730  142.0420 N   0  0  0  0  0  0  0  0  0  0  0  0
  190.8770  176.9030  139.3730 N   0  0  0  0  0  0  0  0  0  0  0  0
  191.7960  177.5310  141.4470 N   0  0  0  0  0  2  0  0  0  0  0  0
  189.4450  177.3280  141.3630 C   0  0  0  0  0  0  0  0  0  0  0  0
  189.5100  177.0610  139.8770 C   0  0  1  0  0  3  0  0  0  0  0  0
  188.8220  178.1800  139.1190 C   0  0  0  0  0  1  0  0  0  0  0  0
  193.2740  176.9980  139.4950 C   0  0  0  0  0  0  0  0  0  0  0  0
  194.3020  177.0970  140.2170 O   0  0  0  0  0  1  0  0  0  0  0  0
  193.4140  176.7490  138.1350 O   0  0  0  0  0  0  0  0  0  0  0  0
  183.4200  178.9820  141.0400 C   0  0  0  0  0  0  0  0  0  0  0  0
  184.7510  179.0040  140.6160 C   0  0  0  0  0  3  0  0  0  0  0  0
  184.1390  178.2870  143.2440 C   0  0  0  0  0  3  0  0  0  0  0  0
  183.1140  178.6260  142.3550 C   0  0  0  0  0  3  0  0  0  0  0  0
  185.4810  178.2930  142.8280 C   0  0  0  0  0  0  0  0  0  0  0  0
  182.4290  179.3110  140.1780 F   0  0  0  0  0  0  0  0  0  0  0  0
  185.7730  178.6640  141.5050 C   0  0  0  0  0  3  0  0  0  0  0  0
  1  6  2  0  0  0  0
  1  5  1  0  0  0  0
  2  4  1  0  0  0  0
  4  3  1  0  0  0  0
  5  2  2  0  0  0  0
  6  7  1  0  0  0  0
  7  4  2  0  0  0  0
  8  1  1  0  0  0  0
  9 12  1  0  0  0  0
 11 14  1  0  0  0  0
 11  9  2  0  0  0  0
 12 10  1  0  0  0  0
 13  8  1  0  0  0  0
 13 10  2  0  0  0  0
 14 15  1  6  0  0  0
 14 13  1  0  0  0  0
 16  9  1  0  0  0  0
 16 17  1  0  0  0  0
 18 16  2  0  0  0  0
 19 22  1  0  0  0  0
 20 19  2  0  0  0  0
 20 25  1  0  0  0  0
 22 21  2  0  0  0  0
 23 21  1  0  0  0  0
 23  6  1  0  0  0  0
 24 19  1  0  0  0  0
 25 23  2  0  0  0  0
M  END
>  <MODEL>
9

>  <REMARK>
 VINA RESULT:      -8.9      1.260      1.606
  Name = 
  3 active torsions:
  status: ('A' for Active; 'I' for Inactive)
    1  A    between atoms: C_1  and  N_7
    2  A    between atoms: C_3  and  C_11
    3  A    between atoms: C_15  and  C_21
                            x       y       z     vdW  Elec       q    Type
                         _______ _______ _______ _____ _____    ______ ____

>  <TORSDO>
F 3

$$$$
