=
 OpenBabel11042412093D

 37 39  0  0  1  0  0  0  0  0999 V2000
  190.5930  177.6510  141.6920 C   0  0  2  0  0  3  0  0  0  0  0  0
  188.2190  178.3270  141.5950 C   0  0  0  0  0  1  0  0  0  0  0  0
  190.6300  176.8360  143.9720 C   0  0  2  0  0  3  0  0  0  0  0  0
  191.5120  177.1070  142.7680 C   0  0  0  0  0  2  0  0  0  0  0  0
  189.3030  177.5200  143.6760 C   0  0  1  0  0  3  0  0  0  0  0  0
  189.4420  178.2340  142.3950 N   0  0  0  0  0  0  0  0  0  0  0  0
  191.2270  177.4050  145.1300 O   0  0  0  0  0  0  0  0  0  0  0  0
  192.3030  176.3650  146.8890 O   0  0  0  0  0  0  0  0  0  0  0  0
  191.2240  176.7590  146.3710 C   0  0  0  0  0  0  0  0  0  0  0  0
  190.0250  176.5460  147.0530 O   0  0  0  0  0  0  0  0  0  0  0  0
  190.2200  178.0270  148.8010 F   0  0  0  0  0  0  0  0  0  0  0  0
  189.0530  178.6130  146.9670 F   0  0  0  0  0  0  0  0  0  0  0  0
  189.3770  177.5650  147.8070 C   0  0  0  0  0  0  0  0  0  0  0  0
  188.2170  177.0680  148.3760 F   0  0  0  0  0  0  0  0  0  0  0  0
  188.1160  176.5420  143.7710 C   0  0  0  0  0  2  0  0  0  0  0  0
  187.1790  176.8470  144.9330 C   0  0  0  0  0  2  0  0  0  0  0  0
  186.8070  178.3210  144.9410 C   0  0  0  0  0  2  0  0  0  0  0  0
  181.5590  178.6050  139.8640 F   0  0  0  0  0  0  0  0  0  0  0  0
  183.2790  178.4980  141.5110 C   0  0  0  0  0  3  0  0  0  0  0  0
  183.6700  178.6050  142.8460 C   0  0  0  0  0  0  0  0  0  0  0  0
  184.9990  178.4010  143.2170 C   0  0  0  0  0  3  0  0  0  0  0  0
  185.3710  178.5050  144.5600 C   0  0  0  0  0  0  0  0  0  0  0  0
  184.7000  178.9170  146.7400 O   0  0  0  0  0  0  0  0  0  0  0  0
  180.9980  179.0300  142.1410 C   0  0  0  0  0  3  0  0  0  0  0  0
  184.3940  178.8200  145.5220 C   0  0  0  0  0  0  0  0  0  0  0  0
  181.3860  179.1360  143.4800 C   0  0  0  0  0  3  0  0  0  0  0  0
  182.7200  178.9240  143.8390 C   0  0  0  0  0  0  0  0  0  0  0  0
  183.1020  179.0200  145.1400 N   0  0  0  0  0  2  0  0  0  0  0  0
  181.9420  178.7110  141.1580 C   0  0  0  0  0  0  0  0  0  0  0  0
  190.2310  176.5110  140.7350 C   0  0  0  0  0  2  0  0  0  0  0  0
  190.9730  175.4820  138.7150 O   0  0  0  0  0  1  0  0  0  0  0  0
  190.8990  176.7050  139.3850 C   0  0  1  0  0  3  0  0  0  0  0  0
  190.0830  177.6850  138.5630 C   0  0  0  0  0  2  0  0  0  0  0  0
  187.9010  179.1130  137.4310 O   0  0  0  0  0  0  0  0  0  0  0  0
  188.7820  177.1140  138.2570 N   0  0  0  0  0  2  0  0  0  0  0  0
  187.7280  177.8930  137.6930 C   0  0  0  0  0  0  0  0  0  0  0  0
  186.4140  177.2580  137.4120 C   0  0  0  0  0  1  0  0  0  0  0  0
  1 30  1  6  0  0  0
  1  6  1  0  0  0  0
  1  4  1  0  0  0  0
  2  6  1  0  0  0  0
  3  7  1  1  0  0  0
  4  3  1  0  0  0  0
  5 15  1  6  0  0  0
  5  3  1  0  0  0  0
  6  5  1  0  0  0  0
  7  9  1  0  0  0  0
  9  8  2  0  0  0  0
  9 10  1  0  0  0  0
 10 13  1  0  0  0  0
 12 13  1  0  0  0  0
 13 14  1  0  0  0  0
 13 11  1  0  0  0  0
 15 16  1  0  0  0  0
 16 17  1  0  0  0  0
 18 29  1  0  0  0  0
 19 20  1  0  0  0  0
 20 21  1  0  0  0  0
 20 27  2  0  0  0  0
 21 22  2  0  0  0  0
 22 17  1  0  0  0  0
 22 25  1  0  0  0  0
 24 26  2  0  0  0  0
 25 23  2  0  0  0  0
 26 27  1  0  0  0  0
 27 28  1  0  0  0  0
 28 25  1  0  0  0  0
 29 19  2  0  0  0  0
 29 24  1  0  0  0  0
 32 31  1  6  0  0  0
 32 30  1  0  0  0  0
 33 32  1  0  0  0  0
 34 36  2  0  0  0  0
 35 33  1  0  0  0  0
 36 35  1  0  0  0  0
 37 36  1  0  0  0  0
M  END
>  <MODEL>
1

>  <REMARK>
 VINA RESULT:      -9.2      0.000      0.000
  Name = 
  12 active torsions:
  status: ('A' for Active; 'I' for Inactive)
    1  A    between atoms: C_1  and  C_31
    2  A    between atoms: O_4  and  C_7
    3  A    between atoms: O_4  and  C_11
    4  A    between atoms: C_11  and  O_28
    5  A    between atoms: C_13  and  C_17
    6  A    between atoms: C_16  and  C_18
    7  A    between atoms: C_17  and  C_34
    8  A    between atoms: C_18  and  C_34
    9  A    between atoms: N_20  and  C_29
   10  A    between atoms: C_24  and  C_29
   11  A    between atoms: C_24  and  C_31
   12  A    between atoms: C_25  and  O_28
                            x       y       z     vdW  Elec       q    Type
                         _______ _______ _______ _____ _____    ______ ____

>  <TORSDO>
F 12

$$$$
=
 OpenBabel11042412093D

 37 39  0  0  1  0  0  0  0  0999 V2000
  188.9720  177.4050  137.9070 C   0  0  2  0  0  3  0  0  0  0  0  0
  187.0660  178.9510  137.6310 C   0  0  0  0  0  1  0  0  0  0  0  0
  189.0400  177.3640  140.3270 C   0  0  2  0  0  3  0  0  0  0  0  0
  189.7600  176.8720  139.0860 C   0  0  0  0  0  2  0  0  0  0  0  0
  188.0560  178.4200  139.8420 C   0  0  1  0  0  3  0  0  0  0  0  0
  188.2630  178.5950  138.3950 N   0  0  0  0  0  0  0  0  0  0  0  0
  189.9820  177.9450  141.2190 O   0  0  0  0  0  0  0  0  0  0  0  0
  190.2860  176.0160  142.4530 O   0  0  0  0  0  0  0  0  0  0  0  0
  190.6330  177.2030  142.2110 C   0  0  0  0  0  0  0  0  0  0  0  0
  191.6790  177.7680  142.9420 O   0  0  0  0  0  0  0  0  0  0  0  0
  191.6010  177.5880  145.2320 F   0  0  0  0  0  0  0  0  0  0  0  0
  192.4230  179.4600  144.2870 F   0  0  0  0  0  0  0  0  0  0  0  0
  191.4750  178.4630  144.1680 C   0  0  0  0  0  0  0  0  0  0  0  0
  190.2150  179.0340  144.1830 F   0  0  0  0  0  0  0  0  0  0  0  0
  186.6120  178.1050  140.2780 C   0  0  0  0  0  2  0  0  0  0  0  0
  186.1070  179.0200  141.3870 C   0  0  0  0  0  2  0  0  0  0  0  0
  185.1460  178.2700  142.2960 C   0  0  0  0  0  2  0  0  0  0  0  0
  189.9290  176.6070  147.5640 F   0  0  0  0  0  0  0  0  0  0  0  0
  188.3830  177.1520  145.8340 C   0  0  0  0  0  3  0  0  0  0  0  0
  187.1950  177.7670  145.4350 C   0  0  0  0  0  0  0  0  0  0  0  0
  186.7840  177.7260  144.1030 C   0  0  0  0  0  3  0  0  0  0  0  0
  185.5950  178.3530  143.7210 C   0  0  0  0  0  0  0  0  0  0  0  0
  183.7490  179.5910  144.3780 O   0  0  0  0  0  0  0  0  0  0  0  0
  187.9790  177.8610  148.1170 C   0  0  0  0  0  3  0  0  0  0  0  0
  184.8240  179.0160  144.6940 C   0  0  0  0  0  0  0  0  0  0  0  0
  186.7890  178.4800  147.7210 C   0  0  0  0  0  3  0  0  0  0  0  0
  186.3930  178.4360  146.3830 C   0  0  0  0  0  0  0  0  0  0  0  0
  185.2390  179.0400  145.9900 N   0  0  0  0  0  2  0  0  0  0  0  0
  188.7750  177.1990  147.1760 C   0  0  0  0  0  0  0  0  0  0  0  0
  188.0520  176.2940  137.3900 C   0  0  0  0  0  2  0  0  0  0  0  0
  189.0710  177.0810  135.3840 O   0  0  0  0  0  1  0  0  0  0  0  0
  188.2480  176.0780  135.9000 C   0  0  1  0  0  3  0  0  0  0  0  0
  188.8930  174.7240  135.6750 C   0  0  0  0  0  2  0  0  0  0  0  0
  190.6090  173.7050  137.6990 O   0  0  0  0  0  0  0  0  0  0  0  0
  190.3400  174.8560  135.6840 N   0  0  0  0  0  2  0  0  0  0  0  0
  191.1410  174.3230  136.7390 C   0  0  0  0  0  0  0  0  0  0  0  0
  192.6160  174.5000  136.7030 C   0  0  0  0  0  1  0  0  0  0  0  0
  1 30  1  1  0  0  0
  1  6  1  0  0  0  0
  1  4  1  0  0  0  0
  2  6  1  0  0  0  0
  3  7  1  1  0  0  0
  4  3  1  0  0  0  0
  5 15  1  6  0  0  0
  5  3  1  0  0  0  0
  6  5  1  0  0  0  0
  7  9  1  0  0  0  0
  9  8  2  0  0  0  0
  9 10  1  0  0  0  0
 10 13  1  0  0  0  0
 13 14  1  0  0  0  0
 13 12  1  0  0  0  0
 13 11  1  0  0  0  0
 15 16  1  0  0  0  0
 16 17  1  0  0  0  0
 17 22  1  0  0  0  0
 19 29  1  0  0  0  0
 20 19  2  0  0  0  0
 20 27  1  0  0  0  0
 21 20  1  0  0  0  0
 22 21  2  0  0  0  0
 22 25  1  0  0  0  0
 23 25  2  0  0  0  0
 25 28  1  0  0  0  0
 26 24  1  0  0  0  0
 27 26  2  0  0  0  0
 28 27  1  0  0  0  0
 29 18  1  0  0  0  0
 29 24  2  0  0  0  0
 32 31  1  1  0  0  0
 32 30  1  0  0  0  0
 33 35  1  0  0  0  0
 33 32  1  0  0  0  0
 35 36  1  0  0  0  0
 36 34  2  0  0  0  0
 37 36  1  0  0  0  0
M  END
>  <MODEL>
2

>  <REMARK>
 VINA RESULT:      -8.4      2.790      5.082
  Name = 
  12 active torsions:
  status: ('A' for Active; 'I' for Inactive)
    1  A    between atoms: C_1  and  C_31
    2  A    between atoms: O_4  and  C_7
    3  A    between atoms: O_4  and  C_11
    4  A    between atoms: C_11  and  O_28
    5  A    between atoms: C_13  and  C_17
    6  A    between atoms: C_16  and  C_18
    7  A    between atoms: C_17  and  C_34
    8  A    between atoms: C_18  and  C_34
    9  A    between atoms: N_20  and  C_29
   10  A    between atoms: C_24  and  C_29
   11  A    between atoms: C_24  and  C_31
   12  A    between atoms: C_25  and  O_28
                            x       y       z     vdW  Elec       q    Type
                         _______ _______ _______ _____ _____    ______ ____

>  <TORSDO>
F 12

$$$$
=
 OpenBabel11042412093D

 37 39  0  0  1  0  0  0  0  0999 V2000
  190.6490  177.8310  141.6830 C   0  0  2  0  0  3  0  0  0  0  0  0
  188.2600  178.2600  141.2220 C   0  0  0  0  0  1  0  0  0  0  0  0
  190.4370  177.1170  143.9870 C   0  0  2  0  0  3  0  0  0  0  0  0
  191.4520  177.4280  142.9030 C   0  0  0  0  0  2  0  0  0  0  0  0
  189.1070  177.6520  143.4730 C   0  0  1  0  0  3  0  0  0  0  0  0
  189.3600  178.3240  142.1870 N   0  0  0  0  0  0  0  0  0  0  0  0
  190.8060  177.7900  145.1830 O   0  0  0  0  0  0  0  0  0  0  0  0
  189.5060  176.9700  146.9070 O   0  0  0  0  0  0  0  0  0  0  0  0
  190.6540  177.2110  146.4480 C   0  0  0  0  0  0  0  0  0  0  0  0
  191.7740  176.8880  147.2150 O   0  0  0  0  0  0  0  0  0  0  0  0
  193.4830  175.5690  148.0060 F   0  0  0  0  0  0  0  0  0  0  0  0
  191.3750  174.7760  147.9920 F   0  0  0  0  0  0  0  0  0  0  0  0
  192.2850  175.5630  147.3140 C   0  0  0  0  0  0  0  0  0  0  0  0
  192.4820  175.0370  146.0490 F   0  0  0  0  0  0  0  0  0  0  0  0
  188.0170  176.5640  143.4570 C   0  0  0  0  0  2  0  0  0  0  0  0
  187.0170  176.6980  144.6000 C   0  0  0  0  0  2  0  0  0  0  0  0
  186.6700  178.1590  144.8310 C   0  0  0  0  0  2  0  0  0  0  0  0
  181.4030  178.6990  139.7940 F   0  0  0  0  0  0  0  0  0  0  0  0
  183.1270  178.5080  141.4290 C   0  0  0  0  0  3  0  0  0  0  0  0
  183.5370  178.6080  142.7590 C   0  0  0  0  0  0  0  0  0  0  0  0
  184.8540  178.3270  143.1220 C   0  0  0  0  0  3  0  0  0  0  0  0
  185.2440  178.4270  144.4600 C   0  0  0  0  0  0  0  0  0  0  0  0
  184.6210  178.9110  146.6390 O   0  0  0  0  0  0  0  0  0  0  0  0
  180.8910  179.1910  142.0700 C   0  0  0  0  0  3  0  0  0  0  0  0
  184.2970  178.8160  145.4250 C   0  0  0  0  0  0  0  0  0  0  0  0
  181.2970  179.2900  143.4040 C   0  0  0  0  0  3  0  0  0  0  0  0
  182.6180  179.0000  143.7540 C   0  0  0  0  0  0  0  0  0  0  0  0
  183.0180  179.0910  145.0510 N   0  0  0  0  0  2  0  0  0  0  0  0
  181.8030  178.7990  141.0840 C   0  0  0  0  0  0  0  0  0  0  0  0
  190.5370  176.6220  140.7480 C   0  0  0  0  0  2  0  0  0  0  0  0
  192.1670  176.6960  139.0100 O   0  0  0  0  0  1  0  0  0  0  0  0
  190.8430  177.0170  139.3140 C   0  0  1  0  0  3  0  0  0  0  0  0
  189.9120  176.2640  138.3820 C   0  0  0  0  0  2  0  0  0  0  0  0
  187.9550  177.1550  136.5230 O   0  0  0  0  0  0  0  0  0  0  0  0
  190.1810  176.6380  137.0030 N   0  0  0  0  0  2  0  0  0  0  0  0
  189.1460  177.0720  136.1220 C   0  0  0  0  0  0  0  0  0  0  0  0
  189.4770  177.4280  134.7180 C   0  0  0  0  0  1  0  0  0  0  0  0
  1 30  1  6  0  0  0
  1  6  1  0  0  0  0
  1  4  1  0  0  0  0
  2  6  1  0  0  0  0
  3  7  1  1  0  0  0
  4  3  1  0  0  0  0
  5 15  1  6  0  0  0
  5  3  1  0  0  0  0
  6  5  1  0  0  0  0
  7  9  1  0  0  0  0
  9  8  2  0  0  0  0
  9 10  1  0  0  0  0
 10 13  1  0  0  0  0
 13 12  1  0  0  0  0
 13 11  1  0  0  0  0
 14 13  1  0  0  0  0
 15 16  1  0  0  0  0
 16 17  1  0  0  0  0
 18 29  1  0  0  0  0
 19 20  1  0  0  0  0
 20 21  1  0  0  0  0
 20 27  2  0  0  0  0
 21 22  2  0  0  0  0
 22 17  1  0  0  0  0
 22 25  1  0  0  0  0
 24 26  2  0  0  0  0
 25 23  2  0  0  0  0
 26 27  1  0  0  0  0
 27 28  1  0  0  0  0
 28 25  1  0  0  0  0
 29 19  2  0  0  0  0
 29 24  1  0  0  0  0
 32 31  1  6  0  0  0
 32 30  1  0  0  0  0
 33 32  1  0  0  0  0
 35 33  1  0  0  0  0
 36 34  2  0  0  0  0
 36 35  1  0  0  0  0
 37 36  1  0  0  0  0
M  END
>  <MODEL>
3

>  <REMARK>
 VINA RESULT:      -8.4      1.552      1.859
  Name = 
  12 active torsions:
  status: ('A' for Active; 'I' for Inactive)
    1  A    between atoms: C_1  and  C_31
    2  A    between atoms: O_4  and  C_7
    3  A    between atoms: O_4  and  C_11
    4  A    between atoms: C_11  and  O_28
    5  A    between atoms: C_13  and  C_17
    6  A    between atoms: C_16  and  C_18
    7  A    between atoms: C_17  and  C_34
    8  A    between atoms: C_18  and  C_34
    9  A    between atoms: N_20  and  C_29
   10  A    between atoms: C_24  and  C_29
   11  A    between atoms: C_24  and  C_31
   12  A    between atoms: C_25  and  O_28
                            x       y       z     vdW  Elec       q    Type
                         _______ _______ _______ _____ _____    ______ ____

>  <TORSDO>
F 12

$$$$
=
 OpenBabel11042412093D

 37 39  0  0  1  0  0  0  0  0999 V2000
  189.0880  177.3430  138.2050 C   0  0  2  0  0  3  0  0  0  0  0  0
  187.2270  178.8760  137.6680 C   0  0  0  0  0  1  0  0  0  0  0  0
  188.8810  177.3760  140.6180 C   0  0  2  0  0  3  0  0  0  0  0  0
  189.7360  176.8470  139.4820 C   0  0  0  0  0  2  0  0  0  0  0  0
  187.9600  178.4150  139.9920 C   0  0  1  0  0  3  0  0  0  0  0  0
  188.3300  178.5470  138.5730 N   0  0  0  0  0  0  0  0  0  0  0  0
  189.7170  177.9860  141.5920 O   0  0  0  0  0  0  0  0  0  0  0  0
  190.1460  176.0560  142.7860 O   0  0  0  0  0  0  0  0  0  0  0  0
  190.4700  177.2420  142.5070 C   0  0  0  0  0  0  0  0  0  0  0  0
  191.5920  177.8020  143.1200 O   0  0  0  0  0  0  0  0  0  0  0  0
  190.2710  179.0350  144.5410 F   0  0  0  0  0  0  0  0  0  0  0  0
  191.7730  177.5870  145.3880 F   0  0  0  0  0  0  0  0  0  0  0  0
  191.5280  178.4850  144.3670 C   0  0  0  0  0  0  0  0  0  0  0  0
  192.4820  179.4860  144.4080 F   0  0  0  0  0  0  0  0  0  0  0  0
  186.4760  178.1120  140.2720 C   0  0  0  0  0  2  0  0  0  0  0  0
  185.8420  179.0780  141.2660 C   0  0  0  0  0  2  0  0  0  0  0  0
  184.8970  178.3350  142.1960 C   0  0  0  0  0  2  0  0  0  0  0  0
  189.7970  176.5680  147.3210 F   0  0  0  0  0  0  0  0  0  0  0  0
  188.2120  177.1470  145.6370 C   0  0  0  0  0  3  0  0  0  0  0  0
  187.0230  177.7820  145.2750 C   0  0  0  0  0  0  0  0  0  0  0  0
  186.5760  177.7560  143.9550 C   0  0  0  0  0  3  0  0  0  0  0  0
  185.3860  178.4030  143.6090 C   0  0  0  0  0  0  0  0  0  0  0  0
  183.5790  179.6660  144.3230 O   0  0  0  0  0  0  0  0  0  0  0  0
  187.8830  177.8490  147.9350 C   0  0  0  0  0  3  0  0  0  0  0  0
  184.6530  179.0720  144.6060 C   0  0  0  0  0  0  0  0  0  0  0  0
  186.6920  178.4880  147.5750 C   0  0  0  0  0  3  0  0  0  0  0  0
  186.2580  178.4590  146.2480 C   0  0  0  0  0  0  0  0  0  0  0  0
  185.1040  179.0820  145.8910 N   0  0  0  0  0  2  0  0  0  0  0  0
  188.6420  177.1800  146.9680 C   0  0  0  0  0  0  0  0  0  0  0  0
  188.2300  176.2150  137.6220 C   0  0  0  0  0  2  0  0  0  0  0  0
  189.9310  175.1310  136.3520 O   0  0  0  0  0  1  0  0  0  0  0  0
  188.7220  175.8190  136.2420 C   0  0  1  0  0  3  0  0  0  0  0  0
  187.6870  174.9260  135.5830 C   0  0  0  0  0  2  0  0  0  0  0  0
  184.9020  174.5960  136.0400 O   0  0  0  0  0  0  0  0  0  0  0  0
  187.1050  174.0300  136.5690 N   0  0  0  0  0  2  0  0  0  0  0  0
  185.6940  173.9190  136.7480 C   0  0  0  0  0  0  0  0  0  0  0  0
  185.1550  172.9960  137.7810 C   0  0  0  0  0  1  0  0  0  0  0  0
  1 30  1  1  0  0  0
  1  6  1  0  0  0  0
  1  4  1  0  0  0  0
  2  6  1  0  0  0  0
  3  7  1  1  0  0  0
  4  3  1  0  0  0  0
  5 15  1  6  0  0  0
  5  3  1  0  0  0  0
  6  5  1  0  0  0  0
  7  9  1  0  0  0  0
  9  8  2  0  0  0  0
  9 10  1  0  0  0  0
 10 13  1  0  0  0  0
 13 14  1  0  0  0  0
 13 11  1  0  0  0  0
 13 12  1  0  0  0  0
 15 16  1  0  0  0  0
 16 17  1  0  0  0  0
 17 22  1  0  0  0  0
 19 29  1  0  0  0  0
 20 19  2  0  0  0  0
 20 27  1  0  0  0  0
 21 20  1  0  0  0  0
 22 21  2  0  0  0  0
 22 25  1  0  0  0  0
 23 25  2  0  0  0  0
 25 28  1  0  0  0  0
 26 24  1  0  0  0  0
 27 26  2  0  0  0  0
 28 27  1  0  0  0  0
 29 18  1  0  0  0  0
 29 24  2  0  0  0  0
 32 31  1  1  0  0  0
 32 30  1  0  0  0  0
 33 32  1  0  0  0  0
 33 35  1  0  0  0  0
 34 36  2  0  0  0  0
 35 36  1  0  0  0  0
 36 37  1  0  0  0  0
M  END
>  <MODEL>
4

>  <REMARK>
 VINA RESULT:      -8.3      2.803      4.873
  Name = 
  12 active torsions:
  status: ('A' for Active; 'I' for Inactive)
    1  A    between atoms: C_1  and  C_31
    2  A    between atoms: O_4  and  C_7
    3  A    between atoms: O_4  and  C_11
    4  A    between atoms: C_11  and  O_28
    5  A    between atoms: C_13  and  C_17
    6  A    between atoms: C_16  and  C_18
    7  A    between atoms: C_17  and  C_34
    8  A    between atoms: C_18  and  C_34
    9  A    between atoms: N_20  and  C_29
   10  A    between atoms: C_24  and  C_29
   11  A    between atoms: C_24  and  C_31
   12  A    between atoms: C_25  and  O_28
                            x       y       z     vdW  Elec       q    Type
                         _______ _______ _______ _____ _____    ______ ____

>  <TORSDO>
F 12

$$$$
=
 OpenBabel11042412093D

 37 39  0  0  1  0  0  0  0  0999 V2000
  183.8160  178.2410  138.0000 C   0  0  2  0  0  3  0  0  0  0  0  0
  182.4360  179.6170  139.5190 C   0  0  0  0  0  1  0  0  0  0  0  0
  185.7820  178.0440  139.4000 C   0  0  2  0  0  3  0  0  0  0  0  0
  185.2330  177.7060  138.0260 C   0  0  0  0  0  2  0  0  0  0  0  0
  184.7970  179.0330  140.0070 C   0  0  1  0  0  3  0  0  0  0  0  0
  183.7710  179.3250  138.9920 N   0  0  0  0  0  0  0  0  0  0  0  0
  187.0610  178.6500  139.2590 O   0  0  0  0  0  0  0  0  0  0  0  0
  188.3550  177.0530  138.2050 O   0  0  0  0  0  0  0  0  0  0  0  0
  188.2350  177.9020  139.1300 C   0  0  0  0  0  0  0  0  0  0  0  0
  189.2940  178.0890  140.0200 O   0  0  0  0  0  0  0  0  0  0  0  0
  190.4000  177.6950  141.9960 F   0  0  0  0  0  0  0  0  0  0  0  0
  188.6020  179.0500  141.9750 F   0  0  0  0  0  0  0  0  0  0  0  0
  189.1580  177.9110  141.4260 C   0  0  0  0  0  0  0  0  0  0  0  0
  188.3330  176.8330  141.6890 F   0  0  0  0  0  0  0  0  0  0  0  0
  184.2700  178.5560  141.3730 C   0  0  0  0  0  2  0  0  0  0  0  0
  185.3440  178.5270  142.4540 C   0  0  0  0  0  2  0  0  0  0  0  0
  184.7100  178.3560  143.8260 C   0  0  0  0  0  2  0  0  0  0  0  0
  191.5190  176.5670  145.7860 F   0  0  0  0  0  0  0  0  0  0  0  0
  189.3040  177.1590  145.1310 C   0  0  0  0  0  3  0  0  0  0  0  0
  188.0210  177.5810  145.4820 C   0  0  0  0  0  0  0  0  0  0  0  0
  187.0410  177.7670  144.5070 C   0  0  0  0  0  3  0  0  0  0  0  0
  185.7640  178.1960  144.8760 C   0  0  0  0  0  0  0  0  0  0  0  0
  184.3420  178.8220  146.5960 O   0  0  0  0  0  0  0  0  0  0  0  0
  189.9560  177.2100  147.4670 C   0  0  0  0  0  3  0  0  0  0  0  0
  185.4840  178.4320  146.2350 C   0  0  0  0  0  0  0  0  0  0  0  0
  188.6720  177.6350  147.8220 C   0  0  0  0  0  3  0  0  0  0  0  0
  187.7010  177.8230  146.8340 C   0  0  0  0  0  0  0  0  0  0  0  0
  186.4520  178.2410  147.1730 N   0  0  0  0  0  2  0  0  0  0  0  0
  190.2720  176.9730  146.1240 C   0  0  0  0  0  0  0  0  0  0  0  0
  182.8510  177.0860  138.2880 C   0  0  0  0  0  2  0  0  0  0  0  0
  181.7960  177.9400  136.3270 O   0  0  0  0  0  1  0  0  0  0  0  0
  182.0010  176.7750  137.0690 C   0  0  1  0  0  3  0  0  0  0  0  0
  182.7190  175.7480  136.2120 C   0  0  0  0  0  2  0  0  0  0  0  0
  185.3150  174.6050  136.0330 O   0  0  0  0  0  0  0  0  0  0  0  0
  183.2110  174.6640  137.0450 N   0  0  0  0  0  2  0  0  0  0  0  0
  184.5280  174.1340  136.8960 C   0  0  0  0  0  0  0  0  0  0  0  0
  184.9730  173.0160  137.7670 C   0  0  0  0  0  1  0  0  0  0  0  0
  1  4  1  0  0  0  0
  1 30  1  1  0  0  0
  1  6  1  0  0  0  0
  3  7  1  6  0  0  0
  3  5  1  0  0  0  0
  4  3  1  0  0  0  0
  5 15  1  1  0  0  0
  6  2  1  0  0  0  0
  6  5  1  0  0  0  0
  8  9  2  0  0  0  0
  9  7  1  0  0  0  0
  9 10  1  0  0  0  0
 10 13  1  0  0  0  0
 13 14  1  0  0  0  0
 13 12  1  0  0  0  0
 13 11  1  0  0  0  0
 15 16  1  0  0  0  0
 16 17  1  0  0  0  0
 17 22  1  0  0  0  0
 18 29  1  0  0  0  0
 19 20  2  0  0  0  0
 19 29  1  0  0  0  0
 20 27  1  0  0  0  0
 21 22  2  0  0  0  0
 21 20  1  0  0  0  0
 22 25  1  0  0  0  0
 24 26  1  0  0  0  0
 25 23  2  0  0  0  0
 25 28  1  0  0  0  0
 27 28  1  0  0  0  0
 27 26  2  0  0  0  0
 29 24  2  0  0  0  0
 32 31  1  6  0  0  0
 32 30  1  0  0  0  0
 33 35  1  0  0  0  0
 33 32  1  0  0  0  0
 34 36  2  0  0  0  0
 36 35  1  0  0  0  0
 36 37  1  0  0  0  0
M  END
>  <MODEL>
5

>  <REMARK>
 VINA RESULT:      -8.3      3.260      6.828
  Name = 
  12 active torsions:
  status: ('A' for Active; 'I' for Inactive)
    1  A    between atoms: C_1  and  C_31
    2  A    between atoms: O_4  and  C_7
    3  A    between atoms: O_4  and  C_11
    4  A    between atoms: C_11  and  O_28
    5  A    between atoms: C_13  and  C_17
    6  A    between atoms: C_16  and  C_18
    7  A    between atoms: C_17  and  C_34
    8  A    between atoms: C_18  and  C_34
    9  A    between atoms: N_20  and  C_29
   10  A    between atoms: C_24  and  C_29
   11  A    between atoms: C_24  and  C_31
   12  A    between atoms: C_25  and  O_28
                            x       y       z     vdW  Elec       q    Type
                         _______ _______ _______ _____ _____    ______ ____

>  <TORSDO>
F 12

$$$$
=
 OpenBabel11042412093D

 37 39  0  0  1  0  0  0  0  0999 V2000
  189.4060  177.4710  137.8820 C   0  0  2  0  0  3  0  0  0  0  0  0
  188.5770  178.5940  139.9200 C   0  0  0  0  0  1  0  0  0  0  0  0
  191.3750  176.4320  138.8340 C   0  0  2  0  0  3  0  0  0  0  0  0
  190.6330  176.6540  137.5300 C   0  0  0  0  0  2  0  0  0  0  0  0
  190.7400  177.3840  139.8390 C   0  0  1  0  0  3  0  0  0  0  0  0
  189.7360  178.1870  139.1220 N   0  0  0  0  0  0  0  0  0  0  0  0
  192.7480  176.7530  138.6540 O   0  0  0  0  0  0  0  0  0  0  0  0
  194.0130  176.6270  136.7260 O   0  0  0  0  0  0  0  0  0  0  0  0
  193.5710  176.0590  137.7600 C   0  0  0  0  0  0  0  0  0  0  0  0
  193.9160  174.7290  138.0050 O   0  0  0  0  0  0  0  0  0  0  0  0
  195.4180  175.0990  139.7050 F   0  0  0  0  0  0  0  0  0  0  0  0
  195.1210  173.0120  138.9130 F   0  0  0  0  0  0  0  0  0  0  0  0
  195.1660  174.3490  138.5700 C   0  0  0  0  0  0  0  0  0  0  0  0
  196.1800  174.5460  137.6500 F   0  0  0  0  0  0  0  0  0  0  0  0
  190.2370  176.6460  141.0930 C   0  0  0  0  0  2  0  0  0  0  0  0
  190.7450  177.2560  142.3940 C   0  0  0  0  0  2  0  0  0  0  0  0
  190.6170  176.2570  143.5330 C   0  0  0  0  0  2  0  0  0  0  0  0
  184.0190  178.6790  145.5340 F   0  0  0  0  0  0  0  0  0  0  0  0
  186.1630  177.8770  144.8700 C   0  0  0  0  0  3  0  0  0  0  0  0
  187.4880  177.5810  145.1960 C   0  0  0  0  0  0  0  0  0  0  0  0
  188.3590  177.0680  144.2360 C   0  0  0  0  0  3  0  0  0  0  0  0
  189.6810  176.7720  144.5820 C   0  0  0  0  0  0  0  0  0  0  0  0
  191.2990  176.7430  146.2410 O   0  0  0  0  0  0  0  0  0  0  0  0
  185.7740  178.6190  147.1460 C   0  0  0  0  0  3  0  0  0  0  0  0
  190.1140  177.0030  145.9000 C   0  0  0  0  0  0  0  0  0  0  0  0
  187.1000  178.3230  147.4760 C   0  0  0  0  0  3  0  0  0  0  0  0
  187.9610  177.8040  146.5060 C   0  0  0  0  0  0  0  0  0  0  0  0
  189.2500  177.5090  146.8220 N   0  0  0  0  0  2  0  0  0  0  0  0
  185.3050  178.3960  145.8460 C   0  0  0  0  0  0  0  0  0  0  0  0
  188.2060  176.5270  138.0020 C   0  0  0  0  0  2  0  0  0  0  0  0
  186.3560  175.6850  136.7550 O   0  0  0  0  0  1  0  0  0  0  0  0
  187.1970  176.7910  136.8990 C   0  0  1  0  0  3  0  0  0  0  0  0
  186.3720  178.0120  137.2610 C   0  0  0  0  0  2  0  0  0  0  0  0
  184.9480  179.7360  139.0150 O   0  0  0  0  0  0  0  0  0  0  0  0
  185.2330  177.6180  138.0730 N   0  0  0  0  0  2  0  0  0  0  0  0
  184.5680  178.5380  138.9380 C   0  0  0  0  0  0  0  0  0  0  0  0
  183.4160  178.0770  139.7550 C   0  0  0  0  0  1  0  0  0  0  0  0
  1 30  1  1  0  0  0
  1  6  1  0  0  0  0
  3  7  1  6  0  0  0
  3  5  1  0  0  0  0
  4  1  1  0  0  0  0
  4  3  1  0  0  0  0
  5 15  1  1  0  0  0
  6  5  1  0  0  0  0
  6  2  1  0  0  0  0
  8  9  2  0  0  0  0
  9 10  1  0  0  0  0
  9  7  1  0  0  0  0
 10 13  1  0  0  0  0
 13 12  1  0  0  0  0
 13 11  1  0  0  0  0
 14 13  1  0  0  0  0
 15 16  1  0  0  0  0
 16 17  1  0  0  0  0
 17 22  1  0  0  0  0
 18 29  1  0  0  0  0
 19 20  2  0  0  0  0
 19 29  1  0  0  0  0
 20 27  1  0  0  0  0
 21 22  2  0  0  0  0
 21 20  1  0  0  0  0
 22 25  1  0  0  0  0
 24 26  1  0  0  0  0
 25 23  2  0  0  0  0
 25 28  1  0  0  0  0
 27 28  1  0  0  0  0
 27 26  2  0  0  0  0
 29 24  2  0  0  0  0
 32 31  1  1  0  0  0
 32 33  1  0  0  0  0
 32 30  1  0  0  0  0
 33 35  1  0  0  0  0
 35 36  1  0  0  0  0
 36 34  2  0  0  0  0
 36 37  1  0  0  0  0
M  END
>  <MODEL>
6

>  <REMARK>
 VINA RESULT:      -8.1      3.997      6.542
  Name = 
  12 active torsions:
  status: ('A' for Active; 'I' for Inactive)
    1  A    between atoms: C_1  and  C_31
    2  A    between atoms: O_4  and  C_7
    3  A    between atoms: O_4  and  C_11
    4  A    between atoms: C_11  and  O_28
    5  A    between atoms: C_13  and  C_17
    6  A    between atoms: C_16  and  C_18
    7  A    between atoms: C_17  and  C_34
    8  A    between atoms: C_18  and  C_34
    9  A    between atoms: N_20  and  C_29
   10  A    between atoms: C_24  and  C_29
   11  A    between atoms: C_24  and  C_31
   12  A    between atoms: C_25  and  O_28
                            x       y       z     vdW  Elec       q    Type
                         _______ _______ _______ _____ _____    ______ ____

>  <TORSDO>
F 12

$$$$
=
 OpenBabel11042412093D

 37 39  0  0  1  0  0  0  0  0999 V2000
  191.3700  177.2960  143.1080 C   0  0  2  0  0  3  0  0  0  0  0  0
  190.9520  179.5960  143.9070 C   0  0  0  0  0  1  0  0  0  0  0  0
  191.3410  176.1730  145.2540 C   0  0  2  0  0  3  0  0  0  0  0  0
  191.5880  175.9520  143.7730 C   0  0  0  0  0  2  0  0  0  0  0  0
  191.3020  177.6830  145.4460 C   0  0  1  0  0  3  0  0  0  0  0  0
  191.6060  178.3080  144.1480 N   0  0  0  0  0  0  0  0  0  0  0  0
  192.4140  175.6110  145.9980 O   0  0  0  0  0  0  0  0  0  0  0  0
  191.4230  175.1820  148.0400 O   0  0  0  0  0  0  0  0  0  0  0  0
  192.4270  175.5910  147.3970 C   0  0  0  0  0  0  0  0  0  0  0  0
  193.5550  176.0180  148.0990 O   0  0  0  0  0  0  0  0  0  0  0  0
  192.5320  177.4540  149.5750 F   0  0  0  0  0  0  0  0  0  0  0  0
  193.1700  175.4090  150.2680 F   0  0  0  0  0  0  0  0  0  0  0  0
  193.4970  176.4700  149.4480 C   0  0  0  0  0  0  0  0  0  0  0  0
  194.7270  176.9750  149.8310 F   0  0  0  0  0  0  0  0  0  0  0  0
  189.9980  178.1440  146.1230 C   0  0  0  0  0  2  0  0  0  0  0  0
  188.8230  177.2090  145.8630 C   0  0  0  0  0  2  0  0  0  0  0  0
  187.6610  177.5500  146.7820 C   0  0  0  0  0  2  0  0  0  0  0  0
  184.2060  178.1910  140.3750 F   0  0  0  0  0  0  0  0  0  0  0  0
  185.3400  177.9660  142.4590 C   0  0  0  0  0  3  0  0  0  0  0  0
  185.3590  178.1540  143.8420 C   0  0  0  0  0  0  0  0  0  0  0  0
  186.4590  177.7560  144.6000 C   0  0  0  0  0  3  0  0  0  0  0  0
  186.4580  177.9460  145.9840 C   0  0  0  0  0  0  0  0  0  0  0  0
  185.3100  178.7240  147.8410 O   0  0  0  0  0  0  0  0  0  0  0  0
  183.1360  178.9740  142.3560 C   0  0  0  0  0  3  0  0  0  0  0  0
  185.3400  178.5430  146.5950 C   0  0  0  0  0  0  0  0  0  0  0  0
  183.1510  179.1620  143.7420 C   0  0  0  0  0  3  0  0  0  0  0  0
  184.2580  178.7540  144.4900 C   0  0  0  0  0  0  0  0  0  0  0  0
  184.2760  178.9290  145.8380 N   0  0  0  0  0  2  0  0  0  0  0  0
  184.2280  178.3760  141.7160 C   0  0  0  0  0  0  0  0  0  0  0  0
  189.9570  177.3250  142.5140 C   0  0  0  0  0  2  0  0  0  0  0  0
  190.4980  176.3540  140.4050 O   0  0  0  0  0  1  0  0  0  0  0  0
  190.0080  177.5140  141.0080 C   0  0  1  0  0  3  0  0  0  0  0  0
  188.6090  177.8010  140.4960 C   0  0  0  0  0  2  0  0  0  0  0  0
  189.0600  179.4260  138.2090 O   0  0  0  0  0  0  0  0  0  0  0  0
  188.4830  177.3550  139.1190 N   0  0  0  0  0  2  0  0  0  0  0  0
  188.7200  178.2290  138.0170 C   0  0  0  0  0  0  0  0  0  0  0  0
  188.5630  177.7210  136.6290 C   0  0  0  0  0  1  0  0  0  0  0  0
  1 30  1  1  0  0  0
  1  4  1  0  0  0  0
  1  6  1  0  0  0  0
  2  6  1  0  0  0  0
  3  5  1  0  0  0  0
  3  7  1  1  0  0  0
  4  3  1  0  0  0  0
  5 15  1  6  0  0  0
  6  5  1  0  0  0  0
  7  9  1  0  0  0  0
  9  8  2  0  0  0  0
  9 10  1  0  0  0  0
 10 13  1  0  0  0  0
 13 11  1  0  0  0  0
 13 14  1  0  0  0  0
 13 12  1  0  0  0  0
 16 15  1  0  0  0  0
 16 17  1  0  0  0  0
 18 29  1  0  0  0  0
 19 20  1  0  0  0  0
 20 27  2  0  0  0  0
 20 21  1  0  0  0  0
 21 22  2  0  0  0  0
 22 25  1  0  0  0  0
 22 17  1  0  0  0  0
 24 26  2  0  0  0  0
 25 23  2  0  0  0  0
 26 27  1  0  0  0  0
 27 28  1  0  0  0  0
 28 25  1  0  0  0  0
 29 24  1  0  0  0  0
 29 19  2  0  0  0  0
 32 31  1  6  0  0  0
 32 30  1  0  0  0  0
 33 32  1  0  0  0  0
 35 33  1  0  0  0  0
 36 34  2  0  0  0  0
 36 35  1  0  0  0  0
 37 36  1  0  0  0  0
M  END
>  <MODEL>
7

>  <REMARK>
 VINA RESULT:      -8.0      1.925      2.689
  Name = 
  12 active torsions:
  status: ('A' for Active; 'I' for Inactive)
    1  A    between atoms: C_1  and  C_31
    2  A    between atoms: O_4  and  C_7
    3  A    between atoms: O_4  and  C_11
    4  A    between atoms: C_11  and  O_28
    5  A    between atoms: C_13  and  C_17
    6  A    between atoms: C_16  and  C_18
    7  A    between atoms: C_17  and  C_34
    8  A    between atoms: C_18  and  C_34
    9  A    between atoms: N_20  and  C_29
   10  A    between atoms: C_24  and  C_29
   11  A    between atoms: C_24  and  C_31
   12  A    between atoms: C_25  and  O_28
                            x       y       z     vdW  Elec       q    Type
                         _______ _______ _______ _____ _____    ______ ____

>  <TORSDO>
F 12

$$$$
=
 OpenBabel11042412093D

 37 39  0  0  1  0  0  0  0  0999 V2000
  190.0290  177.4550  139.1140 C   0  0  2  0  0  3  0  0  0  0  0  0
  188.4970  179.1460  138.1670 C   0  0  0  0  0  1  0  0  0  0  0  0
  189.0790  177.3310  141.3380 C   0  0  2  0  0  3  0  0  0  0  0  0
  190.2240  176.8270  140.4790 C   0  0  0  0  0  2  0  0  0  0  0  0
  188.4450  178.4720  140.5540 C   0  0  1  0  0  3  0  0  0  0  0  0
  189.2460  178.6780  139.3360 N   0  0  0  0  0  0  0  0  0  0  0  0
  189.5940  177.8110  142.5730 O   0  0  0  0  0  0  0  0  0  0  0  0
  191.5340  178.9930  142.9860 O   0  0  0  0  0  0  0  0  0  0  0  0
  190.9650  177.8780  142.8390 C   0  0  0  0  0  0  0  0  0  0  0  0
  191.7210  176.7100  142.9500 O   0  0  0  0  0  0  0  0  0  0  0  0
  190.9360  176.1270  145.0310 F   0  0  0  0  0  0  0  0  0  0  0  0
  190.3210  174.9250  143.2280 F   0  0  0  0  0  0  0  0  0  0  0  0
  191.3550  175.6350  143.8080 C   0  0  0  0  0  0  0  0  0  0  0  0
  192.4350  174.7890  143.9940 F   0  0  0  0  0  0  0  0  0  0  0  0
  186.9370  178.2510  140.3340 C   0  0  0  0  0  2  0  0  0  0  0  0
  186.0650  179.1070  141.2440 C   0  0  0  0  0  2  0  0  0  0  0  0
  185.1540  178.2280  142.0860 C   0  0  0  0  0  2  0  0  0  0  0  0
  189.6400  176.9790  147.7170 F   0  0  0  0  0  0  0  0  0  0  0  0
  188.1910  177.3900  145.8700 C   0  0  0  0  0  3  0  0  0  0  0  0
  186.9950  177.9120  145.3740 C   0  0  0  0  0  0  0  0  0  0  0  0
  186.6890  177.8260  144.0170 C   0  0  0  0  0  3  0  0  0  0  0  0
  185.4900  178.3600  143.5380 C   0  0  0  0  0  0  0  0  0  0  0  0
  183.5170  179.4700  144.0370 O   0  0  0  0  0  0  0  0  0  0  0  0
  187.5700  178.0960  148.1050 C   0  0  0  0  0  3  0  0  0  0  0  0
  184.6040  178.9780  144.4400 C   0  0  0  0  0  0  0  0  0  0  0  0
  186.3720  178.6220  147.6120 C   0  0  0  0  0  3  0  0  0  0  0  0
  186.0800  178.5340  146.2490 C   0  0  0  0  0  0  0  0  0  0  0  0
  184.9190  179.0480  145.7630 N   0  0  0  0  0  2  0  0  0  0  0  0
  188.4790  177.4810  147.2350 C   0  0  0  0  0  0  0  0  0  0  0  0
  189.3500  176.4320  138.1970 C   0  0  0  0  0  2  0  0  0  0  0  0
  189.5310  174.2340  137.2920 O   0  0  0  0  0  1  0  0  0  0  0  0
  190.2340  175.2140  137.9960 C   0  0  1  0  0  3  0  0  0  0  0  0
  191.4660  175.6200  137.2090 C   0  0  0  0  0  2  0  0  0  0  0  0
  194.1410  176.5030  136.8290 O   0  0  0  0  0  0  0  0  0  0  0  0
  192.6440  174.9720  137.7620 N   0  0  0  0  0  2  0  0  0  0  0  0
  193.9600  175.4680  137.5250 C   0  0  0  0  0  0  0  0  0  0  0  0
  195.1290  174.7580  138.1060 C   0  0  0  0  0  1  0  0  0  0  0  0
  1 30  1  6  0  0  0
  1  6  1  0  0  0  0
  1  4  1  0  0  0  0
  2  6  1  0  0  0  0
  3  7  1  1  0  0  0
  4  3  1  0  0  0  0
  5 15  1  6  0  0  0
  5  3  1  0  0  0  0
  6  5  1  0  0  0  0
  7  9  1  0  0  0  0
  9 10  1  0  0  0  0
  9  8  2  0  0  0  0
 10 13  1  0  0  0  0
 12 13  1  0  0  0  0
 13 14  1  0  0  0  0
 13 11  1  0  0  0  0
 15 16  1  0  0  0  0
 16 17  1  0  0  0  0
 17 22  1  0  0  0  0
 19 29  1  0  0  0  0
 20 19  2  0  0  0  0
 20 27  1  0  0  0  0
 21 20  1  0  0  0  0
 22 21  2  0  0  0  0
 22 25  1  0  0  0  0
 23 25  2  0  0  0  0
 25 28  1  0  0  0  0
 26 24  1  0  0  0  0
 27 26  2  0  0  0  0
 28 27  1  0  0  0  0
 29 18  1  0  0  0  0
 29 24  2  0  0  0  0
 32 31  1  6  0  0  0
 32 30  1  0  0  0  0
 33 35  1  0  0  0  0
 33 32  1  0  0  0  0
 34 36  2  0  0  0  0
 36 35  1  0  0  0  0
 36 37  1  0  0  0  0
M  END
>  <MODEL>
8

>  <REMARK>
 VINA RESULT:      -8.0      2.847      5.021
  Name = 
  12 active torsions:
  status: ('A' for Active; 'I' for Inactive)
    1  A    between atoms: C_1  and  C_31
    2  A    between atoms: O_4  and  C_7
    3  A    between atoms: O_4  and  C_11
    4  A    between atoms: C_11  and  O_28
    5  A    between atoms: C_13  and  C_17
    6  A    between atoms: C_16  and  C_18
    7  A    between atoms: C_17  and  C_34
    8  A    between atoms: C_18  and  C_34
    9  A    between atoms: N_20  and  C_29
   10  A    between atoms: C_24  and  C_29
   11  A    between atoms: C_24  and  C_31
   12  A    between atoms: C_25  and  O_28
                            x       y       z     vdW  Elec       q    Type
                         _______ _______ _______ _____ _____    ______ ____

>  <TORSDO>
F 12

$$$$
=
 OpenBabel11042412093D

 37 39  0  0  1  0  0  0  0  0999 V2000
  183.4720  178.2480  138.1330 C   0  0  2  0  0  3  0  0  0  0  0  0
  182.2160  179.4540  139.8860 C   0  0  0  0  0  1  0  0  0  0  0  0
  185.5640  177.9820  139.3250 C   0  0  2  0  0  3  0  0  0  0  0  0
  184.8950  177.7480  137.9840 C   0  0  0  0  0  2  0  0  0  0  0  0
  184.6220  178.8910  140.1040 C   0  0  1  0  0  3  0  0  0  0  0  0
  183.5010  179.2410  139.2150 N   0  0  0  0  0  0  0  0  0  0  0  0
  186.8120  178.6290  139.1220 O   0  0  0  0  0  0  0  0  0  0  0  0
  188.1900  176.9510  138.3330 O   0  0  0  0  0  0  0  0  0  0  0  0
  188.0250  177.9320  139.1070 C   0  0  0  0  0  0  0  0  0  0  0  0
  189.0720  178.3180  139.9450 O   0  0  0  0  0  0  0  0  0  0  0  0
  189.4270  178.6350  142.1940 F   0  0  0  0  0  0  0  0  0  0  0  0
  188.2990  176.8180  141.4870 F   0  0  0  0  0  0  0  0  0  0  0  0
  189.3340  177.6850  141.1930 C   0  0  0  0  0  0  0  0  0  0  0  0
  190.5160  176.9690  141.1210 F   0  0  0  0  0  0  0  0  0  0  0  0
  184.2330  178.2860  141.4660 C   0  0  0  0  0  2  0  0  0  0  0  0
  185.3820  178.2730  142.4670 C   0  0  0  0  0  2  0  0  0  0  0  0
  184.8640  178.5400  143.8710 C   0  0  0  0  0  2  0  0  0  0  0  0
  191.6500  176.4190  145.5560 F   0  0  0  0  0  0  0  0  0  0  0  0
  189.4430  177.1200  144.9920 C   0  0  0  0  0  3  0  0  0  0  0  0
  188.1780  177.5480  145.3990 C   0  0  0  0  0  0  0  0  0  0  0  0
  187.1880  177.8360  144.4610 C   0  0  0  0  0  3  0  0  0  0  0  0
  185.9300  178.2700  144.8860 C   0  0  0  0  0  0  0  0  0  0  0  0
  184.5560  178.7970  146.6760 O   0  0  0  0  0  0  0  0  0  0  0  0
  190.1350  176.9700  147.3110 C   0  0  0  0  0  3  0  0  0  0  0  0
  185.6800  178.4060  146.2640 C   0  0  0  0  0  0  0  0  0  0  0  0
  188.8690  177.4000  147.7230 C   0  0  0  0  0  3  0  0  0  0  0  0
  187.8880  177.6910  146.7720 C   0  0  0  0  0  0  0  0  0  0  0  0
  186.6580  178.1150  147.1650 N   0  0  0  0  0  2  0  0  0  0  0  0
  190.4220  176.8310  145.9490 C   0  0  0  0  0  0  0  0  0  0  0  0
  182.5580  177.0490  138.4070 C   0  0  0  0  0  2  0  0  0  0  0  0
  182.3960  176.9160  136.0320 O   0  0  0  0  0  1  0  0  0  0  0  0
  181.6650  176.7650  137.2120 C   0  0  1  0  0  3  0  0  0  0  0  0
  181.1430  175.3440  137.3080 C   0  0  0  0  0  2  0  0  0  0  0  0
  178.9310  173.7450  138.0990 O   0  0  0  0  0  0  0  0  0  0  0  0
  180.7850  175.0380  138.6830 N   0  0  0  0  0  2  0  0  0  0  0  0
  179.6540  174.2310  139.0070 C   0  0  0  0  0  0  0  0  0  0  0  0
  179.3290  173.9620  140.4320 C   0  0  0  0  0  1  0  0  0  0  0  0
  1 30  1  1  0  0  0
  1  6  1  0  0  0  0
  3  7  1  6  0  0  0
  3  5  1  0  0  0  0
  4  1  1  0  0  0  0
  4  3  1  0  0  0  0
  5 15  1  1  0  0  0
  6  2  1  0  0  0  0
  6  5  1  0  0  0  0
  8  9  2  0  0  0  0
  9  7  1  0  0  0  0
  9 10  1  0  0  0  0
 10 13  1  0  0  0  0
 13 12  1  0  0  0  0
 13 11  1  0  0  0  0
 14 13  1  0  0  0  0
 15 16  1  0  0  0  0
 16 17  1  0  0  0  0
 17 22  1  0  0  0  0
 18 29  1  0  0  0  0
 19 20  2  0  0  0  0
 19 29  1  0  0  0  0
 20 27  1  0  0  0  0
 21 22  2  0  0  0  0
 21 20  1  0  0  0  0
 22 25  1  0  0  0  0
 24 26  1  0  0  0  0
 25 23  2  0  0  0  0
 25 28  1  0  0  0  0
 27 28  1  0  0  0  0
 27 26  2  0  0  0  0
 29 24  2  0  0  0  0
 32 31  1  6  0  0  0
 32 33  1  0  0  0  0
 32 30  1  0  0  0  0
 33 35  1  0  0  0  0
 34 36  2  0  0  0  0
 35 36  1  0  0  0  0
 36 37  1  0  0  0  0
M  END
>  <MODEL>
9

>  <REMARK>
 VINA RESULT:      -7.9      3.848      7.379
  Name = 
  12 active torsions:
  status: ('A' for Active; 'I' for Inactive)
    1  A    between atoms: C_1  and  C_31
    2  A    between atoms: O_4  and  C_7
    3  A    between atoms: O_4  and  C_11
    4  A    between atoms: C_11  and  O_28
    5  A    between atoms: C_13  and  C_17
    6  A    between atoms: C_16  and  C_18
    7  A    between atoms: C_17  and  C_34
    8  A    between atoms: C_18  and  C_34
    9  A    between atoms: N_20  and  C_29
   10  A    between atoms: C_24  and  C_29
   11  A    between atoms: C_24  and  C_31
   12  A    between atoms: C_25  and  O_28
                            x       y       z     vdW  Elec       q    Type
                         _______ _______ _______ _____ _____    ______ ____

>  <TORSDO>
F 12

$$$$
