=
 OpenBabel11042410093D

 62 69  0  0  1  0  0  0  0  0999 V2000
  186.8120  178.1020  142.5750 C   0  0  0  0  0  3  0  0  0  0  0  0
  190.1240  176.5630  138.9120 N   0  0  0  0  0  2  0  0  0  0  0  0
  190.4160  177.2420  142.9570 C   0  0  0  0  0  0  0  0  0  0  0  0
  186.6800  178.3030  141.1770 C   0  0  0  0  0  0  0  0  0  0  0  0
  184.4370  179.3420  140.1370 C   0  0  0  0  0  3  0  0  0  0  0  0
  191.4650  177.0510  142.1390 N   0  0  0  0  0  0  0  0  0  0  0  0
  191.3680  177.1160  140.7550 N   0  0  0  0  0  0  0  0  0  0  0  0
  188.9580  177.4730  140.9710 C   0  0  2  0  0  3  0  0  0  0  0  0
  189.2550  177.9430  142.3410 C   0  0  1  0  0  3  0  0  0  0  0  0
  190.2370  177.2490  140.1330 C   0  0  0  0  0  0  0  0  0  0  0  0
  187.8940  178.2250  140.3070 C   0  0  0  0  0  2  0  0  0  0  0  0
  190.3790  176.6650  144.2710 N   0  0  0  0  0  2  0  0  0  0  0  0
  188.0170  177.9310  143.0650 N   0  0  0  0  0  0  0  0  0  0  0  0
  185.4800  178.7220  140.6660 C   0  0  0  0  0  0  0  0  0  0  0  0
  190.9060  177.3630  147.9010 C   0  0  0  0  0  0  0  0  0  0  0  0
  192.2860  177.3950  149.9210 C   0  0  0  0  0  1  0  0  0  0  0  0
  192.8440  175.9250  148.1210 C   0  0  0  0  0  3  0  0  0  0  0  0
  192.0990  175.5450  145.7400 C   0  0  0  0  0  3  0  0  0  0  0  0
  192.7350  175.2110  146.8560 C   0  0  0  0  0  3  0  0  0  0  0  0
  189.9900  178.2190  148.4780 N   0  0  0  0  0  0  0  0  0  0  0  0
  191.3200  176.7640  145.4420 C   0  0  2  0  0  3  0  0  0  0  0  0
  190.5270  177.2520  146.5650 N   0  0  0  0  0  0  0  0  0  0  0  0
  192.0700  176.8790  148.5760 C   0  0  0  0  0  0  0  0  0  0  0  0
  189.4600  177.9530  146.3220 N   0  0  0  0  0  0  0  0  0  0  0  0
  189.1360  178.5410  147.4840 C   0  0  0  0  0  3  0  0  0  0  0  0
  182.9430  179.2450  139.7110 C   0  0  0  0  0  0  0  0  0  0  0  0
  182.7450  179.9040  138.6520 O   0  0  0  0  0  0  0  0  0  0  0  0
  181.8150  178.5740  140.3810 N   0  0  0  0  0  2  0  0  0  0  0  0
  179.7200  178.1910  137.4020 C   0  0  0  0  0  0  0  0  0  0  0  0
  180.4760  175.4070  137.6780 C   0  0  0  0  0  3  0  0  0  0  0  0
  179.6770  174.9800  135.3230 C   0  0  0  0  0  1  0  0  0  0  0  0
  180.3690  178.6370  139.8450 C   0  0  2  0  0  0  0  0  0  0  0  0
  179.4200  175.7700  136.6460 C   0  0  2  0  0  3  0  0  0  0  0  0
  179.4510  177.2500  136.3700 C   0  0  0  0  0  0  0  0  0  0  0  0
  178.9310  177.6840  135.3300 O   0  0  0  0  0  0  0  0  0  0  0  0
  179.1250  180.3350  138.3060 C   0  0  0  0  0  3  0  0  0  0  0  0
  180.8890  176.3940  138.5420 C   0  0  0  0  0  3  0  0  0  0  0  0
  180.3400  177.8000  138.5560 C   0  0  0  0  0  0  0  0  0  0  0  0
  180.0600  180.1160  139.4440 C   0  0  0  0  0  2  0  0  0  0  0  0
  179.0020  179.4970  137.2790 C   0  0  0  0  0  3  0  0  0  0  0  0
  179.0370  179.0770  141.7560 O   0  0  0  0  0  1  0  0  0  0  0  0
  179.3510  178.1840  140.8900 C   0  0  0  0  0  0  0  0  0  0  0  0
  179.1760  176.8600  141.2790 O   0  0  0  0  0  0  0  0  0  0  0  0
  190.9700  176.7480  137.7640 C   0  0  0  0  0  2  0  0  0  0  0  0
  191.2390  175.3920  137.0260 C   0  0  0  0  0  2  0  0  0  0  0  0
  188.8440  174.5430  136.7520 N   0  0  0  0  0  2  0  0  0  0  0  0
  190.0060  175.6520  135.0780 O   0  0  0  0  0  0  0  0  0  0  0  0
  190.0010  175.2070  136.2110 C   0  0  0  0  0  0  0  0  0  0  0  0
  186.6950  173.3730  137.9390 O   0  0  0  0  0  1  0  0  0  0  0  0
  184.8060  174.8760  135.2150 O   0  0  0  0  0  1  0  0  0  0  0  0
  185.1900  173.9870  136.2230 C   0  0  1  0  0  3  0  0  0  0  0  0
  187.7380  172.8040  135.2890 C   0  0  0  0  0  2  0  0  0  0  0  0
  186.3800  172.4570  134.5940 C   0  0  0  0  0  2  0  0  0  0  0  0
  187.6640  174.2260  135.9530 C   0  0  1  0  0  3  0  0  0  0  0  0
  185.2710  172.5960  135.6350 C   0  0  2  0  0  3  0  0  0  0  0  0
  186.4920  174.2960  136.9230 C   0  0  2  0  0  3  0  0  0  0  0  0
  183.9470  171.9860  135.3460 N   0  0  1  0  0  0  0  0  0  0  0  0
  184.0700  170.8500  134.5940 O   0  0  0  0  0  0  0  0  0  0  0  0
  181.5640  171.5670  135.9630 C   0  0  0  0  0  2  0  0  0  0  0  0
  182.9340  172.0090  136.4270 C   0  0  0  0  0  2  0  0  0  0  0  0
  181.7160  170.3890  134.9330 C   0  0  0  0  0  2  0  0  0  0  0  0
  183.1150  169.8800  134.9970 C   0  0  0  0  0  2  0  0  0  0  0  0
  1 13  2  0  0  0  0
  2 10  1  0  0  0  0
  3 12  1  0  0  0  0
  4  1  1  0  0  0  0
  5 14  2  0  0  0  0
  6  3  2  0  0  0  0
  7  6  1  0  0  0  0
  8 11  1  6  0  0  0
  8  9  1  0  0  0  0
  9  3  1  1  0  0  0
  9 13  1  0  0  0  0
 10  7  2  0  0  0  0
 10  8  1  0  0  0  0
 11  4  1  0  0  0  0
 14  4  2  0  0  0  0
 15 20  2  0  0  0  0
 15 23  1  0  0  0  0
 17 23  2  0  0  0  0
 18 19  2  0  0  0  0
 19 17  1  0  0  0  0
 21 12  1  6  0  0  0
 21 18  1  0  0  0  0
 21 22  1  0  0  0  0
 22 15  1  0  0  0  0
 23 16  1  0  0  0  0
 24 22  1  0  0  0  0
 24 25  2  0  0  0  0
 25 20  1  0  0  0  0
 26  5  1  0  0  0  0
 26 28  1  0  0  0  0
 27 26  2  0  0  0  0
 29 38  2  0  0  0  0
 30 37  2  0  0  0  0
 32 28  1  1  0  0  0
 32 42  1  0  0  0  0
 33 31  1  6  0  0  0
 33 30  1  0  0  0  0
 34 33  1  0  0  0  0
 34 29  1  0  0  0  0
 35 34  2  0  0  0  0
 36 39  1  0  0  0  0
 37 38  1  0  0  0  0
 38 32  1  0  0  0  0
 39 32  1  0  0  0  0
 40 29  1  0  0  0  0
 40 36  2  0  0  0  0
 42 43  2  0  0  0  0
 42 41  1  0  0  0  0
 44  2  1  0  0  0  0
 45 44  1  0  0  0  0
 47 48  2  0  0  0  0
 48 46  1  0  0  0  0
 48 45  1  0  0  0  0
 51 50  1  6  0  0  0
 51 56  1  0  0  0  0
 52 54  1  0  0  0  0
 53 52  1  0  0  0  0
 54 46  1  1  0  0  0
 54 56  1  0  0  0  0
 55 53  1  6  0  0  0
 55 51  1  0  0  0  0
 56 49  1  1  0  0  0
 57 55  1  0  0  0  0
 57 60  1  1  0  0  0
 58 62  1  0  0  0  0
 58 57  1  0  0  0  0
 59 60  1  0  0  0  0
 61 62  1  0  0  0  0
 61 59  1  0  0  0  0
M  END
>  <MODEL>
1

>  <REMARK>
 VINA RESULT:      -6.7      0.000      0.000
  Name = 
  9 active torsions:
  status: ('A' for Active; 'I' for Inactive)
    1  A    between atoms: N_5  and  C_51
    2  A    between atoms: C_7  and  N_33
    3  A    between atoms: C_7  and  C_52
    4  A    between atoms: C_10  and  C_18
    5  A    between atoms: N_16  and  C_41
    6  A    between atoms: N_21  and  C_50
    7  A    between atoms: N_43  and  C_56
    8  A    between atoms: C_49  and  C_53
    9  A    between atoms: C_51  and  C_53
                            x       y       z     vdW  Elec       q    Type
                         _______ _______ _______ _____ _____    ______ ____

>  <TORSDO>
F 9

$$$$
=
 OpenBabel11042410093D

 62 69  0  0  1  0  0  0  0  0999 V2000
  189.4430  175.0630  136.3400 C   0  0  0  0  0  3  0  0  0  0  0  0
  190.0970  178.0680  140.4990 N   0  0  0  0  0  2  0  0  0  0  0  0
  192.6440  176.2400  137.8380 C   0  0  0  0  0  0  0  0  0  0  0  0
  188.5050  175.2790  137.3820 C   0  0  0  0  0  0  0  0  0  0  0  0
  186.0090  174.3160  137.2170 C   0  0  0  0  0  3  0  0  0  0  0  0
  193.0280  176.8080  138.9940 N   0  0  0  0  0  0  0  0  0  0  0  0
  192.1380  177.1530  140.0020 N   0  0  0  0  0  0  0  0  0  0  0  0
  190.2890  176.4290  138.5740 C   0  0  2  0  0  3  0  0  0  0  0  0
  191.2930  175.6100  137.8640 C   0  0  1  0  0  3  0  0  0  0  0  0
  190.8500  177.0650  139.8660 C   0  0  0  0  0  0  0  0  0  0  0  0
  188.9850  175.7800  138.7080 C   0  0  0  0  0  2  0  0  0  0  0  0
  193.4230  176.3800  136.6420 N   0  0  0  0  0  2  0  0  0  0  0  0
  190.7170  175.2360  136.6060 N   0  0  0  0  0  0  0  0  0  0  0  0
  187.2060  174.8790  137.2150 C   0  0  0  0  0  0  0  0  0  0  0  0
  195.9760  173.8890  135.5380 C   0  0  0  0  0  0  0  0  0  0  0  0
  198.2370  173.2730  134.8370 C   0  0  0  0  0  1  0  0  0  0  0  0
  197.4890  175.5290  134.5930 C   0  0  0  0  0  3  0  0  0  0  0  0
  195.4970  176.9080  135.3050 C   0  0  0  0  0  3  0  0  0  0  0  0
  196.5960  176.6810  134.5950 C   0  0  0  0  0  3  0  0  0  0  0  0
  195.6650  172.5690  135.7970 N   0  0  0  0  0  0  0  0  0  0  0  0
  194.8600  176.0580  136.3300 C   0  0  2  0  0  3  0  0  0  0  0  0
  194.9040  174.6300  136.0320 N   0  0  0  0  0  0  0  0  0  0  0  0
  197.2390  174.3170  135.0240 C   0  0  0  0  0  0  0  0  0  0  0  0
  193.9910  173.8550  136.5350 N   0  0  0  0  0  0  0  0  0  0  0  0
  194.4550  172.6040  136.3940 C   0  0  0  0  0  3  0  0  0  0  0  0
  184.5590  174.3370  136.6500 C   0  0  0  0  0  0  0  0  0  0  0  0
  184.5590  174.7610  135.4600 O   0  0  0  0  0  0  0  0  0  0  0  0
  183.2850  174.0020  137.3100 N   0  0  0  0  0  2  0  0  0  0  0  0
  180.3660  176.1710  136.8860 C   0  0  0  0  0  0  0  0  0  0  0  0
  182.2810  177.8640  135.5200 C   0  0  0  0  0  3  0  0  0  0  0  0
  180.6570  179.7880  135.6750 C   0  0  0  0  0  1  0  0  0  0  0  0
  181.9180  174.1460  136.6080 C   0  0  2  0  0  0  0  0  0  0  0  0
  180.8110  178.2480  135.4670 C   0  0  2  0  0  3  0  0  0  0  0  0
  180.0430  177.5110  136.5320 C   0  0  0  0  0  0  0  0  0  0  0  0
  178.9310  177.9360  136.8820 O   0  0  0  0  0  0  0  0  0  0  0  0
  179.4620  174.0260  137.4770 C   0  0  0  0  0  3  0  0  0  0  0  0
  182.6020  176.6430  136.0670 C   0  0  0  0  0  3  0  0  0  0  0  0
  181.5920  175.6470  136.5830 C   0  0  0  0  0  0  0  0  0  0  0  0
  180.8360  173.4520  137.4990 C   0  0  0  0  0  2  0  0  0  0  0  0
  179.2040  175.3170  137.2830 C   0  0  0  0  0  3  0  0  0  0  0  0
  180.7780  173.5150  134.6270 O   0  0  0  0  0  0  0  0  0  0  0  0
  181.9130  173.4960  135.2260 C   0  0  0  0  0  0  0  0  0  0  0  0
  182.8010  172.4980  134.8350 O   0  0  0  0  0  1  0  0  0  0  0  0
  190.0970  178.3540  141.9080 C   0  0  0  0  0  2  0  0  0  0  0  0
  189.9090  177.0510  142.7580 C   0  0  0  0  0  2  0  0  0  0  0  0
  187.5370  177.8800  142.2900 N   0  0  0  0  0  2  0  0  0  0  0  0
  188.0200  175.7340  143.0280 O   0  0  0  0  0  0  0  0  0  0  0  0
  188.4330  176.8340  142.7100 C   0  0  0  0  0  0  0  0  0  0  0  0
  185.9750  179.8310  141.2190 O   0  0  0  0  0  1  0  0  0  0  0  0
  183.4870  177.1930  140.9110 O   0  0  0  0  0  1  0  0  0  0  0  0
  184.0560  178.4600  141.0710 C   0  0  1  0  0  3  0  0  0  0  0  0
  185.4730  178.3530  143.6690 C   0  0  0  0  0  2  0  0  0  0  0  0
  183.9100  178.3430  143.5970 C   0  0  0  0  0  2  0  0  0  0  0  0
  186.0840  177.7530  142.3520 C   0  0  1  0  0  3  0  0  0  0  0  0
  183.4950  179.0860  142.3280 C   0  0  2  0  0  3  0  0  0  0  0  0
  185.5650  178.5090  141.1360 C   0  0  2  0  0  3  0  0  0  0  0  0
  182.0830  179.5330  142.1990 N   0  0  1  0  0  0  0  0  0  0  0  0
  181.5590  179.1990  140.9800 O   0  0  0  0  0  0  0  0  0  0  0  0
  179.8770  180.0940  143.2240 C   0  0  0  0  0  2  0  0  0  0  0  0
  181.2170  179.4150  143.3950 C   0  0  0  0  0  2  0  0  0  0  0  0
  179.3670  179.8830  141.7530 C   0  0  0  0  0  2  0  0  0  0  0  0
  180.1950  178.8240  141.1110 C   0  0  0  0  0  2  0  0  0  0  0  0
  1 13  2  0  0  0  0
  1  4  1  0  0  0  0
  2 44  1  0  0  0  0
  3  9  1  0  0  0  0
  3  6  2  0  0  0  0
  4 11  1  0  0  0  0
  6  7  1  0  0  0  0
  8 11  1  1  0  0  0
  8 10  1  0  0  0  0
  9 13  1  6  0  0  0
  9  8  1  0  0  0  0
 10  7  2  0  0  0  0
 10  2  1  0  0  0  0
 12  3  1  0  0  0  0
 14  5  2  0  0  0  0
 14  4  2  0  0  0  0
 15 20  2  0  0  0  0
 15 22  1  0  0  0  0
 16 23  1  0  0  0  0
 17 19  1  0  0  0  0
 17 23  2  0  0  0  0
 18 21  1  0  0  0  0
 19 18  2  0  0  0  0
 20 25  1  0  0  0  0
 21 12  1  6  0  0  0
 22 21  1  0  0  0  0
 22 24  1  0  0  0  0
 23 15  1  0  0  0  0
 25 24  2  0  0  0  0
 26  5  1  0  0  0  0
 26 28  1  0  0  0  0
 27 26  2  0  0  0  0
 29 40  1  0  0  0  0
 30 37  2  0  0  0  0
 32 42  1  6  0  0  0
 32 28  1  0  0  0  0
 32 39  1  0  0  0  0
 33 30  1  0  0  0  0
 33 31  1  1  0  0  0
 33 34  1  0  0  0  0
 34 35  2  0  0  0  0
 34 29  1  0  0  0  0
 36 39  1  0  0  0  0
 37 38  1  0  0  0  0
 38 32  1  0  0  0  0
 38 29  2  0  0  0  0
 40 36  2  0  0  0  0
 41 42  2  0  0  0  0
 43 42  1  0  0  0  0
 44 45  1  0  0  0  0
 46 48  1  0  0  0  0
 48 45  1  0  0  0  0
 48 47  2  0  0  0  0
 51 50  1  1  0  0  0
 51 56  1  0  0  0  0
 51 55  1  0  0  0  0
 53 52  1  0  0  0  0
 54 46  1  1  0  0  0
 54 52  1  0  0  0  0
 55 53  1  1  0  0  0
 56 49  1  1  0  0  0
 56 54  1  0  0  0  0
 57 55  1  0  0  0  0
 57 60  1  1  0  0  0
 58 62  1  0  0  0  0
 58 57  1  0  0  0  0
 59 60  1  0  0  0  0
 61 59  1  0  0  0  0
 62 61  1  0  0  0  0
M  END
>  <MODEL>
2

>  <REMARK>
 VINA RESULT:      -5.5      3.188      8.388
  Name = 
  9 active torsions:
  status: ('A' for Active; 'I' for Inactive)
    1  A    between atoms: N_5  and  C_51
    2  A    between atoms: C_7  and  N_33
    3  A    between atoms: C_7  and  C_52
    4  A    between atoms: C_10  and  C_18
    5  A    between atoms: N_16  and  C_41
    6  A    between atoms: N_21  and  C_50
    7  A    between atoms: N_43  and  C_56
    8  A    between atoms: C_49  and  C_53
    9  A    between atoms: C_51  and  C_53
                            x       y       z     vdW  Elec       q    Type
                         _______ _______ _______ _____ _____    ______ ____

>  <TORSDO>
F 9

$$$$
=
 OpenBabel11042410093D

 62 69  0  0  1  0  0  0  0  0999 V2000
  185.8420  178.0260  143.4950 C   0  0  0  0  0  3  0  0  0  0  0  0
  189.8990  176.7550  140.5490 N   0  0  0  0  0  2  0  0  0  0  0  0
  189.3410  177.3530  144.5790 C   0  0  0  0  0  0  0  0  0  0  0  0
  185.9780  178.2530  142.1010 C   0  0  0  0  0  0  0  0  0  0  0  0
  183.9320  179.1920  140.6470 C   0  0  0  0  0  3  0  0  0  0  0  0
  190.5410  177.2380  143.9850 N   0  0  0  0  0  0  0  0  0  0  0  0
  190.7180  177.3310  142.6100 N   0  0  0  0  0  0  0  0  0  0  0  0
  188.2960  177.5520  142.3450 C   0  0  2  0  0  3  0  0  0  0  0  0
  188.2870  178.0040  143.7510 C   0  0  1  0  0  3  0  0  0  0  0  0
  189.7270  177.4170  141.7760 C   0  0  0  0  0  0  0  0  0  0  0  0
  187.3440  178.2600  141.4900 C   0  0  0  0  0  2  0  0  0  0  0  0
  189.0780  176.7450  145.8510 N   0  0  0  0  0  2  0  0  0  0  0  0
  186.9330  177.9090  144.2140 N   0  0  0  0  0  0  0  0  0  0  0  0
  184.8820  178.6180  141.3660 C   0  0  0  0  0  0  0  0  0  0  0  0
  192.1950  176.4740  147.8900 C   0  0  0  0  0  0  0  0  0  0  0  0
  193.4630  176.7930  149.9570 C   0  0  0  0  0  1  0  0  0  0  0  0
  191.5280  178.1290  149.5300 C   0  0  0  0  0  3  0  0  0  0  0  0
  189.6520  178.1860  147.8410 C   0  0  0  0  0  3  0  0  0  0  0  0
  190.3890  178.6970  148.8210 C   0  0  0  0  0  3  0  0  0  0  0  0
  193.1370  175.5840  147.4140 N   0  0  0  0  0  0  0  0  0  0  0  0
  189.7590  176.8660  147.1880 C   0  0  2  0  0  3  0  0  0  0  0  0
  191.1310  176.4080  146.9920 N   0  0  0  0  0  0  0  0  0  0  0  0
  192.3050  177.1460  149.1470 C   0  0  0  0  0  0  0  0  0  0  0  0
  191.3830  175.5750  146.0280 N   0  0  0  0  0  0  0  0  0  0  0  0
  192.6000  175.0740  146.2860 C   0  0  0  0  0  3  0  0  0  0  0  0
  182.5600  179.0240  139.9300 C   0  0  0  0  0  0  0  0  0  0  0  0
  181.6440  178.8280  140.7760 O   0  0  0  0  0  0  0  0  0  0  0  0
  182.2450  179.0130  138.4900 N   0  0  0  0  0  2  0  0  0  0  0  0
  180.0350  176.5400  136.9370 C   0  0  0  0  0  0  0  0  0  0  0  0
  180.2750  175.2460  139.5190 C   0  0  0  0  0  3  0  0  0  0  0  0
  179.3480  173.1240  138.5160 C   0  0  0  0  0  1  0  0  0  0  0  0
  180.8220  178.7640  137.9490 C   0  0  2  0  0  0  0  0  0  0  0  0
  179.2750  174.6850  138.5200 C   0  0  2  0  0  3  0  0  0  0  0  0
  179.5700  175.2110  137.1400 C   0  0  0  0  0  0  0  0  0  0  0  0
  179.1100  174.6160  136.1520 O   0  0  0  0  0  0  0  0  0  0  0  0
  179.8690  178.4850  135.5370 C   0  0  0  0  0  3  0  0  0  0  0  0
  180.8850  176.4390  139.2090 C   0  0  0  0  0  3  0  0  0  0  0  0
  180.6040  177.2430  137.9630 C   0  0  0  0  0  0  0  0  0  0  0  0
  180.7790  179.2250  136.4550 C   0  0  0  0  0  2  0  0  0  0  0  0
  179.5660  177.1960  135.6780 C   0  0  0  0  0  3  0  0  0  0  0  0
  179.1480  178.8520  139.6270 O   0  0  0  0  0  1  0  0  0  0  0  0
  179.7670  179.5390  138.7370 C   0  0  0  0  0  0  0  0  0  0  0  0
  179.0990  180.6570  138.2460 O   0  0  0  0  0  0  0  0  0  0  0  0
  190.9440  177.0130  139.5950 C   0  0  0  0  0  2  0  0  0  0  0  0
  190.4050  177.8030  138.3540 C   0  0  0  0  0  2  0  0  0  0  0  0
  188.2870  177.0180  137.1600 N   0  0  0  0  0  2  0  0  0  0  0  0
  190.1850  175.7050  137.3910 O   0  0  0  0  0  0  0  0  0  0  0  0
  189.6300  176.7660  137.6110 C   0  0  0  0  0  0  0  0  0  0  0  0
  185.6690  176.8220  137.8710 O   0  0  0  0  0  1  0  0  0  0  0  0
  185.2490  175.2960  134.5940 O   0  0  0  0  0  1  0  0  0  0  0  0
  185.0530  175.5990  135.9440 C   0  0  1  0  0  3  0  0  0  0  0  0
  187.4880  174.6260  137.3210 C   0  0  0  0  0  2  0  0  0  0  0  0
  186.4430  173.6280  136.7170 C   0  0  0  0  0  2  0  0  0  0  0  0
  187.4490  175.9920  136.5460 C   0  0  1  0  0  3  0  0  0  0  0  0
  185.0780  174.3120  136.7370 C   0  0  2  0  0  3  0  0  0  0  0  0
  186.0380  176.5670  136.5590 C   0  0  2  0  0  3  0  0  0  0  0  0
  183.8630  173.4730  136.5600 N   0  0  1  0  0  0  0  0  0  0  0  0
  182.8480  174.1760  135.9720 O   0  0  0  0  0  0  0  0  0  0  0  0
  182.7890  171.2440  136.2270 C   0  0  0  0  0  2  0  0  0  0  0  0
  184.0620  172.0590  136.1660 C   0  0  0  0  0  2  0  0  0  0  0  0
  181.5810  172.1240  135.7420 C   0  0  0  0  0  2  0  0  0  0  0  0
  182.1190  173.3450  135.0800 C   0  0  0  0  0  2  0  0  0  0  0  0
  1 13  2  0  0  0  0
  2 10  1  0  0  0  0
  3 12  1  0  0  0  0
  4  1  1  0  0  0  0
  5 14  2  0  0  0  0
  6  3  2  0  0  0  0
  7  6  1  0  0  0  0
  8 11  1  6  0  0  0
  8  9  1  0  0  0  0
  9 13  1  1  0  0  0
  9  3  1  0  0  0  0
 10  8  1  0  0  0  0
 10  7  2  0  0  0  0
 11  4  1  0  0  0  0
 14  4  2  0  0  0  0
 15 23  1  0  0  0  0
 18 19  2  0  0  0  0
 19 17  1  0  0  0  0
 20 15  2  0  0  0  0
 21 12  1  6  0  0  0
 21 18  1  0  0  0  0
 22 21  1  0  0  0  0
 22 15  1  0  0  0  0
 23 17  2  0  0  0  0
 23 16  1  0  0  0  0
 24 25  2  0  0  0  0
 24 22  1  0  0  0  0
 25 20  1  0  0  0  0
 26  5  1  0  0  0  0
 26 27  2  0  0  0  0
 28 26  1  0  0  0  0
 29 34  1  0  0  0  0
 29 38  2  0  0  0  0
 32 38  1  0  0  0  0
 32 28  1  1  0  0  0
 32 42  1  0  0  0  0
 33 31  1  6  0  0  0
 33 30  1  0  0  0  0
 34 33  1  0  0  0  0
 35 34  2  0  0  0  0
 36 40  2  0  0  0  0
 36 39  1  0  0  0  0
 37 30  2  0  0  0  0
 38 37  1  0  0  0  0
 39 32  1  0  0  0  0
 40 29  1  0  0  0  0
 42 41  1  0  0  0  0
 43 42  2  0  0  0  0
 44  2  1  0  0  0  0
 45 44  1  0  0  0  0
 46 48  1  0  0  0  0
 47 48  2  0  0  0  0
 48 45  1  0  0  0  0
 51 50  1  6  0  0  0
 51 56  1  0  0  0  0
 51 55  1  0  0  0  0
 53 52  1  0  0  0  0
 54 56  1  0  0  0  0
 54 46  1  1  0  0  0
 54 52  1  0  0  0  0
 55 53  1  6  0  0  0
 56 49  1  1  0  0  0
 57 60  1  6  0  0  0
 57 55  1  0  0  0  0
 58 57  1  0  0  0  0
 60 59  1  0  0  0  0
 61 59  1  0  0  0  0
 62 61  1  0  0  0  0
 62 58  1  0  0  0  0
M  END
>  <MODEL>
3

>  <REMARK>
 VINA RESULT:      -4.9      1.666      2.468
  Name = 
  9 active torsions:
  status: ('A' for Active; 'I' for Inactive)
    1  A    between atoms: N_5  and  C_51
    2  A    between atoms: C_7  and  N_33
    3  A    between atoms: C_7  and  C_52
    4  A    between atoms: C_10  and  C_18
    5  A    between atoms: N_16  and  C_41
    6  A    between atoms: N_21  and  C_50
    7  A    between atoms: N_43  and  C_56
    8  A    between atoms: C_49  and  C_53
    9  A    between atoms: C_51  and  C_53
                            x       y       z     vdW  Elec       q    Type
                         _______ _______ _______ _____ _____    ______ ____

>  <TORSDO>
F 9

$$$$
