=
 OpenBabel11042409533D

 33 35  0  0  1  0  0  0  0  0999 V2000
  183.4480  179.0210  145.9050 O   0  0  0  0  0  1  0  0  0  0  0  0
  183.9410  178.7750  143.5390 C   0  0  0  0  0  0  0  0  0  0  0  0
  182.5120  179.0990  143.2920 C   0  0  0  0  0  3  0  0  0  0  0  0
  181.7140  178.9080  142.2240 C   0  0  0  0  0  0  0  0  0  0  0  0
  184.8970  178.5370  142.5220 C   0  0  0  0  0  0  0  0  0  0  0  0
  182.1170  178.2190  140.9710 C   0  0  0  0  0  0  0  0  0  0  0  0
  184.3600  178.7720  144.8810 C   0  0  0  0  0  0  0  0  0  0  0  0
  186.2400  178.2680  142.8830 C   0  0  0  0  0  0  0  0  0  0  0  0
  185.6980  178.5190  145.1900 C   0  0  0  0  0  0  0  0  0  0  0  0
  183.4610  177.6180  140.7800 C   0  0  0  0  0  2  0  0  0  0  0  0
  186.5900  178.2820  144.1970 N   0  0  0  0  0  0  0  0  0  0  0  0
  181.2700  178.1090  139.9990 N   0  0  0  0  0  2  0  0  0  0  0  0
  184.5150  178.6490  141.0870 C   0  0  0  0  0  2  0  0  0  0  0  0
  189.3210  177.3850  140.6230 C   0  0  0  0  0  0  0  0  0  0  0  0
  187.4180  178.5930  140.6540 C   0  0  0  0  0  3  0  0  0  0  0  0
  188.6700  177.0110  142.1310 S   0  0  0  0  0  0  0  0  0  0  0  0
  188.5300  178.2500  139.9510 N   0  0  0  0  0  0  0  0  0  0  0  0
  187.3070  177.9780  141.9000 C   0  0  0  0  0  0  0  0  0  0  0  0
  190.5970  176.8840  140.0900 C   0  0  0  0  0  0  0  0  0  0  0  0
  190.5950  175.8910  139.1190 O   0  0  0  0  0  1  0  0  0  0  0  0
  191.7560  177.3690  140.5180 C   0  0  0  0  0  2  0  0  0  0  0  0
  180.3220  179.3960  142.3140 C   0  0  0  0  0  3  0  0  0  0  0  0
  180.0370  180.6460  142.4900 N   0  0  0  0  0  2  0  0  0  0  0  0
  186.1720  178.5320  146.6050 C   0  0  0  0  0  2  0  0  0  0  0  0
  187.1280  177.3810  146.8390 C   0  0  0  0  0  2  0  0  0  0  0  0
  188.4760  177.9210  147.2760 C   0  0  0  0  0  2  0  0  0  0  0  0
  189.5890  177.0120  146.7870 C   0  0  0  0  0  2  0  0  0  0  0  0
  189.9010  177.3110  145.3910 N   0  0  0  0  0  2  0  0  0  0  0  0
  191.5390  175.9490  144.2570 C   0  0  0  0  0  1  0  0  0  0  0  0
  192.0220  176.9760  146.3370 O   0  0  0  0  0  1  0  0  0  0  0  0
  191.3340  177.1690  145.1340 C   0  0  2  0  0  0  0  0  0  0  0  0
  190.7820  179.2470  143.9350 N   0  0  0  0  0  1  0  0  0  0  0  0
  191.8710  178.4060  144.4090 C   0  0  0  0  0  2  0  0  0  0  0  0
  2  7  1  0  0  0  0
  3  2  1  0  0  0  0
  4 22  1  0  0  0  0
  4  3  2  0  0  0  0
  5  8  1  0  0  0  0
  5  2  2  0  0  0  0
  6  4  1  0  0  0  0
  7  9  2  0  0  0  0
  7  1  1  0  0  0  0
  8 11  2  0  0  0  0
  9 24  1  0  0  0  0
 10  6  1  0  0  0  0
 10 13  1  0  0  0  0
 11  9  1  0  0  0  0
 12  6  2  0  0  0  0
 13  5  1  0  0  0  0
 14 16  1  0  0  0  0
 15 18  2  0  0  0  0
 17 14  2  0  0  0  0
 17 15  1  0  0  0  0
 18 16  1  0  0  0  0
 18  8  1  0  0  0  0
 19 21  2  0  0  0  0
 19 14  1  0  0  0  0
 20 19  1  0  0  0  0
 22 23  2  0  0  0  0
 24 25  1  0  0  0  0
 25 26  1  0  0  0  0
 27 26  1  0  0  0  0
 28 27  1  0  0  0  0
 31 29  1  6  0  0  0
 31 28  1  0  0  0  0
 31 30  1  0  0  0  0
 32 33  1  0  0  0  0
 33 31  1  0  0  0  0
M  END
>  <MODEL>
1

>  <REMARK>
 VINA RESULT:      -8.9      0.000      0.000
  Name = 
  10 active torsions:
  status: ('A' for Active; 'I' for Inactive)
    1  A    between atoms: C_1  and  C_8
    2  A    between atoms: C_3  and  C_5
    3  A    between atoms: C_9  and  N_17
    4  A    between atoms: C_9  and  C_22
    5  A    between atoms: N_17  and  C_28
    6  A    between atoms: C_18  and  C_33
    7  A    between atoms: C_22  and  C_32
    8  A    between atoms: C_24  and  C_25
    9  A    between atoms: C_24  and  C_32
   10  A    between atoms: C_28  and  C_31
                            x       y       z     vdW  Elec       q    Type
                         _______ _______ _______ _____ _____    ______ ____

>  <TORSDO>
F 10

$$$$
=
 OpenBabel11042409533D

 33 35  0  0  1  0  0  0  0  0999 V2000
  185.9980  178.9700  140.1780 O   0  0  0  0  0  1  0  0  0  0  0  0
  186.3510  178.2670  142.4760 C   0  0  0  0  0  0  0  0  0  0  0  0
  184.8960  178.4910  142.6820 C   0  0  0  0  0  3  0  0  0  0  0  0
  184.1560  178.6560  143.7950 C   0  0  0  0  0  0  0  0  0  0  0  0
  187.2350  177.7780  143.4680 C   0  0  0  0  0  0  0  0  0  0  0  0
  184.6960  178.7090  145.1780 C   0  0  0  0  0  0  0  0  0  0  0  0
  186.8450  178.5060  141.1830 C   0  0  0  0  0  0  0  0  0  0  0  0
  188.5990  177.5750  143.1410 C   0  0  0  0  0  0  0  0  0  0  0  0
  188.1940  178.2760  140.9000 C   0  0  0  0  0  0  0  0  0  0  0  0
  186.1480  178.6250  145.4780 C   0  0  0  0  0  2  0  0  0  0  0  0
  189.0210  177.8190  141.8730 N   0  0  0  0  0  0  0  0  0  0  0  0
  183.8870  178.8530  146.1770 N   0  0  0  0  0  2  0  0  0  0  0  0
  186.7230  177.4020  144.8160 C   0  0  0  0  0  2  0  0  0  0  0  0
  191.1190  176.6160  145.9880 C   0  0  0  0  0  0  0  0  0  0  0  0
  190.8080  176.4820  143.7600 C   0  0  0  0  0  3  0  0  0  0  0  0
  189.6120  177.3370  145.7810 S   0  0  0  0  0  0  0  0  0  0  0  0
  191.6330  176.2110  144.8070 N   0  0  0  0  0  0  0  0  0  0  0  0
  189.6080  177.0960  144.1120 C   0  0  0  0  0  0  0  0  0  0  0  0
  191.8310  176.4630  147.2670 C   0  0  0  0  0  0  0  0  0  0  0  0
  191.7850  177.4860  148.2050 O   0  0  0  0  0  1  0  0  0  0  0  0
  192.5150  175.3600  147.5430 C   0  0  0  0  0  2  0  0  0  0  0  0
  182.6980  178.8260  143.6280 C   0  0  0  0  0  3  0  0  0  0  0  0
  182.1420  178.9230  142.4630 N   0  0  0  0  0  2  0  0  0  0  0  0
  188.7380  178.5010  139.5290 C   0  0  0  0  0  2  0  0  0  0  0  0
  188.8010  177.1870  138.7780 C   0  0  0  0  0  2  0  0  0  0  0  0
  188.7500  177.4520  137.2860 C   0  0  0  0  0  2  0  0  0  0  0  0
  189.8950  176.7430  136.5870 C   0  0  0  0  0  2  0  0  0  0  0  0
  191.0900  176.7750  137.4280 N   0  0  0  0  0  2  0  0  0  0  0  0
  191.7690  175.1090  135.8210 C   0  0  0  0  0  1  0  0  0  0  0  0
  191.3610  174.5390  138.0840 O   0  0  0  0  0  1  0  0  0  0  0  0
  191.8750  175.5510  137.2670 C   0  0  2  0  0  0  0  0  0  0  0  0
  193.4670  176.7430  138.7190 N   0  0  0  0  0  1  0  0  0  0  0  0
  193.3450  175.8110  137.6070 C   0  0  0  0  0  2  0  0  0  0  0  0
  1  7  1  0  0  0  0
  2  3  1  0  0  0  0
  2  5  1  0  0  0  0
  3  4  2  0  0  0  0
  4  6  1  0  0  0  0
  5 13  1  0  0  0  0
  6 10  1  0  0  0  0
  6 12  2  0  0  0  0
  7  2  2  0  0  0  0
  8  5  2  0  0  0  0
  8 18  1  0  0  0  0
  9  7  1  0  0  0  0
  9 11  2  0  0  0  0
 11  8  1  0  0  0  0
 13 10  1  0  0  0  0
 14 19  1  0  0  0  0
 15 18  2  0  0  0  0
 15 17  1  0  0  0  0
 16 14  1  0  0  0  0
 17 14  2  0  0  0  0
 18 16  1  0  0  0  0
 19 21  2  0  0  0  0
 19 20  1  0  0  0  0
 22  4  1  0  0  0  0
 23 22  2  0  0  0  0
 24  9  1  0  0  0  0
 25 24  1  0  0  0  0
 26 25  1  0  0  0  0
 27 26  1  0  0  0  0
 27 28  1  0  0  0  0
 31 29  1  6  0  0  0
 31 28  1  0  0  0  0
 31 33  1  0  0  0  0
 31 30  1  0  0  0  0
 33 32  1  0  0  0  0
M  END
>  <MODEL>
2

>  <REMARK>
 VINA RESULT:      -8.7      2.664      6.233
  Name = 
  10 active torsions:
  status: ('A' for Active; 'I' for Inactive)
    1  A    between atoms: C_1  and  C_8
    2  A    between atoms: C_3  and  C_5
    3  A    between atoms: C_9  and  N_17
    4  A    between atoms: C_9  and  C_22
    5  A    between atoms: N_17  and  C_28
    6  A    between atoms: C_18  and  C_33
    7  A    between atoms: C_22  and  C_32
    8  A    between atoms: C_24  and  C_25
    9  A    between atoms: C_24  and  C_32
   10  A    between atoms: C_28  and  C_31
                            x       y       z     vdW  Elec       q    Type
                         _______ _______ _______ _____ _____    ______ ____

>  <TORSDO>
F 10

$$$$
=
 OpenBabel11042409533D

 33 35  0  0  1  0  0  0  0  0999 V2000
  186.1490  178.9550  140.2520 O   0  0  0  0  0  1  0  0  0  0  0  0
  186.4670  178.2510  142.5550 C   0  0  0  0  0  0  0  0  0  0  0  0
  185.0090  178.4720  142.7380 C   0  0  0  0  0  3  0  0  0  0  0  0
  184.2510  178.6340  143.8400 C   0  0  0  0  0  0  0  0  0  0  0  0
  187.3370  177.7630  143.5600 C   0  0  0  0  0  0  0  0  0  0  0  0
  184.7700  178.6870  145.2310 C   0  0  0  0  0  0  0  0  0  0  0  0
  186.9810  178.4920  141.2690 C   0  0  0  0  0  0  0  0  0  0  0  0
  188.7060  177.5640  143.2550 C   0  0  0  0  0  0  0  0  0  0  0  0
  188.3350  178.2660  141.0080 C   0  0  0  0  0  0  0  0  0  0  0  0
  186.2170  178.6060  145.5540 C   0  0  0  0  0  2  0  0  0  0  0  0
  189.1470  177.8100  141.9930 N   0  0  0  0  0  0  0  0  0  0  0  0
  183.9440  178.8280  146.2170 N   0  0  0  0  0  2  0  0  0  0  0  0
  186.8050  177.3850  144.8990 C   0  0  0  0  0  2  0  0  0  0  0  0
  191.1910  176.6140  146.1360 C   0  0  0  0  0  0  0  0  0  0  0  0
  190.8970  176.4520  143.9070 C   0  0  0  0  0  3  0  0  0  0  0  0
  189.6940  177.3510  145.9060 S   0  0  0  0  0  0  0  0  0  0  0  0
  191.7090  176.1860  144.9650 N   0  0  0  0  0  0  0  0  0  0  0  0
  189.7010  177.0870  144.2400 C   0  0  0  0  0  0  0  0  0  0  0  0
  191.8900  176.4720  147.4230 C   0  0  0  0  0  0  0  0  0  0  0  0
  191.8530  177.5090  148.3440 O   0  0  0  0  0  1  0  0  0  0  0  0
  192.5560  175.3630  147.7220 C   0  0  0  0  0  2  0  0  0  0  0  0
  182.7950  178.8010  143.6500 C   0  0  0  0  0  3  0  0  0  0  0  0
  182.2600  178.9170  142.4780 N   0  0  0  0  0  2  0  0  0  0  0  0
  188.9000  178.4930  139.6460 C   0  0  0  0  0  2  0  0  0  0  0  0
  190.0940  177.5880  139.4250 C   0  0  0  0  0  2  0  0  0  0  0  0
  189.7440  176.5260  138.4000 C   0  0  0  0  0  2  0  0  0  0  0  0
  188.3150  176.7100  137.9210 C   0  0  0  0  0  2  0  0  0  0  0  0
  188.3090  177.1750  136.5350 N   0  0  0  0  0  2  0  0  0  0  0  0
  186.8920  178.0310  134.7800 C   0  0  0  0  0  1  0  0  0  0  0  0
  187.4080  179.3360  136.6900 O   0  0  0  0  0  1  0  0  0  0  0  0
  187.1480  178.0260  136.2750 C   0  0  2  0  0  0  0  0  0  0  0  0
  185.2580  176.4500  136.1980 N   0  0  0  0  0  1  0  0  0  0  0  0
  185.9120  177.4780  136.9940 C   0  0  0  0  0  2  0  0  0  0  0  0
  1  7  1  0  0  0  0
  2  3  1  0  0  0  0
  2  5  1  0  0  0  0
  3  4  2  0  0  0  0
  4  6  1  0  0  0  0
  5 13  1  0  0  0  0
  6 10  1  0  0  0  0
  6 12  2  0  0  0  0
  7  2  2  0  0  0  0
  8  5  2  0  0  0  0
  8 18  1  0  0  0  0
  9  7  1  0  0  0  0
  9 11  2  0  0  0  0
 11  8  1  0  0  0  0
 13 10  1  0  0  0  0
 14 19  1  0  0  0  0
 15 18  2  0  0  0  0
 15 17  1  0  0  0  0
 16 14  1  0  0  0  0
 17 14  2  0  0  0  0
 18 16  1  0  0  0  0
 19 21  2  0  0  0  0
 19 20  1  0  0  0  0
 22  4  1  0  0  0  0
 23 22  2  0  0  0  0
 24  9  1  0  0  0  0
 25 24  1  0  0  0  0
 26 25  1  0  0  0  0
 27 26  1  0  0  0  0
 28 27  1  0  0  0  0
 31 29  1  6  0  0  0
 31 28  1  0  0  0  0
 31 30  1  0  0  0  0
 31 33  1  0  0  0  0
 32 33  1  0  0  0  0
M  END
>  <MODEL>
3

>  <REMARK>
 VINA RESULT:      -8.5      2.860      6.718
  Name = 
  10 active torsions:
  status: ('A' for Active; 'I' for Inactive)
    1  A    between atoms: C_1  and  C_8
    2  A    between atoms: C_3  and  C_5
    3  A    between atoms: C_9  and  N_17
    4  A    between atoms: C_9  and  C_22
    5  A    between atoms: N_17  and  C_28
    6  A    between atoms: C_18  and  C_33
    7  A    between atoms: C_22  and  C_32
    8  A    between atoms: C_24  and  C_25
    9  A    between atoms: C_24  and  C_32
   10  A    between atoms: C_28  and  C_31
                            x       y       z     vdW  Elec       q    Type
                         _______ _______ _______ _____ _____    ______ ____

>  <TORSDO>
F 10

$$$$
=
 OpenBabel11042409533D

 33 35  0  0  1  0  0  0  0  0999 V2000
  185.2260  178.6130  144.9250 O   0  0  0  0  0  1  0  0  0  0  0  0
  187.4260  177.7070  144.4340 C   0  0  0  0  0  0  0  0  0  0  0  0
  187.5550  177.4500  145.8920 C   0  0  0  0  0  3  0  0  0  0  0  0
  188.6250  177.2140  146.6760 C   0  0  0  0  0  0  0  0  0  0  0  0
  188.4020  177.3610  143.4690 C   0  0  0  0  0  0  0  0  0  0  0  0
  190.0370  177.2160  146.2150 C   0  0  0  0  0  0  0  0  0  0  0  0
  186.2160  178.2770  144.0030 C   0  0  0  0  0  0  0  0  0  0  0  0
  188.1500  177.6290  142.1010 C   0  0  0  0  0  0  0  0  0  0  0  0
  186.0020  178.5080  142.6420 C   0  0  0  0  0  0  0  0  0  0  0  0
  190.4260  177.5270  144.8160 C   0  0  0  0  0  2  0  0  0  0  0  0
  186.9600  178.1780  141.7410 N   0  0  0  0  0  0  0  0  0  0  0  0
  190.9860  176.9560  147.0560 N   0  0  0  0  0  2  0  0  0  0  0  0
  189.6450  176.6480  143.8760 C   0  0  0  0  0  2  0  0  0  0  0  0
  191.0210  177.0020  139.5040 C   0  0  0  0  0  0  0  0  0  0  0  0
  188.7930  177.2990  139.6630 C   0  0  0  0  0  3  0  0  0  0  0  0
  190.7860  177.1540  141.1650 S   0  0  0  0  0  0  0  0  0  0  0  0
  189.8530  177.1060  138.8340 N   0  0  0  0  0  0  0  0  0  0  0  0
  189.1150  177.3330  141.0190 C   0  0  0  0  0  0  0  0  0  0  0  0
  192.3170  176.8190  138.8330 C   0  0  0  0  0  0  0  0  0  0  0  0
  193.4840  177.2260  139.4670 O   0  0  0  0  0  1  0  0  0  0  0  0
  192.3930  176.2670  137.6280 C   0  0  0  0  0  2  0  0  0  0  0  0
  188.3780  176.9620  148.1110 C   0  0  0  0  0  3  0  0  0  0  0  0
  187.9920  177.8950  148.9210 N   0  0  0  0  0  2  0  0  0  0  0  0
  184.7170  179.0920  142.1570 C   0  0  0  0  0  2  0  0  0  0  0  0
  184.6210  178.9480  140.6520 C   0  0  0  0  0  2  0  0  0  0  0  0
  183.5300  177.9530  140.3060 C   0  0  0  0  0  2  0  0  0  0  0  0
  182.1780  178.6440  140.2840 C   0  0  0  0  0  2  0  0  0  0  0  0
  181.1680  177.7840  140.8970 N   0  0  0  0  0  2  0  0  0  0  0  0
  181.1330  178.7500  143.1070 C   0  0  0  0  0  1  0  0  0  0  0  0
  179.1800  177.8170  142.1430 O   0  0  0  0  0  1  0  0  0  0  0  0
  180.3370  178.5400  141.8340 C   0  0  2  0  0  0  0  0  0  0  0  0
  179.8030  180.9000  142.2880 N   0  0  0  0  0  1  0  0  0  0  0  0
  179.9680  179.9020  141.2410 C   0  0  0  0  0  2  0  0  0  0  0  0
  2  3  1  0  0  0  0
  3  4  2  0  0  0  0
  4 22  1  0  0  0  0
  5 13  1  0  0  0  0
  5  2  2  0  0  0  0
  6  4  1  0  0  0  0
  6 12  2  0  0  0  0
  7  2  1  0  0  0  0
  7  1  1  0  0  0  0
  8  5  1  0  0  0  0
  9  7  2  0  0  0  0
 10  6  1  0  0  0  0
 11  8  2  0  0  0  0
 11  9  1  0  0  0  0
 13 10  1  0  0  0  0
 14 16  1  0  0  0  0
 15 18  2  0  0  0  0
 17 14  2  0  0  0  0
 17 15  1  0  0  0  0
 18 16  1  0  0  0  0
 18  8  1  0  0  0  0
 19 20  1  0  0  0  0
 19 14  1  0  0  0  0
 21 19  2  0  0  0  0
 22 23  2  0  0  0  0
 24  9  1  0  0  0  0
 25 24  1  0  0  0  0
 26 25  1  0  0  0  0
 27 26  1  0  0  0  0
 27 28  1  0  0  0  0
 28 31  1  0  0  0  0
 31 30  1  0  0  0  0
 31 29  1  1  0  0  0
 33 31  1  0  0  0  0
 33 32  1  0  0  0  0
M  END
>  <MODEL>
4

>  <REMARK>
 VINA RESULT:      -8.0      2.030      7.421
  Name = 
  10 active torsions:
  status: ('A' for Active; 'I' for Inactive)
    1  A    between atoms: C_1  and  C_8
    2  A    between atoms: C_3  and  C_5
    3  A    between atoms: C_9  and  N_17
    4  A    between atoms: C_9  and  C_22
    5  A    between atoms: N_17  and  C_28
    6  A    between atoms: C_18  and  C_33
    7  A    between atoms: C_22  and  C_32
    8  A    between atoms: C_24  and  C_25
    9  A    between atoms: C_24  and  C_32
   10  A    between atoms: C_28  and  C_31
                            x       y       z     vdW  Elec       q    Type
                         _______ _______ _______ _____ _____    ______ ____

>  <TORSDO>
F 10

$$$$
=
 OpenBabel11042409533D

 33 35  0  0  1  0  0  0  0  0999 V2000
  185.6460  178.9560  140.3400 O   0  0  0  0  0  1  0  0  0  0  0  0
  187.8430  178.3120  141.1510 C   0  0  0  0  0  0  0  0  0  0  0  0
  188.3010  178.4050  139.7410 C   0  0  0  0  0  3  0  0  0  0  0  0
  189.3830  177.9120  139.1080 C   0  0  0  0  0  0  0  0  0  0  0  0
  188.6820  177.9970  142.2480 C   0  0  0  0  0  0  0  0  0  0  0  0
  190.4150  177.0440  139.7330 C   0  0  0  0  0  0  0  0  0  0  0  0
  186.4950  178.6240  141.3940 C   0  0  0  0  0  0  0  0  0  0  0  0
  188.1340  177.9700  143.5540 C   0  0  0  0  0  0  0  0  0  0  0  0
  186.0000  178.6010  142.7010 C   0  0  0  0  0  0  0  0  0  0  0  0
  190.3330  176.5860  141.1430 C   0  0  0  0  0  2  0  0  0  0  0  0
  186.8230  178.2840  143.7310 N   0  0  0  0  0  0  0  0  0  0  0  0
  191.4250  176.6430  139.0320 N   0  0  0  0  0  2  0  0  0  0  0  0
  190.1410  177.7780  142.0430 C   0  0  0  0  0  2  0  0  0  0  0  0
  190.5180  176.8990  146.4780 C   0  0  0  0  0  0  0  0  0  0  0  0
  188.3600  177.3470  146.0080 C   0  0  0  0  0  3  0  0  0  0  0  0
  190.5750  177.3280  144.8500 S   0  0  0  0  0  0  0  0  0  0  0  0
  189.2550  176.9560  146.9540 N   0  0  0  0  0  0  0  0  0  0  0  0
  188.9170  177.6250  144.7610 C   0  0  0  0  0  0  0  0  0  0  0  0
  191.6650  176.4750  147.2950 C   0  0  0  0  0  0  0  0  0  0  0  0
  192.0790  177.2630  148.3600 O   0  0  0  0  0  1  0  0  0  0  0  0
  192.3120  175.3450  147.0350 C   0  0  0  0  0  2  0  0  0  0  0  0
  189.5440  178.2340  137.6750 C   0  0  0  0  0  3  0  0  0  0  0  0
  189.0090  179.2840  137.1380 N   0  0  0  0  0  2  0  0  0  0  0  0
  184.5780  178.9490  142.9870 C   0  0  0  0  0  2  0  0  0  0  0  0
  184.2950  178.7870  144.4660 C   0  0  0  0  0  2  0  0  0  0  0  0
  182.7970  178.8050  144.7010 C   0  0  0  0  0  2  0  0  0  0  0  0
  182.0570  178.7470  143.3770 C   0  0  0  0  0  2  0  0  0  0  0  0
  180.8450  179.5600  143.4460 N   0  0  0  0  0  2  0  0  0  0  0  0
  181.1510  179.1170  141.0940 C   0  0  0  0  0  1  0  0  0  0  0  0
  179.8190  180.9300  141.8400 O   0  0  0  0  0  1  0  0  0  0  0  0
  180.1770  179.6120  142.1450 C   0  0  2  0  0  0  0  0  0  0  0  0
  179.1980  177.4660  141.4420 N   0  0  0  0  0  1  0  0  0  0  0  0
  178.9380  178.7130  142.1460 C   0  0  0  0  0  2  0  0  0  0  0  0
  1  7  1  0  0  0  0
  2  7  2  0  0  0  0
  2  5  1  0  0  0  0
  3  2  1  0  0  0  0
  4  6  1  0  0  0  0
  4  3  2  0  0  0  0
  5  8  2  0  0  0  0
  6 10  1  0  0  0  0
  7  9  1  0  0  0  0
  8 11  1  0  0  0  0
  8 18  1  0  0  0  0
  9 24  1  0  0  0  0
  9 11  2  0  0  0  0
 10 13  1  0  0  0  0
 12  6  2  0  0  0  0
 13  5  1  0  0  0  0
 14 17  2  0  0  0  0
 14 19  1  0  0  0  0
 15 17  1  0  0  0  0
 16 14  1  0  0  0  0
 18 16  1  0  0  0  0
 18 15  2  0  0  0  0
 19 20  1  0  0  0  0
 21 19  2  0  0  0  0
 22  4  1  0  0  0  0
 23 22  2  0  0  0  0
 24 25  1  0  0  0  0
 25 26  1  0  0  0  0
 27 28  1  0  0  0  0
 27 26  1  0  0  0  0
 30 31  1  0  0  0  0
 31 29  1  6  0  0  0
 31 33  1  0  0  0  0
 31 28  1  0  0  0  0
 32 33  1  0  0  0  0
M  END
>  <MODEL>
5

>  <REMARK>
 VINA RESULT:      -7.9      2.319      7.834
  Name = 
  10 active torsions:
  status: ('A' for Active; 'I' for Inactive)
    1  A    between atoms: C_1  and  C_8
    2  A    between atoms: C_3  and  C_5
    3  A    between atoms: C_9  and  N_17
    4  A    between atoms: C_9  and  C_22
    5  A    between atoms: N_17  and  C_28
    6  A    between atoms: C_18  and  C_33
    7  A    between atoms: C_22  and  C_32
    8  A    between atoms: C_24  and  C_25
    9  A    between atoms: C_24  and  C_32
   10  A    between atoms: C_28  and  C_31
                            x       y       z     vdW  Elec       q    Type
                         _______ _______ _______ _____ _____    ______ ____

>  <TORSDO>
F 10

$$$$
=
 OpenBabel11042409533D

 33 35  0  0  1  0  0  0  0  0999 V2000
  186.0470  178.8040  138.8430 O   0  0  0  0  0  1  0  0  0  0  0  0
  188.3090  178.0820  139.3520 C   0  0  0  0  0  0  0  0  0  0  0  0
  188.5310  178.0180  137.8840 C   0  0  0  0  0  3  0  0  0  0  0  0
  189.4640  177.3970  137.1370 C   0  0  0  0  0  0  0  0  0  0  0  0
  189.3000  177.8070  140.3250 C   0  0  0  0  0  0  0  0  0  0  0  0
  190.5370  176.5180  137.6710 C   0  0  0  0  0  0  0  0  0  0  0  0
  187.0390  178.5080  139.7760 C   0  0  0  0  0  0  0  0  0  0  0  0
  188.9750  177.9340  141.6990 C   0  0  0  0  0  0  0  0  0  0  0  0
  186.7670  178.6350  141.1400 C   0  0  0  0  0  0  0  0  0  0  0  0
  190.6660  176.1920  139.1140 C   0  0  0  0  0  2  0  0  0  0  0  0
  187.7310  178.3520  142.0510 N   0  0  0  0  0  0  0  0  0  0  0  0
  191.3930  175.9870  136.8600 N   0  0  0  0  0  2  0  0  0  0  0  0
  190.6900  177.4690  139.9120 C   0  0  0  0  0  2  0  0  0  0  0  0
  191.2520  176.8040  144.6850 C   0  0  0  0  0  0  0  0  0  0  0  0
  190.6820  178.6070  143.4580 C   0  0  0  0  0  3  0  0  0  0  0  0
  190.1710  176.1620  143.5650 S   0  0  0  0  0  0  0  0  0  0  0  0
  191.4190  178.1320  144.4970 N   0  0  0  0  0  0  0  0  0  0  0  0
  189.9280  177.6420  142.7930 C   0  0  0  0  0  0  0  0  0  0  0  0
  191.9180  176.0580  145.7640 C   0  0  0  0  0  0  0  0  0  0  0  0
  192.0200  176.6210  147.0290 O   0  0  0  0  0  1  0  0  0  0  0  0
  192.4210  174.8480  145.5510 C   0  0  0  0  0  2  0  0  0  0  0  0
  189.4020  177.5800  135.6730 C   0  0  0  0  0  3  0  0  0  0  0  0
  188.4540  177.0730  134.9520 N   0  0  0  0  0  2  0  0  0  0  0  0
  185.4340  179.1050  141.6150 C   0  0  0  0  0  2  0  0  0  0  0  0
  184.9530  178.2300  142.7530 C   0  0  0  0  0  2  0  0  0  0  0  0
  183.7850  178.9000  143.4520 C   0  0  0  0  0  2  0  0  0  0  0  0
  184.0400  178.9740  144.9460 C   0  0  0  0  0  2  0  0  0  0  0  0
  185.4770  179.0310  145.2060 N   0  0  0  0  0  2  0  0  0  0  0  0
  184.5560  177.9120  147.1350 C   0  0  0  0  0  1  0  0  0  0  0  0
  186.0480  179.7380  147.3690 O   0  0  0  0  0  1  0  0  0  0  0  0
  185.7770  178.6180  146.5770 C   0  0  2  0  0  0  0  0  0  0  0  0
  187.9310  177.9960  145.5600 N   0  0  0  0  0  1  0  0  0  0  0  0
  186.9670  177.6540  146.5960 C   0  0  0  0  0  2  0  0  0  0  0  0
  1  7  1  0  0  0  0
  2  7  2  0  0  0  0
  2  5  1  0  0  0  0
  3  2  1  0  0  0  0
  4  6  1  0  0  0  0
  4  3  2  0  0  0  0
  5  8  2  0  0  0  0
  6 10  1  0  0  0  0
  7  9  1  0  0  0  0
  8 11  1  0  0  0  0
  8 18  1  0  0  0  0
  9 24  1  0  0  0  0
  9 11  2  0  0  0  0
 10 13  1  0  0  0  0
 12  6  2  0  0  0  0
 13  5  1  0  0  0  0
 14 19  1  0  0  0  0
 15 17  1  0  0  0  0
 16 14  1  0  0  0  0
 17 14  2  0  0  0  0
 18 15  2  0  0  0  0
 18 16  1  0  0  0  0
 19 20  1  0  0  0  0
 21 19  2  0  0  0  0
 22  4  1  0  0  0  0
 23 22  2  0  0  0  0
 24 25  1  0  0  0  0
 25 26  1  0  0  0  0
 26 27  1  0  0  0  0
 27 28  1  0  0  0  0
 28 31  1  0  0  0  0
 31 33  1  0  0  0  0
 31 29  1  1  0  0  0
 31 30  1  0  0  0  0
 32 33  1  0  0  0  0
M  END
>  <MODEL>
6

>  <REMARK>
 VINA RESULT:      -7.8      2.484      6.628
  Name = 
  10 active torsions:
  status: ('A' for Active; 'I' for Inactive)
    1  A    between atoms: C_1  and  C_8
    2  A    between atoms: C_3  and  C_5
    3  A    between atoms: C_9  and  N_17
    4  A    between atoms: C_9  and  C_22
    5  A    between atoms: N_17  and  C_28
    6  A    between atoms: C_18  and  C_33
    7  A    between atoms: C_22  and  C_32
    8  A    between atoms: C_24  and  C_25
    9  A    between atoms: C_24  and  C_32
   10  A    between atoms: C_28  and  C_31
                            x       y       z     vdW  Elec       q    Type
                         _______ _______ _______ _____ _____    ______ ____

>  <TORSDO>
F 10

$$$$
=
 OpenBabel11042409533D

 33 35  0  0  1  0  0  0  0  0999 V2000
  185.3480  178.6790  145.2150 O   0  0  0  0  0  1  0  0  0  0  0  0
  187.5070  177.8060  144.5240 C   0  0  0  0  0  0  0  0  0  0  0  0
  187.7690  177.5430  145.9630 C   0  0  0  0  0  3  0  0  0  0  0  0
  188.9070  177.3180  146.6470 C   0  0  0  0  0  0  0  0  0  0  0  0
  188.3970  177.4780  143.4730 C   0  0  0  0  0  0  0  0  0  0  0  0
  190.2730  177.3400  146.0620 C   0  0  0  0  0  0  0  0  0  0  0  0
  186.2560  178.3610  144.2060 C   0  0  0  0  0  0  0  0  0  0  0  0
  188.0200  177.7500  142.1350 C   0  0  0  0  0  0  0  0  0  0  0  0
  185.9180  178.5970  142.8710 C   0  0  0  0  0  0  0  0  0  0  0  0
  190.5310  177.6640  144.6360 C   0  0  0  0  0  2  0  0  0  0  0  0
  186.7960  178.2850  141.8860 N   0  0  0  0  0  0  0  0  0  0  0  0
  191.2960  177.0890  146.8120 N   0  0  0  0  0  2  0  0  0  0  0  0
  189.6810  176.7800  143.7630 C   0  0  0  0  0  2  0  0  0  0  0  0
  189.9570  177.0460  138.7980 C   0  0  0  0  0  0  0  0  0  0  0  0
  190.0800  176.7530  141.0300 C   0  0  0  0  0  3  0  0  0  0  0  0
  188.5550  177.7990  139.3490 S   0  0  0  0  0  0  0  0  0  0  0  0
  190.6690  176.5310  139.8240 N   0  0  0  0  0  0  0  0  0  0  0  0
  188.8890  177.4720  140.9690 C   0  0  0  0  0  0  0  0  0  0  0  0
  190.3660  176.9140  137.3920 C   0  0  0  0  0  0  0  0  0  0  0  0
  191.6380  176.4470  137.0860 O   0  0  0  0  0  1  0  0  0  0  0  0
  189.5380  177.2310  136.4040 C   0  0  0  0  0  2  0  0  0  0  0  0
  188.7940  177.0550  148.0960 C   0  0  0  0  0  3  0  0  0  0  0  0
  187.9320  177.6660  148.8450 N   0  0  0  0  0  2  0  0  0  0  0  0
  184.5880  179.1650  142.5070 C   0  0  0  0  0  2  0  0  0  0  0  0
  183.5920  178.0460  142.2840 C   0  0  0  0  0  2  0  0  0  0  0  0
  182.2930  178.6200  141.7540 C   0  0  0  0  0  2  0  0  0  0  0  0
  181.8550  177.8670  140.5110 C   0  0  0  0  0  2  0  0  0  0  0  0
  182.2700  178.5940  139.3130 N   0  0  0  0  0  2  0  0  0  0  0  0
  182.8870  177.8760  137.0940 C   0  0  0  0  0  1  0  0  0  0  0  0
  183.2800  176.5020  138.9840 O   0  0  0  0  0  1  0  0  0  0  0  0
  183.2690  177.8360  138.5610 C   0  0  2  0  0  0  0  0  0  0  0  0
  184.5550  179.8680  139.0880 N   0  0  0  0  0  1  0  0  0  0  0  0
  184.6570  178.4590  138.7360 C   0  0  0  0  0  2  0  0  0  0  0  0
  2  3  1  0  0  0  0
  3  4  2  0  0  0  0
  4 22  1  0  0  0  0
  5 13  1  0  0  0  0
  5  2  2  0  0  0  0
  6  4  1  0  0  0  0
  6 12  2  0  0  0  0
  7  2  1  0  0  0  0
  7  1  1  0  0  0  0
  8  5  1  0  0  0  0
  9  7  2  0  0  0  0
 10  6  1  0  0  0  0
 11  8  2  0  0  0  0
 11  9  1  0  0  0  0
 13 10  1  0  0  0  0
 14 16  1  0  0  0  0
 14 17  2  0  0  0  0
 16 18  1  0  0  0  0
 17 15  1  0  0  0  0
 18 15  2  0  0  0  0
 18  8  1  0  0  0  0
 19 14  1  0  0  0  0
 20 19  1  0  0  0  0
 21 19  2  0  0  0  0
 22 23  2  0  0  0  0
 24  9  1  0  0  0  0
 25 24  1  0  0  0  0
 26 25  1  0  0  0  0
 27 26  1  0  0  0  0
 28 27  1  0  0  0  0
 31 29  1  6  0  0  0
 31 33  1  0  0  0  0
 31 30  1  0  0  0  0
 31 28  1  0  0  0  0
 33 32  1  0  0  0  0
M  END
>  <MODEL>
7

>  <REMARK>
 VINA RESULT:      -7.7      2.433      7.035
  Name = 
  10 active torsions:
  status: ('A' for Active; 'I' for Inactive)
    1  A    between atoms: C_1  and  C_8
    2  A    between atoms: C_3  and  C_5
    3  A    between atoms: C_9  and  N_17
    4  A    between atoms: C_9  and  C_22
    5  A    between atoms: N_17  and  C_28
    6  A    between atoms: C_18  and  C_33
    7  A    between atoms: C_22  and  C_32
    8  A    between atoms: C_24  and  C_25
    9  A    between atoms: C_24  and  C_32
   10  A    between atoms: C_28  and  C_31
                            x       y       z     vdW  Elec       q    Type
                         _______ _______ _______ _____ _____    ______ ____

>  <TORSDO>
F 10

$$$$
=
 OpenBabel11042409533D

 33 35  0  0  1  0  0  0  0  0999 V2000
  184.5050  178.9340  146.3430 O   0  0  0  0  0  1  0  0  0  0  0  0
  186.4240  178.1920  145.0520 C   0  0  0  0  0  0  0  0  0  0  0  0
  187.0290  177.7760  146.3440 C   0  0  0  0  0  3  0  0  0  0  0  0
  188.2980  177.5000  146.6990 C   0  0  0  0  0  0  0  0  0  0  0  0
  187.0280  178.0040  143.7850 C   0  0  0  0  0  0  0  0  0  0  0  0
  189.4790  177.6190  145.8050 C   0  0  0  0  0  0  0  0  0  0  0  0
  185.1360  178.7520  145.1140 C   0  0  0  0  0  0  0  0  0  0  0  0
  186.3360  178.4160  142.6200 C   0  0  0  0  0  0  0  0  0  0  0  0
  184.4840  179.1290  143.9380 C   0  0  0  0  0  0  0  0  0  0  0  0
  189.3830  178.1060  144.4060 C   0  0  0  0  0  2  0  0  0  0  0  0
  185.0920  178.9480  142.7390 N   0  0  0  0  0  0  0  0  0  0  0  0
  190.6530  177.3080  146.2510 N   0  0  0  0  0  2  0  0  0  0  0  0
  188.3390  177.3070  143.6720 C   0  0  0  0  0  2  0  0  0  0  0  0
  188.2040  178.1620  139.1810 C   0  0  0  0  0  0  0  0  0  0  0  0
  186.1790  178.5590  140.0860 C   0  0  0  0  0  3  0  0  0  0  0  0
  188.4950  177.9810  140.8300 S   0  0  0  0  0  0  0  0  0  0  0  0
  186.9120  178.4750  138.9440 N   0  0  0  0  0  0  0  0  0  0  0  0
  186.8920  178.2910  141.2540 C   0  0  0  0  0  0  0  0  0  0  0  0
  189.2090  178.0410  138.1130 C   0  0  0  0  0  0  0  0  0  0  0  0
  190.3520  177.2830  138.3270 O   0  0  0  0  0  1  0  0  0  0  0  0
  189.0400  178.6430  136.9420 C   0  0  0  0  0  2  0  0  0  0  0  0
  188.5410  177.0740  148.0930 C   0  0  0  0  0  3  0  0  0  0  0  0
  188.2770  177.8360  149.1050 N   0  0  0  0  0  2  0  0  0  0  0  0
  183.1080  179.7050  143.9760 C   0  0  0  0  0  2  0  0  0  0  0  0
  182.0930  178.6430  143.6050 C   0  0  0  0  0  2  0  0  0  0  0  0
  180.7470  179.2930  143.3530 C   0  0  0  0  0  2  0  0  0  0  0  0
  180.1170  178.7260  142.0940 C   0  0  0  0  0  2  0  0  0  0  0  0
  180.5220  179.5160  140.9330 N   0  0  0  0  0  2  0  0  0  0  0  0
  182.5800  178.9050  139.8310 C   0  0  0  0  0  1  0  0  0  0  0  0
  180.5290  178.9870  138.6470 O   0  0  0  0  0  1  0  0  0  0  0  0
  181.0850  178.6600  139.8890 C   0  0  2  0  0  0  0  0  0  0  0  0
  180.1090  176.5310  139.1300 N   0  0  0  0  0  1  0  0  0  0  0  0
  180.8290  177.1850  140.2120 C   0  0  0  0  0  2  0  0  0  0  0  0
  2  7  1  0  0  0  0
  2  3  1  0  0  0  0
  3  4  2  0  0  0  0
  4 22  1  0  0  0  0
  5  2  2  0  0  0  0
  6 12  2  0  0  0  0
  6  4  1  0  0  0  0
  7  1  1  0  0  0  0
  8 11  2  0  0  0  0
  8  5  1  0  0  0  0
  9 24  1  0  0  0  0
  9  7  2  0  0  0  0
 10  6  1  0  0  0  0
 11  9  1  0  0  0  0
 13  5  1  0  0  0  0
 13 10  1  0  0  0  0
 14 16  1  0  0  0  0
 15 18  2  0  0  0  0
 16 18  1  0  0  0  0
 17 14  2  0  0  0  0
 17 15  1  0  0  0  0
 18  8  1  0  0  0  0
 19 20  1  0  0  0  0
 19 14  1  0  0  0  0
 21 19  2  0  0  0  0
 22 23  2  0  0  0  0
 25 24  1  0  0  0  0
 26 25  1  0  0  0  0
 27 26  1  0  0  0  0
 28 27  1  0  0  0  0
 30 31  1  0  0  0  0
 31 29  1  6  0  0  0
 31 33  1  0  0  0  0
 31 28  1  0  0  0  0
 32 33  1  0  0  0  0
M  END
>  <MODEL>
8

>  <REMARK>
 VINA RESULT:      -7.6      2.187      7.289
  Name = 
  10 active torsions:
  status: ('A' for Active; 'I' for Inactive)
    1  A    between atoms: C_1  and  C_8
    2  A    between atoms: C_3  and  C_5
    3  A    between atoms: C_9  and  N_17
    4  A    between atoms: C_9  and  C_22
    5  A    between atoms: N_17  and  C_28
    6  A    between atoms: C_18  and  C_33
    7  A    between atoms: C_22  and  C_32
    8  A    between atoms: C_24  and  C_25
    9  A    between atoms: C_24  and  C_32
   10  A    between atoms: C_28  and  C_31
                            x       y       z     vdW  Elec       q    Type
                         _______ _______ _______ _____ _____    ______ ____

>  <TORSDO>
F 10

$$$$
=
 OpenBabel11042409533D

 33 35  0  0  1  0  0  0  0  0999 V2000
  185.8550  179.0050  140.0610 O   0  0  0  0  0  1  0  0  0  0  0  0
  188.1110  178.2200  140.4980 C   0  0  0  0  0  0  0  0  0  0  0  0
  188.3830  178.4510  139.0560 C   0  0  0  0  0  3  0  0  0  0  0  0
  189.3520  178.0010  138.2350 C   0  0  0  0  0  0  0  0  0  0  0  0
  189.0740  177.7680  141.4330 C   0  0  0  0  0  0  0  0  0  0  0  0
  190.4210  177.0440  138.6220 C   0  0  0  0  0  0  0  0  0  0  0  0
  186.8200  178.5390  140.9520 C   0  0  0  0  0  0  0  0  0  0  0  0
  188.7010  177.6150  142.7920 C   0  0  0  0  0  0  0  0  0  0  0  0
  186.5010  178.3890  142.3040 C   0  0  0  0  0  0  0  0  0  0  0  0
  190.5070  176.4400  139.9760 C   0  0  0  0  0  2  0  0  0  0  0  0
  187.4390  177.9420  143.1750 N   0  0  0  0  0  0  0  0  0  0  0  0
  191.3130  176.6950  137.7540 N   0  0  0  0  0  2  0  0  0  0  0  0
  190.4830  177.5330  141.0110 C   0  0  0  0  0  2  0  0  0  0  0  0
  191.0040  176.6490  145.8150 C   0  0  0  0  0  0  0  0  0  0  0  0
  190.7760  176.3820  143.5890 C   0  0  0  0  0  3  0  0  0  0  0  0
  189.5770  177.4810  145.4870 S   0  0  0  0  0  0  0  0  0  0  0  0
  191.5290  176.1170  144.6900 N   0  0  0  0  0  0  0  0  0  0  0  0
  189.6220  177.1210  143.8400 C   0  0  0  0  0  0  0  0  0  0  0  0
  191.6450  176.5280  147.1340 C   0  0  0  0  0  0  0  0  0  0  0  0
  191.4220  177.5020  148.0980 O   0  0  0  0  0  1  0  0  0  0  0  0
  192.4320  175.4990  147.4220 C   0  0  0  0  0  2  0  0  0  0  0  0
  189.3350  178.4710  136.8340 C   0  0  0  0  0  3  0  0  0  0  0  0
  188.5950  177.9180  135.9280 N   0  0  0  0  0  2  0  0  0  0  0  0
  185.1440  178.7420  142.8140 C   0  0  0  0  0  2  0  0  0  0  0  0
  185.1110  178.6140  144.3230 C   0  0  0  0  0  2  0  0  0  0  0  0
  183.6970  178.8410  144.8210 C   0  0  0  0  0  2  0  0  0  0  0  0
  182.7480  179.0040  143.6480 C   0  0  0  0  0  2  0  0  0  0  0  0
  181.3640  178.9470  144.1130 N   0  0  0  0  0  2  0  0  0  0  0  0
  179.4960  180.0420  143.0480 C   0  0  0  0  0  1  0  0  0  0  0  0
  179.6810  177.6790  143.0790 O   0  0  0  0  0  1  0  0  0  0  0  0
  180.4360  178.8540  142.9860 C   0  0  2  0  0  0  0  0  0  0  0  0
  180.6930  177.8840  140.7370 N   0  0  0  0  0  1  0  0  0  0  0  0
  181.2020  178.8880  141.6600 C   0  0  0  0  0  2  0  0  0  0  0  0
  1  7  1  0  0  0  0
  2  7  2  0  0  0  0
  2  5  1  0  0  0  0
  3  2  1  0  0  0  0
  4  6  1  0  0  0  0
  4  3  2  0  0  0  0
  5  8  2  0  0  0  0
  6 10  1  0  0  0  0
  7  9  1  0  0  0  0
  8 11  1  0  0  0  0
  8 18  1  0  0  0  0
  9 24  1  0  0  0  0
  9 11  2  0  0  0  0
 10 13  1  0  0  0  0
 12  6  2  0  0  0  0
 13  5  1  0  0  0  0
 14 19  1  0  0  0  0
 15 18  2  0  0  0  0
 15 17  1  0  0  0  0
 16 14  1  0  0  0  0
 17 14  2  0  0  0  0
 18 16  1  0  0  0  0
 19 21  2  0  0  0  0
 19 20  1  0  0  0  0
 22  4  1  0  0  0  0
 23 22  2  0  0  0  0
 24 25  1  0  0  0  0
 25 26  1  0  0  0  0
 27 28  1  0  0  0  0
 27 26  1  0  0  0  0
 31 29  1  1  0  0  0
 31 30  1  0  0  0  0
 31 28  1  0  0  0  0
 32 33  1  0  0  0  0
 33 31  1  0  0  0  0
M  END
>  <MODEL>
9

>  <REMARK>
 VINA RESULT:      -7.6      2.318      7.675
  Name = 
  10 active torsions:
  status: ('A' for Active; 'I' for Inactive)
    1  A    between atoms: C_1  and  C_8
    2  A    between atoms: C_3  and  C_5
    3  A    between atoms: C_9  and  N_17
    4  A    between atoms: C_9  and  C_22
    5  A    between atoms: N_17  and  C_28
    6  A    between atoms: C_18  and  C_33
    7  A    between atoms: C_22  and  C_32
    8  A    between atoms: C_24  and  C_25
    9  A    between atoms: C_24  and  C_32
   10  A    between atoms: C_28  and  C_31
                            x       y       z     vdW  Elec       q    Type
                         _______ _______ _______ _____ _____    ______ ____

>  <TORSDO>
F 10

$$$$
