=
 OpenBabel11032419093D

 42 46  0  0  1  0  0  0  0  0999 V2000
  186.8820  178.1470  143.0880 C   0  0  2  0  0  3  0  0  0  0  0  0
  187.6880  177.2860  142.1080 C   0  0  2  0  0  3  0  0  0  0  0  0
  189.1770  177.1910  142.4550 C   0  0  1  0  0  3  0  0  0  0  0  0
  188.7090  178.1360  141.3670 C   0  0  1  0  0  3  0  0  0  0  0  0
  189.0340  177.5260  140.0110 C   0  0  1  0  0  3  0  0  0  0  0  0
  188.9400  178.5830  138.9260 C   0  0  0  0  0  1  0  0  0  0  0  0
  191.5570  177.6150  140.6680 C   0  0  0  0  0  1  0  0  0  0  0  0
  190.5870  175.8420  139.4750 O   0  0  0  0  0  0  0  0  0  0  0  0
  190.4040  176.9180  140.0180 C   0  0  0  0  0  0  0  0  0  0  0  0
  189.5360  177.9490  143.6060 O   0  0  0  0  0  0  0  0  0  0  0  0
  190.6010  177.1070  147.0630 C   0  0  0  0  0  3  0  0  0  0  0  0
  189.8880  177.6850  146.0090 C   0  0  0  0  0  3  0  0  0  0  0  0
  190.2390  177.4000  144.6810 C   0  0  0  0  0  0  0  0  0  0  0  0
  192.4300  175.6380  147.9210 C   0  0  0  0  0  1  0  0  0  0  0  0
  191.3070  176.5350  144.4220 C   0  0  0  0  0  3  0  0  0  0  0  0
  192.0230  175.9620  145.4780 C   0  0  0  0  0  3  0  0  0  0  0  0
  191.6710  176.2490  146.7970 C   0  0  0  0  0  0  0  0  0  0  0  0
  186.1810  177.2880  144.1420 C   0  0  0  0  0  2  0  0  0  0  0  0
  186.6750  177.5870  145.5460 C   0  0  0  0  0  2  0  0  0  0  0  0
  186.0510  178.8020  146.0430 N   0  0  0  0  0  2  0  0  0  0  0  0
  184.7580  178.4180  146.5760 C   0  0  0  0  0  1  0  0  0  0  0  0
  185.8890  179.0580  142.3530 C   0  0  0  0  0  2  0  0  0  0  0  0
  184.4550  178.9720  142.8800 C   0  0  0  0  0  2  0  0  0  0  0  0
  179.0400  178.4600  138.4030 C   0  0  0  0  0  2  0  0  0  0  0  0
  179.7860  177.1500  138.0320 C   0  0  0  0  0  2  0  0  0  0  0  0
  183.4450  178.9430  141.7490 C   0  0  1  0  0  3  0  0  0  0  0  0
  186.1920  177.1360  136.8960 C   0  0  0  0  0  2  0  0  0  0  0  0
  185.3390  178.0700  137.7520 C   0  0  0  0  0  2  0  0  0  0  0  0
  181.0590  179.4070  141.4520 O   0  0  0  0  0  0  0  0  0  0  0  0
  183.4560  178.1570  139.4050 C   0  0  0  0  0  2  0  0  0  0  0  0
  183.7770  177.7690  140.8350 C   0  0  0  0  0  2  0  0  0  0  0  0
  182.7320  175.2700  138.4020 N   0  0  0  0  0  0  0  0  0  0  0  0
  185.3540  176.3540  136.0900 O   0  0  0  0  0  0  0  0  0  0  0  0
  182.0340  178.8520  142.3360 C   0  0  0  0  0  2  0  0  0  0  0  0
  180.4380  178.6580  140.4540 C   0  0  0  0  0  0  0  0  0  0  0  0
  179.6660  179.2500  139.5370 C   0  0  0  0  0  3  0  0  0  0  0  0
  184.1820  177.3390  138.3910 C   0  0  0  0  0  0  0  0  0  0  0  0
  184.7500  175.4280  136.9560 C   0  0  0  0  0  2  0  0  0  0  0  0
  181.5530  175.5780  138.7900 N   0  0  0  0  0  0  0  0  0  0  0  0
  181.0250  176.9190  138.8960 C   0  0  2  0  0  3  0  0  0  0  0  0
  183.8120  176.1090  137.9220 C   0  0  0  0  0  0  0  0  0  0  0  0
  180.6760  177.1910  140.3460 C   0  0  0  0  0  2  0  0  0  0  0  0
  1 22  1  6  0  0  0
  1 18  1  0  0  0  0
  2  3  1  0  0  0  0
  2  1  1  1  0  0  0
  3 10  1  1  0  0  0
  4  5  1  6  0  0  0
  4  2  1  0  0  0  0
  4  3  1  0  0  0  0
  5  6  1  6  0  0  0
  5  9  1  0  0  0  0
  8  9  2  0  0  0  0
  9  7  1  0  0  0  0
 10 13  1  0  0  0  0
 12 11  2  0  0  0  0
 13 12  1  0  0  0  0
 15 13  2  0  0  0  0
 15 16  1  0  0  0  0
 16 17  2  0  0  0  0
 17 11  1  0  0  0  0
 17 14  1  0  0  0  0
 18 19  1  0  0  0  0
 19 20  1  0  0  0  0
 20 21  1  0  0  0  0
 22 23  1  0  0  0  0
 24 36  1  0  0  0  0
 25 24  1  0  0  0  0
 26 34  1  0  0  0  0
 26 23  1  1  0  0  0
 27 28  1  0  0  0  0
 28 37  1  0  0  0  0
 29 34  1  0  0  0  0
 30 31  1  0  0  0  0
 31 26  1  0  0  0  0
 32 39  2  0  0  0  0
 33 27  1  0  0  0  0
 33 38  1  0  0  0  0
 35 29  1  0  0  0  0
 36 35  2  0  0  0  0
 37 30  1  0  0  0  0
 38 41  1  0  0  0  0
 39 40  1  0  0  0  0
 40 25  1  6  0  0  0
 40 42  1  0  0  0  0
 41 37  2  0  0  0  0
 41 32  1  0  0  0  0
 42 35  1  0  0  0  0
M  END
>  <MODEL>
1

>  <REMARK>
 VINA RESULT:      -8.3      0.000      0.000
  Name = 
  11 active torsions:
  status: ('A' for Active; 'I' for Inactive)
    1  A    between atoms: C_2  and  C_10
    2  A    between atoms: C_2  and  C_36
    3  A    between atoms: N_6  and  C_37
    4  A    between atoms: O_7  and  C_18
    5  A    between atoms: O_7  and  C_24
    6  A    between atoms: C_9  and  C_23
    7  A    between atoms: C_13  and  C_32
    8  A    between atoms: C_13  and  C_37
    9  A    between atoms: C_14  and  C_32
   10  A    between atoms: C_23  and  C_29
   11  A    between atoms: C_32  and  C_36
                            x       y       z     vdW  Elec       q    Type
                         _______ _______ _______ _____ _____    ______ ____

>  <TORSDO>
F 11

$$$$
=
 OpenBabel11032419093D

 42 46  0  0  1  0  0  0  0  0999 V2000
  188.4480  176.7030  142.6270 C   0  0  2  0  0  3  0  0  0  0  0  0
  187.3680  176.5810  143.7090 C   0  0  2  0  0  3  0  0  0  0  0  0
  186.1040  177.3910  143.4090 C   0  0  1  0  0  3  0  0  0  0  0  0
  187.1340  177.9260  144.3810 C   0  0  1  0  0  3  0  0  0  0  0  0
  186.6190  177.7350  145.8000 C   0  0  1  0  0  3  0  0  0  0  0  0
  187.7730  177.7660  146.7850 C   0  0  0  0  0  1  0  0  0  0  0  0
  184.2990  178.8760  145.4500 C   0  0  0  0  0  1  0  0  0  0  0  0
  185.8890  179.6170  147.0080 O   0  0  0  0  0  0  0  0  0  0  0  0
  185.6190  178.7970  146.1480 C   0  0  0  0  0  0  0  0  0  0  0  0
  186.1840  178.1300  142.1930 O   0  0  0  0  0  0  0  0  0  0  0  0
  184.0270  179.3400  139.4220 C   0  0  0  0  0  3  0  0  0  0  0  0
  185.1730  179.0350  140.1610 C   0  0  0  0  0  3  0  0  0  0  0  0
  185.0580  178.4620  141.4370 C   0  0  0  0  0  0  0  0  0  0  0  0
  181.5430  179.4130  139.1680 C   0  0  0  0  0  1  0  0  0  0  0  0
  183.7870  178.2010  141.9610 C   0  0  0  0  0  3  0  0  0  0  0  0
  182.6420  178.5140  141.2230 C   0  0  0  0  0  3  0  0  0  0  0  0
  182.7610  179.0840  139.9550 C   0  0  0  0  0  0  0  0  0  0  0  0
  189.6420  175.7940  142.9250 C   0  0  0  0  0  2  0  0  0  0  0  0
  190.9030  176.5860  143.2230 C   0  0  0  0  0  2  0  0  0  0  0  0
  191.4980  176.1230  144.4670 N   0  0  0  0  0  2  0  0  0  0  0  0
  191.2940  177.1750  145.4440 C   0  0  0  0  0  1  0  0  0  0  0  0
  188.8860  178.1600  142.4280 C   0  0  0  0  0  2  0  0  0  0  0  0
  188.7280  178.6710  140.9940 C   0  0  0  0  0  2  0  0  0  0  0  0
  191.1650  174.0610  136.2580 C   0  0  0  0  0  2  0  0  0  0  0  0
  190.4300  175.0320  135.2950 C   0  0  0  0  0  2  0  0  0  0  0  0
  189.0290  177.5870  139.9780 C   0  0  1  0  0  3  0  0  0  0  0  0
  184.3470  177.0000  136.4990 C   0  0  0  0  0  2  0  0  0  0  0  0
  185.4460  176.5340  137.4530 C   0  0  0  0  0  2  0  0  0  0  0  0
  190.8970  176.1050  139.4230 O   0  0  0  0  0  0  0  0  0  0  0  0
  187.8930  176.7010  137.9680 C   0  0  0  0  0  2  0  0  0  0  0  0
  188.3670  177.9650  138.6580 C   0  0  0  0  0  2  0  0  0  0  0  0
  188.2180  177.7500  135.0260 N   0  0  0  0  0  0  0  0  0  0  0  0
  184.7180  176.6940  135.1830 O   0  0  0  0  0  0  0  0  0  0  0  0
  190.5450  177.4210  139.8510 C   0  0  0  0  0  2  0  0  0  0  0  0
  190.9830  175.7500  138.0780 C   0  0  0  0  0  0  0  0  0  0  0  0
  191.1400  174.4720  137.7180 C   0  0  0  0  0  3  0  0  0  0  0  0
  186.8160  176.9390  136.9650 C   0  0  0  0  0  0  0  0  0  0  0  0
  185.7420  177.5980  134.8570 C   0  0  0  0  0  2  0  0  0  0  0  0
  189.4060  177.2890  135.1370 N   0  0  0  0  0  0  0  0  0  0  0  0
  189.8170  176.2270  136.0260 C   0  0  2  0  0  3  0  0  0  0  0  0
  186.9860  177.3360  135.6670 C   0  0  0  0  0  0  0  0  0  0  0  0
  190.8300  176.7780  137.0100 C   0  0  0  0  0  2  0  0  0  0  0  0
  1 22  1  1  0  0  0
  1 18  1  0  0  0  0
  2  1  1  6  0  0  0
  2  4  1  0  0  0  0
  3 10  1  6  0  0  0
  3  2  1  0  0  0  0
  3  4  1  0  0  0  0
  4  5  1  1  0  0  0
  5  9  1  0  0  0  0
  5  6  1  1  0  0  0
  7  9  1  0  0  0  0
  9  8  2  0  0  0  0
 11 17  2  0  0  0  0
 11 12  1  0  0  0  0
 12 13  2  0  0  0  0
 13 15  1  0  0  0  0
 13 10  1  0  0  0  0
 14 17  1  0  0  0  0
 16 15  2  0  0  0  0
 17 16  1  0  0  0  0
 18 19  1  0  0  0  0
 19 20  1  0  0  0  0
 20 21  1  0  0  0  0
 23 22  1  0  0  0  0
 24 36  1  0  0  0  0
 25 24  1  0  0  0  0
 26 23  1  1  0  0  0
 27 28  1  0  0  0  0
 29 34  1  0  0  0  0
 30 31  1  0  0  0  0
 31 26  1  0  0  0  0
 32 39  2  0  0  0  0
 32 41  1  0  0  0  0
 33 27  1  0  0  0  0
 34 26  1  0  0  0  0
 35 29  1  0  0  0  0
 36 35  2  0  0  0  0
 37 28  1  0  0  0  0
 37 30  1  0  0  0  0
 38 33  1  0  0  0  0
 38 41  1  0  0  0  0
 39 40  1  0  0  0  0
 40 25  1  6  0  0  0
 40 42  1  0  0  0  0
 41 37  2  0  0  0  0
 42 35  1  0  0  0  0
M  END
>  <MODEL>
2

>  <REMARK>
 VINA RESULT:      -8.1      2.787      7.698
  Name = 
  11 active torsions:
  status: ('A' for Active; 'I' for Inactive)
    1  A    between atoms: C_2  and  C_10
    2  A    between atoms: C_2  and  C_36
    3  A    between atoms: N_6  and  C_37
    4  A    between atoms: O_7  and  C_18
    5  A    between atoms: O_7  and  C_24
    6  A    between atoms: C_9  and  C_23
    7  A    between atoms: C_13  and  C_32
    8  A    between atoms: C_13  and  C_37
    9  A    between atoms: C_14  and  C_32
   10  A    between atoms: C_23  and  C_29
   11  A    between atoms: C_32  and  C_36
                            x       y       z     vdW  Elec       q    Type
                         _______ _______ _______ _____ _____    ______ ____

>  <TORSDO>
F 11

$$$$
=
 OpenBabel11032419093D

 42 46  0  0  1  0  0  0  0  0999 V2000
  186.2960  178.5270  142.8860 C   0  0  2  0  0  3  0  0  0  0  0  0
  187.0740  177.4510  142.1200 C   0  0  2  0  0  3  0  0  0  0  0  0
  188.3210  176.9540  142.8550 C   0  0  1  0  0  3  0  0  0  0  0  0
  188.4540  177.9640  141.7350 C   0  0  1  0  0  3  0  0  0  0  0  0
  188.9620  177.2540  140.4890 C   0  0  1  0  0  3  0  0  0  0  0  0
  188.6600  178.0840  139.2540 C   0  0  0  0  0  1  0  0  0  0  0  0
  191.3080  177.8350  141.4730 C   0  0  0  0  0  1  0  0  0  0  0  0
  190.9390  176.1070  139.9280 O   0  0  0  0  0  0  0  0  0  0  0  0
  190.4370  177.0010  140.5880 C   0  0  0  0  0  0  0  0  0  0  0  0
  188.5390  177.6100  144.1010 O   0  0  0  0  0  0  0  0  0  0  0  0
  191.7200  176.3620  145.5580 C   0  0  0  0  0  3  0  0  0  0  0  0
  190.7760  176.7700  144.6120 C   0  0  0  0  0  3  0  0  0  0  0  0
  189.4990  177.1810  145.0210 C   0  0  0  0  0  0  0  0  0  0  0  0
  192.3970  175.9170  147.9210 C   0  0  0  0  0  1  0  0  0  0  0  0
  189.1800  177.1780  146.3830 C   0  0  0  0  0  3  0  0  0  0  0  0
  190.1230  176.7640  147.3280 C   0  0  0  0  0  3  0  0  0  0  0  0
  191.3910  176.3550  146.9160 C   0  0  0  0  0  0  0  0  0  0  0  0
  185.4220  177.9120  143.9810 C   0  0  0  0  0  2  0  0  0  0  0  0
  184.5720  178.9530  144.6870 C   0  0  0  0  0  2  0  0  0  0  0  0
  185.2310  179.3870  145.9090 N   0  0  0  0  0  2  0  0  0  0  0  0
  185.6390  178.1860  146.6110 C   0  0  0  0  0  1  0  0  0  0  0  0
  185.4720  179.4110  141.9400 C   0  0  0  0  0  2  0  0  0  0  0  0
  185.4910  178.9530  140.4800 C   0  0  0  0  0  2  0  0  0  0  0  0
  179.7870  175.9270  137.6650 C   0  0  0  0  0  2  0  0  0  0  0  0
  179.1330  177.2310  138.1930 C   0  0  0  0  0  2  0  0  0  0  0  0
  184.2090  178.2380  140.1010 C   0  0  1  0  0  3  0  0  0  0  0  0
  180.2200  179.3190  144.2590 C   0  0  0  0  0  2  0  0  0  0  0  0
  181.0800  178.4530  143.3390 C   0  0  0  0  0  2  0  0  0  0  0  0
  183.4050  176.8340  138.2640 O   0  0  0  0  0  0  0  0  0  0  0  0
  181.9010  178.1850  140.9860 C   0  0  0  0  0  2  0  0  0  0  0  0
  183.0290  179.0960  140.5420 C   0  0  0  0  0  2  0  0  0  0  0  0
  179.5490  180.1020  140.1780 N   0  0  0  0  0  0  0  0  0  0  0  0
  178.9310  179.4250  143.7210 O   0  0  0  0  0  0  0  0  0  0  0  0
  184.2100  177.9660  138.5950 C   0  0  0  0  0  2  0  0  0  0  0  0
  182.0380  176.9340  138.0060 C   0  0  0  0  0  0  0  0  0  0  0  0
  181.2870  175.8360  137.8750 C   0  0  0  0  0  3  0  0  0  0  0  0
  180.9210  178.8510  141.8910 C   0  0  0  0  0  0  0  0  0  0  0  0
  179.0520  180.2740  142.6090 C   0  0  0  0  0  2  0  0  0  0  0  0
  179.6340  179.5100  139.0480 N   0  0  0  0  0  0  0  0  0  0  0  0
  180.1500  178.1770  138.8330 C   0  0  2  0  0  3  0  0  0  0  0  0
  179.8640  179.6320  141.5120 C   0  0  0  0  0  0  0  0  0  0  0  0
  181.3730  178.2660  137.9430 C   0  0  0  0  0  2  0  0  0  0  0  0
  1 22  1  6  0  0  0
  1 18  1  0  0  0  0
  2  3  1  0  0  0  0
  2  1  1  1  0  0  0
  3 10  1  1  0  0  0
  4  5  1  6  0  0  0
  4  2  1  0  0  0  0
  4  3  1  0  0  0  0
  5  6  1  6  0  0  0
  5  9  1  0  0  0  0
  8  9  2  0  0  0  0
  9  7  1  0  0  0  0
 10 13  1  0  0  0  0
 11 17  1  0  0  0  0
 12 13  1  0  0  0  0
 12 11  2  0  0  0  0
 13 15  2  0  0  0  0
 15 16  1  0  0  0  0
 17 16  2  0  0  0  0
 17 14  1  0  0  0  0
 18 19  1  0  0  0  0
 19 20  1  0  0  0  0
 20 21  1  0  0  0  0
 23 22  1  0  0  0  0
 24 36  1  0  0  0  0
 24 25  1  0  0  0  0
 25 40  1  0  0  0  0
 26 23  1  6  0  0  0
 26 31  1  0  0  0  0
 28 27  1  0  0  0  0
 29 34  1  0  0  0  0
 30 37  1  0  0  0  0
 31 30  1  0  0  0  0
 32 41  1  0  0  0  0
 33 27  1  0  0  0  0
 34 26  1  0  0  0  0
 35 29  1  0  0  0  0
 36 35  2  0  0  0  0
 37 28  1  0  0  0  0
 38 33  1  0  0  0  0
 39 32  2  0  0  0  0
 40 42  1  6  0  0  0
 40 39  1  0  0  0  0
 41 37  2  0  0  0  0
 41 38  1  0  0  0  0
 42 35  1  0  0  0  0
M  END
>  <MODEL>
3

>  <REMARK>
 VINA RESULT:      -7.9      1.700      3.811
  Name = 
  11 active torsions:
  status: ('A' for Active; 'I' for Inactive)
    1  A    between atoms: C_2  and  C_10
    2  A    between atoms: C_2  and  C_36
    3  A    between atoms: N_6  and  C_37
    4  A    between atoms: O_7  and  C_18
    5  A    between atoms: O_7  and  C_24
    6  A    between atoms: C_9  and  C_23
    7  A    between atoms: C_13  and  C_32
    8  A    between atoms: C_13  and  C_37
    9  A    between atoms: C_14  and  C_32
   10  A    between atoms: C_23  and  C_29
   11  A    between atoms: C_32  and  C_36
                            x       y       z     vdW  Elec       q    Type
                         _______ _______ _______ _____ _____    ______ ____

>  <TORSDO>
F 11

$$$$
=
 OpenBabel11032419093D

 42 46  0  0  1  0  0  0  0  0999 V2000
  186.7280  178.6370  141.5140 C   0  0  2  0  0  3  0  0  0  0  0  0
  187.7480  177.8090  140.7230 C   0  0  2  0  0  3  0  0  0  0  0  0
  189.1190  177.7150  141.3980 C   0  0  1  0  0  3  0  0  0  0  0  0
  188.9000  178.6860  140.2570 C   0  0  1  0  0  3  0  0  0  0  0  0
  189.5330  178.1160  138.9960 C   0  0  1  0  0  3  0  0  0  0  0  0
  189.4250  176.6030  138.9940 C   0  0  0  0  0  1  0  0  0  0  0  0
  188.1710  177.7920  136.7950 C   0  0  0  0  0  1  0  0  0  0  0  0
  188.9220  179.8790  137.5620 O   0  0  0  0  0  0  0  0  0  0  0  0
  188.8750  178.6790  137.7720 C   0  0  0  0  0  0  0  0  0  0  0  0
  189.1960  178.4430  142.6200 O   0  0  0  0  0  0  0  0  0  0  0  0
  189.7470  177.4470  146.1550 C   0  0  0  0  0  3  0  0  0  0  0  0
  189.1420  177.9960  145.0210 C   0  0  0  0  0  3  0  0  0  0  0  0
  189.7810  177.9190  143.7740 C   0  0  0  0  0  0  0  0  0  0  0  0
  191.6370  176.2470  147.2620 C   0  0  0  0  0  1  0  0  0  0  0  0
  191.0270  177.2900  143.6780 C   0  0  0  0  0  3  0  0  0  0  0  0
  191.6330  176.7470  144.8150 C   0  0  0  0  0  3  0  0  0  0  0  0
  190.9950  176.8270  146.0530 C   0  0  0  0  0  0  0  0  0  0  0  0
  186.2330  177.8830  142.7490 C   0  0  0  0  0  2  0  0  0  0  0  0
  184.8600  178.3530  143.1950 C   0  0  0  0  0  2  0  0  0  0  0  0
  184.8310  178.5030  144.6410 N   0  0  0  0  0  2  0  0  0  0  0  0
  183.5170  179.0150  144.9800 C   0  0  0  0  0  1  0  0  0  0  0  0
  185.5600  179.0920  140.6270 C   0  0  0  0  0  2  0  0  0  0  0  0
  185.5230  178.4270  139.2510 C   0  0  0  0  0  2  0  0  0  0  0  0
  179.3600  176.2810  136.6000 C   0  0  0  0  0  2  0  0  0  0  0  0
  178.9420  177.7020  137.0650 C   0  0  0  0  0  2  0  0  0  0  0  0
  184.1350  177.9220  138.9100 C   0  0  1  0  0  3  0  0  0  0  0  0
  180.4300  179.8660  143.0170 C   0  0  0  0  0  2  0  0  0  0  0  0
  181.1210  178.8230  142.1390 C   0  0  0  0  0  2  0  0  0  0  0  0
  183.0850  176.5880  137.1460 O   0  0  0  0  0  0  0  0  0  0  0  0
  181.8600  178.3050  139.8010 C   0  0  0  0  0  2  0  0  0  0  0  0
  183.1220  178.9890  139.3100 C   0  0  0  0  0  2  0  0  0  0  0  0
  179.8590  180.5530  138.9030 N   0  0  0  0  0  0  0  0  0  0  0  0
  179.1720  180.1640  142.4770 O   0  0  0  0  0  0  0  0  0  0  0  0
  184.0740  177.5810  137.4190 C   0  0  0  0  0  2  0  0  0  0  0  0
  181.7520  176.9060  136.8870 C   0  0  0  0  0  0  0  0  0  0  0  0
  180.8250  175.9460  136.8110 C   0  0  0  0  0  3  0  0  0  0  0  0
  181.0170  179.1710  140.6740 C   0  0  0  0  0  0  0  0  0  0  0  0
  179.4240  180.9250  141.3240 C   0  0  0  0  0  2  0  0  0  0  0  0
  179.8300  179.9000  137.8040 N   0  0  0  0  0  0  0  0  0  0  0  0
  180.1110  178.4900  137.6550 C   0  0  2  0  0  3  0  0  0  0  0  0
  180.1040  180.1010  140.2590 C   0  0  0  0  0  0  0  0  0  0  0  0
  181.3220  178.3270  136.7580 C   0  0  0  0  0  2  0  0  0  0  0  0
  1 22  1  6  0  0  0
  1 18  1  0  0  0  0
  2  3  1  0  0  0  0
  2  1  1  1  0  0  0
  3 10  1  1  0  0  0
  4  5  1  6  0  0  0
  4  2  1  0  0  0  0
  4  3  1  0  0  0  0
  5  6  1  1  0  0  0
  7  9  1  0  0  0  0
  8  9  2  0  0  0  0
  9  5  1  0  0  0  0
 10 13  1  0  0  0  0
 12 11  2  0  0  0  0
 13 12  1  0  0  0  0
 15 13  2  0  0  0  0
 15 16  1  0  0  0  0
 16 17  2  0  0  0  0
 17 11  1  0  0  0  0
 17 14  1  0  0  0  0
 18 19  1  0  0  0  0
 19 20  1  0  0  0  0
 20 21  1  0  0  0  0
 23 22  1  0  0  0  0
 24 36  1  0  0  0  0
 24 25  1  0  0  0  0
 25 40  1  0  0  0  0
 26 23  1  6  0  0  0
 26 31  1  0  0  0  0
 28 27  1  0  0  0  0
 29 34  1  0  0  0  0
 30 37  1  0  0  0  0
 31 30  1  0  0  0  0
 32 41  1  0  0  0  0
 33 27  1  0  0  0  0
 34 26  1  0  0  0  0
 35 29  1  0  0  0  0
 36 35  2  0  0  0  0
 37 28  1  0  0  0  0
 38 33  1  0  0  0  0
 39 32  2  0  0  0  0
 40 42  1  6  0  0  0
 40 39  1  0  0  0  0
 41 37  2  0  0  0  0
 41 38  1  0  0  0  0
 42 35  1  0  0  0  0
M  END
>  <MODEL>
4

>  <REMARK>
 VINA RESULT:      -7.8      1.958      3.980
  Name = 
  11 active torsions:
  status: ('A' for Active; 'I' for Inactive)
    1  A    between atoms: C_2  and  C_10
    2  A    between atoms: C_2  and  C_36
    3  A    between atoms: N_6  and  C_37
    4  A    between atoms: O_7  and  C_18
    5  A    between atoms: O_7  and  C_24
    6  A    between atoms: C_9  and  C_23
    7  A    between atoms: C_13  and  C_32
    8  A    between atoms: C_13  and  C_37
    9  A    between atoms: C_14  and  C_32
   10  A    between atoms: C_23  and  C_29
   11  A    between atoms: C_32  and  C_36
                            x       y       z     vdW  Elec       q    Type
                         _______ _______ _______ _____ _____    ______ ____

>  <TORSDO>
F 11

$$$$
=
 OpenBabel11032419093D

 42 46  0  0  1  0  0  0  0  0999 V2000
  189.9510  176.9380  140.5080 C   0  0  2  0  0  3  0  0  0  0  0  0
  190.6380  176.8070  141.8730 C   0  0  2  0  0  3  0  0  0  0  0  0
  189.6750  176.4710  143.0150 C   0  0  1  0  0  3  0  0  0  0  0  0
  190.1510  177.8950  142.8190 C   0  0  1  0  0  3  0  0  0  0  0  0
  191.2100  178.2090  143.8660 C   0  0  1  0  0  3  0  0  0  0  0  0
  191.3650  179.7110  144.0190 C   0  0  0  0  0  1  0  0  0  0  0  0
  191.6770  176.5000  145.7810 C   0  0  0  0  0  1  0  0  0  0  0  0
  189.8590  177.9850  145.7800 O   0  0  0  0  0  0  0  0  0  0  0  0
  190.8490  177.5940  145.1850 C   0  0  0  0  0  0  0  0  0  0  0  0
  188.3170  176.3740  142.5960 O   0  0  0  0  0  0  0  0  0  0  0  0
  185.3530  178.5200  143.2300 C   0  0  0  0  0  3  0  0  0  0  0  0
  186.3930  177.8800  142.5520 C   0  0  0  0  0  3  0  0  0  0  0  0
  187.2770  177.0400  143.2470 C   0  0  0  0  0  0  0  0  0  0  0  0
  184.0870  179.0190  145.3240 C   0  0  0  0  0  1  0  0  0  0  0  0
  187.1060  176.8520  144.6230 C   0  0  0  0  0  3  0  0  0  0  0  0
  186.0680  177.4990  145.3010 C   0  0  0  0  0  3  0  0  0  0  0  0
  185.1930  178.3330  144.6050 C   0  0  0  0  0  0  0  0  0  0  0  0
  190.9120  176.6020  139.3650 C   0  0  0  0  0  2  0  0  0  0  0  0
  192.3110  177.1360  139.6170 C   0  0  0  0  0  2  0  0  0  0  0  0
  193.1910  176.7590  138.5240 N   0  0  0  0  0  2  0  0  0  0  0  0
  192.3610  176.1140  137.5240 C   0  0  0  0  0  1  0  0  0  0  0  0
  189.3210  178.3250  140.3230 C   0  0  0  0  0  2  0  0  0  0  0  0
  188.6860  178.5450  138.9480 C   0  0  0  0  0  2  0  0  0  0  0  0
  184.8400  173.2440  136.3560 C   0  0  0  0  0  2  0  0  0  0  0  0
  183.9190  174.4280  135.9570 C   0  0  0  0  0  2  0  0  0  0  0  0
  187.7250  177.4290  138.5910 C   0  0  1  0  0  3  0  0  0  0  0  0
  182.3430  179.0540  140.2530 C   0  0  0  0  0  2  0  0  0  0  0  0
  183.5670  178.1430  140.1810 C   0  0  0  0  0  2  0  0  0  0  0  0
  187.8350  175.2320  137.5170 O   0  0  0  0  0  0  0  0  0  0  0  0
  185.2680  177.1450  138.6340 C   0  0  0  0  0  2  0  0  0  0  0  0
  186.3960  178.0500  138.1750 C   0  0  0  0  0  2  0  0  0  0  0  0
  183.2670  177.8630  136.3230 N   0  0  0  0  0  0  0  0  0  0  0  0
  181.3650  178.5850  139.3650 O   0  0  0  0  0  0  0  0  0  0  0  0
  188.3420  176.5660  137.4880 C   0  0  0  0  0  2  0  0  0  0  0  0
  186.6770  174.8530  136.8390 C   0  0  0  0  0  0  0  0  0  0  0  0
  186.1370  173.6450  137.0320 C   0  0  0  0  0  3  0  0  0  0  0  0
  183.9570  177.8450  138.7530 C   0  0  0  0  0  0  0  0  0  0  0  0
  181.8400  178.8930  138.0800 C   0  0  0  0  0  2  0  0  0  0  0  0
  183.8410  176.8990  135.7090 N   0  0  0  0  0  0  0  0  0  0  0  0
  184.5150  175.7840  136.3370 C   0  0  2  0  0  3  0  0  0  0  0  0
  183.0710  178.0910  137.7410 C   0  0  0  0  0  0  0  0  0  0  0  0
  185.9770  175.8120  135.9380 C   0  0  0  0  0  2  0  0  0  0  0  0
  1 18  1  6  0  0  0
  2  1  1  6  0  0  0
  2  4  1  0  0  0  0
  2  3  1  0  0  0  0
  3 10  1  6  0  0  0
  4  3  1  0  0  0  0
  4  5  1  1  0  0  0
  5  6  1  1  0  0  0
  5  9  1  0  0  0  0
  9  8  2  0  0  0  0
  9  7  1  0  0  0  0
 10 13  1  0  0  0  0
 11 17  1  0  0  0  0
 12 11  2  0  0  0  0
 12 13  1  0  0  0  0
 13 15  2  0  0  0  0
 15 16  1  0  0  0  0
 17 16  2  0  0  0  0
 17 14  1  0  0  0  0
 18 19  1  0  0  0  0
 20 19  1  0  0  0  0
 21 20  1  0  0  0  0
 22  1  1  0  0  0  0
 23 22  1  0  0  0  0
 24 36  1  0  0  0  0
 25 40  1  0  0  0  0
 25 24  1  0  0  0  0
 26 23  1  6  0  0  0
 28 27  1  0  0  0  0
 30 37  1  0  0  0  0
 31 26  1  0  0  0  0
 31 30  1  0  0  0  0
 32 41  1  0  0  0  0
 33 27  1  0  0  0  0
 34 29  1  0  0  0  0
 34 26  1  0  0  0  0
 35 36  2  0  0  0  0
 35 29  1  0  0  0  0
 37 28  1  0  0  0  0
 38 33  1  0  0  0  0
 39 32  2  0  0  0  0
 39 40  1  0  0  0  0
 40 42  1  6  0  0  0
 41 38  1  0  0  0  0
 41 37  2  0  0  0  0
 42 35  1  0  0  0  0
M  END
>  <MODEL>
5

>  <REMARK>
 VINA RESULT:      -7.5      2.408      6.004
  Name = 
  11 active torsions:
  status: ('A' for Active; 'I' for Inactive)
    1  A    between atoms: C_2  and  C_10
    2  A    between atoms: C_2  and  C_36
    3  A    between atoms: N_6  and  C_37
    4  A    between atoms: O_7  and  C_18
    5  A    between atoms: O_7  and  C_24
    6  A    between atoms: C_9  and  C_23
    7  A    between atoms: C_13  and  C_32
    8  A    between atoms: C_13  and  C_37
    9  A    between atoms: C_14  and  C_32
   10  A    between atoms: C_23  and  C_29
   11  A    between atoms: C_32  and  C_36
                            x       y       z     vdW  Elec       q    Type
                         _______ _______ _______ _____ _____    ______ ____

>  <TORSDO>
F 11

$$$$
=
 OpenBabel11032419093D

 42 46  0  0  1  0  0  0  0  0999 V2000
  187.4560  177.7210  142.2350 C   0  0  2  0  0  3  0  0  0  0  0  0
  188.6080  178.0390  143.1950 C   0  0  2  0  0  3  0  0  0  0  0  0
  189.9250  177.3520  142.8220 C   0  0  1  0  0  3  0  0  0  0  0  0
  189.0570  176.7810  143.9240 C   0  0  1  0  0  3  0  0  0  0  0  0
  189.6740  177.1310  145.2700 C   0  0  1  0  0  3  0  0  0  0  0  0
  190.5520  178.3620  145.1400 C   0  0  0  0  0  1  0  0  0  0  0  0
  188.9460  177.8690  147.6640 C   0  0  0  0  0  1  0  0  0  0  0  0
  187.4420  177.1420  146.0160 O   0  0  0  0  0  0  0  0  0  0  0  0
  188.6060  177.3690  146.2960 C   0  0  0  0  0  0  0  0  0  0  0  0
  189.8210  176.5220  141.6700 O   0  0  0  0  0  0  0  0  0  0  0  0
  191.4050  176.0750  138.3410 C   0  0  0  0  0  3  0  0  0  0  0  0
  190.4620  176.0070  139.3690 C   0  0  0  0  0  3  0  0  0  0  0  0
  190.7490  176.5590  140.6270 C   0  0  0  0  0  0  0  0  0  0  0  0
  193.6450  176.7540  137.4680 C   0  0  0  0  0  1  0  0  0  0  0  0
  191.9860  177.1760  140.8410 C   0  0  0  0  0  3  0  0  0  0  0  0
  192.9310  177.2370  139.8120 C   0  0  0  0  0  3  0  0  0  0  0  0
  192.6420  176.6860  138.5640 C   0  0  0  0  0  0  0  0  0  0  0  0
  187.3140  178.7980  141.1560 C   0  0  0  0  0  2  0  0  0  0  0  0
  187.5930  178.2550  139.7660 C   0  0  0  0  0  2  0  0  0  0  0  0
  188.6750  179.0040  139.1480 N   0  0  0  0  0  2  0  0  0  0  0  0
  188.6890  178.6350  137.7450 C   0  0  0  0  0  1  0  0  0  0  0  0
  186.1360  177.5040  142.9890 C   0  0  0  0  0  2  0  0  0  0  0  0
  185.4560  178.7960  143.4440 C   0  0  0  0  0  2  0  0  0  0  0  0
  178.9340  179.5600  140.8930 C   0  0  0  0  0  2  0  0  0  0  0  0
  179.3080  178.2210  140.2030 C   0  0  0  0  0  2  0  0  0  0  0  0
  184.1610  179.0400  142.6940 C   0  0  1  0  0  3  0  0  0  0  0  0
  184.9790  177.5100  137.0950 C   0  0  0  0  0  2  0  0  0  0  0  0
  184.5890  178.4340  138.2480 C   0  0  0  0  0  2  0  0  0  0  0  0
  181.9060  179.8460  143.2070 O   0  0  0  0  0  0  0  0  0  0  0  0
  183.3340  178.5580  140.4140 C   0  0  0  0  0  2  0  0  0  0  0  0
  184.0050  177.9560  141.6340 C   0  0  0  0  0  2  0  0  0  0  0  0
  181.8800  175.9400  139.4710 N   0  0  0  0  0  0  0  0  0  0  0  0
  183.8210  176.9520  136.5380 O   0  0  0  0  0  0  0  0  0  0  0  0
  182.9980  179.0620  143.6900 C   0  0  0  0  0  2  0  0  0  0  0  0
  180.8990  179.3150  142.4030 C   0  0  0  0  0  0  0  0  0  0  0  0
  179.9940  180.1140  141.8270 C   0  0  0  0  0  3  0  0  0  0  0  0
  183.5770  177.7860  139.1620 C   0  0  0  0  0  0  0  0  0  0  0  0
  183.3640  176.0120  137.4760 C   0  0  0  0  0  2  0  0  0  0  0  0
  180.9400  176.3480  140.2360 N   0  0  0  0  0  0  0  0  0  0  0  0
  180.6960  177.7230  140.6090 C   0  0  2  0  0  3  0  0  0  0  0  0
  182.8870  176.6830  138.7400 C   0  0  0  0  0  0  0  0  0  0  0  0
  180.8500  177.8550  142.1110 C   0  0  0  0  0  2  0  0  0  0  0  0
  1 18  1  6  0  0  0
  1 22  1  0  0  0  0
  2  1  1  6  0  0  0
  2  4  1  0  0  0  0
  3 10  1  6  0  0  0
  3  2  1  0  0  0  0
  3  4  1  0  0  0  0
  4  5  1  1  0  0  0
  5  6  1  6  0  0  0
  5  9  1  0  0  0  0
  8  9  2  0  0  0  0
  9  7  1  0  0  0  0
 11 17  2  0  0  0  0
 11 12  1  0  0  0  0
 12 13  2  0  0  0  0
 13 15  1  0  0  0  0
 13 10  1  0  0  0  0
 14 17  1  0  0  0  0
 16 15  2  0  0  0  0
 17 16  1  0  0  0  0
 19 18  1  0  0  0  0
 20 19  1  0  0  0  0
 21 20  1  0  0  0  0
 22 23  1  0  0  0  0
 24 36  1  0  0  0  0
 25 24  1  0  0  0  0
 26 23  1  1  0  0  0
 26 34  1  0  0  0  0
 27 28  1  0  0  0  0
 28 37  1  0  0  0  0
 29 34  1  0  0  0  0
 30 31  1  0  0  0  0
 31 26  1  0  0  0  0
 32 39  2  0  0  0  0
 33 27  1  0  0  0  0
 33 38  1  0  0  0  0
 35 29  1  0  0  0  0
 36 35  2  0  0  0  0
 37 30  1  0  0  0  0
 38 41  1  0  0  0  0
 39 40  1  0  0  0  0
 40 25  1  1  0  0  0
 40 42  1  0  0  0  0
 41 37  2  0  0  0  0
 41 32  1  0  0  0  0
 42 35  1  0  0  0  0
M  END
>  <MODEL>
6

>  <REMARK>
 VINA RESULT:      -7.5      2.010      4.552
  Name = 
  11 active torsions:
  status: ('A' for Active; 'I' for Inactive)
    1  A    between atoms: C_2  and  C_10
    2  A    between atoms: C_2  and  C_36
    3  A    between atoms: N_6  and  C_37
    4  A    between atoms: O_7  and  C_18
    5  A    between atoms: O_7  and  C_24
    6  A    between atoms: C_9  and  C_23
    7  A    between atoms: C_13  and  C_32
    8  A    between atoms: C_13  and  C_37
    9  A    between atoms: C_14  and  C_32
   10  A    between atoms: C_23  and  C_29
   11  A    between atoms: C_32  and  C_36
                            x       y       z     vdW  Elec       q    Type
                         _______ _______ _______ _____ _____    ______ ____

>  <TORSDO>
F 11

$$$$
=
 OpenBabel11032419093D

 42 46  0  0  1  0  0  0  0  0999 V2000
  188.5710  178.2370  139.5310 C   0  0  2  0  0  3  0  0  0  0  0  0
  189.3780  176.9340  139.4940 C   0  0  2  0  0  3  0  0  0  0  0  0
  190.2970  176.7460  140.7050 C   0  0  1  0  0  3  0  0  0  0  0  0
  190.8670  177.2320  139.3880 C   0  0  1  0  0  3  0  0  0  0  0  0
  191.5980  176.0820  138.7130 C   0  0  1  0  0  3  0  0  0  0  0  0
  190.9050  175.7100  137.4150 C   0  0  0  0  0  1  0  0  0  0  0  0
  193.7190  175.9990  137.1960 C   0  0  0  0  0  1  0  0  0  0  0  0
  193.6410  177.1150  139.2580 O   0  0  0  0  0  0  0  0  0  0  0  0
  193.0270  176.4480  138.4430 C   0  0  0  0  0  0  0  0  0  0  0  0
  190.2510  177.8360  141.6210 O   0  0  0  0  0  0  0  0  0  0  0  0
  188.9130  177.2410  145.0350 C   0  0  0  0  0  3  0  0  0  0  0  0
  188.9520  177.4340  143.6510 C   0  0  0  0  0  3  0  0  0  0  0  0
  190.1770  177.6550  143.0040 C   0  0  0  0  0  0  0  0  0  0  0  0
  190.0500  177.0710  147.2520 C   0  0  0  0  0  1  0  0  0  0  0  0
  191.3570  177.6800  143.7560 C   0  0  0  0  0  3  0  0  0  0  0  0
  191.3150  177.4920  145.1410 C   0  0  0  0  0  3  0  0  0  0  0  0
  190.0950  177.2740  145.7800 C   0  0  0  0  0  0  0  0  0  0  0  0
  187.2190  178.0370  140.2190 C   0  0  0  0  0  2  0  0  0  0  0  0
  187.0240  178.9910  141.3850 C   0  0  0  0  0  2  0  0  0  0  0  0
  185.6060  179.2300  141.5980 N   0  0  0  0  0  2  0  0  0  0  0  0
  185.1870  178.3370  142.6610 C   0  0  0  0  0  1  0  0  0  0  0  0
  188.4050  178.8380  138.1290 C   0  0  0  0  0  2  0  0  0  0  0  0
  188.3270  177.8000  137.0080 C   0  0  0  0  0  2  0  0  0  0  0  0
  183.5450  172.6320  137.2200 C   0  0  0  0  0  2  0  0  0  0  0  0
  182.7040  173.7090  136.4830 C   0  0  0  0  0  2  0  0  0  0  0  0
  187.2030  176.8090  137.2410 C   0  0  1  0  0  3  0  0  0  0  0  0
  182.3870  179.8200  138.6920 C   0  0  0  0  0  2  0  0  0  0  0  0
  183.4750  178.7610  138.8590 C   0  0  0  0  0  2  0  0  0  0  0  0
  186.8910  174.3830  137.1390 O   0  0  0  0  0  0  0  0  0  0  0  0
  184.7730  176.9780  137.6670 C   0  0  0  0  0  2  0  0  0  0  0  0
  185.8990  177.4360  136.7600 C   0  0  0  0  0  2  0  0  0  0  0  0
  182.5010  177.0780  135.5010 N   0  0  0  0  0  0  0  0  0  0  0  0
  181.2290  179.2170  138.1840 O   0  0  0  0  0  0  0  0  0  0  0  0
  187.5280  175.5000  136.5180 C   0  0  0  0  0  2  0  0  0  0  0  0
  185.6010  173.9730  136.8050 C   0  0  0  0  0  0  0  0  0  0  0  0
  184.9730  173.0400  137.5280 C   0  0  0  0  0  3  0  0  0  0  0  0
  183.5850  177.8780  137.6390 C   0  0  0  0  0  0  0  0  0  0  0  0
  181.5110  178.9260  136.8400 C   0  0  0  0  0  2  0  0  0  0  0  0
  182.8560  175.8710  135.2690 N   0  0  0  0  0  0  0  0  0  0  0  0
  183.5000  174.9870  136.2140 C   0  0  2  0  0  3  0  0  0  0  0  0
  182.5730  177.8610  136.7190 C   0  0  0  0  0  0  0  0  0  0  0  0
  184.8680  174.6160  135.6780 C   0  0  0  0  0  2  0  0  0  0  0  0
  1 22  1  6  0  0  0
  1 18  1  0  0  0  0
  2  1  1  1  0  0  0
  2  3  1  0  0  0  0
  3 10  1  1  0  0  0
  4  5  1  6  0  0  0
  4  2  1  0  0  0  0
  4  3  1  0  0  0  0
  5  6  1  6  0  0  0
  7  9  1  0  0  0  0
  9  5  1  0  0  0  0
  9  8  2  0  0  0  0
 10 13  1  0  0  0  0
 11 17  1  0  0  0  0
 12 11  2  0  0  0  0
 13 12  1  0  0  0  0
 13 15  2  0  0  0  0
 15 16  1  0  0  0  0
 16 17  2  0  0  0  0
 17 14  1  0  0  0  0
 18 19  1  0  0  0  0
 19 20  1  0  0  0  0
 20 21  1  0  0  0  0
 23 22  1  0  0  0  0
 24 36  1  0  0  0  0
 25 24  1  0  0  0  0
 26 23  1  6  0  0  0
 27 28  1  0  0  0  0
 31 26  1  0  0  0  0
 31 30  1  0  0  0  0
 32 41  1  0  0  0  0
 33 27  1  0  0  0  0
 34 29  1  0  0  0  0
 34 26  1  0  0  0  0
 35 29  1  0  0  0  0
 35 36  2  0  0  0  0
 37 30  1  0  0  0  0
 37 28  1  0  0  0  0
 38 33  1  0  0  0  0
 39 32  2  0  0  0  0
 39 40  1  0  0  0  0
 40 42  1  6  0  0  0
 40 25  1  0  0  0  0
 41 38  1  0  0  0  0
 41 37  2  0  0  0  0
 42 35  1  0  0  0  0
M  END
>  <MODEL>
7

>  <REMARK>
 VINA RESULT:      -7.3      2.275      4.625
  Name = 
  11 active torsions:
  status: ('A' for Active; 'I' for Inactive)
    1  A    between atoms: C_2  and  C_10
    2  A    between atoms: C_2  and  C_36
    3  A    between atoms: N_6  and  C_37
    4  A    between atoms: O_7  and  C_18
    5  A    between atoms: O_7  and  C_24
    6  A    between atoms: C_9  and  C_23
    7  A    between atoms: C_13  and  C_32
    8  A    between atoms: C_13  and  C_37
    9  A    between atoms: C_14  and  C_32
   10  A    between atoms: C_23  and  C_29
   11  A    between atoms: C_32  and  C_36
                            x       y       z     vdW  Elec       q    Type
                         _______ _______ _______ _____ _____    ______ ____

>  <TORSDO>
F 11

$$$$
=
 OpenBabel11032419093D

 42 46  0  0  1  0  0  0  0  0999 V2000
  188.1170  177.4430  138.8990 C   0  0  2  0  0  3  0  0  0  0  0  0
  187.5670  178.5580  139.7960 C   0  0  2  0  0  3  0  0  0  0  0  0
  187.9300  178.3900  141.2750 C   0  0  1  0  0  3  0  0  0  0  0  0
  186.5530  177.9960  140.7820 C   0  0  1  0  0  3  0  0  0  0  0  0
  185.5550  179.0680  141.1960 C   0  0  1  0  0  3  0  0  0  0  0  0
  184.6130  179.3780  140.0470 C   0  0  0  0  0  1  0  0  0  0  0  0
  185.4560  178.2510  143.6710 C   0  0  0  0  0  1  0  0  0  0  0  0
  183.5560  178.5630  142.3300 O   0  0  0  0  0  0  0  0  0  0  0  0
  184.7720  178.6270  142.3960 C   0  0  0  0  0  0  0  0  0  0  0  0
  188.6840  177.2110  141.5390 O   0  0  0  0  0  0  0  0  0  0  0  0
  191.2700  176.0400  143.9340 C   0  0  0  0  0  3  0  0  0  0  0  0
  190.5350  176.1780  142.7540 C   0  0  0  0  0  3  0  0  0  0  0  0
  189.4280  177.0390  142.7080 C   0  0  0  0  0  0  0  0  0  0  0  0
  191.6800  176.6000  146.3340 C   0  0  0  0  0  1  0  0  0  0  0  0
  189.0670  177.7540  143.8550 C   0  0  0  0  0  3  0  0  0  0  0  0
  189.7990  177.6090  145.0370 C   0  0  0  0  0  3  0  0  0  0  0  0
  190.8980  176.7520  145.0770 C   0  0  0  0  0  0  0  0  0  0  0  0
  189.3880  177.8870  138.1720 C   0  0  0  0  0  2  0  0  0  0  0  0
  190.6460  177.3890  138.8610 C   0  0  0  0  0  2  0  0  0  0  0  0
  190.5630  175.9520  139.0670 N   0  0  0  0  0  2  0  0  0  0  0  0
  191.2270  175.3310  137.9370 C   0  0  0  0  0  1  0  0  0  0  0  0
  187.0550  176.9360  137.9140 C   0  0  0  0  0  2  0  0  0  0  0  0
  187.4210  175.6230  137.2200 C   0  0  0  0  0  2  0  0  0  0  0  0
  182.3730  170.8400  136.0940 C   0  0  0  0  0  2  0  0  0  0  0  0
  181.5730  172.1230  135.7460 C   0  0  0  0  0  2  0  0  0  0  0  0
  186.2520  174.6570  137.1960 C   0  0  1  0  0  3  0  0  0  0  0  0
  181.6490  177.3060  139.6790 C   0  0  0  0  0  2  0  0  0  0  0  0
  182.6830  176.1980  139.4770 C   0  0  0  0  0  2  0  0  0  0  0  0
  185.8060  172.3880  136.3940 O   0  0  0  0  0  0  0  0  0  0  0  0
  183.8480  174.7970  137.7560 C   0  0  0  0  0  2  0  0  0  0  0  0
  184.9720  175.4550  136.9790 C   0  0  0  0  0  2  0  0  0  0  0  0
  181.5260  175.6370  135.8160 N   0  0  0  0  0  0  0  0  0  0  0  0
  180.4460  176.9320  139.0650 O   0  0  0  0  0  0  0  0  0  0  0  0
  186.4860  173.6090  136.1050 C   0  0  0  0  0  2  0  0  0  0  0  0
  184.4870  172.1520  136.0080 C   0  0  0  0  0  0  0  0  0  0  0  0
  183.8300  171.0740  136.4480 C   0  0  0  0  0  3  0  0  0  0  0  0
  182.7100  175.7150  138.0470 C   0  0  0  0  0  0  0  0  0  0  0  0
  180.6750  177.0430  137.6830 C   0  0  0  0  0  2  0  0  0  0  0  0
  181.8070  174.5400  135.2220 N   0  0  0  0  0  0  0  0  0  0  0  0
  182.4280  173.3870  135.8340 C   0  0  2  0  0  3  0  0  0  0  0  0
  181.6730  176.0180  137.2070 C   0  0  0  0  0  0  0  0  0  0  0  0
  183.7590  173.1330  135.1550 C   0  0  0  0  0  2  0  0  0  0  0  0
  1 22  1  6  0  0  0
  2  1  1  6  0  0  0
  2  4  1  0  0  0  0
  2  3  1  0  0  0  0
  3 10  1  6  0  0  0
  4  5  1  1  0  0  0
  4  3  1  0  0  0  0
  5  6  1  6  0  0  0
  5  9  1  0  0  0  0
  8  9  2  0  0  0  0
  9  7  1  0  0  0  0
 10 13  1  0  0  0  0
 11 17  1  0  0  0  0
 12 11  2  0  0  0  0
 13 12  1  0  0  0  0
 13 15  2  0  0  0  0
 15 16  1  0  0  0  0
 16 17  2  0  0  0  0
 17 14  1  0  0  0  0
 18 19  1  0  0  0  0
 18  1  1  0  0  0  0
 19 20  1  0  0  0  0
 21 20  1  0  0  0  0
 23 22  1  0  0  0  0
 24 36  1  0  0  0  0
 25 40  1  0  0  0  0
 25 24  1  0  0  0  0
 26 23  1  6  0  0  0
 28 27  1  0  0  0  0
 30 37  1  0  0  0  0
 31 26  1  0  0  0  0
 31 30  1  0  0  0  0
 32 41  1  0  0  0  0
 33 27  1  0  0  0  0
 34 29  1  0  0  0  0
 34 26  1  0  0  0  0
 35 29  1  0  0  0  0
 35 36  2  0  0  0  0
 37 28  1  0  0  0  0
 38 33  1  0  0  0  0
 39 32  2  0  0  0  0
 39 40  1  0  0  0  0
 40 42  1  6  0  0  0
 41 38  1  0  0  0  0
 41 37  2  0  0  0  0
 42 35  1  0  0  0  0
M  END
>  <MODEL>
8

>  <REMARK>
 VINA RESULT:      -7.2      2.615      5.814
  Name = 
  11 active torsions:
  status: ('A' for Active; 'I' for Inactive)
    1  A    between atoms: C_2  and  C_10
    2  A    between atoms: C_2  and  C_36
    3  A    between atoms: N_6  and  C_37
    4  A    between atoms: O_7  and  C_18
    5  A    between atoms: O_7  and  C_24
    6  A    between atoms: C_9  and  C_23
    7  A    between atoms: C_13  and  C_32
    8  A    between atoms: C_13  and  C_37
    9  A    between atoms: C_14  and  C_32
   10  A    between atoms: C_23  and  C_29
   11  A    between atoms: C_32  and  C_36
                            x       y       z     vdW  Elec       q    Type
                         _______ _______ _______ _____ _____    ______ ____

>  <TORSDO>
F 11

$$$$
=
 OpenBabel11032419093D

 42 46  0  0  1  0  0  0  0  0999 V2000
  188.6910  177.5900  139.4740 C   0  0  2  0  0  3  0  0  0  0  0  0
  188.1380  178.6210  140.4640 C   0  0  2  0  0  3  0  0  0  0  0  0
  188.8010  178.5660  141.8430 C   0  0  1  0  0  3  0  0  0  0  0  0
  187.4460  177.9260  141.6270 C   0  0  1  0  0  3  0  0  0  0  0  0
  186.3750  178.8230  142.2300 C   0  0  1  0  0  3  0  0  0  0  0  0
  185.2450  179.0270  141.2380 C   0  0  0  0  0  1  0  0  0  0  0  0
  184.5050  178.6320  144.0390 C   0  0  0  0  0  1  0  0  0  0  0  0
  186.5110  177.4160  144.1110 O   0  0  0  0  0  0  0  0  0  0  0  0
  185.8410  178.2310  143.5000 C   0  0  0  0  0  0  0  0  0  0  0  0
  189.7870  177.5430  141.9530 O   0  0  0  0  0  0  0  0  0  0  0  0
  191.7070  175.6630  144.5170 C   0  0  0  0  0  3  0  0  0  0  0  0
  191.1730  176.0300  143.2790 C   0  0  0  0  0  3  0  0  0  0  0  0
  190.3230  177.1410  143.1780 C   0  0  0  0  0  0  0  0  0  0  0  0
  191.9560  176.0020  146.9790 C   0  0  0  0  0  1  0  0  0  0  0  0
  190.0150  177.8760  144.3280 C   0  0  0  0  0  3  0  0  0  0  0  0
  190.5450  177.5040  145.5670 C   0  0  0  0  0  3  0  0  0  0  0  0
  191.3890  176.3970  145.6620 C   0  0  0  0  0  0  0  0  0  0  0  0
  189.7890  178.1910  138.5950 C   0  0  0  0  0  2  0  0  0  0  0  0
  190.5560  177.1280  137.8290 C   0  0  0  0  0  2  0  0  0  0  0  0
  191.3550  176.3330  138.7470 N   0  0  0  0  0  2  0  0  0  0  0  0
  192.7190  176.3770  138.2570 C   0  0  0  0  0  1  0  0  0  0  0  0
  187.5730  176.9630  138.6280 C   0  0  0  0  0  2  0  0  0  0  0  0
  186.6230  177.9810  137.9950 C   0  0  0  0  0  2  0  0  0  0  0  0
  180.8260  175.2580  135.0610 C   0  0  0  0  0  2  0  0  0  0  0  0
  180.2450  176.6210  135.5240 C   0  0  0  0  0  2  0  0  0  0  0  0
  185.3080  177.3420  137.5900 C   0  0  1  0  0  3  0  0  0  0  0  0
  181.2590  178.8290  141.5600 C   0  0  0  0  0  2  0  0  0  0  0  0
  182.0890  177.8770  140.7000 C   0  0  0  0  0  2  0  0  0  0  0  0
  184.4740  175.9370  135.7670 O   0  0  0  0  0  0  0  0  0  0  0  0
  182.9720  177.4760  138.3880 C   0  0  0  0  0  2  0  0  0  0  0  0
  184.1760  178.2930  137.9600 C   0  0  0  0  0  2  0  0  0  0  0  0
  180.7880  179.5210  137.4340 N   0  0  0  0  0  0  0  0  0  0  0  0
  180.0000  179.0050  140.9710 O   0  0  0  0  0  0  0  0  0  0  0  0
  185.3440  177.0210  136.0930 C   0  0  0  0  0  2  0  0  0  0  0  0
  183.1280  176.1210  135.4560 C   0  0  0  0  0  0  0  0  0  0  0  0
  182.3080  175.0720  135.3300 C   0  0  0  0  0  3  0  0  0  0  0  0
  182.0090  178.2360  139.2350 C   0  0  0  0  0  0  0  0  0  0  0  0
  180.2190  179.8070  139.8390 C   0  0  0  0  0  2  0  0  0  0  0  0
  180.8720  178.8870  136.3270 N   0  0  0  0  0  0  0  0  0  0  0  0
  181.3020  177.5160  136.1730 C   0  0  2  0  0  3  0  0  0  0  0  0
  181.0230  179.0750  138.7930 C   0  0  0  0  0  0  0  0  0  0  0  0
  182.5590  177.4920  135.3260 C   0  0  0  0  0  2  0  0  0  0  0  0
  1 18  1  6  0  0  0
  2  1  1  6  0  0  0
  2  4  1  0  0  0  0
  2  3  1  0  0  0  0
  3 10  1  6  0  0  0
  4  3  1  0  0  0  0
  4  5  1  1  0  0  0
  5  6  1  6  0  0  0
  5  9  1  0  0  0  0
  9  7  1  0  0  0  0
  9  8  2  0  0  0  0
 10 13  1  0  0  0  0
 11 17  1  0  0  0  0
 12 11  2  0  0  0  0
 13 12  1  0  0  0  0
 13 15  2  0  0  0  0
 15 16  1  0  0  0  0
 16 17  2  0  0  0  0
 17 14  1  0  0  0  0
 19 18  1  0  0  0  0
 19 20  1  0  0  0  0
 21 20  1  0  0  0  0
 22  1  1  0  0  0  0
 23 22  1  0  0  0  0
 24 36  1  0  0  0  0
 24 25  1  0  0  0  0
 25 40  1  0  0  0  0
 26 31  1  0  0  0  0
 26 23  1  6  0  0  0
 28 27  1  0  0  0  0
 29 34  1  0  0  0  0
 30 37  1  0  0  0  0
 31 30  1  0  0  0  0
 32 41  1  0  0  0  0
 33 27  1  0  0  0  0
 34 26  1  0  0  0  0
 35 29  1  0  0  0  0
 36 35  2  0  0  0  0
 37 28  1  0  0  0  0
 38 33  1  0  0  0  0
 39 32  2  0  0  0  0
 40 42  1  6  0  0  0
 40 39  1  0  0  0  0
 41 37  2  0  0  0  0
 41 38  1  0  0  0  0
 42 35  1  0  0  0  0
M  END
>  <MODEL>
9

>  <REMARK>
 VINA RESULT:      -7.2      2.313      5.253
  Name = 
  11 active torsions:
  status: ('A' for Active; 'I' for Inactive)
    1  A    between atoms: C_2  and  C_10
    2  A    between atoms: C_2  and  C_36
    3  A    between atoms: N_6  and  C_37
    4  A    between atoms: O_7  and  C_18
    5  A    between atoms: O_7  and  C_24
    6  A    between atoms: C_9  and  C_23
    7  A    between atoms: C_13  and  C_32
    8  A    between atoms: C_13  and  C_37
    9  A    between atoms: C_14  and  C_32
   10  A    between atoms: C_23  and  C_29
   11  A    between atoms: C_32  and  C_36
                            x       y       z     vdW  Elec       q    Type
                         _______ _______ _______ _____ _____    ______ ____

>  <TORSDO>
F 11

$$$$
