=
 OpenBabel11042411343D

 36 40  0  0  1  0  0  0  0  0999 V2000
  191.5320  176.5030  145.6100 C   0  0  0  0  0  3  0  0  0  0  0  0
  189.2810  177.3060  145.9030 C   0  0  0  0  0  0  0  0  0  0  0  0
  190.7920  177.1450  147.7490 N   0  0  0  0  0  0  0  0  0  0  0  0
  187.3080  178.2690  147.6470 C   0  0  0  0  0  3  0  0  0  0  0  0
  190.2900  176.8180  145.0600 C   0  0  0  0  0  0  0  0  0  0  0  0
  188.0070  177.6350  145.4180 C   0  0  0  0  0  3  0  0  0  0  0  0
  188.5760  177.9470  148.1410 C   0  0  0  0  0  3  0  0  0  0  0  0
  189.5610  177.4650  147.2740 C   0  0  0  0  0  0  0  0  0  0  0  0
  191.7470  176.6790  146.9410 N   0  0  0  0  0  0  0  0  0  0  0  0
  187.0180  178.1140  146.2840 C   0  0  0  0  0  0  0  0  0  0  0  0
  185.6870  178.4470  145.7590 C   0  0  0  0  0  0  0  0  0  0  0  0
  183.6190  178.9700  145.7570 N   0  0  0  0  0  0  0  0  0  0  0  0
  184.6430  178.7090  146.5090 O   0  0  0  0  0  0  0  0  0  0  0  0
  185.3880  178.5260  144.4480 N   0  0  0  0  0  0  0  0  0  0  0  0
  184.0780  178.8490  144.4970 C   0  0  0  0  0  0  0  0  0  0  0  0
  183.2360  179.1090  143.2900 C   0  0  2  0  0  3  0  0  0  0  0  0
  181.8880  178.8330  143.5540 O   0  0  0  0  0  1  0  0  0  0  0  0
  183.2870  177.6770  139.8740 C   0  0  0  0  0  2  0  0  0  0  0  0
  183.7350  178.3620  142.1290 N   0  0  0  0  0  0  0  0  0  0  0  0
  184.6830  179.2070  141.4190 C   0  0  0  0  0  2  0  0  0  0  0  0
  184.7960  178.6580  139.6880 S   0  0  0  0  0  0  0  0  0  0  0  0
  182.6590  178.0710  141.1900 C   0  0  0  0  0  2  0  0  0  0  0  0
  190.0600  176.6040  143.5980 C   0  0  0  0  0  2  0  0  0  0  0  0
  190.3810  177.8740  142.8290 C   0  0  0  0  0  2  0  0  0  0  0  0
  190.3800  176.2180  141.0510 N   0  0  0  0  0  1  0  0  0  0  0  0
  190.2230  177.6340  141.3360 C   0  0  1  0  0  3  0  0  0  0  0  0
  188.8800  178.1030  140.8620 C   0  0  0  0  0  0  0  0  0  0  0  0
  188.1540  178.7520  141.6010 O   0  0  0  0  0  0  0  0  0  0  0  0
  188.4510  177.8030  139.4560 C   0  0  0  0  0  2  0  0  0  0  0  0
  188.8620  179.4200  137.6600 N   0  0  0  0  0  1  0  0  0  0  0  0
  189.4410  178.3080  138.4010 C   0  0  2  0  0  3  0  0  0  0  0  0
  189.0310  175.9650  137.5760 C   0  0  0  0  0  2  0  0  0  0  0  0
  191.3610  175.2990  137.2930 C   0  0  0  0  0  2  0  0  0  0  0  0
  189.8990  177.2000  137.4470 C   0  0  0  0  0  3  0  0  0  0  0  0
  189.9360  174.7760  137.3080 C   0  0  0  0  0  2  0  0  0  0  0  0
  191.2970  176.7290  137.7820 C   0  0  0  0  0  2  0  0  0  0  0  0
  1  9  1  0  0  0  0
  2  8  1  0  0  0  0
  4  7  1  0  0  0  0
  5  1  2  0  0  0  0
  5  2  1  0  0  0  0
  6  2  2  0  0  0  0
  6 10  1  0  0  0  0
  8  3  1  0  0  0  0
  8  7  2  0  0  0  0
  9  3  2  0  0  0  0
 10  4  2  0  0  0  0
 11 10  1  0  0  0  0
 11 13  1  0  0  0  0
 12 13  1  0  0  0  0
 14 15  1  0  0  0  0
 14 11  2  0  0  0  0
 15 12  2  0  0  0  0
 16 17  1  1  0  0  0
 16 15  1  0  0  0  0
 18 22  1  0  0  0  0
 19 16  1  0  0  0  0
 20 19  1  0  0  0  0
 21 18  1  0  0  0  0
 21 20  1  0  0  0  0
 22 19  1  0  0  0  0
 23  5  1  0  0  0  0
 24 23  1  0  0  0  0
 26 25  1  1  0  0  0
 26 24  1  0  0  0  0
 27 26  1  0  0  0  0
 27 28  2  0  0  0  0
 29 27  1  0  0  0  0
 31 30  1  6  0  0  0
 31 29  1  0  0  0  0
 33 35  1  0  0  0  0
 33 36  1  0  0  0  0
 34 32  1  0  0  0  0
 34 36  1  0  0  0  0
 34 31  1  0  0  0  0
 35 32  1  0  0  0  0
M  END
>  <MODEL>
1

>  <REMARK>
 VINA RESULT:      -9.8      0.000      0.000
  Name = 
  10 active torsions:
  status: ('A' for Active; 'I' for Inactive)
    1  A    between atoms: N_5  and  C_7
    2  A    between atoms: C_7  and  C_32
    3  A    between atoms: C_11  and  C_21
    4  A    between atoms: C_14  and  C_35
    5  A    between atoms: C_20  and  C_31
    6  A    between atoms: C_20  and  C_34
    7  A    between atoms: C_21  and  C_25
    8  A    between atoms: C_25  and  C_31
    9  A    between atoms: C_26  and  C_27
   10  A    between atoms: C_27  and  C_34
                            x       y       z     vdW  Elec       q    Type
                         _______ _______ _______ _____ _____    ______ ____

>  <TORSDO>
F 10

$$$$
=
 OpenBabel11042411343D

 36 40  0  0  1  0  0  0  0  0999 V2000
  187.1260  177.8960  146.7210 C   0  0  0  0  0  3  0  0  0  0  0  0
  185.9100  178.3040  144.6820 C   0  0  0  0  0  0  0  0  0  0  0  0
  184.8970  178.6400  146.8220 N   0  0  0  0  0  0  0  0  0  0  0  0
  183.5120  179.0890  143.4620 C   0  0  0  0  0  3  0  0  0  0  0  0
  187.0940  177.9130  145.3270 C   0  0  0  0  0  0  0  0  0  0  0  0
  185.8050  178.3350  143.2850 C   0  0  0  0  0  3  0  0  0  0  0  0
  183.6060  179.0640  144.8560 C   0  0  0  0  0  3  0  0  0  0  0  0
  184.8000  178.6720  145.4680 C   0  0  0  0  0  0  0  0  0  0  0  0
  186.0250  178.2640  147.4290 N   0  0  0  0  0  0  0  0  0  0  0  0
  184.6090  178.7250  142.6700 C   0  0  0  0  0  0  0  0  0  0  0  0
  184.5150  178.7450  141.2040 C   0  0  0  0  0  0  0  0  0  0  0  0
  184.7590  179.4350  139.2000 N   0  0  0  0  0  0  0  0  0  0  0  0
  184.9910  179.7040  140.4480 O   0  0  0  0  0  0  0  0  0  0  0  0
  183.9340  177.7760  140.4690 N   0  0  0  0  0  0  0  0  0  0  0  0
  184.1050  178.2580  139.2200 C   0  0  0  0  0  0  0  0  0  0  0  0
  183.6760  177.5390  137.9810 C   0  0  2  0  0  3  0  0  0  0  0  0
  183.2340  176.2440  138.2860 O   0  0  0  0  0  1  0  0  0  0  0  0
  186.6120  176.3260  136.0780 C   0  0  0  0  0  2  0  0  0  0  0  0
  184.7460  177.5360  136.9770 N   0  0  0  0  0  0  0  0  0  0  0  0
  184.1770  177.1080  135.7080 C   0  0  0  0  0  2  0  0  0  0  0  0
  185.4990  176.4360  134.6550 S   0  0  0  0  0  0  0  0  0  0  0  0
  185.7790  176.5640  137.3150 C   0  0  0  0  0  2  0  0  0  0  0  0
  188.3050  177.4900  144.5590 C   0  0  0  0  0  2  0  0  0  0  0  0
  189.3630  176.9540  145.5100 C   0  0  0  0  0  2  0  0  0  0  0  0
  191.6800  177.2080  146.1920 N   0  0  0  0  0  1  0  0  0  0  0  0
  190.7270  177.5100  145.1390 C   0  0  1  0  0  3  0  0  0  0  0  0
  191.2020  176.9310  143.8400 C   0  0  0  0  0  0  0  0  0  0  0  0
  191.4890  175.7460  143.7590 O   0  0  0  0  0  0  0  0  0  0  0  0
  191.2860  177.8120  142.6290 C   0  0  0  0  0  2  0  0  0  0  0  0
  192.4100  177.5820  140.4630 N   0  0  0  0  0  1  0  0  0  0  0  0
  191.3670  177.0270  141.3150 C   0  0  2  0  0  3  0  0  0  0  0  0
  190.1680  177.4690  139.1450 C   0  0  0  0  0  2  0  0  0  0  0  0
  188.0710  178.2870  140.0850 C   0  0  0  0  0  2  0  0  0  0  0  0
  190.0280  176.9800  140.5730 C   0  0  0  0  0  3  0  0  0  0  0  0
  188.8560  178.1450  138.7930 C   0  0  0  0  0  2  0  0  0  0  0  0
  189.0160  177.9120  141.2040 C   0  0  0  0  0  2  0  0  0  0  0  0
  1  9  1  0  0  0  0
  2  5  1  0  0  0  0
  2  8  1  0  0  0  0
  3  9  2  0  0  0  0
  4  7  1  0  0  0  0
  5  1  2  0  0  0  0
  6  2  2  0  0  0  0
  7  8  2  0  0  0  0
  8  3  1  0  0  0  0
 10  6  1  0  0  0  0
 10  4  2  0  0  0  0
 11 10  1  0  0  0  0
 12 15  2  0  0  0  0
 12 13  1  0  0  0  0
 13 11  1  0  0  0  0
 14 11  2  0  0  0  0
 15 14  1  0  0  0  0
 16 17  1  1  0  0  0
 16 15  1  0  0  0  0
 18 22  1  0  0  0  0
 19 22  1  0  0  0  0
 19 16  1  0  0  0  0
 20 19  1  0  0  0  0
 21 20  1  0  0  0  0
 21 18  1  0  0  0  0
 23  5  1  0  0  0  0
 23 24  1  0  0  0  0
 26 24  1  0  0  0  0
 26 25  1  1  0  0  0
 27 26  1  0  0  0  0
 28 27  2  0  0  0  0
 29 27  1  0  0  0  0
 31 30  1  6  0  0  0
 31 29  1  0  0  0  0
 32 34  1  0  0  0  0
 33 36  1  0  0  0  0
 34 36  1  0  0  0  0
 34 31  1  0  0  0  0
 35 32  1  0  0  0  0
 35 33  1  0  0  0  0
M  END
>  <MODEL>
2

>  <REMARK>
 VINA RESULT:      -9.7      2.482      4.849
  Name = 
  10 active torsions:
  status: ('A' for Active; 'I' for Inactive)
    1  A    between atoms: N_5  and  C_7
    2  A    between atoms: C_7  and  C_32
    3  A    between atoms: C_11  and  C_21
    4  A    between atoms: C_14  and  C_35
    5  A    between atoms: C_20  and  C_31
    6  A    between atoms: C_20  and  C_34
    7  A    between atoms: C_21  and  C_25
    8  A    between atoms: C_25  and  C_31
    9  A    between atoms: C_26  and  C_27
   10  A    between atoms: C_27  and  C_34
                            x       y       z     vdW  Elec       q    Type
                         _______ _______ _______ _____ _____    ______ ____

>  <TORSDO>
F 10

$$$$
=
 OpenBabel11042411343D

 36 40  0  0  1  0  0  0  0  0999 V2000
  187.2000  177.8810  146.7800 C   0  0  0  0  0  3  0  0  0  0  0  0
  185.9600  178.3140  144.7620 C   0  0  0  0  0  0  0  0  0  0  0  0
  184.9500  178.5520  146.9160 N   0  0  0  0  0  0  0  0  0  0  0  0
  183.5310  179.0620  143.5790 C   0  0  0  0  0  3  0  0  0  0  0  0
  187.1590  177.9400  145.3880 C   0  0  0  0  0  0  0  0  0  0  0  0
  185.8450  178.3850  143.3660 C   0  0  0  0  0  3  0  0  0  0  0  0
  183.6350  178.9970  144.9710 C   0  0  0  0  0  3  0  0  0  0  0  0
  184.8440  178.6230  145.5640 C   0  0  0  0  0  0  0  0  0  0  0  0
  186.0930  178.1930  147.5050 N   0  0  0  0  0  0  0  0  0  0  0  0
  184.6350  178.7560  142.7700 C   0  0  0  0  0  0  0  0  0  0  0  0
  184.5310  178.8180  141.3070 C   0  0  0  0  0  0  0  0  0  0  0  0
  184.8780  179.4850  139.3100 N   0  0  0  0  0  0  0  0  0  0  0  0
  185.1690  179.6860  140.5580 O   0  0  0  0  0  0  0  0  0  0  0  0
  183.7720  177.9870  140.5640 N   0  0  0  0  0  0  0  0  0  0  0  0
  184.0160  178.4510  139.3210 C   0  0  0  0  0  0  0  0  0  0  0  0
  183.4480  177.8450  138.0770 C   0  0  2  0  0  3  0  0  0  0  0  0
  182.3130  178.5500  137.6550 O   0  0  0  0  0  1  0  0  0  0  0  0
  181.6070  174.6360  137.8970 C   0  0  0  0  0  2  0  0  0  0  0  0
  183.1720  176.4160  138.2670 N   0  0  0  0  0  0  0  0  0  0  0  0
  183.8770  175.6760  137.2310 C   0  0  0  0  0  2  0  0  0  0  0  0
  183.0630  174.0690  136.9830 S   0  0  0  0  0  0  0  0  0  0  0  0
  181.7540  176.1270  138.0880 C   0  0  0  0  0  2  0  0  0  0  0  0
  188.3780  177.5770  144.6010 C   0  0  0  0  0  2  0  0  0  0  0  0
  189.3980  176.9040  145.5040 C   0  0  0  0  0  2  0  0  0  0  0  0
  191.6950  177.0730  146.2780 N   0  0  0  0  0  1  0  0  0  0  0  0
  190.7910  177.4290  145.1980 C   0  0  1  0  0  3  0  0  0  0  0  0
  191.2980  176.8690  143.9030 C   0  0  0  0  0  0  0  0  0  0  0  0
  191.5800  175.6830  143.8090 O   0  0  0  0  0  0  0  0  0  0  0  0
  191.4210  177.7700  142.7100 C   0  0  0  0  0  2  0  0  0  0  0  0
  192.3570  177.6500  140.4480 N   0  0  0  0  0  1  0  0  0  0  0  0
  191.4380  177.0100  141.3780 C   0  0  2  0  0  3  0  0  0  0  0  0
  190.1000  176.9560  139.2460 C   0  0  0  0  0  2  0  0  0  0  0  0
  188.1390  178.1620  140.0540 C   0  0  0  0  0  2  0  0  0  0  0  0
  190.0440  176.8770  140.7590 C   0  0  0  0  0  3  0  0  0  0  0  0
  188.8080  177.6200  138.8040 C   0  0  0  0  0  2  0  0  0  0  0  0
  189.1450  178.0220  141.1740 C   0  0  0  0  0  2  0  0  0  0  0  0
  1  9  1  0  0  0  0
  2  5  1  0  0  0  0
  2  8  1  0  0  0  0
  3  9  2  0  0  0  0
  4  7  1  0  0  0  0
  5  1  2  0  0  0  0
  6  2  2  0  0  0  0
  7  8  2  0  0  0  0
  8  3  1  0  0  0  0
 10  6  1  0  0  0  0
 10  4  2  0  0  0  0
 11 10  1  0  0  0  0
 12 15  2  0  0  0  0
 12 13  1  0  0  0  0
 13 11  1  0  0  0  0
 14 11  2  0  0  0  0
 15 14  1  0  0  0  0
 16 17  1  1  0  0  0
 16 19  1  0  0  0  0
 16 15  1  0  0  0  0
 18 22  1  0  0  0  0
 20 19  1  0  0  0  0
 21 20  1  0  0  0  0
 21 18  1  0  0  0  0
 22 19  1  0  0  0  0
 23  5  1  0  0  0  0
 23 24  1  0  0  0  0
 26 24  1  0  0  0  0
 26 25  1  1  0  0  0
 27 26  1  0  0  0  0
 28 27  2  0  0  0  0
 29 27  1  0  0  0  0
 31 30  1  6  0  0  0
 31 29  1  0  0  0  0
 32 34  1  0  0  0  0
 33 36  1  0  0  0  0
 34 36  1  0  0  0  0
 34 31  1  0  0  0  0
 35 32  1  0  0  0  0
 35 33  1  0  0  0  0
M  END
>  <MODEL>
3

>  <REMARK>
 VINA RESULT:      -9.7      2.459      4.687
  Name = 
  10 active torsions:
  status: ('A' for Active; 'I' for Inactive)
    1  A    between atoms: N_5  and  C_7
    2  A    between atoms: C_7  and  C_32
    3  A    between atoms: C_11  and  C_21
    4  A    between atoms: C_14  and  C_35
    5  A    between atoms: C_20  and  C_31
    6  A    between atoms: C_20  and  C_34
    7  A    between atoms: C_21  and  C_25
    8  A    between atoms: C_25  and  C_31
    9  A    between atoms: C_26  and  C_27
   10  A    between atoms: C_27  and  C_34
                            x       y       z     vdW  Elec       q    Type
                         _______ _______ _______ _____ _____    ______ ____

>  <TORSDO>
F 10

$$$$
=
 OpenBabel11042411343D

 36 40  0  0  1  0  0  0  0  0999 V2000
  189.3830  177.1440  146.6480 C   0  0  0  0  0  3  0  0  0  0  0  0
  187.3370  177.7710  145.5430 C   0  0  0  0  0  0  0  0  0  0  0  0
  187.5810  177.9700  147.9140 N   0  0  0  0  0  0  0  0  0  0  0  0
  184.7220  178.7570  145.7650 C   0  0  0  0  0  3  0  0  0  0  0  0
  188.6490  177.2780  145.4700 C   0  0  0  0  0  0  0  0  0  0  0  0
  186.5390  177.9230  144.4010 C   0  0  0  0  0  3  0  0  0  0  0  0
  185.5090  178.6110  146.9110 C   0  0  0  0  0  3  0  0  0  0  0  0
  186.8130  178.1190  146.8040 C   0  0  0  0  0  0  0  0  0  0  0  0
  188.8270  177.4980  147.8370 N   0  0  0  0  0  0  0  0  0  0  0  0
  185.2320  178.4130  144.5060 C   0  0  0  0  0  0  0  0  0  0  0  0
  184.4090  178.5600  143.2980 C   0  0  0  0  0  0  0  0  0  0  0  0
  182.6640  178.7650  142.0880 N   0  0  0  0  0  0  0  0  0  0  0  0
  183.1000  178.6360  143.3030 O   0  0  0  0  0  0  0  0  0  0  0  0
  184.9050  178.6370  142.0470 N   0  0  0  0  0  0  0  0  0  0  0  0
  183.7720  178.7570  141.3240 C   0  0  0  0  0  0  0  0  0  0  0  0
  183.7440  178.9290  139.8390 C   0  0  2  0  0  3  0  0  0  0  0  0
  184.6860  179.8820  139.4310 O   0  0  0  0  0  1  0  0  0  0  0  0
  181.0820  180.6150  137.8920 C   0  0  0  0  0  2  0  0  0  0  0  0
  182.3910  179.2550  139.3730 N   0  0  0  0  0  0  0  0  0  0  0  0
  181.9920  178.2500  138.3990 C   0  0  0  0  0  2  0  0  0  0  0  0
  180.7010  178.9400  137.3190 S   0  0  0  0  0  0  0  0  0  0  0  0
  182.3710  180.5350  138.6750 C   0  0  0  0  0  2  0  0  0  0  0  0
  189.2640  176.8690  144.1700 C   0  0  0  0  0  2  0  0  0  0  0  0
  190.0200  178.0390  143.5620 C   0  0  0  0  0  2  0  0  0  0  0  0
  191.6740  176.2620  143.4890 N   0  0  0  0  0  1  0  0  0  0  0  0
  191.3120  177.5520  142.9290 C   0  0  1  0  0  3  0  0  0  0  0  0
  191.1660  177.4380  141.4410 C   0  0  0  0  0  0  0  0  0  0  0  0
  192.1330  177.5970  140.7100 O   0  0  0  0  0  0  0  0  0  0  0  0
  189.8290  177.0880  140.8570 C   0  0  0  0  0  2  0  0  0  0  0  0
  187.9340  178.4950  140.2000 N   0  0  0  0  0  1  0  0  0  0  0  0
  189.3060  178.1380  139.8710 C   0  0  2  0  0  3  0  0  0  0  0  0
  189.0510  178.7970  137.4540 C   0  0  0  0  0  2  0  0  0  0  0  0
  188.1490  176.6870  136.6270 C   0  0  0  0  0  2  0  0  0  0  0  0
  189.4140  177.6800  138.4130 C   0  0  0  0  0  3  0  0  0  0  0  0
  188.4040  178.1350  136.2510 C   0  0  0  0  0  2  0  0  0  0  0  0
  188.4280  176.5730  138.1090 C   0  0  0  0  0  2  0  0  0  0  0  0
  1  9  1  0  0  0  0
  2  8  1  0  0  0  0
  4  7  1  0  0  0  0
  5  2  1  0  0  0  0
  5  1  2  0  0  0  0
  6 10  1  0  0  0  0
  6  2  2  0  0  0  0
  8  7  2  0  0  0  0
  8  3  1  0  0  0  0
  9  3  2  0  0  0  0
 10  4  2  0  0  0  0
 11 13  1  0  0  0  0
 11 10  1  0  0  0  0
 12 13  1  0  0  0  0
 14 11  2  0  0  0  0
 15 14  1  0  0  0  0
 15 12  2  0  0  0  0
 16 17  1  1  0  0  0
 16 15  1  0  0  0  0
 18 22  1  0  0  0  0
 19 16  1  0  0  0  0
 20 19  1  0  0  0  0
 21 18  1  0  0  0  0
 21 20  1  0  0  0  0
 22 19  1  0  0  0  0
 23  5  1  0  0  0  0
 24 23  1  0  0  0  0
 26 25  1  1  0  0  0
 26 24  1  0  0  0  0
 27 26  1  0  0  0  0
 28 27  2  0  0  0  0
 29 27  1  0  0  0  0
 31 30  1  1  0  0  0
 31 29  1  0  0  0  0
 32 34  1  0  0  0  0
 33 36  1  0  0  0  0
 34 31  1  0  0  0  0
 35 33  1  0  0  0  0
 35 32  1  0  0  0  0
 36 34  1  0  0  0  0
M  END
>  <MODEL>
4

>  <REMARK>
 VINA RESULT:      -9.6      2.132      3.073
  Name = 
  10 active torsions:
  status: ('A' for Active; 'I' for Inactive)
    1  A    between atoms: N_5  and  C_7
    2  A    between atoms: C_7  and  C_32
    3  A    between atoms: C_11  and  C_21
    4  A    between atoms: C_14  and  C_35
    5  A    between atoms: C_20  and  C_31
    6  A    between atoms: C_20  and  C_34
    7  A    between atoms: C_21  and  C_25
    8  A    between atoms: C_25  and  C_31
    9  A    between atoms: C_26  and  C_27
   10  A    between atoms: C_27  and  C_34
                            x       y       z     vdW  Elec       q    Type
                         _______ _______ _______ _____ _____    ______ ____

>  <TORSDO>
F 10

$$$$
=
 OpenBabel11042411343D

 36 40  0  0  1  0  0  0  0  0999 V2000
  185.8520  178.2520  146.6900 C   0  0  0  0  0  3  0  0  0  0  0  0
  185.6540  178.4570  144.2980 C   0  0  0  0  0  0  0  0  0  0  0  0
  183.7820  178.8340  145.7370 N   0  0  0  0  0  0  0  0  0  0  0  0
  184.0190  178.9980  142.0860 C   0  0  0  0  0  3  0  0  0  0  0  0
  186.4420  178.1900  145.4280 C   0  0  0  0  0  0  0  0  0  0  0  0
  186.1810  178.4050  143.0000 C   0  0  0  0  0  3  0  0  0  0  0  0
  183.4840  179.0550  143.3770 C   0  0  0  0  0  3  0  0  0  0  0  0
  184.2960  178.7860  144.4810 C   0  0  0  0  0  0  0  0  0  0  0  0
  184.5360  178.5760  146.8070 N   0  0  0  0  0  0  0  0  0  0  0  0
  185.3690  178.6720  141.8920 C   0  0  0  0  0  0  0  0  0  0  0  0
  185.9360  178.6050  140.5390 C   0  0  0  0  0  0  0  0  0  0  0  0
  186.0180  178.6440  138.4070 N   0  0  0  0  0  0  0  0  0  0  0  0
  185.2370  178.7490  139.4380 O   0  0  0  0  0  0  0  0  0  0  0  0
  187.2410  178.3940  140.2730 N   0  0  0  0  0  0  0  0  0  0  0  0
  187.2400  178.4190  138.9240 C   0  0  0  0  0  0  0  0  0  0  0  0
  188.4700  178.2780  138.0860 C   0  0  2  0  0  3  0  0  0  0  0  0
  188.9780  179.5350  137.7320 O   0  0  0  0  0  1  0  0  0  0  0  0
  189.1750  176.3820  134.9830 C   0  0  0  0  0  2  0  0  0  0  0  0
  188.2130  177.4360  136.9120 N   0  0  0  0  0  0  0  0  0  0  0  0
  188.1850  176.0470  137.3460 C   0  0  0  0  0  2  0  0  0  0  0  0
  188.5590  174.9680  135.9310 S   0  0  0  0  0  0  0  0  0  0  0  0
  189.2970  177.5420  135.9420 C   0  0  0  0  0  2  0  0  0  0  0  0
  187.8850  177.8150  145.3100 C   0  0  0  0  0  2  0  0  0  0  0  0
  188.3420  177.1050  146.5740 C   0  0  0  0  0  2  0  0  0  0  0  0
  189.3110  178.0470  148.5930 N   0  0  0  0  0  1  0  0  0  0  0  0
  189.5360  177.8290  147.1750 C   0  0  1  0  0  3  0  0  0  0  0  0
  190.7940  177.0380  146.9740 C   0  0  0  0  0  0  0  0  0  0  0  0
  191.6610  177.0240  147.8360 O   0  0  0  0  0  0  0  0  0  0  0  0
  190.9640  176.2300  145.7220 C   0  0  0  0  0  2  0  0  0  0  0  0
  191.5050  178.3990  144.7170 N   0  0  0  0  0  1  0  0  0  0  0  0
  191.7470  176.9660  144.6290 C   0  0  2  0  0  3  0  0  0  0  0  0
  191.7810  177.4680  142.1620 C   0  0  0  0  0  2  0  0  0  0  0  0
  189.6850  176.3690  141.5700 C   0  0  0  0  0  2  0  0  0  0  0  0
  191.4270  176.4460  143.2240 C   0  0  0  0  0  3  0  0  0  0  0  0
  190.7700  177.2910  141.0440 C   0  0  0  0  0  2  0  0  0  0  0  0
  189.9430  176.2050  143.0510 C   0  0  0  0  0  2  0  0  0  0  0  0
  1  9  1  0  0  0  0
  2  8  1  0  0  0  0
  2  5  1  0  0  0  0
  3  9  2  0  0  0  0
  4  7  1  0  0  0  0
  5  1  2  0  0  0  0
  6  2  2  0  0  0  0
  7  8  2  0  0  0  0
  8  3  1  0  0  0  0
 10  4  2  0  0  0  0
 10  6  1  0  0  0  0
 11 10  1  0  0  0  0
 12 15  2  0  0  0  0
 12 13  1  0  0  0  0
 13 11  1  0  0  0  0
 14 11  2  0  0  0  0
 15 14  1  0  0  0  0
 16 17  1  6  0  0  0
 16 15  1  0  0  0  0
 18 21  1  0  0  0  0
 18 22  1  0  0  0  0
 19 20  1  0  0  0  0
 19 16  1  0  0  0  0
 21 20  1  0  0  0  0
 22 19  1  0  0  0  0
 23  5  1  0  0  0  0
 23 24  1  0  0  0  0
 24 26  1  0  0  0  0
 26 25  1  1  0  0  0
 27 26  1  0  0  0  0
 27 28  2  0  0  0  0
 29 27  1  0  0  0  0
 31 30  1  6  0  0  0
 31 29  1  0  0  0  0
 32 34  1  0  0  0  0
 33 36  1  0  0  0  0
 34 31  1  0  0  0  0
 35 33  1  0  0  0  0
 35 32  1  0  0  0  0
 36 34  1  0  0  0  0
M  END
>  <MODEL>
5

>  <REMARK>
 VINA RESULT:      -9.6      2.595      6.360
  Name = 
  10 active torsions:
  status: ('A' for Active; 'I' for Inactive)
    1  A    between atoms: N_5  and  C_7
    2  A    between atoms: C_7  and  C_32
    3  A    between atoms: C_11  and  C_21
    4  A    between atoms: C_14  and  C_35
    5  A    between atoms: C_20  and  C_31
    6  A    between atoms: C_20  and  C_34
    7  A    between atoms: C_21  and  C_25
    8  A    between atoms: C_25  and  C_31
    9  A    between atoms: C_26  and  C_27
   10  A    between atoms: C_27  and  C_34
                            x       y       z     vdW  Elec       q    Type
                         _______ _______ _______ _____ _____    ______ ____

>  <TORSDO>
F 10

$$$$
=
 OpenBabel11042411343D

 36 40  0  0  1  0  0  0  0  0999 V2000
  189.4690  177.1290  146.6490 C   0  0  0  0  0  3  0  0  0  0  0  0
  187.4130  177.7840  145.5780 C   0  0  0  0  0  0  0  0  0  0  0  0
  187.7480  178.1010  147.9250 N   0  0  0  0  0  0  0  0  0  0  0  0
  184.8510  178.8930  145.8290 C   0  0  0  0  0  3  0  0  0  0  0  0
  188.6990  177.2310  145.4900 C   0  0  0  0  0  0  0  0  0  0  0  0
  186.5830  177.9080  144.4550 C   0  0  0  0  0  3  0  0  0  0  0  0
  185.6710  178.7760  146.9560 C   0  0  0  0  0  3  0  0  0  0  0  0
  186.9480  178.2230  146.8340 C   0  0  0  0  0  0  0  0  0  0  0  0
  188.9700  177.5710  147.8350 N   0  0  0  0  0  0  0  0  0  0  0  0
  185.3020  178.4590  144.5750 C   0  0  0  0  0  0  0  0  0  0  0  0
  184.4440  178.5740  143.3890 C   0  0  0  0  0  0  0  0  0  0  0  0
  182.6630  178.7400  142.2250 N   0  0  0  0  0  0  0  0  0  0  0  0
  183.1340  178.6370  143.4300 O   0  0  0  0  0  0  0  0  0  0  0  0
  184.9040  178.6350  142.1240 N   0  0  0  0  0  0  0  0  0  0  0  0
  183.7500  178.7290  141.4300 C   0  0  0  0  0  0  0  0  0  0  0  0
  183.6780  178.8740  139.9440 C   0  0  2  0  0  3  0  0  0  0  0  0
  184.6660  179.7540  139.4820 O   0  0  0  0  0  1  0  0  0  0  0  0
  181.0630  180.6400  138.0050 C   0  0  0  0  0  2  0  0  0  0  0  0
  182.3330  179.2810  139.5190 N   0  0  0  0  0  0  0  0  0  0  0  0
  181.8020  178.2480  138.6420 C   0  0  0  0  0  2  0  0  0  0  0  0
  180.5170  178.9680  137.5770 S   0  0  0  0  0  0  0  0  0  0  0  0
  182.3800  180.5060  138.7300 C   0  0  0  0  0  2  0  0  0  0  0  0
  189.2520  176.7250  144.1960 C   0  0  0  0  0  2  0  0  0  0  0  0
  189.9780  177.8430  143.4680 C   0  0  0  0  0  2  0  0  0  0  0  0
  190.1970  176.0620  141.8300 N   0  0  0  0  0  1  0  0  0  0  0  0
  190.1120  177.5030  141.9930 C   0  0  1  0  0  3  0  0  0  0  0  0
  188.9450  178.0360  141.2160 C   0  0  0  0  0  0  0  0  0  0  0  0
  188.2400  178.9170  141.6840 O   0  0  0  0  0  0  0  0  0  0  0  0
  188.6730  177.5040  139.8400 C   0  0  0  0  0  2  0  0  0  0  0  0
  188.6960  179.1170  137.9950 N   0  0  0  0  0  1  0  0  0  0  0  0
  189.5140  178.1810  138.7520 C   0  0  2  0  0  3  0  0  0  0  0  0
  189.2250  176.0920  137.3780 C   0  0  0  0  0  2  0  0  0  0  0  0
  191.4130  175.1040  137.8100 C   0  0  0  0  0  2  0  0  0  0  0  0
  190.1910  177.1730  137.8190 C   0  0  0  0  0  3  0  0  0  0  0  0
  190.0460  174.8260  137.2120 C   0  0  0  0  0  2  0  0  0  0  0  0
  191.3070  176.4320  138.5240 C   0  0  0  0  0  2  0  0  0  0  0  0
  1  9  1  0  0  0  0
  2  8  1  0  0  0  0
  4  7  1  0  0  0  0
  5  2  1  0  0  0  0
  5  1  2  0  0  0  0
  6 10  1  0  0  0  0
  6  2  2  0  0  0  0
  8  7  2  0  0  0  0
  8  3  1  0  0  0  0
  9  3  2  0  0  0  0
 10  4  2  0  0  0  0
 11 13  1  0  0  0  0
 11 10  1  0  0  0  0
 12 13  1  0  0  0  0
 14 11  2  0  0  0  0
 15 14  1  0  0  0  0
 15 12  2  0  0  0  0
 16 17  1  1  0  0  0
 16 15  1  0  0  0  0
 18 22  1  0  0  0  0
 19 16  1  0  0  0  0
 20 19  1  0  0  0  0
 21 18  1  0  0  0  0
 21 20  1  0  0  0  0
 22 19  1  0  0  0  0
 23  5  1  0  0  0  0
 24 23  1  0  0  0  0
 26 25  1  1  0  0  0
 26 24  1  0  0  0  0
 27 28  2  0  0  0  0
 27 26  1  0  0  0  0
 29 27  1  0  0  0  0
 31 30  1  6  0  0  0
 31 29  1  0  0  0  0
 32 34  1  0  0  0  0
 33 36  1  0  0  0  0
 34 36  1  0  0  0  0
 34 31  1  0  0  0  0
 35 32  1  0  0  0  0
 35 33  1  0  0  0  0
M  END
>  <MODEL>
6

>  <REMARK>
 VINA RESULT:      -9.4      1.804      2.563
  Name = 
  10 active torsions:
  status: ('A' for Active; 'I' for Inactive)
    1  A    between atoms: N_5  and  C_7
    2  A    between atoms: C_7  and  C_32
    3  A    between atoms: C_11  and  C_21
    4  A    between atoms: C_14  and  C_35
    5  A    between atoms: C_20  and  C_31
    6  A    between atoms: C_20  and  C_34
    7  A    between atoms: C_21  and  C_25
    8  A    between atoms: C_25  and  C_31
    9  A    between atoms: C_26  and  C_27
   10  A    between atoms: C_27  and  C_34
                            x       y       z     vdW  Elec       q    Type
                         _______ _______ _______ _____ _____    ______ ____

>  <TORSDO>
F 10

$$$$
=
 OpenBabel11042411343D

 36 40  0  0  1  0  0  0  0  0999 V2000
  189.5750  177.1020  146.2440 C   0  0  0  0  0  3  0  0  0  0  0  0
  187.3680  177.7530  145.5330 C   0  0  0  0  0  0  0  0  0  0  0  0
  188.0380  177.9290  147.8210 N   0  0  0  0  0  0  0  0  0  0  0  0
  184.8440  178.7530  146.2320 C   0  0  0  0  0  3  0  0  0  0  0  0
  188.6410  177.2520  145.2200 C   0  0  0  0  0  0  0  0  0  0  0  0
  186.3780  177.9210  144.5550 C   0  0  0  0  0  3  0  0  0  0  0  0
  185.8250  178.5920  147.2150 C   0  0  0  0  0  3  0  0  0  0  0  0
  187.0830  178.0930  146.8700 C   0  0  0  0  0  0  0  0  0  0  0  0
  189.2460  177.4490  147.5170 N   0  0  0  0  0  0  0  0  0  0  0  0
  185.1160  178.4180  144.8980 C   0  0  0  0  0  0  0  0  0  0  0  0
  184.0880  178.5810  143.8610 C   0  0  0  0  0  0  0  0  0  0  0  0
  182.1890  179.0020  142.9840 N   0  0  0  0  0  0  0  0  0  0  0  0
  182.8500  178.9420  144.1000 O   0  0  0  0  0  0  0  0  0  0  0  0
  184.3020  178.3830  142.5450 N   0  0  0  0  0  0  0  0  0  0  0  0
  183.0800  178.6510  142.0390 C   0  0  0  0  0  0  0  0  0  0  0  0
  182.7580  178.6280  140.5790 C   0  0  2  0  0  3  0  0  0  0  0  0
  181.3790  178.4900  140.3760 O   0  0  0  0  0  1  0  0  0  0  0  0
  183.4260  175.7510  138.3440 C   0  0  0  0  0  2  0  0  0  0  0  0
  183.5250  177.5850  139.8870 N   0  0  0  0  0  0  0  0  0  0  0  0
  184.1830  178.1900  138.7390 C   0  0  0  0  0  2  0  0  0  0  0  0
  184.5470  176.9010  137.5090 S   0  0  0  0  0  0  0  0  0  0  0  0
  182.6440  176.5490  139.3590 C   0  0  0  0  0  2  0  0  0  0  0  0
  189.0080  176.8510  143.8270 C   0  0  0  0  0  2  0  0  0  0  0  0
  189.7450  177.9860  143.1360 C   0  0  0  0  0  2  0  0  0  0  0  0
  191.4070  176.2170  143.2440 N   0  0  0  0  0  1  0  0  0  0  0  0
  191.0990  177.5040  142.6430 C   0  0  1  0  0  3  0  0  0  0  0  0
  191.1090  177.3830  141.1480 C   0  0  0  0  0  0  0  0  0  0  0  0
  192.1530  177.5030  140.5250 O   0  0  0  0  0  0  0  0  0  0  0  0
  189.8310  177.0750  140.4260 C   0  0  0  0  0  2  0  0  0  0  0  0
  187.9990  178.6270  139.9350 N   0  0  0  0  0  1  0  0  0  0  0  0
  189.3430  178.2280  139.5420 C   0  0  2  0  0  3  0  0  0  0  0  0
  188.6990  178.9460  137.2170 C   0  0  0  0  0  2  0  0  0  0  0  0
  188.1950  176.7370  136.3140 C   0  0  0  0  0  2  0  0  0  0  0  0
  189.3940  177.8880  138.0500 C   0  0  0  0  0  3  0  0  0  0  0  0
  188.0890  178.2240  136.0290 C   0  0  0  0  0  2  0  0  0  0  0  0
  188.6450  176.6070  137.7510 C   0  0  0  0  0  2  0  0  0  0  0  0
  1  9  1  0  0  0  0
  2  8  1  0  0  0  0
  4  7  1  0  0  0  0
  5  2  1  0  0  0  0
  5  1  2  0  0  0  0
  6 10  1  0  0  0  0
  6  2  2  0  0  0  0
  8  7  2  0  0  0  0
  8  3  1  0  0  0  0
  9  3  2  0  0  0  0
 10  4  2  0  0  0  0
 11 13  1  0  0  0  0
 11 10  1  0  0  0  0
 12 13  1  0  0  0  0
 14 11  2  0  0  0  0
 15 14  1  0  0  0  0
 15 12  2  0  0  0  0
 16 17  1  1  0  0  0
 16 15  1  0  0  0  0
 18 22  1  0  0  0  0
 19 16  1  0  0  0  0
 20 19  1  0  0  0  0
 21 18  1  0  0  0  0
 21 20  1  0  0  0  0
 22 19  1  0  0  0  0
 23  5  1  0  0  0  0
 24 23  1  0  0  0  0
 26 24  1  0  0  0  0
 26 25  1  1  0  0  0
 27 26  1  0  0  0  0
 28 27  2  0  0  0  0
 29 27  1  0  0  0  0
 31 30  1  1  0  0  0
 31 29  1  0  0  0  0
 32 34  1  0  0  0  0
 33 36  1  0  0  0  0
 34 31  1  0  0  0  0
 35 33  1  0  0  0  0
 35 32  1  0  0  0  0
 36 34  1  0  0  0  0
M  END
>  <MODEL>
7

>  <REMARK>
 VINA RESULT:      -9.3      1.848      2.591
  Name = 
  10 active torsions:
  status: ('A' for Active; 'I' for Inactive)
    1  A    between atoms: N_5  and  C_7
    2  A    between atoms: C_7  and  C_32
    3  A    between atoms: C_11  and  C_21
    4  A    between atoms: C_14  and  C_35
    5  A    between atoms: C_20  and  C_31
    6  A    between atoms: C_20  and  C_34
    7  A    between atoms: C_21  and  C_25
    8  A    between atoms: C_25  and  C_31
    9  A    between atoms: C_26  and  C_27
   10  A    between atoms: C_27  and  C_34
                            x       y       z     vdW  Elec       q    Type
                         _______ _______ _______ _____ _____    ______ ____

>  <TORSDO>
F 10

$$$$
=
 OpenBabel11042411343D

 36 40  0  0  1  0  0  0  0  0999 V2000
  187.4330  177.6520  147.4880 C   0  0  0  0  0  3  0  0  0  0  0  0
  188.6440  177.4200  145.4190 C   0  0  0  0  0  0  0  0  0  0  0  0
  189.7850  177.6850  147.5040 N   0  0  0  0  0  0  0  0  0  0  0  0
  191.1240  177.3120  144.1170 C   0  0  0  0  0  3  0  0  0  0  0  0
  187.4210  177.4810  146.1040 C   0  0  0  0  0  0  0  0  0  0  0  0
  188.7060  177.2590  144.0280 C   0  0  0  0  0  3  0  0  0  0  0  0
  191.0740  177.4700  145.5050 C   0  0  0  0  0  3  0  0  0  0  0  0
  189.8400  177.5250  146.1570 C   0  0  0  0  0  0  0  0  0  0  0  0
  188.6170  177.7450  148.1490 N   0  0  0  0  0  0  0  0  0  0  0  0
  189.9410  177.2060  143.3720 C   0  0  0  0  0  0  0  0  0  0  0  0
  189.9860  177.0440  141.9130 C   0  0  0  0  0  0  0  0  0  0  0  0
  190.4230  176.1700  140.0170 N   0  0  0  0  0  0  0  0  0  0  0  0
  190.5510  176.0320  141.3010 O   0  0  0  0  0  0  0  0  0  0  0  0
  189.4470  177.9150  141.0370 N   0  0  0  0  0  0  0  0  0  0  0  0
  189.7540  177.3270  139.8620 C   0  0  0  0  0  0  0  0  0  0  0  0
  189.3420  177.8620  138.5280 C   0  0  2  0  0  3  0  0  0  0  0  0
  189.0480  179.2300  138.6100 O   0  0  0  0  0  1  0  0  0  0  0  0
  186.2090  177.1770  136.6750 C   0  0  0  0  0  2  0  0  0  0  0  0
  188.2250  177.0890  137.9730 N   0  0  0  0  0  0  0  0  0  0  0  0
  188.6840  176.4380  136.7550 C   0  0  0  0  0  2  0  0  0  0  0  0
  187.2510  176.0670  135.6970 S   0  0  0  0  0  0  0  0  0  0  0  0
  187.1240  177.9630  137.5830 C   0  0  0  0  0  2  0  0  0  0  0  0
  186.1120  177.3980  145.3860 C   0  0  0  0  0  2  0  0  0  0  0  0
  185.6900  178.7780  144.9100 C   0  0  0  0  0  2  0  0  0  0  0  0
  183.5500  179.7460  144.2920 N   0  0  0  0  0  1  0  0  0  0  0  0
  184.4780  178.6680  144.0000 C   0  0  1  0  0  3  0  0  0  0  0  0
  184.8880  178.7240  142.5590 C   0  0  0  0  0  0  0  0  0  0  0  0
  186.0710  178.7210  142.2510 O   0  0  0  0  0  0  0  0  0  0  0  0
  183.8320  178.7440  141.4940 C   0  0  0  0  0  2  0  0  0  0  0  0
  184.5250  179.8300  139.4090 N   0  0  0  0  0  1  0  0  0  0  0  0
  184.3930  178.5450  140.0820 C   0  0  2  0  0  3  0  0  0  0  0  0
  182.8520  178.2940  138.1070 C   0  0  0  0  0  2  0  0  0  0  0  0
  181.3520  176.6260  139.0670 C   0  0  0  0  0  2  0  0  0  0  0  0
  183.5520  177.5770  139.2450 C   0  0  0  0  0  3  0  0  0  0  0  0
  181.5330  177.5720  137.8940 C   0  0  0  0  0  2  0  0  0  0  0  0
  182.4350  176.9680  140.0650 C   0  0  0  0  0  2  0  0  0  0  0  0
  1  9  1  0  0  0  0
  2  5  1  0  0  0  0
  2  8  1  0  0  0  0
  3  9  2  0  0  0  0
  4  7  1  0  0  0  0
  5  1  2  0  0  0  0
  6  2  2  0  0  0  0
  7  8  2  0  0  0  0
  8  3  1  0  0  0  0
 10  6  1  0  0  0  0
 10  4  2  0  0  0  0
 11 10  1  0  0  0  0
 12 13  1  0  0  0  0
 13 11  1  0  0  0  0
 14 11  2  0  0  0  0
 15 12  2  0  0  0  0
 15 14  1  0  0  0  0
 16 17  1  1  0  0  0
 16 15  1  0  0  0  0
 18 22  1  0  0  0  0
 19 16  1  0  0  0  0
 20 19  1  0  0  0  0
 21 18  1  0  0  0  0
 21 20  1  0  0  0  0
 22 19  1  0  0  0  0
 23  5  1  0  0  0  0
 24 23  1  0  0  0  0
 26 25  1  1  0  0  0
 26 24  1  0  0  0  0
 27 26  1  0  0  0  0
 28 27  2  0  0  0  0
 29 27  1  0  0  0  0
 31 30  1  6  0  0  0
 31 29  1  0  0  0  0
 32 34  1  0  0  0  0
 33 36  1  0  0  0  0
 34 36  1  0  0  0  0
 34 31  1  0  0  0  0
 35 32  1  0  0  0  0
 35 33  1  0  0  0  0
M  END
>  <MODEL>
8

>  <REMARK>
 VINA RESULT:      -9.1      1.995      6.011
  Name = 
  10 active torsions:
  status: ('A' for Active; 'I' for Inactive)
    1  A    between atoms: N_5  and  C_7
    2  A    between atoms: C_7  and  C_32
    3  A    between atoms: C_11  and  C_21
    4  A    between atoms: C_14  and  C_35
    5  A    between atoms: C_20  and  C_31
    6  A    between atoms: C_20  and  C_34
    7  A    between atoms: C_21  and  C_25
    8  A    between atoms: C_25  and  C_31
    9  A    between atoms: C_26  and  C_27
   10  A    between atoms: C_27  and  C_34
                            x       y       z     vdW  Elec       q    Type
                         _______ _______ _______ _____ _____    ______ ____

>  <TORSDO>
F 10

$$$$
=
 OpenBabel11042411343D

 36 40  0  0  1  0  0  0  0  0999 V2000
  192.8860  177.1210  140.3300 C   0  0  0  0  0  3  0  0  0  0  0  0
  190.7560  177.1700  139.2070 C   0  0  0  0  0  0  0  0  0  0  0  0
  192.7670  176.6240  138.0350 N   0  0  0  0  0  0  0  0  0  0  0  0
  189.3200  176.8540  136.8200 C   0  0  0  0  0  3  0  0  0  0  0  0
  191.5070  177.3230  140.3820 C   0  0  0  0  0  0  0  0  0  0  0  0
  189.3680  177.3670  139.1850 C   0  0  0  0  0  3  0  0  0  0  0  0
  190.7040  176.6530  136.8310 C   0  0  0  0  0  3  0  0  0  0  0  0
  191.4220  176.8110  138.0190 C   0  0  0  0  0  0  0  0  0  0  0  0
  193.4760  176.7740  139.1560 N   0  0  0  0  0  0  0  0  0  0  0  0
  188.6460  177.2120  137.9960 C   0  0  0  0  0  0  0  0  0  0  0  0
  187.1940  177.4280  137.9910 C   0  0  0  0  0  0  0  0  0  0  0  0
  185.1310  177.1020  137.5540 N   0  0  0  0  0  0  0  0  0  0  0  0
  186.3350  176.6560  137.3690 O   0  0  0  0  0  0  0  0  0  0  0  0
  186.5760  178.4420  138.6290 N   0  0  0  0  0  0  0  0  0  0  0  0
  185.2860  178.1990  138.3180 C   0  0  0  0  0  0  0  0  0  0  0  0
  184.1380  179.0170  138.8190 C   0  0  2  0  0  3  0  0  0  0  0  0
  184.5360  180.3390  139.0550 O   0  0  0  0  0  1  0  0  0  0  0  0
  183.1660  178.6010  142.3690 C   0  0  0  0  0  2  0  0  0  0  0  0
  183.5330  178.4020  140.0060 N   0  0  0  0  0  0  0  0  0  0  0  0
  182.1140  178.7250  140.0120 C   0  0  0  0  0  2  0  0  0  0  0  0
  181.4790  178.6090  141.7120 S   0  0  0  0  0  0  0  0  0  0  0  0
  184.0890  178.9660  141.2310 C   0  0  0  0  0  2  0  0  0  0  0  0
  190.8720  177.7230  141.6750 C   0  0  0  0  0  2  0  0  0  0  0  0
  191.5810  177.0430  142.8350 C   0  0  0  0  0  2  0  0  0  0  0  0
  191.1560  179.2850  143.6690 N   0  0  0  0  0  1  0  0  0  0  0  0
  191.5640  177.9460  144.0570 C   0  0  1  0  0  3  0  0  0  0  0  0
  190.6300  177.4110  145.1010 C   0  0  0  0  0  0  0  0  0  0  0  0
  190.9950  176.5300  145.8660 O   0  0  0  0  0  0  0  0  0  0  0  0
  189.2530  177.9930  145.2250 C   0  0  0  0  0  2  0  0  0  0  0  0
  187.9550  177.0800  143.3570 N   0  0  0  0  0  1  0  0  0  0  0  0
  188.1460  177.0230  144.7990 C   0  0  2  0  0  3  0  0  0  0  0  0
  185.8770  178.1090  144.6880 C   0  0  0  0  0  2  0  0  0  0  0  0
  185.7360  178.8240  147.0160 C   0  0  0  0  0  2  0  0  0  0  0  0
  186.8250  177.2800  145.5320 C   0  0  0  0  0  3  0  0  0  0  0  0
  185.0750  178.9590  145.6570 C   0  0  0  0  0  2  0  0  0  0  0  0
  187.0420  178.0960  146.7880 C   0  0  0  0  0  2  0  0  0  0  0  0
  1  5  1  0  0  0  0
  2  5  2  0  0  0  0
  3  9  1  0  0  0  0
  4  7  2  0  0  0  0
  4 10  1  0  0  0  0
  5 23  1  0  0  0  0
  6  2  1  0  0  0  0
  7  8  1  0  0  0  0
  8  3  2  0  0  0  0
  8  2  1  0  0  0  0
  9  1  2  0  0  0  0
 10  6  2  0  0  0  0
 11 10  1  0  0  0  0
 11 14  2  0  0  0  0
 12 15  2  0  0  0  0
 13 12  1  0  0  0  0
 13 11  1  0  0  0  0
 15 14  1  0  0  0  0
 15 16  1  0  0  0  0
 16 17  1  1  0  0  0
 16 19  1  0  0  0  0
 19 20  1  0  0  0  0
 19 22  1  0  0  0  0
 20 21  1  0  0  0  0
 21 18  1  0  0  0  0
 22 18  1  0  0  0  0
 23 24  1  0  0  0  0
 24 26  1  0  0  0  0
 26 25  1  6  0  0  0
 26 27  1  0  0  0  0
 27 29  1  0  0  0  0
 27 28  2  0  0  0  0
 31 30  1  6  0  0  0
 31 29  1  0  0  0  0
 31 34  1  0  0  0  0
 32 34  1  0  0  0  0
 32 35  1  0  0  0  0
 34 36  1  0  0  0  0
 35 33  1  0  0  0  0
 36 33  1  0  0  0  0
M  END
>  <MODEL>
9

>  <REMARK>
 VINA RESULT:      -9.0      2.670      7.087
  Name = 
  10 active torsions:
  status: ('A' for Active; 'I' for Inactive)
    1  A    between atoms: N_5  and  C_7
    2  A    between atoms: C_7  and  C_32
    3  A    between atoms: C_11  and  C_21
    4  A    between atoms: C_14  and  C_35
    5  A    between atoms: C_20  and  C_31
    6  A    between atoms: C_20  and  C_34
    7  A    between atoms: C_21  and  C_25
    8  A    between atoms: C_25  and  C_31
    9  A    between atoms: C_26  and  C_27
   10  A    between atoms: C_27  and  C_34
                            x       y       z     vdW  Elec       q    Type
                         _______ _______ _______ _____ _____    ______ ____

>  <TORSDO>
F 10

$$$$
