=
 OpenBabel11042411213D

 25 28  0  0  1  0  0  0  0  0999 V2000
  191.1980  176.3680  146.7950 C   0  0  0  0  0  0  0  0  0  0  0  0
  189.8750  176.4770  147.0200 N   0  0  0  0  0  0  0  0  0  0  0  0
  190.4020  177.7490  145.3380 C   0  0  0  0  0  0  0  0  0  0  0  0
  191.5930  177.1680  145.7370 C   0  0  0  0  0  3  0  0  0  0  0  0
  189.3880  177.3220  146.1270 N   0  0  0  0  0  0  0  0  0  0  0  0
  187.2800  177.4890  144.7960 C   0  0  0  0  0  3  0  0  0  0  0  0
  187.4370  178.1480  147.1930 C   0  0  0  0  0  3  0  0  0  0  0  0
  186.0260  177.7570  144.4480 C   0  0  0  0  0  3  0  0  0  0  0  0
  186.0890  178.5730  147.4020 N   0  0  0  0  0  0  0  0  0  0  0  0
  183.7640  178.5360  144.5830 F   0  0  0  0  0  0  0  0  0  0  0  0
  184.9770  178.6830  146.5150 C   0  0  0  0  0  3  0  0  0  0  0  0
  184.9370  178.3430  145.2310 C   0  0  0  0  0  0  0  0  0  0  0  0
  187.9950  177.6900  146.0680 C   0  0  1  0  0  3  0  0  0  0  0  0
  192.1000  175.5250  147.5800 C   0  0  0  0  0  3  0  0  0  0  0  0
  192.9490  176.0500  148.4000 N   0  0  0  0  0  2  0  0  0  0  0  0
  190.3060  178.8060  144.2830 C   0  0  0  0  0  2  0  0  0  0  0  0
  188.5540  177.3680  139.8220 O   0  0  0  0  0  0  0  0  0  0  0  0
  189.2940  178.1190  142.0890 C   0  0  0  0  0  3  0  0  0  0  0  0
  191.6730  177.7380  142.4580 C   0  0  0  0  0  3  0  0  0  0  0  0
  190.6890  177.1270  140.4180 C   0  0  0  0  0  0  0  0  0  0  0  0
  190.4220  178.2020  142.9250 C   0  0  0  0  0  0  0  0  0  0  0  0
  191.7900  177.2020  141.2060 N   0  0  0  0  0  0  0  0  0  0  0  0
  189.2210  176.7660  138.7030 C   0  0  0  0  0  3  0  0  0  0  0  0
  190.6300  176.6100  139.1030 N   0  0  0  0  0  0  0  0  0  0  0  0
  189.4770  177.5650  140.8260 C   0  0  0  0  0  0  0  0  0  0  0  0
  1  2  2  0  0  0  0
  1 14  1  0  0  0  0
  3  4  2  0  0  0  0
  3  5  1  0  0  0  0
  4  1  1  0  0  0  0
  5  2  1  0  0  0  0
  7  9  2  0  0  0  0
  8  6  2  0  0  0  0
  8 12  1  0  0  0  0
 10 12  1  0  0  0  0
 11  9  1  0  0  0  0
 12 11  2  0  0  0  0
 13  6  1  1  0  0  0
 13  5  1  0  0  0  0
 13  7  1  0  0  0  0
 14 15  2  0  0  0  0
 16  3  1  0  0  0  0
 17 25  1  0  0  0  0
 18 21  1  0  0  0  0
 19 21  2  0  0  0  0
 20 25  1  0  0  0  0
 20 22  2  0  0  0  0
 21 16  1  0  0  0  0
 22 19  1  0  0  0  0
 23 24  2  0  0  0  0
 23 17  1  0  0  0  0
 24 20  1  0  0  0  0
 25 18  2  0  0  0  0
M  END
>  <MODEL>
1

>  <REMARK>
 VINA RESULT:      -8.9      0.000      0.000
  Name = 
  4 active torsions:
  status: ('A' for Active; 'I' for Inactive)
    1  A    between atoms: C_1  and  C_4
    2  A    between atoms: C_7  and  C_14
    3  A    between atoms: C_7  and  C_15
    4  A    between atoms: N_19  and  C_24
                            x       y       z     vdW  Elec       q    Type
                         _______ _______ _______ _____ _____    ______ ____

>  <TORSDO>
F 4

$$$$
=
 OpenBabel11042411213D

 25 28  0  0  1  0  0  0  0  0999 V2000
  191.4000  176.3870  146.5610 C   0  0  0  0  0  0  0  0  0  0  0  0
  190.1080  176.5220  146.9170 N   0  0  0  0  0  0  0  0  0  0  0  0
  190.4600  177.6900  145.1170 C   0  0  0  0  0  0  0  0  0  0  0  0
  191.6840  177.1210  145.4230 C   0  0  0  0  0  3  0  0  0  0  0  0
  189.5320  177.3190  146.0320 N   0  0  0  0  0  0  0  0  0  0  0  0
  187.3240  177.5360  144.8840 C   0  0  0  0  0  3  0  0  0  0  0  0
  187.6830  178.1280  147.2770 C   0  0  0  0  0  3  0  0  0  0  0  0
  186.0480  177.8210  144.6490 C   0  0  0  0  0  3  0  0  0  0  0  0
  186.3600  178.5540  147.6080 N   0  0  0  0  0  0  0  0  0  0  0  0
  183.8110  178.6100  144.9900 F   0  0  0  0  0  0  0  0  0  0  0  0
  185.1800  178.6960  146.8190 C   0  0  0  0  0  3  0  0  0  0  0  0
  185.0320  178.3910  145.5340 C   0  0  0  0  0  0  0  0  0  0  0  0
  188.1430  177.6970  146.0980 C   0  0  1  0  0  3  0  0  0  0  0  0
  192.3760  175.5820  147.2960 C   0  0  0  0  0  3  0  0  0  0  0  0
  192.9200  176.0300  148.3780 N   0  0  0  0  0  2  0  0  0  0  0  0
  190.2570  178.6850  144.0180 C   0  0  0  0  0  2  0  0  0  0  0  0
  192.6170  177.1870  139.8680 O   0  0  0  0  0  0  0  0  0  0  0  0
  191.5570  178.0070  141.9780 C   0  0  0  0  0  3  0  0  0  0  0  0
  189.2120  177.3640  142.1460 C   0  0  0  0  0  3  0  0  0  0  0  0
  190.4690  176.7380  140.2660 C   0  0  0  0  0  0  0  0  0  0  0  0
  190.3430  178.0180  142.6870 C   0  0  0  0  0  0  0  0  0  0  0  0
  189.2900  176.7320  140.9360 N   0  0  0  0  0  0  0  0  0  0  0  0
  192.1460  176.4280  138.7440 C   0  0  0  0  0  3  0  0  0  0  0  0
  190.7280  176.1350  139.0140 N   0  0  0  0  0  0  0  0  0  0  0  0
  191.5730  177.3470  140.7540 C   0  0  0  0  0  0  0  0  0  0  0  0
  1  2  2  0  0  0  0
  1 14  1  0  0  0  0
  3  4  2  0  0  0  0
  3  5  1  0  0  0  0
  4  1  1  0  0  0  0
  5 13  1  0  0  0  0
  5  2  1  0  0  0  0
  7  9  2  0  0  0  0
  8  6  2  0  0  0  0
  8 12  1  0  0  0  0
 10 12  1  0  0  0  0
 11  9  1  0  0  0  0
 12 11  2  0  0  0  0
 13  6  1  1  0  0  0
 13  7  1  0  0  0  0
 14 15  2  0  0  0  0
 16  3  1  0  0  0  0
 17 25  1  0  0  0  0
 18 21  1  0  0  0  0
 19 21  2  0  0  0  0
 20 25  1  0  0  0  0
 20 22  2  0  0  0  0
 21 16  1  0  0  0  0
 22 19  1  0  0  0  0
 23 24  2  0  0  0  0
 23 17  1  0  0  0  0
 24 20  1  0  0  0  0
 25 18  2  0  0  0  0
M  END
>  <MODEL>
2

>  <REMARK>
 VINA RESULT:      -8.6      1.126      1.407
  Name = 
  4 active torsions:
  status: ('A' for Active; 'I' for Inactive)
    1  A    between atoms: C_1  and  C_4
    2  A    between atoms: C_7  and  C_14
    3  A    between atoms: C_7  and  C_15
    4  A    between atoms: N_19  and  C_24
                            x       y       z     vdW  Elec       q    Type
                         _______ _______ _______ _____ _____    ______ ____

>  <TORSDO>
F 4

$$$$
=
 OpenBabel11042411213D

 25 28  0  0  1  0  0  0  0  0999 V2000
  190.0420  177.0220  146.4110 C   0  0  0  0  0  0  0  0  0  0  0  0
  188.7030  177.1300  146.5030 N   0  0  0  0  0  0  0  0  0  0  0  0
  189.3530  178.0850  144.6610 C   0  0  0  0  0  0  0  0  0  0  0  0
  190.5140  177.6250  145.2580 C   0  0  0  0  0  3  0  0  0  0  0  0
  188.2810  177.7800  145.4310 N   0  0  0  0  0  0  0  0  0  0  0  0
  186.3710  177.9070  143.8260 C   0  0  0  0  0  3  0  0  0  0  0  0
  186.1640  178.4740  146.2420 C   0  0  0  0  0  3  0  0  0  0  0  0
  185.1640  178.1320  143.3160 C   0  0  0  0  0  3  0  0  0  0  0  0
  184.7800  178.8290  146.2760 N   0  0  0  0  0  0  0  0  0  0  0  0
  182.8700  178.8030  143.1610 F   0  0  0  0  0  0  0  0  0  0  0  0
  183.7970  178.9260  145.2470 C   0  0  0  0  0  3  0  0  0  0  0  0
  183.9510  178.6360  143.9600 C   0  0  0  0  0  0  0  0  0  0  0  0
  186.8930  178.0880  145.1910 C   0  0  1  0  0  3  0  0  0  0  0  0
  190.8860  176.3680  147.4110 C   0  0  0  0  0  3  0  0  0  0  0  0
  192.0480  175.9020  147.0920 N   0  0  0  0  0  2  0  0  0  0  0  0
  189.3310  178.9250  143.4220 C   0  0  0  0  0  2  0  0  0  0  0  0
  188.6000  176.8960  138.9080 O   0  0  0  0  0  0  0  0  0  0  0  0
  188.8280  177.9530  141.1610 C   0  0  0  0  0  3  0  0  0  0  0  0
  191.0090  177.5310  142.1650 C   0  0  0  0  0  3  0  0  0  0  0  0
  190.5020  176.6570  140.0480 C   0  0  0  0  0  0  0  0  0  0  0  0
  189.7230  178.1150  142.2340 C   0  0  0  0  0  0  0  0  0  0  0  0
  191.3820  176.8050  141.0680 N   0  0  0  0  0  0  0  0  0  0  0  0
  189.4680  176.1000  138.0870 C   0  0  0  0  0  3  0  0  0  0  0  0
  190.7220  175.9470  138.8450 N   0  0  0  0  0  0  0  0  0  0  0  0
  189.2660  177.2050  140.0750 C   0  0  0  0  0  0  0  0  0  0  0  0
  1  2  2  0  0  0  0
  1 14  1  0  0  0  0
  3  4  2  0  0  0  0
  3  5  1  0  0  0  0
  4  1  1  0  0  0  0
  5  2  1  0  0  0  0
  7  9  2  0  0  0  0
  8  6  2  0  0  0  0
  8 12  1  0  0  0  0
 10 12  1  0  0  0  0
 11  9  1  0  0  0  0
 12 11  2  0  0  0  0
 13  6  1  1  0  0  0
 13  5  1  0  0  0  0
 13  7  1  0  0  0  0
 15 14  2  0  0  0  0
 16  3  1  0  0  0  0
 17 25  1  0  0  0  0
 18 21  1  0  0  0  0
 19 21  2  0  0  0  0
 20 25  1  0  0  0  0
 20 22  2  0  0  0  0
 21 16  1  0  0  0  0
 22 19  1  0  0  0  0
 23 24  2  0  0  0  0
 23 17  1  0  0  0  0
 24 20  1  0  0  0  0
 25 18  2  0  0  0  0
M  END
>  <MODEL>
3

>  <REMARK>
 VINA RESULT:      -7.9      1.129      1.308
  Name = 
  4 active torsions:
  status: ('A' for Active; 'I' for Inactive)
    1  A    between atoms: C_1  and  C_4
    2  A    between atoms: C_7  and  C_14
    3  A    between atoms: C_7  and  C_15
    4  A    between atoms: N_19  and  C_24
                            x       y       z     vdW  Elec       q    Type
                         _______ _______ _______ _____ _____    ______ ____

>  <TORSDO>
F 4

$$$$
=
 OpenBabel11042411213D

 25 28  0  0  0  0  0  0  0  0999 V2000
  191.3930  177.4470  140.7170 C   0  0  0  0  0  0  0  0  0  0  0  0
  190.3340  177.9910  140.0880 N   0  0  0  0  0  0  0  0  0  0  0  0
  189.6240  176.8940  141.8250 C   0  0  0  0  0  0  0  0  0  0  0  0
  190.9970  176.7250  141.8290 C   0  0  0  0  0  3  0  0  0  0  0  0
  189.2500  177.6530  140.7680 N   0  0  0  0  0  0  0  0  0  0  0  0
  187.0230  178.5730  141.4290 C   0  0  0  0  0  3  0  0  0  0  0  0
  187.6100  177.9710  139.0840 C   0  0  0  0  0  3  0  0  0  0  0  0
  185.7610  178.9840  141.3710 C   0  0  0  0  0  2  0  0  0  0  0  0
  186.3770  178.3060  138.4470 N   0  0  0  0  0  0  0  0  0  0  0  0
  183.5890  179.4850  140.4940 F   0  0  0  0  0  0  0  0  0  0  0  0
  185.1310  178.7690  138.9670 C   0  0  0  0  0  3  0  0  0  0  0  0
  184.8470  179.0570  140.2320 C   0  0  0  0  0  0  0  0  0  0  0  0
  187.9200  178.0550  140.3820 C   0  0  0  0  0  0  0  0  0  0  0  0
  192.7780  177.5890  140.2690 C   0  0  0  0  0  3  0  0  0  0  0  0
  193.2130  176.9300  139.2470 N   0  0  0  0  0  2  0  0  0  0  0  0
  188.6980  176.2020  142.7760 C   0  0  0  0  0  2  0  0  0  0  0  0
  187.0800  178.0600  147.1310 O   0  0  0  0  0  0  0  0  0  0  0  0
  187.7530  177.1410  144.9060 C   0  0  0  0  0  3  0  0  0  0  0  0
  190.1620  176.8070  144.7340 C   0  0  0  0  0  3  0  0  0  0  0  0
  189.2340  177.6650  146.7100 C   0  0  0  0  0  0  0  0  0  0  0  0
  188.8730  176.7350  144.1570 C   0  0  0  0  0  0  0  0  0  0  0  0
  190.3260  177.2740  146.0070 N   0  0  0  0  0  0  0  0  0  0  0  0
  187.7990  178.4300  148.3170 C   0  0  0  0  0  3  0  0  0  0  0  0
  189.2200  178.1670  148.0310 N   0  0  0  0  0  0  0  0  0  0  0  0
  187.9850  177.6060  146.1950 C   0  0  0  0  0  0  0  0  0  0  0  0
  1  4  1  0  0  0  0
  2  1  2  0  0  0  0
  2  5  1  0  0  0  0
  3  4  2  0  0  0  0
  3 16  1  0  0  0  0
  5  3  1  0  0  0  0
  7 13  1  0  0  0  0
  8  6  1  0  0  0  0
  9 11  1  0  0  0  0
  9  7  2  0  0  0  0
 11 12  2  0  0  0  0
 12 10  1  0  0  0  0
 12  8  1  0  0  0  0
 13  5  1  0  0  0  0
 13  6  2  0  0  0  0
 14  1  1  0  0  0  0
 15 14  2  0  0  0  0
 16 21  1  0  0  0  0
 17 23  1  0  0  0  0
 18 25  2  0  0  0  0
 19 22  1  0  0  0  0
 20 24  1  0  0  0  0
 21 19  2  0  0  0  0
 21 18  1  0  0  0  0
 22 20  2  0  0  0  0
 24 23  2  0  0  0  0
 25 20  1  0  0  0  0
 25 17  1  0  0  0  0
M  END
>  <MODEL>
4

>  <REMARK>
 VINA RESULT:      -7.7      2.845      6.214
  Name = 
  4 active torsions:
  status: ('A' for Active; 'I' for Inactive)
    1  A    between atoms: C_1  and  C_4
    2  A    between atoms: C_7  and  C_14
    3  A    between atoms: C_7  and  C_15
    4  A    between atoms: N_19  and  C_24
                            x       y       z     vdW  Elec       q    Type
                         _______ _______ _______ _____ _____    ______ ____

>  <TORSDO>
F 4

$$$$
=
 OpenBabel11042411213D

 25 28  0  0  0  0  0  0  0  0999 V2000
  190.4170  176.9040  139.9460 C   0  0  0  0  0  0  0  0  0  0  0  0
  189.1100  177.0460  140.2390 N   0  0  0  0  0  0  0  0  0  0  0  0
  190.2820  178.0010  141.8010 C   0  0  0  0  0  0  0  0  0  0  0  0
  191.2130  177.4860  140.9160 C   0  0  0  0  0  3  0  0  0  0  0  0
  189.0280  177.7190  141.3750 N   0  0  0  0  0  0  0  0  0  0  0  0
  187.5020  177.5000  143.3410 C   0  0  0  0  0  3  0  0  0  0  0  0
  186.9630  178.8850  141.3420 C   0  0  0  0  0  3  0  0  0  0  0  0
  186.4420  177.6150  144.1340 C   0  0  0  0  0  2  0  0  0  0  0  0
  185.6810  179.3730  141.7410 N   0  0  0  0  0  0  0  0  0  0  0  0
  184.2630  178.2360  144.9120 F   0  0  0  0  0  0  0  0  0  0  0  0
  184.8770  179.1070  142.8890 C   0  0  0  0  0  3  0  0  0  0  0  0
  185.1880  178.3410  143.9280 C   0  0  0  0  0  0  0  0  0  0  0  0
  187.7740  178.0540  142.0030 C   0  0  0  0  0  0  0  0  0  0  0  0
  190.9240  176.2080  138.7630 C   0  0  0  0  0  3  0  0  0  0  0  0
  190.2160  175.3010  138.1760 N   0  0  0  0  0  2  0  0  0  0  0  0
  190.6400  178.6390  143.1070 C   0  0  0  0  0  2  0  0  0  0  0  0
  191.8050  176.9080  147.6540 O   0  0  0  0  0  0  0  0  0  0  0  0
  191.1960  177.9010  145.4430 C   0  0  0  0  0  3  0  0  0  0  0  0
  191.5600  176.3470  143.6000 C   0  0  0  0  0  3  0  0  0  0  0  0
  192.0490  175.6940  145.7990 C   0  0  0  0  0  0  0  0  0  0  0  0
  191.1500  177.6180  144.0660 C   0  0  0  0  0  0  0  0  0  0  0  0
  192.0070  175.3990  144.4760 N   0  0  0  0  0  0  0  0  0  0  0  0
  192.3190  175.6330  148.0680 C   0  0  0  0  0  3  0  0  0  0  0  0
  192.4770  174.8370  146.8390 N   0  0  0  0  0  0  0  0  0  0  0  0
  191.6600  176.8950  146.2830 C   0  0  0  0  0  0  0  0  0  0  0  0
  1  2  2  0  0  0  0
  1  4  1  0  0  0  0
  2  5  1  0  0  0  0
  3 16  1  0  0  0  0
  4  3  2  0  0  0  0
  5  3  1  0  0  0  0
  5 13  1  0  0  0  0
  6  8  1  0  0  0  0
  7  9  2  0  0  0  0
  7 13  1  0  0  0  0
  9 11  1  0  0  0  0
 11 12  2  0  0  0  0
 12  8  1  0  0  0  0
 12 10  1  0  0  0  0
 13  6  2  0  0  0  0
 14  1  1  0  0  0  0
 15 14  2  0  0  0  0
 16 21  1  0  0  0  0
 17 23  1  0  0  0  0
 18 25  2  0  0  0  0
 19 21  2  0  0  0  0
 19 22  1  0  0  0  0
 20 25  1  0  0  0  0
 20 24  1  0  0  0  0
 21 18  1  0  0  0  0
 22 20  2  0  0  0  0
 24 23  2  0  0  0  0
 25 17  1  0  0  0  0
M  END
>  <MODEL>
5

>  <REMARK>
 VINA RESULT:      -7.5      2.700      5.618
  Name = 
  4 active torsions:
  status: ('A' for Active; 'I' for Inactive)
    1  A    between atoms: C_1  and  C_4
    2  A    between atoms: C_7  and  C_14
    3  A    between atoms: C_7  and  C_15
    4  A    between atoms: N_19  and  C_24
                            x       y       z     vdW  Elec       q    Type
                         _______ _______ _______ _____ _____    ______ ____

>  <TORSDO>
F 4

$$$$
=
 OpenBabel11042411213D

 25 28  0  0  0  0  0  0  0  0999 V2000
  188.1330  178.3500  140.4770 C   0  0  0  0  0  0  0  0  0  0  0  0
  186.8180  178.6340  140.4240 N   0  0  0  0  0  0  0  0  0  0  0  0
  187.2940  177.9080  142.4170 C   0  0  0  0  0  0  0  0  0  0  0  0
  188.4910  177.8720  141.7250 C   0  0  0  0  0  3  0  0  0  0  0  0
  186.3040  178.3640  141.6130 N   0  0  0  0  0  0  0  0  0  0  0  0
  184.5450  178.8250  143.3270 C   0  0  0  0  0  3  0  0  0  0  0  0
  184.0420  178.4810  140.9110 C   0  0  0  0  0  3  0  0  0  0  0  0
  183.3600  179.0040  143.9010 C   0  0  0  0  0  2  0  0  0  0  0  0
  182.6210  178.6260  140.9510 N   0  0  0  0  0  0  0  0  0  0  0  0
  180.9850  179.1560  144.1760 F   0  0  0  0  0  0  0  0  0  0  0  0
  181.7140  178.8240  142.0350 C   0  0  0  0  0  3  0  0  0  0  0  0
  182.0190  178.9800  143.3180 C   0  0  0  0  0  0  0  0  0  0  0  0
  184.9080  178.5420  141.9270 C   0  0  0  0  0  0  0  0  0  0  0  0
  189.0550  178.5110  139.3530 C   0  0  0  0  0  3  0  0  0  0  0  0
  188.6500  179.0040  138.2310 N   0  0  0  0  0  2  0  0  0  0  0  0
  187.1180  177.3730  143.8040 C   0  0  0  0  0  2  0  0  0  0  0  0
  190.2930  177.1430  147.6640 O   0  0  0  0  0  0  0  0  0  0  0  0
  188.6090  177.3150  145.8250 C   0  0  0  0  0  3  0  0  0  0  0  0
  189.5320  176.6710  143.6630 C   0  0  0  0  0  3  0  0  0  0  0  0
  190.8840  176.6150  145.5790 C   0  0  0  0  0  0  0  0  0  0  0  0
  188.4430  177.1270  144.4410 C   0  0  0  0  0  0  0  0  0  0  0  0
  190.7430  176.4220  144.2450 N   0  0  0  0  0  0  0  0  0  0  0  0
  191.6730  176.7520  147.7200 C   0  0  0  0  0  3  0  0  0  0  0  0
  192.0560  176.4050  146.3410 N   0  0  0  0  0  0  0  0  0  0  0  0
  189.8640  177.0440  146.3580 C   0  0  0  0  0  0  0  0  0  0  0  0
  1  4  1  0  0  0  0
  2  1  2  0  0  0  0
  2  5  1  0  0  0  0
  3 16  1  0  0  0  0
  4  3  2  0  0  0  0
  5 13  1  0  0  0  0
  5  3  1  0  0  0  0
  6  8  1  0  0  0  0
  7  9  2  0  0  0  0
  7 13  1  0  0  0  0
  9 11  1  0  0  0  0
 11 12  2  0  0  0  0
 12  8  1  0  0  0  0
 12 10  1  0  0  0  0
 13  6  2  0  0  0  0
 14  1  1  0  0  0  0
 15 14  2  0  0  0  0
 16 21  1  0  0  0  0
 17 23  1  0  0  0  0
 18 25  2  0  0  0  0
 19 22  1  0  0  0  0
 19 21  2  0  0  0  0
 20 24  1  0  0  0  0
 20 25  1  0  0  0  0
 21 18  1  0  0  0  0
 22 20  2  0  0  0  0
 24 23  2  0  0  0  0
 25 17  1  0  0  0  0
M  END
>  <MODEL>
6

>  <REMARK>
 VINA RESULT:      -7.5      3.380      6.080
  Name = 
  4 active torsions:
  status: ('A' for Active; 'I' for Inactive)
    1  A    between atoms: C_1  and  C_4
    2  A    between atoms: C_7  and  C_14
    3  A    between atoms: C_7  and  C_15
    4  A    between atoms: N_19  and  C_24
                            x       y       z     vdW  Elec       q    Type
                         _______ _______ _______ _____ _____    ______ ____

>  <TORSDO>
F 4

$$$$
=
 OpenBabel11042411213D

 25 28  0  0  1  0  0  0  0  0999 V2000
  188.6290  178.2450  140.3310 C   0  0  0  0  0  0  0  0  0  0  0  0
  187.4470  178.7890  140.6780 N   0  0  0  0  0  0  0  0  0  0  0  0
  187.9470  177.2370  142.1160 C   0  0  0  0  0  0  0  0  0  0  0  0
  188.9930  177.2400  141.2090 C   0  0  0  0  0  3  0  0  0  0  0  0
  187.0300  178.1720  141.7720 N   0  0  0  0  0  0  0  0  0  0  0  0
  184.5330  178.2180  141.7070 C   0  0  0  0  0  3  0  0  0  0  0  0
  185.8620  178.9660  143.6760 C   0  0  0  0  0  3  0  0  0  0  0  0
  183.2660  178.4290  142.0480 C   0  0  0  0  0  3  0  0  0  0  0  0
  184.7920  179.3500  144.5420 N   0  0  0  0  0  0  0  0  0  0  0  0
  181.3570  179.1320  143.3130 F   0  0  0  0  0  0  0  0  0  0  0  0
  183.3790  179.3900  144.3480 C   0  0  0  0  0  3  0  0  0  0  0  0
  182.7050  179.0030  143.2710 C   0  0  0  0  0  0  0  0  0  0  0  0
  185.7870  178.4890  142.4300 C   0  0  1  0  0  3  0  0  0  0  0  0
  189.4130  178.6550  139.1670 C   0  0  0  0  0  3  0  0  0  0  0  0
  188.8320  179.0030  138.0670 N   0  0  0  0  0  2  0  0  0  0  0  0
  187.8040  176.2340  143.2180 C   0  0  0  0  0  2  0  0  0  0  0  0
  187.5060  177.8250  147.9520 O   0  0  0  0  0  0  0  0  0  0  0  0
  187.5110  177.0220  145.5850 C   0  0  0  0  0  3  0  0  0  0  0  0
  189.7490  177.0110  144.6170 C   0  0  0  0  0  3  0  0  0  0  0  0
  189.4310  177.7220  146.8300 C   0  0  0  0  0  0  0  0  0  0  0  0
  188.3600  176.7750  144.4910 C   0  0  0  0  0  0  0  0  0  0  0  0
  190.2670  177.4850  145.7890 N   0  0  0  0  0  0  0  0  0  0  0  0
  188.5270  178.2770  148.8550 C   0  0  0  0  0  3  0  0  0  0  0  0
  189.7940  178.2060  148.1070 N   0  0  0  0  0  0  0  0  0  0  0  0
  188.0990  177.5030  146.7500 C   0  0  0  0  0  0  0  0  0  0  0  0
  1  2  2  0  0  0  0
  1  4  1  0  0  0  0
  2  5  1  0  0  0  0
  3 16  1  0  0  0  0
  4  3  2  0  0  0  0
  5  3  1  0  0  0  0
  5 13  1  0  0  0  0
  6  8  2  0  0  0  0
  7  9  2  0  0  0  0
  8 12  1  0  0  0  0
 11  9  1  0  0  0  0
 12 10  1  0  0  0  0
 12 11  2  0  0  0  0
 13  6  1  1  0  0  0
 13  7  1  0  0  0  0
 14  1  1  0  0  0  0
 15 14  2  0  0  0  0
 16 21  1  0  0  0  0
 17 23  1  0  0  0  0
 18 25  2  0  0  0  0
 19 22  1  0  0  0  0
 20 24  1  0  0  0  0
 21 19  2  0  0  0  0
 21 18  1  0  0  0  0
 22 20  2  0  0  0  0
 24 23  2  0  0  0  0
 25 20  1  0  0  0  0
 25 17  1  0  0  0  0
M  END
>  <MODEL>
7

>  <REMARK>
 VINA RESULT:      -7.4      2.883      6.010
  Name = 
  4 active torsions:
  status: ('A' for Active; 'I' for Inactive)
    1  A    between atoms: C_1  and  C_4
    2  A    between atoms: C_7  and  C_14
    3  A    between atoms: C_7  and  C_15
    4  A    between atoms: N_19  and  C_24
                            x       y       z     vdW  Elec       q    Type
                         _______ _______ _______ _____ _____    ______ ____

>  <TORSDO>
F 4

$$$$
=
 OpenBabel11042411213D

 25 28  0  0  1  0  0  0  0  0999 V2000
  186.8990  178.5310  141.4310 C   0  0  0  0  0  0  0  0  0  0  0  0
  187.8480  178.4750  140.4780 N   0  0  0  0  0  0  0  0  0  0  0  0
  188.4010  177.1260  142.0910 C   0  0  0  0  0  0  0  0  0  0  0  0
  187.2060  177.6970  142.4920 C   0  0  0  0  0  3  0  0  0  0  0  0
  188.7680  177.6140  140.8810 N   0  0  0  0  0  0  0  0  0  0  0  0
  189.7650  176.8340  138.7270 C   0  0  0  0  0  3  0  0  0  0  0  0
  191.1300  177.5020  140.7010 C   0  0  0  0  0  3  0  0  0  0  0  0
  190.6500  176.4560  137.8110 C   0  0  0  0  0  3  0  0  0  0  0  0
  192.4340  177.2790  140.1630 N   0  0  0  0  0  0  0  0  0  0  0  0
  192.7470  175.9110  136.7890 F   0  0  0  0  0  0  0  0  0  0  0  0
  192.8700  176.7530  138.9110 C   0  0  0  0  0  3  0  0  0  0  0  0
  192.1090  176.3830  137.8870 C   0  0  0  0  0  0  0  0  0  0  0  0
  189.9470  177.3010  140.1130 C   0  0  1  0  0  3  0  0  0  0  0  0
  185.7090  179.3780  141.3580 C   0  0  0  0  0  3  0  0  0  0  0  0
  184.9610  179.3780  140.3060 N   0  0  0  0  0  2  0  0  0  0  0  0
  189.2220  176.2210  142.9550 C   0  0  0  0  0  2  0  0  0  0  0  0
  187.2800  177.8440  147.2710 O   0  0  0  0  0  0  0  0  0  0  0  0
  188.1170  177.0290  145.0610 C   0  0  0  0  0  3  0  0  0  0  0  0
  190.5510  176.9490  144.9660 C   0  0  0  0  0  3  0  0  0  0  0  0
  189.4770  177.6810  146.9190 C   0  0  0  0  0  0  0  0  0  0  0  0
  189.2960  176.7520  144.3470 C   0  0  0  0  0  0  0  0  0  0  0  0
  190.6250  177.4150  146.2490 N   0  0  0  0  0  0  0  0  0  0  0  0
  187.9190  178.2720  148.4840 C   0  0  0  0  0  3  0  0  0  0  0  0
  189.3680  178.1610  148.2440 N   0  0  0  0  0  0  0  0  0  0  0  0
  188.2580  177.4990  146.3620 C   0  0  0  0  0  0  0  0  0  0  0  0
  1  4  1  0  0  0  0
  2  5  1  0  0  0  0
  2  1  2  0  0  0  0
  3  4  2  0  0  0  0
  3 16  1  0  0  0  0
  5  3  1  0  0  0  0
  8 12  1  0  0  0  0
  8  6  2  0  0  0  0
  9  7  2  0  0  0  0
 10 12  1  0  0  0  0
 11  9  1  0  0  0  0
 12 11  2  0  0  0  0
 13  6  1  6  0  0  0
 13  7  1  0  0  0  0
 13  5  1  0  0  0  0
 14  1  1  0  0  0  0
 15 14  2  0  0  0  0
 16 21  1  0  0  0  0
 17 23  1  0  0  0  0
 18 25  2  0  0  0  0
 19 22  1  0  0  0  0
 20 24  1  0  0  0  0
 21 19  2  0  0  0  0
 21 18  1  0  0  0  0
 22 20  2  0  0  0  0
 24 23  2  0  0  0  0
 25 20  1  0  0  0  0
 25 17  1  0  0  0  0
M  END
>  <MODEL>
8

>  <REMARK>
 VINA RESULT:      -7.4      3.662      7.680
  Name = 
  4 active torsions:
  status: ('A' for Active; 'I' for Inactive)
    1  A    between atoms: C_1  and  C_4
    2  A    between atoms: C_7  and  C_14
    3  A    between atoms: C_7  and  C_15
    4  A    between atoms: N_19  and  C_24
                            x       y       z     vdW  Elec       q    Type
                         _______ _______ _______ _____ _____    ______ ____

>  <TORSDO>
F 4

$$$$
=
 OpenBabel11042411213D

 25 28  0  0  0  0  0  0  0  0999 V2000
  191.6430  177.4120  141.4210 C   0  0  0  0  0  0  0  0  0  0  0  0
  191.8430  177.6820  142.7250 N   0  0  0  0  0  0  0  0  0  0  0  0
  190.0190  176.5150  142.5270 C   0  0  0  0  0  0  0  0  0  0  0  0
  190.4850  176.6780  141.2340 C   0  0  0  0  0  3  0  0  0  0  0  0
  190.8490  177.1310  143.4020 N   0  0  0  0  0  0  0  0  0  0  0  0
  189.5430  177.9010  145.3880 C   0  0  0  0  0  3  0  0  0  0  0  0
  191.6810  176.6340  145.5670 C   0  0  0  0  0  3  0  0  0  0  0  0
  189.1880  178.1510  146.6440 C   0  0  0  0  0  2  0  0  0  0  0  0
  191.7920  176.5740  146.9900 N   0  0  0  0  0  0  0  0  0  0  0  0
  189.2720  178.2530  149.0360 F   0  0  0  0  0  0  0  0  0  0  0  0
  190.9920  177.1290  148.0320 C   0  0  0  0  0  3  0  0  0  0  0  0
  189.8670  177.8230  147.8970 C   0  0  0  0  0  0  0  0  0  0  0  0
  190.7270  177.2200  144.8360 C   0  0  0  0  0  0  0  0  0  0  0  0
  192.5280  177.8560  140.3440 C   0  0  0  0  0  3  0  0  0  0  0  0
  193.5530  177.1520  139.9990 N   0  0  0  0  0  2  0  0  0  0  0  0
  188.7080  175.8760  142.8640 C   0  0  0  0  0  2  0  0  0  0  0  0
  184.8690  178.2530  145.0180 O   0  0  0  0  0  0  0  0  0  0  0  0
  186.7840  176.9710  144.0510 C   0  0  0  0  0  3  0  0  0  0  0  0
  187.4680  177.8310  141.8740 C   0  0  0  0  0  3  0  0  0  0  0  0
  185.6870  178.8330  143.0260 C   0  0  0  0  0  0  0  0  0  0  0  0
  187.6280  176.9010  142.9280 C   0  0  0  0  0  0  0  0  0  0  0  0
  186.4940  178.7870  141.9370 N   0  0  0  0  0  0  0  0  0  0  0  0
  184.0920  179.3750  144.5710 C   0  0  0  0  0  3  0  0  0  0  0  0
  184.6380  179.7520  143.2560 N   0  0  0  0  0  0  0  0  0  0  0  0
  185.8130  177.9660  144.0550 C   0  0  0  0  0  0  0  0  0  0  0  0
  1  2  2  0  0  0  0
  2  5  1  0  0  0  0
  3 16  1  0  0  0  0
  3  5  1  0  0  0  0
  4  1  1  0  0  0  0
  4  3  2  0  0  0  0
  5 13  1  0  0  0  0
  6  8  1  0  0  0  0
  7  9  2  0  0  0  0
  8 12  1  0  0  0  0
  9 11  1  0  0  0  0
 12 11  2  0  0  0  0
 12 10  1  0  0  0  0
 13  6  2  0  0  0  0
 13  7  1  0  0  0  0
 14  1  1  0  0  0  0
 15 14  2  0  0  0  0
 16 21  1  0  0  0  0
 18 25  2  0  0  0  0
 19 22  1  0  0  0  0
 19 21  2  0  0  0  0
 20 24  1  0  0  0  0
 20 25  1  0  0  0  0
 21 18  1  0  0  0  0
 22 20  2  0  0  0  0
 23 17  1  0  0  0  0
 24 23  2  0  0  0  0
 25 17  1  0  0  0  0
M  END
>  <MODEL>
9

>  <REMARK>
 VINA RESULT:      -7.3      2.808      5.482
  Name = 
  4 active torsions:
  status: ('A' for Active; 'I' for Inactive)
    1  A    between atoms: C_1  and  C_4
    2  A    between atoms: C_7  and  C_14
    3  A    between atoms: C_7  and  C_15
    4  A    between atoms: N_19  and  C_24
                            x       y       z     vdW  Elec       q    Type
                         _______ _______ _______ _____ _____    ______ ____

>  <TORSDO>
F 4

$$$$
