=
 OpenBabel11032420153D

 28 28  0  0  1  0  0  0  0  0999 V2000
  188.8840  178.1420  142.5050 C   0  0  1  0  0  3  0  0  0  0  0  0
  188.3590  177.8470  138.2610 C   0  0  0  0  0  3  0  0  0  0  0  0
  190.7680  176.6260  137.8350 Cl  0  0  0  0  0  0  0  0  0  0  0  0
  188.7080  178.0310  141.0140 C   0  0  2  0  0  3  0  0  0  0  0  0
  189.5300  177.3540  138.8360 C   0  0  0  0  0  0  0  0  0  0  0  0
  187.4020  178.4160  139.0430 N   0  0  0  0  0  0  0  0  0  0  0  0
  186.6310  179.0530  141.0730 O   0  0  0  0  0  0  0  0  0  0  0  0
  189.7050  177.4510  140.2170 C   0  0  0  0  0  3  0  0  0  0  0  0
  187.5460  178.5170  140.3920 C   0  0  0  0  0  0  0  0  0  0  0  0
  187.7200  177.4830  143.2680 C   0  0  1  0  0  3  0  0  0  0  0  0
  187.9520  175.9950  143.5200 C   0  0  0  0  0  1  0  0  0  0  0  0
  187.4440  178.2230  144.5720 C   0  0  0  0  0  2  0  0  0  0  0  0
  186.3560  177.5360  145.3860 C   0  0  0  0  0  2  0  0  0  0  0  0
  185.2600  178.5140  145.7810 C   0  0  1  0  0  3  0  0  0  0  0  0
  185.6680  179.2640  146.9580 N   0  0  0  0  0  1  0  0  0  0  0  0
  185.0250  179.3970  144.7240 O   0  0  0  0  0  0  0  0  0  0  0  0
  183.5770  178.7780  142.9340 C   0  0  0  0  0  1  0  0  0  0  0  0
  183.6840  179.2040  144.3880 C   0  0  0  0  0  2  0  0  0  0  0  0
  190.2760  177.6660  142.9270 C   0  0  0  0  0  2  0  0  0  0  0  0
  191.0110  178.7470  143.7050 C   0  0  0  0  0  2  0  0  0  0  0  0
  191.7050  178.1730  144.8500 N   0  0  0  0  0  2  0  0  0  0  0  0
  191.0080  177.0760  145.2390 O   0  0  0  0  0  0  0  0  0  0  0  0
  190.9010  177.1910  146.6260 C   0  0  2  0  0  3  0  0  0  0  0  0
  191.9980  176.4690  147.2500 N   0  0  0  0  0  1  0  0  0  0  0  0
  189.5710  176.6090  147.0840 C   0  0  0  0  0  2  0  0  0  0  0  0
  189.5990  178.6040  148.5810 O   0  0  0  0  0  1  0  0  0  0  0  0
  188.9320  177.4810  148.1100 C   0  0  0  0  0  0  0  0  0  0  0  0
  187.7930  177.1910  148.5650 O   0  0  0  0  0  0  0  0  0  0  0  0
  1 19  1  1  0  0  0
  1 10  1  0  0  0  0
  2  5  1  0  0  0  0
  2  6  2  0  0  0  0
  3  5  1  0  0  0  0
  4  1  1  6  0  0  0
  5  8  2  0  0  0  0
  6  9  1  0  0  0  0
  8  4  1  0  0  0  0
  9  4  1  0  0  0  0
  9  7  2  0  0  0  0
 10 11  1  1  0  0  0
 10 12  1  0  0  0  0
 12 13  1  0  0  0  0
 13 14  1  0  0  0  0
 14 15  1  1  0  0  0
 16 14  1  0  0  0  0
 17 18  1  0  0  0  0
 18 16  1  0  0  0  0
 19 20  1  0  0  0  0
 20 21  1  0  0  0  0
 21 22  1  0  0  0  0
 22 23  1  0  0  0  0
 23 25  1  0  0  0  0
 23 24  1  1  0  0  0
 25 27  1  0  0  0  0
 27 28  2  0  0  0  0
 27 26  1  0  0  0  0
M  END
>  <MODEL>
1

>  <REMARK>
 VINA RESULT:      -6.6      0.000      0.000
  Name = 
  14 active torsions:
  status: ('A' for Active; 'I' for Inactive)
    1  A    between atoms: C_4  and  C_20
    2  A    between atoms: C_4  and  C_21
    3  A    between atoms: C_6  and  C_14
    4  A    between atoms: C_6  and  C_24
    5  A    between atoms: C_7  and  C_21
    6  A    between atoms: C_9  and  C_16
    7  A    between atoms: C_9  and  C_20
    8  A    between atoms: N_10  and  O_13
    9  A    between atoms: N_10  and  C_27
   10  A    between atoms: C_11  and  O_19
   11  A    between atoms: O_13  and  C_24
   12  A    between atoms: C_16  and  O_19
   13  A    between atoms: C_21  and  C_23
   14  A    between atoms: C_23  and  C_27
                            x       y       z     vdW  Elec       q    Type
                         _______ _______ _______ _____ _____    ______ ____

>  <TORSDO>
F 14

$$$$
=
 OpenBabel11032420153D

 28 28  0  0  1  0  0  0  0  0999 V2000
  186.9190  178.2240  143.4880 C   0  0  1  0  0  3  0  0  0  0  0  0
  182.8280  179.0300  144.4830 C   0  0  0  0  0  3  0  0  0  0  0  0
  181.9000  178.5610  141.9540 Cl  0  0  0  0  0  0  0  0  0  0  0  0
  185.4790  178.5010  143.8280 C   0  0  2  0  0  3  0  0  0  0  0  0
  183.1510  178.6740  143.1740 C   0  0  0  0  0  0  0  0  0  0  0  0
  183.8040  179.1200  145.4260 N   0  0  0  0  0  0  0  0  0  0  0  0
  185.9760  178.9640  146.0420 O   0  0  0  0  0  0  0  0  0  0  0  0
  184.4820  178.4140  142.8460 C   0  0  0  0  0  3  0  0  0  0  0  0
  185.1090  178.8660  145.1330 C   0  0  0  0  0  0  0  0  0  0  0  0
  187.4650  177.0100  144.2650 C   0  0  1  0  0  3  0  0  0  0  0  0
  188.0550  175.9440  143.3460 C   0  0  0  0  0  1  0  0  0  0  0  0
  188.4790  177.4540  145.3120 C   0  0  0  0  0  2  0  0  0  0  0  0
  189.8500  177.6980  144.6940 C   0  0  0  0  0  2  0  0  0  0  0  0
  190.8660  176.6780  145.1840 C   0  0  1  0  0  3  0  0  0  0  0  0
  191.6320  176.1640  144.0610 N   0  0  0  0  0  1  0  0  0  0  0  0
  191.7290  177.2870  146.0980 O   0  0  0  0  0  0  0  0  0  0  0  0
  192.4640  175.6560  147.6740 C   0  0  0  0  0  1  0  0  0  0  0  0
  191.4200  176.7020  147.3280 C   0  0  0  0  0  2  0  0  0  0  0  0
  187.1180  178.1550  141.9720 C   0  0  0  0  0  2  0  0  0  0  0  0
  188.4580  178.7510  141.5690 C   0  0  0  0  0  2  0  0  0  0  0  0
  188.9420  178.1410  140.3390 N   0  0  0  0  0  2  0  0  0  0  0  0
  188.9690  179.1090  139.3890 O   0  0  0  0  0  0  0  0  0  0  0  0
  188.9680  178.4210  138.1740 C   0  0  2  0  0  3  0  0  0  0  0  0
  188.7600  179.3670  137.0900 N   0  0  0  0  0  1  0  0  0  0  0  0
  187.8530  177.3840  138.1780 C   0  0  0  0  0  2  0  0  0  0  0  0
  186.0740  177.7770  136.4740 O   0  0  0  0  0  0  0  0  0  0  0  0
  186.5590  177.9920  137.7570 C   0  0  0  0  0  0  0  0  0  0  0  0
  185.9110  178.7160  138.5600 O   0  0  0  0  0  1  0  0  0  0  0  0
  1 19  1  6  0  0  0
  1 10  1  0  0  0  0
  2  6  2  0  0  0  0
  3  5  1  0  0  0  0
  4  1  1  6  0  0  0
  4  9  1  0  0  0  0
  5  2  1  0  0  0  0
  8  5  2  0  0  0  0
  8  4  1  0  0  0  0
  9  6  1  0  0  0  0
  9  7  2  0  0  0  0
 10 11  1  6  0  0  0
 10 12  1  0  0  0  0
 13 14  1  0  0  0  0
 13 12  1  0  0  0  0
 14 15  1  6  0  0  0
 14 16  1  0  0  0  0
 16 18  1  0  0  0  0
 18 17  1  0  0  0  0
 20 19  1  0  0  0  0
 21 20  1  0  0  0  0
 22 21  1  0  0  0  0
 23 24  1  6  0  0  0
 23 25  1  0  0  0  0
 23 22  1  0  0  0  0
 26 27  2  0  0  0  0
 27 25  1  0  0  0  0
 27 28  1  0  0  0  0
M  END
>  <MODEL>
2

>  <REMARK>
 VINA RESULT:      -6.4      2.662      7.302
  Name = 
  14 active torsions:
  status: ('A' for Active; 'I' for Inactive)
    1  A    between atoms: C_4  and  C_20
    2  A    between atoms: C_4  and  C_21
    3  A    between atoms: C_6  and  C_14
    4  A    between atoms: C_6  and  C_24
    5  A    between atoms: C_7  and  C_21
    6  A    between atoms: C_9  and  C_16
    7  A    between atoms: C_9  and  C_20
    8  A    between atoms: N_10  and  O_13
    9  A    between atoms: N_10  and  C_27
   10  A    between atoms: C_11  and  O_19
   11  A    between atoms: O_13  and  C_24
   12  A    between atoms: C_16  and  O_19
   13  A    between atoms: C_21  and  C_23
   14  A    between atoms: C_23  and  C_27
                            x       y       z     vdW  Elec       q    Type
                         _______ _______ _______ _____ _____    ______ ____

>  <TORSDO>
F 14

$$$$
=
 OpenBabel11032420153D

 28 28  0  0  1  0  0  0  0  0999 V2000
  187.4100  177.6080  143.0250 C   0  0  1  0  0  3  0  0  0  0  0  0
  191.5880  177.0870  143.8300 C   0  0  0  0  0  3  0  0  0  0  0  0
  192.0250  179.7280  144.3900 Cl  0  0  0  0  0  0  0  0  0  0  0  0
  188.8770  177.4350  143.3130 C   0  0  2  0  0  3  0  0  0  0  0  0
  191.0300  178.3610  143.9360 C   0  0  0  0  0  0  0  0  0  0  0  0
  190.8110  176.0290  143.4730 N   0  0  0  0  0  0  0  0  0  0  0  0
  188.8050  175.1600  142.8880 O   0  0  0  0  0  0  0  0  0  0  0  0
  189.6710  178.5340  143.6720 C   0  0  0  0  0  3  0  0  0  0  0  0
  189.4820  176.1710  143.2160 C   0  0  0  0  0  0  0  0  0  0  0  0
  186.6400  178.1080  144.2620 C   0  0  1  0  0  3  0  0  0  0  0  0
  185.1670  178.3770  143.9670 C   0  0  0  0  0  1  0  0  0  0  0  0
  186.7980  177.1340  145.4240 C   0  0  0  0  0  2  0  0  0  0  0  0
  186.7600  177.8530  146.7660 C   0  0  0  0  0  2  0  0  0  0  0  0
  188.1530  177.9860  147.3610 C   0  0  1  0  0  3  0  0  0  0  0  0
  188.0820  177.9080  148.8110 N   0  0  0  0  0  1  0  0  0  0  0  0
  188.9630  176.9560  146.8770 O   0  0  0  0  0  0  0  0  0  0  0  0
  191.1260  176.0270  147.2560 C   0  0  0  0  0  1  0  0  0  0  0  0
  190.2460  177.2620  147.3370 C   0  0  0  0  0  2  0  0  0  0  0  0
  187.1970  178.4410  141.7590 C   0  0  0  0  0  2  0  0  0  0  0  0
  188.2730  178.1490  140.7250 C   0  0  0  0  0  2  0  0  0  0  0  0
  187.8370  178.5630  139.3980 N   0  0  0  0  0  2  0  0  0  0  0  0
  188.9260  179.0350  138.7420 O   0  0  0  0  0  0  0  0  0  0  0  0
  188.7420  178.6480  137.4140 C   0  0  2  0  0  3  0  0  0  0  0  0
  187.4950  179.2110  136.9210 N   0  0  0  0  0  1  0  0  0  0  0  0
  188.6930  177.1290  137.3290 C   0  0  0  0  0  2  0  0  0  0  0  0
  190.9090  176.4660  136.3950 O   0  0  0  0  0  0  0  0  0  0  0  0
  190.0540  176.5430  137.4860 C   0  0  0  0  0  0  0  0  0  0  0  0
  190.4250  176.0990  138.6060 O   0  0  0  0  0  1  0  0  0  0  0  0
  1 19  1  6  0  0  0
  1 10  1  0  0  0  0
  2  5  1  0  0  0  0
  4  1  1  6  0  0  0
  4  8  1  0  0  0  0
  5  3  1  0  0  0  0
  6  2  2  0  0  0  0
  7  9  2  0  0  0  0
  8  5  2  0  0  0  0
  9  4  1  0  0  0  0
  9  6  1  0  0  0  0
 10 11  1  6  0  0  0
 10 12  1  0  0  0  0
 12 13  1  0  0  0  0
 13 14  1  0  0  0  0
 14 15  1  1  0  0  0
 16 18  1  0  0  0  0
 16 14  1  0  0  0  0
 17 18  1  0  0  0  0
 20 19  1  0  0  0  0
 21 20  1  0  0  0  0
 22 21  1  0  0  0  0
 23 24  1  1  0  0  0
 23 22  1  0  0  0  0
 25 23  1  0  0  0  0
 25 27  1  0  0  0  0
 26 27  2  0  0  0  0
 27 28  1  0  0  0  0
M  END
>  <MODEL>
3

>  <REMARK>
 VINA RESULT:      -6.3      2.740      6.695
  Name = 
  14 active torsions:
  status: ('A' for Active; 'I' for Inactive)
    1  A    between atoms: C_4  and  C_20
    2  A    between atoms: C_4  and  C_21
    3  A    between atoms: C_6  and  C_14
    4  A    between atoms: C_6  and  C_24
    5  A    between atoms: C_7  and  C_21
    6  A    between atoms: C_9  and  C_16
    7  A    between atoms: C_9  and  C_20
    8  A    between atoms: N_10  and  O_13
    9  A    between atoms: N_10  and  C_27
   10  A    between atoms: C_11  and  O_19
   11  A    between atoms: O_13  and  C_24
   12  A    between atoms: C_16  and  O_19
   13  A    between atoms: C_21  and  C_23
   14  A    between atoms: C_23  and  C_27
                            x       y       z     vdW  Elec       q    Type
                         _______ _______ _______ _____ _____    ______ ____

>  <TORSDO>
F 14

$$$$
=
 OpenBabel11032420153D

 28 28  0  0  1  0  0  0  0  0999 V2000
  189.9210  177.6180  141.5050 C   0  0  1  0  0  3  0  0  0  0  0  0
  190.5360  176.8270  137.3370 C   0  0  0  0  0  3  0  0  0  0  0  0
  192.2870  174.7710  137.7680 Cl  0  0  0  0  0  0  0  0  0  0  0  0
  190.1420  177.3300  140.0440 C   0  0  2  0  0  3  0  0  0  0  0  0
  191.2070  176.0500  138.2820 C   0  0  0  0  0  0  0  0  0  0  0  0
  189.7010  177.8220  137.7410 N   0  0  0  0  0  0  0  0  0  0  0  0
  188.7060  179.0220  139.3810 O   0  0  0  0  0  0  0  0  0  0  0  0
  191.0110  176.3070  139.6380 C   0  0  0  0  0  3  0  0  0  0  0  0
  189.4880  178.0890  139.0580 C   0  0  0  0  0  0  0  0  0  0  0  0
  188.5630  177.0790  141.9950 C   0  0  1  0  0  3  0  0  0  0  0  0
  188.7130  175.9570  143.0190 C   0  0  0  0  0  1  0  0  0  0  0  0
  187.7030  178.2120  142.5430 C   0  0  0  0  0  2  0  0  0  0  0  0
  186.4010  177.6880  143.1340 C   0  0  0  0  0  2  0  0  0  0  0  0
  185.3590  178.7910  143.2380 C   0  0  1  0  0  3  0  0  0  0  0  0
  185.3530  179.5820  142.0180 N   0  0  0  0  0  1  0  0  0  0  0  0
  184.0990  178.2200  143.4300 O   0  0  0  0  0  0  0  0  0  0  0  0
  184.3450  178.7930  145.7310 C   0  0  0  0  0  1  0  0  0  0  0  0
  183.5230  178.9600  144.4650 C   0  0  0  0  0  2  0  0  0  0  0  0
  191.1250  177.1680  142.3370 C   0  0  0  0  0  2  0  0  0  0  0  0
  191.5960  178.2800  143.2610 C   0  0  0  0  0  2  0  0  0  0  0  0
  190.9760  178.1550  144.5730 N   0  0  0  0  0  2  0  0  0  0  0  0
  191.6750  177.2210  145.2650 O   0  0  0  0  0  0  0  0  0  0  0  0
  191.0410  177.1440  146.5060 C   0  0  2  0  0  3  0  0  0  0  0  0
  191.5310  175.9760  147.2200 N   0  0  0  0  0  1  0  0  0  0  0  0
  189.5360  177.0320  146.3020 C   0  0  0  0  0  2  0  0  0  0  0  0
  187.4090  177.6350  147.4560 O   0  0  0  0  0  0  0  0  0  0  0  0
  188.7970  177.6400  147.4450 C   0  0  0  0  0  0  0  0  0  0  0  0
  189.4310  178.1740  148.3950 O   0  0  0  0  0  1  0  0  0  0  0  0
  1 10  1  0  0  0  0
  1 19  1  1  0  0  0
  2  6  2  0  0  0  0
  2  5  1  0  0  0  0
  3  5  1  0  0  0  0
  4  1  1  6  0  0  0
  5  8  2  0  0  0  0
  6  9  1  0  0  0  0
  8  4  1  0  0  0  0
  9  7  2  0  0  0  0
  9  4  1  0  0  0  0
 10 12  1  0  0  0  0
 10 11  1  1  0  0  0
 12 13  1  0  0  0  0
 13 14  1  0  0  0  0
 14 15  1  6  0  0  0
 14 16  1  0  0  0  0
 16 18  1  0  0  0  0
 18 17  1  0  0  0  0
 19 20  1  0  0  0  0
 20 21  1  0  0  0  0
 21 22  1  0  0  0  0
 22 23  1  0  0  0  0
 23 24  1  6  0  0  0
 25 23  1  0  0  0  0
 25 27  1  0  0  0  0
 27 26  2  0  0  0  0
 27 28  1  0  0  0  0
M  END
>  <MODEL>
4

>  <REMARK>
 VINA RESULT:      -6.3      1.692      2.056
  Name = 
  14 active torsions:
  status: ('A' for Active; 'I' for Inactive)
    1  A    between atoms: C_4  and  C_20
    2  A    between atoms: C_4  and  C_21
    3  A    between atoms: C_6  and  C_14
    4  A    between atoms: C_6  and  C_24
    5  A    between atoms: C_7  and  C_21
    6  A    between atoms: C_9  and  C_16
    7  A    between atoms: C_9  and  C_20
    8  A    between atoms: N_10  and  O_13
    9  A    between atoms: N_10  and  C_27
   10  A    between atoms: C_11  and  O_19
   11  A    between atoms: O_13  and  C_24
   12  A    between atoms: C_16  and  O_19
   13  A    between atoms: C_21  and  C_23
   14  A    between atoms: C_23  and  C_27
                            x       y       z     vdW  Elec       q    Type
                         _______ _______ _______ _____ _____    ______ ____

>  <TORSDO>
F 14

$$$$
=
 OpenBabel11032420153D

 28 28  0  0  1  0  0  0  0  0999 V2000
  186.9630  178.3690  143.2240 C   0  0  1  0  0  3  0  0  0  0  0  0
  182.9280  178.9950  144.5270 C   0  0  0  0  0  3  0  0  0  0  0  0
  181.8490  178.6650  142.0370 Cl  0  0  0  0  0  0  0  0  0  0  0  0
  185.5430  178.5840  143.6720 C   0  0  2  0  0  3  0  0  0  0  0  0
  183.1740  178.7340  143.1790 C   0  0  0  0  0  0  0  0  0  0  0  0
  183.9610  179.0520  145.4100 N   0  0  0  0  0  0  0  0  0  0  0  0
  186.1720  178.9160  145.8760 O   0  0  0  0  0  0  0  0  0  0  0  0
  184.4860  178.5330  142.7510 C   0  0  0  0  0  3  0  0  0  0  0  0
  185.2500  178.8530  145.0190 C   0  0  0  0  0  0  0  0  0  0  0  0
  187.6980  177.3540  144.1210 C   0  0  1  0  0  3  0  0  0  0  0  0
  188.0090  176.0480  143.3950 C   0  0  0  0  0  1  0  0  0  0  0  0
  188.9620  177.9710  144.7070 C   0  0  0  0  0  2  0  0  0  0  0  0
  189.6360  177.0310  145.6970 C   0  0  0  0  0  2  0  0  0  0  0  0
  189.5140  177.5490  147.1220 C   0  0  1  0  0  3  0  0  0  0  0  0
  188.3300  176.9870  147.7520 N   0  0  0  0  0  1  0  0  0  0  0  0
  190.6480  177.1800  147.8470 O   0  0  0  0  0  0  0  0  0  0  0  0
  192.4940  175.6770  147.7170 C   0  0  0  0  0  1  0  0  0  0  0  0
  191.4160  176.4290  146.9560 C   0  0  0  0  0  2  0  0  0  0  0  0
  187.0220  178.0580  141.7260 C   0  0  0  0  0  2  0  0  0  0  0  0
  188.2650  178.6610  141.0910 C   0  0  0  0  0  2  0  0  0  0  0  0
  188.1190  178.7320  139.6430 N   0  0  0  0  0  2  0  0  0  0  0  0
  189.3660  178.7510  139.1100 O   0  0  0  0  0  0  0  0  0  0  0  0
  189.1840  178.4580  137.7580 C   0  0  2  0  0  3  0  0  0  0  0  0
  187.8470  178.8660  137.3570 N   0  0  0  0  0  1  0  0  0  0  0  0
  189.3570  176.9620  137.5340 C   0  0  0  0  0  2  0  0  0  0  0  0
  191.8360  176.6850  137.5190 O   0  0  0  0  0  0  0  0  0  0  0  0
  190.6210  176.4730  138.1550 C   0  0  0  0  0  0  0  0  0  0  0  0
  190.5860  175.8510  139.2510 O   0  0  0  0  0  1  0  0  0  0  0  0
  1 19  1  6  0  0  0
  1 10  1  0  0  0  0
  2  6  2  0  0  0  0
  3  5  1  0  0  0  0
  4  1  1  6  0  0  0
  4  9  1  0  0  0  0
  5  2  1  0  0  0  0
  8  5  2  0  0  0  0
  8  4  1  0  0  0  0
  9  6  1  0  0  0  0
  9  7  2  0  0  0  0
 10 11  1  6  0  0  0
 10 12  1  0  0  0  0
 12 13  1  0  0  0  0
 13 14  1  0  0  0  0
 14 15  1  1  0  0  0
 14 16  1  0  0  0  0
 18 17  1  0  0  0  0
 18 16  1  0  0  0  0
 20 19  1  0  0  0  0
 21 20  1  0  0  0  0
 22 21  1  0  0  0  0
 23 24  1  1  0  0  0
 23 22  1  0  0  0  0
 25 23  1  0  0  0  0
 25 27  1  0  0  0  0
 26 27  2  0  0  0  0
 27 28  1  0  0  0  0
M  END
>  <MODEL>
5

>  <REMARK>
 VINA RESULT:      -6.3      2.965      7.091
  Name = 
  14 active torsions:
  status: ('A' for Active; 'I' for Inactive)
    1  A    between atoms: C_4  and  C_20
    2  A    between atoms: C_4  and  C_21
    3  A    between atoms: C_6  and  C_14
    4  A    between atoms: C_6  and  C_24
    5  A    between atoms: C_7  and  C_21
    6  A    between atoms: C_9  and  C_16
    7  A    between atoms: C_9  and  C_20
    8  A    between atoms: N_10  and  O_13
    9  A    between atoms: N_10  and  C_27
   10  A    between atoms: C_11  and  O_19
   11  A    between atoms: O_13  and  C_24
   12  A    between atoms: C_16  and  O_19
   13  A    between atoms: C_21  and  C_23
   14  A    between atoms: C_23  and  C_27
                            x       y       z     vdW  Elec       q    Type
                         _______ _______ _______ _____ _____    ______ ____

>  <TORSDO>
F 14

$$$$
=
 OpenBabel11032420153D

 28 28  0  0  1  0  0  0  0  0999 V2000
  189.5550  177.1490  142.5060 C   0  0  1  0  0  3  0  0  0  0  0  0
  189.6280  177.8750  138.2820 C   0  0  0  0  0  3  0  0  0  0  0  0
  191.5910  176.0370  137.7860 Cl  0  0  0  0  0  0  0  0  0  0  0  0
  189.5860  177.3940  141.0210 C   0  0  2  0  0  3  0  0  0  0  0  0
  190.4920  176.9220  138.8220 C   0  0  0  0  0  0  0  0  0  0  0  0
  188.7790  178.5630  139.0920 N   0  0  0  0  0  0  0  0  0  0  0  0
  187.9320  179.0110  141.1420 O   0  0  0  0  0  0  0  0  0  0  0  0
  190.4720  176.6860  140.1970 C   0  0  0  0  0  3  0  0  0  0  0  0
  188.7360  178.3470  140.4350 C   0  0  0  0  0  0  0  0  0  0  0  0
  190.8720  177.5740  143.1830 C   0  0  1  0  0  3  0  0  0  0  0  0
  190.7960  178.9740  143.7860 C   0  0  0  0  0  1  0  0  0  0  0  0
  191.2930  176.5490  144.2290 C   0  0  0  0  0  2  0  0  0  0  0  0
  191.6360  177.2130  145.5560 C   0  0  0  0  0  2  0  0  0  0  0  0
  191.2830  176.3140  146.7310 C   0  0  1  0  0  3  0  0  0  0  0  0
  192.4690  175.6080  147.1880 N   0  0  0  0  0  1  0  0  0  0  0  0
  190.7730  177.0920  147.7720 O   0  0  0  0  0  0  0  0  0  0  0  0
  188.7520  178.2040  148.3730 C   0  0  0  0  0  1  0  0  0  0  0  0
  189.3880  177.0680  147.5920 C   0  0  0  0  0  2  0  0  0  0  0  0
  188.2930  177.7490  143.1310 C   0  0  0  0  0  2  0  0  0  0  0  0
  187.7360  176.8410  144.2160 C   0  0  0  0  0  2  0  0  0  0  0  0
  186.9900  177.6140  145.2000 N   0  0  0  0  0  2  0  0  0  0  0  0
  185.6810  177.5610  144.8490 O   0  0  0  0  0  0  0  0  0  0  0  0
  185.1680  178.8160  145.1820 C   0  0  2  0  0  3  0  0  0  0  0  0
  184.7920  178.8210  146.5860 N   0  0  0  0  0  1  0  0  0  0  0  0
  183.9500  179.1120  144.3190 C   0  0  0  0  0  2  0  0  0  0  0  0
  183.5860  178.2350  142.0120 O   0  0  0  0  0  0  0  0  0  0  0  0
  184.2980  179.0630  142.8700 C   0  0  0  0  0  0  0  0  0  0  0  0
  185.2500  179.7590  142.4250 O   0  0  0  0  0  1  0  0  0  0  0  0
  1 19  1  1  0  0  0
  1 10  1  0  0  0  0
  2  5  1  0  0  0  0
  2  6  2  0  0  0  0
  3  5  1  0  0  0  0
  4  1  1  1  0  0  0
  5  8  2  0  0  0  0
  6  9  1  0  0  0  0
  8  4  1  0  0  0  0
  9  4  1  0  0  0  0
  9  7  2  0  0  0  0
 10 11  1  1  0  0  0
 10 12  1  0  0  0  0
 12 13  1  0  0  0  0
 13 14  1  0  0  0  0
 14 15  1  1  0  0  0
 14 16  1  0  0  0  0
 18 16  1  0  0  0  0
 18 17  1  0  0  0  0
 19 20  1  0  0  0  0
 20 21  1  0  0  0  0
 22 23  1  0  0  0  0
 22 21  1  0  0  0  0
 23 24  1  1  0  0  0
 25 23  1  0  0  0  0
 26 27  2  0  0  0  0
 27 25  1  0  0  0  0
 28 27  1  0  0  0  0
M  END
>  <MODEL>
6

>  <REMARK>
 VINA RESULT:      -6.2      1.460      5.111
  Name = 
  14 active torsions:
  status: ('A' for Active; 'I' for Inactive)
    1  A    between atoms: C_4  and  C_20
    2  A    between atoms: C_4  and  C_21
    3  A    between atoms: C_6  and  C_14
    4  A    between atoms: C_6  and  C_24
    5  A    between atoms: C_7  and  C_21
    6  A    between atoms: C_9  and  C_16
    7  A    between atoms: C_9  and  C_20
    8  A    between atoms: N_10  and  O_13
    9  A    between atoms: N_10  and  C_27
   10  A    between atoms: C_11  and  O_19
   11  A    between atoms: O_13  and  C_24
   12  A    between atoms: C_16  and  O_19
   13  A    between atoms: C_21  and  C_23
   14  A    between atoms: C_23  and  C_27
                            x       y       z     vdW  Elec       q    Type
                         _______ _______ _______ _____ _____    ______ ____

>  <TORSDO>
F 14

$$$$
=
 OpenBabel11032420153D

 28 28  0  0  1  0  0  0  0  0999 V2000
  188.8400  177.4400  141.5470 C   0  0  1  0  0  3  0  0  0  0  0  0
  190.6100  176.9820  137.6700 C   0  0  0  0  0  3  0  0  0  0  0  0
  193.1200  176.4970  138.6400 Cl  0  0  0  0  0  0  0  0  0  0  0  0
  189.4710  177.2740  140.1900 C   0  0  2  0  0  3  0  0  0  0  0  0
  191.4120  176.8470  138.8030 C   0  0  0  0  0  0  0  0  0  0  0  0
  189.2850  177.2590  137.8020 N   0  0  0  0  0  0  0  0  0  0  0  0
  187.4690  177.6610  139.0910 O   0  0  0  0  0  0  0  0  0  0  0  0
  190.8400  176.9980  140.0660 C   0  0  0  0  0  3  0  0  0  0  0  0
  188.7010  177.4050  139.0220 C   0  0  0  0  0  0  0  0  0  0  0  0
  189.8850  177.3590  142.6760 C   0  0  1  0  0  3  0  0  0  0  0  0
  190.3710  178.7350  143.1240 C   0  0  0  0  0  1  0  0  0  0  0  0
  189.3420  176.5600  143.8550 C   0  0  0  0  0  2  0  0  0  0  0  0
  189.4680  177.3330  145.1600 C   0  0  0  0  0  2  0  0  0  0  0  0
  190.3770  176.6120  146.1440 C   0  0  1  0  0  3  0  0  0  0  0  0
  191.7470  177.0730  145.9810 N   0  0  0  0  0  1  0  0  0  0  0  0
  189.9490  176.8740  147.4470 O   0  0  0  0  0  0  0  0  0  0  0  0
  188.2360  178.0280  148.6370 C   0  0  0  0  0  1  0  0  0  0  0  0
  188.9490  177.8380  147.3100 C   0  0  0  0  0  2  0  0  0  0  0  0
  187.9500  178.6850  141.5860 C   0  0  0  0  0  2  0  0  0  0  0  0
  186.6010  178.3720  142.2130 C   0  0  0  0  0  2  0  0  0  0  0  0
  185.6380  179.4230  141.9100 N   0  0  0  0  0  2  0  0  0  0  0  0
  185.1120  179.8430  143.0870 O   0  0  0  0  0  0  0  0  0  0  0  0
  184.3160  178.7830  143.5240 C   0  0  2  0  0  3  0  0  0  0  0  0
  183.0970  178.7430  142.7320 N   0  0  0  0  0  1  0  0  0  0  0  0
  183.9720  178.9770  144.9940 C   0  0  0  0  0  2  0  0  0  0  0  0
  185.9840  177.5960  145.5080 O   0  0  0  0  0  0  0  0  0  0  0  0
  185.1330  178.6330  145.8630 C   0  0  0  0  0  0  0  0  0  0  0  0
  185.3330  179.2720  146.9310 O   0  0  0  0  0  1  0  0  0  0  0  0
  1 19  1  6  0  0  0
  1 10  1  0  0  0  0
  2  6  2  0  0  0  0
  2  5  1  0  0  0  0
  3  5  1  0  0  0  0
  4  1  1  6  0  0  0
  5  8  2  0  0  0  0
  6  9  1  0  0  0  0
  8  4  1  0  0  0  0
  9  7  2  0  0  0  0
  9  4  1  0  0  0  0
 10 11  1  1  0  0  0
 10 12  1  0  0  0  0
 12 13  1  0  0  0  0
 13 14  1  0  0  0  0
 14 15  1  1  0  0  0
 14 16  1  0  0  0  0
 18 16  1  0  0  0  0
 18 17  1  0  0  0  0
 19 20  1  0  0  0  0
 21 20  1  0  0  0  0
 21 22  1  0  0  0  0
 22 23  1  0  0  0  0
 23 24  1  6  0  0  0
 23 25  1  0  0  0  0
 25 27  1  0  0  0  0
 26 27  2  0  0  0  0
 27 28  1  0  0  0  0
M  END
>  <MODEL>
7

>  <REMARK>
 VINA RESULT:      -6.1      1.900      4.856
  Name = 
  14 active torsions:
  status: ('A' for Active; 'I' for Inactive)
    1  A    between atoms: C_4  and  C_20
    2  A    between atoms: C_4  and  C_21
    3  A    between atoms: C_6  and  C_14
    4  A    between atoms: C_6  and  C_24
    5  A    between atoms: C_7  and  C_21
    6  A    between atoms: C_9  and  C_16
    7  A    between atoms: C_9  and  C_20
    8  A    between atoms: N_10  and  O_13
    9  A    between atoms: N_10  and  C_27
   10  A    between atoms: C_11  and  O_19
   11  A    between atoms: O_13  and  C_24
   12  A    between atoms: C_16  and  O_19
   13  A    between atoms: C_21  and  C_23
   14  A    between atoms: C_23  and  C_27
                            x       y       z     vdW  Elec       q    Type
                         _______ _______ _______ _____ _____    ______ ____

>  <TORSDO>
F 14

$$$$
=
 OpenBabel11032420153D

 28 28  0  0  1  0  0  0  0  0999 V2000
  189.3390  177.6670  143.9360 C   0  0  1  0  0  3  0  0  0  0  0  0
  190.4020  176.9760  148.0310 C   0  0  0  0  0  3  0  0  0  0  0  0
  192.7190  175.6550  147.4280 Cl  0  0  0  0  0  0  0  0  0  0  0  0
  189.7230  177.4220  145.3710 C   0  0  2  0  0  3  0  0  0  0  0  0
  191.2460  176.5110  147.0230 C   0  0  0  0  0  0  0  0  0  0  0  0
  189.2570  177.6370  147.7110 N   0  0  0  0  0  0  0  0  0  0  0  0
  187.8300  178.4870  146.1740 O   0  0  0  0  0  0  0  0  0  0  0  0
  190.9010  176.7310  145.6890 C   0  0  0  0  0  3  0  0  0  0  0  0
  188.9020  177.8710  146.4180 C   0  0  0  0  0  0  0  0  0  0  0  0
  190.5050  178.2670  143.1270 C   0  0  1  0  0  3  0  0  0  0  0  0
  191.3710  179.2110  143.9580 C   0  0  0  0  0  1  0  0  0  0  0  0
  191.3470  177.1630  142.4980 C   0  0  0  0  0  2  0  0  0  0  0  0
  191.5510  177.3970  141.0070 C   0  0  0  0  0  2  0  0  0  0  0  0
  190.3850  176.8510  140.1980 C   0  0  1  0  0  3  0  0  0  0  0  0
  189.6890  177.9410  139.5330 N   0  0  0  0  0  1  0  0  0  0  0  0
  190.8650  175.9520  139.2420 O   0  0  0  0  0  0  0  0  0  0  0  0
  191.8270  176.0590  137.0640 C   0  0  0  0  0  1  0  0  0  0  0  0
  190.8270  176.6560  138.0370 C   0  0  0  0  0  2  0  0  0  0  0  0
  188.7100  176.4150  143.3190 C   0  0  0  0  0  2  0  0  0  0  0  0
  187.1990  176.4220  143.4890 C   0  0  0  0  0  2  0  0  0  0  0  0
  186.6510  177.7310  143.1610 N   0  0  0  0  0  2  0  0  0  0  0  0
  185.3780  177.5420  142.7350 O   0  0  0  0  0  0  0  0  0  0  0  0
  184.8180  178.8200  142.6960 C   0  0  2  0  0  3  0  0  0  0  0  0
  185.5420  179.6290  141.7280 N   0  0  0  0  0  1  0  0  0  0  0  0
  184.9090  179.4580  144.0750 C   0  0  0  0  0  2  0  0  0  0  0  0
  182.5450  178.7200  144.3750 O   0  0  0  0  0  0  0  0  0  0  0  0
  183.7770  179.0200  144.9410 C   0  0  0  0  0  0  0  0  0  0  0  0
  183.9320  178.9390  146.1890 O   0  0  0  0  0  1  0  0  0  0  0  0
  1 19  1  6  0  0  0
  4  1  1  6  0  0  0
  4  8  1  0  0  0  0
  4  9  1  0  0  0  0
  5  3  1  0  0  0  0
  5  2  1  0  0  0  0
  6  2  2  0  0  0  0
  7  9  2  0  0  0  0
  8  5  2  0  0  0  0
  9  6  1  0  0  0  0
 10  1  1  0  0  0  0
 10 11  1  1  0  0  0
 12 10  1  0  0  0  0
 13 12  1  0  0  0  0
 14 15  1  6  0  0  0
 14 13  1  0  0  0  0
 16 14  1  0  0  0  0
 17 18  1  0  0  0  0
 18 16  1  0  0  0  0
 19 20  1  0  0  0  0
 21 20  1  0  0  0  0
 22 21  1  0  0  0  0
 23 24  1  6  0  0  0
 23 22  1  0  0  0  0
 23 25  1  0  0  0  0
 25 27  1  0  0  0  0
 26 27  2  0  0  0  0
 27 28  1  0  0  0  0
M  END
>  <MODEL>
8

>  <REMARK>
 VINA RESULT:      -6.1      2.890      7.020
  Name = 
  14 active torsions:
  status: ('A' for Active; 'I' for Inactive)
    1  A    between atoms: C_4  and  C_20
    2  A    between atoms: C_4  and  C_21
    3  A    between atoms: C_6  and  C_14
    4  A    between atoms: C_6  and  C_24
    5  A    between atoms: C_7  and  C_21
    6  A    between atoms: C_9  and  C_16
    7  A    between atoms: C_9  and  C_20
    8  A    between atoms: N_10  and  O_13
    9  A    between atoms: N_10  and  C_27
   10  A    between atoms: C_11  and  O_19
   11  A    between atoms: O_13  and  C_24
   12  A    between atoms: C_16  and  O_19
   13  A    between atoms: C_21  and  C_23
   14  A    between atoms: C_23  and  C_27
                            x       y       z     vdW  Elec       q    Type
                         _______ _______ _______ _____ _____    ______ ____

>  <TORSDO>
F 14

$$$$
=
 OpenBabel11032420153D

 28 28  0  0  1  0  0  0  0  0999 V2000
  186.9070  178.4140  143.3090 C   0  0  1  0  0  3  0  0  0  0  0  0
  182.7020  178.9990  143.9050 C   0  0  0  0  0  3  0  0  0  0  0  0
  182.0380  178.4080  141.3200 Cl  0  0  0  0  0  0  0  0  0  0  0  0
  185.4280  178.6140  143.5090 C   0  0  2  0  0  3  0  0  0  0  0  0
  183.1640  178.6280  142.6430 C   0  0  0  0  0  0  0  0  0  0  0  0
  183.5810  179.1730  144.9290 N   0  0  0  0  0  0  0  0  0  0  0  0
  185.6930  179.1640  145.7430 O   0  0  0  0  0  0  0  0  0  0  0  0
  184.5320  178.4400  142.4440 C   0  0  0  0  0  3  0  0  0  0  0  0
  184.9200  178.9900  144.7630 C   0  0  0  0  0  0  0  0  0  0  0  0
  187.4650  177.3160  144.2340 C   0  0  1  0  0  3  0  0  0  0  0  0
  187.9140  176.0750  143.4670 C   0  0  0  0  0  1  0  0  0  0  0  0
  188.5940  177.8640  145.0990 C   0  0  0  0  0  2  0  0  0  0  0  0
  188.7790  177.0390  146.3650 C   0  0  0  0  0  2  0  0  0  0  0  0
  189.1260  177.9230  147.5540 C   0  0  1  0  0  3  0  0  0  0  0  0
  188.0630  177.8600  148.5440 N   0  0  0  0  0  1  0  0  0  0  0  0
  190.3220  177.4820  148.1250 O   0  0  0  0  0  0  0  0  0  0  0  0
  192.1490  176.0080  147.7090 C   0  0  0  0  0  1  0  0  0  0  0  0
  190.9230  176.6980  147.1380 C   0  0  0  0  0  2  0  0  0  0  0  0
  187.2360  178.2290  141.8260 C   0  0  0  0  0  2  0  0  0  0  0  0
  188.6640  178.6570  141.5260 C   0  0  0  0  0  2  0  0  0  0  0  0
  189.3960  177.5830  140.8680 N   0  0  0  0  0  2  0  0  0  0  0  0
  188.6470  177.1680  139.8160 O   0  0  0  0  0  0  0  0  0  0  0  0
  189.5740  176.7880  138.8430 C   0  0  2  0  0  3  0  0  0  0  0  0
  190.8780  177.3310  139.1880 N   0  0  0  0  0  1  0  0  0  0  0  0
  189.1340  177.3200  137.4860 C   0  0  0  0  0  2  0  0  0  0  0  0
  187.0200  178.6410  137.5850 O   0  0  0  0  0  0  0  0  0  0  0  0
  188.4070  178.6140  137.6310 C   0  0  0  0  0  0  0  0  0  0  0  0
  189.0520  179.6860  137.7790 O   0  0  0  0  0  1  0  0  0  0  0  0
  1 19  1  6  0  0  0
  1 10  1  0  0  0  0
  2  6  2  0  0  0  0
  3  5  1  0  0  0  0
  4  1  1  6  0  0  0
  4  9  1  0  0  0  0
  5  2  1  0  0  0  0
  8  5  2  0  0  0  0
  8  4  1  0  0  0  0
  9  6  1  0  0  0  0
  9  7  2  0  0  0  0
 10 11  1  6  0  0  0
 10 12  1  0  0  0  0
 12 13  1  0  0  0  0
 13 14  1  0  0  0  0
 14 16  1  0  0  0  0
 14 15  1  1  0  0  0
 18 17  1  0  0  0  0
 18 16  1  0  0  0  0
 20 19  1  0  0  0  0
 21 20  1  0  0  0  0
 22 21  1  0  0  0  0
 23 24  1  1  0  0  0
 23 22  1  0  0  0  0
 25 27  1  0  0  0  0
 25 23  1  0  0  0  0
 26 27  2  0  0  0  0
 27 28  1  0  0  0  0
M  END
>  <MODEL>
9

>  <REMARK>
 VINA RESULT:      -6.0      2.731      6.766
  Name = 
  14 active torsions:
  status: ('A' for Active; 'I' for Inactive)
    1  A    between atoms: C_4  and  C_20
    2  A    between atoms: C_4  and  C_21
    3  A    between atoms: C_6  and  C_14
    4  A    between atoms: C_6  and  C_24
    5  A    between atoms: C_7  and  C_21
    6  A    between atoms: C_9  and  C_16
    7  A    between atoms: C_9  and  C_20
    8  A    between atoms: N_10  and  O_13
    9  A    between atoms: N_10  and  C_27
   10  A    between atoms: C_11  and  O_19
   11  A    between atoms: O_13  and  C_24
   12  A    between atoms: C_16  and  O_19
   13  A    between atoms: C_21  and  C_23
   14  A    between atoms: C_23  and  C_27
                            x       y       z     vdW  Elec       q    Type
                         _______ _______ _______ _____ _____    ______ ____

>  <TORSDO>
F 14

$$$$
