=
 OpenBabel11032421153D

 50 54  0  0  1  0  0  0  0  0999 V2000
  187.5500  176.9550  137.6710 N   0  0  0  0  0  0  0  0  0  0  0  0
  185.5560  178.0240  138.2600 C   0  0  0  0  0  0  0  0  0  0  0  0
  186.8790  177.6990  138.6420 N   0  0  0  0  0  0  0  0  0  0  0  0
  184.6850  178.6690  139.0580 C   0  0  1  0  0  3  0  0  0  0  0  0
  186.7700  176.6310  136.4820 C   0  0  0  0  0  2  0  0  0  0  0  0
  185.1300  177.4420  136.6210 S   0  0  0  0  0  0  0  0  0  0  0  0
  191.8240  176.3240  137.8470 C   0  0  1  0  0  3  0  0  0  0  0  0
  190.9780  175.8280  136.6970 C   0  0  0  0  0  0  0  0  0  0  0  0
  191.0090  176.4430  139.1520 C   0  0  1  0  0  3  0  0  0  0  0  0
  191.4800  175.6680  135.5950 O   0  0  0  0  0  0  0  0  0  0  0  0
  188.8990  176.5070  137.8580 C   0  0  0  0  0  0  0  0  0  0  0  0
  189.5160  175.5360  136.8870 C   0  0  0  0  0  2  0  0  0  0  0  0
  191.6970  177.3690  140.1360 C   0  0  0  0  0  1  0  0  0  0  0  0
  189.6110  176.9330  138.9090 C   0  0  0  0  0  3  0  0  0  0  0  0
  193.0000  175.3790  138.0580 C   0  0  0  0  0  2  0  0  0  0  0  0
  194.1870  175.9930  137.6550 O   0  0  0  0  0  0  0  0  0  0  0  0
  197.1800  175.2360  135.5700 S   0  0  0  0  0  0  0  0  0  0  0  0
  194.9250  174.9790  137.0400 C   0  0  2  0  0  3  0  0  0  0  0  0
  196.1440  174.6530  137.8900 C   0  0  1  0  0  3  0  0  0  0  0  0
  195.3840  175.4460  135.6710 C   0  0  2  0  0  3  0  0  0  0  0  0
  196.3450  173.1500  137.9600 C   0  0  0  0  0  1  0  0  0  0  0  0
  197.3260  175.2950  137.3310 N   0  0  0  0  0  2  0  0  0  0  0  0
  194.7120  174.6120  134.5960 C   0  0  0  0  0  1  0  0  0  0  0  0
  183.3660  178.9210  138.5510 N   0  0  0  0  0  0  0  0  0  0  0  0
  182.2960  178.3830  139.0440 C   0  0  0  0  0  3  0  0  0  0  0  0
  180.9580  178.6960  138.4670 C   0  0  0  0  0  2  0  0  0  0  0  0
  180.5210  180.7460  139.4160 N   0  0  0  0  0  2  0  0  0  0  0  0
  179.1020  180.8400  141.4650 C   0  0  0  0  0  2  0  0  0  0  0  0
  180.1380  179.3910  139.4470 N   0  0  0  0  0  0  0  0  0  0  0  0
  179.5200  181.5260  140.1530 C   0  0  0  0  0  2  0  0  0  0  0  0
  180.4970  178.8430  140.7590 C   0  0  0  0  0  2  0  0  0  0  0  0
  180.1350  179.8040  141.9030 C   0  0  2  0  0  3  0  0  0  0  0  0
  179.6560  179.0480  143.0990 C   0  0  0  0  0  0  0  0  0  0  0  0
  179.2340  179.6590  144.1170 O   0  0  0  0  0  1  0  0  0  0  0  0
  179.6840  177.6610  143.0900 O   0  0  0  0  0  0  0  0  0  0  0  0
  184.6190  178.5480  141.5620 C   0  0  0  0  0  3  0  0  0  0  0  0
  185.0210  179.1280  140.4340 C   0  0  0  0  0  3  0  0  0  0  0  0
  185.0220  179.1030  142.8830 C   0  0  0  0  0  2  0  0  0  0  0  0
  185.4950  178.0310  143.7520 N   0  0  0  0  0  2  0  0  0  0  0  0
  185.2400  178.3730  145.1510 C   0  0  2  0  0  3  0  0  0  0  0  0
  184.4530  179.5240  145.2420 O   0  0  0  0  0  1  0  0  0  0  0  0
  186.4400  178.5540  145.8460 O   0  0  0  0  0  0  0  0  0  0  0  0
  187.2900  177.5600  145.3580 C   0  0  0  0  0  2  0  0  0  0  0  0
  188.5640  178.0910  145.1520 O   0  0  0  0  0  0  0  0  0  0  0  0
  189.3430  177.0060  144.7360 C   0  0  2  0  0  3  0  0  0  0  0  0
  190.6820  177.5320  144.1820 C   0  0  0  0  0  0  0  0  0  0  0  0
  188.9090  178.0440  142.4130 C   0  0  0  0  0  1  0  0  0  0  0  0
  189.5490  177.0000  143.3160 C   0  0  2  0  0  0  0  0  0  0  0  0
  189.8430  175.7570  142.7560 O   0  0  0  0  0  1  0  0  0  0  0  0
  191.7930  178.0150  144.3270 O   0  0  0  0  0  0  0  0  0  0  0  0
  1 11  1  0  0  0  0
  1  3  1  0  0  0  0
  2  3  2  0  0  0  0
  2  4  1  0  0  0  0
  4 37  1  1  0  0  0
  5  6  1  0  0  0  0
  5  1  1  0  0  0  0
  6  2  1  0  0  0  0
  7 15  1  1  0  0  0
  7  9  1  0  0  0  0
  8 12  1  0  0  0  0
  8  7  1  0  0  0  0
  9 13  1  1  0  0  0
 10  8  2  0  0  0  0
 11 14  2  0  0  0  0
 12 11  1  0  0  0  0
 14  9  1  0  0  0  0
 16 15  1  0  0  0  0
 17 20  1  0  0  0  0
 17 22  1  0  0  0  0
 18 16  1  1  0  0  0
 18 19  1  0  0  0  0
 19 21  1  6  0  0  0
 20 23  1  6  0  0  0
 20 18  1  0  0  0  0
 22 19  1  0  0  0  0
 24 25  2  0  0  0  0
 24  4  1  0  0  0  0
 26 25  1  0  0  0  0
 26 29  1  0  0  0  0
 27 29  1  0  0  0  0
 27 30  1  0  0  0  0
 28 32  1  0  0  0  0
 29 31  1  0  0  0  0
 30 28  1  0  0  0  0
 31 32  1  0  0  0  0
 32 33  1  1  0  0  0
 33 34  1  0  0  0  0
 35 33  2  0  0  0  0
 36 38  1  0  0  0  0
 37 36  2  0  0  0  0
 38 39  1  0  0  0  0
 39 40  1  0  0  0  0
 40 41  1  6  0  0  0
 40 42  1  0  0  0  0
 43 42  1  0  0  0  0
 44 43  1  0  0  0  0
 45 44  1  6  0  0  0
 46 50  2  0  0  0  0
 46 45  1  0  0  0  0
 48 47  1  6  0  0  0
 48 46  1  0  0  0  0
 48 45  1  0  0  0  0
 49 48  1  0  0  0  0
M  END
>  <MODEL>
1

>  <REMARK>
 VINA RESULT:      -7.5      0.000      0.000
  Name = 
  16 active torsions:
  status: ('A' for Active; 'I' for Inactive)
    1  A    between atoms: C_1  and  C_11
    2  A    between atoms: N_2  and  C_25
    3  A    between atoms: N_4  and  C_5
    4  A    between atoms: N_4  and  C_18
    5  A    between atoms: C_5  and  O_29
    6  A    between atoms: C_6  and  O_39
    7  A    between atoms: C_7  and  C_18
    8  A    between atoms: N_8  and  C_40
    9  A    between atoms: C_11  and  O_48
   10  A    between atoms: C_13  and  C_45
   11  A    between atoms: C_16  and  O_29
   12  A    between atoms: C_16  and  O_39
   13  A    between atoms: C_19  and  C_25
   14  A    between atoms: C_22  and  O_48
   15  A    between atoms: C_23  and  N_32
   16  A    between atoms: C_23  and  C_43
                            x       y       z     vdW  Elec       q    Type
                         _______ _______ _______ _____ _____    ______ ____

>  <TORSDO>
F 16

$$$$
=
 OpenBabel11032421153D

 50 54  0  0  1  0  0  0  0  0999 V2000
  187.0080  177.7360  137.9240 N   0  0  0  0  0  0  0  0  0  0  0  0
  185.0300  178.3540  139.0040 C   0  0  0  0  0  0  0  0  0  0  0  0
  186.4350  178.2280  139.0970 N   0  0  0  0  0  0  0  0  0  0  0  0
  184.2440  178.7330  140.0300 C   0  0  1  0  0  3  0  0  0  0  0  0
  186.0680  177.4200  136.8540 C   0  0  0  0  0  2  0  0  0  0  0  0
  184.3830  177.9030  137.3970 S   0  0  0  0  0  0  0  0  0  0  0  0
  191.0840  176.2960  137.8360 C   0  0  1  0  0  3  0  0  0  0  0  0
  190.4900  176.9740  139.0490 C   0  0  0  0  0  0  0  0  0  0  0  0
  190.4000  176.7490  136.5300 C   0  0  1  0  0  3  0  0  0  0  0  0
  190.9310  176.7310  140.1610 O   0  0  0  0  0  0  0  0  0  0  0  0
  188.4200  177.5160  137.8030 C   0  0  0  0  0  0  0  0  0  0  0  0
  189.3500  177.9430  138.9080 C   0  0  0  0  0  2  0  0  0  0  0  0
  190.6420  175.7480  135.4170 C   0  0  0  0  0  1  0  0  0  0  0  0
  188.9220  176.9490  136.6990 C   0  0  0  0  0  3  0  0  0  0  0  0
  192.5760  176.5930  137.7680 C   0  0  0  0  0  2  0  0  0  0  0  0
  193.3090  175.4490  138.0890 O   0  0  0  0  0  0  0  0  0  0  0  0
  195.9830  173.8030  136.0840 S   0  0  0  0  0  0  0  0  0  0  0  0
  193.6200  174.8650  136.8590 C   0  0  2  0  0  3  0  0  0  0  0  0
  193.5820  173.3510  136.9930 C   0  0  1  0  0  3  0  0  0  0  0  0
  195.0120  175.2910  136.4330 C   0  0  2  0  0  3  0  0  0  0  0  0
  192.8950  172.7350  135.7870 C   0  0  0  0  0  1  0  0  0  0  0  0
  194.9350  172.8290  137.1230 N   0  0  0  0  0  2  0  0  0  0  0  0
  194.9240  176.1470  135.1820 C   0  0  0  0  0  1  0  0  0  0  0  0
  182.8290  178.8030  139.8040 N   0  0  0  0  0  0  0  0  0  0  0  0
  182.2100  179.8940  139.4840 C   0  0  0  0  0  3  0  0  0  0  0  0
  180.7350  179.8880  139.2600 C   0  0  0  0  0  2  0  0  0  0  0  0
  180.8520  180.0950  136.9710 N   0  0  0  0  0  2  0  0  0  0  0  0
  180.2980  182.2950  135.9360 C   0  0  0  0  0  2  0  0  0  0  0  0
  180.3940  180.7440  138.1340 N   0  0  0  0  0  0  0  0  0  0  0  0
  180.2610  180.7630  135.8060 C   0  0  0  0  0  2  0  0  0  0  0  0
  181.1630  181.9820  138.3000 C   0  0  0  0  0  2  0  0  0  0  0  0
  181.3290  182.7400  136.9720 C   0  0  2  0  0  3  0  0  0  0  0  0
  181.2610  184.2150  137.1910 C   0  0  0  0  0  0  0  0  0  0  0  0
  182.2680  184.8480  137.6080 O   0  0  0  0  0  1  0  0  0  0  0  0
  180.0770  184.8930  136.9380 O   0  0  0  0  0  0  0  0  0  0  0  0
  184.3220  178.5900  142.5320 C   0  0  0  0  0  3  0  0  0  0  0  0
  184.7710  179.0790  141.3790 C   0  0  0  0  0  3  0  0  0  0  0  0
  184.9320  179.0150  143.8220 C   0  0  0  0  0  2  0  0  0  0  0  0
  185.6210  177.8880  144.4430 N   0  0  0  0  0  2  0  0  0  0  0  0
  185.7310  178.1040  145.8860 C   0  0  2  0  0  3  0  0  0  0  0  0
  184.6550  178.8640  146.3540 O   0  0  0  0  0  1  0  0  0  0  0  0
  186.9380  178.7340  146.2040 O   0  0  0  0  0  0  0  0  0  0  0  0
  187.8420  177.6900  146.4100 C   0  0  0  0  0  2  0  0  0  0  0  0
  189.1240  178.1010  146.0410 O   0  0  0  0  0  0  0  0  0  0  0  0
  189.7080  176.9730  145.4530 C   0  0  2  0  0  3  0  0  0  0  0  0
  191.1960  176.9120  145.8520 C   0  0  0  0  0  0  0  0  0  0  0  0
  190.9820  178.7720  144.1120 C   0  0  0  0  0  1  0  0  0  0  0  0
  190.6960  177.3220  144.4740 C   0  0  2  0  0  0  0  0  0  0  0  0
  190.9500  176.3550  143.5030 O   0  0  0  0  0  1  0  0  0  0  0  0
  192.0880  176.7040  146.6570 O   0  0  0  0  0  0  0  0  0  0  0  0
  1  3  1  0  0  0  0
  2  3  2  0  0  0  0
  2  4  1  0  0  0  0
  4 37  1  1  0  0  0
  5  6  1  0  0  0  0
  5  1  1  0  0  0  0
  6  2  1  0  0  0  0
  7 15  1  6  0  0  0
  7  8  1  0  0  0  0
  8 10  2  0  0  0  0
  9 13  1  6  0  0  0
  9 14  1  0  0  0  0
  9  7  1  0  0  0  0
 11  1  1  0  0  0  0
 11 12  1  0  0  0  0
 12  8  1  0  0  0  0
 14 11  2  0  0  0  0
 15 16  1  0  0  0  0
 17 20  1  0  0  0  0
 17 22  1  0  0  0  0
 18 19  1  0  0  0  0
 18 16  1  1  0  0  0
 19 21  1  6  0  0  0
 19 22  1  0  0  0  0
 20 23  1  6  0  0  0
 20 18  1  0  0  0  0
 24  4  1  0  0  0  0
 25 24  2  0  0  0  0
 26 25  1  0  0  0  0
 27 29  1  0  0  0  0
 28 32  1  0  0  0  0
 29 31  1  0  0  0  0
 29 26  1  0  0  0  0
 30 28  1  0  0  0  0
 30 27  1  0  0  0  0
 32 33  1  1  0  0  0
 32 31  1  0  0  0  0
 33 34  1  0  0  0  0
 35 33  2  0  0  0  0
 36 38  1  0  0  0  0
 37 36  2  0  0  0  0
 38 39  1  0  0  0  0
 39 40  1  0  0  0  0
 40 42  1  0  0  0  0
 40 41  1  6  0  0  0
 42 43  1  0  0  0  0
 44 43  1  0  0  0  0
 45 46  1  0  0  0  0
 45 44  1  1  0  0  0
 46 50  2  0  0  0  0
 48 47  1  6  0  0  0
 48 45  1  0  0  0  0
 48 46  1  0  0  0  0
 49 48  1  0  0  0  0
M  END
>  <MODEL>
2

>  <REMARK>
 VINA RESULT:      -7.4      2.539      3.234
  Name = 
  16 active torsions:
  status: ('A' for Active; 'I' for Inactive)
    1  A    between atoms: C_1  and  C_11
    2  A    between atoms: N_2  and  C_25
    3  A    between atoms: N_4  and  C_5
    4  A    between atoms: N_4  and  C_18
    5  A    between atoms: C_5  and  O_29
    6  A    between atoms: C_6  and  O_39
    7  A    between atoms: C_7  and  C_18
    8  A    between atoms: N_8  and  C_40
    9  A    between atoms: C_11  and  O_48
   10  A    between atoms: C_13  and  C_45
   11  A    between atoms: C_16  and  O_29
   12  A    between atoms: C_16  and  O_39
   13  A    between atoms: C_19  and  C_25
   14  A    between atoms: C_22  and  O_48
   15  A    between atoms: C_23  and  N_32
   16  A    between atoms: C_23  and  C_43
                            x       y       z     vdW  Elec       q    Type
                         _______ _______ _______ _____ _____    ______ ____

>  <TORSDO>
F 16

$$$$
=
 OpenBabel11032421153D

 50 54  0  0  1  0  0  0  0  0999 V2000
  183.8260  178.5720  142.9580 N   0  0  0  0  0  0  0  0  0  0  0  0
  182.3990  178.5250  141.1080 C   0  0  0  0  0  0  0  0  0  0  0  0
  183.6610  178.1620  141.6340 N   0  0  0  0  0  0  0  0  0  0  0  0
  182.0330  178.3090  139.8300 C   0  0  1  0  0  3  0  0  0  0  0  0
  182.7060  179.3110  143.5290 C   0  0  0  0  0  2  0  0  0  0  0  0
  181.3480  179.3570  142.2950 S   0  0  0  0  0  0  0  0  0  0  0  0
  187.0790  177.1130  145.4040 C   0  0  1  0  0  3  0  0  0  0  0  0
  186.0150  178.0420  145.9410 C   0  0  0  0  0  0  0  0  0  0  0  0
  187.2750  177.2800  143.8830 C   0  0  1  0  0  3  0  0  0  0  0  0
  185.7490  178.0390  147.1330 O   0  0  0  0  0  0  0  0  0  0  0  0
  185.0380  178.3200  143.6830 C   0  0  0  0  0  0  0  0  0  0  0  0
  185.2670  178.9670  145.0230 C   0  0  0  0  0  2  0  0  0  0  0  0
  187.9520  176.0600  143.2880 C   0  0  0  0  0  1  0  0  0  0  0  0
  185.9800  177.5230  143.1640 C   0  0  0  0  0  3  0  0  0  0  0  0
  188.3950  177.3760  146.1260 C   0  0  0  0  0  2  0  0  0  0  0  0
  188.9360  178.5930  145.7090 O   0  0  0  0  0  0  0  0  0  0  0  0
  191.4800  176.2370  144.3490 S   0  0  0  0  0  0  0  0  0  0  0  0
  190.3030  178.3470  145.5630 C   0  0  2  0  0  3  0  0  0  0  0  0
  190.7390  178.7290  144.1570 C   0  0  1  0  0  3  0  0  0  0  0  0
  190.5780  176.8710  145.7850 C   0  0  2  0  0  3  0  0  0  0  0  0
  192.0680  179.4610  144.2020 C   0  0  0  0  0  1  0  0  0  0  0  0
  190.8490  177.5360  143.3290 N   0  0  0  0  0  2  0  0  0  0  0  0
  191.4190  176.6910  147.0350 C   0  0  0  0  0  1  0  0  0  0  0  0
  180.7280  178.7440  139.4200 N   0  0  0  0  0  0  0  0  0  0  0  0
  180.5000  179.3730  138.3120 C   0  0  0  0  0  3  0  0  0  0  0  0
  179.1140  179.7900  137.9510 C   0  0  0  0  0  2  0  0  0  0  0  0
  179.6140  180.5040  135.8220 N   0  0  0  0  0  2  0  0  0  0  0  0
  179.7410  182.9550  135.3780 C   0  0  0  0  0  2  0  0  0  0  0  0
  179.1510  180.9500  137.0750 N   0  0  0  0  0  0  0  0  0  0  0  0
  179.3720  181.5630  134.8360 C   0  0  0  0  0  2  0  0  0  0  0  0
  180.1500  181.8670  137.6330 C   0  0  0  0  0  2  0  0  0  0  0  0
  180.6810  182.8520  136.5780 C   0  0  2  0  0  3  0  0  0  0  0  0
  180.9230  184.1950  137.1810 C   0  0  0  0  0  0  0  0  0  0  0  0
  182.0970  184.6260  137.3380 O   0  0  0  0  0  0  0  0  0  0  0  0
  179.8450  184.9740  137.5780 O   0  0  0  0  0  1  0  0  0  0  0  0
  183.9320  178.2220  138.1940 C   0  0  0  0  0  3  0  0  0  0  0  0
  182.9130  177.6470  138.8270 C   0  0  0  0  0  3  0  0  0  0  0  0
  184.7410  177.4530  137.2090 C   0  0  0  0  0  2  0  0  0  0  0  0
  186.1050  177.2920  137.7000 N   0  0  0  0  0  2  0  0  0  0  0  0
  186.8550  178.5320  137.5050 C   0  0  2  0  0  3  0  0  0  0  0  0
  187.3550  178.6070  136.2020 O   0  0  0  0  0  1  0  0  0  0  0  0
  187.9030  178.6300  138.4270 O   0  0  0  0  0  0  0  0  0  0  0  0
  189.0450  178.2660  137.7110 C   0  0  0  0  0  2  0  0  0  0  0  0
  189.4740  177.0030  138.1230 O   0  0  0  0  0  0  0  0  0  0  0  0
  190.0000  176.4080  136.9720 C   0  0  2  0  0  3  0  0  0  0  0  0
  190.4120  174.9590  137.2970 C   0  0  0  0  0  0  0  0  0  0  0  0
  192.1730  176.4750  138.3620 C   0  0  0  0  0  1  0  0  0  0  0  0
  191.3960  176.1050  137.1080 C   0  0  2  0  0  0  0  0  0  0  0  0
  192.1100  176.0050  135.9150 O   0  0  0  0  0  1  0  0  0  0  0  0
  190.1500  173.7920  137.5360 O   0  0  0  0  0  0  0  0  0  0  0  0
  1  5  1  0  0  0  0
  1 11  1  0  0  0  0
  2  3  2  0  0  0  0
  2  6  1  0  0  0  0
  3  1  1  0  0  0  0
  4 37  1  6  0  0  0
  4  2  1  0  0  0  0
  6  5  1  0  0  0  0
  7  8  1  0  0  0  0
  7 15  1  1  0  0  0
  8 10  2  0  0  0  0
  9 13  1  6  0  0  0
  9  7  1  0  0  0  0
 11 12  1  0  0  0  0
 12  8  1  0  0  0  0
 14 11  2  0  0  0  0
 14  9  1  0  0  0  0
 16 15  1  0  0  0  0
 17 20  1  0  0  0  0
 18 16  1  6  0  0  0
 18 20  1  0  0  0  0
 19 21  1  1  0  0  0
 19 18  1  0  0  0  0
 20 23  1  1  0  0  0
 22 19  1  0  0  0  0
 22 17  1  0  0  0  0
 24  4  1  0  0  0  0
 25 24  2  0  0  0  0
 26 25  1  0  0  0  0
 27 29  1  0  0  0  0
 28 32  1  0  0  0  0
 29 31  1  0  0  0  0
 29 26  1  0  0  0  0
 30 28  1  0  0  0  0
 30 27  1  0  0  0  0
 32 33  1  1  0  0  0
 32 31  1  0  0  0  0
 33 34  2  0  0  0  0
 33 35  1  0  0  0  0
 36 37  2  0  0  0  0
 38 39  1  0  0  0  0
 38 36  1  0  0  0  0
 40 41  1  6  0  0  0
 40 39  1  0  0  0  0
 40 42  1  0  0  0  0
 43 44  1  0  0  0  0
 43 42  1  0  0  0  0
 45 48  1  0  0  0  0
 45 46  1  0  0  0  0
 45 44  1  1  0  0  0
 46 50  2  0  0  0  0
 48 46  1  0  0  0  0
 48 47  1  1  0  0  0
 49 48  1  0  0  0  0
M  END
>  <MODEL>
3

>  <REMARK>
 VINA RESULT:      -7.4      3.486      7.624
  Name = 
  16 active torsions:
  status: ('A' for Active; 'I' for Inactive)
    1  A    between atoms: C_1  and  C_11
    2  A    between atoms: N_2  and  C_25
    3  A    between atoms: N_4  and  C_5
    4  A    between atoms: N_4  and  C_18
    5  A    between atoms: C_5  and  O_29
    6  A    between atoms: C_6  and  O_39
    7  A    between atoms: C_7  and  C_18
    8  A    between atoms: N_8  and  C_40
    9  A    between atoms: C_11  and  O_48
   10  A    between atoms: C_13  and  C_45
   11  A    between atoms: C_16  and  O_29
   12  A    between atoms: C_16  and  O_39
   13  A    between atoms: C_19  and  C_25
   14  A    between atoms: C_22  and  O_48
   15  A    between atoms: C_23  and  N_32
   16  A    between atoms: C_23  and  C_43
                            x       y       z     vdW  Elec       q    Type
                         _______ _______ _______ _____ _____    ______ ____

>  <TORSDO>
F 16

$$$$
=
 OpenBabel11032421153D

 50 54  0  0  1  0  0  0  0  0999 V2000
  187.2160  177.2220  137.4070 N   0  0  0  0  0  0  0  0  0  0  0  0
  185.2180  178.1350  138.2070 C   0  0  0  0  0  0  0  0  0  0  0  0
  186.5890  177.8940  138.4580 N   0  0  0  0  0  0  0  0  0  0  0  0
  184.3840  178.6980  139.1010 C   0  0  1  0  0  3  0  0  0  0  0  0
  186.3520  176.8730  136.2850 C   0  0  0  0  0  2  0  0  0  0  0  0
  184.6810  177.5640  136.5970 S   0  0  0  0  0  0  0  0  0  0  0  0
  191.1180  175.4320  137.9170 C   0  0  1  0  0  3  0  0  0  0  0  0
  190.4960  176.3310  138.9610 C   0  0  0  0  0  0  0  0  0  0  0  0
  190.5960  175.7470  136.5010 C   0  0  1  0  0  3  0  0  0  0  0  0
  190.8160  176.2150  140.1340 O   0  0  0  0  0  0  0  0  0  0  0  0
  188.6040  176.8640  137.4560 C   0  0  0  0  0  0  0  0  0  0  0  0
  189.4760  177.3650  138.5770 C   0  0  0  0  0  2  0  0  0  0  0  0
  190.8280  174.5760  135.5660 C   0  0  0  0  0  1  0  0  0  0  0  0
  189.1360  176.0980  136.4950 C   0  0  0  0  0  3  0  0  0  0  0  0
  192.6340  175.5840  137.9540 C   0  0  0  0  0  2  0  0  0  0  0  0
  193.2450  174.3460  137.7440 O   0  0  0  0  0  0  0  0  0  0  0  0
  196.6740  172.9010  137.5640 S   0  0  0  0  0  0  0  0  0  0  0  0
  194.6020  174.6380  137.5890 C   0  0  2  0  0  3  0  0  0  0  0  0
  195.0220  174.3460  136.1570 C   0  0  1  0  0  3  0  0  0  0  0  0
  195.4180  173.7740  138.5330 C   0  0  2  0  0  3  0  0  0  0  0  0
  195.9270  175.4510  135.6410 C   0  0  0  0  0  1  0  0  0  0  0  0
  195.7080  173.0630  136.0920 N   0  0  0  0  0  2  0  0  0  0  0  0
  196.0930  174.6500  139.5720 C   0  0  0  0  0  1  0  0  0  0  0  0
  183.0090  178.8690  138.7250 N   0  0  0  0  0  0  0  0  0  0  0  0
  182.0370  178.1860  139.2390 C   0  0  0  0  0  3  0  0  0  0  0  0
  180.6320  178.4240  138.8000 C   0  0  0  0  0  2  0  0  0  0  0  0
  180.3490  180.4860  139.7810 N   0  0  0  0  0  2  0  0  0  0  0  0
  179.0490  180.6360  141.9040 C   0  0  0  0  0  2  0  0  0  0  0  0
  179.9020  179.1510  139.8260 N   0  0  0  0  0  0  0  0  0  0  0  0
  179.4290  181.3090  140.5740 C   0  0  0  0  0  2  0  0  0  0  0  0
  180.3030  178.5770  141.1150 C   0  0  0  0  0  2  0  0  0  0  0  0
  180.0510  179.5470  142.2810 C   0  0  2  0  0  3  0  0  0  0  0  0
  179.6010  178.8080  143.4970 C   0  0  0  0  0  0  0  0  0  0  0  0
  179.6570  177.5500  143.5410 O   0  0  0  0  0  0  0  0  0  0  0  0
  179.1100  179.5130  144.5870 O   0  0  0  0  0  1  0  0  0  0  0  0
  184.4500  178.5870  141.6060 C   0  0  0  0  0  3  0  0  0  0  0  0
  184.8150  179.1460  140.4540 C   0  0  0  0  0  3  0  0  0  0  0  0
  184.9490  179.1280  142.9000 C   0  0  0  0  0  2  0  0  0  0  0  0
  184.1500  178.6030  144.0020 N   0  0  0  0  0  2  0  0  0  0  0  0
  185.0100  178.3220  145.1510 C   0  0  2  0  0  3  0  0  0  0  0  0
  184.6570  179.1260  146.2390 O   0  0  0  0  0  1  0  0  0  0  0  0
  186.3560  178.5180  144.8260 O   0  0  0  0  0  0  0  0  0  0  0  0
  187.0640  177.7630  145.7630 C   0  0  0  0  0  2  0  0  0  0  0  0
  188.3270  177.4520  145.2570 O   0  0  0  0  0  0  0  0  0  0  0  0
  188.1470  177.3590  143.8720 C   0  0  2  0  0  3  0  0  0  0  0  0
  189.2430  176.4500  143.2820 C   0  0  0  0  0  0  0  0  0  0  0  0
  190.3680  178.6730  143.8550 C   0  0  0  0  0  1  0  0  0  0  0  0
  189.2240  177.9650  143.1440 C   0  0  2  0  0  0  0  0  0  0  0  0
  188.9170  178.3800  141.8490 O   0  0  0  0  0  1  0  0  0  0  0  0
  189.7460  175.3560  143.0880 O   0  0  0  0  0  0  0  0  0  0  0  0
  1 11  1  0  0  0  0
  1  3  1  0  0  0  0
  2  3  2  0  0  0  0
  2  4  1  0  0  0  0
  4 37  1  1  0  0  0
  5  6  1  0  0  0  0
  5  1  1  0  0  0  0
  6  2  1  0  0  0  0
  7 15  1  6  0  0  0
  7  8  1  0  0  0  0
  8 10  2  0  0  0  0
  9 13  1  6  0  0  0
  9  7  1  0  0  0  0
 11 12  1  0  0  0  0
 12  8  1  0  0  0  0
 14  9  1  0  0  0  0
 14 11  2  0  0  0  0
 16 15  1  0  0  0  0
 17 20  1  0  0  0  0
 18 16  1  6  0  0  0
 18 20  1  0  0  0  0
 19 21  1  1  0  0  0
 19 18  1  0  0  0  0
 20 23  1  1  0  0  0
 22 19  1  0  0  0  0
 22 17  1  0  0  0  0
 24  4  1  0  0  0  0
 24 25  2  0  0  0  0
 26 25  1  0  0  0  0
 26 29  1  0  0  0  0
 27 29  1  0  0  0  0
 27 30  1  0  0  0  0
 28 32  1  0  0  0  0
 29 31  1  0  0  0  0
 30 28  1  0  0  0  0
 31 32  1  0  0  0  0
 32 33  1  1  0  0  0
 33 34  2  0  0  0  0
 33 35  1  0  0  0  0
 36 38  1  0  0  0  0
 37 36  2  0  0  0  0
 38 39  1  0  0  0  0
 39 40  1  0  0  0  0
 40 41  1  1  0  0  0
 42 40  1  0  0  0  0
 42 43  1  0  0  0  0
 44 43  1  0  0  0  0
 45 44  1  1  0  0  0
 46 45  1  0  0  0  0
 48 46  1  0  0  0  0
 48 47  1  1  0  0  0
 48 45  1  0  0  0  0
 49 48  1  0  0  0  0
 50 46  2  0  0  0  0
M  END
>  <MODEL>
4

>  <REMARK>
 VINA RESULT:      -7.2      1.207      2.038
  Name = 
  16 active torsions:
  status: ('A' for Active; 'I' for Inactive)
    1  A    between atoms: C_1  and  C_11
    2  A    between atoms: N_2  and  C_25
    3  A    between atoms: N_4  and  C_5
    4  A    between atoms: N_4  and  C_18
    5  A    between atoms: C_5  and  O_29
    6  A    between atoms: C_6  and  O_39
    7  A    between atoms: C_7  and  C_18
    8  A    between atoms: N_8  and  C_40
    9  A    between atoms: C_11  and  O_48
   10  A    between atoms: C_13  and  C_45
   11  A    between atoms: C_16  and  O_29
   12  A    between atoms: C_16  and  O_39
   13  A    between atoms: C_19  and  C_25
   14  A    between atoms: C_22  and  O_48
   15  A    between atoms: C_23  and  N_32
   16  A    between atoms: C_23  and  C_43
                            x       y       z     vdW  Elec       q    Type
                         _______ _______ _______ _____ _____    ______ ____

>  <TORSDO>
F 16

$$$$
=
 OpenBabel11032421153D

 50 54  0  0  1  0  0  0  0  0999 V2000
  186.7620  177.2530  137.1470 N   0  0  0  0  0  0  0  0  0  0  0  0
  189.0320  176.6970  137.1710 C   0  0  0  0  0  0  0  0  0  0  0  0
  187.8660  176.9260  137.9370 N   0  0  0  0  0  0  0  0  0  0  0  0
  190.2400  176.4420  137.7080 C   0  0  1  0  0  3  0  0  0  0  0  0
  187.0200  177.3290  135.7140 C   0  0  0  0  0  2  0  0  0  0  0  0
  188.7610  176.8370  135.4070 S   0  0  0  0  0  0  0  0  0  0  0  0
  182.8180  178.6560  138.2290 C   0  0  1  0  0  3  0  0  0  0  0  0
  184.0800  179.2980  138.7580 C   0  0  0  0  0  0  0  0  0  0  0  0
  183.0350  177.1730  137.8690 C   0  0  1  0  0  3  0  0  0  0  0  0
  184.0700  180.4710  139.1000 O   0  0  0  0  0  0  0  0  0  0  0  0
  185.4790  177.5390  137.7200 C   0  0  0  0  0  0  0  0  0  0  0  0
  185.3580  178.5140  138.8610 C   0  0  0  0  0  2  0  0  0  0  0  0
  181.9590  176.6850  136.9160 C   0  0  0  0  0  1  0  0  0  0  0  0
  184.3830  176.9240  137.2560 C   0  0  0  0  0  3  0  0  0  0  0  0
  181.7120  178.7790  139.2690 C   0  0  0  0  0  2  0  0  0  0  0  0
  182.2540  179.1190  140.5100 O   0  0  0  0  0  0  0  0  0  0  0  0
  179.5710  179.7320  143.0210 S   0  0  0  0  0  0  0  0  0  0  0  0
  181.4070  178.5220  141.4470 C   0  0  2  0  0  3  0  0  0  0  0  0
  180.0190  178.3630  140.8470 C   0  0  1  0  0  3  0  0  0  0  0  0
  181.3190  179.4010  142.6810 C   0  0  2  0  0  3  0  0  0  0  0  0
  179.4480  177.0020  141.2040 C   0  0  0  0  0  1  0  0  0  0  0  0
  179.1440  179.4200  141.3330 N   0  0  0  0  0  2  0  0  0  0  0  0
  181.9410  178.6840  143.8650 C   0  0  0  0  0  1  0  0  0  0  0  0
  191.3470  176.2470  136.8150 N   0  0  0  0  0  0  0  0  0  0  0  0
  192.0420  175.1560  136.7680 C   0  0  0  0  0  3  0  0  0  0  0  0
  193.1770  175.0240  135.8090 C   0  0  0  0  0  2  0  0  0  0  0  0
  193.6380  172.9590  136.7110 N   0  0  0  0  0  2  0  0  0  0  0  0
  195.8220  172.6160  137.8660 C   0  0  0  0  0  2  0  0  0  0  0  0
  194.2260  174.1960  136.3820 N   0  0  0  0  0  0  0  0  0  0  0  0
  194.7110  172.0000  136.9990 C   0  0  0  0  0  2  0  0  0  0  0  0
  194.6450  174.8490  137.6270 C   0  0  0  0  0  2  0  0  0  0  0  0
  195.3310  173.8680  138.5910 C   0  0  2  0  0  3  0  0  0  0  0  0
  196.4500  174.5350  139.3190 C   0  0  0  0  0  0  0  0  0  0  0  0
  197.6480  174.2980  139.0080 O   0  0  0  0  0  0  0  0  0  0  0  0
  196.1680  175.4180  140.3510 O   0  0  0  0  0  1  0  0  0  0  0  0
  190.9910  177.3250  139.9320 C   0  0  0  0  0  3  0  0  0  0  0  0
  190.4820  176.3570  139.1750 C   0  0  0  0  0  3  0  0  0  0  0  0
  191.1860  177.1190  141.3930 C   0  0  0  0  0  2  0  0  0  0  0  0
  190.1340  177.8010  142.1390 N   0  0  0  0  0  2  0  0  0  0  0  0
  188.9080  177.0050  142.1140 C   0  0  2  0  0  3  0  0  0  0  0  0
  187.8170  177.7890  141.7270 O   0  0  0  0  0  1  0  0  0  0  0  0
  188.6640  176.4270  143.3640 O   0  0  0  0  0  0  0  0  0  0  0  0
  188.7520  177.4850  144.2700 C   0  0  0  0  0  2  0  0  0  0  0  0
  188.5970  177.0030  145.5710 O   0  0  0  0  0  0  0  0  0  0  0  0
  189.4880  177.7570  146.3420 C   0  0  2  0  0  3  0  0  0  0  0  0
  190.3130  176.8060  147.2320 C   0  0  0  0  0  0  0  0  0  0  0  0
  187.9750  176.9220  148.2590 C   0  0  0  0  0  1  0  0  0  0  0  0
  189.1830  177.6890  147.7430 C   0  0  2  0  0  0  0  0  0  0  0  0
  189.6450  178.7560  148.5120 O   0  0  0  0  0  1  0  0  0  0  0  0
  191.1900  175.9740  147.3970 O   0  0  0  0  0  0  0  0  0  0  0  0
  1 11  1  0  0  0  0
  1  3  1  0  0  0  0
  2  4  1  0  0  0  0
  2  3  2  0  0  0  0
  4 37  1  1  0  0  0
  5  1  1  0  0  0  0
  6  5  1  0  0  0  0
  6  2  1  0  0  0  0
  7  8  1  0  0  0  0
  7 15  1  1  0  0  0
  8 12  1  0  0  0  0
  8 10  2  0  0  0  0
  9 13  1  6  0  0  0
  9  7  1  0  0  0  0
 11 12  1  0  0  0  0
 14 11  2  0  0  0  0
 14  9  1  0  0  0  0
 15 16  1  0  0  0  0
 18 16  1  6  0  0  0
 18 20  1  0  0  0  0
 19 21  1  1  0  0  0
 19 22  1  0  0  0  0
 19 18  1  0  0  0  0
 20 17  1  0  0  0  0
 20 23  1  1  0  0  0
 22 17  1  0  0  0  0
 24  4  1  0  0  0  0
 25 24  2  0  0  0  0
 26 29  1  0  0  0  0
 26 25  1  0  0  0  0
 27 30  1  0  0  0  0
 28 32  1  0  0  0  0
 29 27  1  0  0  0  0
 29 31  1  0  0  0  0
 30 28  1  0  0  0  0
 31 32  1  0  0  0  0
 32 33  1  6  0  0  0
 33 35  1  0  0  0  0
 34 33  2  0  0  0  0
 36 38  1  0  0  0  0
 37 36  2  0  0  0  0
 38 39  1  0  0  0  0
 40 41  1  1  0  0  0
 40 39  1  0  0  0  0
 40 42  1  0  0  0  0
 42 43  1  0  0  0  0
 43 44  1  0  0  0  0
 45 44  1  6  0  0  0
 45 46  1  0  0  0  0
 45 48  1  0  0  0  0
 46 50  2  0  0  0  0
 46 48  1  0  0  0  0
 48 47  1  1  0  0  0
 48 49  1  0  0  0  0
M  END
>  <MODEL>
5

>  <REMARK>
 VINA RESULT:      -6.9      2.796     11.235
  Name = 
  16 active torsions:
  status: ('A' for Active; 'I' for Inactive)
    1  A    between atoms: C_1  and  C_11
    2  A    between atoms: N_2  and  C_25
    3  A    between atoms: N_4  and  C_5
    4  A    between atoms: N_4  and  C_18
    5  A    between atoms: C_5  and  O_29
    6  A    between atoms: C_6  and  O_39
    7  A    between atoms: C_7  and  C_18
    8  A    between atoms: N_8  and  C_40
    9  A    between atoms: C_11  and  O_48
   10  A    between atoms: C_13  and  C_45
   11  A    between atoms: C_16  and  O_29
   12  A    between atoms: C_16  and  O_39
   13  A    between atoms: C_19  and  C_25
   14  A    between atoms: C_22  and  O_48
   15  A    between atoms: C_23  and  N_32
   16  A    between atoms: C_23  and  C_43
                            x       y       z     vdW  Elec       q    Type
                         _______ _______ _______ _____ _____    ______ ____

>  <TORSDO>
F 16

$$$$
=
 OpenBabel11032421153D

 50 54  0  0  1  0  0  0  0  0999 V2000
  191.1990  176.7820  140.2160 N   0  0  0  0  0  0  0  0  0  0  0  0
  191.3450  175.7940  138.1030 C   0  0  0  0  0  0  0  0  0  0  0  0
  190.5500  176.0080  139.2530 N   0  0  0  0  0  0  0  0  0  0  0  0
  190.9690  175.0160  137.0700 C   0  0  1  0  0  3  0  0  0  0  0  0
  192.5580  177.1890  139.8780 C   0  0  0  0  0  2  0  0  0  0  0  0
  192.9340  176.6160  138.1760 S   0  0  0  0  0  0  0  0  0  0  0  0
  189.1370  176.9500  144.0120 C   0  0  1  0  0  3  0  0  0  0  0  0
  188.4330  177.1880  142.6960 C   0  0  0  0  0  0  0  0  0  0  0  0
  190.6360  177.3020  143.9350 C   0  0  1  0  0  3  0  0  0  0  0  0
  187.2360  176.9680  142.5960 O   0  0  0  0  0  0  0  0  0  0  0  0
  190.5810  177.1100  141.4670 C   0  0  0  0  0  0  0  0  0  0  0  0
  189.1900  177.6860  141.4980 C   0  0  0  0  0  2  0  0  0  0  0  0
  191.4090  176.6240  145.0500 C   0  0  0  0  0  1  0  0  0  0  0  0
  191.2450  176.9240  142.6160 C   0  0  0  0  0  3  0  0  0  0  0  0
  188.4680  177.7760  145.1040 C   0  0  0  0  0  2  0  0  0  0  0  0
  187.1480  177.3570  145.2810 O   0  0  0  0  0  0  0  0  0  0  0  0
  183.7370  178.8270  145.5650 S   0  0  0  0  0  0  0  0  0  0  0  0
  186.4240  178.5330  145.4900 C   0  0  2  0  0  3  0  0  0  0  0  0
  185.9440  178.5840  146.9320 C   0  0  1  0  0  3  0  0  0  0  0  0
  185.2220  178.5580  144.5640 C   0  0  2  0  0  3  0  0  0  0  0  0
  186.1250  179.9820  147.4950 C   0  0  0  0  0  1  0  0  0  0  0  0
  184.5440  178.1900  147.0040 N   0  0  0  0  0  2  0  0  0  0  0  0
  185.3720  179.6880  143.5620 C   0  0  0  0  0  1  0  0  0  0  0  0
  191.8800  174.8690  135.9700 N   0  0  0  0  0  0  0  0  0  0  0  0
  192.6320  173.8290  135.8000 C   0  0  0  0  0  3  0  0  0  0  0  0
  193.5520  173.7460  134.6290 C   0  0  0  0  0  2  0  0  0  0  0  0
  194.7010  172.2160  135.9060 N   0  0  0  0  0  2  0  0  0  0  0  0
  197.1220  172.6090  136.3610 C   0  0  0  0  0  2  0  0  0  0  0  0
  194.8770  173.3270  135.0600 N   0  0  0  0  0  0  0  0  0  0  0  0
  196.0070  171.5790  136.1100 C   0  0  0  0  0  2  0  0  0  0  0  0
  195.4270  174.4280  135.8580 C   0  0  0  0  0  2  0  0  0  0  0  0
  196.5460  173.9540  136.8000 C   0  0  2  0  0  3  0  0  0  0  0  0
  197.6210  174.9830  136.9080 C   0  0  0  0  0  0  0  0  0  0  0  0
  198.0750  175.3220  138.0340 O   0  0  0  0  0  1  0  0  0  0  0  0
  198.1200  175.5770  135.7570 O   0  0  0  0  0  0  0  0  0  0  0  0
  188.7090  174.5070  136.1100 C   0  0  0  0  0  3  0  0  0  0  0  0
  189.6630  174.3030  137.0150 C   0  0  0  0  0  3  0  0  0  0  0  0
  187.4410  173.7280  136.1610 C   0  0  0  0  0  2  0  0  0  0  0  0
  186.2980  174.6270  136.0330 N   0  0  0  0  0  2  0  0  0  0  0  0
  185.4430  174.5170  137.2150 C   0  0  2  0  0  3  0  0  0  0  0  0
  185.5080  173.2290  137.7530 O   0  0  0  0  0  1  0  0  0  0  0  0
  184.1190  174.8410  136.9030 O   0  0  0  0  0  0  0  0  0  0  0  0
  184.0930  176.2370  136.8590 C   0  0  0  0  0  2  0  0  0  0  0  0
  184.2160  176.7480  138.1520 O   0  0  0  0  0  0  0  0  0  0  0  0
  184.5560  178.0940  137.9750 C   0  0  2  0  0  3  0  0  0  0  0  0
  185.8350  178.4000  138.7810 C   0  0  0  0  0  0  0  0  0  0  0  0
  183.9310  178.2100  140.4760 C   0  0  0  0  0  1  0  0  0  0  0  0
  184.4390  178.8460  139.1910 C   0  0  2  0  0  0  0  0  0  0  0  0
  184.2490  180.2190  139.0340 O   0  0  0  0  0  1  0  0  0  0  0  0
  187.0390  178.3270  138.9580 O   0  0  0  0  0  0  0  0  0  0  0  0
  1 11  1  0  0  0  0
  2  6  1  0  0  0  0
  2  3  2  0  0  0  0
  3  1  1  0  0  0  0
  4 37  1  1  0  0  0
  4  2  1  0  0  0  0
  5  1  1  0  0  0  0
  6  5  1  0  0  0  0
  7 15  1  1  0  0  0
  8  7  1  0  0  0  0
  9  7  1  0  0  0  0
  9 13  1  1  0  0  0
 10  8  2  0  0  0  0
 11 12  1  0  0  0  0
 11 14  2  0  0  0  0
 12  8  1  0  0  0  0
 14  9  1  0  0  0  0
 15 16  1  0  0  0  0
 17 22  1  0  0  0  0
 18 16  1  1  0  0  0
 18 19  1  0  0  0  0
 19 22  1  0  0  0  0
 19 21  1  6  0  0  0
 20 23  1  6  0  0  0
 20 18  1  0  0  0  0
 20 17  1  0  0  0  0
 24  4  1  0  0  0  0
 25 24  2  0  0  0  0
 26 29  1  0  0  0  0
 26 25  1  0  0  0  0
 27 30  1  0  0  0  0
 28 32  1  0  0  0  0
 29 31  1  0  0  0  0
 29 27  1  0  0  0  0
 30 28  1  0  0  0  0
 31 32  1  0  0  0  0
 32 33  1  6  0  0  0
 33 34  1  0  0  0  0
 35 33  2  0  0  0  0
 36 38  1  0  0  0  0
 36 37  2  0  0  0  0
 39 38  1  0  0  0  0
 39 40  1  0  0  0  0
 40 41  1  6  0  0  0
 42 40  1  0  0  0  0
 43 42  1  0  0  0  0
 43 44  1  0  0  0  0
 45 44  1  1  0  0  0
 45 46  1  0  0  0  0
 45 48  1  0  0  0  0
 46 50  2  0  0  0  0
 46 48  1  0  0  0  0
 48 47  1  1  0  0  0
 49 48  1  0  0  0  0
M  END
>  <MODEL>
6

>  <REMARK>
 VINA RESULT:      -6.9      3.761     11.687
  Name = 
  16 active torsions:
  status: ('A' for Active; 'I' for Inactive)
    1  A    between atoms: C_1  and  C_11
    2  A    between atoms: N_2  and  C_25
    3  A    between atoms: N_4  and  C_5
    4  A    between atoms: N_4  and  C_18
    5  A    between atoms: C_5  and  O_29
    6  A    between atoms: C_6  and  O_39
    7  A    between atoms: C_7  and  C_18
    8  A    between atoms: N_8  and  C_40
    9  A    between atoms: C_11  and  O_48
   10  A    between atoms: C_13  and  C_45
   11  A    between atoms: C_16  and  O_29
   12  A    between atoms: C_16  and  O_39
   13  A    between atoms: C_19  and  C_25
   14  A    between atoms: C_22  and  O_48
   15  A    between atoms: C_23  and  N_32
   16  A    between atoms: C_23  and  C_43
                            x       y       z     vdW  Elec       q    Type
                         _______ _______ _______ _____ _____    ______ ____

>  <TORSDO>
F 16

$$$$
=
 OpenBabel11032421153D

 50 54  0  0  1  0  0  0  0  0999 V2000
  183.6860  178.6470  143.9970 N   0  0  0  0  0  0  0  0  0  0  0  0
  185.8210  178.0320  144.7200 C   0  0  0  0  0  0  0  0  0  0  0  0
  184.9660  178.2450  143.6140 N   0  0  0  0  0  0  0  0  0  0  0  0
  187.0800  177.5660  144.6120 C   0  0  1  0  0  3  0  0  0  0  0  0
  183.4640  178.7400  145.4350 C   0  0  0  0  0  2  0  0  0  0  0  0
  185.0470  178.3890  146.2940 S   0  0  0  0  0  0  0  0  0  0  0  0
  180.3430  178.6260  141.2550 C   0  0  1  0  0  3  0  0  0  0  0  0
  181.7430  178.2480  140.8290 C   0  0  0  0  0  0  0  0  0  0  0  0
  180.3480  179.5960  142.4540 C   0  0  1  0  0  3  0  0  0  0  0  0
  181.9090  177.4940  139.8830 O   0  0  0  0  0  0  0  0  0  0  0  0
  182.6530  178.9050  143.0360 C   0  0  0  0  0  0  0  0  0  0  0  0
  182.9410  178.7810  141.5630 C   0  0  0  0  0  2  0  0  0  0  0  0
  179.0090  179.5840  143.1660 C   0  0  0  0  0  1  0  0  0  0  0  0
  181.4330  179.2780  143.4420 C   0  0  0  0  0  3  0  0  0  0  0  0
  179.6080  179.2610  140.0810 C   0  0  0  0  0  2  0  0  0  0  0  0
  179.6530  180.6530  140.1820 O   0  0  0  0  0  0  0  0  0  0  0  0
  181.4010  182.6580  137.5740 S   0  0  0  0  0  0  0  0  0  0  0  0
  179.5970  181.1110  138.8630 C   0  0  2  0  0  3  0  0  0  0  0  0
  180.4950  180.2480  137.9900 C   0  0  1  0  0  3  0  0  0  0  0  0
  180.0790  182.5480  138.8060 C   0  0  2  0  0  3  0  0  0  0  0  0
  179.8020  179.9380  136.6750 C   0  0  0  0  0  1  0  0  0  0  0  0
  181.7560  180.9340  137.7450 N   0  0  0  0  0  2  0  0  0  0  0  0
  178.9310  183.4560  138.4030 C   0  0  0  0  0  1  0  0  0  0  0  0
  187.8350  177.3790  145.8180 N   0  0  0  0  0  0  0  0  0  0  0  0
  188.6920  178.2410  146.2650 C   0  0  0  0  0  3  0  0  0  0  0  0
  189.4360  177.9780  147.5300 C   0  0  0  0  0  2  0  0  0  0  0  0
  191.5550  177.2280  148.0240 N   0  0  0  0  0  2  0  0  0  0  0  0
  192.4350  175.2360  146.8080 C   0  0  0  0  0  2  0  0  0  0  0  0
  190.3710  176.8790  147.3450 N   0  0  0  0  0  0  0  0  0  0  0  0
  192.3990  176.0320  148.1240 C   0  0  0  0  0  2  0  0  0  0  0  0
  190.6680  176.8180  145.9100 C   0  0  0  0  0  2  0  0  0  0  0  0
  191.9960  176.0980  145.6260 C   0  0  2  0  0  3  0  0  0  0  0  0
  191.9010  175.2820  144.3790 C   0  0  0  0  0  0  0  0  0  0  0  0
  192.4220  174.1360  144.3220 O   0  0  0  0  0  1  0  0  0  0  0  0
  191.2390  175.7950  143.2720 O   0  0  0  0  0  0  0  0  0  0  0  0
  188.5900  178.0060  142.6580 C   0  0  0  0  0  3  0  0  0  0  0  0
  187.7220  177.2360  143.3090 C   0  0  0  0  0  3  0  0  0  0  0  0
  189.1640  177.5650  141.3570 C   0  0  0  0  0  2  0  0  0  0  0  0
  188.2880  177.9680  140.2620 N   0  0  0  0  0  2  0  0  0  0  0  0
  189.0690  178.1480  139.0390 C   0  0  2  0  0  3  0  0  0  0  0  0
  188.2380  178.1280  137.9150 O   0  0  0  0  0  1  0  0  0  0  0  0
  190.0520  177.1590  138.9260 O   0  0  0  0  0  0  0  0  0  0  0  0
  190.1030  176.8590  137.5640 C   0  0  0  0  0  2  0  0  0  0  0  0
  191.4330  176.7440  137.1590 O   0  0  0  0  0  0  0  0  0  0  0  0
  191.8010  175.4370  137.5000 C   0  0  2  0  0  3  0  0  0  0  0  0
  193.3330  175.3690  137.6530 C   0  0  0  0  0  0  0  0  0  0  0  0
  192.8560  175.5000  135.1460 C   0  0  0  0  0  1  0  0  0  0  0  0
  192.5670  174.8030  136.4670 C   0  0  2  0  0  0  0  0  0  0  0  0
  192.5390  173.4090  136.4650 O   0  0  0  0  0  1  0  0  0  0  0  0
  194.3670  175.6030  138.2570 O   0  0  0  0  0  0  0  0  0  0  0  0
  1  5  1  0  0  0  0
  2  6  1  0  0  0  0
  3  1  1  0  0  0  0
  3  2  2  0  0  0  0
  4 37  1  1  0  0  0
  4  2  1  0  0  0  0
  4 24  1  0  0  0  0
  5  6  1  0  0  0  0
  7 15  1  6  0  0  0
  7  9  1  0  0  0  0
  8  7  1  0  0  0  0
  8 12  1  0  0  0  0
  9 13  1  1  0  0  0
  9 14  1  0  0  0  0
 10  8  2  0  0  0  0
 11 14  2  0  0  0  0
 11  1  1  0  0  0  0
 12 11  1  0  0  0  0
 15 16  1  0  0  0  0
 17 22  1  0  0  0  0
 17 20  1  0  0  0  0
 18 16  1  1  0  0  0
 19 21  1  6  0  0  0
 19 18  1  0  0  0  0
 20 23  1  6  0  0  0
 20 18  1  0  0  0  0
 22 19  1  0  0  0  0
 24 25  2  0  0  0  0
 25 26  1  0  0  0  0
 27 30  1  0  0  0  0
 28 30  1  0  0  0  0
 29 26  1  0  0  0  0
 29 27  1  0  0  0  0
 31 29  1  0  0  0  0
 32 33  1  6  0  0  0
 32 31  1  0  0  0  0
 32 28  1  0  0  0  0
 34 33  1  0  0  0  0
 35 33  2  0  0  0  0
 36 37  2  0  0  0  0
 38 36  1  0  0  0  0
 39 38  1  0  0  0  0
 40 41  1  6  0  0  0
 40 39  1  0  0  0  0
 42 40  1  0  0  0  0
 43 42  1  0  0  0  0
 44 43  1  0  0  0  0
 45 44  1  6  0  0  0
 45 46  1  0  0  0  0
 46 50  2  0  0  0  0
 48 47  1  6  0  0  0
 48 45  1  0  0  0  0
 48 46  1  0  0  0  0
 49 48  1  0  0  0  0
M  END
>  <MODEL>
7

>  <REMARK>
 VINA RESULT:      -6.9      3.771     11.468
  Name = 
  16 active torsions:
  status: ('A' for Active; 'I' for Inactive)
    1  A    between atoms: C_1  and  C_11
    2  A    between atoms: N_2  and  C_25
    3  A    between atoms: N_4  and  C_5
    4  A    between atoms: N_4  and  C_18
    5  A    between atoms: C_5  and  O_29
    6  A    between atoms: C_6  and  O_39
    7  A    between atoms: C_7  and  C_18
    8  A    between atoms: N_8  and  C_40
    9  A    between atoms: C_11  and  O_48
   10  A    between atoms: C_13  and  C_45
   11  A    between atoms: C_16  and  O_29
   12  A    between atoms: C_16  and  O_39
   13  A    between atoms: C_19  and  C_25
   14  A    between atoms: C_22  and  O_48
   15  A    between atoms: C_23  and  N_32
   16  A    between atoms: C_23  and  C_43
                            x       y       z     vdW  Elec       q    Type
                         _______ _______ _______ _____ _____    ______ ____

>  <TORSDO>
F 16

$$$$
=
 OpenBabel11032421153D

 50 54  0  0  1  0  0  0  0  0999 V2000
  184.3030  178.5070  141.6450 N   0  0  0  0  0  0  0  0  0  0  0  0
  186.5640  178.2430  142.1740 C   0  0  0  0  0  0  0  0  0  0  0  0
  185.5940  178.3230  141.1480 N   0  0  0  0  0  0  0  0  0  0  0  0
  187.8680  177.9920  141.9510 C   0  0  1  0  0  3  0  0  0  0  0  0
  184.1920  178.5480  143.0990 C   0  0  0  0  0  2  0  0  0  0  0  0
  185.8790  178.4530  143.8150 S   0  0  0  0  0  0  0  0  0  0  0  0
  181.1580  179.5670  138.8750 C   0  0  1  0  0  3  0  0  0  0  0  0
  181.0410  179.8050  140.3630 C   0  0  0  0  0  0  0  0  0  0  0  0
  182.1030  178.3930  138.5510 C   0  0  1  0  0  3  0  0  0  0  0  0
  180.3180  180.6950  140.7830 O   0  0  0  0  0  0  0  0  0  0  0  0
  183.1630  178.6000  140.7790 C   0  0  0  0  0  0  0  0  0  0  0  0
  181.8140  178.9640  141.3390 C   0  0  0  0  0  2  0  0  0  0  0  0
  182.5900  178.4690  137.1170 C   0  0  0  0  0  1  0  0  0  0  0  0
  183.2900  178.3450  139.4710 C   0  0  0  0  0  3  0  0  0  0  0  0
  179.7760  179.2920  138.2940 C   0  0  0  0  0  2  0  0  0  0  0  0
  179.1260  180.4950  138.0110 O   0  0  0  0  0  0  0  0  0  0  0  0
  179.4370  182.9060  135.1880 S   0  0  0  0  0  0  0  0  0  0  0  0
  180.0210  181.2080  137.2100 C   0  0  2  0  0  3  0  0  0  0  0  0
  180.1020  182.6460  137.6960 C   0  0  1  0  0  3  0  0  0  0  0  0
  179.5350  181.1940  135.7730 C   0  0  2  0  0  3  0  0  0  0  0  0
  181.5450  183.1190  137.6930 C   0  0  0  0  0  1  0  0  0  0  0  0
  179.2890  183.5040  136.8450 N   0  0  0  0  0  2  0  0  0  0  0  0
  180.5110  180.4160  134.9100 C   0  0  0  0  0  1  0  0  0  0  0  0
  188.7440  177.9190  143.0860 N   0  0  0  0  0  0  0  0  0  0  0  0
  188.8130  176.8910  143.8700 C   0  0  0  0  0  3  0  0  0  0  0  0
  189.7520  176.8870  145.0280 C   0  0  0  0  0  2  0  0  0  0  0  0
  189.6510  177.0750  147.3190 N   0  0  0  0  0  2  0  0  0  0  0  0
  187.9840  178.6360  148.3220 C   0  0  0  0  0  2  0  0  0  0  0  0
  189.2020  177.6700  146.1240 N   0  0  0  0  0  0  0  0  0  0  0  0
  189.3810  178.0010  148.4260 C   0  0  0  0  0  2  0  0  0  0  0  0
  187.7440  177.5200  146.0570 C   0  0  0  0  0  2  0  0  0  0  0  0
  187.0710  177.8240  147.4050 C   0  0  2  0  0  3  0  0  0  0  0  0
  185.7660  178.5190  147.2020 C   0  0  0  0  0  0  0  0  0  0  0  0
  185.6810  179.7710  147.3240 O   0  0  0  0  0  1  0  0  0  0  0  0
  184.6370  177.7800  146.8800 O   0  0  0  0  0  0  0  0  0  0  0  0
  189.6940  177.4240  140.3290 C   0  0  0  0  0  3  0  0  0  0  0  0
  188.4400  177.7840  140.5930 C   0  0  0  0  0  3  0  0  0  0  0  0
  190.1500  177.2480  138.9230 C   0  0  0  0  0  2  0  0  0  0  0  0
  190.7430  175.9250  138.7530 N   0  0  0  0  0  2  0  0  0  0  0  0
  190.1600  175.2630  137.5870 C   0  0  2  0  0  3  0  0  0  0  0  0
  190.4570  173.8970  137.5950 O   0  0  0  0  0  1  0  0  0  0  0  0
  190.6200  175.8470  136.4020 O   0  0  0  0  0  0  0  0  0  0  0  0
  189.5000  175.8940  135.5690 C   0  0  0  0  0  2  0  0  0  0  0  0
  188.3640  176.1800  136.3260 O   0  0  0  0  0  0  0  0  0  0  0  0
  187.5980  177.0290  135.5200 C   0  0  2  0  0  3  0  0  0  0  0  0
  187.2110  178.2810  136.3320 C   0  0  0  0  0  0  0  0  0  0  0  0
  185.7510  176.3700  137.1970 C   0  0  0  0  0  1  0  0  0  0  0  0
  186.2490  177.1520  135.9910 C   0  0  2  0  0  0  0  0  0  0  0  0
  185.3070  177.5240  135.0320 O   0  0  0  0  0  1  0  0  0  0  0  0
  187.4770  179.3500  136.8560 O   0  0  0  0  0  0  0  0  0  0  0  0
  1  5  1  0  0  0  0
  2  6  1  0  0  0  0
  3  1  1  0  0  0  0
  3  2  2  0  0  0  0
  4 37  1  1  0  0  0
  4  2  1  0  0  0  0
  4 24  1  0  0  0  0
  5  6  1  0  0  0  0
  7 15  1  1  0  0  0
  7  8  1  0  0  0  0
  8 10  2  0  0  0  0
  8 12  1  0  0  0  0
  9 13  1  6  0  0  0
  9  7  1  0  0  0  0
  9 14  1  0  0  0  0
 11 12  1  0  0  0  0
 11  1  1  0  0  0  0
 14 11  2  0  0  0  0
 16 15  1  0  0  0  0
 17 20  1  0  0  0  0
 17 22  1  0  0  0  0
 18 19  1  0  0  0  0
 18 16  1  1  0  0  0
 19 21  1  6  0  0  0
 20 23  1  6  0  0  0
 20 18  1  0  0  0  0
 22 19  1  0  0  0  0
 24 25  2  0  0  0  0
 25 26  1  0  0  0  0
 26 29  1  0  0  0  0
 27 30  1  0  0  0  0
 28 30  1  0  0  0  0
 29 27  1  0  0  0  0
 31 29  1  0  0  0  0
 31 32  1  0  0  0  0
 32 33  1  6  0  0  0
 32 28  1  0  0  0  0
 33 34  1  0  0  0  0
 35 33  2  0  0  0  0
 36 37  2  0  0  0  0
 38 36  1  0  0  0  0
 39 38  1  0  0  0  0
 40 41  1  6  0  0  0
 40 39  1  0  0  0  0
 42 40  1  0  0  0  0
 43 44  1  0  0  0  0
 43 42  1  0  0  0  0
 45 48  1  0  0  0  0
 45 44  1  1  0  0  0
 45 46  1  0  0  0  0
 46 50  2  0  0  0  0
 48 46  1  0  0  0  0
 48 47  1  1  0  0  0
 49 48  1  0  0  0  0
M  END
>  <MODEL>
8

>  <REMARK>
 VINA RESULT:      -6.7      3.916     10.796
  Name = 
  16 active torsions:
  status: ('A' for Active; 'I' for Inactive)
    1  A    between atoms: C_1  and  C_11
    2  A    between atoms: N_2  and  C_25
    3  A    between atoms: N_4  and  C_5
    4  A    between atoms: N_4  and  C_18
    5  A    between atoms: C_5  and  O_29
    6  A    between atoms: C_6  and  O_39
    7  A    between atoms: C_7  and  C_18
    8  A    between atoms: N_8  and  C_40
    9  A    between atoms: C_11  and  O_48
   10  A    between atoms: C_13  and  C_45
   11  A    between atoms: C_16  and  O_29
   12  A    between atoms: C_16  and  O_39
   13  A    between atoms: C_19  and  C_25
   14  A    between atoms: C_22  and  O_48
   15  A    between atoms: C_23  and  N_32
   16  A    between atoms: C_23  and  C_43
                            x       y       z     vdW  Elec       q    Type
                         _______ _______ _______ _____ _____    ______ ____

>  <TORSDO>
F 16

$$$$
=
 OpenBabel11032421153D

 50 54  0  0  1  0  0  0  0  0999 V2000
  183.5150  178.6880  142.7600 N   0  0  0  0  0  0  0  0  0  0  0  0
  185.5400  178.0260  143.7210 C   0  0  0  0  0  0  0  0  0  0  0  0
  184.8320  178.2910  142.5260 N   0  0  0  0  0  0  0  0  0  0  0  0
  186.8010  177.5550  143.7540 C   0  0  1  0  0  3  0  0  0  0  0  0
  183.1120  178.7230  144.1610 C   0  0  0  0  0  2  0  0  0  0  0  0
  184.5730  178.3240  145.1980 S   0  0  0  0  0  0  0  0  0  0  0  0
  180.7130  178.7700  139.4680 C   0  0  1  0  0  3  0  0  0  0  0  0
  182.2090  178.7380  139.2580 C   0  0  0  0  0  0  0  0  0  0  0  0
  180.3340  179.4160  140.8170 C   0  0  1  0  0  3  0  0  0  0  0  0
  182.6710  178.2670  138.2300 O   0  0  0  0  0  0  0  0  0  0  0  0
  182.6130  178.9930  141.6870 C   0  0  0  0  0  0  0  0  0  0  0  0
  183.1450  179.2700  140.3060 C   0  0  0  0  0  2  0  0  0  0  0  0
  178.9320  179.0160  141.2330 C   0  0  0  0  0  1  0  0  0  0  0  0
  181.2950  179.0540  141.9130 C   0  0  0  0  0  3  0  0  0  0  0  0
  180.0560  179.5360  138.3270 C   0  0  0  0  0  2  0  0  0  0  0  0
  179.8820  180.8740  138.6840 O   0  0  0  0  0  0  0  0  0  0  0  0
  178.9520  182.8500  135.6660 S   0  0  0  0  0  0  0  0  0  0  0  0
  180.3740  181.6020  137.5980 C   0  0  2  0  0  3  0  0  0  0  0  0
  180.2760  183.0900  137.9000 C   0  0  1  0  0  3  0  0  0  0  0  0
  179.5490  181.2890  136.3640 C   0  0  2  0  0  3  0  0  0  0  0  0
  181.5390  183.8000  137.4460 C   0  0  0  0  0  1  0  0  0  0  0  0
  179.1120  183.6560  137.2320 N   0  0  0  0  0  2  0  0  0  0  0  0
  180.4110  180.5710  135.3420 C   0  0  0  0  0  1  0  0  0  0  0  0
  187.3960  177.3120  145.0370 N   0  0  0  0  0  0  0  0  0  0  0  0
  187.9370  178.2400  145.7610 C   0  0  0  0  0  3  0  0  0  0  0  0
  188.5330  177.9110  147.0880 C   0  0  0  0  0  2  0  0  0  0  0  0
  190.6790  177.4550  147.7790 N   0  0  0  0  0  2  0  0  0  0  0  0
  192.0170  175.7770  146.5080 C   0  0  0  0  0  2  0  0  0  0  0  0
  189.6560  177.0020  146.9230 N   0  0  0  0  0  0  0  0  0  0  0  0
  191.6990  176.4040  147.8760 C   0  0  0  0  0  2  0  0  0  0  0  0
  190.1180  177.1510  145.5390 C   0  0  0  0  0  2  0  0  0  0  0  0
  191.5730  176.6860  145.3640 C   0  0  2  0  0  3  0  0  0  0  0  0
  191.7590  176.0120  144.0450 C   0  0  0  0  0  0  0  0  0  0  0  0
  191.5520  176.6360  142.9710 O   0  0  0  0  0  0  0  0  0  0  0  0
  192.1580  174.6830  144.0040 O   0  0  0  0  0  1  0  0  0  0  0  0
  188.2290  178.1860  141.7920 C   0  0  0  0  0  3  0  0  0  0  0  0
  187.6020  177.2740  142.5300 C   0  0  0  0  0  3  0  0  0  0  0  0
  189.0010  177.7800  140.5850 C   0  0  0  0  0  2  0  0  0  0  0  0
  189.0420  178.8780  139.6250 N   0  0  0  0  0  2  0  0  0  0  0  0
  188.5640  178.4190  138.3220 C   0  0  2  0  0  3  0  0  0  0  0  0
  188.8880  179.3430  137.3240 O   0  0  0  0  0  1  0  0  0  0  0  0
  187.1820  178.2030  138.3460 O   0  0  0  0  0  0  0  0  0  0  0  0
  186.8090  178.1260  137.0030 C   0  0  0  0  0  2  0  0  0  0  0  0
  186.7410  176.7880  136.6110 O   0  0  0  0  0  0  0  0  0  0  0  0
  185.5720  176.2990  137.2030 C   0  0  2  0  0  3  0  0  0  0  0  0
  185.6110  174.7580  137.1950 C   0  0  0  0  0  0  0  0  0  0  0  0
  185.1190  175.4890  134.7950 C   0  0  0  0  0  1  0  0  0  0  0  0
  184.7440  175.5960  136.2660 C   0  0  2  0  0  0  0  0  0  0  0  0
  183.3900  175.5270  136.5910 O   0  0  0  0  0  1  0  0  0  0  0  0
  186.0270  173.6880  137.6080 O   0  0  0  0  0  0  0  0  0  0  0  0
  1  5  1  0  0  0  0
  2  4  1  0  0  0  0
  2  6  1  0  0  0  0
  3  1  1  0  0  0  0
  3  2  2  0  0  0  0
  4 37  1  6  0  0  0
  4 24  1  0  0  0  0
  5  6  1  0  0  0  0
  7 15  1  6  0  0  0
  7  9  1  0  0  0  0
  8  7  1  0  0  0  0
  8 12  1  0  0  0  0
  9 13  1  1  0  0  0
  9 14  1  0  0  0  0
 10  8  2  0  0  0  0
 11 14  2  0  0  0  0
 11  1  1  0  0  0  0
 12 11  1  0  0  0  0
 15 16  1  0  0  0  0
 17 20  1  0  0  0  0
 17 22  1  0  0  0  0
 18 19  1  0  0  0  0
 18 16  1  1  0  0  0
 19 21  1  6  0  0  0
 20 23  1  6  0  0  0
 20 18  1  0  0  0  0
 22 19  1  0  0  0  0
 24 25  2  0  0  0  0
 25 26  1  0  0  0  0
 27 30  1  0  0  0  0
 28 30  1  0  0  0  0
 29 26  1  0  0  0  0
 29 27  1  0  0  0  0
 31 29  1  0  0  0  0
 32 33  1  6  0  0  0
 32 31  1  0  0  0  0
 32 28  1  0  0  0  0
 34 33  2  0  0  0  0
 35 33  1  0  0  0  0
 36 37  2  0  0  0  0
 38 36  1  0  0  0  0
 39 38  1  0  0  0  0
 40 41  1  6  0  0  0
 40 42  1  0  0  0  0
 40 39  1  0  0  0  0
 43 42  1  0  0  0  0
 44 43  1  0  0  0  0
 45 44  1  6  0  0  0
 46 45  1  0  0  0  0
 46 50  2  0  0  0  0
 48 47  1  6  0  0  0
 48 49  1  0  0  0  0
 48 46  1  0  0  0  0
 48 45  1  0  0  0  0
M  END
>  <MODEL>
9

>  <REMARK>
 VINA RESULT:      -6.7      4.847     11.365
  Name = 
  16 active torsions:
  status: ('A' for Active; 'I' for Inactive)
    1  A    between atoms: C_1  and  C_11
    2  A    between atoms: N_2  and  C_25
    3  A    between atoms: N_4  and  C_5
    4  A    between atoms: N_4  and  C_18
    5  A    between atoms: C_5  and  O_29
    6  A    between atoms: C_6  and  O_39
    7  A    between atoms: C_7  and  C_18
    8  A    between atoms: N_8  and  C_40
    9  A    between atoms: C_11  and  O_48
   10  A    between atoms: C_13  and  C_45
   11  A    between atoms: C_16  and  O_29
   12  A    between atoms: C_16  and  O_39
   13  A    between atoms: C_19  and  C_25
   14  A    between atoms: C_22  and  O_48
   15  A    between atoms: C_23  and  N_32
   16  A    between atoms: C_23  and  C_43
                            x       y       z     vdW  Elec       q    Type
                         _______ _______ _______ _____ _____    ______ ____

>  <TORSDO>
F 16

$$$$
