=
 OpenBabel11042412123D

 37 40  0  0  1  0  0  0  0  0999 V2000
  188.4970  178.0290  140.7100 C   0  0  0  0  0  0  0  0  0  0  0  0
  187.1650  176.2170  144.2950 F   0  0  0  0  0  0  0  0  0  0  0  0
  187.3750  178.4100  141.3170 C   0  0  0  0  0  3  0  0  0  0  0  0
  187.6350  176.8300  143.1770 C   0  0  0  0  0  0  0  0  0  0  0  0
  189.3370  176.9720  141.3070 C   0  0  0  0  0  0  0  0  0  0  0  0
  186.9250  177.8180  142.5940 C   0  0  0  0  0  0  0  0  0  0  0  0
  190.3840  176.5940  140.7130 O   0  0  0  0  0  0  0  0  0  0  0  0
  188.9300  176.3080  142.6010 C   0  0  1  0  0  3  0  0  0  0  0  0
  183.5440  178.9710  143.6210 C   0  0  0  0  0  0  0  0  0  0  0  0
  184.3620  178.4710  142.5540 C   0  0  0  0  0  0  0  0  0  0  0  0
  181.6050  178.8140  142.0780 C   0  0  0  0  0  3  0  0  0  0  0  0
  182.0760  179.2250  143.4630 C   0  0  0  0  0  2  0  0  0  0  0  0
  183.8700  178.0960  141.3750 C   0  0  0  0  0  3  0  0  0  0  0  0
  185.5600  178.6790  144.4310 N   0  0  0  0  0  0  0  0  0  0  0  0
  184.2370  179.0810  144.7040 N   0  0  0  0  0  0  0  0  0  0  0  0
  182.4230  178.2990  141.1340 C   0  0  0  0  0  3  0  0  0  0  0  0
  185.6700  178.3300  143.1830 C   0  0  0  0  0  0  0  0  0  0  0  0
  189.8510  177.1610  144.7180 C   0  0  0  0  0  3  0  0  0  0  0  0
  190.0030  176.4030  143.6390 C   0  0  0  0  0  3  0  0  0  0  0  0
  192.0250  177.7620  145.3720 O   0  0  0  0  0  0  0  0  0  0  0  0
  190.9070  177.3030  145.7260 C   0  0  0  0  0  0  0  0  0  0  0  0
  190.7040  176.8370  147.1410 C   0  0  1  0  0  3  0  0  0  0  0  0
  191.9250  176.8510  147.8130 O   0  0  0  0  0  1  0  0  0  0  0  0
  189.7130  177.7200  147.8830 C   0  0  0  0  0  2  0  0  0  0  0  0
  187.5840  177.6980  148.9340 O   0  0  0  0  0  0  0  0  0  0  0  0
  188.3380  177.0790  147.9210 C   0  0  1  0  0  3  0  0  0  0  0  0
  187.3090  178.0920  147.6110 C   0  0  0  0  0  2  0  0  0  0  0  0
  188.8530  178.6370  139.3960 C   0  0  0  0  0  2  0  0  0  0  0  0
  187.6830  178.6420  138.5290 N   0  0  0  0  0  2  0  0  0  0  0  0
  188.0020  177.8780  137.3320 C   0  0  0  0  0  2  0  0  0  0  0  0
  189.5040  177.6540  137.2400 C   0  0  0  0  0  2  0  0  0  0  0  0
  189.8100  176.4540  136.3620 C   0  0  0  0  0  2  0  0  0  0  0  0
  191.3100  176.2060  136.3480 C   0  0  0  0  0  2  0  0  0  0  0  0
  191.8020  175.9010  137.7500 C   0  0  0  0  0  2  0  0  0  0  0  0
  193.4830  176.9150  139.1000 O   0  0  0  0  0  1  0  0  0  0  0  0
  193.1390  176.5250  137.9530 C   0  0  0  0  0  0  0  0  0  0  0  0
  194.0250  176.6420  136.8870 O   0  0  0  0  0  0  0  0  0  0  0  0
  1  5  1  0  0  0  0
  1  3  2  0  0  0  0
  3  6  1  0  0  0  0
  4  2  1  0  0  0  0
  5  8  1  0  0  0  0
  6  4  2  0  0  0  0
  6 17  1  0  0  0  0
  7  5  2  0  0  0  0
  8  4  1  0  0  0  0
  8 19  1  1  0  0  0
  9 15  2  0  0  0  0
 10 17  1  0  0  0  0
 10  9  1  0  0  0  0
 11 12  1  0  0  0  0
 12  9  1  0  0  0  0
 13 10  2  0  0  0  0
 14 15  1  0  0  0  0
 16 13  1  0  0  0  0
 16 11  2  0  0  0  0
 17 14  2  0  0  0  0
 18 21  1  0  0  0  0
 19 18  2  0  0  0  0
 20 21  2  0  0  0  0
 21 22  1  0  0  0  0
 22 23  1  1  0  0  0
 22 24  1  0  0  0  0
 26 24  1  1  0  0  0
 26 25  1  0  0  0  0
 27 26  1  0  0  0  0
 27 25  1  0  0  0  0
 28  1  1  0  0  0  0
 29 28  1  0  0  0  0
 30 29  1  0  0  0  0
 31 30  1  0  0  0  0
 32 31  1  0  0  0  0
 33 32  1  0  0  0  0
 33 34  1  0  0  0  0
 34 36  1  0  0  0  0
 36 35  1  0  0  0  0
 37 36  2  0  0  0  0
M  END
>  <MODEL>
1

>  <REMARK>
 VINA RESULT:      -8.4      0.000      0.000
  Name = 
  14 active torsions:
  status: ('A' for Active; 'I' for Inactive)
    1  A    between atoms: C_3  and  C_9
    2  A    between atoms: C_6  and  C_28
    3  A    between atoms: C_8  and  C_30
    4  A    between atoms: C_8  and  C_37
    5  A    between atoms: C_9  and  N_13
    6  A    between atoms: N_13  and  C_20
    7  A    between atoms: C_15  and  C_33
    8  A    between atoms: C_16  and  C_30
    9  A    between atoms: C_20  and  C_35
   10  A    between atoms: C_22  and  C_32
   11  A    between atoms: C_24  and  C_28
   12  A    between atoms: C_24  and  C_33
   13  A    between atoms: C_26  and  C_34
   14  A    between atoms: C_35  and  C_37
                            x       y       z     vdW  Elec       q    Type
                         _______ _______ _______ _____ _____    ______ ____

>  <TORSDO>
F 14

$$$$
=
 OpenBabel11042412123D

 37 40  0  0  1  0  0  0  0  0999 V2000
  185.4340  178.8740  145.1280 C   0  0  0  0  0  0  0  0  0  0  0  0
  184.1630  177.8810  141.2160 F   0  0  0  0  0  0  0  0  0  0  0  0
  186.2940  178.7460  144.1200 C   0  0  0  0  0  3  0  0  0  0  0  0
  184.5500  178.2580  142.4630 C   0  0  0  0  0  0  0  0  0  0  0  0
  183.9870  178.7070  144.8910 C   0  0  0  0  0  0  0  0  0  0  0  0
  185.8570  178.4470  142.7400 C   0  0  0  0  0  0  0  0  0  0  0  0
  183.1790  178.8000  145.8550 O   0  0  0  0  0  0  0  0  0  0  0  0
  183.4680  178.3810  143.5100 C   0  0  1  0  0  3  0  0  0  0  0  0
  188.7370  177.8770  140.4610 C   0  0  0  0  0  0  0  0  0  0  0  0
  188.2010  177.6890  141.7780 C   0  0  2  0  0  3  0  0  0  0  0  0
  190.6800  176.4980  141.1590 C   0  0  0  0  0  3  0  0  0  0  0  0
  190.0620  177.3190  140.0390 C   0  0  0  0  0  3  0  0  0  0  0  0
  188.7850  176.9230  142.6970 C   0  0  0  0  0  3  0  0  0  0  0  0
  186.7450  178.7910  140.4880 N   0  0  0  0  0  0  0  0  0  0  0  0
  187.8890  178.5050  139.7170 N   0  0  0  0  0  0  0  0  0  0  0  0
  190.0950  176.3190  142.3630 C   0  0  0  0  0  3  0  0  0  0  0  0
  186.9000  178.3410  141.6990 C   0  0  0  0  0  0  0  0  0  0  0  0
  181.2600  178.9820  142.6040 C   0  0  0  0  0  3  0  0  0  0  0  0
  182.4490  179.3730  143.0470 C   0  0  0  0  0  3  0  0  0  0  0  0
  179.8570  180.8460  142.8730 O   0  0  0  0  0  0  0  0  0  0  0  0
  180.2630  179.9340  142.1050 C   0  0  0  0  0  0  0  0  0  0  0  0
  179.6640  179.7910  140.7330 C   0  0  1  0  0  3  0  0  0  0  0  0
  179.5680  181.0470  140.1360 O   0  0  0  0  0  1  0  0  0  0  0  0
  180.5000  178.8790  139.8500 C   0  0  0  0  0  2  0  0  0  0  0  0
  182.6480  179.7770  139.3840 O   0  0  0  0  0  0  0  0  0  0  0  0
  181.3390  179.6860  138.8770 C   0  0  1  0  0  3  0  0  0  0  0  0
  182.4340  178.8460  138.3500 C   0  0  0  0  0  2  0  0  0  0  0  0
  185.9600  179.1210  146.5020 C   0  0  0  0  0  2  0  0  0  0  0  0
  186.5990  177.9140  147.0030 N   0  0  0  0  0  2  0  0  0  0  0  0
  187.4810  178.2890  148.0990 C   0  0  0  0  0  2  0  0  0  0  0  0
  188.7810  177.5030  148.0160 C   0  0  0  0  0  2  0  0  0  0  0  0
  189.0130  177.0080  146.5990 C   0  0  0  0  0  2  0  0  0  0  0  0
  190.1850  177.7570  145.9860 C   0  0  0  0  0  2  0  0  0  0  0  0
  191.3330  176.8030  145.7210 C   0  0  0  0  0  2  0  0  0  0  0  0
  192.0910  175.0570  147.1540 O   0  0  0  0  0  0  0  0  0  0  0  0
  191.8590  176.2870  147.0160 C   0  0  0  0  0  0  0  0  0  0  0  0
  192.1320  177.1660  148.0590 O   0  0  0  0  0  1  0  0  0  0  0  0
  1 28  1  0  0  0  0
  2  4  1  0  0  0  0
  3  1  2  0  0  0  0
  4  6  2  0  0  0  0
  4  8  1  0  0  0  0
  5  1  1  0  0  0  0
  5  7  2  0  0  0  0
  6  3  1  0  0  0  0
  8 19  1  6  0  0  0
  8  5  1  0  0  0  0
  9 10  1  0  0  0  0
 10 13  1  6  0  0  0
 11 16  1  0  0  0  0
 12  9  1  0  0  0  0
 12 11  2  0  0  0  0
 14 17  2  0  0  0  0
 15  9  2  0  0  0  0
 15 14  1  0  0  0  0
 16 13  2  0  0  0  0
 17 10  1  0  0  0  0
 17  6  1  0  0  0  0
 18 19  2  0  0  0  0
 21 18  1  0  0  0  0
 21 20  2  0  0  0  0
 22 23  1  6  0  0  0
 22 21  1  0  0  0  0
 24 22  1  0  0  0  0
 26 25  1  0  0  0  0
 26 24  1  1  0  0  0
 27 26  1  0  0  0  0
 27 25  1  0  0  0  0
 28 29  1  0  0  0  0
 29 30  1  0  0  0  0
 31 30  1  0  0  0  0
 32 31  1  0  0  0  0
 33 32  1  0  0  0  0
 34 33  1  0  0  0  0
 34 36  1  0  0  0  0
 36 35  2  0  0  0  0
 36 37  1  0  0  0  0
M  END
>  <MODEL>
2

>  <REMARK>
 VINA RESULT:      -8.3      3.461      8.835
  Name = 
  14 active torsions:
  status: ('A' for Active; 'I' for Inactive)
    1  A    between atoms: C_3  and  C_9
    2  A    between atoms: C_6  and  C_28
    3  A    between atoms: C_8  and  C_30
    4  A    between atoms: C_8  and  C_37
    5  A    between atoms: C_9  and  N_13
    6  A    between atoms: N_13  and  C_20
    7  A    between atoms: C_15  and  C_33
    8  A    between atoms: C_16  and  C_30
    9  A    between atoms: C_20  and  C_35
   10  A    between atoms: C_22  and  C_32
   11  A    between atoms: C_24  and  C_28
   12  A    between atoms: C_24  and  C_33
   13  A    between atoms: C_26  and  C_34
   14  A    between atoms: C_35  and  C_37
                            x       y       z     vdW  Elec       q    Type
                         _______ _______ _______ _____ _____    ______ ____

>  <TORSDO>
F 14

$$$$
=
 OpenBabel11042412123D

 37 40  0  0  1  0  0  0  0  0999 V2000
  188.3530  177.3900  143.2370 C   0  0  0  0  0  0  0  0  0  0  0  0
  186.1020  179.4780  140.3260 F   0  0  0  0  0  0  0  0  0  0  0  0
  187.0720  177.6960  143.4260 C   0  0  0  0  0  3  0  0  0  0  0  0
  186.8200  178.7560  141.2260 C   0  0  0  0  0  0  0  0  0  0  0  0
  189.0200  177.7440  141.9680 C   0  0  0  0  0  0  0  0  0  0  0  0
  186.2630  178.3830  142.3970 C   0  0  0  0  0  0  0  0  0  0  0  0
  190.2420  177.4780  141.8060 O   0  0  0  0  0  0  0  0  0  0  0  0
  188.2610  178.4640  140.8790 C   0  0  1  0  0  3  0  0  0  0  0  0
  182.5900  178.8380  142.7360 C   0  0  0  0  0  0  0  0  0  0  0  0
  183.6670  178.4080  141.8920 C   0  0  0  0  0  0  0  0  0  0  0  0
  181.0250  178.0330  140.9850 C   0  0  0  0  0  3  0  0  0  0  0  0
  181.1510  178.7190  142.3350 C   0  0  0  0  0  2  0  0  0  0  0  0
  183.4770  177.7790  140.7340 C   0  0  0  0  0  3  0  0  0  0  0  0
  184.4500  179.1320  143.8570 N   0  0  0  0  0  0  0  0  0  0  0  0
  183.0460  179.2460  143.8730 N   0  0  0  0  0  0  0  0  0  0  0  0
  182.0840  177.6050  140.2630 C   0  0  0  0  0  3  0  0  0  0  0  0
  184.8460  178.6600  142.7120 C   0  0  0  0  0  0  0  0  0  0  0  0
  188.7140  178.3200  138.4630 C   0  0  0  0  0  3  0  0  0  0  0  0
  188.3120  177.7240  139.5790 C   0  0  0  0  0  3  0  0  0  0  0  0
  189.8020  177.0910  136.7840 O   0  0  0  0  0  0  0  0  0  0  0  0
  188.7300  177.6260  137.1720 C   0  0  0  0  0  0  0  0  0  0  0  0
  187.5220  177.6140  136.2770 C   0  0  1  0  0  3  0  0  0  0  0  0
  187.9220  177.3780  134.9620 O   0  0  0  0  0  1  0  0  0  0  0  0
  186.5250  176.5460  136.6960 C   0  0  0  0  0  2  0  0  0  0  0  0
  184.2740  177.2240  136.3650 O   0  0  0  0  0  0  0  0  0  0  0  0
  185.2960  177.1690  137.3300 C   0  0  1  0  0  3  0  0  0  0  0  0
  184.1850  176.1960  137.3230 C   0  0  0  0  0  2  0  0  0  0  0  0
  189.1160  176.7460  144.3460 C   0  0  0  0  0  2  0  0  0  0  0  0
  189.9870  177.7300  144.9730 N   0  0  0  0  0  2  0  0  0  0  0  0
  190.6630  177.0890  146.0920 C   0  0  0  0  0  2  0  0  0  0  0  0
  189.6510  176.7050  147.1620 C   0  0  0  0  0  2  0  0  0  0  0  0
  189.2870  177.9130  148.0070 C   0  0  0  0  0  2  0  0  0  0  0  0
  187.7960  177.8940  148.3020 C   0  0  0  0  0  2  0  0  0  0  0  0
  187.0070  177.9840  147.0100 C   0  0  0  0  0  2  0  0  0  0  0  0
  184.6510  178.3330  147.0560 O   0  0  0  0  0  0  0  0  0  0  0  0
  185.7970  178.8260  147.2260 C   0  0  0  0  0  0  0  0  0  0  0  0
  185.9290  180.1430  147.6540 O   0  0  0  0  0  1  0  0  0  0  0  0
  1  3  2  0  0  0  0
  1 28  1  0  0  0  0
  2  4  1  0  0  0  0
  4  6  2  0  0  0  0
  5  1  1  0  0  0  0
  6 17  1  0  0  0  0
  6  3  1  0  0  0  0
  7  5  2  0  0  0  0
  8 19  1  6  0  0  0
  8  4  1  0  0  0  0
  8  5  1  0  0  0  0
  9 15  2  0  0  0  0
 10 17  1  0  0  0  0
 10  9  1  0  0  0  0
 11 12  1  0  0  0  0
 12  9  1  0  0  0  0
 13 10  2  0  0  0  0
 14 15  1  0  0  0  0
 16 13  1  0  0  0  0
 16 11  2  0  0  0  0
 17 14  2  0  0  0  0
 18 19  2  0  0  0  0
 20 21  2  0  0  0  0
 21 18  1  0  0  0  0
 22 23  1  6  0  0  0
 22 24  1  0  0  0  0
 22 21  1  0  0  0  0
 25 27  1  0  0  0  0
 25 26  1  0  0  0  0
 26 24  1  6  0  0  0
 27 26  1  0  0  0  0
 28 29  1  0  0  0  0
 29 30  1  0  0  0  0
 30 31  1  0  0  0  0
 31 32  1  0  0  0  0
 32 33  1  0  0  0  0
 34 36  1  0  0  0  0
 34 33  1  0  0  0  0
 35 36  2  0  0  0  0
 36 37  1  0  0  0  0
M  END
>  <MODEL>
3

>  <REMARK>
 VINA RESULT:      -7.9      2.542      7.887
  Name = 
  14 active torsions:
  status: ('A' for Active; 'I' for Inactive)
    1  A    between atoms: C_3  and  C_9
    2  A    between atoms: C_6  and  C_28
    3  A    between atoms: C_8  and  C_30
    4  A    between atoms: C_8  and  C_37
    5  A    between atoms: C_9  and  N_13
    6  A    between atoms: N_13  and  C_20
    7  A    between atoms: C_15  and  C_33
    8  A    between atoms: C_16  and  C_30
    9  A    between atoms: C_20  and  C_35
   10  A    between atoms: C_22  and  C_32
   11  A    between atoms: C_24  and  C_28
   12  A    between atoms: C_24  and  C_33
   13  A    between atoms: C_26  and  C_34
   14  A    between atoms: C_35  and  C_37
                            x       y       z     vdW  Elec       q    Type
                         _______ _______ _______ _____ _____    ______ ____

>  <TORSDO>
F 14

$$$$
=
 OpenBabel11042412123D

 37 40  0  0  1  0  0  0  0  0999 V2000
  188.0780  178.2160  140.6190 C   0  0  0  0  0  0  0  0  0  0  0  0
  186.6740  176.9740  144.4120 F   0  0  0  0  0  0  0  0  0  0  0  0
  186.8690  178.5480  141.0640 C   0  0  0  0  0  3  0  0  0  0  0  0
  187.1610  177.4160  143.2230 C   0  0  0  0  0  0  0  0  0  0  0  0
  188.9880  177.4250  141.4700 C   0  0  0  0  0  0  0  0  0  0  0  0
  186.3870  178.1610  142.4060 C   0  0  0  0  0  0  0  0  0  0  0  0
  190.1220  177.0870  141.0310 O   0  0  0  0  0  0  0  0  0  0  0  0
  188.5560  176.9760  142.8460 C   0  0  1  0  0  3  0  0  0  0  0  0
  182.8140  179.0280  142.9560 C   0  0  0  0  0  0  0  0  0  0  0  0
  183.7830  178.4710  142.0570 C   0  0  0  0  0  0  0  0  0  0  0  0
  181.0650  178.3840  141.3150 C   0  0  0  0  0  3  0  0  0  0  0  0
  181.3490  179.0670  142.6430 C   0  0  0  0  0  2  0  0  0  0  0  0
  183.4530  177.8540  140.9240 C   0  0  0  0  0  3  0  0  0  0  0  0
  184.7610  179.1250  143.9580 N   0  0  0  0  0  0  0  0  0  0  0  0
  183.3820  179.3950  144.0550 N   0  0  0  0  0  0  0  0  0  0  0  0
  182.0240  177.8320  140.5400 C   0  0  0  0  0  3  0  0  0  0  0  0
  185.0310  178.5980  142.8000 C   0  0  0  0  0  0  0  0  0  0  0  0
  190.2060  176.5450  144.6210 C   0  0  0  0  0  3  0  0  0  0  0  0
  189.5130  177.4220  143.9050 C   0  0  0  0  0  3  0  0  0  0  0  0
  192.0820  177.7150  145.4100 O   0  0  0  0  0  0  0  0  0  0  0  0
  191.1160  176.9590  145.6940 C   0  0  0  0  0  0  0  0  0  0  0  0
  190.9630  176.4340  147.0940 C   0  0  1  0  0  3  0  0  0  0  0  0
  191.7810  177.1640  147.9550 O   0  0  0  0  0  1  0  0  0  0  0  0
  189.5230  176.5280  147.5730 C   0  0  0  0  0  2  0  0  0  0  0  0
  187.8060  178.1540  147.3540 O   0  0  0  0  0  0  0  0  0  0  0  0
  189.1240  177.9720  147.8130 C   0  0  1  0  0  3  0  0  0  0  0  0
  187.9800  178.0230  148.7450 C   0  0  0  0  0  2  0  0  0  0  0  0
  188.4690  178.5970  139.2310 C   0  0  0  0  0  2  0  0  0  0  0  0
  187.2940  178.5800  138.3720 N   0  0  0  0  0  2  0  0  0  0  0  0
  187.4730  177.5270  137.3810 C   0  0  0  0  0  2  0  0  0  0  0  0
  186.4650  177.6950  136.2540 C   0  0  0  0  0  2  0  0  0  0  0  0
  185.1280  177.0880  136.6420 C   0  0  0  0  0  2  0  0  0  0  0  0
  184.9740  175.7320  135.9720 C   0  0  0  0  0  2  0  0  0  0  0  0
  184.3580  174.7390  136.9380 C   0  0  0  0  0  2  0  0  0  0  0  0
  185.0820  172.7690  138.0660 O   0  0  0  0  0  1  0  0  0  0  0  0
  185.4090  173.8000  137.4220 C   0  0  0  0  0  0  0  0  0  0  0  0
  186.7480  174.0390  137.1280 O   0  0  0  0  0  0  0  0  0  0  0  0
  1  3  2  0  0  0  0
  1  5  1  0  0  0  0
  3  6  1  0  0  0  0
  4  2  1  0  0  0  0
  5  8  1  0  0  0  0
  6 17  1  0  0  0  0
  6  4  2  0  0  0  0
  7  5  2  0  0  0  0
  8  4  1  0  0  0  0
  8 19  1  1  0  0  0
  9 15  2  0  0  0  0
 10 17  1  0  0  0  0
 10  9  1  0  0  0  0
 11 12  1  0  0  0  0
 12  9  1  0  0  0  0
 13 10  2  0  0  0  0
 14 15  1  0  0  0  0
 16 13  1  0  0  0  0
 16 11  2  0  0  0  0
 17 14  2  0  0  0  0
 18 21  1  0  0  0  0
 19 18  2  0  0  0  0
 20 21  2  0  0  0  0
 21 22  1  0  0  0  0
 22 24  1  0  0  0  0
 22 23  1  1  0  0  0
 25 26  1  0  0  0  0
 25 27  1  0  0  0  0
 26 24  1  6  0  0  0
 26 27  1  0  0  0  0
 28  1  1  0  0  0  0
 29 28  1  0  0  0  0
 30 29  1  0  0  0  0
 31 32  1  0  0  0  0
 31 30  1  0  0  0  0
 33 32  1  0  0  0  0
 33 34  1  0  0  0  0
 34 36  1  0  0  0  0
 36 35  1  0  0  0  0
 37 36  2  0  0  0  0
M  END
>  <MODEL>
4

>  <REMARK>
 VINA RESULT:      -7.8      2.188      3.158
  Name = 
  14 active torsions:
  status: ('A' for Active; 'I' for Inactive)
    1  A    between atoms: C_3  and  C_9
    2  A    between atoms: C_6  and  C_28
    3  A    between atoms: C_8  and  C_30
    4  A    between atoms: C_8  and  C_37
    5  A    between atoms: C_9  and  N_13
    6  A    between atoms: N_13  and  C_20
    7  A    between atoms: C_15  and  C_33
    8  A    between atoms: C_16  and  C_30
    9  A    between atoms: C_20  and  C_35
   10  A    between atoms: C_22  and  C_32
   11  A    between atoms: C_24  and  C_28
   12  A    between atoms: C_24  and  C_33
   13  A    between atoms: C_26  and  C_34
   14  A    between atoms: C_35  and  C_37
                            x       y       z     vdW  Elec       q    Type
                         _______ _______ _______ _____ _____    ______ ____

>  <TORSDO>
F 14

$$$$
=
 OpenBabel11042412123D

 37 40  0  0  1  0  0  0  0  0999 V2000
  185.9340  178.5290  141.2290 C   0  0  0  0  0  0  0  0  0  0  0  0
  182.8000  179.1000  144.0140 F   0  0  0  0  0  0  0  0  0  0  0  0
  186.1460  178.4990  142.5430 C   0  0  0  0  0  3  0  0  0  0  0  0
  183.7850  178.8590  143.1100 C   0  0  0  0  0  0  0  0  0  0  0  0
  184.5680  178.7270  140.7050 C   0  0  0  0  0  0  0  0  0  0  0  0
  185.0520  178.6490  143.5240 C   0  0  0  0  0  0  0  0  0  0  0  0
  184.3760  178.7840  139.4590 O   0  0  0  0  0  0  0  0  0  0  0  0
  183.4030  178.9070  141.6490 C   0  0  1  0  0  3  0  0  0  0  0  0
  186.3970  178.2930  146.9700 C   0  0  0  0  0  0  0  0  0  0  0  0
  186.5990  178.0250  145.5760 C   0  0  0  0  0  0  0  0  0  0  0  0
  188.6580  177.3510  147.3810 C   0  0  0  0  0  3  0  0  0  0  0  0
  187.4100  177.9410  148.0180 C   0  0  0  0  0  2  0  0  0  0  0  0
  187.7380  177.5380  145.0870 C   0  0  0  0  0  3  0  0  0  0  0  0
  184.6730  179.1130  145.8950 N   0  0  0  0  0  0  0  0  0  0  0  0
  185.2880  178.9290  147.1490 N   0  0  0  0  0  0  0  0  0  0  0  0
  188.8030  177.1730  146.0490 C   0  0  0  0  0  3  0  0  0  0  0  0
  185.4040  178.5850  144.9580 C   0  0  0  0  0  0  0  0  0  0  0  0
  181.0850  178.2990  141.0850 C   0  0  0  0  0  3  0  0  0  0  0  0
  182.3160  177.9110  141.3930 C   0  0  0  0  0  3  0  0  0  0  0  0
  179.3250  176.9570  141.8680 O   0  0  0  0  0  0  0  0  0  0  0  0
  179.9960  177.3410  140.8730 C   0  0  0  0  0  0  0  0  0  0  0  0
  179.7230  176.7540  139.5160 C   0  0  1  0  0  3  0  0  0  0  0  0
  180.1190  177.6580  138.5320 O   0  0  0  0  0  1  0  0  0  0  0  0
  180.4620  175.4410  139.3160 C   0  0  0  0  0  2  0  0  0  0  0  0
  181.4500  174.0970  137.6250 O   0  0  0  0  0  0  0  0  0  0  0  0
  180.3940  174.9940  137.8680 C   0  0  1  0  0  3  0  0  0  0  0  0
  180.1720  173.5360  137.8070 C   0  0  0  0  0  2  0  0  0  0  0  0
  187.0990  178.4250  140.3030 C   0  0  0  0  0  2  0  0  0  0  0  0
  188.3350  178.5290  141.0650 N   0  0  0  0  0  2  0  0  0  0  0  0
  189.4490  178.2980  140.1540 C   0  0  0  0  0  2  0  0  0  0  0  0
  190.4060  177.2760  140.7490 C   0  0  0  0  0  2  0  0  0  0  0  0
  189.6890  176.4060  141.7660 C   0  0  0  0  0  2  0  0  0  0  0  0
  190.5730  176.2230  142.9890 C   0  0  0  0  0  2  0  0  0  0  0  0
  191.7250  177.2080  142.9530 C   0  0  0  0  0  2  0  0  0  0  0  0
  191.9350  177.7980  145.2520 O   0  0  0  0  0  1  0  0  0  0  0  0
  191.6000  178.1590  144.0930 C   0  0  0  0  0  0  0  0  0  0  0  0
  191.1530  179.4580  143.8740 O   0  0  0  0  0  0  0  0  0  0  0  0
  1  3  2  0  0  0  0
  3  6  1  0  0  0  0
  4  6  2  0  0  0  0
  4  2  1  0  0  0  0
  5  1  1  0  0  0  0
  5  8  1  0  0  0  0
  6 17  1  0  0  0  0
  7  5  2  0  0  0  0
  8 19  1  1  0  0  0
  8  4  1  0  0  0  0
  9 15  2  0  0  0  0
  9 12  1  0  0  0  0
 10  9  1  0  0  0  0
 11 12  1  0  0  0  0
 13 10  2  0  0  0  0
 13 16  1  0  0  0  0
 14 15  1  0  0  0  0
 16 11  2  0  0  0  0
 17 10  1  0  0  0  0
 17 14  2  0  0  0  0
 18 19  2  0  0  0  0
 21 18  1  0  0  0  0
 21 20  2  0  0  0  0
 22 23  1  6  0  0  0
 22 21  1  0  0  0  0
 24 22  1  0  0  0  0
 25 27  1  0  0  0  0
 25 26  1  0  0  0  0
 26 24  1  1  0  0  0
 27 26  1  0  0  0  0
 28 29  1  0  0  0  0
 28  1  1  0  0  0  0
 30 31  1  0  0  0  0
 30 29  1  0  0  0  0
 31 32  1  0  0  0  0
 32 33  1  0  0  0  0
 34 33  1  0  0  0  0
 34 36  1  0  0  0  0
 36 35  1  0  0  0  0
 37 36  2  0  0  0  0
M  END
>  <MODEL>
5

>  <REMARK>
 VINA RESULT:      -7.7      3.866      7.861
  Name = 
  14 active torsions:
  status: ('A' for Active; 'I' for Inactive)
    1  A    between atoms: C_3  and  C_9
    2  A    between atoms: C_6  and  C_28
    3  A    between atoms: C_8  and  C_30
    4  A    between atoms: C_8  and  C_37
    5  A    between atoms: C_9  and  N_13
    6  A    between atoms: N_13  and  C_20
    7  A    between atoms: C_15  and  C_33
    8  A    between atoms: C_16  and  C_30
    9  A    between atoms: C_20  and  C_35
   10  A    between atoms: C_22  and  C_32
   11  A    between atoms: C_24  and  C_28
   12  A    between atoms: C_24  and  C_33
   13  A    between atoms: C_26  and  C_34
   14  A    between atoms: C_35  and  C_37
                            x       y       z     vdW  Elec       q    Type
                         _______ _______ _______ _____ _____    ______ ____

>  <TORSDO>
F 14

$$$$
=
 OpenBabel11042412123D

 37 40  0  0  1  0  0  0  0  0999 V2000
  188.8690  176.8360  142.5570 C   0  0  0  0  0  0  0  0  0  0  0  0
  186.1510  179.5410  140.7690 F   0  0  0  0  0  0  0  0  0  0  0  0
  187.7370  177.1970  143.1580 C   0  0  0  0  0  3  0  0  0  0  0  0
  187.0030  178.6280  141.3050 C   0  0  0  0  0  0  0  0  0  0  0  0
  189.1880  177.3510  141.2110 C   0  0  0  0  0  0  0  0  0  0  0  0
  186.7580  178.1020  142.5230 C   0  0  0  0  0  0  0  0  0  0  0  0
  190.2760  177.0300  140.6590 O   0  0  0  0  0  0  0  0  0  0  0  0
  188.2430  178.2970  140.5080 C   0  0  1  0  0  3  0  0  0  0  0  0
  183.4140  178.8310  143.9720 C   0  0  0  0  0  0  0  0  0  0  0  0
  184.1680  178.5690  142.7810 C   0  0  0  0  0  0  0  0  0  0  0  0
  181.3650  178.7870  142.5710 C   0  0  0  0  0  3  0  0  0  0  0  0
  181.9250  179.0020  143.9670 C   0  0  0  0  0  2  0  0  0  0  0  0
  183.6010  178.3560  141.5950 C   0  0  0  0  0  3  0  0  0  0  0  0
  185.5040  178.5560  144.5730 N   0  0  0  0  0  0  0  0  0  0  0  0
  184.1880  178.8140  145.0050 N   0  0  0  0  0  0  0  0  0  0  0  0
  182.1290  178.4910  141.4970 C   0  0  0  0  0  3  0  0  0  0  0  0
  185.5290  178.4220  143.2790 C   0  0  0  0  0  0  0  0  0  0  0  0
  188.4070  178.2440  138.0530 C   0  0  0  0  0  3  0  0  0  0  0  0
  187.8400  177.7850  139.1620 C   0  0  0  0  0  3  0  0  0  0  0  0
  187.5050  178.6270  135.9190 O   0  0  0  0  0  0  0  0  0  0  0  0
  187.9960  177.7890  136.7210 C   0  0  0  0  0  0  0  0  0  0  0  0
  188.0740  176.3390  136.3320 C   0  0  1  0  0  3  0  0  0  0  0  0
  187.4960  176.1640  135.0760 O   0  0  0  0  0  1  0  0  0  0  0  0
  189.5110  175.8460  136.2960 C   0  0  0  0  0  2  0  0  0  0  0  0
  190.7420  174.0800  137.2980 O   0  0  0  0  0  0  0  0  0  0  0  0
  189.8800  175.1520  137.5940 C   0  0  1  0  0  3  0  0  0  0  0  0
  191.3370  175.2470  137.8120 C   0  0  0  0  0  2  0  0  0  0  0  0
  189.8310  175.9620  143.2890 C   0  0  0  0  0  2  0  0  0  0  0  0
  190.8220  176.7870  143.9640 N   0  0  0  0  0  2  0  0  0  0  0  0
  191.6810  175.9130  144.7500 C   0  0  0  0  0  2  0  0  0  0  0  0
  191.6810  176.3530  146.2070 C   0  0  0  0  0  2  0  0  0  0  0  0
  190.6160  177.4090  146.4420 C   0  0  0  0  0  2  0  0  0  0  0  0
  189.4250  176.7790  147.1460 C   0  0  0  0  0  2  0  0  0  0  0  0
  188.1400  177.4530  146.7040 C   0  0  0  0  0  2  0  0  0  0  0  0
  186.4430  178.7820  147.7190 O   0  0  0  0  0  0  0  0  0  0  0  0
  187.5570  178.2100  147.8470 C   0  0  0  0  0  0  0  0  0  0  0  0
  188.2220  178.2520  149.0680 O   0  0  0  0  0  1  0  0  0  0  0  0
  1  3  2  0  0  0  0
  1 28  1  0  0  0  0
  2  4  1  0  0  0  0
  4  6  2  0  0  0  0
  5  1  1  0  0  0  0
  6  3  1  0  0  0  0
  6 17  1  0  0  0  0
  7  5  2  0  0  0  0
  8 19  1  6  0  0  0
  8  5  1  0  0  0  0
  8  4  1  0  0  0  0
  9 15  2  0  0  0  0
 10 17  1  0  0  0  0
 10  9  1  0  0  0  0
 11 12  1  0  0  0  0
 12  9  1  0  0  0  0
 13 10  2  0  0  0  0
 14 15  1  0  0  0  0
 16 13  1  0  0  0  0
 16 11  2  0  0  0  0
 17 14  2  0  0  0  0
 18 19  2  0  0  0  0
 20 21  2  0  0  0  0
 21 18  1  0  0  0  0
 22 23  1  6  0  0  0
 22 21  1  0  0  0  0
 24 22  1  0  0  0  0
 25 26  1  0  0  0  0
 25 27  1  0  0  0  0
 26 24  1  6  0  0  0
 26 27  1  0  0  0  0
 28 29  1  0  0  0  0
 29 30  1  0  0  0  0
 30 31  1  0  0  0  0
 31 32  1  0  0  0  0
 32 33  1  0  0  0  0
 34 33  1  0  0  0  0
 34 36  1  0  0  0  0
 35 36  2  0  0  0  0
 36 37  1  0  0  0  0
M  END
>  <MODEL>
6

>  <REMARK>
 VINA RESULT:      -7.7      2.185      7.626
  Name = 
  14 active torsions:
  status: ('A' for Active; 'I' for Inactive)
    1  A    between atoms: C_3  and  C_9
    2  A    between atoms: C_6  and  C_28
    3  A    between atoms: C_8  and  C_30
    4  A    between atoms: C_8  and  C_37
    5  A    between atoms: C_9  and  N_13
    6  A    between atoms: N_13  and  C_20
    7  A    between atoms: C_15  and  C_33
    8  A    between atoms: C_16  and  C_30
    9  A    between atoms: C_20  and  C_35
   10  A    between atoms: C_22  and  C_32
   11  A    between atoms: C_24  and  C_28
   12  A    between atoms: C_24  and  C_33
   13  A    between atoms: C_26  and  C_34
   14  A    between atoms: C_35  and  C_37
                            x       y       z     vdW  Elec       q    Type
                         _______ _______ _______ _____ _____    ______ ____

>  <TORSDO>
F 14

$$$$
=
 OpenBabel11042412123D

 37 40  0  0  1  0  0  0  0  0999 V2000
  186.7000  178.4320  141.2550 C   0  0  0  0  0  0  0  0  0  0  0  0
  183.1000  179.0180  143.4000 F   0  0  0  0  0  0  0  0  0  0  0  0
  186.6640  178.4220  142.5860 C   0  0  0  0  0  3  0  0  0  0  0  0
  184.2370  178.7710  142.6980 C   0  0  0  0  0  0  0  0  0  0  0  0
  185.4550  178.6120  140.4830 C   0  0  0  0  0  0  0  0  0  0  0  0
  185.4060  178.5780  143.3440 C   0  0  0  0  0  0  0  0  0  0  0  0
  185.4980  178.6500  139.2230 O   0  0  0  0  0  0  0  0  0  0  0  0
  184.1330  178.7960  141.1910 C   0  0  1  0  0  3  0  0  0  0  0  0
  186.0980  178.3090  146.9860 C   0  0  0  0  0  0  0  0  0  0  0  0
  186.5750  178.0550  145.6580 C   0  0  0  0  0  0  0  0  0  0  0  0
  188.2960  177.5150  147.8250 C   0  0  0  0  0  3  0  0  0  0  0  0
  186.9160  178.0230  148.2090 C   0  0  0  0  0  2  0  0  0  0  0  0
  187.8150  177.6420  145.3980 C   0  0  0  0  0  3  0  0  0  0  0  0
  184.5590  179.0160  145.5960 N   0  0  0  0  0  0  0  0  0  0  0  0
  184.9370  178.8730  146.9450 N   0  0  0  0  0  0  0  0  0  0  0  0
  188.7000  177.3460  146.5470 C   0  0  0  0  0  3  0  0  0  0  0  0
  185.4850  178.5370  144.8200 C   0  0  0  0  0  0  0  0  0  0  0  0
  181.9420  178.1620  140.2670 C   0  0  0  0  0  3  0  0  0  0  0  0
  183.1190  177.7880  140.7530 C   0  0  0  0  0  3  0  0  0  0  0  0
  179.7040  177.5200  139.9610 O   0  0  0  0  0  0  0  0  0  0  0  0
  180.9170  177.1910  139.8730 C   0  0  0  0  0  0  0  0  0  0  0  0
  181.2840  175.7960  139.4480 C   0  0  1  0  0  3  0  0  0  0  0  0
  180.1570  174.9780  139.5190 O   0  0  0  0  0  1  0  0  0  0  0  0
  181.8340  175.7690  138.0320 C   0  0  0  0  0  2  0  0  0  0  0  0
  183.2370  173.9730  137.3640 O   0  0  0  0  0  0  0  0  0  0  0  0
  183.2500  175.2230  138.0090 C   0  0  1  0  0  3  0  0  0  0  0  0
  183.7010  175.0690  136.6120 C   0  0  0  0  0  2  0  0  0  0  0  0
  188.0180  178.3240  140.5650 C   0  0  0  0  0  2  0  0  0  0  0  0
  188.8130  177.2800  141.1940 N   0  0  0  0  0  2  0  0  0  0  0  0
  190.0780  177.8660  141.6170 C   0  0  0  0  0  2  0  0  0  0  0  0
  190.6420  177.0920  142.7990 C   0  0  0  0  0  2  0  0  0  0  0  0
  191.6870  177.9200  143.5260 C   0  0  0  0  0  2  0  0  0  0  0  0
  191.5720  177.6810  145.0220 C   0  0  0  0  0  2  0  0  0  0  0  0
  191.6780  176.1990  145.3240 C   0  0  0  0  0  2  0  0  0  0  0  0
  192.5380  174.9100  147.1340 O   0  0  0  0  0  0  0  0  0  0  0  0
  192.0580  176.0090  146.7520 C   0  0  0  0  0  0  0  0  0  0  0  0
  191.9210  177.0580  147.6570 O   0  0  0  0  0  1  0  0  0  0  0  0
  1  3  2  0  0  0  0
  3  6  1  0  0  0  0
  4  6  2  0  0  0  0
  4  2  1  0  0  0  0
  5  8  1  0  0  0  0
  5  1  1  0  0  0  0
  6 17  1  0  0  0  0
  7  5  2  0  0  0  0
  8 19  1  6  0  0  0
  8  4  1  0  0  0  0
  9 12  1  0  0  0  0
 10  9  1  0  0  0  0
 11 12  1  0  0  0  0
 13 10  2  0  0  0  0
 13 16  1  0  0  0  0
 14 15  1  0  0  0  0
 15  9  2  0  0  0  0
 16 11  2  0  0  0  0
 17 14  2  0  0  0  0
 17 10  1  0  0  0  0
 18 19  2  0  0  0  0
 21 20  2  0  0  0  0
 21 18  1  0  0  0  0
 22 23  1  6  0  0  0
 22 21  1  0  0  0  0
 24 22  1  0  0  0  0
 25 26  1  0  0  0  0
 26 24  1  6  0  0  0
 27 25  1  0  0  0  0
 27 26  1  0  0  0  0
 28 29  1  0  0  0  0
 28  1  1  0  0  0  0
 29 30  1  0  0  0  0
 30 31  1  0  0  0  0
 31 32  1  0  0  0  0
 32 33  1  0  0  0  0
 33 34  1  0  0  0  0
 34 36  1  0  0  0  0
 36 35  2  0  0  0  0
 36 37  1  0  0  0  0
M  END
>  <MODEL>
7

>  <REMARK>
 VINA RESULT:      -7.7      3.628      7.964
  Name = 
  14 active torsions:
  status: ('A' for Active; 'I' for Inactive)
    1  A    between atoms: C_3  and  C_9
    2  A    between atoms: C_6  and  C_28
    3  A    between atoms: C_8  and  C_30
    4  A    between atoms: C_8  and  C_37
    5  A    between atoms: C_9  and  N_13
    6  A    between atoms: N_13  and  C_20
    7  A    between atoms: C_15  and  C_33
    8  A    between atoms: C_16  and  C_30
    9  A    between atoms: C_20  and  C_35
   10  A    between atoms: C_22  and  C_32
   11  A    between atoms: C_24  and  C_28
   12  A    between atoms: C_24  and  C_33
   13  A    between atoms: C_26  and  C_34
   14  A    between atoms: C_35  and  C_37
                            x       y       z     vdW  Elec       q    Type
                         _______ _______ _______ _____ _____    ______ ____

>  <TORSDO>
F 14

$$$$
=
 OpenBabel11042412123D

 37 40  0  0  1  0  0  0  0  0999 V2000
  189.2860  177.1420  143.0980 C   0  0  0  0  0  0  0  0  0  0  0  0
  188.5360  178.5380  139.1750 F   0  0  0  0  0  0  0  0  0  0  0  0
  188.0850  177.5770  142.7240 C   0  0  0  0  0  3  0  0  0  0  0  0
  188.7760  178.0310  140.4130 C   0  0  0  0  0  0  0  0  0  0  0  0
  190.3940  177.0990  142.1230 C   0  0  0  0  0  0  0  0  0  0  0  0
  187.7990  178.0220  141.3440 C   0  0  0  0  0  0  0  0  0  0  0  0
  191.5380  176.7140  142.4910 O   0  0  0  0  0  0  0  0  0  0  0  0
  190.1810  177.5570  140.7000 C   0  0  1  0  0  3  0  0  0  0  0  0
  184.2430  179.0690  141.0860 C   0  0  0  0  0  0  0  0  0  0  0  0
  185.2610  178.4950  141.9170 C   0  0  2  0  0  3  0  0  0  0  0  0
  182.7350  179.0070  143.0580 C   0  0  0  0  0  3  0  0  0  0  0  0
  182.8560  179.3470  141.5810 C   0  0  0  0  0  3  0  0  0  0  0  0
  185.0910  178.2580  143.2160 C   0  0  0  0  0  3  0  0  0  0  0  0
  186.0830  178.9950  139.8990 N   0  0  0  0  0  0  0  0  0  0  0  0
  184.7240  179.3640  139.9250 N   0  0  0  0  0  0  0  0  0  0  0  0
  183.7530  178.5160  143.7960 C   0  0  0  0  0  3  0  0  0  0  0  0
  186.4250  178.4720  141.0400 C   0  0  0  0  0  0  0  0  0  0  0  0
  191.3900  176.7500  138.7130 C   0  0  0  0  0  3  0  0  0  0  0  0
  190.5520  176.4970  139.7110 C   0  0  0  0  0  3  0  0  0  0  0  0
  190.8340  174.9530  137.3080 O   0  0  0  0  0  0  0  0  0  0  0  0
  191.7330  175.7400  137.7070 C   0  0  0  0  0  0  0  0  0  0  0  0
  193.1430  175.5760  137.2130 C   0  0  1  0  0  3  0  0  0  0  0  0
  193.8530  176.7540  137.4380 O   0  0  0  0  0  1  0  0  0  0  0  0
  193.8500  174.4250  137.9100 C   0  0  0  0  0  2  0  0  0  0  0  0
  195.8860  174.8790  139.0450 O   0  0  0  0  0  0  0  0  0  0  0  0
  195.3560  174.5550  137.7820 C   0  0  1  0  0  3  0  0  0  0  0  0
  196.0170  173.5410  138.6280 C   0  0  0  0  0  2  0  0  0  0  0  0
  189.5080  176.7630  144.5240 C   0  0  0  0  0  2  0  0  0  0  0  0
  190.3100  177.7860  145.1790 N   0  0  0  0  0  2  0  0  0  0  0  0
  191.0880  177.1460  146.2320 C   0  0  0  0  0  2  0  0  0  0  0  0
  190.1640  176.6410  147.3300 C   0  0  0  0  0  2  0  0  0  0  0  0
  189.5580  177.8060  148.0920 C   0  0  0  0  0  2  0  0  0  0  0  0
  188.1020  177.5030  148.4060 C   0  0  0  0  0  2  0  0  0  0  0  0
  187.2360  178.7020  148.0730 C   0  0  0  0  0  2  0  0  0  0  0  0
  186.6220  177.4970  146.1120 O   0  0  0  0  0  0  0  0  0  0  0  0
  186.2860  178.3410  146.9840 C   0  0  0  0  0  0  0  0  0  0  0  0
  185.0140  178.9050  146.9500 O   0  0  0  0  0  1  0  0  0  0  0  0
  1 28  1  0  0  0  0
  2  4  1  0  0  0  0
  3  1  2  0  0  0  0
  4  8  1  0  0  0  0
  4  6  2  0  0  0  0
  5  7  2  0  0  0  0
  5  1  1  0  0  0  0
  6  3  1  0  0  0  0
  8 19  1  6  0  0  0
  8  5  1  0  0  0  0
  9 12  1  0  0  0  0
  9 10  1  0  0  0  0
 10 13  1  1  0  0  0
 11 16  1  0  0  0  0
 12 11  2  0  0  0  0
 13 16  2  0  0  0  0
 14 15  1  0  0  0  0
 14 17  2  0  0  0  0
 15  9  2  0  0  0  0
 17  6  1  0  0  0  0
 17 10  1  0  0  0  0
 18 19  2  0  0  0  0
 20 21  2  0  0  0  0
 21 18  1  0  0  0  0
 22 23  1  1  0  0  0
 22 21  1  0  0  0  0
 22 24  1  0  0  0  0
 26 24  1  1  0  0  0
 26 27  1  0  0  0  0
 26 25  1  0  0  0  0
 27 25  1  0  0  0  0
 28 29  1  0  0  0  0
 29 30  1  0  0  0  0
 30 31  1  0  0  0  0
 31 32  1  0  0  0  0
 32 33  1  0  0  0  0
 34 33  1  0  0  0  0
 35 36  2  0  0  0  0
 36 34  1  0  0  0  0
 37 36  1  0  0  0  0
M  END
>  <MODEL>
8

>  <REMARK>
 VINA RESULT:      -7.6      2.208      7.921
  Name = 
  14 active torsions:
  status: ('A' for Active; 'I' for Inactive)
    1  A    between atoms: C_3  and  C_9
    2  A    between atoms: C_6  and  C_28
    3  A    between atoms: C_8  and  C_30
    4  A    between atoms: C_8  and  C_37
    5  A    between atoms: C_9  and  N_13
    6  A    between atoms: N_13  and  C_20
    7  A    between atoms: C_15  and  C_33
    8  A    between atoms: C_16  and  C_30
    9  A    between atoms: C_20  and  C_35
   10  A    between atoms: C_22  and  C_32
   11  A    between atoms: C_24  and  C_28
   12  A    between atoms: C_24  and  C_33
   13  A    between atoms: C_26  and  C_34
   14  A    between atoms: C_35  and  C_37
                            x       y       z     vdW  Elec       q    Type
                         _______ _______ _______ _____ _____    ______ ____

>  <TORSDO>
F 14

$$$$
=
 OpenBabel11042412123D

 37 40  0  0  1  0  0  0  0  0999 V2000
  184.1380  179.1490  142.9080 C   0  0  0  0  0  0  0  0  0  0  0  0
  184.4100  177.4620  139.0370 F   0  0  0  0  0  0  0  0  0  0  0  0
  185.3040  179.0110  142.2810 C   0  0  0  0  0  3  0  0  0  0  0  0
  184.3020  178.0570  140.2540 C   0  0  0  0  0  0  0  0  0  0  0  0
  182.8860  178.7440  142.2390 C   0  0  0  0  0  0  0  0  0  0  0  0
  185.4060  178.4690  140.9110 C   0  0  0  0  0  0  0  0  0  0  0  0
  181.7870  178.8480  142.8490 O   0  0  0  0  0  0  0  0  0  0  0  0
  182.9150  178.1620  140.8450 C   0  0  1  0  0  3  0  0  0  0  0  0
  188.9400  178.0190  139.8510 C   0  0  0  0  0  0  0  0  0  0  0  0
  187.9970  177.9360  140.9280 C   0  0  2  0  0  3  0  0  0  0  0  0
  190.6310  177.0440  141.3860 C   0  0  0  0  0  3  0  0  0  0  0  0
  190.3740  177.6070  139.9980 C   0  0  0  0  0  3  0  0  0  0  0  0
  188.2880  177.3940  142.1090 C   0  0  0  0  0  3  0  0  0  0  0  0
  186.9920  178.6300  139.0560 N   0  0  0  0  0  0  0  0  0  0  0  0
  188.3540  178.4110  138.7700 N   0  0  0  0  0  0  0  0  0  0  0  0
  189.6800  176.9470  142.3400 C   0  0  0  0  0  3  0  0  0  0  0  0
  186.7530  178.3750  140.3090 C   0  0  0  0  0  0  0  0  0  0  0  0
  182.5330  179.8670  139.1120 C   0  0  0  0  0  3  0  0  0  0  0  0
  182.0370  178.9240  139.9030 C   0  0  0  0  0  3  0  0  0  0  0  0
  181.1300  180.0790  137.2400 O   0  0  0  0  0  0  0  0  0  0  0  0
  181.6840  180.6560  138.2130 C   0  0  0  0  0  0  0  0  0  0  0  0
  181.5310  182.1420  138.3860 C   0  0  1  0  0  3  0  0  0  0  0  0
  182.7870  182.7190  138.5620 O   0  0  0  0  0  1  0  0  0  0  0  0
  180.8510  182.7780  137.1850 C   0  0  0  0  0  2  0  0  0  0  0  0
  181.1510  184.5910  135.6810 O   0  0  0  0  0  0  0  0  0  0  0  0
  181.2590  184.2320  137.0370 C   0  0  1  0  0  3  0  0  0  0  0  0
  180.1160  185.0200  136.5330 C   0  0  0  0  0  2  0  0  0  0  0  0
  184.1250  179.6530  144.3120 C   0  0  0  0  0  2  0  0  0  0  0  0
  184.4080  178.5560  145.2260 N   0  0  0  0  0  2  0  0  0  0  0  0
  185.5880  178.9080  146.0040 C   0  0  0  0  0  2  0  0  0  0  0  0
  186.5700  177.7460  146.0150 C   0  0  0  0  0  2  0  0  0  0  0  0
  187.9910  178.2530  146.1880 C   0  0  0  0  0  2  0  0  0  0  0  0
  188.9700  177.1330  145.8780 C   0  0  0  0  0  2  0  0  0  0  0  0
  189.7110  176.7240  147.1350 C   0  0  0  0  0  2  0  0  0  0  0  0
  191.6020  176.7470  145.6860 O   0  0  0  0  0  0  0  0  0  0  0  0
  191.1780  176.7300  146.8710 C   0  0  0  0  0  0  0  0  0  0  0  0
  192.0780  176.7560  147.9310 O   0  0  0  0  0  1  0  0  0  0  0  0
  1 28  1  0  0  0  0
  2  4  1  0  0  0  0
  3  1  2  0  0  0  0
  4  8  1  0  0  0  0
  4  6  2  0  0  0  0
  5  7  2  0  0  0  0
  5  1  1  0  0  0  0
  6  3  1  0  0  0  0
  8 19  1  6  0  0  0
  8  5  1  0  0  0  0
  9 12  1  0  0  0  0
  9 10  1  0  0  0  0
 10 13  1  6  0  0  0
 11 16  1  0  0  0  0
 12 11  2  0  0  0  0
 13 16  2  0  0  0  0
 14 17  2  0  0  0  0
 15 14  1  0  0  0  0
 15  9  2  0  0  0  0
 17  6  1  0  0  0  0
 17 10  1  0  0  0  0
 18 19  2  0  0  0  0
 20 21  2  0  0  0  0
 21 22  1  0  0  0  0
 21 18  1  0  0  0  0
 22 23  1  6  0  0  0
 24 22  1  0  0  0  0
 25 27  1  0  0  0  0
 25 26  1  0  0  0  0
 26 24  1  6  0  0  0
 27 26  1  0  0  0  0
 28 29  1  0  0  0  0
 29 30  1  0  0  0  0
 30 31  1  0  0  0  0
 31 32  1  0  0  0  0
 33 32  1  0  0  0  0
 33 34  1  0  0  0  0
 35 36  2  0  0  0  0
 36 34  1  0  0  0  0
 36 37  1  0  0  0  0
M  END
>  <MODEL>
9

>  <REMARK>
 VINA RESULT:      -7.6      4.473      9.475
  Name = 
  14 active torsions:
  status: ('A' for Active; 'I' for Inactive)
    1  A    between atoms: C_3  and  C_9
    2  A    between atoms: C_6  and  C_28
    3  A    between atoms: C_8  and  C_30
    4  A    between atoms: C_8  and  C_37
    5  A    between atoms: C_9  and  N_13
    6  A    between atoms: N_13  and  C_20
    7  A    between atoms: C_15  and  C_33
    8  A    between atoms: C_16  and  C_30
    9  A    between atoms: C_20  and  C_35
   10  A    between atoms: C_22  and  C_32
   11  A    between atoms: C_24  and  C_28
   12  A    between atoms: C_24  and  C_33
   13  A    between atoms: C_26  and  C_34
   14  A    between atoms: C_35  and  C_37
                            x       y       z     vdW  Elec       q    Type
                         _______ _______ _______ _____ _____    ______ ____

>  <TORSDO>
F 14

$$$$
