=
 OpenBabel11032421133D

 50 55  0  0  1  0  0  0  0  0999 V2000
  183.0120  180.1530  138.8200 N   0  0  0  0  0  2  0  0  0  0  0  0
  186.0630  177.1600  137.6330 C   0  0  1  0  0  3  0  0  0  0  0  0
  182.0140  181.0480  138.3210 C   0  0  0  0  0  0  0  0  0  0  0  0
  182.0470  182.2630  138.6420 O   0  0  0  0  0  0  0  0  0  0  0  0
  182.5790  177.1640  136.8510 N   0  0  0  0  0  2  0  0  0  0  0  0
  186.5080  178.6180  141.9790 O   0  0  0  0  0  0  0  0  0  0  0  0
  185.4320  178.3010  138.4630 C   0  0  1  0  0  3  0  0  0  0  0  0
  181.3650  179.3060  136.6490 C   0  0  2  0  0  3  0  0  0  0  0  0
  181.8670  178.2060  137.5920 C   0  0  2  0  0  3  0  0  0  0  0  0
  182.9410  178.7670  138.4800 C   0  0  1  0  0  3  0  0  0  0  0  0
  187.4700  178.3090  140.0170 C   0  0  0  0  0  0  0  0  0  0  0  0
  188.1910  178.5740  137.6100 C   0  0  0  0  0  2  0  0  0  0  0  0
  183.7230  177.0010  137.4280 C   0  0  2  0  0  3  0  0  0  0  0  0
  180.9090  180.5390  137.4390 C   0  0  0  0  0  2  0  0  0  0  0  0
  188.5450  178.0330  138.9980 C   0  0  0  0  0  2  0  0  0  0  0  0
  185.5470  178.5600  141.0820 C   0  0  0  0  0  0  0  0  0  0  0  0
  187.6650  178.4630  141.3740 C   0  0  0  0  0  0  0  0  0  0  0  0
  183.9890  177.9650  138.4300 C   0  0  1  0  0  3  0  0  0  0  0  0
  186.0940  178.3440  139.8180 C   0  0  0  0  0  0  0  0  0  0  0  0
  184.9550  176.4960  136.7890 C   0  0  2  0  0  3  0  0  0  0  0  0
  185.0280  174.9890  136.9360 C   0  0  0  0  0  1  0  0  0  0  0  0
  187.2630  177.6390  136.8090 C   0  0  1  0  0  3  0  0  0  0  0  0
  189.1860  177.6890  143.1160 C   0  0  0  0  0  3  0  0  0  0  0  0
  188.9620  178.4580  142.0540 C   0  0  0  0  0  3  0  0  0  0  0  0
  190.5030  177.6530  143.8450 C   0  0  1  0  0  0  0  0  0  0  0  0
  191.2050  178.8110  143.5010 O   0  0  0  0  0  1  0  0  0  0  0  0
  190.2870  177.6600  145.3730 C   0  0  2  0  0  3  0  0  0  0  0  0
  191.2780  176.9090  146.0130 O   0  0  0  0  0  1  0  0  0  0  0  0
  188.9180  177.1430  145.8010 C   0  0  0  0  0  1  0  0  0  0  0  0
  190.5320  175.4790  142.7950 O   0  0  0  0  0  1  0  0  0  0  0  0
  191.3330  176.4350  143.4200 C   0  0  0  0  0  2  0  0  0  0  0  0
  184.1250  178.7060  141.4110 C   0  0  0  0  0  3  0  0  0  0  0  0
  183.6930  178.6290  142.6630 C   0  0  0  0  0  2  0  0  0  0  0  0
  180.2450  178.8010  135.7480 C   0  0  0  0  0  2  0  0  0  0  0  0
  180.5170  177.4840  135.2870 O   0  0  0  0  0  0  0  0  0  0  0  0
  179.5290  175.4030  134.5950 O   0  0  0  0  0  0  0  0  0  0  0  0
  178.9310  176.3980  136.5680 O   0  0  0  0  0  1  0  0  0  0  0  0
  179.6360  176.4290  135.5230 C   0  0  0  0  0  0  0  0  0  0  0  0
  188.0440  176.4420  136.2820 C   0  0  0  0  0  2  0  0  0  0  0  0
  189.4630  176.7500  136.2390 N   0  0  0  0  0  2  0  0  0  0  0  0
  189.5180  173.9710  135.9040 O   0  0  0  0  0  0  0  0  0  0  0  0
  190.4080  175.0790  138.0950 O   0  0  0  0  0  1  0  0  0  0  0  0
  190.3400  175.2760  136.5970 P   0  0  2  0  0  0  0  0  0  0  0  0
  192.0280  175.3500  135.9140 C   0  0  0  0  0  2  0  0  0  0  0  0
  193.8300  175.4490  137.4300 C   0  0  0  0  0  2  0  0  0  0  0  0
  194.7950  172.9070  136.5070 C   0  0  0  0  0  2  0  0  0  0  0  0
  194.8240  173.1730  138.0140 C   0  0  0  0  0  2  0  0  0  0  0  0
  194.8270  174.6760  138.3100 C   0  0  0  0  0  2  0  0  0  0  0  0
  193.7310  173.7480  135.7820 C   0  0  0  0  0  2  0  0  0  0  0  0
  192.9290  174.5400  136.7180 N   0  0  0  0  0  0  0  0  0  0  0  0
  2  7  1  0  0  0  0
  3  4  2  0  0  0  0
  3  1  1  0  0  0  0
  5 13  1  0  0  0  0
  5  9  1  0  0  0  0
  7 19  1  0  0  0  0
  8 14  1  0  0  0  0
  8  9  1  0  0  0  0
  9 10  1  0  0  0  0
 10  1  1  0  0  0  0
 11 17  2  0  0  0  0
 12 15  1  0  0  0  0
 13 18  1  0  0  0  0
 14  3  1  0  0  0  0
 15 11  1  0  0  0  0
 16 32  1  0  0  0  0
 16  6  1  0  0  0  0
 17  6  1  0  0  0  0
 17 24  1  0  0  0  0
 18  7  1  0  0  0  0
 18 10  1  0  0  0  0
 19 11  1  0  0  0  0
 19 16  2  0  0  0  0
 20 21  1  0  0  0  0
 20 13  1  0  0  0  0
 20  2  1  0  0  0  0
 22 12  1  0  0  0  0
 22  2  1  0  0  0  0
 23 25  1  0  0  0  0
 24 23  2  0  0  0  0
 25 27  1  0  0  0  0
 26 25  1  0  0  0  0
 27 29  1  0  0  0  0
 27 28  1  0  0  0  0
 30 31  1  0  0  0  0
 31 25  1  0  0  0  0
 32 33  2  0  0  0  0
 34  8  1  0  0  0  0
 35 38  1  0  0  0  0
 35 34  1  0  0  0  0
 36 38  2  0  0  0  0
 38 37  1  0  0  0  0
 39 22  1  0  0  0  0
 40 39  1  0  0  0  0
 40 43  1  0  0  0  0
 41 43  2  0  0  0  0
 43 42  1  0  0  0  0
 44 43  1  0  0  0  0
 44 50  1  0  0  0  0
 45 48  1  0  0  0  0
 46 47  1  0  0  0  0
 47 48  1  0  0  0  0
 49 46  1  0  0  0  0
 49 50  1  0  0  0  0
 50 45  1  0  0  0  0
M  END
>  <MODEL>
1

>  <REMARK>
 VINA RESULT:      -7.2      0.000      0.000
  Name = 
  13 active torsions:
  status: ('A' for Active; 'I' for Inactive)
    1  A    between atoms: C_1  and  C_12
    2  A    between atoms: C_1  and  C_13
    3  A    between atoms: C_1  and  C_19
    4  A    between atoms: O_8  and  C_37
    5  A    between atoms: O_8  and  C_38
    6  A    between atoms: C_15  and  N_48
    7  A    between atoms: C_15  and  P_49
    8  A    between atoms: C_17  and  C_37
    9  A    between atoms: C_20  and  C_40
   10  A    between atoms: N_23  and  C_47
   11  A    between atoms: N_23  and  P_49
   12  A    between atoms: C_29  and  C_39
   13  A    between atoms: C_45  and  C_47
                            x       y       z     vdW  Elec       q    Type
                         _______ _______ _______ _____ _____    ______ ____

>  <TORSDO>
F 13

$$$$
=
 OpenBabel11032421133D

 50 55  0  0  1  0  0  0  0  0999 V2000
  185.7150  176.6510  137.5960 N   0  0  0  0  0  2  0  0  0  0  0  0
  188.6980  177.9080  140.6280 C   0  0  1  0  0  3  0  0  0  0  0  0
  184.3880  176.1470  137.4180 C   0  0  0  0  0  0  0  0  0  0  0  0
  184.2020  175.1040  136.7410 O   0  0  0  0  0  0  0  0  0  0  0  0
  185.3730  179.1320  140.1900 N   0  0  0  0  0  2  0  0  0  0  0  0
  190.4960  177.2520  136.4390 O   0  0  0  0  0  0  0  0  0  0  0  0
  188.1770  177.2910  139.3100 C   0  0  1  0  0  3  0  0  0  0  0  0
  183.6260  177.6490  139.2650 C   0  0  2  0  0  3  0  0  0  0  0  0
  184.7740  178.6190  138.9570 C   0  0  2  0  0  3  0  0  0  0  0  0
  185.9100  177.8600  138.3320 C   0  0  1  0  0  3  0  0  0  0  0  0
  190.5830  176.7740  138.5920 C   0  0  0  0  0  0  0  0  0  0  0  0
  190.1090  175.7920  140.8700 C   0  0  0  0  0  2  0  0  0  0  0  0
  186.6460  178.9370  140.1030 C   0  0  2  0  0  3  0  0  0  0  0  0
  183.2130  176.8720  138.0090 C   0  0  0  0  0  2  0  0  0  0  0  0
  191.1550  176.4030  139.9350 C   0  0  0  0  0  2  0  0  0  0  0  0
  189.3080  177.5120  136.9410 C   0  0  0  0  0  0  0  0  0  0  0  0
  191.2790  176.8180  137.4020 C   0  0  0  0  0  0  0  0  0  0  0  0
  187.0200  178.1560  138.9830 C   0  0  1  0  0  3  0  0  0  0  0  0
  189.3060  177.2500  138.3100 C   0  0  0  0  0  0  0  0  0  0  0  0
  187.5810  178.7810  141.2370 C   0  0  2  0  0  3  0  0  0  0  0  0
  188.1400  180.1350  141.6280 C   0  0  0  0  0  1  0  0  0  0  0  0
  189.2430  176.8460  141.5890 C   0  0  1  0  0  3  0  0  0  0  0  0
  193.0650  175.1660  137.2330 C   0  0  0  0  0  3  0  0  0  0  0  0
  192.6830  176.4400  137.2220 C   0  0  0  0  0  3  0  0  0  0  0  0
  194.4960  174.7330  137.0530 C   0  0  1  0  0  0  0  0  0  0  0  0
  195.2520  175.8800  136.7960 O   0  0  0  0  0  1  0  0  0  0  0  0
  195.0400  174.0790  138.3400 C   0  0  2  0  0  3  0  0  0  0  0  0
  195.6440  175.0350  139.1610 O   0  0  0  0  0  1  0  0  0  0  0  0
  196.0320  172.9490  138.0810 C   0  0  0  0  0  1  0  0  0  0  0  0
  193.3830  173.3820  135.3900 O   0  0  0  0  0  1  0  0  0  0  0  0
  194.6350  173.7800  135.8590 C   0  0  0  0  0  2  0  0  0  0  0  0
  188.1830  178.0070  136.1400 C   0  0  0  0  0  3  0  0  0  0  0  0
  187.9470  177.5450  134.9190 C   0  0  0  0  0  2  0  0  0  0  0  0
  182.4290  178.3740  139.8670 C   0  0  0  0  0  2  0  0  0  0  0  0
  182.3750  178.1850  141.2750 O   0  0  0  0  0  0  0  0  0  0  0  0
  180.0210  178.0530  141.7540 O   0  0  0  0  0  0  0  0  0  0  0  0
  181.3940  179.4430  142.9460 O   0  0  0  0  0  1  0  0  0  0  0  0
  181.2710  178.5900  142.0260 C   0  0  0  0  0  0  0  0  0  0  0  0
  190.0360  177.5120  142.7050 C   0  0  0  0  0  2  0  0  0  0  0  0
  190.2990  176.5580  143.7700 N   0  0  0  0  0  2  0  0  0  0  0  0
  190.4170  179.1100  144.9180 O   0  0  0  0  0  0  0  0  0  0  0  0
  191.7270  177.1040  145.9590 O   0  0  0  0  0  1  0  0  0  0  0  0
  190.4270  177.4560  145.2700 P   0  0  2  0  0  0  0  0  0  0  0  0
  189.0280  177.0690  146.3720 C   0  0  0  0  0  2  0  0  0  0  0  0
  187.0120  177.9470  147.2200 C   0  0  0  0  0  2  0  0  0  0  0  0
  185.8780  177.9920  144.5830 C   0  0  0  0  0  2  0  0  0  0  0  0
  185.6120  179.1950  145.4920 C   0  0  0  0  0  2  0  0  0  0  0  0
  185.7700  178.8180  146.9680 C   0  0  0  0  0  2  0  0  0  0  0  0
  187.1670  177.2430  144.9630 C   0  0  0  0  0  2  0  0  0  0  0  0
  187.8880  177.9120  146.0480 N   0  0  0  0  0  0  0  0  0  0  0  0
  1 10  1  0  0  0  0
  2 20  1  0  0  0  0
  2 22  1  0  0  0  0
  3  1  1  0  0  0  0
  3 14  1  0  0  0  0
  4  3  2  0  0  0  0
  6 16  1  0  0  0  0
  6 17  1  0  0  0  0
  7  2  1  0  0  0  0
  8 34  1  0  0  0  0
  9  8  1  0  0  0  0
  9  5  1  0  0  0  0
 10  9  1  0  0  0  0
 10 18  1  0  0  0  0
 11 15  1  0  0  0  0
 12 22  1  0  0  0  0
 13  5  1  0  0  0  0
 13 20  1  0  0  0  0
 14  8  1  0  0  0  0
 15 12  1  0  0  0  0
 16 19  2  0  0  0  0
 17 11  2  0  0  0  0
 18  7  1  0  0  0  0
 18 13  1  0  0  0  0
 19 11  1  0  0  0  0
 19  7  1  0  0  0  0
 20 21  1  0  0  0  0
 22 39  1  0  0  0  0
 24 23  2  0  0  0  0
 24 17  1  0  0  0  0
 25 23  1  0  0  0  0
 25 27  1  0  0  0  0
 26 25  1  0  0  0  0
 27 28  1  0  0  0  0
 29 27  1  0  0  0  0
 30 31  1  0  0  0  0
 31 25  1  0  0  0  0
 32 16  1  0  0  0  0
 33 32  2  0  0  0  0
 34 35  1  0  0  0  0
 35 38  1  0  0  0  0
 36 38  2  0  0  0  0
 38 37  1  0  0  0  0
 39 40  1  0  0  0  0
 40 43  1  0  0  0  0
 41 43  2  0  0  0  0
 43 42  1  0  0  0  0
 43 44  1  0  0  0  0
 46 49  1  0  0  0  0
 46 47  1  0  0  0  0
 47 48  1  0  0  0  0
 48 45  1  0  0  0  0
 49 50  1  0  0  0  0
 50 44  1  0  0  0  0
 50 45  1  0  0  0  0
M  END
>  <MODEL>
2

>  <REMARK>
 VINA RESULT:      -6.2      3.255      7.694
  Name = 
  13 active torsions:
  status: ('A' for Active; 'I' for Inactive)
    1  A    between atoms: C_1  and  C_12
    2  A    between atoms: C_1  and  C_13
    3  A    between atoms: C_1  and  C_19
    4  A    between atoms: O_8  and  C_37
    5  A    between atoms: O_8  and  C_38
    6  A    between atoms: C_15  and  N_48
    7  A    between atoms: C_15  and  P_49
    8  A    between atoms: C_17  and  C_37
    9  A    between atoms: C_20  and  C_40
   10  A    between atoms: N_23  and  C_47
   11  A    between atoms: N_23  and  P_49
   12  A    between atoms: C_29  and  C_39
   13  A    between atoms: C_45  and  C_47
                            x       y       z     vdW  Elec       q    Type
                         _______ _______ _______ _____ _____    ______ ____

>  <TORSDO>
F 13

$$$$
=
 OpenBabel11032421133D

 50 55  0  0  1  0  0  0  0  0999 V2000
  187.1600  177.2760  142.4000 N   0  0  0  0  0  2  0  0  0  0  0  0
  187.1830  177.7140  137.9860 C   0  0  1  0  0  3  0  0  0  0  0  0
  187.7530  176.5740  143.4960 C   0  0  0  0  0  0  0  0  0  0  0  0
  187.0210  175.9690  144.3190 O   0  0  0  0  0  0  0  0  0  0  0  0
  189.9390  178.0360  140.2320 N   0  0  0  0  0  2  0  0  0  0  0  0
  183.5180  179.6360  140.0060 O   0  0  0  0  0  0  0  0  0  0  0  0
  186.5880  177.6770  139.4120 C   0  0  1  0  0  3  0  0  0  0  0  0
  189.9640  176.7520  142.3430 C   0  0  2  0  0  3  0  0  0  0  0  0
  189.4950  178.0240  141.6270 C   0  0  2  0  0  3  0  0  0  0  0  0
  187.9990  177.9950  141.4930 C   0  0  1  0  0  3  0  0  0  0  0  0
  184.2730  178.2430  138.4710 C   0  0  0  0  0  0  0  0  0  0  0  0
  185.2290  176.2130  137.3090 C   0  0  0  0  0  2  0  0  0  0  0  0
  188.8970  178.2620  139.5040 C   0  0  2  0  0  3  0  0  0  0  0  0
  189.2430  176.5810  143.6860 C   0  0  0  0  0  2  0  0  0  0  0  0
  184.3400  177.4540  137.1890 C   0  0  0  0  0  2  0  0  0  0  0  0
  184.7370  179.2920  140.3630 C   0  0  0  0  0  0  0  0  0  0  0  0
  183.2180  179.0320  138.8780 C   0  0  0  0  0  0  0  0  0  0  0  0
  187.6850  178.2400  140.2340 C   0  0  1  0  0  3  0  0  0  0  0  0
  185.2780  178.4240  139.4150 C   0  0  0  0  0  0  0  0  0  0  0  0
  188.7160  177.8520  138.0960 C   0  0  2  0  0  3  0  0  0  0  0  0
  189.2020  178.9540  137.1750 C   0  0  0  0  0  1  0  0  0  0  0  0
  186.7300  176.5200  137.1390 C   0  0  1  0  0  3  0  0  0  0  0  0
  181.5480  180.3660  137.7020 C   0  0  0  0  0  3  0  0  0  0  0  0
  181.9450  179.1850  138.1680 C   0  0  0  0  0  3  0  0  0  0  0  0
  180.2480  180.5680  136.9690 C   0  0  1  0  0  0  0  0  0  0  0  0
  179.2260  180.0720  137.7830 O   0  0  0  0  0  1  0  0  0  0  0  0
  179.9810  182.0680  136.7230 C   0  0  2  0  0  3  0  0  0  0  0  0
  180.0880  182.3700  135.3630 O   0  0  0  0  0  1  0  0  0  0  0  0
  180.9030  182.9910  137.5120 C   0  0  0  0  0  1  0  0  0  0  0  0
  179.1300  178.9450  135.5750 O   0  0  0  0  0  1  0  0  0  0  0  0
  180.2370  179.7900  135.6460 C   0  0  0  0  0  2  0  0  0  0  0  0
  185.3890  179.7760  141.5840 C   0  0  0  0  0  3  0  0  0  0  0  0
  184.8760  179.5370  142.7840 C   0  0  0  0  0  2  0  0  0  0  0  0
  191.4750  176.7460  142.5400 C   0  0  0  0  0  2  0  0  0  0  0  0
  191.9490  178.0440  142.8760 O   0  0  0  0  0  0  0  0  0  0  0  0
  191.2200  179.9000  144.2220 O   0  0  0  0  0  0  0  0  0  0  0  0
  191.9510  177.9560  145.1840 O   0  0  0  0  0  1  0  0  0  0  0  0
  191.7150  178.6060  144.1310 C   0  0  0  0  0  0  0  0  0  0  0  0
  187.0580  176.7680  135.6720 C   0  0  0  0  0  2  0  0  0  0  0  0
  187.0170  175.5170  134.9320 N   0  0  0  0  0  2  0  0  0  0  0  0
  188.3670  173.0870  134.5950 O   0  0  0  0  0  0  0  0  0  0  0  0
  188.3000  174.2790  136.9190 O   0  0  0  0  0  1  0  0  0  0  0  0
  188.3930  174.5550  135.4340 P   0  0  2  0  0  0  0  0  0  0  0  0
  189.9530  175.4250  135.0710 C   0  0  0  0  0  2  0  0  0  0  0  0
  191.7550  176.2900  136.3200 C   0  0  0  0  0  2  0  0  0  0  0  0
  193.0000  173.7030  136.3850 C   0  0  0  0  0  2  0  0  0  0  0  0
  193.0220  174.5350  137.6690 C   0  0  0  0  0  2  0  0  0  0  0  0
  192.8520  176.0260  137.3660 C   0  0  0  0  0  2  0  0  0  0  0  0
  191.8310  174.0830  135.4600 C   0  0  0  0  0  2  0  0  0  0  0  0
  190.9570  175.0890  136.0680 N   0  0  0  0  0  0  0  0  0  0  0  0
  1  3  1  0  0  0  0
  2 20  1  0  0  0  0
  2  7  1  0  0  0  0
  3 14  1  0  0  0  0
  3  4  2  0  0  0  0
  5  9  1  0  0  0  0
  6 16  1  0  0  0  0
  7 19  1  0  0  0  0
  7 18  1  0  0  0  0
  8 34  1  0  0  0  0
  8 14  1  0  0  0  0
  9  8  1  0  0  0  0
 10  9  1  0  0  0  0
 10  1  1  0  0  0  0
 11 17  2  0  0  0  0
 11 19  1  0  0  0  0
 13  5  1  0  0  0  0
 13 18  1  0  0  0  0
 15 12  1  0  0  0  0
 15 11  1  0  0  0  0
 16 32  1  0  0  0  0
 17  6  1  0  0  0  0
 18 10  1  0  0  0  0
 19 16  2  0  0  0  0
 20 13  1  0  0  0  0
 21 20  1  0  0  0  0
 22 12  1  0  0  0  0
 22  2  1  0  0  0  0
 23 24  2  0  0  0  0
 24 17  1  0  0  0  0
 25 23  1  0  0  0  0
 25 26  1  0  0  0  0
 27 25  1  0  0  0  0
 27 29  1  0  0  0  0
 28 27  1  0  0  0  0
 30 31  1  0  0  0  0
 31 25  1  0  0  0  0
 32 33  2  0  0  0  0
 34 35  1  0  0  0  0
 35 38  1  0  0  0  0
 38 36  2  0  0  0  0
 38 37  1  0  0  0  0
 39 22  1  0  0  0  0
 40 43  1  0  0  0  0
 40 39  1  0  0  0  0
 41 43  2  0  0  0  0
 43 42  1  0  0  0  0
 44 43  1  0  0  0  0
 44 50  1  0  0  0  0
 45 48  1  0  0  0  0
 46 47  1  0  0  0  0
 48 47  1  0  0  0  0
 49 50  1  0  0  0  0
 49 46  1  0  0  0  0
 50 45  1  0  0  0  0
M  END
>  <MODEL>
3

>  <REMARK>
 VINA RESULT:      -5.9      2.076      8.368
  Name = 
  13 active torsions:
  status: ('A' for Active; 'I' for Inactive)
    1  A    between atoms: C_1  and  C_12
    2  A    between atoms: C_1  and  C_13
    3  A    between atoms: C_1  and  C_19
    4  A    between atoms: O_8  and  C_37
    5  A    between atoms: O_8  and  C_38
    6  A    between atoms: C_15  and  N_48
    7  A    between atoms: C_15  and  P_49
    8  A    between atoms: C_17  and  C_37
    9  A    between atoms: C_20  and  C_40
   10  A    between atoms: N_23  and  C_47
   11  A    between atoms: N_23  and  P_49
   12  A    between atoms: C_29  and  C_39
   13  A    between atoms: C_45  and  C_47
                            x       y       z     vdW  Elec       q    Type
                         _______ _______ _______ _____ _____    ______ ____

>  <TORSDO>
F 13

$$$$
=
 OpenBabel11032421133D

 50 55  0  0  1  0  0  0  0  0999 V2000
  181.5950  180.0220  139.6890 N   0  0  0  0  0  2  0  0  0  0  0  0
  184.8300  177.3230  138.2980 C   0  0  1  0  0  3  0  0  0  0  0  0
  180.5480  180.8920  139.2530 C   0  0  0  0  0  0  0  0  0  0  0  0
  180.5040  182.0770  139.6710 O   0  0  0  0  0  0  0  0  0  0  0  0
  181.3570  177.1810  137.4810 N   0  0  0  0  0  2  0  0  0  0  0  0
  185.1600  178.4490  142.7520 O   0  0  0  0  0  0  0  0  0  0  0  0
  184.1260  178.3540  139.2100 C   0  0  1  0  0  3  0  0  0  0  0  0
  180.0150  179.2560  137.4400 C   0  0  2  0  0  3  0  0  0  0  0  0
  180.5780  178.1150  138.2960 C   0  0  2  0  0  3  0  0  0  0  0  0
  181.6110  178.6660  139.2380 C   0  0  1  0  0  3  0  0  0  0  0  0
  186.1500  178.3590  140.7820 C   0  0  0  0  0  0  0  0  0  0  0  0
  186.8670  178.8600  138.4120 C   0  0  0  0  0  2  0  0  0  0  0  0
  182.5050  177.0410  138.0560 C   0  0  2  0  0  3  0  0  0  0  0  0
  179.4800  180.3910  138.3210 C   0  0  0  0  0  2  0  0  0  0  0  0
  187.2460  178.2310  139.7550 C   0  0  0  0  0  2  0  0  0  0  0  0
  184.2090  178.4070  141.8430 C   0  0  0  0  0  0  0  0  0  0  0  0
  186.3270  178.4140  142.1490 C   0  0  0  0  0  0  0  0  0  0  0  0
  182.7060  177.9350  139.1350 C   0  0  1  0  0  3  0  0  0  0  0  0
  184.7760  178.3260  140.5720 C   0  0  0  0  0  0  0  0  0  0  0  0
  183.7690  176.6640  137.3910 C   0  0  2  0  0  3  0  0  0  0  0  0
  183.9330  175.1580  137.4180 C   0  0  0  0  0  1  0  0  0  0  0  0
  186.0030  177.9390  137.5290 C   0  0  1  0  0  3  0  0  0  0  0  0
  188.2080  177.3070  143.2390 C   0  0  0  0  0  3  0  0  0  0  0  0
  187.6190  178.4310  142.8400 C   0  0  0  0  0  3  0  0  0  0  0  0
  189.5330  177.2800  143.9530 C   0  0  1  0  0  0  0  0  0  0  0  0
  190.1380  178.5250  143.7630 O   0  0  0  0  0  1  0  0  0  0  0  0
  189.3390  177.0670  145.4690 C   0  0  2  0  0  3  0  0  0  0  0  0
  188.5150  178.0620  146.0040 O   0  0  0  0  0  1  0  0  0  0  0  0
  190.6450  177.0280  146.2550 C   0  0  0  0  0  1  0  0  0  0  0  0
  189.9420  175.7130  142.1620 O   0  0  0  0  0  1  0  0  0  0  0  0
  190.4510  176.1990  143.3670 C   0  0  0  0  0  2  0  0  0  0  0  0
  182.7790  178.4390  142.1680 C   0  0  0  0  0  3  0  0  0  0  0  0
  182.3520  178.7540  143.3840 C   0  0  0  0  0  2  0  0  0  0  0  0
  178.9330  178.7590  136.4890 C   0  0  0  0  0  2  0  0  0  0  0  0
  179.2350  179.1110  135.1450 O   0  0  0  0  0  0  0  0  0  0  0  0
  180.6820  180.9540  134.6000 O   0  0  0  0  0  0  0  0  0  0  0  0
  181.4600  178.8000  134.6050 O   0  0  0  0  0  1  0  0  0  0  0  0
  180.4930  179.5910  134.7790 C   0  0  0  0  0  0  0  0  0  0  0  0
  186.8580  176.8380  136.9160 C   0  0  0  0  0  2  0  0  0  0  0  0
  188.2540  177.2430  136.8920 N   0  0  0  0  0  2  0  0  0  0  0  0
  189.6710  174.8370  137.1020 O   0  0  0  0  0  1  0  0  0  0  0  0
  190.3540  176.6530  135.3530 O   0  0  0  0  0  0  0  0  0  0  0  0
  189.1490  176.0200  136.0120 P   0  0  2  0  0  0  0  0  0  0  0  0
  188.0970  175.2420  134.7430 C   0  0  0  0  0  2  0  0  0  0  0  0
  188.4020  172.9070  134.6610 C   0  0  0  0  0  2  0  0  0  0  0  0
  185.5900  172.4880  135.0600 C   0  0  0  0  0  2  0  0  0  0  0  0
  186.5590  171.5760  135.8170 C   0  0  0  0  0  2  0  0  0  0  0  0
  187.9220  171.5200  135.1230 C   0  0  0  0  0  2  0  0  0  0  0  0
  186.2240  173.8390  134.6900 C   0  0  0  0  0  2  0  0  0  0  0  0
  187.5780  173.9740  135.2310 N   0  0  0  0  0  0  0  0  0  0  0  0
  2  7  1  0  0  0  0
  3  4  2  0  0  0  0
  3  1  1  0  0  0  0
  5 13  1  0  0  0  0
  5  9  1  0  0  0  0
  7 19  1  0  0  0  0
  8  9  1  0  0  0  0
  8 14  1  0  0  0  0
  9 10  1  0  0  0  0
 10  1  1  0  0  0  0
 11 17  2  0  0  0  0
 12 15  1  0  0  0  0
 13 18  1  0  0  0  0
 14  3  1  0  0  0  0
 15 11  1  0  0  0  0
 16 32  1  0  0  0  0
 16  6  1  0  0  0  0
 17  6  1  0  0  0  0
 17 24  1  0  0  0  0
 18  7  1  0  0  0  0
 18 10  1  0  0  0  0
 19 11  1  0  0  0  0
 19 16  2  0  0  0  0
 20 21  1  0  0  0  0
 20 13  1  0  0  0  0
 20  2  1  0  0  0  0
 22  2  1  0  0  0  0
 22 12  1  0  0  0  0
 23 25  1  0  0  0  0
 24 23  2  0  0  0  0
 25 27  1  0  0  0  0
 26 25  1  0  0  0  0
 27 28  1  0  0  0  0
 27 29  1  0  0  0  0
 30 31  1  0  0  0  0
 31 25  1  0  0  0  0
 32 33  2  0  0  0  0
 34  8  1  0  0  0  0
 35 34  1  0  0  0  0
 36 38  2  0  0  0  0
 37 38  1  0  0  0  0
 38 35  1  0  0  0  0
 39 22  1  0  0  0  0
 40 39  1  0  0  0  0
 42 43  2  0  0  0  0
 43 40  1  0  0  0  0
 43 41  1  0  0  0  0
 44 50  1  0  0  0  0
 44 43  1  0  0  0  0
 45 48  1  0  0  0  0
 45 50  1  0  0  0  0
 46 47  1  0  0  0  0
 48 47  1  0  0  0  0
 49 46  1  0  0  0  0
 49 50  1  0  0  0  0
M  END
>  <MODEL>
4

>  <REMARK>
 VINA RESULT:      -5.7      2.691      3.291
  Name = 
  13 active torsions:
  status: ('A' for Active; 'I' for Inactive)
    1  A    between atoms: C_1  and  C_12
    2  A    between atoms: C_1  and  C_13
    3  A    between atoms: C_1  and  C_19
    4  A    between atoms: O_8  and  C_37
    5  A    between atoms: O_8  and  C_38
    6  A    between atoms: C_15  and  N_48
    7  A    between atoms: C_15  and  P_49
    8  A    between atoms: C_17  and  C_37
    9  A    between atoms: C_20  and  C_40
   10  A    between atoms: N_23  and  C_47
   11  A    between atoms: N_23  and  P_49
   12  A    between atoms: C_29  and  C_39
   13  A    between atoms: C_45  and  C_47
                            x       y       z     vdW  Elec       q    Type
                         _______ _______ _______ _____ _____    ______ ____

>  <TORSDO>
F 13

$$$$
=
 OpenBabel11032421133D

 50 55  0  0  1  0  0  0  0  0999 V2000
  180.4720  180.4570  140.9230 N   0  0  0  0  0  2  0  0  0  0  0  0
  184.1950  178.1370  140.2610 C   0  0  1  0  0  3  0  0  0  0  0  0
  179.5710  181.3930  140.3260 C   0  0  0  0  0  0  0  0  0  0  0  0
  179.2910  182.4610  140.9260 O   0  0  0  0  0  0  0  0  0  0  0  0
  181.2370  178.1470  138.2610 N   0  0  0  0  0  2  0  0  0  0  0  0
  182.8850  178.2940  144.6730 O   0  0  0  0  0  0  0  0  0  0  0  0
  183.1400  178.9450  141.0490 C   0  0  1  0  0  3  0  0  0  0  0  0
  179.8270  180.1740  138.1570 C   0  0  2  0  0  3  0  0  0  0  0  0
  180.1530  178.8820  138.9160 C   0  0  2  0  0  3  0  0  0  0  0  0
  180.7510  179.2270  140.2500 C   0  0  1  0  0  3  0  0  0  0  0  0
  184.4950  178.6300  143.2020 C   0  0  0  0  0  0  0  0  0  0  0  0
  185.9380  179.6290  141.3840 C   0  0  0  0  0  2  0  0  0  0  0  0
  182.1250  177.8970  139.1640 C   0  0  2  0  0  3  0  0  0  0  0  0
  178.9320  181.0930  138.9990 C   0  0  0  0  0  2  0  0  0  0  0  0
  185.8830  178.7310  142.6230 C   0  0  0  0  0  2  0  0  0  0  0  0
  182.3110  178.4380  143.4980 C   0  0  0  0  0  0  0  0  0  0  0  0
  184.1870  178.3950  144.5250 C   0  0  0  0  0  0  0  0  0  0  0  0
  181.8710  178.5430  140.3980 C   0  0  1  0  0  3  0  0  0  0  0  0
  183.2830  178.6340  142.5190 C   0  0  0  0  0  0  0  0  0  0  0  0
  183.5670  177.6780  138.9280 C   0  0  2  0  0  3  0  0  0  0  0  0
  183.8330  176.2010  138.7140 C   0  0  0  0  0  1  0  0  0  0  0  0
  185.5070  178.9100  140.0910 C   0  0  1  0  0  3  0  0  0  0  0  0
  186.4040  177.8690  145.3950 C   0  0  0  0  0  3  0  0  0  0  0  0
  185.1570  178.2740  145.6170 C   0  0  0  0  0  3  0  0  0  0  0  0
  187.4330  177.7300  146.4870 C   0  0  1  0  0  0  0  0  0  0  0  0
  187.0460  176.6550  147.2920 O   0  0  0  0  0  1  0  0  0  0  0  0
  188.8230  177.4120  145.8970 C   0  0  2  0  0  3  0  0  0  0  0  0
  189.8000  178.2300  146.4710 O   0  0  0  0  0  1  0  0  0  0  0  0
  188.8900  177.5470  144.3800 C   0  0  0  0  0  1  0  0  0  0  0  0
  187.9760  178.7040  148.6280 O   0  0  0  0  0  1  0  0  0  0  0  0
  187.4870  178.9940  147.3540 C   0  0  0  0  0  2  0  0  0  0  0  0
  180.8580  178.3910  143.2970 C   0  0  0  0  0  3  0  0  0  0  0  0
  180.0140  178.6660  144.2830 C   0  0  0  0  0  2  0  0  0  0  0  0
  179.1810  179.8830  136.8090 C   0  0  0  0  0  2  0  0  0  0  0  0
  179.9890  180.3650  135.7430 O   0  0  0  0  0  0  0  0  0  0  0  0
  181.1410  182.1890  134.6770 O   0  0  0  0  0  0  0  0  0  0  0  0
  179.2520  182.5480  135.9200 O   0  0  0  0  0  1  0  0  0  0  0  0
  180.0940  181.7280  135.4630 C   0  0  0  0  0  0  0  0  0  0  0  0
  186.6070  177.9700  139.6150 C   0  0  0  0  0  2  0  0  0  0  0  0
  187.9000  178.4280  140.0950 N   0  0  0  0  0  2  0  0  0  0  0  0
  190.5910  177.8280  139.6080 O   0  0  0  0  0  1  0  0  0  0  0  0
  189.1870  179.2080  137.8910 O   0  0  0  0  0  0  0  0  0  0  0  0
  189.0890  178.0540  138.8640 P   0  0  2  0  0  0  0  0  0  0  0  0
  188.6300  176.5360  137.9670 C   0  0  0  0  0  2  0  0  0  0  0  0
  189.0970  175.2240  136.0650 C   0  0  0  0  0  2  0  0  0  0  0  0
  191.8530  175.0140  136.8390 C   0  0  0  0  0  2  0  0  0  0  0  0
  191.5470  175.2510  135.3580 C   0  0  0  0  0  2  0  0  0  0  0  0
  190.1280  174.7960  135.0070 C   0  0  0  0  0  2  0  0  0  0  0  0
  190.7280  175.5170  137.7590 C   0  0  0  0  0  2  0  0  0  0  0  0
  189.6660  176.1890  137.0070 N   0  0  0  0  0  0  0  0  0  0  0  0
  2  7  1  0  0  0  0
  3  1  1  0  0  0  0
  3  4  2  0  0  0  0
  5  9  1  0  0  0  0
  5 13  1  0  0  0  0
  7 19  1  0  0  0  0
  8  9  1  0  0  0  0
  8 14  1  0  0  0  0
  9 10  1  0  0  0  0
 10 18  1  0  0  0  0
 10  1  1  0  0  0  0
 11 17  2  0  0  0  0
 12 15  1  0  0  0  0
 13 18  1  0  0  0  0
 14  3  1  0  0  0  0
 15 11  1  0  0  0  0
 16  6  1  0  0  0  0
 17  6  1  0  0  0  0
 17 24  1  0  0  0  0
 18  7  1  0  0  0  0
 19 11  1  0  0  0  0
 19 16  2  0  0  0  0
 20 13  1  0  0  0  0
 20  2  1  0  0  0  0
 21 20  1  0  0  0  0
 22  2  1  0  0  0  0
 22 12  1  0  0  0  0
 23 24  2  0  0  0  0
 23 25  1  0  0  0  0
 25 26  1  0  0  0  0
 25 31  1  0  0  0  0
 27 28  1  0  0  0  0
 27 25  1  0  0  0  0
 29 27  1  0  0  0  0
 31 30  1  0  0  0  0
 32 16  1  0  0  0  0
 32 33  2  0  0  0  0
 34  8  1  0  0  0  0
 35 34  1  0  0  0  0
 36 38  2  0  0  0  0
 38 35  1  0  0  0  0
 38 37  1  0  0  0  0
 39 22  1  0  0  0  0
 39 40  1  0  0  0  0
 42 43  2  0  0  0  0
 43 41  1  0  0  0  0
 43 40  1  0  0  0  0
 44 43  1  0  0  0  0
 45 50  1  0  0  0  0
 46 49  1  0  0  0  0
 47 46  1  0  0  0  0
 48 47  1  0  0  0  0
 48 45  1  0  0  0  0
 50 49  1  0  0  0  0
 50 44  1  0  0  0  0
M  END
>  <MODEL>
5

>  <REMARK>
 VINA RESULT:      -5.5      2.635      4.127
  Name = 
  13 active torsions:
  status: ('A' for Active; 'I' for Inactive)
    1  A    between atoms: C_1  and  C_12
    2  A    between atoms: C_1  and  C_13
    3  A    between atoms: C_1  and  C_19
    4  A    between atoms: O_8  and  C_37
    5  A    between atoms: O_8  and  C_38
    6  A    between atoms: C_15  and  N_48
    7  A    between atoms: C_15  and  P_49
    8  A    between atoms: C_17  and  C_37
    9  A    between atoms: C_20  and  C_40
   10  A    between atoms: N_23  and  C_47
   11  A    between atoms: N_23  and  P_49
   12  A    between atoms: C_29  and  C_39
   13  A    between atoms: C_45  and  C_47
                            x       y       z     vdW  Elec       q    Type
                         _______ _______ _______ _____ _____    ______ ____

>  <TORSDO>
F 13

$$$$
=
 OpenBabel11032421133D

 50 55  0  0  1  0  0  0  0  0999 V2000
  186.2210  176.3220  137.0340 N   0  0  0  0  0  2  0  0  0  0  0  0
  189.0530  177.6870  140.1630 C   0  0  1  0  0  3  0  0  0  0  0  0
  184.9250  175.7590  136.8130 C   0  0  0  0  0  0  0  0  0  0  0  0
  184.8070  174.7150  136.1240 O   0  0  0  0  0  0  0  0  0  0  0  0
  185.6890  178.7620  139.6360 N   0  0  0  0  0  2  0  0  0  0  0  0
  191.0010  177.1510  136.0250 O   0  0  0  0  0  0  0  0  0  0  0  0
  188.6000  177.0580  138.8260 C   0  0  1  0  0  3  0  0  0  0  0  0
  184.0400  177.2090  138.6480 C   0  0  2  0  0  3  0  0  0  0  0  0
  185.1510  178.2320  138.3810 C   0  0  2  0  0  3  0  0  0  0  0  0
  186.3390  177.5320  137.7860 C   0  0  1  0  0  3  0  0  0  0  0  0
  191.0470  176.6590  138.1760 C   0  0  0  0  0  0  0  0  0  0  0  0
  190.5520  175.6360  140.4320 C   0  0  0  0  0  2  0  0  0  0  0  0
  186.9720  178.6250  139.5850 C   0  0  2  0  0  3  0  0  0  0  0  0
  183.7000  176.4250  137.3740 C   0  0  0  0  0  2  0  0  0  0  0  0
  191.5960  176.3020  139.5320 C   0  0  0  0  0  2  0  0  0  0  0  0
  189.7880  177.3530  136.4930 C   0  0  0  0  0  0  0  0  0  0  0  0
  191.7750  176.7450  137.0070 C   0  0  0  0  0  0  0  0  0  0  0  0
  187.4150  177.8730  138.4710 C   0  0  1  0  0  3  0  0  0  0  0  0
  189.7590  177.0780  137.8600 C   0  0  0  0  0  0  0  0  0  0  0  0
  187.8790  178.5030  140.7450 C   0  0  2  0  0  3  0  0  0  0  0  0
  188.3640  179.8770  141.1630 C   0  0  0  0  0  1  0  0  0  0  0  0
  189.6170  176.6420  141.1320 C   0  0  1  0  0  3  0  0  0  0  0  0
  193.6320  175.1770  136.8100 C   0  0  0  0  0  3  0  0  0  0  0  0
  193.1990  176.4330  136.8660 C   0  0  0  0  0  3  0  0  0  0  0  0
  195.0860  174.8110  136.6670 C   0  0  1  0  0  0  0  0  0  0  0  0
  195.8000  175.9970  136.4750 O   0  0  0  0  0  1  0  0  0  0  0  0
  195.6140  174.1360  137.9500 C   0  0  2  0  0  3  0  0  0  0  0  0
  196.7400  174.8100  138.4330 O   0  0  0  0  0  1  0  0  0  0  0  0
  195.9570  172.6610  137.7690 C   0  0  0  0  0  1  0  0  0  0  0  0
  196.4650  174.2720  134.7600 O   0  0  0  0  0  1  0  0  0  0  0  0
  195.3070  173.9070  135.4470 C   0  0  0  0  0  2  0  0  0  0  0  0
  188.6660  177.8020  135.6620 C   0  0  0  0  0  3  0  0  0  0  0  0
  188.2630  177.1060  134.6080 C   0  0  0  0  0  2  0  0  0  0  0  0
  182.7940  177.8720  139.2200 C   0  0  0  0  0  2  0  0  0  0  0  0
  182.5960  179.1600  138.6500 O   0  0  0  0  0  0  0  0  0  0  0  0
  180.2500  178.7360  138.3250 O   0  0  0  0  0  1  0  0  0  0  0  0
  181.1510  180.7960  137.8950 O   0  0  0  0  0  0  0  0  0  0  0  0
  181.3280  179.6080  138.2780 C   0  0  0  0  0  0  0  0  0  0  0  0
  190.3460  177.3340  142.2760 C   0  0  0  0  0  2  0  0  0  0  0  0
  190.3650  176.4760  143.4490 N   0  0  0  0  0  2  0  0  0  0  0  0
  190.2980  179.1210  144.3650 O   0  0  0  0  0  0  0  0  0  0  0  0
  191.6670  177.2920  145.6330 O   0  0  0  0  0  1  0  0  0  0  0  0
  190.3810  177.5080  144.8650 P   0  0  2  0  0  0  0  0  0  0  0  0
  188.9580  177.1410  145.9430 C   0  0  0  0  0  2  0  0  0  0  0  0
  186.8100  177.8600  146.5950 C   0  0  0  0  0  2  0  0  0  0  0  0
  185.9330  177.8410  143.8610 C   0  0  0  0  0  2  0  0  0  0  0  0
  185.4930  179.0130  144.7400 C   0  0  0  0  0  2  0  0  0  0  0  0
  185.5360  178.6390  146.2250 C   0  0  0  0  0  2  0  0  0  0  0  0
  187.2320  177.1870  144.3620 C   0  0  0  0  0  2  0  0  0  0  0  0
  187.7940  177.8990  145.5120 N   0  0  0  0  0  0  0  0  0  0  0  0
  1 10  1  0  0  0  0
  2 20  1  0  0  0  0
  2 22  1  0  0  0  0
  3  1  1  0  0  0  0
  3 14  1  0  0  0  0
  4  3  2  0  0  0  0
  6 16  1  0  0  0  0
  6 17  1  0  0  0  0
  7  2  1  0  0  0  0
  8 34  1  0  0  0  0
  9  8  1  0  0  0  0
  9  5  1  0  0  0  0
 10  9  1  0  0  0  0
 10 18  1  0  0  0  0
 11 15  1  0  0  0  0
 12 22  1  0  0  0  0
 13  5  1  0  0  0  0
 13 20  1  0  0  0  0
 14  8  1  0  0  0  0
 15 12  1  0  0  0  0
 16 19  2  0  0  0  0
 17 11  2  0  0  0  0
 18  7  1  0  0  0  0
 18 13  1  0  0  0  0
 19 11  1  0  0  0  0
 19  7  1  0  0  0  0
 20 21  1  0  0  0  0
 22 39  1  0  0  0  0
 23 24  2  0  0  0  0
 24 17  1  0  0  0  0
 25 23  1  0  0  0  0
 25 27  1  0  0  0  0
 26 25  1  0  0  0  0
 27 28  1  0  0  0  0
 29 27  1  0  0  0  0
 30 31  1  0  0  0  0
 31 25  1  0  0  0  0
 32 16  1  0  0  0  0
 33 32  2  0  0  0  0
 35 34  1  0  0  0  0
 37 38  2  0  0  0  0
 38 36  1  0  0  0  0
 38 35  1  0  0  0  0
 39 40  1  0  0  0  0
 40 43  1  0  0  0  0
 41 43  2  0  0  0  0
 43 42  1  0  0  0  0
 43 44  1  0  0  0  0
 46 49  1  0  0  0  0
 46 47  1  0  0  0  0
 47 48  1  0  0  0  0
 48 45  1  0  0  0  0
 49 50  1  0  0  0  0
 50 44  1  0  0  0  0
 50 45  1  0  0  0  0
M  END
>  <MODEL>
6

>  <REMARK>
 VINA RESULT:      -5.5      3.201      7.674
  Name = 
  13 active torsions:
  status: ('A' for Active; 'I' for Inactive)
    1  A    between atoms: C_1  and  C_12
    2  A    between atoms: C_1  and  C_13
    3  A    between atoms: C_1  and  C_19
    4  A    between atoms: O_8  and  C_37
    5  A    between atoms: O_8  and  C_38
    6  A    between atoms: C_15  and  N_48
    7  A    between atoms: C_15  and  P_49
    8  A    between atoms: C_17  and  C_37
    9  A    between atoms: C_20  and  C_40
   10  A    between atoms: N_23  and  C_47
   11  A    between atoms: N_23  and  P_49
   12  A    between atoms: C_29  and  C_39
   13  A    between atoms: C_45  and  C_47
                            x       y       z     vdW  Elec       q    Type
                         _______ _______ _______ _____ _____    ______ ____

>  <TORSDO>
F 13

$$$$
=
 OpenBabel11032421133D

 50 55  0  0  1  0  0  0  0  0999 V2000
  187.1240  173.7630  136.6450 N   0  0  0  0  0  2  0  0  0  0  0  0
  189.1750  177.1830  138.5880 C   0  0  1  0  0  3  0  0  0  0  0  0
  185.9640  172.9280  136.6980 C   0  0  0  0  0  0  0  0  0  0  0  0
  186.0950  171.6790  136.7410 O   0  0  0  0  0  0  0  0  0  0  0  0
  185.8530  177.0770  137.2830 N   0  0  0  0  0  2  0  0  0  0  0  0
  191.8730  174.8180  135.7010 O   0  0  0  0  0  0  0  0  0  0  0  0
  189.0440  175.8360  137.8410 C   0  0  1  0  0  3  0  0  0  0  0  0
  184.6030  174.9460  137.2690 C   0  0  2  0  0  3  0  0  0  0  0  0
  185.6120  175.8400  136.5380 C   0  0  2  0  0  3  0  0  0  0  0  0
  186.9620  175.1800  136.5540 C   0  0  1  0  0  3  0  0  0  0  0  0
  191.5970  175.6390  137.7300 C   0  0  0  0  0  0  0  0  0  0  0  0
  190.8380  175.9860  140.1150 C   0  0  0  0  0  2  0  0  0  0  0  0
  187.1320  177.1950  137.4180 C   0  0  2  0  0  3  0  0  0  0  0  0
  184.5890  173.5330  136.6720 C   0  0  0  0  0  2  0  0  0  0  0  0
  191.9370  176.2240  139.0770 C   0  0  0  0  0  2  0  0  0  0  0  0
  190.5810  175.0000  135.8710 C   0  0  0  0  0  0  0  0  0  0  0  0
  192.5040  175.1980  136.7900 C   0  0  0  0  0  0  0  0  0  0  0  0
  187.8510  176.0540  136.9890 C   0  0  1  0  0  3  0  0  0  0  0  0
  190.3440  175.5410  137.1340 C   0  0  0  0  0  0  0  0  0  0  0  0
  187.8280  177.9300  138.4950 C   0  0  2  0  0  3  0  0  0  0  0  0
  188.0640  179.3650  138.0670 C   0  0  0  0  0  1  0  0  0  0  0  0
  189.6810  177.0000  140.0230 C   0  0  1  0  0  3  0  0  0  0  0  0
  194.5320  174.2730  137.7800 C   0  0  0  0  0  3  0  0  0  0  0  0
  193.9580  175.1530  136.9640 C   0  0  0  0  0  3  0  0  0  0  0  0
  196.0220  174.1930  137.9890 C   0  0  1  0  0  0  0  0  0  0  0  0
  196.2800  174.5680  139.3100 O   0  0  0  0  0  1  0  0  0  0  0  0
  196.5290  172.7490  137.7930 C   0  0  2  0  0  3  0  0  0  0  0  0
  197.1310  172.6050  136.5400 O   0  0  0  0  0  1  0  0  0  0  0  0
  195.4410  171.6910  137.9470 C   0  0  0  0  0  1  0  0  0  0  0  0
  198.0990  175.2860  137.4260 O   0  0  0  0  0  1  0  0  0  0  0  0
  196.7600  175.1600  137.0550 C   0  0  0  0  0  2  0  0  0  0  0  0
  189.5780  174.6700  134.8540 C   0  0  0  0  0  3  0  0  0  0  0  0
  189.2430  173.4130  134.5940 C   0  0  0  0  0  2  0  0  0  0  0  0
  183.2050  175.5510  137.2510 C   0  0  0  0  0  2  0  0  0  0  0  0
  182.3310  174.7890  136.4280 O   0  0  0  0  0  0  0  0  0  0  0  0
  180.8460  173.0070  137.0660 O   0  0  0  0  0  0  0  0  0  0  0  0
  180.1660  175.1930  137.1250 O   0  0  0  0  0  1  0  0  0  0  0  0
  181.0830  174.3620  136.8830 C   0  0  0  0  0  0  0  0  0  0  0  0
  190.1080  178.3440  140.5990 C   0  0  0  0  0  2  0  0  0  0  0  0
  189.4460  178.5770  141.8720 N   0  0  0  0  0  2  0  0  0  0  0  0
  190.9090  179.7810  143.9340 O   0  0  0  0  0  1  0  0  0  0  0  0
  191.9200  177.8210  142.5340 O   0  0  0  0  0  0  0  0  0  0  0  0
  190.6250  178.3140  143.1420 P   0  0  2  0  0  0  0  0  0  0  0  0
  190.0110  177.0920  144.3460 C   0  0  0  0  0  2  0  0  0  0  0  0
  189.1170  177.2720  146.5190 C   0  0  0  0  0  2  0  0  0  0  0  0
  186.4590  177.4670  145.4500 C   0  0  0  0  0  2  0  0  0  0  0  0
  186.8270  178.3930  146.6120 C   0  0  0  0  0  2  0  0  0  0  0  0
  188.0000  177.8280  147.4190 C   0  0  0  0  0  2  0  0  0  0  0  0
  187.6900  177.0190  144.6440 C   0  0  0  0  0  2  0  0  0  0  0  0
  188.9180  177.6580  145.1210 N   0  0  0  0  0  0  0  0  0  0  0  0
  1  3  1  0  0  0  0
  2 22  1  0  0  0  0
  3  4  2  0  0  0  0
  5 13  1  0  0  0  0
  6 16  1  0  0  0  0
  6 17  1  0  0  0  0
  7  2  1  0  0  0  0
  9 10  1  0  0  0  0
  9  8  1  0  0  0  0
  9  5  1  0  0  0  0
 10  1  1  0  0  0  0
 10 18  1  0  0  0  0
 11 15  1  0  0  0  0
 13 20  1  0  0  0  0
 14  3  1  0  0  0  0
 14  8  1  0  0  0  0
 15 12  1  0  0  0  0
 16 19  2  0  0  0  0
 17 24  1  0  0  0  0
 17 11  2  0  0  0  0
 18 13  1  0  0  0  0
 18  7  1  0  0  0  0
 19 11  1  0  0  0  0
 19  7  1  0  0  0  0
 20  2  1  0  0  0  0
 21 20  1  0  0  0  0
 22 12  1  0  0  0  0
 22 39  1  0  0  0  0
 23 25  1  0  0  0  0
 24 23  2  0  0  0  0
 25 26  1  0  0  0  0
 27 29  1  0  0  0  0
 27 25  1  0  0  0  0
 28 27  1  0  0  0  0
 31 30  1  0  0  0  0
 31 25  1  0  0  0  0
 32 16  1  0  0  0  0
 33 32  2  0  0  0  0
 34  8  1  0  0  0  0
 35 38  1  0  0  0  0
 35 34  1  0  0  0  0
 38 36  2  0  0  0  0
 38 37  1  0  0  0  0
 39 40  1  0  0  0  0
 40 43  1  0  0  0  0
 42 43  2  0  0  0  0
 43 41  1  0  0  0  0
 43 44  1  0  0  0  0
 44 50  1  0  0  0  0
 45 48  1  0  0  0  0
 46 47  1  0  0  0  0
 47 48  1  0  0  0  0
 49 50  1  0  0  0  0
 49 46  1  0  0  0  0
 50 45  1  0  0  0  0
M  END
>  <MODEL>
7

>  <REMARK>
 VINA RESULT:      -5.4      3.225      7.847
  Name = 
  13 active torsions:
  status: ('A' for Active; 'I' for Inactive)
    1  A    between atoms: C_1  and  C_12
    2  A    between atoms: C_1  and  C_13
    3  A    between atoms: C_1  and  C_19
    4  A    between atoms: O_8  and  C_37
    5  A    between atoms: O_8  and  C_38
    6  A    between atoms: C_15  and  N_48
    7  A    between atoms: C_15  and  P_49
    8  A    between atoms: C_17  and  C_37
    9  A    between atoms: C_20  and  C_40
   10  A    between atoms: N_23  and  C_47
   11  A    between atoms: N_23  and  P_49
   12  A    between atoms: C_29  and  C_39
   13  A    between atoms: C_45  and  C_47
                            x       y       z     vdW  Elec       q    Type
                         _______ _______ _______ _____ _____    ______ ____

>  <TORSDO>
F 13

$$$$
=
 OpenBabel11032421133D

 50 55  0  0  1  0  0  0  0  0999 V2000
  186.2840  174.1040  136.9910 N   0  0  0  0  0  2  0  0  0  0  0  0
  189.4440  176.9600  138.2310 C   0  0  1  0  0  3  0  0  0  0  0  0
  184.9810  173.6090  137.3130 C   0  0  0  0  0  0  0  0  0  0  0  0
  184.8010  172.3740  137.4580 O   0  0  0  0  0  0  0  0  0  0  0  0
  186.0220  177.6650  137.4960 N   0  0  0  0  0  2  0  0  0  0  0  0
  190.8930  173.8160  135.1950 O   0  0  0  0  0  0  0  0  0  0  0  0
  188.8460  175.6580  137.6510 C   0  0  1  0  0  3  0  0  0  0  0  0
  184.2960  175.9420  137.8940 C   0  0  2  0  0  3  0  0  0  0  0  0
  185.3470  176.4980  136.9260 C   0  0  2  0  0  3  0  0  0  0  0  0
  186.4680  175.5070  136.7890 C   0  0  1  0  0  3  0  0  0  0  0  0
  191.2040  174.7890  137.1500 C   0  0  0  0  0  0  0  0  0  0  0  0
  191.0020  175.4500  139.5800 C   0  0  0  0  0  2  0  0  0  0  0  0
  187.2910  177.4490  137.4100 C   0  0  2  0  0  3  0  0  0  0  0  0
  183.8200  174.5530  137.4490 C   0  0  0  0  0  2  0  0  0  0  0  0
  191.9190  175.3340  138.3600 C   0  0  0  0  0  2  0  0  0  0  0  0
  189.7410  174.3410  135.5520 C   0  0  0  0  0  0  0  0  0  0  0  0
  191.7860  174.0740  136.1240 C   0  0  0  0  0  0  0  0  0  0  0  0
  187.6120  176.1370  136.9860 C   0  0  1  0  0  3  0  0  0  0  0  0
  189.8800  174.9920  136.7770 C   0  0  0  0  0  0  0  0  0  0  0  0
  188.3330  178.0300  138.2820 C   0  0  2  0  0  3  0  0  0  0  0  0
  188.8380  179.3270  137.6820 C   0  0  0  0  0  1  0  0  0  0  0  0
  190.1390  176.7280  139.5760 C   0  0  1  0  0  3  0  0  0  0  0  0
  193.9030  173.4650  137.1710 C   0  0  0  0  0  3  0  0  0  0  0  0
  193.1890  173.6560  136.0650 C   0  0  0  0  0  3  0  0  0  0  0  0
  195.3470  173.0370  137.1560 C   0  0  1  0  0  0  0  0  0  0  0  0
  195.4020  171.7300  137.6480 O   0  0  0  0  0  1  0  0  0  0  0  0
  195.9060  173.0330  135.7180 C   0  0  2  0  0  3  0  0  0  0  0  0
  195.9690  171.7290  135.2190 O   0  0  0  0  0  1  0  0  0  0  0  0
  197.2820  173.6790  135.5950 C   0  0  0  0  0  1  0  0  0  0  0  0
  195.8530  173.7520  139.4060 O   0  0  0  0  0  1  0  0  0  0  0  0
  196.1950  173.9350  138.0660 C   0  0  0  0  0  2  0  0  0  0  0  0
  188.5190  174.2340  134.7470 C   0  0  0  0  0  3  0  0  0  0  0  0
  187.8860  173.0780  134.6020 C   0  0  0  0  0  2  0  0  0  0  0  0
  183.1140  176.8920  138.0420 C   0  0  0  0  0  2  0  0  0  0  0  0
  182.9130  177.2460  139.4040 O   0  0  0  0  0  0  0  0  0  0  0  0
  181.3780  177.9850  141.1040 O   0  0  0  0  0  1  0  0  0  0  0  0
  180.7510  176.4420  139.5320 O   0  0  0  0  0  0  0  0  0  0  0  0
  181.6490  177.1970  139.9940 C   0  0  0  0  0  0  0  0  0  0  0  0
  190.9870  177.9400  139.9400 C   0  0  0  0  0  2  0  0  0  0  0  0
  191.8960  177.6090  141.0240 N   0  0  0  0  0  2  0  0  0  0  0  0
  189.4040  178.1370  142.1870 O   0  0  0  0  0  0  0  0  0  0  0  0
  191.6110  179.0140  143.2760 O   0  0  0  0  0  1  0  0  0  0  0  0
  191.0310  177.8310  142.5320 P   0  0  2  0  0  0  0  0  0  0  0  0
  191.1530  176.3380  143.5700 C   0  0  0  0  0  2  0  0  0  0  0  0
  191.9240  175.6580  145.6910 C   0  0  0  0  0  2  0  0  0  0  0  0
  189.7230  176.9950  146.9600 C   0  0  0  0  0  2  0  0  0  0  0  0
  191.1020  177.1190  147.6130 C   0  0  0  0  0  2  0  0  0  0  0  0
  192.0170  175.9640  147.1950 C   0  0  0  0  0  2  0  0  0  0  0  0
  189.8110  176.7060  145.4530 C   0  0  0  0  0  2  0  0  0  0  0  0
  191.1960  176.7080  144.9760 N   0  0  0  0  0  0  0  0  0  0  0  0
  1  3  1  0  0  0  0
  2 20  1  0  0  0  0
  2 22  1  0  0  0  0
  3 14  1  0  0  0  0
  3  4  2  0  0  0  0
  6 16  1  0  0  0  0
  6 17  1  0  0  0  0
  7  2  1  0  0  0  0
  8 34  1  0  0  0  0
  9  5  1  0  0  0  0
  9  8  1  0  0  0  0
 10  9  1  0  0  0  0
 10 18  1  0  0  0  0
 10  1  1  0  0  0  0
 11 15  1  0  0  0  0
 13  5  1  0  0  0  0
 13 20  1  0  0  0  0
 14  8  1  0  0  0  0
 15 12  1  0  0  0  0
 16 19  2  0  0  0  0
 17 11  2  0  0  0  0
 18 13  1  0  0  0  0
 18  7  1  0  0  0  0
 19 11  1  0  0  0  0
 19  7  1  0  0  0  0
 21 20  1  0  0  0  0
 22 12  1  0  0  0  0
 22 39  1  0  0  0  0
 24 17  1  0  0  0  0
 24 23  2  0  0  0  0
 25 23  1  0  0  0  0
 25 26  1  0  0  0  0
 25 31  1  0  0  0  0
 27 25  1  0  0  0  0
 28 27  1  0  0  0  0
 29 27  1  0  0  0  0
 31 30  1  0  0  0  0
 32 16  1  0  0  0  0
 33 32  2  0  0  0  0
 34 35  1  0  0  0  0
 35 38  1  0  0  0  0
 37 38  2  0  0  0  0
 38 36  1  0  0  0  0
 39 40  1  0  0  0  0
 40 43  1  0  0  0  0
 41 43  2  0  0  0  0
 43 42  1  0  0  0  0
 43 44  1  0  0  0  0
 44 50  1  0  0  0  0
 45 48  1  0  0  0  0
 46 47  1  0  0  0  0
 48 47  1  0  0  0  0
 49 46  1  0  0  0  0
 50 49  1  0  0  0  0
 50 45  1  0  0  0  0
M  END
>  <MODEL>
8

>  <REMARK>
 VINA RESULT:      -5.3      3.215      7.685
  Name = 
  13 active torsions:
  status: ('A' for Active; 'I' for Inactive)
    1  A    between atoms: C_1  and  C_12
    2  A    between atoms: C_1  and  C_13
    3  A    between atoms: C_1  and  C_19
    4  A    between atoms: O_8  and  C_37
    5  A    between atoms: O_8  and  C_38
    6  A    between atoms: C_15  and  N_48
    7  A    between atoms: C_15  and  P_49
    8  A    between atoms: C_17  and  C_37
    9  A    between atoms: C_20  and  C_40
   10  A    between atoms: N_23  and  C_47
   11  A    between atoms: N_23  and  P_49
   12  A    between atoms: C_29  and  C_39
   13  A    between atoms: C_45  and  C_47
                            x       y       z     vdW  Elec       q    Type
                         _______ _______ _______ _____ _____    ______ ____

>  <TORSDO>
F 13

$$$$
=
 OpenBabel11032421133D

 50 55  0  0  1  0  0  0  0  0999 V2000
  185.5400  173.9280  136.9250 N   0  0  0  0  0  2  0  0  0  0  0  0
  188.3560  177.1120  138.1940 C   0  0  1  0  0  3  0  0  0  0  0  0
  184.2910  173.3000  137.2290 C   0  0  0  0  0  0  0  0  0  0  0  0
  184.2400  172.0540  137.3820 O   0  0  0  0  0  0  0  0  0  0  0  0
  184.8930  177.4450  137.3910 N   0  0  0  0  0  2  0  0  0  0  0  0
  190.1870  174.1160  135.2150 O   0  0  0  0  0  0  0  0  0  0  0  0
  187.9110  175.7500  137.6160 C   0  0  1  0  0  3  0  0  0  0  0  0
  183.3520  175.5520  137.7740 C   0  0  2  0  0  3  0  0  0  0  0  0
  184.3570  176.2080  136.8190 C   0  0  2  0  0  3  0  0  0  0  0  0
  185.5790  175.3410  136.7120 C   0  0  1  0  0  3  0  0  0  0  0  0
  190.3560  175.1310  137.1670 C   0  0  0  0  0  0  0  0  0  0  0  0
  190.0390  175.7860  139.5860 C   0  0  0  0  0  2  0  0  0  0  0  0
  186.1800  177.3640  137.3300 C   0  0  2  0  0  3  0  0  0  0  0  0
  183.0350  174.1170  137.3340 C   0  0  0  0  0  2  0  0  0  0  0  0
  190.9860  175.7590  138.3840 C   0  0  0  0  0  2  0  0  0  0  0  0
  188.9800  174.5190  135.5470 C   0  0  0  0  0  0  0  0  0  0  0  0
  191.0300  174.4740  136.1580 C   0  0  0  0  0  0  0  0  0  0  0  0
  186.6450  176.0900  136.9240 C   0  0  1  0  0  3  0  0  0  0  0  0
  189.0260  175.1910  136.7680 C   0  0  0  0  0  0  0  0  0  0  0  0
  187.1370  178.0590  138.2150 C   0  0  2  0  0  3  0  0  0  0  0  0
  187.5140  179.3980  137.6120 C   0  0  0  0  0  1  0  0  0  0  0  0
  189.0460  176.9650  139.5540 C   0  0  1  0  0  3  0  0  0  0  0  0
  193.0620  173.4890  137.0790 C   0  0  0  0  0  3  0  0  0  0  0  0
  192.4700  174.2070  136.1290 C   0  0  0  0  0  3  0  0  0  0  0  0
  194.5380  173.1910  137.0890 C   0  0  1  0  0  0  0  0  0  0  0  0
  195.0610  173.6240  135.8680 O   0  0  0  0  0  1  0  0  0  0  0  0
  195.2500  173.9670  138.2170 C   0  0  2  0  0  3  0  0  0  0  0  0
  194.7790  175.2810  138.2840 O   0  0  0  0  0  1  0  0  0  0  0  0
  196.7690  173.9890  138.0810 C   0  0  0  0  0  1  0  0  0  0  0  0
  195.0040  171.1030  135.9710 O   0  0  0  0  0  1  0  0  0  0  0  0
  194.7940  171.6840  137.2210 C   0  0  0  0  0  2  0  0  0  0  0  0
  187.7910  174.2770  134.7210 C   0  0  0  0  0  3  0  0  0  0  0  0
  187.2700  173.0640  134.5980 C   0  0  0  0  0  2  0  0  0  0  0  0
  182.0740  176.3730  137.8910 C   0  0  0  0  0  2  0  0  0  0  0  0
  181.8290  176.7440  139.2420 O   0  0  0  0  0  0  0  0  0  0  0  0
  180.9670  178.8950  138.5950 O   0  0  0  0  0  0  0  0  0  0  0  0
  181.4610  178.4260  140.7810 O   0  0  0  0  0  1  0  0  0  0  0  0
  181.4200  178.0330  139.5840 C   0  0  0  0  0  0  0  0  0  0  0  0
  189.7540  178.2640  139.9210 C   0  0  0  0  0  2  0  0  0  0  0  0
  189.1720  178.8260  141.1290 N   0  0  0  0  0  2  0  0  0  0  0  0
  190.4940  179.4320  143.5230 O   0  0  0  0  0  1  0  0  0  0  0  0
  191.2870  177.4550  142.0100 O   0  0  0  0  0  0  0  0  0  0  0  0
  190.0430  178.1640  142.4980 P   0  0  2  0  0  0  0  0  0  0  0  0
  188.9950  176.9930  143.4210 C   0  0  0  0  0  2  0  0  0  0  0  0
  187.8800  177.1770  145.4890 C   0  0  0  0  0  2  0  0  0  0  0  0
  185.4750  178.0100  144.1620 C   0  0  0  0  0  2  0  0  0  0  0  0
  185.8650  178.7400  145.4490 C   0  0  0  0  0  2  0  0  0  0  0  0
  186.7890  177.8780  146.3150 C   0  0  0  0  0  2  0  0  0  0  0  0
  186.6860  177.3820  143.4520 C   0  0  0  0  0  2  0  0  0  0  0  0
  187.9450  177.7090  144.1270 N   0  0  0  0  0  0  0  0  0  0  0  0
  1  3  1  0  0  0  0
  2 20  1  0  0  0  0
  2 22  1  0  0  0  0
  3 14  1  0  0  0  0
  3  4  2  0  0  0  0
  6 16  1  0  0  0  0
  6 17  1  0  0  0  0
  7  2  1  0  0  0  0
  8 34  1  0  0  0  0
  9  5  1  0  0  0  0
  9  8  1  0  0  0  0
 10  9  1  0  0  0  0
 10 18  1  0  0  0  0
 10  1  1  0  0  0  0
 11 15  1  0  0  0  0
 13  5  1  0  0  0  0
 13 20  1  0  0  0  0
 14  8  1  0  0  0  0
 15 12  1  0  0  0  0
 16 19  2  0  0  0  0
 17 11  2  0  0  0  0
 18 13  1  0  0  0  0
 18  7  1  0  0  0  0
 19 11  1  0  0  0  0
 19  7  1  0  0  0  0
 21 20  1  0  0  0  0
 22 12  1  0  0  0  0
 22 39  1  0  0  0  0
 23 25  1  0  0  0  0
 24 17  1  0  0  0  0
 24 23  2  0  0  0  0
 25 31  1  0  0  0  0
 25 27  1  0  0  0  0
 26 25  1  0  0  0  0
 27 28  1  0  0  0  0
 29 27  1  0  0  0  0
 30 31  1  0  0  0  0
 32 16  1  0  0  0  0
 33 32  2  0  0  0  0
 34 35  1  0  0  0  0
 35 38  1  0  0  0  0
 36 38  2  0  0  0  0
 38 37  1  0  0  0  0
 39 40  1  0  0  0  0
 40 43  1  0  0  0  0
 42 43  2  0  0  0  0
 43 44  1  0  0  0  0
 43 41  1  0  0  0  0
 44 50  1  0  0  0  0
 45 48  1  0  0  0  0
 46 47  1  0  0  0  0
 47 48  1  0  0  0  0
 49 50  1  0  0  0  0
 49 46  1  0  0  0  0
 50 45  1  0  0  0  0
M  END
>  <MODEL>
9

>  <REMARK>
 VINA RESULT:      -5.3      3.012      7.508
  Name = 
  13 active torsions:
  status: ('A' for Active; 'I' for Inactive)
    1  A    between atoms: C_1  and  C_12
    2  A    between atoms: C_1  and  C_13
    3  A    between atoms: C_1  and  C_19
    4  A    between atoms: O_8  and  C_37
    5  A    between atoms: O_8  and  C_38
    6  A    between atoms: C_15  and  N_48
    7  A    between atoms: C_15  and  P_49
    8  A    between atoms: C_17  and  C_37
    9  A    between atoms: C_20  and  C_40
   10  A    between atoms: N_23  and  C_47
   11  A    between atoms: N_23  and  P_49
   12  A    between atoms: C_29  and  C_39
   13  A    between atoms: C_45  and  C_47
                            x       y       z     vdW  Elec       q    Type
                         _______ _______ _______ _____ _____    ______ ____

>  <TORSDO>
F 13

$$$$
