=
 OpenBabel11042412283D

 27 30  0  0  1  0  0  0  0  0999 V2000
  191.7150  176.7300  145.8830 C   0  0  0  0  0  3  0  0  0  0  0  0
  190.4910  176.9800  147.7310 N   0  0  0  0  0  0  0  0  0  0  0  0
  185.9380  177.8320  143.5620 C   0  0  2  0  0  3  0  0  0  0  0  0
  185.6100  178.2470  146.0640 C   0  0  0  0  0  3  0  0  0  0  0  0
  189.7060  177.1790  146.5720 C   0  0  0  0  0  0  0  0  0  0  0  0
  188.1910  177.7590  142.6750 C   0  0  0  0  0  0  0  0  0  0  0  0
  191.6710  176.7150  147.3220 N   0  0  0  0  0  2  0  0  0  0  0  0
  184.0330  179.1550  144.4210 C   0  0  0  0  0  3  0  0  0  0  0  0
  190.4910  177.0140  145.4810 C   0  0  0  0  0  0  0  0  0  0  0  0
  186.5330  177.9300  144.9530 C   0  0  1  0  0  3  0  0  0  0  0  0
  184.4270  178.8130  145.8050 C   0  0  0  0  0  3  0  0  0  0  0  0
  188.7020  177.4680  144.0330 C   0  0  0  0  0  0  0  0  0  0  0  0
  190.0240  177.1640  144.2180 N   0  0  0  0  0  0  0  0  0  0  0  0
  187.8310  177.6280  145.1550 C   0  0  0  0  0  0  0  0  0  0  0  0
  186.9280  178.0060  142.4980 N   0  0  0  0  0  0  0  0  0  0  0  0
  188.3600  177.4960  146.4590 C   0  0  0  0  0  3  0  0  0  0  0  0
  184.7590  178.7450  143.3730 C   0  0  0  0  0  3  0  0  0  0  0  0
  189.1320  177.9170  141.5230 C   0  0  0  0  0  2  0  0  0  0  0  0
  188.3940  178.3810  140.2730 C   0  0  0  0  0  2  0  0  0  0  0  0
  189.2880  178.3210  139.0400 C   0  0  0  0  0  2  0  0  0  0  0  0
  188.4660  178.2950  137.7560 C   0  0  0  0  0  2  0  0  0  0  0  0
  187.0700  177.8280  138.0180 C   0  0  0  0  0  3  0  0  0  0  0  0
  186.0760  178.6190  137.8410 N   0  0  0  0  0  0  0  0  0  0  0  0
  184.7290  178.1760  138.0920 C   0  0  0  0  0  2  0  0  0  0  0  0
  182.8220  179.1130  139.1730 O   0  0  0  0  0  0  0  0  0  0  0  0
  184.0770  179.0380  139.1190 C   0  0  0  0  0  0  0  0  0  0  0  0
  184.8530  179.7310  140.0380 O   0  0  0  0  0  1  0  0  0  0  0  0
  1  7  1  0  0  0  0
  3 17  1  1  0  0  0
  3 10  1  0  0  0  0
  5  2  2  0  0  0  0
  6 12  1  0  0  0  0
  7  2  1  0  0  0  0
  8 11  1  0  0  0  0
  9  1  2  0  0  0  0
  9  5  1  0  0  0  0
 10 14  1  0  0  0  0
 10  4  1  1  0  0  0
 11  4  2  0  0  0  0
 12 13  2  0  0  0  0
 12 14  1  0  0  0  0
 13  9  1  0  0  0  0
 14 16  2  0  0  0  0
 15  6  2  0  0  0  0
 15  3  1  0  0  0  0
 16  5  1  0  0  0  0
 17  8  2  0  0  0  0
 18  6  1  0  0  0  0
 19 18  1  0  0  0  0
 20 19  1  0  0  0  0
 21 22  1  0  0  0  0
 21 20  1  0  0  0  0
 23 22  2  0  0  0  0
 23 24  1  0  0  0  0
 24 26  1  0  0  0  0
 26 25  2  0  0  0  0
 26 27  1  0  0  0  0
M  END
>  <MODEL>
1

>  <REMARK>
 VINA RESULT:      -9.1      0.000      0.000
  Name = 
  7 active torsions:
  status: ('A' for Active; 'I' for Inactive)
    1  A    between atoms: C_4  and  C_20
    2  A    between atoms: C_4  and  N_24
    3  A    between atoms: C_5  and  C_12
    4  A    between atoms: C_5  and  C_25
    5  A    between atoms: C_6  and  C_7
    6  A    between atoms: C_6  and  C_25
    7  A    between atoms: C_10  and  C_12
                            x       y       z     vdW  Elec       q    Type
                         _______ _______ _______ _____ _____    ______ ____

>  <TORSDO>
F 7

$$$$
=
 OpenBabel11042412283D

 27 30  0  0  1  0  0  0  0  0999 V2000
  191.7400  176.6750  145.7460 C   0  0  0  0  0  3  0  0  0  0  0  0
  190.6190  177.0240  147.6420 N   0  0  0  0  0  0  0  0  0  0  0  0
  185.8500  177.7010  143.6890 C   0  0  2  0  0  3  0  0  0  0  0  0
  185.6600  178.2410  146.1820 C   0  0  0  0  0  3  0  0  0  0  0  0
  189.7730  177.1720  146.5190 C   0  0  0  0  0  0  0  0  0  0  0  0
  188.0510  177.5690  142.6860 C   0  0  0  0  0  0  0  0  0  0  0  0
  191.7740  176.7310  147.1840 N   0  0  0  0  0  2  0  0  0  0  0  0
  184.0010  179.0790  144.5830 C   0  0  0  0  0  3  0  0  0  0  0  0
  190.4970  176.9480  145.3970 C   0  0  0  0  0  0  0  0  0  0  0  0
  186.5200  177.8640  145.0400 C   0  0  1  0  0  3  0  0  0  0  0  0
  184.4670  178.8030  145.9590 C   0  0  0  0  0  3  0  0  0  0  0  0
  188.6340  177.3420  144.0270 C   0  0  0  0  0  0  0  0  0  0  0  0
  189.9630  177.0380  144.1550 N   0  0  0  0  0  0  0  0  0  0  0  0
  187.8260  177.5630  145.1860 C   0  0  0  0  0  0  0  0  0  0  0  0
  186.7810  177.8160  142.5650 N   0  0  0  0  0  0  0  0  0  0  0  0
  188.4240  177.4920  146.4640 C   0  0  0  0  0  3  0  0  0  0  0  0
  184.6660  178.6120  143.5190 C   0  0  0  0  0  3  0  0  0  0  0  0
  188.9280  177.6630  141.4790 C   0  0  0  0  0  2  0  0  0  0  0  0
  188.2690  178.4970  140.3860 C   0  0  0  0  0  2  0  0  0  0  0  0
  188.9830  178.3350  139.0490 C   0  0  0  0  0  2  0  0  0  0  0  0
  188.8390  176.9180  138.5090 C   0  0  0  0  0  2  0  0  0  0  0  0
  190.1100  176.4510  137.8740 C   0  0  0  0  0  3  0  0  0  0  0  0
  190.9420  175.7340  138.5360 N   0  0  0  0  0  0  0  0  0  0  0  0
  192.1680  175.2810  137.9320 C   0  0  0  0  0  2  0  0  0  0  0  0
  193.4870  176.8760  139.1130 O   0  0  0  0  0  1  0  0  0  0  0  0
  193.2130  176.3420  138.0080 C   0  0  0  0  0  0  0  0  0  0  0  0
  193.9070  176.7160  136.8650 O   0  0  0  0  0  0  0  0  0  0  0  0
  1  7  1  0  0  0  0
  3 17  1  6  0  0  0
  3 10  1  0  0  0  0
  5  2  2  0  0  0  0
  6 12  1  0  0  0  0
  7  2  1  0  0  0  0
  8 11  1  0  0  0  0
  9  1  2  0  0  0  0
  9  5  1  0  0  0  0
 10 14  1  0  0  0  0
 10  4  1  1  0  0  0
 11  4  2  0  0  0  0
 12 13  2  0  0  0  0
 12 14  1  0  0  0  0
 13  9  1  0  0  0  0
 14 16  2  0  0  0  0
 15  6  2  0  0  0  0
 15  3  1  0  0  0  0
 16  5  1  0  0  0  0
 17  8  2  0  0  0  0
 18  6  1  0  0  0  0
 19 18  1  0  0  0  0
 20 19  1  0  0  0  0
 21 20  1  0  0  0  0
 22 21  1  0  0  0  0
 22 23  2  0  0  0  0
 24 26  1  0  0  0  0
 24 23  1  0  0  0  0
 26 25  1  0  0  0  0
 27 26  2  0  0  0  0
M  END
>  <MODEL>
2

>  <REMARK>
 VINA RESULT:      -9.1      3.162      3.956
  Name = 
  7 active torsions:
  status: ('A' for Active; 'I' for Inactive)
    1  A    between atoms: C_4  and  C_20
    2  A    between atoms: C_4  and  N_24
    3  A    between atoms: C_5  and  C_12
    4  A    between atoms: C_5  and  C_25
    5  A    between atoms: C_6  and  C_7
    6  A    between atoms: C_6  and  C_25
    7  A    between atoms: C_10  and  C_12
                            x       y       z     vdW  Elec       q    Type
                         _______ _______ _______ _____ _____    ______ ____

>  <TORSDO>
F 7

$$$$
=
 OpenBabel11042412283D

 27 30  0  0  1  0  0  0  0  0999 V2000
  184.3880  178.7280  144.1620 C   0  0  0  0  0  3  0  0  0  0  0  0
  184.6290  178.6620  146.3780 N   0  0  0  0  0  0  0  0  0  0  0  0
  190.5420  177.4420  144.8350 C   0  0  2  0  0  3  0  0  0  0  0  0
  189.6810  177.2710  147.2380 C   0  0  0  0  0  3  0  0  0  0  0  0
  185.8460  178.3580  145.7270 C   0  0  0  0  0  0  0  0  0  0  0  0
  188.9420  177.4170  143.0160 C   0  0  0  0  0  0  0  0  0  0  0  0
  183.7740  178.8800  145.4550 N   0  0  0  0  0  2  0  0  0  0  0  0
  191.7960  176.2180  146.5800 C   0  0  0  0  0  3  0  0  0  0  0  0
  185.6490  178.4130  144.3880 C   0  0  0  0  0  0  0  0  0  0  0  0
  189.3760  177.4740  145.8050 C   0  0  1  0  0  3  0  0  0  0  0  0
  190.8300  176.6890  147.5960 C   0  0  0  0  0  3  0  0  0  0  0  0
  187.8810  177.8340  143.9600 C   0  0  0  0  0  0  0  0  0  0  0  0
  186.6320  178.1460  143.4950 N   0  0  0  0  0  0  0  0  0  0  0  0
  188.1410  177.7860  145.3660 C   0  0  0  0  0  0  0  0  0  0  0  0
  190.1370  177.1610  143.4560 N   0  0  0  0  0  0  0  0  0  0  0  0
  187.0830  178.0400  146.2680 C   0  0  0  0  0  3  0  0  0  0  0  0
  191.6420  176.5220  145.2850 C   0  0  0  0  0  3  0  0  0  0  0  0
  188.6210  177.1440  141.5810 C   0  0  0  0  0  2  0  0  0  0  0  0
  189.8710  177.2360  140.7140 C   0  0  0  0  0  2  0  0  0  0  0  0
  189.5500  177.0100  139.2410 C   0  0  0  0  0  2  0  0  0  0  0  0
  189.0080  178.2750  138.5870 C   0  0  0  0  0  2  0  0  0  0  0  0
  187.5830  178.0990  138.1700 C   0  0  0  0  0  3  0  0  0  0  0  0
  186.6300  178.5190  138.9200 N   0  0  0  0  0  0  0  0  0  0  0  0
  185.2550  178.3540  138.5260 C   0  0  0  0  0  2  0  0  0  0  0  0
  184.2000  180.4200  139.0720 O   0  0  0  0  0  0  0  0  0  0  0  0
  184.3640  179.2070  139.3620 C   0  0  0  0  0  0  0  0  0  0  0  0
  183.6880  178.6560  140.4430 O   0  0  0  0  0  1  0  0  0  0  0  0
  1  9  2  0  0  0  0
  1  7  1  0  0  0  0
  3 17  1  1  0  0  0
  3 10  1  0  0  0  0
  4 11  2  0  0  0  0
  5 16  1  0  0  0  0
  5  2  2  0  0  0  0
  6 15  2  0  0  0  0
  6 12  1  0  0  0  0
  7  2  1  0  0  0  0
  8 11  1  0  0  0  0
  9  5  1  0  0  0  0
 10  4  1  1  0  0  0
 12 14  1  0  0  0  0
 13 12  2  0  0  0  0
 13  9  1  0  0  0  0
 14 10  1  0  0  0  0
 14 16  2  0  0  0  0
 15  3  1  0  0  0  0
 17  8  2  0  0  0  0
 18  6  1  0  0  0  0
 19 18  1  0  0  0  0
 20 19  1  0  0  0  0
 21 20  1  0  0  0  0
 22 21  1  0  0  0  0
 22 23  2  0  0  0  0
 24 23  1  0  0  0  0
 24 26  1  0  0  0  0
 25 26  2  0  0  0  0
 26 27  1  0  0  0  0
M  END
>  <MODEL>
3

>  <REMARK>
 VINA RESULT:      -9.1      1.545      4.250
  Name = 
  7 active torsions:
  status: ('A' for Active; 'I' for Inactive)
    1  A    between atoms: C_4  and  C_20
    2  A    between atoms: C_4  and  N_24
    3  A    between atoms: C_5  and  C_12
    4  A    between atoms: C_5  and  C_25
    5  A    between atoms: C_6  and  C_7
    6  A    between atoms: C_6  and  C_25
    7  A    between atoms: C_10  and  C_12
                            x       y       z     vdW  Elec       q    Type
                         _______ _______ _______ _____ _____    ______ ____

>  <TORSDO>
F 7

$$$$
=
 OpenBabel11042412283D

 27 30  0  0  1  0  0  0  0  0999 V2000
  188.9960  177.4140  140.4620 C   0  0  0  0  0  3  0  0  0  0  0  0
  190.8990  177.0490  141.5650 N   0  0  0  0  0  0  0  0  0  0  0  0
  187.1280  177.5300  146.5020 C   0  0  2  0  0  3  0  0  0  0  0  0
  189.6740  177.4160  146.7190 C   0  0  0  0  0  3  0  0  0  0  0  0
  189.8270  177.2590  142.4610 C   0  0  0  0  0  0  0  0  0  0  0  0
  186.1630  178.1380  144.3640 C   0  0  0  0  0  0  0  0  0  0  0  0
  190.4070  177.1410  140.3900 N   0  0  0  0  0  0  0  0  0  0  0  0
  188.2860  178.2050  148.5800 C   0  0  0  0  0  3  0  0  0  0  0  0
  188.6970  177.4720  141.7460 C   0  0  1  0  0  3  0  0  0  0  0  0
  188.4910  177.5210  145.8370 C   0  0  1  0  0  3  0  0  0  0  0  0
  189.5670  177.7290  148.0140 C   0  0  0  0  0  3  0  0  0  0  0  0
  187.4240  177.7420  143.6980 C   0  0  0  0  0  0  0  0  0  0  0  0
  187.5010  177.7270  142.3310 N   0  0  0  0  0  0  0  0  0  0  0  0
  188.5870  177.4980  144.4930 C   0  0  0  0  0  0  0  0  0  0  0  0
  186.0800  178.1110  145.6610 N   0  0  0  0  0  0  0  0  0  0  0  0
  189.8230  177.2680  143.8490 C   0  0  0  0  0  3  0  0  0  0  0  0
  187.1550  178.1620  147.8650 C   0  0  0  0  0  3  0  0  0  0  0  0
  185.0290  178.7070  143.5740 C   0  0  0  0  0  2  0  0  0  0  0  0
  183.7180  178.6010  144.3440 C   0  0  0  0  0  2  0  0  0  0  0  0
  182.6230  179.4500  143.7080 C   0  0  0  0  0  2  0  0  0  0  0  0
  181.6950  178.6060  142.8430 C   0  0  0  0  0  2  0  0  0  0  0  0
  182.0140  178.7670  141.3910 C   0  0  0  0  0  3  0  0  0  0  0  0
  182.9920  178.1230  140.8660 N   0  0  0  0  0  0  0  0  0  0  0  0
  183.3070  178.2730  139.4680 C   0  0  0  0  0  2  0  0  0  0  0  0
  184.2860  180.4060  139.0530 O   0  0  0  0  0  0  0  0  0  0  0  0
  184.4730  179.1840  139.2890 C   0  0  0  0  0  0  0  0  0  0  0  0
  185.7650  178.6930  139.4160 O   0  0  0  0  0  1  0  0  0  0  0  0
  2  5  2  0  0  0  0
  3 17  1  1  0  0  0
  4 11  2  0  0  0  0
  5 16  1  0  0  0  0
  6 15  2  0  0  0  0
  7  1  2  0  0  0  0
  7  2  1  0  0  0  0
  9  1  1  6  0  0  0
  9 13  1  0  0  0  0
  9  5  1  0  0  0  0
 10  3  1  0  0  0  0
 10  4  1  1  0  0  0
 11  8  1  0  0  0  0
 12  6  1  0  0  0  0
 12 14  1  0  0  0  0
 13 12  2  0  0  0  0
 14 10  1  0  0  0  0
 15  3  1  0  0  0  0
 16 14  2  0  0  0  0
 17  8  2  0  0  0  0
 18 19  1  0  0  0  0
 18  6  1  0  0  0  0
 20 19  1  0  0  0  0
 21 20  1  0  0  0  0
 22 21  1  0  0  0  0
 23 22  2  0  0  0  0
 24 23  1  0  0  0  0
 25 26  2  0  0  0  0
 26 27  1  0  0  0  0
 26 24  1  0  0  0  0
M  END
>  <MODEL>
4

>  <REMARK>
 VINA RESULT:      -8.8      2.239      4.689
  Name = 
  7 active torsions:
  status: ('A' for Active; 'I' for Inactive)
    1  A    between atoms: C_4  and  C_20
    2  A    between atoms: C_4  and  N_24
    3  A    between atoms: C_5  and  C_12
    4  A    between atoms: C_5  and  C_25
    5  A    between atoms: C_6  and  C_7
    6  A    between atoms: C_6  and  C_25
    7  A    between atoms: C_10  and  C_12
                            x       y       z     vdW  Elec       q    Type
                         _______ _______ _______ _____ _____    ______ ____

>  <TORSDO>
F 7

$$$$
=
 OpenBabel11042412283D

 27 30  0  0  1  0  0  0  0  0999 V2000
  184.3550  178.7690  144.4050 C   0  0  0  0  0  3  0  0  0  0  0  0
  184.7100  178.6290  146.6030 N   0  0  0  0  0  0  0  0  0  0  0  0
  190.5240  177.4180  144.7180 C   0  0  2  0  0  3  0  0  0  0  0  0
  189.7870  177.1740  147.1550 C   0  0  0  0  0  3  0  0  0  0  0  0
  185.8890  178.3370  145.8800 C   0  0  0  0  0  0  0  0  0  0  0  0
  188.8330  177.4630  142.9840 C   0  0  0  0  0  0  0  0  0  0  0  0
  183.8110  178.8830  145.7330 N   0  0  0  0  0  2  0  0  0  0  0  0
  191.8560  176.1280  146.3550 C   0  0  0  0  0  3  0  0  0  0  0  0
  185.6240  178.4380  144.5560 C   0  0  0  0  0  0  0  0  0  0  0  0
  189.4100  177.4260  145.7470 C   0  0  1  0  0  3  0  0  0  0  0  0
  190.9480  176.5720  147.4350 C   0  0  0  0  0  3  0  0  0  0  0  0
  187.8260  177.8570  143.9950 C   0  0  0  0  0  0  0  0  0  0  0  0
  186.5570  178.1930  143.6050 N   0  0  0  0  0  0  0  0  0  0  0  0
  188.1570  177.7610  145.3830 C   0  0  0  0  0  0  0  0  0  0  0  0
  190.0470  177.1850  143.3530 N   0  0  0  0  0  0  0  0  0  0  0  0
  187.1500  177.9930  146.3460 C   0  0  0  0  0  3  0  0  0  0  0  0
  191.6380  176.4760  145.0810 C   0  0  0  0  0  3  0  0  0  0  0  0
  188.4360  177.2400  141.5600 C   0  0  0  0  0  2  0  0  0  0  0  0
  189.6180  177.4570  140.6220 C   0  0  0  0  0  2  0  0  0  0  0  0
  189.2260  178.2960  139.4110 C   0  0  0  0  0  2  0  0  0  0  0  0
  188.9280  177.4210  138.1990 C   0  0  0  0  0  2  0  0  0  0  0  0
  190.1630  177.1770  137.3930 C   0  0  0  0  0  3  0  0  0  0  0  0
  190.8610  176.1160  137.5790 N   0  0  0  0  0  0  0  0  0  0  0  0
  192.0520  175.8730  136.8070 C   0  0  0  0  0  2  0  0  0  0  0  0
  194.2940  176.6850  136.8150 O   0  0  0  0  0  0  0  0  0  0  0  0
  193.2400  176.4800  137.4720 C   0  0  0  0  0  0  0  0  0  0  0  0
  193.1740  176.8520  138.8080 O   0  0  0  0  0  1  0  0  0  0  0  0
  1  9  2  0  0  0  0
  1  7  1  0  0  0  0
  3 17  1  1  0  0  0
  3 10  1  0  0  0  0
  4 11  2  0  0  0  0
  5 16  1  0  0  0  0
  5  2  2  0  0  0  0
  6 15  2  0  0  0  0
  6 12  1  0  0  0  0
  7  2  1  0  0  0  0
  8 11  1  0  0  0  0
  9  5  1  0  0  0  0
 10  4  1  1  0  0  0
 12 14  1  0  0  0  0
 13 12  2  0  0  0  0
 13  9  1  0  0  0  0
 14 10  1  0  0  0  0
 14 16  2  0  0  0  0
 15  3  1  0  0  0  0
 17  8  2  0  0  0  0
 18  6  1  0  0  0  0
 19 18  1  0  0  0  0
 20 19  1  0  0  0  0
 21 20  1  0  0  0  0
 22 23  2  0  0  0  0
 22 21  1  0  0  0  0
 24 26  1  0  0  0  0
 24 23  1  0  0  0  0
 25 26  2  0  0  0  0
 26 27  1  0  0  0  0
M  END
>  <MODEL>
5

>  <REMARK>
 VINA RESULT:      -8.6      3.466      5.739
  Name = 
  7 active torsions:
  status: ('A' for Active; 'I' for Inactive)
    1  A    between atoms: C_4  and  C_20
    2  A    between atoms: C_4  and  N_24
    3  A    between atoms: C_5  and  C_12
    4  A    between atoms: C_5  and  C_25
    5  A    between atoms: C_6  and  C_7
    6  A    between atoms: C_6  and  C_25
    7  A    between atoms: C_10  and  C_12
                            x       y       z     vdW  Elec       q    Type
                         _______ _______ _______ _____ _____    ______ ____

>  <TORSDO>
F 7

$$$$
=
 OpenBabel11042412283D

 27 30  0  0  1  0  0  0  0  0999 V2000
  190.1800  177.5840  140.0170 C   0  0  0  0  0  3  0  0  0  0  0  0
  191.6670  177.1570  141.6240 N   0  0  0  0  0  0  0  0  0  0  0  0
  186.5970  177.5450  145.2260 C   0  0  2  0  0  3  0  0  0  0  0  0
  188.9620  177.3860  146.1880 C   0  0  0  0  0  3  0  0  0  0  0  0
  190.3770  177.3550  142.1670 C   0  0  0  0  0  0  0  0  0  0  0  0
  186.3170  178.2310  142.9200 C   0  0  0  0  0  0  0  0  0  0  0  0
  191.5470  177.2920  140.3600 N   0  0  0  0  0  0  0  0  0  0  0  0
  187.0860  178.1390  147.5760 C   0  0  0  0  0  3  0  0  0  0  0  0
  189.5130  177.6080  141.1550 C   0  0  1  0  0  3  0  0  0  0  0  0
  188.0960  177.5350  144.9980 C   0  0  1  0  0  3  0  0  0  0  0  0
  188.4740  177.6610  147.4030 C   0  0  0  0  0  3  0  0  0  0  0  0
  187.7170  177.8370  142.6460 C   0  0  0  0  0  0  0  0  0  0  0  0
  188.1990  177.8620  141.3650 N   0  0  0  0  0  0  0  0  0  0  0  0
  188.5880  177.5520  143.7430 C   0  0  0  0  0  0  0  0  0  0  0  0
  185.8510  178.1670  144.1310 N   0  0  0  0  0  0  0  0  0  0  0  0
  189.9590  177.3230  143.4900 C   0  0  0  0  0  3  0  0  0  0  0  0
  186.2190  178.1350  146.5560 C   0  0  0  0  0  3  0  0  0  0  0  0
  185.4730  178.8410  141.8470 C   0  0  0  0  0  2  0  0  0  0  0  0
  184.1020  178.1780  141.7850 C   0  0  0  0  0  2  0  0  0  0  0  0
  183.6460  177.9650  140.3470 C   0  0  0  0  0  2  0  0  0  0  0  0
  184.3200  178.9480  139.3960 C   0  0  0  0  0  2  0  0  0  0  0  0
  185.1120  178.2300  138.3500 C   0  0  0  0  0  3  0  0  0  0  0  0
  186.2510  178.6840  137.9740 N   0  0  0  0  0  0  0  0  0  0  0  0
  187.0200  177.9990  136.9660 C   0  0  0  0  0  2  0  0  0  0  0  0
  188.6870  179.6040  137.5370 O   0  0  0  0  0  1  0  0  0  0  0  0
  188.3850  178.5880  136.8590 C   0  0  0  0  0  0  0  0  0  0  0  0
  189.3340  177.9960  136.0370 O   0  0  0  0  0  0  0  0  0  0  0  0
  1  7  2  0  0  0  0
  2  5  2  0  0  0  0
  3 17  1  1  0  0  0
  4 11  2  0  0  0  0
  5 16  1  0  0  0  0
  6 15  2  0  0  0  0
  7  2  1  0  0  0  0
  9  1  1  1  0  0  0
  9 13  1  0  0  0  0
  9  5  1  0  0  0  0
 10  3  1  0  0  0  0
 10  4  1  6  0  0  0
 11  8  1  0  0  0  0
 12  6  1  0  0  0  0
 12 14  1  0  0  0  0
 13 12  2  0  0  0  0
 14 10  1  0  0  0  0
 15  3  1  0  0  0  0
 16 14  2  0  0  0  0
 17  8  2  0  0  0  0
 18  6  1  0  0  0  0
 19 18  1  0  0  0  0
 20 19  1  0  0  0  0
 21 20  1  0  0  0  0
 22 21  1  0  0  0  0
 23 22  2  0  0  0  0
 24 23  1  0  0  0  0
 26 24  1  0  0  0  0
 26 25  1  0  0  0  0
 27 26  2  0  0  0  0
M  END
>  <MODEL>
6

>  <REMARK>
 VINA RESULT:      -8.5      2.555      4.184
  Name = 
  7 active torsions:
  status: ('A' for Active; 'I' for Inactive)
    1  A    between atoms: C_4  and  C_20
    2  A    between atoms: C_4  and  N_24
    3  A    between atoms: C_5  and  C_12
    4  A    between atoms: C_5  and  C_25
    5  A    between atoms: C_6  and  C_7
    6  A    between atoms: C_6  and  C_25
    7  A    between atoms: C_10  and  C_12
                            x       y       z     vdW  Elec       q    Type
                         _______ _______ _______ _____ _____    ______ ____

>  <TORSDO>
F 7

$$$$
=
 OpenBabel11042412283D

 27 30  0  0  1  0  0  0  0  0999 V2000
  191.7630  176.8150  145.7400 C   0  0  0  0  0  3  0  0  0  0  0  0
  190.5620  176.9210  147.6160 N   0  0  0  0  0  0  0  0  0  0  0  0
  185.9190  177.8790  143.5730 C   0  0  2  0  0  3  0  0  0  0  0  0
  185.6210  178.1380  146.1000 C   0  0  0  0  0  3  0  0  0  0  0  0
  189.7530  177.1640  146.4830 C   0  0  0  0  0  0  0  0  0  0  0  0
  188.1590  177.9240  142.6500 C   0  0  0  0  0  0  0  0  0  0  0  0
  191.7430  176.7150  147.1760 N   0  0  0  0  0  2  0  0  0  0  0  0
  183.9920  179.0940  144.5350 C   0  0  0  0  0  3  0  0  0  0  0  0
  190.5250  177.0860  145.3730 C   0  0  0  0  0  0  0  0  0  0  0  0
  186.5340  177.9140  144.9580 C   0  0  1  0  0  3  0  0  0  0  0  0
  184.4180  178.6840  145.8910 C   0  0  0  0  0  3  0  0  0  0  0  0
  188.7000  177.5700  143.9800 C   0  0  0  0  0  0  0  0  0  0  0  0
  190.0330  177.2950  144.1280 N   0  0  0  0  0  0  0  0  0  0  0  0
  187.8430  177.6390  145.1230 C   0  0  0  0  0  0  0  0  0  0  0  0
  186.8860  178.1440  142.5060 N   0  0  0  0  0  0  0  0  0  0  0  0
  188.3970  177.4470  146.4090 C   0  0  0  0  0  3  0  0  0  0  0  0
  184.7110  178.7670  143.4550 C   0  0  0  0  0  3  0  0  0  0  0  0
  189.0750  178.1760  141.4950 C   0  0  0  0  0  2  0  0  0  0  0  0
  189.2530  176.9190  140.6530 C   0  0  0  0  0  2  0  0  0  0  0  0
  190.6640  176.8190  140.0850 C   0  0  0  0  0  2  0  0  0  0  0  0
  190.6630  176.2060  138.6900 C   0  0  0  0  0  2  0  0  0  0  0  0
  189.7910  176.9860  137.7590 C   0  0  0  0  0  3  0  0  0  0  0  0
  188.6490  176.5250  137.3990 N   0  0  0  0  0  0  0  0  0  0  0  0
  187.8040  177.2700  136.5010 C   0  0  0  0  0  2  0  0  0  0  0  0
  187.3710  179.6120  136.6080 O   0  0  0  0  0  0  0  0  0  0  0  0
  187.2750  178.4910  137.1730 C   0  0  0  0  0  0  0  0  0  0  0  0
  186.6460  178.3880  138.4070 O   0  0  0  0  0  1  0  0  0  0  0  0
  1  7  1  0  0  0  0
  3 17  1  1  0  0  0
  3 10  1  0  0  0  0
  5  2  2  0  0  0  0
  6 12  1  0  0  0  0
  7  2  1  0  0  0  0
  8 11  1  0  0  0  0
  9  1  2  0  0  0  0
  9  5  1  0  0  0  0
 10 14  1  0  0  0  0
 10  4  1  1  0  0  0
 11  4  2  0  0  0  0
 12 13  2  0  0  0  0
 12 14  1  0  0  0  0
 13  9  1  0  0  0  0
 14 16  2  0  0  0  0
 15  6  2  0  0  0  0
 15  3  1  0  0  0  0
 16  5  1  0  0  0  0
 17  8  2  0  0  0  0
 18  6  1  0  0  0  0
 19 18  1  0  0  0  0
 20 19  1  0  0  0  0
 21 20  1  0  0  0  0
 22 21  1  0  0  0  0
 23 22  2  0  0  0  0
 24 26  1  0  0  0  0
 24 23  1  0  0  0  0
 25 26  2  0  0  0  0
 26 27  1  0  0  0  0
M  END
>  <MODEL>
7

>  <REMARK>
 VINA RESULT:      -8.5      1.556      1.928
  Name = 
  7 active torsions:
  status: ('A' for Active; 'I' for Inactive)
    1  A    between atoms: C_4  and  C_20
    2  A    between atoms: C_4  and  N_24
    3  A    between atoms: C_5  and  C_12
    4  A    between atoms: C_5  and  C_25
    5  A    between atoms: C_6  and  C_7
    6  A    between atoms: C_6  and  C_25
    7  A    between atoms: C_10  and  C_12
                            x       y       z     vdW  Elec       q    Type
                         _______ _______ _______ _____ _____    ______ ____

>  <TORSDO>
F 7

$$$$
=
 OpenBabel11042412283D

 27 30  0  0  1  0  0  0  0  0999 V2000
  190.0900  176.9930  147.6240 C   0  0  0  0  0  3  0  0  0  0  0  0
  192.0560  176.7830  146.5910 N   0  0  0  0  0  0  0  0  0  0  0  0
  188.6140  178.2310  141.6020 C   0  0  2  0  0  3  0  0  0  0  0  0
  191.0460  177.4600  141.4210 C   0  0  0  0  0  3  0  0  0  0  0  0
  191.0250  177.0700  145.6660 C   0  0  0  0  0  0  0  0  0  0  0  0
  187.3890  177.7660  143.6400 C   0  0  0  0  0  0  0  0  0  0  0  0
  191.5020  176.7400  147.7410 N   0  0  0  0  0  2  0  0  0  0  0  0
  189.5670  177.4300  139.4650 C   0  0  0  0  0  3  0  0  0  0  0  0
  189.8570  177.1900  146.3400 C   0  0  0  0  0  0  0  0  0  0  0  0
  189.8580  177.6820  142.2740 C   0  0  1  0  0  3  0  0  0  0  0  0
  190.9030  177.3550  140.0960 C   0  0  0  0  0  3  0  0  0  0  0  0
  188.6720  177.6120  144.3600 C   0  0  0  0  0  0  0  0  0  0  0  0
  188.6800  177.4430  145.7190 N   0  0  0  0  0  0  0  0  0  0  0  0
  189.8860  177.5160  143.6110 C   0  0  0  0  0  0  0  0  0  0  0  0
  187.3870  177.9660  142.3560 N   0  0  0  0  0  0  0  0  0  0  0  0
  191.0900  177.2200  144.2880 C   0  0  0  0  0  3  0  0  0  0  0  0
  188.4880  177.7890  140.1710 C   0  0  0  0  0  3  0  0  0  0  0  0
  186.0880  177.5490  144.3440 C   0  0  0  0  0  2  0  0  0  0  0  0
  185.5690  178.8480  144.9490 C   0  0  0  0  0  2  0  0  0  0  0  0
  184.5530  179.5260  144.0380 C   0  0  0  0  0  2  0  0  0  0  0  0
  183.3220  178.6530  143.8280 C   0  0  0  0  0  2  0  0  0  0  0  0
  182.9150  178.6320  142.3890 C   0  0  0  0  0  3  0  0  0  0  0  0
  183.7960  178.4940  141.4670 N   0  0  0  0  0  0  0  0  0  0  0  0
  183.4110  178.4730  140.0790 C   0  0  0  0  0  2  0  0  0  0  0  0
  184.1790  180.5030  139.0940 O   0  0  0  0  0  1  0  0  0  0  0  0
  184.3680  179.2700  139.2590 C   0  0  0  0  0  0  0  0  0  0  0  0
  185.4850  178.6590  138.7050 O   0  0  0  0  0  0  0  0  0  0  0  0
  1  7  1  0  0  0  0
  2  7  1  0  0  0  0
  3 17  1  6  0  0  0
  3 10  1  0  0  0  0
  3 15  1  0  0  0  0
  5  9  1  0  0  0  0
  5  2  2  0  0  0  0
  6 18  1  0  0  0  0
  6 12  1  0  0  0  0
  8 11  1  0  0  0  0
  8 17  2  0  0  0  0
  9  1  2  0  0  0  0
 10  4  1  1  0  0  0
 10 14  1  0  0  0  0
 11  4  2  0  0  0  0
 12 13  2  0  0  0  0
 13  9  1  0  0  0  0
 14 16  2  0  0  0  0
 14 12  1  0  0  0  0
 15  6  2  0  0  0  0
 16  5  1  0  0  0  0
 18 19  1  0  0  0  0
 20 19  1  0  0  0  0
 21 20  1  0  0  0  0
 22 21  1  0  0  0  0
 23 22  2  0  0  0  0
 24 23  1  0  0  0  0
 25 26  1  0  0  0  0
 26 24  1  0  0  0  0
 27 26  2  0  0  0  0
M  END
>  <MODEL>
8

>  <REMARK>
 VINA RESULT:      -8.5      1.479      4.336
  Name = 
  7 active torsions:
  status: ('A' for Active; 'I' for Inactive)
    1  A    between atoms: C_4  and  C_20
    2  A    between atoms: C_4  and  N_24
    3  A    between atoms: C_5  and  C_12
    4  A    between atoms: C_5  and  C_25
    5  A    between atoms: C_6  and  C_7
    6  A    between atoms: C_6  and  C_25
    7  A    between atoms: C_10  and  C_12
                            x       y       z     vdW  Elec       q    Type
                         _______ _______ _______ _____ _____    ______ ____

>  <TORSDO>
F 7

$$$$
=
 OpenBabel11042412283D

 27 30  0  0  1  0  0  0  0  0999 V2000
  191.6820  176.7680  145.8910 C   0  0  0  0  0  3  0  0  0  0  0  0
  190.4170  176.9710  147.7160 N   0  0  0  0  0  0  0  0  0  0  0  0
  185.9480  177.8750  143.4680 C   0  0  2  0  0  3  0  0  0  0  0  0
  185.5630  178.2350  145.9710 C   0  0  0  0  0  3  0  0  0  0  0  0
  189.6550  177.1880  146.5450 C   0  0  0  0  0  0  0  0  0  0  0  0
  188.2200  177.8370  142.6290 C   0  0  0  0  0  0  0  0  0  0  0  0
  191.6080  176.7230  147.3280 N   0  0  0  0  0  2  0  0  0  0  0  0
  184.0150  179.1650  144.3120 C   0  0  0  0  0  3  0  0  0  0  0  0
  190.4650  177.0520  145.4680 C   0  0  0  0  0  0  0  0  0  0  0  0
  186.5130  177.9480  144.8730 C   0  0  1  0  0  3  0  0  0  0  0  0
  184.3810  178.7970  145.6970 C   0  0  0  0  0  3  0  0  0  0  0  0
  188.7040  177.5220  143.9910 C   0  0  0  0  0  0  0  0  0  0  0  0
  190.0250  177.2250  144.1980 N   0  0  0  0  0  0  0  0  0  0  0  0
  187.8080  177.6520  145.0970 C   0  0  0  0  0  0  0  0  0  0  0  0
  186.9590  178.0790  142.4290 N   0  0  0  0  0  0  0  0  0  0  0  0
  188.3090  177.4970  146.4090 C   0  0  0  0  0  3  0  0  0  0  0  0
  184.7660  178.7820  143.2720 C   0  0  0  0  0  3  0  0  0  0  0  0
  189.1840  178.0260  141.5010 C   0  0  0  0  0  2  0  0  0  0  0  0
  188.5650  177.6050  140.1740 C   0  0  0  0  0  2  0  0  0  0  0  0
  189.0620  178.4710  139.0230 C   0  0  0  0  0  2  0  0  0  0  0  0
  188.2200  178.2690  137.7690 C   0  0  0  0  0  2  0  0  0  0  0  0
  188.8150  177.2220  136.8820 C   0  0  0  0  0  3  0  0  0  0  0  0
  188.3840  176.0140  136.9240 N   0  0  0  0  0  0  0  0  0  0  0  0
  188.9520  175.0000  136.0730 C   0  0  0  0  0  2  0  0  0  0  0  0
  190.4880  173.7630  137.4120 O   0  0  0  0  0  1  0  0  0  0  0  0
  189.3520  173.8080  136.8740 C   0  0  0  0  0  0  0  0  0  0  0  0
  188.4570  172.7620  137.0560 O   0  0  0  0  0  0  0  0  0  0  0  0
  1  7  1  0  0  0  0
  3 17  1  1  0  0  0
  3 10  1  0  0  0  0
  5  2  2  0  0  0  0
  6 12  1  0  0  0  0
  7  2  1  0  0  0  0
  8 11  1  0  0  0  0
  9  1  2  0  0  0  0
  9  5  1  0  0  0  0
 10 14  1  0  0  0  0
 10  4  1  1  0  0  0
 11  4  2  0  0  0  0
 12 13  2  0  0  0  0
 12 14  1  0  0  0  0
 13  9  1  0  0  0  0
 14 16  2  0  0  0  0
 15  6  2  0  0  0  0
 15  3  1  0  0  0  0
 16  5  1  0  0  0  0
 17  8  2  0  0  0  0
 18  6  1  0  0  0  0
 19 18  1  0  0  0  0
 20 19  1  0  0  0  0
 21 20  1  0  0  0  0
 22 23  2  0  0  0  0
 22 21  1  0  0  0  0
 24 26  1  0  0  0  0
 24 23  1  0  0  0  0
 26 27  2  0  0  0  0
 26 25  1  0  0  0  0
M  END
>  <MODEL>
9

>  <REMARK>
 VINA RESULT:      -8.4      2.696      3.172
  Name = 
  7 active torsions:
  status: ('A' for Active; 'I' for Inactive)
    1  A    between atoms: C_4  and  C_20
    2  A    between atoms: C_4  and  N_24
    3  A    between atoms: C_5  and  C_12
    4  A    between atoms: C_5  and  C_25
    5  A    between atoms: C_6  and  C_7
    6  A    between atoms: C_6  and  C_25
    7  A    between atoms: C_10  and  C_12
                            x       y       z     vdW  Elec       q    Type
                         _______ _______ _______ _____ _____    ______ ____

>  <TORSDO>
F 7

$$$$
