=
 OpenBabel11032420113D

 36 37  0  0  1  0  0  0  0  0999 V2000
  188.9160  178.0070  141.4560 C   0  0  0  0  0  0  0  0  0  0  0  0
  189.3200  178.2650  142.6660 N   0  0  0  0  0  0  0  0  0  0  0  0
  189.8430  177.5330  140.4720 N   0  0  0  0  0  0  0  0  0  0  0  0
  189.6760  177.7680  139.2130 C   0  0  0  0  0  3  0  0  0  0  0  0
  190.6150  177.2790  138.2650 N   0  0  0  0  0  0  0  0  0  0  0  0
  191.6220  176.5730  138.6630 C   0  0  0  0  0  3  0  0  0  0  0  0
  193.6520  176.7130  137.4520 O   0  0  0  0  0  0  0  0  0  0  0  0
  192.6090  176.0540  137.7080 C   0  0  0  0  0  0  0  0  0  0  0  0
  192.3820  174.7480  137.0170 C   0  0  2  0  0  3  0  0  0  0  0  0
  192.0470  174.9730  135.5550 C   0  0  0  0  0  1  0  0  0  0  0  0
  191.3490  174.0450  137.6370 O   0  0  0  0  0  1  0  0  0  0  0  0
  190.7010  178.1260  143.1220 C   0  0  1  0  0  3  0  0  0  0  0  0
  191.1420  179.3660  143.8880 C   0  0  0  0  0  1  0  0  0  0  0  0
  190.8430  176.8790  143.9910 C   0  0  0  0  0  2  0  0  0  0  0  0
  191.4780  177.1990  145.3420 C   0  0  0  0  0  2  0  0  0  0  0  0
  190.4430  177.1040  146.4650 C   0  0  2  0  0  3  0  0  0  0  0  0
  190.8240  176.2170  147.5000 O   0  0  0  0  0  0  0  0  0  0  0  0
  192.1800  175.8780  147.3420 C   0  0  0  0  0  1  0  0  0  0  0  0
  189.0330  176.8230  145.9350 C   0  0  0  0  0  2  0  0  0  0  0  0
  186.3500  177.1830  145.0210 O   0  0  0  0  0  0  0  0  0  0  0  0
  188.0710  177.7680  146.4870 N   0  0  0  0  0  2  0  0  0  0  0  0
  186.7400  177.8910  145.9860 C   0  0  0  0  0  0  0  0  0  0  0  0
  185.7970  178.8480  146.6260 C   0  0  0  0  0  2  0  0  0  0  0  0
  184.4370  178.7570  145.9640 C   0  0  0  0  0  1  0  0  0  0  0  0
  187.5720  178.1960  141.1080 O   0  0  0  0  0  0  0  0  0  0  0  0
  186.5930  178.7210  142.0040 C   0  0  0  0  0  2  0  0  0  0  0  0
  181.4460  179.2960  138.4740 S   0  0  0  0  0  0  0  0  0  0  0  0
  182.6860  179.0640  139.5760 C   0  0  0  0  0  0  0  0  0  0  0  0
  182.8360  178.6320  142.0440 N   0  0  0  0  0  0  0  0  0  0  0  0
  180.1710  179.1680  139.5650 C   0  0  0  0  0  3  0  0  0  0  0  0
  184.1090  178.5830  142.2880 C   0  0  0  0  0  3  0  0  0  0  0  0
  180.7290  178.9340  140.8210 C   0  0  0  0  0  3  0  0  0  0  0  0
  185.2420  178.7680  141.3650 C   0  0  0  0  0  0  0  0  0  0  0  0
  184.0580  179.0540  139.2080 N   0  0  0  0  0  0  0  0  0  0  0  0
  185.2090  178.9500  140.0440 C   0  0  0  0  0  3  0  0  0  0  0  0
  182.1300  178.8770  140.8280 C   0  0  2  0  0  3  0  0  0  0  0  0
  1  2  2  0  0  0  0
  2 12  1  0  0  0  0
  3  1  1  0  0  0  0
  4  3  2  0  0  0  0
  5  6  2  0  0  0  0
  5  4  1  0  0  0  0
  7  8  2  0  0  0  0
  8  6  1  0  0  0  0
  9 10  1  6  0  0  0
  9 11  1  0  0  0  0
  9  8  1  0  0  0  0
 12 13  1  1  0  0  0
 12 14  1  0  0  0  0
 14 15  1  0  0  0  0
 16 15  1  6  0  0  0
 16 17  1  0  0  0  0
 18 17  1  0  0  0  0
 19 16  1  0  0  0  0
 19 21  1  0  0  0  0
 20 22  2  0  0  0  0
 22 21  1  0  0  0  0
 22 23  1  0  0  0  0
 24 23  1  0  0  0  0
 25  1  1  0  0  0  0
 25 26  1  0  0  0  0
 27 30  1  0  0  0  0
 27 28  1  0  0  0  0
 28 36  1  0  0  0  0
 29 31  2  0  0  0  0
 30 32  2  0  0  0  0
 33 26  1  0  0  0  0
 33 31  1  0  0  0  0
 34 28  2  0  0  0  0
 34 35  1  0  0  0  0
 35 33  2  0  0  0  0
 36 32  1  6  0  0  0
 36 29  1  0  0  0  0
M  END
>  <MODEL>
1

>  <REMARK>
 VINA RESULT:      -7.2      0.000      0.000
  Name = 
  15 active torsions:
  status: ('A' for Active; 'I' for Inactive)
    1  A    between atoms: N_1  and  C_18
    2  A    between atoms: O_7  and  C_14
    3  A    between atoms: O_7  and  C_18
    4  A    between atoms: C_9  and  C_23
    5  A    between atoms: C_10  and  N_21
    6  A    between atoms: C_10  and  C_24
    7  A    between atoms: C_11  and  N_30
    8  A    between atoms: C_11  and  C_31
    9  A    between atoms: C_13  and  C_17
   10  A    between atoms: C_14  and  C_25
   11  A    between atoms: C_15  and  C_24
   12  A    between atoms: C_15  and  C_31
   13  A    between atoms: C_17  and  C_29
   14  A    between atoms: N_20  and  C_22
   15  A    between atoms: C_24  and  O_27
                            x       y       z     vdW  Elec       q    Type
                         _______ _______ _______ _____ _____    ______ ____

>  <TORSDO>
F 15

$$$$
=
 OpenBabel11032420113D

 36 37  0  0  1  0  0  0  0  0999 V2000
  190.4590  177.2470  140.2950 C   0  0  0  0  0  0  0  0  0  0  0  0
  191.0680  177.0970  141.4360 N   0  0  0  0  0  0  0  0  0  0  0  0
  189.0320  177.3540  140.2490 N   0  0  0  0  0  0  0  0  0  0  0  0
  188.4400  178.4970  140.1330 C   0  0  0  0  0  3  0  0  0  0  0  0
  187.0210  178.5640  140.0940 N   0  0  0  0  0  0  0  0  0  0  0  0
  186.3520  178.6810  141.1930 C   0  0  0  0  0  3  0  0  0  0  0  0
  184.2610  179.1090  142.2190 O   0  0  0  0  0  0  0  0  0  0  0  0
  184.8850  178.7520  141.1840 C   0  0  0  0  0  0  0  0  0  0  0  0
  184.1150  178.3890  139.9560 C   0  0  2  0  0  3  0  0  0  0  0  0
  183.5590  179.6340  139.2920 C   0  0  0  0  0  1  0  0  0  0  0  0
  183.0730  177.5180  140.2770 O   0  0  0  0  0  1  0  0  0  0  0  0
  190.3910  177.0060  142.7270 C   0  0  1  0  0  3  0  0  0  0  0  0
  190.0480  175.5580  143.0540 C   0  0  0  0  0  1  0  0  0  0  0  0
  191.2650  177.6120  143.8220 C   0  0  0  0  0  2  0  0  0  0  0  0
  190.4440  178.0230  145.0400 C   0  0  0  0  0  2  0  0  0  0  0  0
  190.9070  177.2670  146.2880 C   0  0  2  0  0  3  0  0  0  0  0  0
  191.8670  176.2660  146.0090 O   0  0  0  0  0  0  0  0  0  0  0  0
  192.2930  175.6850  147.2180 C   0  0  0  0  0  1  0  0  0  0  0  0
  189.7310  176.7440  147.1190 C   0  0  0  0  0  2  0  0  0  0  0  0
  187.6440  178.3970  148.1580 O   0  0  0  0  0  0  0  0  0  0  0  0
  188.4610  177.0200  146.4580 N   0  0  0  0  0  2  0  0  0  0  0  0
  187.4630  177.8630  147.0310 C   0  0  0  0  0  0  0  0  0  0  0  0
  186.2070  178.1340  146.2810 C   0  0  0  0  0  2  0  0  0  0  0  0
  186.4090  177.8390  144.8080 C   0  0  0  0  0  1  0  0  0  0  0  0
  191.1980  177.2980  139.1050 O   0  0  0  0  0  0  0  0  0  0  0  0
  190.8770  176.5300  137.9460 C   0  0  0  0  0  2  0  0  0  0  0  0
  194.6750  171.7830  136.4250 S   0  0  0  0  0  0  0  0  0  0  0  0
  193.8450  173.1740  136.8470 C   0  0  0  0  0  0  0  0  0  0  0  0
  194.4620  175.4120  137.8030 N   0  0  0  0  0  0  0  0  0  0  0  0
  196.2100  172.3130  136.8690 C   0  0  0  0  0  3  0  0  0  0  0  0
  193.3310  176.0370  137.9220 C   0  0  0  0  0  3  0  0  0  0  0  0
  196.0690  173.6110  137.3550 C   0  0  0  0  0  3  0  0  0  0  0  0
  191.9700  175.5670  137.6130 C   0  0  0  0  0  0  0  0  0  0  0  0
  192.4420  173.3230  136.6750 N   0  0  0  0  0  0  0  0  0  0  0  0
  191.6030  174.4090  137.0600 C   0  0  0  0  0  3  0  0  0  0  0  0
  194.7520  174.0920  137.3440 C   0  0  2  0  0  3  0  0  0  0  0  0
  1  2  2  0  0  0  0
  2 12  1  0  0  0  0
  3  1  1  0  0  0  0
  4  3  2  0  0  0  0
  5  4  1  0  0  0  0
  5  6  2  0  0  0  0
  8  6  1  0  0  0  0
  8  7  2  0  0  0  0
  9 10  1  1  0  0  0
  9 11  1  0  0  0  0
  9  8  1  0  0  0  0
 12 13  1  1  0  0  0
 12 14  1  0  0  0  0
 14 15  1  0  0  0  0
 16 15  1  6  0  0  0
 16 19  1  0  0  0  0
 17 16  1  0  0  0  0
 17 18  1  0  0  0  0
 21 22  1  0  0  0  0
 21 19  1  0  0  0  0
 22 20  2  0  0  0  0
 23 22  1  0  0  0  0
 24 23  1  0  0  0  0
 25  1  1  0  0  0  0
 26 25  1  0  0  0  0
 27 28  1  0  0  0  0
 27 30  1  0  0  0  0
 28 36  1  0  0  0  0
 29 31  2  0  0  0  0
 30 32  2  0  0  0  0
 33 31  1  0  0  0  0
 33 26  1  0  0  0  0
 34 28  2  0  0  0  0
 34 35  1  0  0  0  0
 35 33  2  0  0  0  0
 36 32  1  6  0  0  0
 36 29  1  0  0  0  0
M  END
>  <MODEL>
2

>  <REMARK>
 VINA RESULT:      -7.0      3.409      8.105
  Name = 
  15 active torsions:
  status: ('A' for Active; 'I' for Inactive)
    1  A    between atoms: N_1  and  C_18
    2  A    between atoms: O_7  and  C_14
    3  A    between atoms: O_7  and  C_18
    4  A    between atoms: C_9  and  C_23
    5  A    between atoms: C_10  and  N_21
    6  A    between atoms: C_10  and  C_24
    7  A    between atoms: C_11  and  N_30
    8  A    between atoms: C_11  and  C_31
    9  A    between atoms: C_13  and  C_17
   10  A    between atoms: C_14  and  C_25
   11  A    between atoms: C_15  and  C_24
   12  A    between atoms: C_15  and  C_31
   13  A    between atoms: C_17  and  C_29
   14  A    between atoms: N_20  and  C_22
   15  A    between atoms: C_24  and  O_27
                            x       y       z     vdW  Elec       q    Type
                         _______ _______ _______ _____ _____    ______ ____

>  <TORSDO>
F 15

$$$$
=
 OpenBabel11032420113D

 36 37  0  0  1  0  0  0  0  0999 V2000
  185.0440  179.2740  139.6360 C   0  0  0  0  0  0  0  0  0  0  0  0
  185.8830  178.4590  139.0640 N   0  0  0  0  0  0  0  0  0  0  0  0
  184.0980  180.0040  138.8470 N   0  0  0  0  0  0  0  0  0  0  0  0
  182.8280  179.9450  139.0820 C   0  0  0  0  0  3  0  0  0  0  0  0
  181.9190  180.6820  138.2760 N   0  0  0  0  0  0  0  0  0  0  0  0
  181.8440  181.9660  138.4010 C   0  0  0  0  0  3  0  0  0  0  0  0
  179.8880  182.2150  137.0880 O   0  0  0  0  0  0  0  0  0  0  0  0
  180.9140  182.7550  137.5820 C   0  0  0  0  0  0  0  0  0  0  0  0
  181.1800  184.2000  137.3120 C   0  0  2  0  0  3  0  0  0  0  0  0
  180.9530  184.5160  135.8460 C   0  0  0  0  0  1  0  0  0  0  0  0
  182.4890  184.5270  137.6690 O   0  0  0  0  0  1  0  0  0  0  0  0
  185.9590  178.2310  137.6240 C   0  0  1  0  0  3  0  0  0  0  0  0
  187.3130  178.6690  137.0790 C   0  0  0  0  0  1  0  0  0  0  0  0
  185.7060  176.7580  137.3120 C   0  0  0  0  0  2  0  0  0  0  0  0
  186.5100  176.2890  136.1020 C   0  0  0  0  0  2  0  0  0  0  0  0
  187.1670  174.9340  136.3780 C   0  0  2  0  0  3  0  0  0  0  0  0
  186.5870  174.2460  137.4700 O   0  0  0  0  0  0  0  0  0  0  0  0
  186.2540  172.9390  137.0670 C   0  0  0  0  0  1  0  0  0  0  0  0
  188.6910  175.0400  136.4870 C   0  0  0  0  0  2  0  0  0  0  0  0
  191.0410  176.6160  136.8830 O   0  0  0  0  0  0  0  0  0  0  0  0
  189.0810  175.6790  137.7380 N   0  0  0  0  0  2  0  0  0  0  0  0
  190.2680  176.4600  137.8650 C   0  0  0  0  0  0  0  0  0  0  0  0
  190.5830  177.1180  139.1620 C   0  0  0  0  0  2  0  0  0  0  0  0
  189.3060  177.3670  139.9400 C   0  0  0  0  0  1  0  0  0  0  0  0
  185.0660  179.4440  141.0270 O   0  0  0  0  0  0  0  0  0  0  0  0
  184.4930  178.5120  141.9430 C   0  0  0  0  0  2  0  0  0  0  0  0
  187.6050  177.9200  147.3520 S   0  0  0  0  0  0  0  0  0  0  0  0
  186.9420  177.9660  145.8140 C   0  0  0  0  0  0  0  0  0  0  0  0
  187.7730  177.5210  143.4880 N   0  0  0  0  0  0  0  0  0  0  0  0
  189.1580  177.4620  146.8950 C   0  0  0  0  0  3  0  0  0  0  0  0
  186.7540  177.7740  142.7260 C   0  0  0  0  0  3  0  0  0  0  0  0
  189.1570  177.3380  145.5070 C   0  0  0  0  0  3  0  0  0  0  0  0
  185.4090  178.2490  143.0940 C   0  0  0  0  0  0  0  0  0  0  0  0
  185.5820  178.2950  145.5650 N   0  0  0  0  0  2  0  0  0  0  0  0
  184.9120  178.4500  144.3160 C   0  0  0  0  0  3  0  0  0  0  0  0
  187.9230  177.6200  144.9040 C   0  0  0  0  0  0  0  0  0  0  0  0
  1 25  1  0  0  0  0
  2  1  2  0  0  0  0
  3  4  2  0  0  0  0
  3  1  1  0  0  0  0
  5  6  2  0  0  0  0
  5  4  1  0  0  0  0
  7  8  2  0  0  0  0
  8  6  1  0  0  0  0
  9 10  1  6  0  0  0
  9  8  1  0  0  0  0
  9 11  1  0  0  0  0
 12 13  1  1  0  0  0
 12  2  1  0  0  0  0
 14 12  1  0  0  0  0
 15 14  1  0  0  0  0
 16 15  1  1  0  0  0
 16 19  1  0  0  0  0
 16 17  1  0  0  0  0
 18 17  1  0  0  0  0
 19 21  1  0  0  0  0
 20 22  2  0  0  0  0
 21 22  1  0  0  0  0
 22 23  1  0  0  0  0
 23 24  1  0  0  0  0
 25 26  1  0  0  0  0
 26 33  1  0  0  0  0
 28 27  1  0  0  0  0
 29 36  1  0  0  0  0
 30 27  1  0  0  0  0
 31 33  1  0  0  0  0
 31 29  2  0  0  0  0
 32 30  2  0  0  0  0
 33 35  2  0  0  0  0
 34 28  1  0  0  0  0
 35 34  1  0  0  0  0
 36 32  1  0  0  0  0
 36 28  2  0  0  0  0
M  END
>  <MODEL>
3

>  <REMARK>
 VINA RESULT:      -6.9      4.085      9.303
  Name = 
  15 active torsions:
  status: ('A' for Active; 'I' for Inactive)
    1  A    between atoms: N_1  and  C_18
    2  A    between atoms: O_7  and  C_14
    3  A    between atoms: O_7  and  C_18
    4  A    between atoms: C_9  and  C_23
    5  A    between atoms: C_10  and  N_21
    6  A    between atoms: C_10  and  C_24
    7  A    between atoms: C_11  and  N_30
    8  A    between atoms: C_11  and  C_31
    9  A    between atoms: C_13  and  C_17
   10  A    between atoms: C_14  and  C_25
   11  A    between atoms: C_15  and  C_24
   12  A    between atoms: C_15  and  C_31
   13  A    between atoms: C_17  and  C_29
   14  A    between atoms: N_20  and  C_22
   15  A    between atoms: C_24  and  O_27
                            x       y       z     vdW  Elec       q    Type
                         _______ _______ _______ _____ _____    ______ ____

>  <TORSDO>
F 15

$$$$
=
 OpenBabel11032420113D

 36 37  0  0  1  0  0  0  0  0999 V2000
  184.7970  179.0740  141.0890 C   0  0  0  0  0  0  0  0  0  0  0  0
  183.6270  178.9570  140.5320 N   0  0  0  0  0  0  0  0  0  0  0  0
  185.9870  178.8960  140.3110 N   0  0  0  0  0  0  0  0  0  0  0  0
  187.1340  178.6800  140.8650 C   0  0  0  0  0  3  0  0  0  0  0  0
  188.2940  178.5110  140.0600 N   0  0  0  0  0  0  0  0  0  0  0  0
  189.1300  177.5630  140.3270 C   0  0  0  0  0  3  0  0  0  0  0  0
  191.4770  177.4240  140.0460 O   0  0  0  0  0  0  0  0  0  0  0  0
  190.3370  177.3640  139.5140 C   0  0  0  0  0  0  0  0  0  0  0  0
  190.2280  177.1050  138.0470 C   0  0  2  0  0  3  0  0  0  0  0  0
  189.2520  175.9750  137.7800 C   0  0  0  0  0  1  0  0  0  0  0  0
  191.4780  176.7850  137.5170 O   0  0  0  0  0  1  0  0  0  0  0  0
  183.4120  178.6270  139.1250 C   0  0  1  0  0  3  0  0  0  0  0  0
  183.0260  177.1620  138.9690 C   0  0  0  0  0  1  0  0  0  0  0  0
  182.3350  179.5320  138.5320 C   0  0  0  0  0  2  0  0  0  0  0  0
  180.9330  179.0880  138.9410 C   0  0  0  0  0  2  0  0  0  0  0  0
  180.1820  180.2270  139.6340 C   0  0  2  0  0  3  0  0  0  0  0  0
  179.3910  179.7920  140.7230 O   0  0  0  0  0  0  0  0  0  0  0  0
  179.4440  180.7560  141.7470 C   0  0  0  0  0  1  0  0  0  0  0  0
  179.3990  181.0940  138.6430 C   0  0  0  0  0  2  0  0  0  0  0  0
  180.7090  182.0430  136.2870 O   0  0  0  0  0  0  0  0  0  0  0  0
  180.0210  182.4030  138.4900 N   0  0  0  0  0  2  0  0  0  0  0  0
  180.6540  182.8170  137.2800 C   0  0  0  0  0  0  0  0  0  0  0  0
  181.2320  184.1840  137.1800 C   0  0  0  0  0  2  0  0  0  0  0  0
  181.0460  184.7250  135.7770 C   0  0  0  0  0  1  0  0  0  0  0  0
  184.9000  179.3700  142.4550 O   0  0  0  0  0  0  0  0  0  0  0  0
  184.4080  178.5130  143.4850 C   0  0  0  0  0  2  0  0  0  0  0  0
  188.2080  178.0550  148.4480 S   0  0  0  0  0  0  0  0  0  0  0  0
  187.3340  178.0410  147.0190 C   0  0  0  0  0  0  0  0  0  0  0  0
  187.7690  177.3090  144.6570 N   0  0  0  0  0  0  0  0  0  0  0  0
  189.6270  177.3930  147.8310 C   0  0  0  0  0  3  0  0  0  0  0  0
  186.6780  177.6040  144.0200 C   0  0  0  0  0  3  0  0  0  0  0  0
  189.4110  177.1510  146.4750 C   0  0  0  0  0  3  0  0  0  0  0  0
  185.4540  178.2530  144.5200 C   0  0  0  0  0  0  0  0  0  0  0  0
  185.9910  178.4930  146.9270 N   0  0  0  0  0  2  0  0  0  0  0  0
  185.1630  178.6110  145.7720 C   0  0  0  0  0  3  0  0  0  0  0  0
  188.1340  177.5120  146.0220 C   0  0  0  0  0  0  0  0  0  0  0  0
  1 25  1  0  0  0  0
  2  1  2  0  0  0  0
  3  4  2  0  0  0  0
  3  1  1  0  0  0  0
  5  6  2  0  0  0  0
  5  4  1  0  0  0  0
  8  7  2  0  0  0  0
  8  6  1  0  0  0  0
  9 10  1  1  0  0  0
  9  8  1  0  0  0  0
 11  9  1  0  0  0  0
 12 13  1  1  0  0  0
 12  2  1  0  0  0  0
 14 15  1  0  0  0  0
 14 12  1  0  0  0  0
 15 16  1  0  0  0  0
 16 19  1  6  0  0  0
 16 17  1  0  0  0  0
 17 18  1  0  0  0  0
 20 22  2  0  0  0  0
 21 19  1  0  0  0  0
 22 21  1  0  0  0  0
 23 22  1  0  0  0  0
 24 23  1  0  0  0  0
 25 26  1  0  0  0  0
 26 33  1  0  0  0  0
 28 27  1  0  0  0  0
 29 36  1  0  0  0  0
 30 27  1  0  0  0  0
 31 33  1  0  0  0  0
 31 29  2  0  0  0  0
 32 30  2  0  0  0  0
 33 35  2  0  0  0  0
 34 28  1  0  0  0  0
 35 34  1  0  0  0  0
 36 32  1  0  0  0  0
 36 28  2  0  0  0  0
M  END
>  <MODEL>
4

>  <REMARK>
 VINA RESULT:      -6.9      3.797      8.750
  Name = 
  15 active torsions:
  status: ('A' for Active; 'I' for Inactive)
    1  A    between atoms: N_1  and  C_18
    2  A    between atoms: O_7  and  C_14
    3  A    between atoms: O_7  and  C_18
    4  A    between atoms: C_9  and  C_23
    5  A    between atoms: C_10  and  N_21
    6  A    between atoms: C_10  and  C_24
    7  A    between atoms: C_11  and  N_30
    8  A    between atoms: C_11  and  C_31
    9  A    between atoms: C_13  and  C_17
   10  A    between atoms: C_14  and  C_25
   11  A    between atoms: C_15  and  C_24
   12  A    between atoms: C_15  and  C_31
   13  A    between atoms: C_17  and  C_29
   14  A    between atoms: N_20  and  C_22
   15  A    between atoms: C_24  and  O_27
                            x       y       z     vdW  Elec       q    Type
                         _______ _______ _______ _____ _____    ______ ____

>  <TORSDO>
F 15

$$$$
=
 OpenBabel11032420113D

 36 37  0  0  1  0  0  0  0  0999 V2000
  189.4230  177.6030  140.2840 C   0  0  0  0  0  0  0  0  0  0  0  0
  189.9100  177.4770  139.0840 N   0  0  0  0  0  0  0  0  0  0  0  0
  188.0280  177.8650  140.4720 N   0  0  0  0  0  0  0  0  0  0  0  0
  187.6130  178.7830  141.2810 C   0  0  0  0  0  3  0  0  0  0  0  0
  186.2190  179.0120  141.4450 N   0  0  0  0  0  0  0  0  0  0  0  0
  185.5730  178.4020  142.3820 C   0  0  0  0  0  3  0  0  0  0  0  0
  183.3150  178.2860  141.6770 O   0  0  0  0  0  0  0  0  0  0  0  0
  184.1330  178.6180  142.5760 C   0  0  0  0  0  0  0  0  0  0  0  0
  183.6230  179.2470  143.8310 C   0  0  2  0  0  3  0  0  0  0  0  0
  184.5250  178.9020  145.0010 C   0  0  0  0  0  1  0  0  0  0  0  0
  182.3210  178.8180  144.0950 O   0  0  0  0  0  1  0  0  0  0  0  0
  189.1260  177.6040  137.8580 C   0  0  1  0  0  3  0  0  0  0  0  0
  189.0290  179.0630  137.4300 C   0  0  0  0  0  1  0  0  0  0  0  0
  189.7460  176.7590  136.7480 C   0  0  0  0  0  2  0  0  0  0  0  0
  188.6860  176.1880  135.8110 C   0  0  0  0  0  2  0  0  0  0  0  0
  187.5700  175.5040  136.6040 C   0  0  2  0  0  3  0  0  0  0  0  0
  187.8580  174.1550  136.9200 O   0  0  0  0  0  0  0  0  0  0  0  0
  187.9640  173.4140  135.7290 C   0  0  0  0  0  1  0  0  0  0  0  0
  186.1990  175.6770  135.9440 C   0  0  0  0  0  2  0  0  0  0  0  0
  183.9750  175.1000  137.6430 O   0  0  0  0  0  0  0  0  0  0  0  0
  185.3990  176.6660  136.6570 N   0  0  0  0  0  2  0  0  0  0  0  0
  184.3030  176.3070  137.4970 C   0  0  0  0  0  0  0  0  0  0  0  0
  183.5550  177.3670  138.2270 C   0  0  0  0  0  2  0  0  0  0  0  0
  184.4480  178.5720  138.4480 C   0  0  0  0  0  1  0  0  0  0  0  0
  190.2640  177.4880  141.4000 O   0  0  0  0  0  0  0  0  0  0  0  0
  190.3020  176.3370  142.2430 C   0  0  0  0  0  2  0  0  0  0  0  0
  187.2670  177.8370  147.5180 S   0  0  0  0  0  0  0  0  0  0  0  0
  188.2570  177.4050  146.2370 C   0  0  0  0  0  0  0  0  0  0  0  0
  190.7290  177.1420  145.8890 N   0  0  0  0  0  0  0  0  0  0  0  0
  188.4880  178.0990  148.6460 C   0  0  0  0  0  3  0  0  0  0  0  0
  190.8470  176.8130  144.6400 C   0  0  0  0  0  3  0  0  0  0  0  0
  189.6990  177.8380  148.0060 C   0  0  0  0  0  3  0  0  0  0  0  0
  189.8010  176.6530  143.6150 C   0  0  0  0  0  0  0  0  0  0  0  0
  187.7560  177.0430  144.9580 N   0  0  0  0  0  0  0  0  0  0  0  0
  188.4780  176.7350  143.7670 C   0  0  0  0  0  3  0  0  0  0  0  0
  189.5710  177.4520  146.6640 C   0  0  2  0  0  3  0  0  0  0  0  0
  1  3  1  0  0  0  0
  1 25  1  0  0  0  0
  2  1  2  0  0  0  0
  3  4  2  0  0  0  0
  4  5  1  0  0  0  0
  5  6  2  0  0  0  0
  6  8  1  0  0  0  0
  7  8  2  0  0  0  0
  8  9  1  0  0  0  0
  9 11  1  0  0  0  0
  9 10  1  1  0  0  0
 12 13  1  6  0  0  0
 12  2  1  0  0  0  0
 14 12  1  0  0  0  0
 15 14  1  0  0  0  0
 16 15  1  6  0  0  0
 16 17  1  0  0  0  0
 18 17  1  0  0  0  0
 19 16  1  0  0  0  0
 19 21  1  0  0  0  0
 21 22  1  0  0  0  0
 22 20  2  0  0  0  0
 22 23  1  0  0  0  0
 23 24  1  0  0  0  0
 25 26  1  0  0  0  0
 26 33  1  0  0  0  0
 27 30  1  0  0  0  0
 28 36  1  0  0  0  0
 28 27  1  0  0  0  0
 29 36  1  0  0  0  0
 31 29  2  0  0  0  0
 32 30  2  0  0  0  0
 33 35  2  0  0  0  0
 33 31  1  0  0  0  0
 34 28  2  0  0  0  0
 35 34  1  0  0  0  0
 36 32  1  1  0  0  0
M  END
>  <MODEL>
5

>  <REMARK>
 VINA RESULT:      -6.8      3.318      8.747
  Name = 
  15 active torsions:
  status: ('A' for Active; 'I' for Inactive)
    1  A    between atoms: N_1  and  C_18
    2  A    between atoms: O_7  and  C_14
    3  A    between atoms: O_7  and  C_18
    4  A    between atoms: C_9  and  C_23
    5  A    between atoms: C_10  and  N_21
    6  A    between atoms: C_10  and  C_24
    7  A    between atoms: C_11  and  N_30
    8  A    between atoms: C_11  and  C_31
    9  A    between atoms: C_13  and  C_17
   10  A    between atoms: C_14  and  C_25
   11  A    between atoms: C_15  and  C_24
   12  A    between atoms: C_15  and  C_31
   13  A    between atoms: C_17  and  C_29
   14  A    between atoms: N_20  and  C_22
   15  A    between atoms: C_24  and  O_27
                            x       y       z     vdW  Elec       q    Type
                         _______ _______ _______ _____ _____    ______ ____

>  <TORSDO>
F 15

$$$$
=
 OpenBabel11032420113D

 36 37  0  0  1  0  0  0  0  0999 V2000
  190.4770  176.6620  139.0080 C   0  0  0  0  0  0  0  0  0  0  0  0
  189.3550  176.5040  138.3690 N   0  0  0  0  0  0  0  0  0  0  0  0
  191.6500  177.0930  138.3090 N   0  0  0  0  0  0  0  0  0  0  0  0
  192.5800  176.2640  137.9670 C   0  0  0  0  0  3  0  0  0  0  0  0
  193.7320  176.7300  137.2760 N   0  0  0  0  0  0  0  0  0  0  0  0
  193.9990  176.2820  136.0950 C   0  0  0  0  0  3  0  0  0  0  0  0
  195.2040  177.8990  134.8520 O   0  0  0  0  0  0  0  0  0  0  0  0
  195.1820  176.7450  135.3570 C   0  0  0  0  0  0  0  0  0  0  0  0
  196.3650  175.8490  135.1830 C   0  0  2  0  0  3  0  0  0  0  0  0
  195.9400  174.3940  135.2350 C   0  0  0  0  0  1  0  0  0  0  0  0
  197.3140  176.1010  136.1740 O   0  0  0  0  0  1  0  0  0  0  0  0
  189.1840  176.7200  136.9350 C   0  0  1  0  0  3  0  0  0  0  0  0
  189.0540  175.3910  136.2020 C   0  0  0  0  0  1  0  0  0  0  0  0
  187.9620  177.5970  136.6780 C   0  0  0  0  0  2  0  0  0  0  0  0
  187.4530  178.2510  137.9590 C   0  0  0  0  0  2  0  0  0  0  0  0
  186.0930  177.6760  138.3610 C   0  0  2  0  0  3  0  0  0  0  0  0
  185.5180  176.8560  137.3610 O   0  0  0  0  0  0  0  0  0  0  0  0
  184.3140  177.4380  136.9230 C   0  0  0  0  0  1  0  0  0  0  0  0
  185.1310  178.7570  138.8650 C   0  0  0  0  0  2  0  0  0  0  0  0
  183.7660  177.8710  141.2140 O   0  0  0  0  0  0  0  0  0  0  0  0
  185.4570  179.1470  140.2310 N   0  0  0  0  0  2  0  0  0  0  0  0
  184.7360  178.6600  141.3620 C   0  0  0  0  0  0  0  0  0  0  0  0
  185.1500  179.0690  142.7320 C   0  0  0  0  0  2  0  0  0  0  0  0
  183.9700  178.9760  143.6800 C   0  0  0  0  0  1  0  0  0  0  0  0
  190.5450  176.4040  140.3840 O   0  0  0  0  0  0  0  0  0  0  0  0
  191.3570  177.1550  141.2870 C   0  0  0  0  0  2  0  0  0  0  0  0
  189.4610  177.1920  147.2600 S   0  0  0  0  0  0  0  0  0  0  0  0
  189.7810  177.2930  145.6190 C   0  0  0  0  0  0  0  0  0  0  0  0
  188.4620  177.8880  143.5680 N   0  0  0  0  0  0  0  0  0  0  0  0
  187.8360  177.6220  147.1830 C   0  0  0  0  0  3  0  0  0  0  0  0
  189.3000  177.7370  142.5890 C   0  0  0  0  0  3  0  0  0  0  0  0
  187.5370  177.8550  145.8420 C   0  0  0  0  0  3  0  0  0  0  0  0
  190.7020  177.2890  142.6240 C   0  0  0  0  0  0  0  0  0  0  0  0
  191.0630  177.0400  145.0620 N   0  0  0  0  0  2  0  0  0  0  0  0
  191.4540  177.0110  143.6910 C   0  0  0  0  0  3  0  0  0  0  0  0
  188.6200  177.6720  144.9700 C   0  0  0  0  0  0  0  0  0  0  0  0
  1 25  1  0  0  0  0
  2  1  2  0  0  0  0
  3  1  1  0  0  0  0
  4  3  2  0  0  0  0
  5  4  1  0  0  0  0
  6  5  2  0  0  0  0
  7  8  2  0  0  0  0
  8  6  1  0  0  0  0
  9 10  1  1  0  0  0
  9  8  1  0  0  0  0
  9 11  1  0  0  0  0
 12 13  1  6  0  0  0
 12  2  1  0  0  0  0
 14 12  1  0  0  0  0
 14 15  1  0  0  0  0
 16 15  1  6  0  0  0
 16 19  1  0  0  0  0
 17 16  1  0  0  0  0
 18 17  1  0  0  0  0
 19 21  1  0  0  0  0
 20 22  2  0  0  0  0
 21 22  1  0  0  0  0
 22 23  1  0  0  0  0
 23 24  1  0  0  0  0
 25 26  1  0  0  0  0
 26 33  1  0  0  0  0
 28 27  1  0  0  0  0
 29 36  1  0  0  0  0
 30 27  1  0  0  0  0
 31 33  1  0  0  0  0
 31 29  2  0  0  0  0
 32 30  2  0  0  0  0
 33 35  2  0  0  0  0
 34 28  1  0  0  0  0
 35 34  1  0  0  0  0
 36 28  2  0  0  0  0
 36 32  1  0  0  0  0
M  END
>  <MODEL>
6

>  <REMARK>
 VINA RESULT:      -6.7      3.306      7.019
  Name = 
  15 active torsions:
  status: ('A' for Active; 'I' for Inactive)
    1  A    between atoms: N_1  and  C_18
    2  A    between atoms: O_7  and  C_14
    3  A    between atoms: O_7  and  C_18
    4  A    between atoms: C_9  and  C_23
    5  A    between atoms: C_10  and  N_21
    6  A    between atoms: C_10  and  C_24
    7  A    between atoms: C_11  and  N_30
    8  A    between atoms: C_11  and  C_31
    9  A    between atoms: C_13  and  C_17
   10  A    between atoms: C_14  and  C_25
   11  A    between atoms: C_15  and  C_24
   12  A    between atoms: C_15  and  C_31
   13  A    between atoms: C_17  and  C_29
   14  A    between atoms: N_20  and  C_22
   15  A    between atoms: C_24  and  O_27
                            x       y       z     vdW  Elec       q    Type
                         _______ _______ _______ _____ _____    ______ ____

>  <TORSDO>
F 15

$$$$
=
 OpenBabel11032420113D

 36 37  0  0  1  0  0  0  0  0999 V2000
  187.0640  178.2620  141.2300 C   0  0  0  0  0  0  0  0  0  0  0  0
  188.0900  177.6940  141.7940 N   0  0  0  0  0  0  0  0  0  0  0  0
  185.7800  178.2250  141.8640 N   0  0  0  0  0  0  0  0  0  0  0  0
  184.7220  178.6880  141.2840 C   0  0  0  0  0  3  0  0  0  0  0  0
  183.4660  178.6370  141.9470 N   0  0  0  0  0  0  0  0  0  0  0  0
  182.3760  178.5770  141.2560 C   0  0  0  0  0  3  0  0  0  0  0  0
  180.1430  177.8100  141.4310 O   0  0  0  0  0  0  0  0  0  0  0  0
  181.0630  178.5230  141.9120 C   0  0  0  0  0  0  0  0  0  0  0  0
  180.7990  179.3230  143.1460 C   0  0  2  0  0  3  0  0  0  0  0  0
  179.7680  178.6300  144.0160 C   0  0  0  0  0  1  0  0  0  0  0  0
  180.3510  180.6010  142.8080 O   0  0  0  0  0  1  0  0  0  0  0  0
  188.0400  176.9740  143.0630 C   0  0  1  0  0  3  0  0  0  0  0  0
  189.1270  175.9080  143.1210 C   0  0  0  0  0  1  0  0  0  0  0  0
  188.1840  177.9510  144.2270 C   0  0  0  0  0  2  0  0  0  0  0  0
  187.1150  177.7260  145.2930 C   0  0  0  0  0  2  0  0  0  0  0  0
  187.7550  177.4700  146.6590 C   0  0  2  0  0  3  0  0  0  0  0  0
  186.9440  177.8890  147.7410 O   0  0  0  0  0  0  0  0  0  0  0  0
  186.2440  179.0520  147.3700 C   0  0  0  0  0  1  0  0  0  0  0  0
  189.1830  178.0180  146.7430 C   0  0  0  0  0  2  0  0  0  0  0  0
  191.5570  177.4860  145.2450 O   0  0  0  0  0  0  0  0  0  0  0  0
  190.1360  176.9490  147.0180 N   0  0  0  0  0  2  0  0  0  0  0  0
  191.3080  176.7430  146.2320 C   0  0  0  0  0  0  0  0  0  0  0  0
  192.2590  175.6580  146.5950 C   0  0  0  0  0  2  0  0  0  0  0  0
  192.4550  175.6210  148.0970 C   0  0  0  0  0  1  0  0  0  0  0  0
  187.2080  178.9090  139.9950 O   0  0  0  0  0  0  0  0  0  0  0  0
  186.9850  178.2680  138.7390 C   0  0  0  0  0  2  0  0  0  0  0  0
  191.2140  174.0510  136.8390 S   0  0  0  0  0  0  0  0  0  0  0  0
  190.2560  175.3150  137.3760 C   0  0  0  0  0  0  0  0  0  0  0  0
  190.6590  177.5050  138.5350 N   0  0  0  0  0  0  0  0  0  0  0  0
  192.6910  174.6790  137.3450 C   0  0  0  0  0  3  0  0  0  0  0  0
  189.4750  178.0090  138.6970 C   0  0  0  0  0  3  0  0  0  0  0  0
  192.4290  175.9090  137.9440 C   0  0  0  0  0  3  0  0  0  0  0  0
  188.1640  177.4440  138.3330 C   0  0  0  0  0  0  0  0  0  0  0  0
  188.8460  175.3480  137.2020 N   0  0  0  0  0  0  0  0  0  0  0  0
  187.9080  176.3120  137.6750 C   0  0  0  0  0  3  0  0  0  0  0  0
  191.0720  176.2650  137.9620 C   0  0  2  0  0  3  0  0  0  0  0  0
  1  2  2  0  0  0  0
  1  3  1  0  0  0  0
  2 12  1  0  0  0  0
  4  3  2  0  0  0  0
  4  5  1  0  0  0  0
  6  8  1  0  0  0  0
  6  5  2  0  0  0  0
  7  8  2  0  0  0  0
  8  9  1  0  0  0  0
  9 10  1  1  0  0  0
 11  9  1  0  0  0  0
 12 13  1  6  0  0  0
 12 14  1  0  0  0  0
 14 15  1  0  0  0  0
 16 15  1  6  0  0  0
 16 19  1  0  0  0  0
 16 17  1  0  0  0  0
 18 17  1  0  0  0  0
 19 21  1  0  0  0  0
 20 22  2  0  0  0  0
 22 23  1  0  0  0  0
 22 21  1  0  0  0  0
 23 24  1  0  0  0  0
 25  1  1  0  0  0  0
 26 25  1  0  0  0  0
 27 30  1  0  0  0  0
 27 28  1  0  0  0  0
 28 36  1  0  0  0  0
 29 31  2  0  0  0  0
 30 32  2  0  0  0  0
 33 31  1  0  0  0  0
 33 26  1  0  0  0  0
 34 28  2  0  0  0  0
 34 35  1  0  0  0  0
 35 33  2  0  0  0  0
 36 32  1  6  0  0  0
 36 29  1  0  0  0  0
M  END
>  <MODEL>
7

>  <REMARK>
 VINA RESULT:      -6.7      3.057      8.074
  Name = 
  15 active torsions:
  status: ('A' for Active; 'I' for Inactive)
    1  A    between atoms: N_1  and  C_18
    2  A    between atoms: O_7  and  C_14
    3  A    between atoms: O_7  and  C_18
    4  A    between atoms: C_9  and  C_23
    5  A    between atoms: C_10  and  N_21
    6  A    between atoms: C_10  and  C_24
    7  A    between atoms: C_11  and  N_30
    8  A    between atoms: C_11  and  C_31
    9  A    between atoms: C_13  and  C_17
   10  A    between atoms: C_14  and  C_25
   11  A    between atoms: C_15  and  C_24
   12  A    between atoms: C_15  and  C_31
   13  A    between atoms: C_17  and  C_29
   14  A    between atoms: N_20  and  C_22
   15  A    between atoms: C_24  and  O_27
                            x       y       z     vdW  Elec       q    Type
                         _______ _______ _______ _____ _____    ______ ____

>  <TORSDO>
F 15

$$$$
=
 OpenBabel11032420113D

 36 37  0  0  1  0  0  0  0  0999 V2000
  188.0530  178.2010  139.9670 C   0  0  0  0  0  0  0  0  0  0  0  0
  188.7250  177.9020  138.8940 N   0  0  0  0  0  0  0  0  0  0  0  0
  186.6830  178.6070  139.8700 N   0  0  0  0  0  0  0  0  0  0  0  0
  186.0110  178.9820  140.9070 C   0  0  0  0  0  3  0  0  0  0  0  0
  184.6510  179.3750  140.7720 N   0  0  0  0  0  0  0  0  0  0  0  0
  183.7100  178.5770  141.1550 C   0  0  0  0  0  3  0  0  0  0  0  0
  181.8110  179.2240  139.8970 O   0  0  0  0  0  0  0  0  0  0  0  0
  182.2960  178.9550  141.0270 C   0  0  0  0  0  0  0  0  0  0  0  0
  181.4220  179.0390  142.2360 C   0  0  2  0  0  3  0  0  0  0  0  0
  182.2610  179.0040  143.5000 C   0  0  0  0  0  1  0  0  0  0  0  0
  180.5070  177.9860  142.2470 O   0  0  0  0  0  1  0  0  0  0  0  0
  188.1860  177.9660  137.5380 C   0  0  1  0  0  3  0  0  0  0  0  0
  188.5520  179.2880  136.8750 C   0  0  0  0  0  1  0  0  0  0  0  0
  188.7020  176.7910  136.7120 C   0  0  0  0  0  2  0  0  0  0  0  0
  189.2080  175.6540  137.5960 C   0  0  0  0  0  2  0  0  0  0  0  0
  190.1640  174.7450  136.8200 C   0  0  2  0  0  3  0  0  0  0  0  0
  190.0250  173.3770  137.1540 O   0  0  0  0  0  0  0  0  0  0  0  0
  188.7010  172.9730  136.9070 C   0  0  0  0  0  1  0  0  0  0  0  0
  191.6150  175.2290  136.8960 C   0  0  0  0  0  2  0  0  0  0  0  0
  193.9240  176.7740  137.5640 O   0  0  0  0  0  0  0  0  0  0  0  0
  191.9120  175.7820  138.2120 N   0  0  0  0  0  2  0  0  0  0  0  0
  193.0840  176.5520  138.4760 C   0  0  0  0  0  0  0  0  0  0  0  0
  193.3030  177.1210  139.8330 C   0  0  0  0  0  2  0  0  0  0  0  0
  191.9750  177.5010  140.4570 C   0  0  0  0  0  1  0  0  0  0  0  0
  188.6680  178.1330  141.2240 O   0  0  0  0  0  0  0  0  0  0  0  0
  188.7230  176.9430  142.0110 C   0  0  0  0  0  2  0  0  0  0  0  0
  189.4530  177.8780  148.1650 S   0  0  0  0  0  0  0  0  0  0  0  0
  189.0540  177.7120  146.5470 C   0  0  0  0  0  0  0  0  0  0  0  0
  186.9350  177.8020  145.2030 N   0  0  0  0  0  0  0  0  0  0  0  0
  187.8920  178.1340  148.7400 C   0  0  0  0  0  3  0  0  0  0  0  0
  187.3130  177.5560  143.9870 C   0  0  0  0  0  3  0  0  0  0  0  0
  187.0380  178.0930  147.6390 C   0  0  0  0  0  3  0  0  0  0  0  0
  188.6590  177.2540  143.4710 C   0  0  0  0  0  0  0  0  0  0  0  0
  190.0190  177.4830  145.5300 N   0  0  0  0  0  0  0  0  0  0  0  0
  189.8140  177.2450  144.1380 C   0  0  0  0  0  3  0  0  0  0  0  0
  187.6850  177.8570  146.4160 C   0  0  2  0  0  3  0  0  0  0  0  0
  1 25  1  0  0  0  0
  2  1  2  0  0  0  0
  3  1  1  0  0  0  0
  3  4  2  0  0  0  0
  5  4  1  0  0  0  0
  5  6  2  0  0  0  0
  7  8  2  0  0  0  0
  8  6  1  0  0  0  0
  8  9  1  0  0  0  0
  9 11  1  0  0  0  0
  9 10  1  1  0  0  0
 12 13  1  6  0  0  0
 12  2  1  0  0  0  0
 14 12  1  0  0  0  0
 14 15  1  0  0  0  0
 16 19  1  1  0  0  0
 16 17  1  0  0  0  0
 16 15  1  0  0  0  0
 18 17  1  0  0  0  0
 19 21  1  0  0  0  0
 20 22  2  0  0  0  0
 21 22  1  0  0  0  0
 22 23  1  0  0  0  0
 23 24  1  0  0  0  0
 25 26  1  0  0  0  0
 26 33  1  0  0  0  0
 27 30  1  0  0  0  0
 28 27  1  0  0  0  0
 29 36  1  0  0  0  0
 31 29  2  0  0  0  0
 32 30  2  0  0  0  0
 33 31  1  0  0  0  0
 33 35  2  0  0  0  0
 34 28  2  0  0  0  0
 35 34  1  0  0  0  0
 36 28  1  0  0  0  0
 36 32  1  6  0  0  0
M  END
>  <MODEL>
8

>  <REMARK>
 VINA RESULT:      -6.7      3.200      8.850
  Name = 
  15 active torsions:
  status: ('A' for Active; 'I' for Inactive)
    1  A    between atoms: N_1  and  C_18
    2  A    between atoms: O_7  and  C_14
    3  A    between atoms: O_7  and  C_18
    4  A    between atoms: C_9  and  C_23
    5  A    between atoms: C_10  and  N_21
    6  A    between atoms: C_10  and  C_24
    7  A    between atoms: C_11  and  N_30
    8  A    between atoms: C_11  and  C_31
    9  A    between atoms: C_13  and  C_17
   10  A    between atoms: C_14  and  C_25
   11  A    between atoms: C_15  and  C_24
   12  A    between atoms: C_15  and  C_31
   13  A    between atoms: C_17  and  C_29
   14  A    between atoms: N_20  and  C_22
   15  A    between atoms: C_24  and  O_27
                            x       y       z     vdW  Elec       q    Type
                         _______ _______ _______ _____ _____    ______ ____

>  <TORSDO>
F 15

$$$$
=
 OpenBabel11032420113D

 36 37  0  0  1  0  0  0  0  0999 V2000
  184.1800  179.5110  139.5230 C   0  0  0  0  0  0  0  0  0  0  0  0
  184.0960  178.8450  140.6380 N   0  0  0  0  0  0  0  0  0  0  0  0
  183.1250  180.3960  139.1310 N   0  0  0  0  0  0  0  0  0  0  0  0
  182.3050  180.0950  138.1780 C   0  0  0  0  0  3  0  0  0  0  0  0
  181.2720  181.0010  137.8140 N   0  0  0  0  0  0  0  0  0  0  0  0
  181.4300  182.2680  138.0070 C   0  0  0  0  0  3  0  0  0  0  0  0
  179.1880  183.0290  137.9930 O   0  0  0  0  0  0  0  0  0  0  0  0
  180.3810  183.2290  137.6410 C   0  0  0  0  0  0  0  0  0  0  0  0
  180.7110  184.4430  136.8360 C   0  0  2  0  0  3  0  0  0  0  0  0
  180.7990  184.0940  135.3630 C   0  0  0  0  0  1  0  0  0  0  0  0
  181.9190  184.9950  137.2640 O   0  0  0  0  0  1  0  0  0  0  0  0
  182.9610  178.9110  141.5540 C   0  0  1  0  0  3  0  0  0  0  0  0
  181.8930  177.8970  141.1620 C   0  0  0  0  0  1  0  0  0  0  0  0
  183.4280  178.6700  142.9870 C   0  0  0  0  0  2  0  0  0  0  0  0
  184.8490  179.1800  143.2140 C   0  0  0  0  0  2  0  0  0  0  0  0
  185.6540  178.1880  144.0560 C   0  0  2  0  0  3  0  0  0  0  0  0
  186.0430  178.7110  145.3120 O   0  0  0  0  0  0  0  0  0  0  0  0
  185.1100  178.3110  146.2870 C   0  0  0  0  0  1  0  0  0  0  0  0
  186.8280  177.5840  143.2780 C   0  0  0  0  0  2  0  0  0  0  0  0
  189.1480  175.9180  143.2210 O   0  0  0  0  0  0  0  0  0  0  0  0
  188.0950  177.8750  143.9370 N   0  0  0  0  0  2  0  0  0  0  0  0
  189.2200  177.0000  143.8620 C   0  0  0  0  0  0  0  0  0  0  0  0
  190.4960  177.3800  144.5250 C   0  0  0  0  0  2  0  0  0  0  0  0
  191.6540  176.6430  143.8830 C   0  0  0  0  0  1  0  0  0  0  0  0
  185.3030  179.3610  138.6970 O   0  0  0  0  0  0  0  0  0  0  0  0
  185.6820  178.1210  138.1010 C   0  0  0  0  0  2  0  0  0  0  0  0
  191.7060  176.3920  138.0180 S   0  0  0  0  0  0  0  0  0  0  0  0
  190.1470  176.9710  138.2220 C   0  0  0  0  0  0  0  0  0  0  0  0
  188.8840  178.1120  140.0680 N   0  0  0  0  0  0  0  0  0  0  0  0
  192.2810  176.7980  139.5470 C   0  0  0  0  0  3  0  0  0  0  0  0
  187.6870  178.2660  139.5940 C   0  0  0  0  0  3  0  0  0  0  0  0
  191.2300  177.4050  140.2320 C   0  0  0  0  0  3  0  0  0  0  0  0
  187.1400  177.8510  138.2910 C   0  0  0  0  0  0  0  0  0  0  0  0
  189.1580  176.9110  137.2040 N   0  0  0  0  0  0  0  0  0  0  0  0
  187.7840  177.2880  137.2670 C   0  0  0  0  0  3  0  0  0  0  0  0
  190.0400  177.5010  139.4950 C   0  0  2  0  0  3  0  0  0  0  0  0
  1  2  2  0  0  0  0
  2 12  1  0  0  0  0
  3  1  1  0  0  0  0
  4  3  2  0  0  0  0
  5  6  2  0  0  0  0
  5  4  1  0  0  0  0
  8  7  2  0  0  0  0
  8  6  1  0  0  0  0
  9 10  1  6  0  0  0
  9 11  1  0  0  0  0
  9  8  1  0  0  0  0
 12 13  1  6  0  0  0
 12 14  1  0  0  0  0
 14 15  1  0  0  0  0
 16 15  1  6  0  0  0
 16 17  1  0  0  0  0
 17 18  1  0  0  0  0
 19 21  1  0  0  0  0
 19 16  1  0  0  0  0
 20 22  2  0  0  0  0
 22 21  1  0  0  0  0
 22 23  1  0  0  0  0
 24 23  1  0  0  0  0
 25  1  1  0  0  0  0
 26 33  1  0  0  0  0
 26 25  1  0  0  0  0
 27 28  1  0  0  0  0
 27 30  1  0  0  0  0
 28 36  1  0  0  0  0
 30 32  2  0  0  0  0
 31 29  2  0  0  0  0
 33 31  1  0  0  0  0
 34 35  1  0  0  0  0
 34 28  2  0  0  0  0
 35 33  2  0  0  0  0
 36 29  1  0  0  0  0
 36 32  1  6  0  0  0
M  END
>  <MODEL>
9

>  <REMARK>
 VINA RESULT:      -6.6      3.832      8.659
  Name = 
  15 active torsions:
  status: ('A' for Active; 'I' for Inactive)
    1  A    between atoms: N_1  and  C_18
    2  A    between atoms: O_7  and  C_14
    3  A    between atoms: O_7  and  C_18
    4  A    between atoms: C_9  and  C_23
    5  A    between atoms: C_10  and  N_21
    6  A    between atoms: C_10  and  C_24
    7  A    between atoms: C_11  and  N_30
    8  A    between atoms: C_11  and  C_31
    9  A    between atoms: C_13  and  C_17
   10  A    between atoms: C_14  and  C_25
   11  A    between atoms: C_15  and  C_24
   12  A    between atoms: C_15  and  C_31
   13  A    between atoms: C_17  and  C_29
   14  A    between atoms: N_20  and  C_22
   15  A    between atoms: C_24  and  O_27
                            x       y       z     vdW  Elec       q    Type
                         _______ _______ _______ _____ _____    ______ ____

>  <TORSDO>
F 15

$$$$
