=
 OpenBabel11042410083D

 54 61  0  0  1  0  0  0  0  0999 V2000
  190.9700  176.1690  144.4870 C   0  0  0  0  0  2  0  0  0  0  0  0
  191.9230  176.4420  145.6530 C   0  0  0  0  0  2  0  0  0  0  0  0
  186.3830  177.7280  144.7940 C   0  0  0  0  0  0  0  0  0  0  0  0
  190.1530  176.2670  147.2090 C   0  0  0  0  0  2  0  0  0  0  0  0
  188.8660  177.0370  147.2050 C   0  0  0  0  0  0  0  0  0  0  0  0
  187.3890  177.0350  142.7180 O   0  0  0  0  0  0  0  0  0  0  0  0
  187.4790  177.2730  143.9500 C   0  0  0  0  0  0  0  0  0  0  0  0
  186.7950  177.7740  146.0500 C   0  0  0  0  0  3  0  0  0  0  0  0
  191.2550  177.1090  146.7690 N   0  0  0  0  0  2  0  0  0  0  0  0
  190.0360  177.3510  144.2730 C   0  0  2  0  0  3  0  0  0  0  0  0
  188.1970  177.3200  146.0650 C   0  0  0  0  0  0  0  0  0  0  0  0
  188.6630  177.0640  144.7230 N   0  0  0  0  0  0  0  0  0  0  0  0
  188.2640  177.3830  148.5070 C   0  0  0  0  0  3  0  0  0  0  0  0
  188.5740  178.4760  149.1260 N   0  0  0  0  0  2  0  0  0  0  0  0
  190.1780  178.0450  142.9090 C   0  0  0  0  0  2  0  0  0  0  0  0
  192.0670  177.5980  141.5010 O   0  0  0  0  0  1  0  0  0  0  0  0
  190.7730  177.1750  141.8020 C   0  0  2  0  0  3  0  0  0  0  0  0
  189.9240  177.2900  140.5450 C   0  0  0  0  0  2  0  0  0  0  0  0
  190.5720  175.7940  138.7280 N   0  0  0  0  0  2  0  0  0  0  0  0
  190.0300  176.9630  138.0160 C   0  0  2  0  0  3  0  0  0  0  0  0
  190.7730  177.1430  139.2840 C   0  0  1  0  0  3  0  0  0  0  0  0
  188.5060  176.9960  138.1370 C   0  0  0  0  0  2  0  0  0  0  0  0
  188.7630  176.8170  135.7730 O   0  0  0  0  0  1  0  0  0  0  0  0
  187.8390  176.6540  136.8080 C   0  0  2  0  0  3  0  0  0  0  0  0
  186.6150  177.5510  136.5670 C   0  0  2  0  0  3  0  0  0  0  0  0
  186.4980  178.5000  137.5840 O   0  0  0  0  0  1  0  0  0  0  0  0
  185.0330  176.3000  135.0300 C   0  0  0  0  0  2  0  0  0  0  0  0
  184.6490  174.8250  135.0130 C   0  0  0  0  0  2  0  0  0  0  0  0
  185.2960  176.7760  136.4520 C   0  0  2  0  0  3  0  0  0  0  0  0
  184.9300  174.0100  137.6500 O   0  0  0  0  0  1  0  0  0  0  0  0
  183.0880  175.4730  138.2410 C   0  0  2  0  0  3  0  0  0  0  0  0
  181.7770  176.4590  136.5070 C   0  0  1  0  0  3  0  0  0  0  0  0
  182.2190  175.4700  135.4110 C   0  0  0  0  0  2  0  0  0  0  0  0
  181.6390  175.1330  138.5600 C   0  0  0  0  0  2  0  0  0  0  0  0
  180.8000  175.7250  137.4180 C   0  0  0  0  0  2  0  0  0  0  0  0
  182.9050  176.7650  137.4710 C   0  0  2  0  0  3  0  0  0  0  0  0
  183.3750  174.5200  135.8090 C   0  0  2  0  0  3  0  0  0  0  0  0
  183.6050  174.3350  137.3390 C   0  0  1  0  0  3  0  0  0  0  0  0
  184.1180  177.5800  136.9930 C   0  0  0  0  0  2  0  0  0  0  0  0
  185.0870  178.0630  144.3970 O   0  0  0  0  0  0  0  0  0  0  0  0
  184.5910  179.3920  144.4530 C   0  0  0  0  0  2  0  0  0  0  0  0
  183.4050  179.5370  143.5210 C   0  0  0  0  0  2  0  0  0  0  0  0
  183.4320  178.4850  142.5160 N   0  0  0  0  0  2  0  0  0  0  0  0
  183.4860  178.7170  141.1010 C   0  0  0  0  0  0  0  0  0  0  0  0
  184.6870  178.7990  140.5350 C   0  0  0  0  0  2  0  0  0  0  0  0
  181.0900  178.1630  140.5510 C   0  0  0  0  0  3  0  0  0  0  0  0
  179.5160  180.3930  137.0070 C   0  0  0  0  0  3  0  0  0  0  0  0
  182.2730  179.8020  139.1760 C   0  0  0  0  0  3  0  0  0  0  0  0
  181.1100  179.9220  138.4200 C   0  0  0  0  0  0  0  0  0  0  0  0
  179.9860  179.2060  138.7040 C   0  0  0  0  0  0  0  0  0  0  0  0
  179.0410  179.4940  137.8530 O   0  0  0  0  0  0  0  0  0  0  0  0
  182.2670  178.9100  140.2720 C   0  0  0  0  0  0  0  0  0  0  0  0
  179.9320  178.3080  139.7660 C   0  0  0  0  0  3  0  0  0  0  0  0
  180.8420  180.7080  137.3210 C   0  0  0  0  0  3  0  0  0  0  0  0
  1  2  1  0  0  0  0
  2  9  1  0  0  0  0
  3  8  2  0  0  0  0
  5  4  1  0  0  0  0
  5 13  1  0  0  0  0
  6  7  2  0  0  0  0
  7 12  1  0  0  0  0
  7  3  1  0  0  0  0
  8 11  1  0  0  0  0
  9  4  1  0  0  0  0
 10 15  1  6  0  0  0
 10  1  1  0  0  0  0
 10 12  1  0  0  0  0
 11  5  2  0  0  0  0
 12 11  1  0  0  0  0
 13 14  2  0  0  0  0
 17 16  1  6  0  0  0
 17 15  1  0  0  0  0
 18 17  1  0  0  0  0
 19 21  1  0  0  0  0
 20 22  1  1  0  0  0
 20 19  1  0  0  0  0
 20 21  1  0  0  0  0
 21 18  1  1  0  0  0
 24 23  1  6  0  0  0
 24 22  1  0  0  0  0
 25 24  1  0  0  0  0
 25 26  1  1  0  0  0
 27 29  1  0  0  0  0
 28 27  1  0  0  0  0
 29 25  1  6  0  0  0
 29 39  1  0  0  0  0
 31 34  1  6  0  0  0
 32 33  1  6  0  0  0
 32 35  1  0  0  0  0
 32 36  1  0  0  0  0
 33 37  1  0  0  0  0
 35 34  1  0  0  0  0
 36 39  1  6  0  0  0
 36 31  1  0  0  0  0
 37 28  1  6  0  0  0
 37 38  1  0  0  0  0
 38 30  1  6  0  0  0
 38 31  1  0  0  0  0
 40 41  1  0  0  0  0
 40  3  1  0  0  0  0
 42 41  1  0  0  0  0
 43 42  1  0  0  0  0
 44 43  1  0  0  0  0
 45 44  2  0  0  0  0
 47 54  2  0  0  0  0
 47 51  1  0  0  0  0
 48 52  2  0  0  0  0
 49 50  2  0  0  0  0
 49 48  1  0  0  0  0
 50 53  1  0  0  0  0
 51 50  1  0  0  0  0
 52 46  1  0  0  0  0
 52 44  1  0  0  0  0
 53 46  2  0  0  0  0
 54 49  1  0  0  0  0
M  END
>  <MODEL>
1

>  <REMARK>
 VINA RESULT:      -8.0      0.000      0.000
  Name = 
  15 active torsions:
  status: ('A' for Active; 'I' for Inactive)
    1  A    between atoms: C_1  and  C_23
    2  A    between atoms: C_2  and  C_22
    3  A    between atoms: C_2  and  C_46
    4  A    between atoms: C_5  and  C_20
    5  A    between atoms: C_5  and  C_24
    6  A    between atoms: C_11  and  C_33
    7  A    between atoms: C_11  and  N_42
    8  A    between atoms: C_13  and  C_14
    9  A    between atoms: C_13  and  C_46
   10  A    between atoms: C_15  and  O_51
   11  A    between atoms: C_17  and  N_42
   12  A    between atoms: C_17  and  C_45
   13  A    between atoms: C_24  and  C_32
   14  A    between atoms: C_32  and  C_43
   15  A    between atoms: C_33  and  O_51
                            x       y       z     vdW  Elec       q    Type
                         _______ _______ _______ _____ _____    ______ ____

>  <TORSDO>
F 15

$$$$
=
 OpenBabel11042410083D

 54 61  0  0  1  0  0  0  0  0999 V2000
  187.8120  178.6810  147.0700 C   0  0  0  0  0  2  0  0  0  0  0  0
  187.8920  177.8810  148.3730 C   0  0  0  0  0  2  0  0  0  0  0  0
  190.5370  177.2980  143.2990 C   0  0  0  0  0  0  0  0  0  0  0  0
  190.1730  177.3920  147.9930 C   0  0  0  0  0  2  0  0  0  0  0  0
  190.7690  176.7480  146.7770 C   0  0  0  0  0  0  0  0  0  0  0  0
  188.6830  178.8200  143.0800 O   0  0  0  0  0  0  0  0  0  0  0  0
  189.3870  178.0500  143.7820 C   0  0  0  0  0  0  0  0  0  0  0  0
  191.1070  176.6780  144.3170 C   0  0  0  0  0  3  0  0  0  0  0  0
  188.8790  176.8040  148.3010 N   0  0  0  0  0  2  0  0  0  0  0  0
  187.9010  177.7520  145.8680 C   0  0  2  0  0  3  0  0  0  0  0  0
  190.3410  177.0320  145.5260 C   0  0  0  0  0  0  0  0  0  0  0  0
  189.2020  177.8500  145.1850 N   0  0  0  0  0  0  0  0  0  0  0  0
  191.9410  175.8720  146.9640 C   0  0  0  0  0  3  0  0  0  0  0  0
  192.6680  175.9340  148.0330 N   0  0  0  0  0  2  0  0  0  0  0  0
  186.6550  177.7430  144.9680 C   0  0  0  0  0  2  0  0  0  0  0  0
  184.6530  178.5280  146.0310 O   0  0  0  0  0  1  0  0  0  0  0  0
  185.6940  178.9130  145.1860 C   0  0  2  0  0  3  0  0  0  0  0  0
  185.0990  179.3450  143.8550 C   0  0  0  0  0  2  0  0  0  0  0  0
  183.1010  178.9760  142.5030 N   0  0  0  0  0  2  0  0  0  0  0  0
  184.1080  178.1300  141.8420 C   0  0  2  0  0  3  0  0  0  0  0  0
  184.1280  178.2990  143.3110 C   0  0  1  0  0  3  0  0  0  0  0  0
  185.1010  178.9980  141.0660 C   0  0  0  0  0  2  0  0  0  0  0  0
  186.7450  178.5950  139.3860 O   0  0  0  0  0  1  0  0  0  0  0  0
  185.3940  178.4070  139.6910 C   0  0  2  0  0  3  0  0  0  0  0  0
  184.5150  179.0660  138.6170 C   0  0  2  0  0  3  0  0  0  0  0  0
  184.1580  180.3580  139.0040 O   0  0  0  0  0  1  0  0  0  0  0  0
  182.0110  178.8640  138.9610 C   0  0  0  0  0  2  0  0  0  0  0  0
  180.8700  179.0220  137.9620 C   0  0  0  0  0  2  0  0  0  0  0  0
  183.2430  178.2730  138.2890 C   0  0  2  0  0  3  0  0  0  0  0  0
  181.9830  178.2970  135.5270 O   0  0  0  0  0  1  0  0  0  0  0  0
  182.2110  176.0340  136.3670 C   0  0  2  0  0  3  0  0  0  0  0  0
  181.1420  175.4340  138.4150 C   0  0  1  0  0  3  0  0  0  0  0  0
  180.1580  176.6210  138.4180 C   0  0  0  0  0  2  0  0  0  0  0  0
  181.3800  174.7940  136.0650 C   0  0  0  0  0  2  0  0  0  0  0  0
  180.6540  174.4390  137.3700 C   0  0  0  0  0  2  0  0  0  0  0  0
  182.4890  175.8260  137.8420 C   0  0  2  0  0  3  0  0  0  0  0  0
  180.4220  177.6970  137.3360 C   0  0  2  0  0  3  0  0  0  0  0  0
  181.2840  177.2410  136.1210 C   0  0  1  0  0  3  0  0  0  0  0  0
  183.3980  176.7920  138.6200 C   0  0  0  0  0  2  0  0  0  0  0  0
  191.0100  177.2200  141.9870 O   0  0  0  0  0  0  0  0  0  0  0  0
  190.2410  176.6680  140.9300 C   0  0  0  0  0  2  0  0  0  0  0  0
  190.5230  177.4200  139.6440 C   0  0  0  0  0  2  0  0  0  0  0  0
  191.3470  176.6060  138.7630 N   0  0  0  0  0  2  0  0  0  0  0  0
  190.9720  176.2160  137.4330 C   0  0  0  0  0  0  0  0  0  0  0  0
  191.9470  176.0080  136.5540 C   0  0  0  0  0  2  0  0  0  0  0  0
  188.9280  174.8100  136.9920 C   0  0  0  0  0  3  0  0  0  0  0  0
  185.4530  177.1590  135.4360 C   0  0  0  0  0  3  0  0  0  0  0  0
  188.8260  177.2150  136.5680 C   0  0  0  0  0  3  0  0  0  0  0  0
  187.5090  177.0280  136.1540 C   0  0  0  0  0  0  0  0  0  0  0  0
  186.9190  175.8000  136.1540 C   0  0  0  0  0  0  0  0  0  0  0  0
  185.6910  175.8900  135.7220 O   0  0  0  0  0  0  0  0  0  0  0  0
  189.5540  176.0860  137.0050 C   0  0  0  0  0  0  0  0  0  0  0  0
  187.5960  174.6570  136.5660 C   0  0  0  0  0  3  0  0  0  0  0  0
  186.5850  177.9390  135.6930 C   0  0  0  0  0  3  0  0  0  0  0  0
  1  2  1  0  0  0  0
  3  7  1  0  0  0  0
  3  8  2  0  0  0  0
  4  9  1  0  0  0  0
  5 13  1  0  0  0  0
  5  4  1  0  0  0  0
  6  7  2  0  0  0  0
  7 12  1  0  0  0  0
  8 11  1  0  0  0  0
  9  2  1  0  0  0  0
 10 15  1  6  0  0  0
 10  1  1  0  0  0  0
 11  5  2  0  0  0  0
 12 11  1  0  0  0  0
 12 10  1  0  0  0  0
 13 14  2  0  0  0  0
 15 17  1  0  0  0  0
 17 16  1  1  0  0  0
 18 17  1  0  0  0  0
 19 21  1  0  0  0  0
 20 22  1  6  0  0  0
 20 19  1  0  0  0  0
 20 21  1  0  0  0  0
 21 18  1  6  0  0  0
 24 23  1  6  0  0  0
 24 22  1  0  0  0  0
 25 26  1  1  0  0  0
 25 24  1  0  0  0  0
 28 27  1  0  0  0  0
 29 25  1  1  0  0  0
 29 39  1  0  0  0  0
 29 27  1  0  0  0  0
 31 34  1  1  0  0  0
 31 36  1  0  0  0  0
 32 35  1  6  0  0  0
 32 33  1  0  0  0  0
 34 35  1  0  0  0  0
 36 32  1  0  0  0  0
 36 39  1  1  0  0  0
 37 28  1  1  0  0  0
 37 33  1  0  0  0  0
 38 30  1  1  0  0  0
 38 31  1  0  0  0  0
 38 37  1  0  0  0  0
 40  3  1  0  0  0  0
 41 40  1  0  0  0  0
 42 41  1  0  0  0  0
 43 42  1  0  0  0  0
 44 43  1  0  0  0  0
 45 44  2  0  0  0  0
 46 52  1  0  0  0  0
 47 54  2  0  0  0  0
 47 51  1  0  0  0  0
 48 52  2  0  0  0  0
 49 48  1  0  0  0  0
 50 49  2  0  0  0  0
 50 53  1  0  0  0  0
 51 50  1  0  0  0  0
 52 44  1  0  0  0  0
 53 46  2  0  0  0  0
 54 49  1  0  0  0  0
M  END
>  <MODEL>
2

>  <REMARK>
 VINA RESULT:      -7.4      1.538      5.727
  Name = 
  15 active torsions:
  status: ('A' for Active; 'I' for Inactive)
    1  A    between atoms: C_1  and  C_23
    2  A    between atoms: C_2  and  C_22
    3  A    between atoms: C_2  and  C_46
    4  A    between atoms: C_5  and  C_20
    5  A    between atoms: C_5  and  C_24
    6  A    between atoms: C_11  and  C_33
    7  A    between atoms: C_11  and  N_42
    8  A    between atoms: C_13  and  C_14
    9  A    between atoms: C_13  and  C_46
   10  A    between atoms: C_15  and  O_51
   11  A    between atoms: C_17  and  N_42
   12  A    between atoms: C_17  and  C_45
   13  A    between atoms: C_24  and  C_32
   14  A    between atoms: C_32  and  C_43
   15  A    between atoms: C_33  and  O_51
                            x       y       z     vdW  Elec       q    Type
                         _______ _______ _______ _____ _____    ______ ____

>  <TORSDO>
F 15

$$$$
=
 OpenBabel11042410083D

 54 61  0  0  1  0  0  0  0  0999 V2000
  187.6930  178.7610  146.9230 C   0  0  0  0  0  2  0  0  0  0  0  0
  188.1280  178.1900  148.2750 C   0  0  0  0  0  2  0  0  0  0  0  0
  189.5380  176.8400  142.8650 C   0  0  0  0  0  0  0  0  0  0  0  0
  190.2820  177.7000  147.4350 C   0  0  0  0  0  2  0  0  0  0  0  0
  190.6160  176.8790  146.2250 C   0  0  0  0  0  0  0  0  0  0  0  0
  187.5930  178.2600  142.8690 O   0  0  0  0  0  0  0  0  0  0  0  0
  188.4890  177.6330  143.4900 C   0  0  0  0  0  0  0  0  0  0  0  0
  190.3700  176.4100  143.7990 C   0  0  0  0  0  3  0  0  0  0  0  0
  189.1360  177.1400  148.1340 N   0  0  0  0  0  2  0  0  0  0  0  0
  187.5560  177.6490  145.8940 C   0  0  2  0  0  3  0  0  0  0  0  0
  189.8890  176.9410  145.0870 C   0  0  0  0  0  0  0  0  0  0  0  0
  188.6520  177.6630  144.9090 N   0  0  0  0  0  0  0  0  0  0  0  0
  191.8520  176.0740  146.2560 C   0  0  0  0  0  3  0  0  0  0  0  0
  192.4870  175.8540  147.3620 N   0  0  0  0  0  2  0  0  0  0  0  0
  186.1370  177.4610  145.3350 C   0  0  0  0  0  2  0  0  0  0  0  0
  184.6470  178.3480  146.9920 O   0  0  0  0  0  1  0  0  0  0  0  0
  185.1460  178.5640  145.7070 C   0  0  2  0  0  3  0  0  0  0  0  0
  183.9800  178.5610  144.7310 C   0  0  0  0  0  2  0  0  0  0  0  0
  184.1460  178.0330  142.3540 N   0  0  0  0  0  2  0  0  0  0  0  0
  183.3180  179.2500  142.3650 C   0  0  2  0  0  3  0  0  0  0  0  0
  184.4010  179.0790  143.3570 C   0  0  1  0  0  3  0  0  0  0  0  0
  181.9090  178.9260  142.8670 C   0  0  0  0  0  2  0  0  0  0  0  0
  180.1180  180.4990  142.7980 O   0  0  0  0  0  1  0  0  0  0  0  0
  180.8470  179.6060  142.0080 C   0  0  2  0  0  3  0  0  0  0  0  0
  179.9050  178.5650  141.3830 C   0  0  2  0  0  3  0  0  0  0  0  0
  179.6050  177.5620  142.3070 O   0  0  0  0  0  1  0  0  0  0  0  0
  179.7570  178.4300  138.8560 C   0  0  0  0  0  2  0  0  0  0  0  0
  180.7700  178.8410  137.7940 C   0  0  0  0  0  2  0  0  0  0  0  0
  180.4590  177.9200  140.1070 C   0  0  2  0  0  3  0  0  0  0  0  0
  183.2310  178.5520  139.0410 O   0  0  0  0  0  1  0  0  0  0  0  0
  182.8470  176.1590  139.1220 C   0  0  2  0  0  3  0  0  0  0  0  0
  181.0260  175.2250  137.8930 C   0  0  1  0  0  3  0  0  0  0  0  0
  180.8460  176.4380  136.9580 C   0  0  0  0  0  2  0  0  0  0  0  0
  183.4390  175.0480  138.2660 C   0  0  0  0  0  2  0  0  0  0  0  0
  182.2770  174.4810  137.4380 C   0  0  0  0  0  2  0  0  0  0  0  0
  181.4290  175.6510  139.2900 C   0  0  2  0  0  3  0  0  0  0  0  0
  181.6740  177.6900  137.3380 C   0  0  2  0  0  3  0  0  0  0  0  0
  182.9020  177.4370  138.2620 C   0  0  1  0  0  3  0  0  0  0  0  0
  180.4210  176.3970  140.1810 C   0  0  0  0  0  2  0  0  0  0  0  0
  189.6950  176.5570  141.5060 O   0  0  0  0  0  0  0  0  0  0  0  0
  190.2090  177.5060  140.5840 C   0  0  0  0  0  2  0  0  0  0  0  0
  189.2770  177.6190  139.3930 C   0  0  0  0  0  2  0  0  0  0  0  0
  189.9330  177.1080  138.1990 N   0  0  0  0  0  2  0  0  0  0  0  0
  189.6110  175.8600  137.5690 C   0  0  0  0  0  0  0  0  0  0  0  0
  190.5450  174.9140  137.5620 C   0  0  0  0  0  2  0  0  0  0  0  0
  187.9260  174.2900  136.5450 C   0  0  0  0  0  3  0  0  0  0  0  0
  184.3250  176.3710  134.8980 C   0  0  0  0  0  3  0  0  0  0  0  0
  187.4540  176.6880  136.5610 C   0  0  0  0  0  3  0  0  0  0  0  0
  186.2580  176.3990  135.9080 C   0  0  0  0  0  0  0  0  0  0  0  0
  185.9020  175.1250  135.5850 C   0  0  0  0  0  0  0  0  0  0  0  0
  184.7450  175.1200  134.9810 O   0  0  0  0  0  0  0  0  0  0  0  0
  188.3070  175.6130  136.8960 C   0  0  0  0  0  0  0  0  0  0  0  0
  186.7110  174.0330  135.8850 C   0  0  0  0  0  3  0  0  0  0  0  0
  185.2560  177.2390  135.4770 C   0  0  0  0  0  3  0  0  0  0  0  0
  1  2  1  0  0  0  0
  3  7  1  0  0  0  0
  3  8  2  0  0  0  0
  4  9  1  0  0  0  0
  5 13  1  0  0  0  0
  5  4  1  0  0  0  0
  6  7  2  0  0  0  0
  7 12  1  0  0  0  0
  8 11  1  0  0  0  0
  9  2  1  0  0  0  0
 10 15  1  6  0  0  0
 10  1  1  0  0  0  0
 11  5  2  0  0  0  0
 12 11  1  0  0  0  0
 12 10  1  0  0  0  0
 13 14  2  0  0  0  0
 15 17  1  0  0  0  0
 17 16  1  1  0  0  0
 18 17  1  0  0  0  0
 19 20  1  0  0  0  0
 19 21  1  0  0  0  0
 20 22  1  1  0  0  0
 20 21  1  0  0  0  0
 21 18  1  1  0  0  0
 24 23  1  1  0  0  0
 24 22  1  0  0  0  0
 25 24  1  0  0  0  0
 25 26  1  1  0  0  0
 27 29  1  0  0  0  0
 28 27  1  0  0  0  0
 29 39  1  0  0  0  0
 29 25  1  1  0  0  0
 31 34  1  6  0  0  0
 31 36  1  0  0  0  0
 32 33  1  6  0  0  0
 32 36  1  0  0  0  0
 35 32  1  0  0  0  0
 35 34  1  0  0  0  0
 36 39  1  6  0  0  0
 37 33  1  1  0  0  0
 37 28  1  0  0  0  0
 37 38  1  0  0  0  0
 38 30  1  1  0  0  0
 38 31  1  0  0  0  0
 40  3  1  0  0  0  0
 41 40  1  0  0  0  0
 42 41  1  0  0  0  0
 43 42  1  0  0  0  0
 44 43  1  0  0  0  0
 45 44  2  0  0  0  0
 46 52  1  0  0  0  0
 47 51  1  0  0  0  0
 47 54  2  0  0  0  0
 48 52  2  0  0  0  0
 49 48  1  0  0  0  0
 50 53  1  0  0  0  0
 50 49  2  0  0  0  0
 51 50  1  0  0  0  0
 52 44  1  0  0  0  0
 53 46  2  0  0  0  0
 54 49  1  0  0  0  0
M  END
>  <MODEL>
3

>  <REMARK>
 VINA RESULT:      -7.3      1.763      6.138
  Name = 
  15 active torsions:
  status: ('A' for Active; 'I' for Inactive)
    1  A    between atoms: C_1  and  C_23
    2  A    between atoms: C_2  and  C_22
    3  A    between atoms: C_2  and  C_46
    4  A    between atoms: C_5  and  C_20
    5  A    between atoms: C_5  and  C_24
    6  A    between atoms: C_11  and  C_33
    7  A    between atoms: C_11  and  N_42
    8  A    between atoms: C_13  and  C_14
    9  A    between atoms: C_13  and  C_46
   10  A    between atoms: C_15  and  O_51
   11  A    between atoms: C_17  and  N_42
   12  A    between atoms: C_17  and  C_45
   13  A    between atoms: C_24  and  C_32
   14  A    between atoms: C_32  and  C_43
   15  A    between atoms: C_33  and  O_51
                            x       y       z     vdW  Elec       q    Type
                         _______ _______ _______ _____ _____    ______ ____

>  <TORSDO>
F 15

$$$$
=
 OpenBabel11042410083D

 54 61  0  0  1  0  0  0  0  0999 V2000
  187.2010  178.6630  146.5580 C   0  0  0  0  0  2  0  0  0  0  0  0
  187.1450  178.1330  147.9920 C   0  0  0  0  0  2  0  0  0  0  0  0
  190.4500  176.7740  143.4850 C   0  0  0  0  0  0  0  0  0  0  0  0
  189.4750  177.7340  147.9920 C   0  0  0  0  0  2  0  0  0  0  0  0
  190.2510  176.9120  147.0060 C   0  0  0  0  0  0  0  0  0  0  0  0
  188.5780  178.1000  142.7510 O   0  0  0  0  0  0  0  0  0  0  0  0
  189.2160  177.5250  143.6710 C   0  0  0  0  0  0  0  0  0  0  0  0
  190.9090  176.3980  144.6670 C   0  0  0  0  0  3  0  0  0  0  0  0
  188.1770  177.1300  148.2520 N   0  0  0  0  0  2  0  0  0  0  0  0
  187.4850  177.5310  145.5810 C   0  0  2  0  0  3  0  0  0  0  0  0
  189.9770  176.9230  145.6820 C   0  0  0  0  0  0  0  0  0  0  0  0
  188.8590  177.5840  145.0530 N   0  0  0  0  0  0  0  0  0  0  0  0
  191.4240  176.1670  147.5000 C   0  0  0  0  0  3  0  0  0  0  0  0
  192.4090  176.7680  148.0850 N   0  0  0  0  0  2  0  0  0  0  0  0
  186.3680  177.2690  144.5590 C   0  0  0  0  0  2  0  0  0  0  0  0
  184.5050  178.6070  145.2580 O   0  0  0  0  0  1  0  0  0  0  0  0
  185.4700  178.4700  144.2610 C   0  0  2  0  0  3  0  0  0  0  0  0
  184.7640  178.2680  142.9310 C   0  0  0  0  0  2  0  0  0  0  0  0
  186.0520  178.6700  140.8970 N   0  0  0  0  0  2  0  0  0  0  0  0
  184.7000  179.1170  140.5250 C   0  0  2  0  0  3  0  0  0  0  0  0
  185.1950  179.3150  141.9050 C   0  0  1  0  0  3  0  0  0  0  0  0
  183.7810  177.9110  140.3220 C   0  0  0  0  0  2  0  0  0  0  0  0
  184.0100  178.5950  138.0490 O   0  0  0  0  0  1  0  0  0  0  0  0
  183.7410  177.4870  138.8570 C   0  0  2  0  0  3  0  0  0  0  0  0
  182.3690  176.8940  138.4990 C   0  0  2  0  0  3  0  0  0  0  0  0
  181.5800  176.7670  139.6440 O   0  0  0  0  0  1  0  0  0  0  0  0
  181.2580  174.6460  138.1250 C   0  0  0  0  0  2  0  0  0  0  0  0
  180.6550  174.0530  136.8560 C   0  0  0  0  0  2  0  0  0  0  0  0
  182.4500  175.5340  137.7950 C   0  0  2  0  0  3  0  0  0  0  0  0
  182.0840  175.2380  134.7950 O   0  0  0  0  0  1  0  0  0  0  0  0
  184.0590  174.0560  135.5580 C   0  0  2  0  0  3  0  0  0  0  0  0
  183.8310  172.3360  137.1980 C   0  0  1  0  0  3  0  0  0  0  0  0
  182.3190  172.1310  136.9830 C   0  0  0  0  0  2  0  0  0  0  0  0
  184.7420  172.8250  134.9790 C   0  0  0  0  0  2  0  0  0  0  0  0
  184.5510  171.7050  136.0120 C   0  0  0  0  0  2  0  0  0  0  0  0
  184.2250  173.7910  137.0410 C   0  0  2  0  0  3  0  0  0  0  0  0
  181.6360  173.1770  136.0680 C   0  0  2  0  0  3  0  0  0  0  0  0
  182.5830  173.9720  135.1210 C   0  0  1  0  0  3  0  0  0  0  0  0
  183.7680  174.8230  138.0860 C   0  0  0  0  0  2  0  0  0  0  0  0
  191.0930  176.4800  142.2810 O   0  0  0  0  0  0  0  0  0  0  0  0
  191.7800  177.4640  141.5230 C   0  0  0  0  0  2  0  0  0  0  0  0
  191.2410  177.4870  140.1060 C   0  0  0  0  0  2  0  0  0  0  0  0
  192.1230  176.7320  139.2270 N   0  0  0  0  0  2  0  0  0  0  0  0
  191.8140  176.3910  137.8680 C   0  0  0  0  0  0  0  0  0  0  0  0
  192.8320  176.2060  137.0330 C   0  0  0  0  0  2  0  0  0  0  0  0
  189.8160  175.0080  137.2000 C   0  0  0  0  0  3  0  0  0  0  0  0
  186.3770  177.4530  135.7150 C   0  0  0  0  0  3  0  0  0  0  0  0
  189.6930  177.4420  137.0030 C   0  0  0  0  0  3  0  0  0  0  0  0
  188.4000  177.2790  136.5120 C   0  0  0  0  0  0  0  0  0  0  0  0
  187.8320  176.0490  136.3680 C   0  0  0  0  0  0  0  0  0  0  0  0
  186.6230  176.1650  135.8900 O   0  0  0  0  0  0  0  0  0  0  0  0
  190.4190  176.2850  137.3640 C   0  0  0  0  0  0  0  0  0  0  0  0
  188.5080  174.8800  136.7000 C   0  0  0  0  0  3  0  0  0  0  0  0
  187.4820  178.2180  136.0980 C   0  0  0  0  0  3  0  0  0  0  0  0
  1  2  1  0  0  0  0
  2  9  1  0  0  0  0
  3  7  1  0  0  0  0
  3  8  2  0  0  0  0
  4  9  1  0  0  0  0
  5 13  1  0  0  0  0
  5  4  1  0  0  0  0
  6  7  2  0  0  0  0
  7 12  1  0  0  0  0
  8 11  1  0  0  0  0
 10 15  1  6  0  0  0
 10  1  1  0  0  0  0
 11  5  2  0  0  0  0
 12 10  1  0  0  0  0
 12 11  1  0  0  0  0
 13 14  2  0  0  0  0
 17 15  1  0  0  0  0
 17 16  1  1  0  0  0
 18 17  1  0  0  0  0
 19 21  1  0  0  0  0
 20 22  1  1  0  0  0
 20 19  1  0  0  0  0
 20 21  1  0  0  0  0
 21 18  1  1  0  0  0
 24 23  1  6  0  0  0
 24 22  1  0  0  0  0
 25 24  1  0  0  0  0
 25 26  1  1  0  0  0
 28 27  1  0  0  0  0
 29 39  1  0  0  0  0
 29 27  1  0  0  0  0
 29 25  1  1  0  0  0
 31 34  1  6  0  0  0
 31 36  1  0  0  0  0
 32 35  1  6  0  0  0
 33 32  1  0  0  0  0
 34 35  1  0  0  0  0
 36 32  1  0  0  0  0
 36 39  1  1  0  0  0
 37 28  1  1  0  0  0
 37 33  1  0  0  0  0
 38 30  1  1  0  0  0
 38 31  1  0  0  0  0
 38 37  1  0  0  0  0
 40  3  1  0  0  0  0
 41 40  1  0  0  0  0
 42 41  1  0  0  0  0
 43 42  1  0  0  0  0
 44 43  1  0  0  0  0
 45 44  2  0  0  0  0
 46 52  1  0  0  0  0
 47 51  1  0  0  0  0
 47 54  2  0  0  0  0
 48 52  2  0  0  0  0
 49 48  1  0  0  0  0
 50 49  2  0  0  0  0
 50 53  1  0  0  0  0
 51 50  1  0  0  0  0
 52 44  1  0  0  0  0
 53 46  2  0  0  0  0
 54 49  1  0  0  0  0
M  END
>  <MODEL>
4

>  <REMARK>
 VINA RESULT:      -7.1      1.951      5.913
  Name = 
  15 active torsions:
  status: ('A' for Active; 'I' for Inactive)
    1  A    between atoms: C_1  and  C_23
    2  A    between atoms: C_2  and  C_22
    3  A    between atoms: C_2  and  C_46
    4  A    between atoms: C_5  and  C_20
    5  A    between atoms: C_5  and  C_24
    6  A    between atoms: C_11  and  C_33
    7  A    between atoms: C_11  and  N_42
    8  A    between atoms: C_13  and  C_14
    9  A    between atoms: C_13  and  C_46
   10  A    between atoms: C_15  and  O_51
   11  A    between atoms: C_17  and  N_42
   12  A    between atoms: C_17  and  C_45
   13  A    between atoms: C_24  and  C_32
   14  A    between atoms: C_32  and  C_43
   15  A    between atoms: C_33  and  O_51
                            x       y       z     vdW  Elec       q    Type
                         _______ _______ _______ _____ _____    ______ ____

>  <TORSDO>
F 15

$$$$
=
 OpenBabel11042410083D

 54 61  0  0  1  0  0  0  0  0999 V2000
  187.7080  178.7300  146.9150 C   0  0  0  0  0  2  0  0  0  0  0  0
  188.1260  178.1320  148.2610 C   0  0  0  0  0  2  0  0  0  0  0  0
  189.5580  176.8510  142.8400 C   0  0  0  0  0  0  0  0  0  0  0  0
  190.2800  177.6300  147.4280 C   0  0  0  0  0  2  0  0  0  0  0  0
  190.6120  176.8240  146.2070 C   0  0  0  0  0  0  0  0  0  0  0  0
  187.6290  178.2940  142.8530 O   0  0  0  0  0  0  0  0  0  0  0  0
  188.5140  177.6470  143.4700 C   0  0  0  0  0  0  0  0  0  0  0  0
  190.3780  176.3970  143.7720 C   0  0  0  0  0  3  0  0  0  0  0  0
  189.1230  177.0730  148.1100 N   0  0  0  0  0  2  0  0  0  0  0  0
  187.5640  177.6360  145.8670 C   0  0  2  0  0  3  0  0  0  0  0  0
  189.8940  176.9130  145.0650 C   0  0  0  0  0  0  0  0  0  0  0  0
  188.6680  177.6530  144.8910 N   0  0  0  0  0  0  0  0  0  0  0  0
  191.8380  176.0040  146.2340 C   0  0  0  0  0  3  0  0  0  0  0  0
  192.4380  175.7200  147.3450 N   0  0  0  0  0  2  0  0  0  0  0  0
  186.1470  177.4740  145.2960 C   0  0  0  0  0  2  0  0  0  0  0  0
  184.6960  178.3660  146.9840 O   0  0  0  0  0  1  0  0  0  0  0  0
  185.1640  178.5780  145.6870 C   0  0  2  0  0  3  0  0  0  0  0  0
  183.9760  178.5700  144.7390 C   0  0  0  0  0  2  0  0  0  0  0  0
  184.0890  177.9980  142.3680 N   0  0  0  0  0  2  0  0  0  0  0  0
  183.2660  179.2190  142.3750 C   0  0  2  0  0  3  0  0  0  0  0  0
  184.3700  179.0610  143.3470 C   0  0  1  0  0  3  0  0  0  0  0  0
  181.8670  178.9120  142.9120 C   0  0  0  0  0  2  0  0  0  0  0  0
  180.0820  180.4920  142.8540 O   0  0  0  0  0  1  0  0  0  0  0  0
  180.7900  179.5820  142.0650 C   0  0  2  0  0  3  0  0  0  0  0  0
  179.8310  178.5350  141.4770 C   0  0  2  0  0  3  0  0  0  0  0  0
  179.5700  177.5330  142.4130 O   0  0  0  0  0  1  0  0  0  0  0  0
  179.5700  178.3700  138.9600 C   0  0  0  0  0  2  0  0  0  0  0  0
  180.5240  178.7940  137.8490 C   0  0  0  0  0  2  0  0  0  0  0  0
  180.3410  177.8900  140.1820 C   0  0  2  0  0  3  0  0  0  0  0  0
  183.0450  178.5750  138.9840 O   0  0  0  0  0  1  0  0  0  0  0  0
  182.7230  176.1740  139.1050 C   0  0  2  0  0  3  0  0  0  0  0  0
  180.8700  175.1860  137.9690 C   0  0  1  0  0  3  0  0  0  0  0  0
  180.6180  176.3840  137.0330 C   0  0  0  0  0  2  0  0  0  0  0  0
  183.3010  175.0690  138.2330 C   0  0  0  0  0  2  0  0  0  0  0  0
  182.1160  174.4670  137.4650 C   0  0  0  0  0  2  0  0  0  0  0  0
  181.3260  175.6360  139.3420 C   0  0  2  0  0  3  0  0  0  0  0  0
  181.4330  177.6590  137.3630 C   0  0  2  0  0  3  0  0  0  0  0  0
  182.7080  177.4450  138.2310 C   0  0  1  0  0  3  0  0  0  0  0  0
  180.3430  176.3670  140.2720 C   0  0  0  0  0  2  0  0  0  0  0  0
  189.7210  176.5880  141.4780 O   0  0  0  0  0  0  0  0  0  0  0  0
  190.2110  177.5600  140.5660 C   0  0  0  0  0  2  0  0  0  0  0  0
  189.3240  177.6030  139.3370 C   0  0  0  0  0  2  0  0  0  0  0  0
  190.0820  177.1920  138.1640 N   0  0  0  0  0  2  0  0  0  0  0  0
  189.9360  175.9240  137.5090 C   0  0  0  0  0  0  0  0  0  0  0  0
  188.7070  175.5370  137.1800 C   0  0  0  0  0  2  0  0  0  0  0  0
  190.9190  173.8810  136.4070 C   0  0  0  0  0  3  0  0  0  0  0  0
  195.2420  173.2490  137.3640 C   0  0  0  0  0  3  0  0  0  0  0  0
  192.3520  175.2740  137.8150 C   0  0  0  0  0  3  0  0  0  0  0  0
  193.3880  174.3850  137.5410 C   0  0  0  0  0  0  0  0  0  0  0  0
  193.2120  173.2950  136.7410 C   0  0  0  0  0  0  0  0  0  0  0  0
  194.3270  172.6230  136.6440 O   0  0  0  0  0  0  0  0  0  0  0  0
  191.0890  175.0260  137.2320 C   0  0  0  0  0  0  0  0  0  0  0  0
  191.9870  173.0030  136.1510 C   0  0  0  0  0  3  0  0  0  0  0  0
  194.6980  174.3880  137.9640 C   0  0  0  0  0  3  0  0  0  0  0  0
  1  2  1  0  0  0  0
  3  7  1  0  0  0  0
  3  8  2  0  0  0  0
  4  9  1  0  0  0  0
  5 13  1  0  0  0  0
  5  4  1  0  0  0  0
  6  7  2  0  0  0  0
  7 12  1  0  0  0  0
  8 11  1  0  0  0  0
  9  2  1  0  0  0  0
 10 15  1  6  0  0  0
 10  1  1  0  0  0  0
 11  5  2  0  0  0  0
 12 11  1  0  0  0  0
 12 10  1  0  0  0  0
 13 14  2  0  0  0  0
 15 17  1  0  0  0  0
 17 16  1  1  0  0  0
 18 17  1  0  0  0  0
 19 20  1  0  0  0  0
 19 21  1  0  0  0  0
 20 22  1  1  0  0  0
 20 21  1  0  0  0  0
 21 18  1  1  0  0  0
 24 23  1  1  0  0  0
 24 22  1  0  0  0  0
 25 24  1  0  0  0  0
 25 26  1  1  0  0  0
 27 29  1  0  0  0  0
 28 27  1  0  0  0  0
 29 39  1  0  0  0  0
 29 25  1  1  0  0  0
 31 34  1  6  0  0  0
 31 36  1  0  0  0  0
 32 33  1  6  0  0  0
 32 36  1  0  0  0  0
 35 32  1  0  0  0  0
 35 34  1  0  0  0  0
 36 39  1  6  0  0  0
 37 33  1  1  0  0  0
 37 28  1  0  0  0  0
 37 38  1  0  0  0  0
 38 30  1  1  0  0  0
 38 31  1  0  0  0  0
 40  3  1  0  0  0  0
 41 40  1  0  0  0  0
 42 41  1  0  0  0  0
 43 42  1  0  0  0  0
 44 43  1  0  0  0  0
 45 44  2  0  0  0  0
 46 52  1  0  0  0  0
 47 54  2  0  0  0  0
 49 48  1  0  0  0  0
 49 54  1  0  0  0  0
 50 49  2  0  0  0  0
 51 50  1  0  0  0  0
 51 47  1  0  0  0  0
 52 44  1  0  0  0  0
 52 48  2  0  0  0  0
 53 46  2  0  0  0  0
 53 50  1  0  0  0  0
M  END
>  <MODEL>
5

>  <REMARK>
 VINA RESULT:      -7.1      2.535      7.805
  Name = 
  15 active torsions:
  status: ('A' for Active; 'I' for Inactive)
    1  A    between atoms: C_1  and  C_23
    2  A    between atoms: C_2  and  C_22
    3  A    between atoms: C_2  and  C_46
    4  A    between atoms: C_5  and  C_20
    5  A    between atoms: C_5  and  C_24
    6  A    between atoms: C_11  and  C_33
    7  A    between atoms: C_11  and  N_42
    8  A    between atoms: C_13  and  C_14
    9  A    between atoms: C_13  and  C_46
   10  A    between atoms: C_15  and  O_51
   11  A    between atoms: C_17  and  N_42
   12  A    between atoms: C_17  and  C_45
   13  A    between atoms: C_24  and  C_32
   14  A    between atoms: C_32  and  C_43
   15  A    between atoms: C_33  and  O_51
                            x       y       z     vdW  Elec       q    Type
                         _______ _______ _______ _____ _____    ______ ____

>  <TORSDO>
F 15

$$$$
=
 OpenBabel11042410083D

 54 61  0  0  1  0  0  0  0  0999 V2000
  185.4250  179.1420  145.1110 C   0  0  0  0  0  2  0  0  0  0  0  0
  185.6290  178.3740  146.4190 C   0  0  0  0  0  2  0  0  0  0  0  0
  188.1310  177.9670  141.2570 C   0  0  0  0  0  0  0  0  0  0  0  0
  187.9300  178.0970  145.9610 C   0  0  0  0  0  2  0  0  0  0  0  0
  188.5410  177.4940  144.7300 C   0  0  0  0  0  0  0  0  0  0  0  0
  186.1340  179.3040  141.0900 O   0  0  0  0  0  0  0  0  0  0  0  0
  186.9330  178.6140  141.7740 C   0  0  0  0  0  0  0  0  0  0  0  0
  188.7950  177.4190  142.2610 C   0  0  0  0  0  3  0  0  0  0  0  0
  186.7100  177.3940  146.3230 N   0  0  0  0  0  2  0  0  0  0  0  0
  185.5590  178.2080  143.9180 C   0  0  2  0  0  3  0  0  0  0  0  0
  188.0430  177.7170  143.4930 C   0  0  0  0  0  0  0  0  0  0  0  0
  186.8200  178.4180  143.1850 N   0  0  0  0  0  0  0  0  0  0  0  0
  189.7970  176.7360  144.8830 C   0  0  0  0  0  3  0  0  0  0  0  0
  190.8390  177.2600  145.4450 N   0  0  0  0  0  2  0  0  0  0  0  0
  184.2870  178.0680  143.0650 C   0  0  0  0  0  2  0  0  0  0  0  0
  182.5180  178.5130  144.6210 O   0  0  0  0  0  1  0  0  0  0  0  0
  183.1370  178.9920  143.4660 C   0  0  2  0  0  3  0  0  0  0  0  0
  182.1040  179.0420  142.3520 C   0  0  0  0  0  2  0  0  0  0  0  0
  179.8630  179.9310  141.9700 N   0  0  0  0  0  2  0  0  0  0  0  0
  179.6230  178.4870  142.1230 C   0  0  2  0  0  3  0  0  0  0  0  0
  180.6860  179.1520  142.9090 C   0  0  1  0  0  3  0  0  0  0  0  0
  180.0980  177.7360  140.8780 C   0  0  0  0  0  2  0  0  0  0  0  0
  178.9540  175.8320  141.7440 O   0  0  0  0  0  1  0  0  0  0  0  0
  179.1910  176.5500  140.5680 C   0  0  2  0  0  3  0  0  0  0  0  0
  179.8320  175.6350  139.5130 C   0  0  2  0  0  3  0  0  0  0  0  0
  180.3570  174.4900  140.1140 O   0  0  0  0  0  1  0  0  0  0  0  0
  180.8100  176.0180  137.2050 C   0  0  0  0  0  2  0  0  0  0  0  0
  180.9030  177.2980  136.3820 C   0  0  0  0  0  2  0  0  0  0  0  0
  180.9330  176.3190  138.6920 C   0  0  2  0  0  3  0  0  0  0  0  0
  181.0150  179.3250  138.2730 O   0  0  0  0  0  1  0  0  0  0  0  0
  183.1770  178.4780  138.9720 C   0  0  2  0  0  3  0  0  0  0  0  0
  184.2700  176.8240  137.6420 C   0  0  1  0  0  3  0  0  0  0  0  0
  183.4390  177.0880  136.3710 C   0  0  0  0  0  2  0  0  0  0  0  0
  184.5730  179.0160  138.6880 C   0  0  0  0  0  2  0  0  0  0  0  0
  185.2570  177.9750  137.7910 C   0  0  0  0  0  2  0  0  0  0  0  0
  183.4370  176.9870  138.8980 C   0  0  2  0  0  3  0  0  0  0  0  0
  182.2330  178.0400  136.5600 C   0  0  2  0  0  3  0  0  0  0  0  0
  182.2860  178.9650  137.8120 C   0  0  1  0  0  3  0  0  0  0  0  0
  182.3250  175.9720  139.2130 C   0  0  0  0  0  2  0  0  0  0  0  0
  188.5630  177.9140  139.9300 O   0  0  0  0  0  0  0  0  0  0  0  0
  189.9010  177.6020  139.5740 C   0  0  0  0  0  2  0  0  0  0  0  0
  190.0150  177.4720  138.0680 C   0  0  0  0  0  2  0  0  0  0  0  0
  188.9200  176.6600  137.5570 N   0  0  0  0  0  2  0  0  0  0  0  0
  189.0800  175.5710  136.6360 C   0  0  0  0  0  0  0  0  0  0  0  0
  190.1710  175.5610  135.8760 C   0  0  0  0  0  2  0  0  0  0  0  0
  188.2660  173.4560  135.5330 C   0  0  0  0  0  3  0  0  0  0  0  0
  184.2520  172.1220  136.9870 C   0  0  0  0  0  3  0  0  0  0  0  0
  186.8650  174.5240  137.2280 C   0  0  0  0  0  3  0  0  0  0  0  0
  185.9360  173.5080  137.0180 C   0  0  0  0  0  0  0  0  0  0  0  0
  186.1490  172.5100  136.1150 C   0  0  0  0  0  0  0  0  0  0  0  0
  185.1360  171.6880  136.1040 O   0  0  0  0  0  0  0  0  0  0  0  0
  188.0620  174.4990  136.4770 C   0  0  0  0  0  0  0  0  0  0  0  0
  187.3060  172.4460  135.3460 C   0  0  0  0  0  3  0  0  0  0  0  0
  184.7110  173.2880  137.6070 C   0  0  0  0  0  3  0  0  0  0  0  0
  1  2  1  0  0  0  0
  3  7  1  0  0  0  0
  3  8  2  0  0  0  0
  4  9  1  0  0  0  0
  5 13  1  0  0  0  0
  5  4  1  0  0  0  0
  6  7  2  0  0  0  0
  7 12  1  0  0  0  0
  8 11  1  0  0  0  0
  9  2  1  0  0  0  0
 10 15  1  6  0  0  0
 10  1  1  0  0  0  0
 11  5  2  0  0  0  0
 12 11  1  0  0  0  0
 12 10  1  0  0  0  0
 13 14  2  0  0  0  0
 15 17  1  0  0  0  0
 17 16  1  1  0  0  0
 18 17  1  0  0  0  0
 19 20  1  0  0  0  0
 19 21  1  0  0  0  0
 20 22  1  6  0  0  0
 20 21  1  0  0  0  0
 21 18  1  6  0  0  0
 24 22  1  0  0  0  0
 24 23  1  1  0  0  0
 25 26  1  1  0  0  0
 25 24  1  0  0  0  0
 27 29  1  0  0  0  0
 28 37  1  0  0  0  0
 28 27  1  0  0  0  0
 29 39  1  0  0  0  0
 29 25  1  1  0  0  0
 31 34  1  6  0  0  0
 32 33  1  6  0  0  0
 32 35  1  0  0  0  0
 32 36  1  0  0  0  0
 35 34  1  0  0  0  0
 36 31  1  0  0  0  0
 36 39  1  6  0  0  0
 37 33  1  1  0  0  0
 37 38  1  0  0  0  0
 38 30  1  1  0  0  0
 38 31  1  0  0  0  0
 40  3  1  0  0  0  0
 41 40  1  0  0  0  0
 42 41  1  0  0  0  0
 43 42  1  0  0  0  0
 44 43  1  0  0  0  0
 45 44  2  0  0  0  0
 46 52  1  0  0  0  0
 47 54  2  0  0  0  0
 49 48  1  0  0  0  0
 49 54  1  0  0  0  0
 50 49  2  0  0  0  0
 51 50  1  0  0  0  0
 51 47  1  0  0  0  0
 52 44  1  0  0  0  0
 52 48  2  0  0  0  0
 53 46  2  0  0  0  0
 53 50  1  0  0  0  0
M  END
>  <MODEL>
6

>  <REMARK>
 VINA RESULT:      -7.1      2.245      6.999
  Name = 
  15 active torsions:
  status: ('A' for Active; 'I' for Inactive)
    1  A    between atoms: C_1  and  C_23
    2  A    between atoms: C_2  and  C_22
    3  A    between atoms: C_2  and  C_46
    4  A    between atoms: C_5  and  C_20
    5  A    between atoms: C_5  and  C_24
    6  A    between atoms: C_11  and  C_33
    7  A    between atoms: C_11  and  N_42
    8  A    between atoms: C_13  and  C_14
    9  A    between atoms: C_13  and  C_46
   10  A    between atoms: C_15  and  O_51
   11  A    between atoms: C_17  and  N_42
   12  A    between atoms: C_17  and  C_45
   13  A    between atoms: C_24  and  C_32
   14  A    between atoms: C_32  and  C_43
   15  A    between atoms: C_33  and  O_51
                            x       y       z     vdW  Elec       q    Type
                         _______ _______ _______ _____ _____    ______ ____

>  <TORSDO>
F 15

$$$$
=
 OpenBabel11042410083D

 54 61  0  0  1  0  0  0  0  0999 V2000
  187.1700  178.6310  146.4670 C   0  0  0  0  0  2  0  0  0  0  0  0
  187.1370  178.1210  147.9100 C   0  0  0  0  0  2  0  0  0  0  0  0
  190.6190  176.9820  143.4760 C   0  0  0  0  0  0  0  0  0  0  0  0
  189.4920  177.9260  147.9500 C   0  0  0  0  0  2  0  0  0  0  0  0
  190.3520  177.1580  146.9900 C   0  0  0  0  0  0  0  0  0  0  0  0
  188.6510  178.1280  142.6920 O   0  0  0  0  0  0  0  0  0  0  0  0
  189.3220  177.6260  143.6300 C   0  0  0  0  0  0  0  0  0  0  0  0
  191.0890  176.6660  144.6700 C   0  0  0  0  0  3  0  0  0  0  0  0
  188.2480  177.2160  148.2020 N   0  0  0  0  0  2  0  0  0  0  0  0
  187.5660  177.5120  145.5150 C   0  0  2  0  0  3  0  0  0  0  0  0
  190.1000  177.1240  145.6620 C   0  0  0  0  0  0  0  0  0  0  0  0
  188.9390  177.6750  145.0060 N   0  0  0  0  0  0  0  0  0  0  0  0
  191.5770  176.5270  147.5140 C   0  0  0  0  0  3  0  0  0  0  0  0
  191.6490  175.2490  147.7110 N   0  0  0  0  0  2  0  0  0  0  0  0
  186.4930  177.1370  144.4810 C   0  0  0  0  0  2  0  0  0  0  0  0
  184.4670  178.3540  144.8890 O   0  0  0  0  0  1  0  0  0  0  0  0
  185.5810  178.2870  144.0520 C   0  0  2  0  0  3  0  0  0  0  0  0
  185.0990  178.0590  142.6280 C   0  0  0  0  0  2  0  0  0  0  0  0
  186.0880  178.9230  140.5700 N   0  0  0  0  0  2  0  0  0  0  0  0
  184.6670  179.2820  140.4300 C   0  0  2  0  0  3  0  0  0  0  0  0
  185.3100  179.3000  141.7620 C   0  0  1  0  0  3  0  0  0  0  0  0
  183.8360  178.0360  140.1180 C   0  0  0  0  0  2  0  0  0  0  0  0
  182.8420  178.9490  138.1510 O   0  0  0  0  0  1  0  0  0  0  0  0
  183.6150  177.8820  138.6160 C   0  0  2  0  0  3  0  0  0  0  0  0
  182.9160  176.5490  138.3030 C   0  0  2  0  0  3  0  0  0  0  0  0
  182.6670  175.8420  139.4800 O   0  0  0  0  0  1  0  0  0  0  0  0
  183.2350  175.8130  135.8980 C   0  0  0  0  0  2  0  0  0  0  0  0
  184.4210  176.0170  134.9620 C   0  0  0  0  0  2  0  0  0  0  0  0
  183.7020  175.6530  137.3380 C   0  0  2  0  0  3  0  0  0  0  0  0
  186.6150  176.1680  136.6530 O   0  0  0  0  0  1  0  0  0  0  0  0
  186.2510  173.8440  137.2430 C   0  0  2  0  0  3  0  0  0  0  0  0
  184.6980  172.5470  135.9770 C   0  0  1  0  0  3  0  0  0  0  0  0
  184.6770  173.4930  134.7600 C   0  0  0  0  0  2  0  0  0  0  0  0
  187.0030  172.5980  136.7980 C   0  0  0  0  0  2  0  0  0  0  0  0
  186.0180  171.7880  135.9430 C   0  0  0  0  0  2  0  0  0  0  0  0
  184.8320  173.3130  137.2780 C   0  0  2  0  0  3  0  0  0  0  0  0
  185.4060  174.8430  134.9640 C   0  0  2  0  0  3  0  0  0  0  0  0
  186.4470  174.8850  136.1220 C   0  0  1  0  0  3  0  0  0  0  0  0
  183.6700  174.1900  137.7710 C   0  0  0  0  0  2  0  0  0  0  0  0
  191.3040  176.7250  142.2870 O   0  0  0  0  0  0  0  0  0  0  0  0
  191.7400  177.7600  141.4180 C   0  0  0  0  0  2  0  0  0  0  0  0
  191.9930  177.1960  140.0340 C   0  0  0  0  0  2  0  0  0  0  0  0
  190.7920  176.5420  139.5380 N   0  0  0  0  0  2  0  0  0  0  0  0
  190.5050  176.3180  138.1500 C   0  0  0  0  0  0  0  0  0  0  0  0
  189.6860  177.1730  137.5440 C   0  0  0  0  0  2  0  0  0  0  0  0
  190.1990  174.4040  136.5390 C   0  0  0  0  0  3  0  0  0  0  0  0
  193.9170  171.9970  135.9090 C   0  0  0  0  0  3  0  0  0  0  0  0
  192.3970  174.7660  137.5470 C   0  0  0  0  0  3  0  0  0  0  0  0
  192.8430  173.6550  136.8340 C   0  0  0  0  0  0  0  0  0  0  0  0
  192.0190  172.9460  136.0120 C   0  0  0  0  0  0  0  0  0  0  0  0
  192.6710  171.9580  135.4650 O   0  0  0  0  0  0  0  0  0  0  0  0
  191.0480  175.1580  137.3940 C   0  0  0  0  0  0  0  0  0  0  0  0
  190.6820  173.2870  135.8350 C   0  0  0  0  0  3  0  0  0  0  0  0
  194.0870  173.0670  136.7920 C   0  0  0  0  0  3  0  0  0  0  0  0
  1  2  1  0  0  0  0
  2  9  1  0  0  0  0
  3  7  1  0  0  0  0
  3  8  2  0  0  0  0
  4  9  1  0  0  0  0
  5 13  1  0  0  0  0
  5  4  1  0  0  0  0
  6  7  2  0  0  0  0
  7 12  1  0  0  0  0
  8 11  1  0  0  0  0
 10 15  1  6  0  0  0
 10  1  1  0  0  0  0
 11  5  2  0  0  0  0
 12 10  1  0  0  0  0
 12 11  1  0  0  0  0
 13 14  2  0  0  0  0
 17 15  1  0  0  0  0
 17 16  1  1  0  0  0
 18 17  1  0  0  0  0
 19 21  1  0  0  0  0
 20 22  1  1  0  0  0
 20 19  1  0  0  0  0
 20 21  1  0  0  0  0
 21 18  1  1  0  0  0
 24 23  1  1  0  0  0
 24 22  1  0  0  0  0
 25 24  1  0  0  0  0
 25 26  1  1  0  0  0
 27 29  1  0  0  0  0
 28 37  1  0  0  0  0
 28 27  1  0  0  0  0
 29 39  1  0  0  0  0
 29 25  1  1  0  0  0
 31 34  1  6  0  0  0
 31 36  1  0  0  0  0
 32 33  1  6  0  0  0
 32 36  1  0  0  0  0
 35 32  1  0  0  0  0
 35 34  1  0  0  0  0
 36 39  1  6  0  0  0
 37 33  1  1  0  0  0
 37 38  1  0  0  0  0
 38 30  1  1  0  0  0
 38 31  1  0  0  0  0
 40  3  1  0  0  0  0
 41 40  1  0  0  0  0
 42 41  1  0  0  0  0
 43 42  1  0  0  0  0
 44 43  1  0  0  0  0
 45 44  2  0  0  0  0
 46 52  1  0  0  0  0
 47 54  2  0  0  0  0
 49 48  1  0  0  0  0
 50 49  2  0  0  0  0
 51 47  1  0  0  0  0
 51 50  1  0  0  0  0
 52 48  2  0  0  0  0
 52 44  1  0  0  0  0
 53 50  1  0  0  0  0
 53 46  2  0  0  0  0
 54 49  1  0  0  0  0
M  END
>  <MODEL>
7

>  <REMARK>
 VINA RESULT:      -7.1      2.524      7.146
  Name = 
  15 active torsions:
  status: ('A' for Active; 'I' for Inactive)
    1  A    between atoms: C_1  and  C_23
    2  A    between atoms: C_2  and  C_22
    3  A    between atoms: C_2  and  C_46
    4  A    between atoms: C_5  and  C_20
    5  A    between atoms: C_5  and  C_24
    6  A    between atoms: C_11  and  C_33
    7  A    between atoms: C_11  and  N_42
    8  A    between atoms: C_13  and  C_14
    9  A    between atoms: C_13  and  C_46
   10  A    between atoms: C_15  and  O_51
   11  A    between atoms: C_17  and  N_42
   12  A    between atoms: C_17  and  C_45
   13  A    between atoms: C_24  and  C_32
   14  A    between atoms: C_32  and  C_43
   15  A    between atoms: C_33  and  O_51
                            x       y       z     vdW  Elec       q    Type
                         _______ _______ _______ _____ _____    ______ ____

>  <TORSDO>
F 15

$$$$
=
 OpenBabel11042410083D

 54 61  0  0  1  0  0  0  0  0999 V2000
  186.2240  178.8490  145.4180 C   0  0  0  0  0  2  0  0  0  0  0  0
  186.7250  177.8440  146.4590 C   0  0  0  0  0  2  0  0  0  0  0  0
  187.7250  178.4080  140.8230 C   0  0  0  0  0  0  0  0  0  0  0  0
  188.7990  177.6440  145.3450 C   0  0  0  0  0  2  0  0  0  0  0  0
  189.0210  177.2810  143.9060 C   0  0  0  0  0  0  0  0  0  0  0  0
  185.8380  179.7660  141.4550 O   0  0  0  0  0  0  0  0  0  0  0  0
  186.7490  178.9530  141.7570 C   0  0  0  0  0  0  0  0  0  0  0  0
  188.5990  177.6750  141.4900 C   0  0  0  0  0  3  0  0  0  0  0  0
  187.6820  176.8930  145.8940 N   0  0  0  0  0  2  0  0  0  0  0  0
  185.9780  178.1580  144.0850 C   0  0  2  0  0  3  0  0  0  0  0  0
  188.2240  177.7380  142.9140 C   0  0  0  0  0  0  0  0  0  0  0  0
  187.0070  178.4940  143.0860 N   0  0  0  0  0  0  0  0  0  0  0  0
  190.2250  176.4990  143.5690 C   0  0  0  0  0  3  0  0  0  0  0  0
  190.1560  175.4310  142.8420 N   0  0  0  0  0  2  0  0  0  0  0  0
  184.5190  178.1910  143.6040 C   0  0  0  0  0  2  0  0  0  0  0  0
  183.2150  179.0000  145.4460 O   0  0  0  0  0  1  0  0  0  0  0  0
  183.6770  179.3330  144.1740 C   0  0  2  0  0  3  0  0  0  0  0  0
  182.4770  179.5860  143.2760 C   0  0  0  0  0  2  0  0  0  0  0  0
  180.3400  178.6330  143.9720 N   0  0  0  0  0  2  0  0  0  0  0  0
  180.2760  178.5490  142.5040 C   0  0  2  0  0  3  0  0  0  0  0  0
  181.5660  178.3620  143.2040 C   0  0  1  0  0  3  0  0  0  0  0  0
  180.0490  179.9380  141.9050 C   0  0  0  0  0  2  0  0  0  0  0  0
  179.3770  178.5290  140.1020 O   0  0  0  0  0  1  0  0  0  0  0  0
  179.7020  179.8500  140.4220 C   0  0  2  0  0  3  0  0  0  0  0  0
  180.8800  180.3270  139.5580 C   0  0  2  0  0  3  0  0  0  0  0  0
  180.4330  181.1960  138.5610 O   0  0  0  0  0  1  0  0  0  0  0  0
  183.1590  179.2690  139.2200 C   0  0  0  0  0  2  0  0  0  0  0  0
  183.6910  177.9210  139.6940 C   0  0  0  0  0  2  0  0  0  0  0  0
  181.6710  179.1850  138.9080 C   0  0  2  0  0  3  0  0  0  0  0  0
  181.4390  176.3090  139.8530 O   0  0  0  0  0  1  0  0  0  0  0  0
  181.2280  176.4590  137.4420 C   0  0  2  0  0  3  0  0  0  0  0  0
  183.0140  177.4020  136.1690 C   0  0  1  0  0  3  0  0  0  0  0  0
  184.0790  177.2400  137.2720 C   0  0  0  0  0  2  0  0  0  0  0  0
  181.5700  175.4350  136.3690 C   0  0  0  0  0  2  0  0  0  0  0  0
  182.7520  176.0200  135.5820 C   0  0  0  0  0  2  0  0  0  0  0  0
  181.6560  177.7380  136.7490 C   0  0  2  0  0  3  0  0  0  0  0  0
  183.5330  176.8050  138.6550 C   0  0  2  0  0  3  0  0  0  0  0  0
  182.1290  176.1310  138.6490 C   0  0  1  0  0  3  0  0  0  0  0  0
  181.4230  179.1090  137.4050 C   0  0  0  0  0  2  0  0  0  0  0  0
  187.7810  178.6050  139.4420 O   0  0  0  0  0  0  0  0  0  0  0  0
  187.5980  177.5480  138.5120 C   0  0  0  0  0  2  0  0  0  0  0  0
  188.6730  177.6130  137.4450 C   0  0  0  0  0  2  0  0  0  0  0  0
  188.2810  176.8100  136.2960 N   0  0  0  0  0  2  0  0  0  0  0  0
  188.6080  175.4230  136.1270 C   0  0  0  0  0  0  0  0  0  0  0  0
  189.8830  175.1120  135.9160 C   0  0  0  0  0  2  0  0  0  0  0  0
  187.7140  173.2260  135.2740 C   0  0  0  0  0  3  0  0  0  0  0  0
  183.8100  172.0560  137.1170 C   0  0  0  0  0  3  0  0  0  0  0  0
  186.4380  174.4490  136.9620 C   0  0  0  0  0  3  0  0  0  0  0  0
  185.4950  173.4260  136.9080 C   0  0  0  0  0  0  0  0  0  0  0  0
  185.6420  172.3510  136.0830 C   0  0  0  0  0  0  0  0  0  0  0  0
  184.6290  171.5400  136.2160 O   0  0  0  0  0  0  0  0  0  0  0  0
  187.5790  174.3490  136.1350 C   0  0  0  0  0  0  0  0  0  0  0  0
  186.7420  172.2110  135.2430 C   0  0  0  0  0  3  0  0  0  0  0  0
  184.3140  173.2680  137.5980 C   0  0  0  0  0  3  0  0  0  0  0  0
  1  2  1  0  0  0  0
  3  8  2  0  0  0  0
  3  7  1  0  0  0  0
  4  9  1  0  0  0  0
  5  4  1  0  0  0  0
  6  7  2  0  0  0  0
  7 12  1  0  0  0  0
  8 11  1  0  0  0  0
  9  2  1  0  0  0  0
 10 15  1  6  0  0  0
 10  1  1  0  0  0  0
 11 12  1  0  0  0  0
 11  5  2  0  0  0  0
 12 10  1  0  0  0  0
 13  5  1  0  0  0  0
 14 13  2  0  0  0  0
 15 17  1  0  0  0  0
 17 16  1  1  0  0  0
 18 17  1  0  0  0  0
 20 22  1  6  0  0  0
 20 21  1  0  0  0  0
 20 19  1  0  0  0  0
 21 18  1  6  0  0  0
 21 19  1  0  0  0  0
 24 23  1  6  0  0  0
 24 22  1  0  0  0  0
 25 26  1  6  0  0  0
 25 24  1  0  0  0  0
 27 28  1  0  0  0  0
 29 27  1  0  0  0  0
 29 25  1  6  0  0  0
 31 34  1  6  0  0  0
 31 38  1  0  0  0  0
 32 35  1  1  0  0  0
 32 36  1  0  0  0  0
 32 33  1  0  0  0  0
 35 34  1  0  0  0  0
 36 39  1  1  0  0  0
 36 31  1  0  0  0  0
 37 33  1  6  0  0  0
 37 28  1  0  0  0  0
 38 37  1  0  0  0  0
 38 30  1  1  0  0  0
 39 29  1  0  0  0  0
 40  3  1  0  0  0  0
 41 40  1  0  0  0  0
 42 41  1  0  0  0  0
 43 42  1  0  0  0  0
 44 52  1  0  0  0  0
 44 43  1  0  0  0  0
 45 44  2  0  0  0  0
 46 52  1  0  0  0  0
 47 54  2  0  0  0  0
 49 48  1  0  0  0  0
 49 54  1  0  0  0  0
 50 51  1  0  0  0  0
 50 49  2  0  0  0  0
 51 47  1  0  0  0  0
 52 48  2  0  0  0  0
 53 46  2  0  0  0  0
 53 50  1  0  0  0  0
M  END
>  <MODEL>
8

>  <REMARK>
 VINA RESULT:      -6.9      2.122      6.808
  Name = 
  15 active torsions:
  status: ('A' for Active; 'I' for Inactive)
    1  A    between atoms: C_1  and  C_23
    2  A    between atoms: C_2  and  C_22
    3  A    between atoms: C_2  and  C_46
    4  A    between atoms: C_5  and  C_20
    5  A    between atoms: C_5  and  C_24
    6  A    between atoms: C_11  and  C_33
    7  A    between atoms: C_11  and  N_42
    8  A    between atoms: C_13  and  C_14
    9  A    between atoms: C_13  and  C_46
   10  A    between atoms: C_15  and  O_51
   11  A    between atoms: C_17  and  N_42
   12  A    between atoms: C_17  and  C_45
   13  A    between atoms: C_24  and  C_32
   14  A    between atoms: C_32  and  C_43
   15  A    between atoms: C_33  and  O_51
                            x       y       z     vdW  Elec       q    Type
                         _______ _______ _______ _____ _____    ______ ____

>  <TORSDO>
F 15

$$$$
=
 OpenBabel11042410083D

 54 61  0  0  1  0  0  0  0  0999 V2000
  185.2600  177.6590  136.1220 C   0  0  0  0  0  2  0  0  0  0  0  0
  184.4050  176.6980  135.2930 C   0  0  0  0  0  2  0  0  0  0  0  0
  184.1510  178.3440  140.7980 C   0  0  0  0  0  0  0  0  0  0  0  0
  182.4730  177.2630  136.5320 C   0  0  0  0  0  2  0  0  0  0  0  0
  182.3020  177.1940  138.0210 C   0  0  0  0  0  0  0  0  0  0  0  0
  186.2660  179.0000  139.8490 O   0  0  0  0  0  0  0  0  0  0  0  0
  185.1420  178.4450  139.7360 C   0  0  0  0  0  0  0  0  0  0  0  0
  183.0480  177.8010  140.3100 C   0  0  0  0  0  3  0  0  0  0  0  0
  183.2850  176.1530  136.0580 N   0  0  0  0  0  2  0  0  0  0  0  0
  185.4370  177.1300  137.5370 C   0  0  2  0  0  3  0  0  0  0  0  0
  183.2870  177.5450  138.8780 C   0  0  0  0  0  0  0  0  0  0  0  0
  184.6410  177.8890  138.5180 N   0  0  0  0  0  0  0  0  0  0  0  0
  180.9690  176.8460  138.5460 C   0  0  0  0  0  3  0  0  0  0  0  0
  180.2310  175.9480  137.9770 N   0  0  0  0  0  2  0  0  0  0  0  0
  186.8890  176.8160  137.9300 C   0  0  0  0  0  2  0  0  0  0  0  0
  186.8910  174.5590  137.1180 O   0  0  0  0  0  1  0  0  0  0  0  0
  187.5810  175.7690  137.0560 C   0  0  2  0  0  3  0  0  0  0  0  0
  189.0000  175.5410  137.5520 C   0  0  0  0  0  2  0  0  0  0  0  0
  190.4200  176.2350  139.4130 N   0  0  0  0  0  2  0  0  0  0  0  0
  190.9510  177.0140  138.2830 C   0  0  2  0  0  3  0  0  0  0  0  0
  189.5030  176.7280  138.3720 C   0  0  1  0  0  3  0  0  0  0  0  0
  191.7450  176.1070  137.3410 C   0  0  0  0  0  2  0  0  0  0  0  0
  193.5350  177.1260  138.5440 O   0  0  0  0  0  1  0  0  0  0  0  0
  193.2070  176.0110  137.7680 C   0  0  2  0  0  3  0  0  0  0  0  0
  194.1270  175.9340  136.5400 C   0  0  2  0  0  3  0  0  0  0  0  0
  193.3770  175.9880  135.3640 O   0  0  0  0  0  1  0  0  0  0  0  0
  196.4920  175.0290  136.3990 C   0  0  0  0  0  2  0  0  0  0  0  0
  197.3090  174.2640  137.4330 C   0  0  0  0  0  2  0  0  0  0  0  0
  195.0130  174.6820  136.5110 C   0  0  2  0  0  3  0  0  0  0  0  0
  195.4150  172.9230  138.9530 O   0  0  0  0  0  1  0  0  0  0  0  0
  194.8640  171.5970  136.9990 C   0  0  2  0  0  3  0  0  0  0  0  0
  196.2750  171.7090  135.0760 C   0  0  1  0  0  3  0  0  0  0  0  0
  197.4870  172.3030  135.8200 C   0  0  0  0  0  2  0  0  0  0  0  0
  195.2360  170.1600  136.6610 C   0  0  0  0  0  2  0  0  0  0  0  0
  196.1830  170.2360  135.4550 C   0  0  0  0  0  2  0  0  0  0  0  0
  194.9670  172.2380  135.6290 C   0  0  2  0  0  3  0  0  0  0  0  0
  197.2130  172.7420  137.2800 C   0  0  2  0  0  3  0  0  0  0  0  0
  195.9610  172.1090  137.9550 C   0  0  1  0  0  3  0  0  0  0  0  0
  194.5870  173.7120  135.4140 C   0  0  0  0  0  2  0  0  0  0  0  0
  184.2850  178.7490  142.1270 O   0  0  0  0  0  0  0  0  0  0  0  0
  183.1700  178.9320  142.9860 C   0  0  0  0  0  2  0  0  0  0  0  0
  183.6470  179.3270  144.3700 C   0  0  0  0  0  2  0  0  0  0  0  0
  185.0920  179.1750  144.4580 N   0  0  0  0  0  2  0  0  0  0  0  0
  185.7670  178.4160  145.4720 C   0  0  0  0  0  0  0  0  0  0  0  0
  185.1360  178.2340  146.6280 C   0  0  0  0  0  2  0  0  0  0  0  0
  188.0920  177.9810  146.3420 C   0  0  0  0  0  3  0  0  0  0  0  0
  190.7670  175.9990  143.3550 C   0  0  0  0  0  3  0  0  0  0  0  0
  187.5320  177.2980  144.0630 C   0  0  0  0  0  3  0  0  0  0  0  0
  188.8390  176.8340  143.9420 C   0  0  0  0  0  0  0  0  0  0  0  0
  189.7380  176.9330  144.9610 C   0  0  0  0  0  0  0  0  0  0  0  0
  190.8870  176.4310  144.5990 O   0  0  0  0  0  0  0  0  0  0  0  0
  187.1410  177.8780  145.2900 C   0  0  0  0  0  0  0  0  0  0  0  0
  189.4050  177.5030  146.1850 C   0  0  0  0  0  3  0  0  0  0  0  0
  189.4730  176.2310  142.8790 C   0  0  0  0  0  3  0  0  0  0  0  0
  1 10  1  0  0  0  0
  2  9  1  0  0  0  0
  2  1  1  0  0  0  0
  3 40  1  0  0  0  0
  4  5  1  0  0  0  0
  5 13  1  0  0  0  0
  5 11  2  0  0  0  0
  7  6  2  0  0  0  0
  7  3  1  0  0  0  0
  8  3  2  0  0  0  0
  9  4  1  0  0  0  0
 10 15  1  1  0  0  0
 10 12  1  0  0  0  0
 11  8  1  0  0  0  0
 12 11  1  0  0  0  0
 12  7  1  0  0  0  0
 14 13  2  0  0  0  0
 17 16  1  1  0  0  0
 17 18  1  0  0  0  0
 17 15  1  0  0  0  0
 20 22  1  6  0  0  0
 20 21  1  0  0  0  0
 20 19  1  0  0  0  0
 21 18  1  6  0  0  0
 21 19  1  0  0  0  0
 22 24  1  0  0  0  0
 24 23  1  6  0  0  0
 25 26  1  6  0  0  0
 25 24  1  0  0  0  0
 27 29  1  0  0  0  0
 27 28  1  0  0  0  0
 29 25  1  6  0  0  0
 31 34  1  6  0  0  0
 31 38  1  0  0  0  0
 32 35  1  1  0  0  0
 32 36  1  0  0  0  0
 32 33  1  0  0  0  0
 35 34  1  0  0  0  0
 36 39  1  1  0  0  0
 36 31  1  0  0  0  0
 37 33  1  6  0  0  0
 37 28  1  0  0  0  0
 37 38  1  0  0  0  0
 38 30  1  1  0  0  0
 39 29  1  0  0  0  0
 40 41  1  0  0  0  0
 41 42  1  0  0  0  0
 42 43  1  0  0  0  0
 43 44  1  0  0  0  0
 44 45  2  0  0  0  0
 47 51  1  0  0  0  0
 48 52  1  0  0  0  0
 49 48  2  0  0  0  0
 49 50  1  0  0  0  0
 50 53  2  0  0  0  0
 51 50  1  0  0  0  0
 52 44  1  0  0  0  0
 52 46  2  0  0  0  0
 53 46  1  0  0  0  0
 54 47  2  0  0  0  0
 54 49  1  0  0  0  0
M  END
>  <MODEL>
9

>  <REMARK>
 VINA RESULT:      -6.9      4.295      9.785
  Name = 
  15 active torsions:
  status: ('A' for Active; 'I' for Inactive)
    1  A    between atoms: C_1  and  C_23
    2  A    between atoms: C_2  and  C_22
    3  A    between atoms: C_2  and  C_46
    4  A    between atoms: C_5  and  C_20
    5  A    between atoms: C_5  and  C_24
    6  A    between atoms: C_11  and  C_33
    7  A    between atoms: C_11  and  N_42
    8  A    between atoms: C_13  and  C_14
    9  A    between atoms: C_13  and  C_46
   10  A    between atoms: C_15  and  O_51
   11  A    between atoms: C_17  and  N_42
   12  A    between atoms: C_17  and  C_45
   13  A    between atoms: C_24  and  C_32
   14  A    between atoms: C_32  and  C_43
   15  A    between atoms: C_33  and  O_51
                            x       y       z     vdW  Elec       q    Type
                         _______ _______ _______ _____ _____    ______ ____

>  <TORSDO>
F 15

$$$$
