=
 OpenBabel11042410293D

 35 40  0  0  1  0  0  0  0  0999 V2000
  185.6010  175.2450  136.9400 O   0  0  0  0  0  0  0  0  0  0  0  0
  188.8660  174.2570  137.0980 C   0  0  0  0  0  0  0  0  0  0  0  0
  187.5230  173.9620  137.2740 O   0  0  0  0  0  0  0  0  0  0  0  0
  189.7940  173.4220  137.2720 O   0  0  0  0  0  0  0  0  0  0  0  0
  189.0320  175.6380  136.6400 C   0  0  0  0  0  0  0  0  0  0  0  0
  186.8560  175.1290  136.9340 C   0  0  0  0  0  0  0  0  0  0  0  0
  187.8100  176.1720  136.5490 C   0  0  0  0  0  0  0  0  0  0  0  0
  191.8130  177.8020  142.4910 F   0  0  0  0  0  0  0  0  0  0  0  0
  193.2250  176.0850  135.8590 N   0  0  0  0  0  1  0  0  0  0  0  0
  191.6450  177.4640  141.1890 C   0  0  0  0  0  0  0  0  0  0  0  0
  191.2840  176.7540  138.5390 C   0  0  0  0  0  0  0  0  0  0  0  0
  190.1470  177.0060  139.3070 C   0  0  0  0  0  3  0  0  0  0  0  0
  190.4720  176.7160  135.1010 O   0  0  0  0  0  0  0  0  0  0  0  0
  193.4740  176.6220  138.1050 N   0  0  0  0  0  0  0  0  0  0  0  0
  190.3420  177.3610  140.6540 C   0  0  0  0  0  3  0  0  0  0  0  0
  192.7730  177.2150  140.3810 C   0  0  0  0  0  3  0  0  0  0  0  0
  192.7130  176.3690  137.0100 C   0  0  0  0  0  0  0  0  0  0  0  0
  191.3720  176.4280  137.2360 N   0  0  0  0  0  0  0  0  0  0  0  0
  192.5480  176.8660  139.0520 C   0  0  0  0  0  0  0  0  0  0  0  0
  190.3080  176.2910  136.2760 C   0  0  0  0  0  0  0  0  0  0  0  0
  186.0870  177.9370  136.3190 C   0  0  0  0  0  2  0  0  0  0  0  0
  187.1310  178.5400  137.1620 N   0  0  0  0  0  0  0  0  0  0  0  0
  187.4820  177.5740  136.0780 C   0  0  1  0  0  3  0  0  0  0  0  0
  186.9640  177.9370  138.4830 C   0  0  0  0  0  2  0  0  0  0  0  0
  185.6170  178.3220  139.0640 C   0  0  0  0  0  2  0  0  0  0  0  0
  185.7920  179.3030  140.0740 O   0  0  0  0  0  0  0  0  0  0  0  0
  184.4920  178.9430  144.6870 C   0  0  0  0  0  3  0  0  0  0  0  0
  186.9390  178.1830  142.0820 C   0  0  0  0  0  2  0  0  0  0  0  0
  185.2200  178.8100  143.5060 C   0  0  0  0  0  0  0  0  0  0  0  0
  186.2600  177.6910  145.8170 C   0  0  0  0  0  3  0  0  0  0  0  0
  186.4180  178.1500  143.4690 C   0  0  0  0  0  0  0  0  0  0  0  0
  184.8620  179.3110  142.2320 N   0  0  0  0  0  0  0  0  0  0  0  0
  185.0260  178.3740  145.8550 C   0  0  0  0  0  3  0  0  0  0  0  0
  186.9710  177.5730  144.6110 C   0  0  0  0  0  3  0  0  0  0  0  0
  185.8220  178.9650  141.4270 C   0  0  0  0  0  0  0  0  0  0  0  0
  2  4  2  0  0  0  0
  2  3  1  0  0  0  0
  5  2  1  0  0  0  0
  6  1  2  0  0  0  0
  6  3  1  0  0  0  0
  7  5  2  0  0  0  0
  7  6  1  0  0  0  0
  9 17  1  0  0  0  0
 10  8  1  0  0  0  0
 11 19  2  0  0  0  0
 11 12  1  0  0  0  0
 12 15  2  0  0  0  0
 13 20  2  0  0  0  0
 14 19  1  0  0  0  0
 15 10  1  0  0  0  0
 16 10  2  0  0  0  0
 17 18  1  0  0  0  0
 17 14  2  0  0  0  0
 18 11  1  0  0  0  0
 19 16  1  0  0  0  0
 20  5  1  0  0  0  0
 20 18  1  0  0  0  0
 21 22  1  0  0  0  0
 22 24  1  0  0  0  0
 23 21  1  0  0  0  0
 23  7  1  1  0  0  0
 23 22  1  0  0  0  0
 24 25  1  0  0  0  0
 25 26  1  0  0  0  0
 26 35  1  0  0  0  0
 27 33  1  0  0  0  0
 28 31  1  0  0  0  0
 29 27  2  0  0  0  0
 30 33  2  0  0  0  0
 31 29  1  0  0  0  0
 31 34  2  0  0  0  0
 32 29  1  0  0  0  0
 34 30  1  0  0  0  0
 35 28  1  0  0  0  0
 35 32  2  0  0  0  0
M  END
>  <MODEL>
1

>  <REMARK>
 VINA RESULT:      -8.5      0.000      0.000
  Name = 
  6 active torsions:
  status: ('A' for Active; 'I' for Inactive)
    1  A    between atoms: O_4  and  C_25
    2  A    between atoms: O_4  and  C_34
    3  A    between atoms: N_9  and  C_12
    4  A    between atoms: C_12  and  C_25
    5  A    between atoms: C_22  and  C_35
    6  A    between atoms: C_29  and  C_33
                            x       y       z     vdW  Elec       q    Type
                         _______ _______ _______ _____ _____    ______ ____

>  <TORSDO>
F 6

$$$$
=
 OpenBabel11042410293D

 35 40  0  0  1  0  0  0  0  0999 V2000
  182.6780  177.1010  139.0170 O   0  0  0  0  0  0  0  0  0  0  0  0
  185.3410  175.7980  137.3250 C   0  0  0  0  0  0  0  0  0  0  0  0
  184.1280  175.6040  137.9660 O   0  0  0  0  0  0  0  0  0  0  0  0
  185.9840  174.8790  136.7500 O   0  0  0  0  0  0  0  0  0  0  0  0
  185.7260  177.2100  137.3710 C   0  0  0  0  0  0  0  0  0  0  0  0
  183.7540  176.8640  138.4070 C   0  0  0  0  0  0  0  0  0  0  0  0
  184.7660  177.8580  138.0380 C   0  0  0  0  0  0  0  0  0  0  0  0
  190.6640  177.1390  142.0890 F   0  0  0  0  0  0  0  0  0  0  0  0
  189.4240  177.4580  135.2130 N   0  0  0  0  0  1  0  0  0  0  0  0
  190.0110  177.2450  140.9060 C   0  0  0  0  0  0  0  0  0  0  0  0
  188.6580  177.4430  138.5000 C   0  0  0  0  0  0  0  0  0  0  0  0
  187.9160  177.5530  139.6770 C   0  0  0  0  0  3  0  0  0  0  0  0
  186.7680  178.5670  135.7350 O   0  0  0  0  0  0  0  0  0  0  0  0
  190.5050  177.2350  137.2570 N   0  0  0  0  0  0  0  0  0  0  0  0
  188.6130  177.4460  140.8940 C   0  0  0  0  0  3  0  0  0  0  0  0
  190.7320  177.1510  139.6990 C   0  0  0  0  0  3  0  0  0  0  0  0
  189.3900  177.4170  136.5030 C   0  0  0  0  0  0  0  0  0  0  0  0
  188.2420  177.5360  137.2240 N   0  0  0  0  0  0  0  0  0  0  0  0
  190.0150  177.2610  138.5110 C   0  0  0  0  0  0  0  0  0  0  0  0
  186.9160  177.8130  136.7350 C   0  0  0  0  0  0  0  0  0  0  0  0
  183.5630  179.7350  139.1180 C   0  0  0  0  0  2  0  0  0  0  0  0
  184.9000  179.7440  139.7320 N   0  0  0  0  0  0  0  0  0  0  0  0
  184.7130  179.3490  138.3030 C   0  0  1  0  0  3  0  0  0  0  0  0
  184.9050  178.6280  140.6760 C   0  0  0  0  0  2  0  0  0  0  0  0
  185.4050  179.0940  142.0290 C   0  0  0  0  0  2  0  0  0  0  0  0
  185.2340  178.0600  142.9870 O   0  0  0  0  0  0  0  0  0  0  0  0
  188.9740  177.1780  145.8730 C   0  0  0  0  0  3  0  0  0  0  0  0
  185.5680  178.4490  145.5040 C   0  0  0  0  0  2  0  0  0  0  0  0
  187.7180  177.5850  145.4260 C   0  0  0  0  0  0  0  0  0  0  0  0
  188.3130  177.8930  148.1150 C   0  0  0  0  0  3  0  0  0  0  0  0
  186.7900  178.1230  146.2760 C   0  0  0  0  0  0  0  0  0  0  0  0
  187.2270  177.5070  144.1010 N   0  0  0  0  0  0  0  0  0  0  0  0
  189.2680  177.3360  147.2380 C   0  0  0  0  0  3  0  0  0  0  0  0
  187.0540  178.2940  147.6340 C   0  0  0  0  0  3  0  0  0  0  0  0
  186.0210  177.9880  144.1360 C   0  0  0  0  0  0  0  0  0  0  0  0
  2  5  1  0  0  0  0
  2  3  1  0  0  0  0
  3  6  1  0  0  0  0
  4  2  2  0  0  0  0
  5  7  2  0  0  0  0
  6  1  2  0  0  0  0
  7  6  1  0  0  0  0
  9 17  1  0  0  0  0
 10  8  1  0  0  0  0
 11 19  2  0  0  0  0
 11 12  1  0  0  0  0
 12 15  2  0  0  0  0
 13 20  2  0  0  0  0
 14 19  1  0  0  0  0
 15 10  1  0  0  0  0
 16 10  2  0  0  0  0
 17 18  1  0  0  0  0
 17 14  2  0  0  0  0
 18 11  1  0  0  0  0
 19 16  1  0  0  0  0
 20 18  1  0  0  0  0
 20  5  1  0  0  0  0
 21 22  1  0  0  0  0
 22 24  1  0  0  0  0
 23  7  1  1  0  0  0
 23 21  1  0  0  0  0
 23 22  1  0  0  0  0
 24 25  1  0  0  0  0
 25 26  1  0  0  0  0
 26 35  1  0  0  0  0
 27 33  1  0  0  0  0
 28 31  1  0  0  0  0
 29 27  2  0  0  0  0
 29 31  1  0  0  0  0
 31 34  2  0  0  0  0
 32 35  2  0  0  0  0
 32 29  1  0  0  0  0
 33 30  2  0  0  0  0
 34 30  1  0  0  0  0
 35 28  1  0  0  0  0
M  END
>  <MODEL>
2

>  <REMARK>
 VINA RESULT:      -8.5      2.049      3.438
  Name = 
  6 active torsions:
  status: ('A' for Active; 'I' for Inactive)
    1  A    between atoms: O_4  and  C_25
    2  A    between atoms: O_4  and  C_34
    3  A    between atoms: N_9  and  C_12
    4  A    between atoms: C_12  and  C_25
    5  A    between atoms: C_22  and  C_35
    6  A    between atoms: C_29  and  C_33
                            x       y       z     vdW  Elec       q    Type
                         _______ _______ _______ _____ _____    ______ ____

>  <TORSDO>
F 6

$$$$
=
 OpenBabel11042410293D

 35 40  0  0  1  0  0  0  0  0999 V2000
  179.2270  175.9600  140.6640 O   0  0  0  0  0  0  0  0  0  0  0  0
  180.4540  179.0980  141.2170 C   0  0  0  0  0  0  0  0  0  0  0  0
  179.4150  178.1880  141.3340 O   0  0  0  0  0  0  0  0  0  0  0  0
  180.4180  180.2660  141.6880 O   0  0  0  0  0  0  0  0  0  0  0  0
  181.5930  178.4900  140.5240 C   0  0  0  0  0  0  0  0  0  0  0  0
  179.8850  177.0320  140.7300 C   0  0  0  0  0  0  0  0  0  0  0  0
  181.2430  177.2360  140.2190 C   0  0  0  0  0  0  0  0  0  0  0  0
  184.8290  178.6060  146.5370 F   0  0  0  0  0  0  0  0  0  0  0  0
  185.7680  178.8320  139.6100 N   0  0  0  0  0  1  0  0  0  0  0  0
  184.5710  178.6830  145.2090 C   0  0  0  0  0  0  0  0  0  0  0  0
  184.0240  178.8200  142.5000 C   0  0  0  0  0  0  0  0  0  0  0  0
  182.9510  178.9170  143.3880 C   0  0  0  0  0  3  0  0  0  0  0  0
  183.0530  179.8650  139.2670 O   0  0  0  0  0  0  0  0  0  0  0  0
  186.1700  178.6580  141.8910 N   0  0  0  0  0  0  0  0  0  0  0  0
  183.2400  178.8410  144.7620 C   0  0  0  0  0  3  0  0  0  0  0  0
  185.6320  178.6010  144.2850 C   0  0  0  0  0  3  0  0  0  0  0  0
  185.3380  178.8000  140.8270 C   0  0  0  0  0  0  0  0  0  0  0  0
  184.0210  178.8900  141.1550 N   0  0  0  0  0  0  0  0  0  0  0  0
  185.3150  178.6790  142.9320 C   0  0  0  0  0  0  0  0  0  0  0  0
  182.9050  179.1230  140.2760 C   0  0  0  0  0  0  0  0  0  0  0  0
  181.3440  175.2450  138.7480 C   0  0  0  0  0  2  0  0  0  0  0  0
  182.1140  176.2770  138.0350 N   0  0  0  0  0  0  0  0  0  0  0  0
  182.1170  176.2090  139.5280 C   0  0  1  0  0  3  0  0  0  0  0  0
  181.1190  177.1870  137.4710 C   0  0  0  0  0  2  0  0  0  0  0  0
  181.7450  178.0200  136.3690 C   0  0  0  0  0  2  0  0  0  0  0  0
  180.7540  178.8360  135.7620 O   0  0  0  0  0  0  0  0  0  0  0  0
  181.0370  183.2160  137.7190 C   0  0  0  0  0  3  0  0  0  0  0  0
  180.6180  181.1780  134.7160 C   0  0  0  0  0  2  0  0  0  0  0  0
  180.9070  182.1960  136.7790 C   0  0  0  0  0  0  0  0  0  0  0  0
  180.7820  184.8180  135.8910 C   0  0  0  0  0  3  0  0  0  0  0  0
  180.7210  182.4620  135.4480 C   0  0  0  0  0  0  0  0  0  0  0  0
  180.9390  180.8040  137.0320 N   0  0  0  0  0  0  0  0  0  0  0  0
  180.9720  184.5440  137.2610 C   0  0  0  0  0  3  0  0  0  0  0  0
  180.6550  183.7670  134.9660 C   0  0  0  0  0  3  0  0  0  0  0  0
  180.7760  180.2260  135.8800 C   0  0  0  0  0  0  0  0  0  0  0  0
  1  6  2  0  0  0  0
  2  3  1  0  0  0  0
  2  4  2  0  0  0  0
  5  2  1  0  0  0  0
  6  3  1  0  0  0  0
  7  5  2  0  0  0  0
  7  6  1  0  0  0  0
  9 17  1  0  0  0  0
 10  8  1  0  0  0  0
 11 19  2  0  0  0  0
 11 12  1  0  0  0  0
 12 15  2  0  0  0  0
 13 20  2  0  0  0  0
 14 19  1  0  0  0  0
 15 10  1  0  0  0  0
 16 10  2  0  0  0  0
 17 18  1  0  0  0  0
 17 14  2  0  0  0  0
 18 11  1  0  0  0  0
 19 16  1  0  0  0  0
 20  5  1  0  0  0  0
 20 18  1  0  0  0  0
 21 23  1  0  0  0  0
 22 21  1  0  0  0  0
 22 23  1  0  0  0  0
 23  7  1  1  0  0  0
 24 22  1  0  0  0  0
 25 24  1  0  0  0  0
 26 35  1  0  0  0  0
 26 25  1  0  0  0  0
 28 31  1  0  0  0  0
 28 35  1  0  0  0  0
 29 32  1  0  0  0  0
 29 27  2  0  0  0  0
 30 33  2  0  0  0  0
 31 29  1  0  0  0  0
 33 27  1  0  0  0  0
 34 31  2  0  0  0  0
 34 30  1  0  0  0  0
 35 32  2  0  0  0  0
M  END
>  <MODEL>
3

>  <REMARK>
 VINA RESULT:      -8.4      5.720      8.842
  Name = 
  6 active torsions:
  status: ('A' for Active; 'I' for Inactive)
    1  A    between atoms: O_4  and  C_25
    2  A    between atoms: O_4  and  C_34
    3  A    between atoms: N_9  and  C_12
    4  A    between atoms: C_12  and  C_25
    5  A    between atoms: C_22  and  C_35
    6  A    between atoms: C_29  and  C_33
                            x       y       z     vdW  Elec       q    Type
                         _______ _______ _______ _____ _____    ______ ____

>  <TORSDO>
F 6

$$$$
=
 OpenBabel11042410293D

 35 40  0  0  1  0  0  0  0  0999 V2000
  187.1770  176.7190  135.3150 O   0  0  0  0  0  0  0  0  0  0  0  0
  188.8750  174.4320  137.1980 C   0  0  0  0  0  0  0  0  0  0  0  0
  187.8620  174.7140  136.2950 O   0  0  0  0  0  0  0  0  0  0  0  0
  189.1560  173.2690  137.5930 O   0  0  0  0  0  0  0  0  0  0  0  0
  189.5840  175.6570  137.5730 C   0  0  0  0  0  0  0  0  0  0  0  0
  187.9290  176.0850  136.1020 C   0  0  0  0  0  0  0  0  0  0  0  0
  189.0030  176.6650  136.9140 C   0  0  0  0  0  0  0  0  0  0  0  0
  194.4910  171.9560  134.5940 F   0  0  0  0  0  0  0  0  0  0  0  0
  193.2900  177.1070  139.1710 N   0  0  0  0  0  1  0  0  0  0  0  0
  193.8430  172.8180  135.4160 C   0  0  0  0  0  0  0  0  0  0  0  0
  192.5030  174.5820  137.0730 C   0  0  0  0  0  0  0  0  0  0  0  0
  191.7510  173.6140  136.4060 C   0  0  0  0  0  3  0  0  0  0  0  0
  190.6090  176.0500  139.6700 O   0  0  0  0  0  0  0  0  0  0  0  0
  194.3620  175.6440  137.7190 N   0  0  0  0  0  0  0  0  0  0  0  0
  192.4410  172.7260  135.5630 C   0  0  0  0  0  3  0  0  0  0  0  0
  194.5750  173.8000  136.1130 C   0  0  0  0  0  3  0  0  0  0  0  0
  193.2480  176.1340  138.3230 C   0  0  0  0  0  0  0  0  0  0  0  0
  192.0940  175.5210  137.9470 N   0  0  0  0  0  0  0  0  0  0  0  0
  193.8630  174.6650  136.9410 C   0  0  0  0  0  0  0  0  0  0  0  0
  190.7660  175.7480  138.4560 C   0  0  0  0  0  0  0  0  0  0  0  0
  188.2860  179.0360  136.8890 C   0  0  0  0  0  2  0  0  0  0  0  0
  188.9830  178.8690  138.1740 N   0  0  0  0  0  0  0  0  0  0  0  0
  189.4230  178.1200  136.9580 C   0  0  1  0  0  3  0  0  0  0  0  0
  188.0510  178.1400  139.0320 C   0  0  0  0  0  2  0  0  0  0  0  0
  188.2690  178.5270  140.4820 C   0  0  0  0  0  2  0  0  0  0  0  0
  188.2950  177.3600  141.2910 O   0  0  0  0  0  0  0  0  0  0  0  0
  189.5180  177.3150  145.9390 C   0  0  0  0  0  3  0  0  0  0  0  0
  186.8950  177.6780  143.4220 C   0  0  0  0  0  2  0  0  0  0  0  0
  188.7580  177.4070  144.7740 C   0  0  0  0  0  0  0  0  0  0  0  0
  187.4650  177.7060  147.2070 C   0  0  0  0  0  3  0  0  0  0  0  0
  187.4090  177.6370  144.8100 C   0  0  0  0  0  0  0  0  0  0  0  0
  189.2290  177.2810  143.4460 N   0  0  0  0  0  0  0  0  0  0  0  0
  188.8550  177.4670  147.1690 C   0  0  0  0  0  3  0  0  0  0  0  0
  186.7250  177.7940  146.0150 C   0  0  0  0  0  3  0  0  0  0  0  0
  188.1900  177.4290  142.6800 C   0  0  0  0  0  0  0  0  0  0  0  0
  1  6  2  0  0  0  0
  2  5  1  0  0  0  0
  2  4  2  0  0  0  0
  3  2  1  0  0  0  0
  5 20  1  0  0  0  0
  6  3  1  0  0  0  0
  6  7  1  0  0  0  0
  7  5  2  0  0  0  0
  8 10  1  0  0  0  0
 10 15  2  0  0  0  0
 10 16  1  0  0  0  0
 11 18  1  0  0  0  0
 12 11  2  0  0  0  0
 14 17  2  0  0  0  0
 15 12  1  0  0  0  0
 16 19  2  0  0  0  0
 17  9  1  0  0  0  0
 18 17  1  0  0  0  0
 18 20  1  0  0  0  0
 19 11  1  0  0  0  0
 19 14  1  0  0  0  0
 20 13  2  0  0  0  0
 21 23  1  0  0  0  0
 21 22  1  0  0  0  0
 22 24  1  0  0  0  0
 23  7  1  1  0  0  0
 23 22  1  0  0  0  0
 24 25  1  0  0  0  0
 25 26  1  0  0  0  0
 26 35  1  0  0  0  0
 27 33  1  0  0  0  0
 28 31  1  0  0  0  0
 29 31  1  0  0  0  0
 29 27  2  0  0  0  0
 31 34  2  0  0  0  0
 32 29  1  0  0  0  0
 33 30  2  0  0  0  0
 34 30  1  0  0  0  0
 35 28  1  0  0  0  0
 35 32  2  0  0  0  0
M  END
>  <MODEL>
4

>  <REMARK>
 VINA RESULT:      -8.1      2.818      3.762
  Name = 
  6 active torsions:
  status: ('A' for Active; 'I' for Inactive)
    1  A    between atoms: O_4  and  C_25
    2  A    between atoms: O_4  and  C_34
    3  A    between atoms: N_9  and  C_12
    4  A    between atoms: C_12  and  C_25
    5  A    between atoms: C_22  and  C_35
    6  A    between atoms: C_29  and  C_33
                            x       y       z     vdW  Elec       q    Type
                         _______ _______ _______ _____ _____    ______ ____

>  <TORSDO>
F 6

$$$$
=
 OpenBabel11042410293D

 35 40  0  0  1  0  0  0  0  0999 V2000
  185.7720  179.0030  139.6280 O   0  0  0  0  0  0  0  0  0  0  0  0
  182.6930  180.3470  139.0150 C   0  0  0  0  0  0  0  0  0  0  0  0
  184.0480  180.2920  138.7260 O   0  0  0  0  0  0  0  0  0  0  0  0
  181.8720  181.0690  138.3880 O   0  0  0  0  0  0  0  0  0  0  0  0
  182.3630  179.4200  140.0990 C   0  0  0  0  0  0  0  0  0  0  0  0
  184.5620  179.3530  139.6050 C   0  0  0  0  0  0  0  0  0  0  0  0
  183.5010  178.8210  140.4660 C   0  0  0  0  0  0  0  0  0  0  0  0
  180.3840  173.4850  137.3580 F   0  0  0  0  0  0  0  0  0  0  0  0
  179.3180  177.8780  142.6960 N   0  0  0  0  0  1  0  0  0  0  0  0
  180.4430  174.5870  138.1440 C   0  0  0  0  0  0  0  0  0  0  0  0
  180.5920  176.8380  139.7480 C   0  0  0  0  0  0  0  0  0  0  0  0
  181.2610  176.8640  138.5230 C   0  0  0  0  0  3  0  0  0  0  0  0
  180.3180  180.0990  141.0770 O   0  0  0  0  0  0  0  0  0  0  0  0
  179.2750  175.9890  141.3440 N   0  0  0  0  0  0  0  0  0  0  0  0
  181.1830  175.7130  137.7190 C   0  0  0  0  0  3  0  0  0  0  0  0
  179.7680  174.5990  139.3820 C   0  0  0  0  0  3  0  0  0  0  0  0
  179.6750  177.2570  141.6210 C   0  0  0  0  0  0  0  0  0  0  0  0
  180.4880  177.8050  140.6780 N   0  0  0  0  0  0  0  0  0  0  0  0
  179.8650  175.7520  140.1560 C   0  0  0  0  0  0  0  0  0  0  0  0
  181.0120  179.1450  140.6340 C   0  0  0  0  0  0  0  0  0  0  0  0
  184.8880  177.8780  142.2880 C   0  0  0  0  0  2  0  0  0  0  0  0
  183.6230  178.2550  142.9380 N   0  0  0  0  0  0  0  0  0  0  0  0
  183.6450  177.7530  141.5300 C   0  0  1  0  0  3  0  0  0  0  0  0
  183.6670  179.7100  143.0640 C   0  0  0  0  0  2  0  0  0  0  0  0
  184.3880  180.0980  144.3410 C   0  0  0  0  0  2  0  0  0  0  0  0
  184.4690  178.9760  145.2070 O   0  0  0  0  0  0  0  0  0  0  0  0
  187.9300  178.2530  148.4610 C   0  0  0  0  0  3  0  0  0  0  0  0
  186.7820  177.8750  145.0130 C   0  0  0  0  0  2  0  0  0  0  0  0
  187.2300  178.2540  147.2560 C   0  0  0  0  0  0  0  0  0  0  0  0
  189.7620  177.1280  147.2980 C   0  0  0  0  0  3  0  0  0  0  0  0
  187.7620  177.7190  146.1140 C   0  0  0  0  0  0  0  0  0  0  0  0
  185.9360  178.7800  147.0320 N   0  0  0  0  0  0  0  0  0  0  0  0
  189.2140  177.6810  148.4740 C   0  0  0  0  0  3  0  0  0  0  0  0
  189.0310  177.1430  146.0970 C   0  0  0  0  0  3  0  0  0  0  0  0
  185.6770  178.5730  145.7750 C   0  0  0  0  0  0  0  0  0  0  0  0
  2  5  1  0  0  0  0
  3  2  1  0  0  0  0
  3  6  1  0  0  0  0
  4  2  2  0  0  0  0
  5  7  2  0  0  0  0
  5 20  1  0  0  0  0
  6  1  2  0  0  0  0
  6  7  1  0  0  0  0
  8 10  1  0  0  0  0
 10 16  1  0  0  0  0
 11 19  1  0  0  0  0
 11 18  1  0  0  0  0
 12 11  2  0  0  0  0
 14 17  2  0  0  0  0
 15 10  2  0  0  0  0
 15 12  1  0  0  0  0
 16 19  2  0  0  0  0
 17  9  1  0  0  0  0
 18 17  1  0  0  0  0
 19 14  1  0  0  0  0
 20 18  1  0  0  0  0
 20 13  2  0  0  0  0
 21 22  1  0  0  0  0
 22 24  1  0  0  0  0
 23  7  1  6  0  0  0
 23 21  1  0  0  0  0
 23 22  1  0  0  0  0
 24 25  1  0  0  0  0
 25 26  1  0  0  0  0
 26 35  1  0  0  0  0
 27 33  1  0  0  0  0
 28 35  1  0  0  0  0
 28 31  1  0  0  0  0
 29 27  2  0  0  0  0
 30 33  2  0  0  0  0
 31 29  1  0  0  0  0
 32 29  1  0  0  0  0
 34 31  2  0  0  0  0
 34 30  1  0  0  0  0
 35 32  2  0  0  0  0
M  END
>  <MODEL>
5

>  <REMARK>
 VINA RESULT:      -8.0      6.241      8.925
  Name = 
  6 active torsions:
  status: ('A' for Active; 'I' for Inactive)
    1  A    between atoms: O_4  and  C_25
    2  A    between atoms: O_4  and  C_34
    3  A    between atoms: N_9  and  C_12
    4  A    between atoms: C_12  and  C_25
    5  A    between atoms: C_22  and  C_35
    6  A    between atoms: C_29  and  C_33
                            x       y       z     vdW  Elec       q    Type
                         _______ _______ _______ _____ _____    ______ ____

>  <TORSDO>
F 6

$$$$
=
 OpenBabel11042410293D

 35 40  0  0  1  0  0  0  0  0999 V2000
  179.3160  176.1960  140.4950 O   0  0  0  0  0  0  0  0  0  0  0  0
  180.5520  179.3750  140.6590 C   0  0  0  0  0  0  0  0  0  0  0  0
  179.4740  178.5100  140.7590 O   0  0  0  0  0  0  0  0  0  0  0  0
  180.4820  180.6120  140.8900 O   0  0  0  0  0  0  0  0  0  0  0  0
  181.7680  178.6390  140.3030 C   0  0  0  0  0  0  0  0  0  0  0  0
  179.9940  177.2580  140.4750 C   0  0  0  0  0  0  0  0  0  0  0  0
  181.4270  177.3520  140.1820 C   0  0  0  0  0  0  0  0  0  0  0  0
  184.4740  178.5450  146.5730 F   0  0  0  0  0  0  0  0  0  0  0  0
  186.0190  178.7710  139.7550 N   0  0  0  0  0  1  0  0  0  0  0  0
  184.3360  178.6450  145.2290 C   0  0  0  0  0  0  0  0  0  0  0  0
  184.0330  178.8290  142.4840 C   0  0  0  0  0  0  0  0  0  0  0  0
  182.8940  178.9750  143.2780 C   0  0  0  0  0  3  0  0  0  0  0  0
  183.4000  179.9450  139.1930 O   0  0  0  0  0  0  0  0  0  0  0  0
  186.2120  178.5610  142.0610 N   0  0  0  0  0  0  0  0  0  0  0  0
  183.0590  178.8750  144.6710 C   0  0  0  0  0  3  0  0  0  0  0  0
  185.4680  178.5150  144.3990 C   0  0  0  0  0  3  0  0  0  0  0  0
  185.4840  178.7530  140.9310 C   0  0  0  0  0  0  0  0  0  0  0  0
  184.1500  178.9090  141.1460 N   0  0  0  0  0  0  0  0  0  0  0  0
  185.2730  178.6190  143.0240 C   0  0  0  0  0  0  0  0  0  0  0  0
  183.1270  179.2060  140.1770 C   0  0  0  0  0  0  0  0  0  0  0  0
  181.7500  175.2000  138.9970 C   0  0  0  0  0  2  0  0  0  0  0  0
  182.7640  176.0990  138.4240 N   0  0  0  0  0  0  0  0  0  0  0  0
  182.3660  176.2070  139.8600 C   0  0  1  0  0  3  0  0  0  0  0  0
  182.0330  176.9880  137.5230 C   0  0  0  0  0  2  0  0  0  0  0  0
  182.9200  177.3920  136.3600 C   0  0  0  0  0  2  0  0  0  0  0  0
  183.8810  176.3760  136.1150 O   0  0  0  0  0  0  0  0  0  0  0  0
  188.1360  178.5210  136.7380 C   0  0  0  0  0  3  0  0  0  0  0  0
  186.1620  175.4490  136.8490 C   0  0  0  0  0  2  0  0  0  0  0  0
  187.1460  177.5420  136.6880 C   0  0  0  0  0  0  0  0  0  0  0  0
  189.7010  176.7820  137.4440 C   0  0  0  0  0  3  0  0  0  0  0  0
  187.4090  176.2350  136.9990 C   0  0  0  0  0  0  0  0  0  0  0  0
  185.7910  177.7280  136.3240 N   0  0  0  0  0  0  0  0  0  0  0  0
  189.4300  178.1280  137.1210 C   0  0  0  0  0  3  0  0  0  0  0  0
  188.6810  175.8170  137.3850 C   0  0  0  0  0  3  0  0  0  0  0  0
  185.2320  176.5580  136.4100 C   0  0  0  0  0  0  0  0  0  0  0  0
  2  3  1  0  0  0  0
  2  4  2  0  0  0  0
  5  2  1  0  0  0  0
  6  1  2  0  0  0  0
  6  3  1  0  0  0  0
  7  5  2  0  0  0  0
  7  6  1  0  0  0  0
  9 17  1  0  0  0  0
 10  8  1  0  0  0  0
 11 19  2  0  0  0  0
 11 12  1  0  0  0  0
 12 15  2  0  0  0  0
 13 20  2  0  0  0  0
 14 19  1  0  0  0  0
 15 10  1  0  0  0  0
 16 10  2  0  0  0  0
 17 18  1  0  0  0  0
 17 14  2  0  0  0  0
 18 11  1  0  0  0  0
 19 16  1  0  0  0  0
 20  5  1  0  0  0  0
 20 18  1  0  0  0  0
 21 23  1  0  0  0  0
 22 21  1  0  0  0  0
 22 23  1  0  0  0  0
 23  7  1  6  0  0  0
 24 22  1  0  0  0  0
 25 24  1  0  0  0  0
 26 25  1  0  0  0  0
 26 35  1  0  0  0  0
 27 33  1  0  0  0  0
 28 31  1  0  0  0  0
 29 27  2  0  0  0  0
 29 31  1  0  0  0  0
 31 34  2  0  0  0  0
 32 35  2  0  0  0  0
 32 29  1  0  0  0  0
 33 30  2  0  0  0  0
 34 30  1  0  0  0  0
 35 28  1  0  0  0  0
M  END
>  <MODEL>
6

>  <REMARK>
 VINA RESULT:      -7.8      3.614      8.001
  Name = 
  6 active torsions:
  status: ('A' for Active; 'I' for Inactive)
    1  A    between atoms: O_4  and  C_25
    2  A    between atoms: O_4  and  C_34
    3  A    between atoms: N_9  and  C_12
    4  A    between atoms: C_12  and  C_25
    5  A    between atoms: C_22  and  C_35
    6  A    between atoms: C_29  and  C_33
                            x       y       z     vdW  Elec       q    Type
                         _______ _______ _______ _____ _____    ______ ____

>  <TORSDO>
F 6

$$$$
=
 OpenBabel11042410293D

 35 40  0  0  1  0  0  0  0  0999 V2000
  191.2830  176.8390  139.8090 O   0  0  0  0  0  0  0  0  0  0  0  0
  190.2430  174.9330  137.1740 C   0  0  0  0  0  0  0  0  0  0  0  0
  190.9740  175.0470  138.3460 O   0  0  0  0  0  0  0  0  0  0  0  0
  190.1310  173.8620  136.5200 O   0  0  0  0  0  0  0  0  0  0  0  0
  189.5930  176.2050  136.8500 C   0  0  0  0  0  0  0  0  0  0  0  0
  190.7910  176.3590  138.7540 C   0  0  0  0  0  0  0  0  0  0  0  0
  189.9340  177.0760  137.8060 C   0  0  0  0  0  0  0  0  0  0  0  0
  184.1540  172.2060  137.8830 F   0  0  0  0  0  0  0  0  0  0  0  0
  186.3940  177.9600  134.5980 N   0  0  0  0  0  1  0  0  0  0  0  0
  184.9750  173.1670  137.3930 C   0  0  0  0  0  0  0  0  0  0  0  0
  186.6630  175.1310  136.4190 C   0  0  0  0  0  0  0  0  0  0  0  0
  187.2360  174.0570  137.1020 C   0  0  0  0  0  3  0  0  0  0  0  0
  189.1310  176.9310  134.6450 O   0  0  0  0  0  0  0  0  0  0  0  0
  185.0120  176.3190  135.4890 N   0  0  0  0  0  0  0  0  0  0  0  0
  186.3690  173.0670  137.5960 C   0  0  0  0  0  3  0  0  0  0  0  0
  184.4290  174.2590  136.6890 C   0  0  0  0  0  3  0  0  0  0  0  0
  186.2340  176.8700  135.2710 C   0  0  0  0  0  0  0  0  0  0  0  0
  187.2650  176.1820  135.8320 N   0  0  0  0  0  0  0  0  0  0  0  0
  185.3130  175.2230  136.2110 C   0  0  0  0  0  0  0  0  0  0  0  0
  188.6740  176.4540  135.7190 C   0  0  0  0  0  0  0  0  0  0  0  0
  188.0150  178.6420  137.8170 C   0  0  0  0  0  2  0  0  0  0  0  0
  188.6590  178.8290  139.1270 N   0  0  0  0  0  0  0  0  0  0  0  0
  189.4670  178.5140  137.9110 C   0  0  1  0  0  3  0  0  0  0  0  0
  188.2760  177.6640  139.9210 C   0  0  0  0  0  2  0  0  0  0  0  0
  187.9040  178.0930  141.3280 C   0  0  0  0  0  2  0  0  0  0  0  0
  188.2470  177.0690  142.2490 O   0  0  0  0  0  0  0  0  0  0  0  0
  189.5520  177.2310  146.8710 C   0  0  0  0  0  3  0  0  0  0  0  0
  186.9600  177.7810  144.3550 C   0  0  0  0  0  2  0  0  0  0  0  0
  188.7890  177.3400  145.7100 C   0  0  0  0  0  0  0  0  0  0  0  0
  187.6130  178.0430  148.1180 C   0  0  0  0  0  3  0  0  0  0  0  0
  187.4930  177.7790  145.7370 C   0  0  0  0  0  0  0  0  0  0  0  0
  189.2050  177.0290  144.3940 N   0  0  0  0  0  0  0  0  0  0  0  0
  188.9480  177.5880  148.0890 C   0  0  0  0  0  3  0  0  0  0  0  0
  186.8690  178.1430  146.9300 C   0  0  0  0  0  3  0  0  0  0  0  0
  188.1850  177.2720  143.6270 C   0  0  0  0  0  0  0  0  0  0  0  0
  2  3  1  0  0  0  0
  3  6  1  0  0  0  0
  4  2  2  0  0  0  0
  5  2  1  0  0  0  0
  5  7  2  0  0  0  0
  6  1  2  0  0  0  0
  7  6  1  0  0  0  0
  9 17  1  0  0  0  0
 10 15  1  0  0  0  0
 10  8  1  0  0  0  0
 11 12  1  0  0  0  0
 12 15  2  0  0  0  0
 13 20  2  0  0  0  0
 14 19  1  0  0  0  0
 16 10  2  0  0  0  0
 17 14  2  0  0  0  0
 17 18  1  0  0  0  0
 18 11  1  0  0  0  0
 19 11  2  0  0  0  0
 19 16  1  0  0  0  0
 20 18  1  0  0  0  0
 20  5  1  0  0  0  0
 21 23  1  0  0  0  0
 21 22  1  0  0  0  0
 22 24  1  0  0  0  0
 23  7  1  1  0  0  0
 23 22  1  0  0  0  0
 24 25  1  0  0  0  0
 25 26  1  0  0  0  0
 26 35  1  0  0  0  0
 27 33  1  0  0  0  0
 28 31  1  0  0  0  0
 29 31  1  0  0  0  0
 29 27  2  0  0  0  0
 31 34  2  0  0  0  0
 32 29  1  0  0  0  0
 33 30  2  0  0  0  0
 34 30  1  0  0  0  0
 35 28  1  0  0  0  0
 35 32  2  0  0  0  0
M  END
>  <MODEL>
7

>  <REMARK>
 VINA RESULT:      -7.8      3.154      5.120
  Name = 
  6 active torsions:
  status: ('A' for Active; 'I' for Inactive)
    1  A    between atoms: O_4  and  C_25
    2  A    between atoms: O_4  and  C_34
    3  A    between atoms: N_9  and  C_12
    4  A    between atoms: C_12  and  C_25
    5  A    between atoms: C_22  and  C_35
    6  A    between atoms: C_29  and  C_33
                            x       y       z     vdW  Elec       q    Type
                         _______ _______ _______ _____ _____    ______ ____

>  <TORSDO>
F 6

$$$$
=
 OpenBabel11042410293D

 35 40  0  0  1  0  0  0  0  0999 V2000
  189.3960  178.0120  135.2390 O   0  0  0  0  0  0  0  0  0  0  0  0
  186.1060  177.1070  135.1250 C   0  0  0  0  0  0  0  0  0  0  0  0
  187.1470  177.8770  134.6300 O   0  0  0  0  0  0  0  0  0  0  0  0
  184.9420  177.1090  134.6420 O   0  0  0  0  0  0  0  0  0  0  0  0
  186.5690  176.2710  136.2360 C   0  0  0  0  0  0  0  0  0  0  0  0
  188.2420  177.5360  135.4080 C   0  0  0  0  0  0  0  0  0  0  0  0
  187.8670  176.5390  136.4140 C   0  0  0  0  0  0  0  0  0  0  0  0
  182.0230  179.7810  139.9310 F   0  0  0  0  0  0  0  0  0  0  0  0
  183.3780  173.5370  137.0870 N   0  0  0  0  0  1  0  0  0  0  0  0
  182.6750  178.7680  139.3110 C   0  0  0  0  0  0  0  0  0  0  0  0
  184.0140  176.7170  138.0230 C   0  0  0  0  0  0  0  0  0  0  0  0
  184.7130  177.9000  138.2680 C   0  0  0  0  0  3  0  0  0  0  0  0
  186.2440  174.1170  137.1590 O   0  0  0  0  0  0  0  0  0  0  0  0
  182.2780  175.3100  138.1080 N   0  0  0  0  0  0  0  0  0  0  0  0
  184.0220  178.9370  138.9190 C   0  0  0  0  0  3  0  0  0  0  0  0
  182.0010  177.5560  139.0580 C   0  0  0  0  0  3  0  0  0  0  0  0
  183.3720  174.7500  137.5300 C   0  0  0  0  0  0  0  0  0  0  0  0
  184.4470  175.5790  137.4490 N   0  0  0  0  0  0  0  0  0  0  0  0
  182.7130  176.5480  138.4120 C   0  0  0  0  0  0  0  0  0  0  0  0
  185.7680  175.2690  136.9690 C   0  0  0  0  0  0  0  0  0  0  0  0
  189.9260  176.7250  137.7790 C   0  0  0  0  0  2  0  0  0  0  0  0
  188.8410  176.5660  138.7590 N   0  0  0  0  0  0  0  0  0  0  0  0
  188.7820  175.8850  137.4300 C   0  0  1  0  0  3  0  0  0  0  0  0
  188.1660  177.8610  138.8090 C   0  0  0  0  0  2  0  0  0  0  0  0
  187.9250  178.2660  140.2510 C   0  0  0  0  0  2  0  0  0  0  0  0
  188.7420  177.4860  141.1110 O   0  0  0  0  0  0  0  0  0  0  0  0
  189.7130  177.3040  145.8140 C   0  0  0  0  0  3  0  0  0  0  0  0
  187.2110  177.6160  143.1700 C   0  0  0  0  0  2  0  0  0  0  0  0
  189.0130  177.4020  144.6130 C   0  0  0  0  0  0  0  0  0  0  0  0
  187.5750  177.5050  146.9790 C   0  0  0  0  0  3  0  0  0  0  0  0
  187.6520  177.5430  144.5830 C   0  0  0  0  0  0  0  0  0  0  0  0
  189.5620  177.3670  143.3090 N   0  0  0  0  0  0  0  0  0  0  0  0
  188.9770  177.3560  147.0100 C   0  0  0  0  0  3  0  0  0  0  0  0
  186.8960  177.6010  145.7520 C   0  0  0  0  0  3  0  0  0  0  0  0
  188.5580  177.4840  142.4930 C   0  0  0  0  0  0  0  0  0  0  0  0
  1  6  2  0  0  0  0
  2  5  1  0  0  0  0
  3  2  1  0  0  0  0
  3  6  1  0  0  0  0
  4  2  2  0  0  0  0
  5  7  2  0  0  0  0
  5 20  1  0  0  0  0
  6  7  1  0  0  0  0
  9 17  1  0  0  0  0
 10  8  1  0  0  0  0
 11 12  2  0  0  0  0
 11 19  1  0  0  0  0
 12 15  1  0  0  0  0
 14 19  1  0  0  0  0
 15 10  2  0  0  0  0
 16 10  1  0  0  0  0
 17 14  2  0  0  0  0
 18 17  1  0  0  0  0
 18 11  1  0  0  0  0
 19 16  2  0  0  0  0
 20 13  2  0  0  0  0
 20 18  1  0  0  0  0
 21 22  1  0  0  0  0
 22 24  1  0  0  0  0
 23  7  1  6  0  0  0
 23 21  1  0  0  0  0
 23 22  1  0  0  0  0
 24 25  1  0  0  0  0
 25 26  1  0  0  0  0
 26 35  1  0  0  0  0
 27 33  1  0  0  0  0
 28 31  1  0  0  0  0
 29 27  2  0  0  0  0
 30 33  2  0  0  0  0
 31 29  1  0  0  0  0
 31 34  2  0  0  0  0
 32 29  1  0  0  0  0
 34 30  1  0  0  0  0
 35 28  1  0  0  0  0
 35 32  2  0  0  0  0
M  END
>  <MODEL>
8

>  <REMARK>
 VINA RESULT:      -7.6      3.273      5.991
  Name = 
  6 active torsions:
  status: ('A' for Active; 'I' for Inactive)
    1  A    between atoms: O_4  and  C_25
    2  A    between atoms: O_4  and  C_34
    3  A    between atoms: N_9  and  C_12
    4  A    between atoms: C_12  and  C_25
    5  A    between atoms: C_22  and  C_35
    6  A    between atoms: C_29  and  C_33
                            x       y       z     vdW  Elec       q    Type
                         _______ _______ _______ _____ _____    ______ ____

>  <TORSDO>
F 6

$$$$
=
 OpenBabel11042410293D

 35 40  0  0  1  0  0  0  0  0999 V2000
  186.7660  178.9990  137.6240 O   0  0  0  0  0  0  0  0  0  0  0  0
  184.2510  176.7190  137.2540 C   0  0  0  0  0  0  0  0  0  0  0  0
  185.4500  177.2530  136.8070 O   0  0  0  0  0  0  0  0  0  0  0  0
  183.6880  175.7240  136.7260 O   0  0  0  0  0  0  0  0  0  0  0  0
  183.7790  177.4410  138.4380 C   0  0  0  0  0  0  0  0  0  0  0  0
  185.7290  178.2860  137.6870 C   0  0  0  0  0  0  0  0  0  0  0  0
  184.6730  178.4010  138.6970 C   0  0  0  0  0  0  0  0  0  0  0  0
  179.3360  182.5130  137.3540 F   0  0  0  0  0  0  0  0  0  0  0  0
  179.9140  175.8500  139.4000 N   0  0  0  0  0  1  0  0  0  0  0  0
  179.8760  181.3310  137.7360 C   0  0  0  0  0  0  0  0  0  0  0  0
  180.9960  178.9170  138.4950 C   0  0  0  0  0  0  0  0  0  0  0  0
  181.8560  179.9910  138.2620 C   0  0  0  0  0  3  0  0  0  0  0  0
  182.6810  176.3330  140.2180 O   0  0  0  0  0  0  0  0  0  0  0  0
  179.0260  177.8790  138.6990 N   0  0  0  0  0  0  0  0  0  0  0  0
  181.2770  181.2110  137.8730 C   0  0  0  0  0  3  0  0  0  0  0  0
  179.0340  180.2290  137.9910 C   0  0  0  0  0  3  0  0  0  0  0  0
  180.0720  177.0750  139.0220 C   0  0  0  0  0  0  0  0  0  0  0  0
  181.2900  177.6670  138.8990 N   0  0  0  0  0  0  0  0  0  0  0  0
  179.6380  179.0340  138.3760 C   0  0  0  0  0  0  0  0  0  0  0  0
  182.5780  177.1180  139.2370 C   0  0  0  0  0  0  0  0  0  0  0  0
  184.5490  178.7110  141.1510 C   0  0  0  0  0  2  0  0  0  0  0  0
  185.8140  179.3500  140.7560 N   0  0  0  0  0  0  0  0  0  0  0  0
  184.6240  179.3780  139.8530 C   0  0  1  0  0  3  0  0  0  0  0  0
  186.7440  178.2520  140.5020 C   0  0  0  0  0  2  0  0  0  0  0  0
  187.9930  178.4240  141.3450 C   0  0  0  0  0  2  0  0  0  0  0  0
  188.1350  177.3160  142.2220 O   0  0  0  0  0  0  0  0  0  0  0  0
  189.5190  177.4040  146.8240 C   0  0  0  0  0  3  0  0  0  0  0  0
  186.8490  177.8730  144.3750 C   0  0  0  0  0  2  0  0  0  0  0  0
  188.7290  177.5040  145.6800 C   0  0  0  0  0  0  0  0  0  0  0  0
  187.5590  178.0480  148.1330 C   0  0  0  0  0  3  0  0  0  0  0  0
  187.4080  177.8580  145.7470 C   0  0  0  0  0  0  0  0  0  0  0  0
  189.1370  177.2650  144.3470 N   0  0  0  0  0  0  0  0  0  0  0  0
  188.9190  177.6800  148.0640 C   0  0  0  0  0  3  0  0  0  0  0  0
  186.7860  178.1400  146.9620 C   0  0  0  0  0  3  0  0  0  0  0  0
  188.0880  177.4680  143.6080 C   0  0  0  0  0  0  0  0  0  0  0  0
  1  6  2  0  0  0  0
  2  5  1  0  0  0  0
  3  2  1  0  0  0  0
  3  6  1  0  0  0  0
  4  2  2  0  0  0  0
  5  7  2  0  0  0  0
  5 20  1  0  0  0  0
  6  7  1  0  0  0  0
  8 10  1  0  0  0  0
 10 15  2  0  0  0  0
 10 16  1  0  0  0  0
 11 18  1  0  0  0  0
 12 11  2  0  0  0  0
 14 17  2  0  0  0  0
 15 12  1  0  0  0  0
 16 19  2  0  0  0  0
 17  9  1  0  0  0  0
 18 17  1  0  0  0  0
 18 20  1  0  0  0  0
 19 11  1  0  0  0  0
 19 14  1  0  0  0  0
 20 13  2  0  0  0  0
 22 21  1  0  0  0  0
 23  7  1  6  0  0  0
 23 22  1  0  0  0  0
 23 21  1  0  0  0  0
 24 22  1  0  0  0  0
 24 25  1  0  0  0  0
 25 26  1  0  0  0  0
 26 35  1  0  0  0  0
 27 33  1  0  0  0  0
 28 31  1  0  0  0  0
 29 31  1  0  0  0  0
 29 27  2  0  0  0  0
 31 34  2  0  0  0  0
 32 29  1  0  0  0  0
 33 30  2  0  0  0  0
 34 30  1  0  0  0  0
 35 32  2  0  0  0  0
 35 28  1  0  0  0  0
M  END
>  <MODEL>
9

>  <REMARK>
 VINA RESULT:      -7.2      4.737      8.044
  Name = 
  6 active torsions:
  status: ('A' for Active; 'I' for Inactive)
    1  A    between atoms: O_4  and  C_25
    2  A    between atoms: O_4  and  C_34
    3  A    between atoms: N_9  and  C_12
    4  A    between atoms: C_12  and  C_25
    5  A    between atoms: C_22  and  C_35
    6  A    between atoms: C_29  and  C_33
                            x       y       z     vdW  Elec       q    Type
                         _______ _______ _______ _____ _____    ______ ____

>  <TORSDO>
F 6

$$$$
