=
 OpenBabel11032421173D

 52 57  0  0  1  0  0  0  0  0999 V2000
  189.5040  177.4520  141.5900 C   0  0  2  0  0  3  0  0  0  0  0  0
  187.5710  176.8790  144.1780 C   0  0  0  0  0  2  0  0  0  0  0  0
  186.1640  177.4770  144.1210 C   0  0  0  0  0  2  0  0  0  0  0  0
  188.0380  177.1360  141.9150 C   0  0  1  0  0  3  0  0  0  0  0  0
  187.8770  176.2040  142.9790 O   0  0  0  0  0  0  0  0  0  0  0  0
  185.8750  178.0900  142.7450 C   0  0  2  0  0  3  0  0  0  0  0  0
  187.1590  178.3990  141.9820 C   0  0  0  0  0  2  0  0  0  0  0  0
  184.9620  179.3160  142.8270 C   0  0  2  0  0  3  0  0  0  0  0  0
  184.5840  179.6530  144.2670 C   0  0  0  0  0  1  0  0  0  0  0  0
  182.4410  178.8690  142.4520 C   0  0  0  0  0  0  0  0  0  0  0  0
  180.5930  178.2540  138.6530 C   0  0  1  0  0  3  0  0  0  0  0  0
  181.6690  178.4770  141.2940 C   0  0  0  0  0  0  0  0  0  0  0  0
  179.4330  177.9900  142.1410 N   0  0  0  0  0  0  0  0  0  0  0  0
  179.6100  178.1920  143.5550 C   0  0  0  0  0  3  0  0  0  0  0  0
  180.2630  178.1090  141.1490 C   0  0  0  0  0  0  0  0  0  0  0  0
  183.7790  178.8480  140.6570 O   0  0  0  0  0  0  0  0  0  0  0  0
  179.8020  177.8470  139.8180 N   0  0  0  0  0  2  0  0  0  0  0  0
  183.7690  179.1320  142.0010 N   0  0  0  0  0  0  0  0  0  0  0  0
  182.4990  178.4750  140.2610 C   0  0  0  0  0  0  0  0  0  0  0  0
  182.0470  178.9080  143.7180 C   0  0  0  0  0  3  0  0  0  0  0  0
  180.7050  178.5800  144.2170 C   0  0  0  0  0  3  0  0  0  0  0  0
  182.0990  178.0340  138.8800 C   0  0  0  0  0  2  0  0  0  0  0  0
  180.1370  177.4890  137.4300 C   0  0  0  0  0  1  0  0  0  0  0  0
  189.7930  177.4160  140.0800 C   0  0  1  0  0  3  0  0  0  0  0  0
  187.8930  177.5490  138.4430 N   0  0  0  0  0  0  0  0  0  0  0  0
  188.9940  178.3390  137.8430 C   0  0  0  0  0  0  0  0  0  0  0  0
  188.8200  178.3330  139.2990 C   0  0  2  0  0  3  0  0  0  0  0  0
  189.9740  177.5380  137.2520 O   0  0  0  0  0  1  0  0  0  0  0  0
  188.6020  179.4860  137.1440 O   0  0  0  0  0  1  0  0  0  0  0  0
  186.6340  178.2820  138.4380 C   0  0  0  0  0  2  0  0  0  0  0  0
  184.9630  177.1560  136.6880 C   0  0  0  0  0  3  0  0  0  0  0  0
  185.7110  177.6710  137.4830 C   0  0  0  0  0  0  0  0  0  0  0  0
  191.1410  177.7050  139.8180 O   0  0  0  0  0  0  0  0  0  0  0  0
  191.6950  176.4930  139.4020 C   0  0  0  0  0  2  0  0  0  0  0  0
  193.0790  176.7330  138.8400 C   0  0  0  0  0  2  0  0  0  0  0  0
  193.1050  176.2940  137.3910 C   0  0  0  0  0  2  0  0  0  0  0  0
  194.4600  175.9520  137.0090 N   0  0  0  0  0  2  0  0  0  0  0  0
  194.4010  174.6320  136.4110 C   0  0  0  0  0  2  0  0  0  0  0  0
  195.7380  173.9350  136.5560 C   0  0  0  0  0  2  0  0  0  0  0  0
  196.2630  174.1670  137.8890 N   0  0  0  0  0  2  0  0  0  0  0  0
  199.0030  173.4210  137.4610 C   0  0  0  0  0  1  0  0  0  0  0  0
  197.8770  174.7720  137.7270 S   0  0  0  0  0  0  0  0  0  0  0  0
  197.9350  175.6970  136.5470 O   0  0  0  0  0  0  0  0  0  0  0  0
  198.2750  175.5240  138.9660 O   0  0  0  0  0  0  0  0  0  0  0  0
  190.5010  176.6570  142.4440 C   0  0  0  0  0  2  0  0  0  0  0  0
  191.3980  177.5430  143.2990 C   0  0  0  0  0  2  0  0  0  0  0  0
  189.7800  177.8130  146.7160 C   0  0  0  0  0  3  0  0  0  0  0  0
  191.1000  177.3280  144.7400 C   0  0  0  0  0  0  0  0  0  0  0  0
  191.5390  176.1510  146.8140 C   0  0  0  0  0  3  0  0  0  0  0  0
  190.0730  178.0430  145.3670 C   0  0  0  0  0  3  0  0  0  0  0  0
  191.8300  176.3790  145.4650 C   0  0  0  0  0  3  0  0  0  0  0  0
  190.5140  176.8680  147.4390 C   0  0  0  0  0  3  0  0  0  0  0  0
  1 45  1  1  0  0  0
  3  2  1  0  0  0  0
  4  1  1  1  0  0  0
  4  7  1  0  0  0  0
  4  5  1  0  0  0  0
  5  2  1  0  0  0  0
  6  8  1  1  0  0  0
  6  3  1  0  0  0  0
  7  6  1  0  0  0  0
  8  9  1  1  0  0  0
 10 20  2  0  0  0  0
 11 23  1  6  0  0  0
 11 22  1  0  0  0  0
 11 17  1  0  0  0  0
 12 10  1  0  0  0  0
 13 14  1  0  0  0  0
 14 21  2  0  0  0  0
 15 12  1  0  0  0  0
 15 13  2  0  0  0  0
 16 18  1  0  0  0  0
 17 15  1  0  0  0  0
 18 10  1  0  0  0  0
 18  8  1  0  0  0  0
 19 16  1  0  0  0  0
 19 12  2  0  0  0  0
 20 21  1  0  0  0  0
 22 19  1  0  0  0  0
 24 33  1  1  0  0  0
 24  1  1  0  0  0  0
 25 27  1  0  0  0  0
 26 25  1  0  0  0  0
 26 27  1  0  0  0  0
 27 24  1  1  0  0  0
 28 26  1  0  0  0  0
 29 26  1  0  0  0  0
 30 25  1  0  0  0  0
 31 32  3  0  0  0  0
 32 30  1  0  0  0  0
 34 33  1  0  0  0  0
 35 34  1  0  0  0  0
 36 35  1  0  0  0  0
 37 36  1  0  0  0  0
 38 39  1  0  0  0  0
 38 37  1  0  0  0  0
 39 40  1  0  0  0  0
 41 42  1  0  0  0  0
 42 40  1  0  0  0  0
 42 44  2  0  0  0  0
 43 42  2  0  0  0  0
 45 46  1  0  0  0  0
 46 48  1  0  0  0  0
 47 52  1  0  0  0  0
 48 50  1  0  0  0  0
 48 51  2  0  0  0  0
 49 52  2  0  0  0  0
 50 47  2  0  0  0  0
 51 49  1  0  0  0  0
M  END
>  <MODEL>
1

>  <REMARK>
 VINA RESULT:      -8.5      0.000      0.000
  Name = 
  19 active torsions:
  status: ('A' for Active; 'I' for Inactive)
    1  A    between atoms: C_2  and  N_14
    2  A    between atoms: C_2  and  C_25
    3  A    between atoms: C_3  and  C_15
    4  A    between atoms: C_3  and  C_35
    5  A    between atoms: C_5  and  N_23
    6  A    between atoms: C_5  and  C_32
    7  A    between atoms: C_15  and  C_28
    8  A    between atoms: C_15  and  C_30
    9  A    between atoms: S_16  and  N_49
   10  A    between atoms: N_20  and  C_24
   11  A    between atoms: N_20  and  C_48
   12  A    between atoms: C_21  and  C_33
   13  A    between atoms: C_21  and  O_42
   14  A    between atoms: C_22  and  C_30
   15  A    between atoms: C_24  and  C_41
   16  A    between atoms: C_26  and  C_35
   17  A    between atoms: C_30  and  O_42
   18  A    between atoms: C_33  and  C_48
   19  A    between atoms: C_41  and  N_49
                            x       y       z     vdW  Elec       q    Type
                         _______ _______ _______ _____ _____    ______ ____

>  <TORSDO>
F 19

$$$$
=
 OpenBabel11032421173D

 52 57  0  0  1  0  0  0  0  0999 V2000
  187.9950  178.3850  141.6500 C   0  0  2  0  0  3  0  0  0  0  0  0
  185.8160  178.5830  144.0930 C   0  0  0  0  0  2  0  0  0  0  0  0
  184.3400  178.5220  143.6950 C   0  0  0  0  0  2  0  0  0  0  0  0
  186.6480  177.7860  142.0750 C   0  0  1  0  0  3  0  0  0  0  0  0
  186.5450  177.5480  143.4740 O   0  0  0  0  0  0  0  0  0  0  0  0
  184.1790  178.1900  142.2060 C   0  0  2  0  0  3  0  0  0  0  0  0
  185.4490  178.4950  141.4180 C   0  0  0  0  0  2  0  0  0  0  0  0
  182.9550  178.8670  141.5820 C   0  0  2  0  0  3  0  0  0  0  0  0
  181.7750  178.9190  142.5480 C   0  0  0  0  0  1  0  0  0  0  0  0
  182.0600  178.8280  139.1540 C   0  0  0  0  0  0  0  0  0  0  0  0
  181.2370  175.3000  136.8950 C   0  0  1  0  0  3  0  0  0  0  0  0
  181.5700  177.7700  138.2990 C   0  0  0  0  0  0  0  0  0  0  0  0
  180.6470  178.8960  136.3400 N   0  0  0  0  0  0  0  0  0  0  0  0
  180.8330  180.2800  136.6900 C   0  0  0  0  0  3  0  0  0  0  0  0
  180.9510  177.8050  136.9770 C   0  0  0  0  0  0  0  0  0  0  0  0
  182.3460  176.8620  140.1880 O   0  0  0  0  0  0  0  0  0  0  0  0
  180.6520  176.5390  136.3740 N   0  0  0  0  0  2  0  0  0  0  0  0
  182.5800  178.2100  140.3300 N   0  0  0  0  0  0  0  0  0  0  0  0
  181.7550  176.6310  138.9510 C   0  0  0  0  0  0  0  0  0  0  0  0
  181.9830  180.1370  138.9560 C   0  0  0  0  0  3  0  0  0  0  0  0
  181.3950  180.8010  137.7850 C   0  0  0  0  0  3  0  0  0  0  0  0
  181.2940  175.2970  138.4330 C   0  0  0  0  0  2  0  0  0  0  0  0
  180.4420  174.1110  136.4050 C   0  0  0  0  0  1  0  0  0  0  0  0
  188.4340  177.9150  140.2530 C   0  0  1  0  0  3  0  0  0  0  0  0
  186.8790  177.5120  138.3230 N   0  0  0  0  0  0  0  0  0  0  0  0
  188.0030  178.3040  137.7710 C   0  0  0  0  0  0  0  0  0  0  0  0
  187.5550  178.5470  139.1450 C   0  0  2  0  0  3  0  0  0  0  0  0
  189.1440  177.5320  137.5340 O   0  0  0  0  0  1  0  0  0  0  0  0
  187.6570  179.2450  136.7950 O   0  0  0  0  0  1  0  0  0  0  0  0
  185.5870  178.0730  137.9520 C   0  0  0  0  0  2  0  0  0  0  0  0
  184.4430  176.5240  136.1040 C   0  0  0  0  0  3  0  0  0  0  0  0
  184.9580  177.2330  136.9340 C   0  0  0  0  0  0  0  0  0  0  0  0
  189.8040  178.1410  140.0530 O   0  0  0  0  0  0  0  0  0  0  0  0
  190.3830  176.8700  140.0570 C   0  0  0  0  0  2  0  0  0  0  0  0
  191.8660  176.9860  139.7810 C   0  0  0  0  0  2  0  0  0  0  0  0
  192.1530  176.4490  138.3950 C   0  0  0  0  0  2  0  0  0  0  0  0
  193.5350  176.7060  138.0490 N   0  0  0  0  0  2  0  0  0  0  0  0
  193.7380  176.1560  136.7220 C   0  0  0  0  0  2  0  0  0  0  0  0
  194.5990  174.9110  136.8000 C   0  0  0  0  0  2  0  0  0  0  0  0
  195.9860  175.2660  136.5530 N   0  0  0  0  0  2  0  0  0  0  0  0
  195.9770  174.2520  139.2400 C   0  0  0  0  0  1  0  0  0  0  0  0
  196.9520  174.5110  137.7750 S   0  0  0  0  0  0  0  0  0  0  0  0
  197.4340  173.1850  137.2660 O   0  0  0  0  0  0  0  0  0  0  0  0
  198.1380  175.3760  138.1040 O   0  0  0  0  0  0  0  0  0  0  0  0
  189.0810  178.2640  142.7270 C   0  0  0  0  0  2  0  0  0  0  0  0
  189.2940  176.8340  143.2070 C   0  0  0  0  0  2  0  0  0  0  0  0
  189.6260  177.1230  146.9720 C   0  0  0  0  0  3  0  0  0  0  0  0
  189.8750  176.8380  144.5770 C   0  0  0  0  0  0  0  0  0  0  0  0
  191.7660  176.4650  146.0470 C   0  0  0  0  0  3  0  0  0  0  0  0
  189.0790  177.1510  145.6850 C   0  0  0  0  0  3  0  0  0  0  0  0
  191.2180  176.4900  144.7610 C   0  0  0  0  0  3  0  0  0  0  0  0
  190.9700  176.7820  147.1530 C   0  0  0  0  0  3  0  0  0  0  0  0
  1 45  1  1  0  0  0
  3  2  1  0  0  0  0
  4  1  1  1  0  0  0
  4  5  1  0  0  0  0
  5  2  1  0  0  0  0
  6  8  1  6  0  0  0
  6  3  1  0  0  0  0
  7  4  1  0  0  0  0
  7  6  1  0  0  0  0
  8  9  1  1  0  0  0
 10 18  1  0  0  0  0
 11 23  1  1  0  0  0
 11 22  1  0  0  0  0
 12 19  2  0  0  0  0
 12 10  1  0  0  0  0
 13 14  1  0  0  0  0
 13 15  2  0  0  0  0
 14 21  2  0  0  0  0
 15 12  1  0  0  0  0
 16 18  1  0  0  0  0
 17 11  1  0  0  0  0
 17 15  1  0  0  0  0
 18  8  1  0  0  0  0
 19 16  1  0  0  0  0
 20 10  2  0  0  0  0
 21 20  1  0  0  0  0
 22 19  1  0  0  0  0
 24 33  1  6  0  0  0
 24  1  1  0  0  0  0
 25 27  1  0  0  0  0
 26 25  1  0  0  0  0
 26 27  1  0  0  0  0
 27 24  1  1  0  0  0
 28 26  1  0  0  0  0
 29 26  1  0  0  0  0
 30 25  1  0  0  0  0
 31 32  3  0  0  0  0
 32 30  1  0  0  0  0
 33 34  1  0  0  0  0
 35 34  1  0  0  0  0
 36 35  1  0  0  0  0
 37 36  1  0  0  0  0
 38 39  1  0  0  0  0
 38 37  1  0  0  0  0
 40 39  1  0  0  0  0
 40 42  1  0  0  0  0
 42 44  2  0  0  0  0
 42 41  1  0  0  0  0
 43 42  2  0  0  0  0
 45 46  1  0  0  0  0
 46 48  1  0  0  0  0
 47 52  1  0  0  0  0
 48 51  2  0  0  0  0
 48 50  1  0  0  0  0
 49 52  2  0  0  0  0
 50 47  2  0  0  0  0
 51 49  1  0  0  0  0
M  END
>  <MODEL>
2

>  <REMARK>
 VINA RESULT:      -8.0      1.694      2.683
  Name = 
  19 active torsions:
  status: ('A' for Active; 'I' for Inactive)
    1  A    between atoms: C_2  and  N_14
    2  A    between atoms: C_2  and  C_25
    3  A    between atoms: C_3  and  C_15
    4  A    between atoms: C_3  and  C_35
    5  A    between atoms: C_5  and  N_23
    6  A    between atoms: C_5  and  C_32
    7  A    between atoms: C_15  and  C_28
    8  A    between atoms: C_15  and  C_30
    9  A    between atoms: S_16  and  N_49
   10  A    between atoms: N_20  and  C_24
   11  A    between atoms: N_20  and  C_48
   12  A    between atoms: C_21  and  C_33
   13  A    between atoms: C_21  and  O_42
   14  A    between atoms: C_22  and  C_30
   15  A    between atoms: C_24  and  C_41
   16  A    between atoms: C_26  and  C_35
   17  A    between atoms: C_30  and  O_42
   18  A    between atoms: C_33  and  C_48
   19  A    between atoms: C_41  and  N_49
                            x       y       z     vdW  Elec       q    Type
                         _______ _______ _______ _____ _____    ______ ____

>  <TORSDO>
F 19

$$$$
=
 OpenBabel11032421173D

 52 57  0  0  1  0  0  0  0  0999 V2000
  183.4160  178.2120  138.5040 C   0  0  2  0  0  3  0  0  0  0  0  0
  181.4580  178.9630  141.0260 C   0  0  0  0  0  2  0  0  0  0  0  0
  182.1280  179.0790  142.3960 C   0  0  0  0  0  2  0  0  0  0  0  0
  183.4200  179.0580  139.7840 C   0  0  1  0  0  3  0  0  0  0  0  0
  182.1750  179.6900  140.0550 O   0  0  0  0  0  0  0  0  0  0  0  0
  183.6550  178.9950  142.2780 C   0  0  2  0  0  3  0  0  0  0  0  0
  184.0860  178.3360  140.9710 C   0  0  0  0  0  2  0  0  0  0  0  0
  184.3030  178.3150  143.4880 C   0  0  2  0  0  3  0  0  0  0  0  0
  184.2360  179.1890  144.7380 C   0  0  0  0  0  1  0  0  0  0  0  0
  186.7190  177.6470  144.1300 C   0  0  0  0  0  0  0  0  0  0  0  0
  189.9490  177.1730  141.3790 C   0  0  1  0  0  3  0  0  0  0  0  0
  187.9600  177.6010  143.3900 C   0  0  0  0  0  0  0  0  0  0  0  0
  189.6910  177.1720  145.0560 N   0  0  0  0  0  0  0  0  0  0  0  0
  188.9220  177.1600  146.2730 C   0  0  0  0  0  3  0  0  0  0  0  0
  189.3320  177.3410  143.8190 C   0  0  0  0  0  0  0  0  0  0  0  0
  186.3020  178.0980  141.9760 O   0  0  0  0  0  0  0  0  0  0  0  0
  190.3280  177.2940  142.7900 N   0  0  0  0  0  2  0  0  0  0  0  0
  185.6810  177.9290  143.1910 N   0  0  0  0  0  0  0  0  0  0  0  0
  187.6660  177.8770  142.1270 C   0  0  0  0  0  0  0  0  0  0  0  0
  186.5470  177.5360  145.4400 C   0  0  0  0  0  3  0  0  0  0  0  0
  187.6040  177.3100  146.4350 C   0  0  0  0  0  3  0  0  0  0  0  0
  188.7040  178.0140  141.0480 C   0  0  0  0  0  2  0  0  0  0  0  0
  191.1060  177.5930  140.5000 C   0  0  0  0  0  1  0  0  0  0  0  0
  182.1200  177.4030  138.3360 C   0  0  1  0  0  3  0  0  0  0  0  0
  180.9450  179.1980  137.0300 N   0  0  0  0  0  0  0  0  0  0  0  0
  179.9630  178.0970  137.1690 C   0  0  0  0  0  0  0  0  0  0  0  0
  181.3870  177.7800  137.0250 C   0  0  2  0  0  3  0  0  0  0  0  0
  179.3630  178.0640  138.4300 O   0  0  0  0  0  1  0  0  0  0  0  0
  179.1320  177.8870  136.0630 O   0  0  0  0  0  1  0  0  0  0  0  0
  181.0530  179.6580  135.6530 C   0  0  0  0  0  2  0  0  0  0  0  0
  180.3450  182.2270  135.5120 C   0  0  0  0  0  3  0  0  0  0  0  0
  180.6740  181.0680  135.5720 C   0  0  0  0  0  0  0  0  0  0  0  0
  182.3670  176.0260  138.4430 O   0  0  0  0  0  0  0  0  0  0  0  0
  181.6330  175.6130  139.5570 C   0  0  0  0  0  2  0  0  0  0  0  0
  180.3870  174.8840  139.1020 C   0  0  0  0  0  2  0  0  0  0  0  0
  180.7360  174.0050  137.9190 C   0  0  0  0  0  2  0  0  0  0  0  0
  180.1490  172.6930  138.0970 N   0  0  0  0  0  2  0  0  0  0  0  0
  180.9190  171.7810  137.2720 C   0  0  0  0  0  2  0  0  0  0  0  0
  182.1840  172.4590  136.7880 C   0  0  0  0  0  2  0  0  0  0  0  0
  183.3360  171.6590  137.1610 N   0  0  0  0  0  2  0  0  0  0  0  0
  184.3070  174.1560  136.1270 C   0  0  0  0  0  1  0  0  0  0  0  0
  184.7560  172.6080  136.8790 S   0  0  0  0  0  0  0  0  0  0  0  0
  185.4310  172.8780  138.1910 O   0  0  0  0  0  0  0  0  0  0  0  0
  185.7040  171.8660  135.9780 O   0  0  0  0  0  0  0  0  0  0  0  0
  184.7010  177.3950  138.3120 C   0  0  0  0  0  2  0  0  0  0  0  0
  185.3430  177.5980  136.9450 C   0  0  0  0  0  2  0  0  0  0  0  0
  188.9830  178.6540  136.9390 C   0  0  0  0  0  3  0  0  0  0  0  0
  186.8240  177.5560  137.0670 C   0  0  0  0  0  0  0  0  0  0  0  0
  188.8420  176.3390  137.6360 C   0  0  0  0  0  3  0  0  0  0  0  0
  187.5920  178.6940  136.7930 C   0  0  0  0  0  3  0  0  0  0  0  0
  187.4510  176.3800  137.4930 C   0  0  0  0  0  3  0  0  0  0  0  0
  189.6080  177.4760  137.3590 C   0  0  0  0  0  3  0  0  0  0  0  0
  1 45  1  1  0  0  0
  2  3  1  0  0  0  0
  4  1  1  6  0  0  0
  4  5  1  0  0  0  0
  4  7  1  0  0  0  0
  5  2  1  0  0  0  0
  6  3  1  0  0  0  0
  6  8  1  1  0  0  0
  7  6  1  0  0  0  0
  8  9  1  1  0  0  0
 10 20  2  0  0  0  0
 11 23  1  6  0  0  0
 11 17  1  0  0  0  0
 12 15  1  0  0  0  0
 12 10  1  0  0  0  0
 13 14  1  0  0  0  0
 14 21  2  0  0  0  0
 15 13  2  0  0  0  0
 16 19  1  0  0  0  0
 16 18  1  0  0  0  0
 17 15  1  0  0  0  0
 18  8  1  0  0  0  0
 18 10  1  0  0  0  0
 19 12  2  0  0  0  0
 20 21  1  0  0  0  0
 22 11  1  0  0  0  0
 22 19  1  0  0  0  0
 24 33  1  6  0  0  0
 24  1  1  0  0  0  0
 25 26  1  0  0  0  0
 26 28  1  0  0  0  0
 27 25  1  0  0  0  0
 27 26  1  0  0  0  0
 27 24  1  1  0  0  0
 29 26  1  0  0  0  0
 30 25  1  0  0  0  0
 31 32  3  0  0  0  0
 32 30  1  0  0  0  0
 33 34  1  0  0  0  0
 35 34  1  0  0  0  0
 36 37  1  0  0  0  0
 36 35  1  0  0  0  0
 38 37  1  0  0  0  0
 39 40  1  0  0  0  0
 39 38  1  0  0  0  0
 41 42  1  0  0  0  0
 42 40  1  0  0  0  0
 42 43  2  0  0  0  0
 44 42  2  0  0  0  0
 46 48  1  0  0  0  0
 46 45  1  0  0  0  0
 47 52  1  0  0  0  0
 48 51  2  0  0  0  0
 50 47  2  0  0  0  0
 50 48  1  0  0  0  0
 51 49  1  0  0  0  0
 52 49  2  0  0  0  0
M  END
>  <MODEL>
3

>  <REMARK>
 VINA RESULT:      -7.8      4.543      9.178
  Name = 
  19 active torsions:
  status: ('A' for Active; 'I' for Inactive)
    1  A    between atoms: C_2  and  N_14
    2  A    between atoms: C_2  and  C_25
    3  A    between atoms: C_3  and  C_15
    4  A    between atoms: C_3  and  C_35
    5  A    between atoms: C_5  and  N_23
    6  A    between atoms: C_5  and  C_32
    7  A    between atoms: C_15  and  C_28
    8  A    between atoms: C_15  and  C_30
    9  A    between atoms: S_16  and  N_49
   10  A    between atoms: N_20  and  C_24
   11  A    between atoms: N_20  and  C_48
   12  A    between atoms: C_21  and  C_33
   13  A    between atoms: C_21  and  O_42
   14  A    between atoms: C_22  and  C_30
   15  A    between atoms: C_24  and  C_41
   16  A    between atoms: C_26  and  C_35
   17  A    between atoms: C_30  and  O_42
   18  A    between atoms: C_33  and  C_48
   19  A    between atoms: C_41  and  N_49
                            x       y       z     vdW  Elec       q    Type
                         _______ _______ _______ _____ _____    ______ ____

>  <TORSDO>
F 19

$$$$
=
 OpenBabel11032421173D

 52 57  0  0  1  0  0  0  0  0999 V2000
  183.4430  177.8140  140.2330 C   0  0  2  0  0  3  0  0  0  0  0  0
  182.3620  179.2140  142.9960 C   0  0  0  0  0  2  0  0  0  0  0  0
  183.3440  179.2520  144.1680 C   0  0  0  0  0  2  0  0  0  0  0  0
  183.9440  178.7180  141.3670 C   0  0  1  0  0  3  0  0  0  0  0  0
  182.9790  179.6650  141.8110 O   0  0  0  0  0  0  0  0  0  0  0  0
  184.7370  178.7720  143.7430 C   0  0  2  0  0  3  0  0  0  0  0  0
  184.6830  177.9360  142.4690 C   0  0  0  0  0  2  0  0  0  0  0  0
  185.4750  178.0370  144.8660 C   0  0  2  0  0  3  0  0  0  0  0  0
  185.4820  178.8370  146.1650 C   0  0  0  0  0  1  0  0  0  0  0  0
  187.9470  177.4130  145.3050 C   0  0  0  0  0  0  0  0  0  0  0  0
  190.9670  177.0850  142.3050 C   0  0  1  0  0  3  0  0  0  0  0  0
  189.1290  177.4150  144.4710 C   0  0  0  0  0  0  0  0  0  0  0  0
  190.9920  176.9900  145.9890 N   0  0  0  0  0  0  0  0  0  0  0  0
  190.3190  176.9300  147.2610 C   0  0  0  0  0  3  0  0  0  0  0  0
  190.5350  177.1790  144.7880 C   0  0  0  0  0  0  0  0  0  0  0  0
  187.3560  177.9050  143.2010 O   0  0  0  0  0  0  0  0  0  0  0  0
  191.4510  177.1810  143.6850 N   0  0  0  0  0  2  0  0  0  0  0  0
  186.8350  177.6920  144.4550 N   0  0  0  0  0  0  0  0  0  0  0  0
  188.7330  177.7140  143.2420 C   0  0  0  0  0  0  0  0  0  0  0  0
  187.8790  177.2670  146.6210 C   0  0  0  0  0  3  0  0  0  0  0  0
  189.0140  177.0430  147.5260 C   0  0  0  0  0  3  0  0  0  0  0  0
  189.6820  177.9020  142.0910 C   0  0  0  0  0  2  0  0  0  0  0  0
  192.0430  177.5530  141.3510 C   0  0  0  0  0  1  0  0  0  0  0  0
  183.3310  178.5580  138.8920 C   0  0  1  0  0  3  0  0  0  0  0  0
  180.9570  179.3700  139.0080 N   0  0  0  0  0  0  0  0  0  0  0  0
  181.5510  180.0380  137.8260 C   0  0  0  0  0  0  0  0  0  0  0  0
  182.3850  179.7790  139.0040 C   0  0  2  0  0  3  0  0  0  0  0  0
  181.6320  179.1980  136.7130 O   0  0  0  0  0  1  0  0  0  0  0  0
  181.1300  181.3540  137.6020 O   0  0  0  0  0  1  0  0  0  0  0  0
  180.2700  180.3150  139.8770 C   0  0  0  0  0  2  0  0  0  0  0  0
  178.9310  178.9800  141.7600 C   0  0  0  0  0  3  0  0  0  0  0  0
  179.5280  179.5890  140.9070 C   0  0  0  0  0  0  0  0  0  0  0  0
  184.5990  178.8960  138.3970 O   0  0  0  0  0  0  0  0  0  0  0  0
  184.9410  177.8510  137.5370 C   0  0  0  0  0  2  0  0  0  0  0  0
  186.3960  177.4860  137.7330 C   0  0  0  0  0  2  0  0  0  0  0  0
  187.2580  178.4920  137.0000 C   0  0  0  0  0  2  0  0  0  0  0  0
  188.5070  178.6730  137.7110 N   0  0  0  0  0  2  0  0  0  0  0  0
  188.5290  177.6800  138.7680 C   0  0  0  0  0  2  0  0  0  0  0  0
  189.7500  176.7940  138.6240 C   0  0  0  0  0  2  0  0  0  0  0  0
  190.0060  176.5480  137.2160 N   0  0  0  0  0  2  0  0  0  0  0  0
  191.8680  175.3560  135.3830 C   0  0  0  0  0  1  0  0  0  0  0  0
  191.5410  175.7600  137.0850 S   0  0  0  0  0  0  0  0  0  0  0  0
  192.6100  176.6870  137.5810 O   0  0  0  0  0  0  0  0  0  0  0  0
  191.5510  174.5040  137.9120 O   0  0  0  0  0  0  0  0  0  0  0  0
  182.1980  176.9990  140.6110 C   0  0  0  0  0  2  0  0  0  0  0  0
  182.0800  175.6910  139.8400 C   0  0  0  0  0  2  0  0  0  0  0  0
  178.9370  176.4560  137.8650 C   0  0  0  0  0  3  0  0  0  0  0  0
  181.1290  175.8500  138.7080 C   0  0  0  0  0  0  0  0  0  0  0  0
  180.6800  175.7760  136.3270 C   0  0  0  0  0  3  0  0  0  0  0  0
  179.8160  176.2800  138.9390 C   0  0  0  0  0  3  0  0  0  0  0  0
  181.5600  175.6030  137.4000 C   0  0  0  0  0  3  0  0  0  0  0  0
  179.3680  176.2030  136.5600 C   0  0  0  0  0  3  0  0  0  0  0  0
  1 45  1  1  0  0  0
  2  3  1  0  0  0  0
  4  1  1  6  0  0  0
  4  5  1  0  0  0  0
  4  7  1  0  0  0  0
  5  2  1  0  0  0  0
  6  3  1  0  0  0  0
  6  8  1  1  0  0  0
  7  6  1  0  0  0  0
  8  9  1  1  0  0  0
 10 20  2  0  0  0  0
 11 23  1  6  0  0  0
 11 17  1  0  0  0  0
 12 15  1  0  0  0  0
 12 10  1  0  0  0  0
 13 14  1  0  0  0  0
 14 21  2  0  0  0  0
 15 13  2  0  0  0  0
 16 19  1  0  0  0  0
 16 18  1  0  0  0  0
 17 15  1  0  0  0  0
 18  8  1  0  0  0  0
 18 10  1  0  0  0  0
 19 12  2  0  0  0  0
 20 21  1  0  0  0  0
 22 11  1  0  0  0  0
 22 19  1  0  0  0  0
 24 33  1  1  0  0  0
 24  1  1  0  0  0  0
 25 30  1  0  0  0  0
 26 27  1  0  0  0  0
 26 25  1  0  0  0  0
 27 24  1  6  0  0  0
 27 25  1  0  0  0  0
 28 26  1  0  0  0  0
 29 26  1  0  0  0  0
 30 32  1  0  0  0  0
 32 31  3  0  0  0  0
 34 35  1  0  0  0  0
 34 33  1  0  0  0  0
 36 37  1  0  0  0  0
 36 35  1  0  0  0  0
 37 38  1  0  0  0  0
 39 38  1  0  0  0  0
 40 39  1  0  0  0  0
 41 42  1  0  0  0  0
 42 40  1  0  0  0  0
 42 43  2  0  0  0  0
 42 44  2  0  0  0  0
 46 45  1  0  0  0  0
 47 50  1  0  0  0  0
 48 50  2  0  0  0  0
 48 46  1  0  0  0  0
 49 52  1  0  0  0  0
 49 51  2  0  0  0  0
 51 48  1  0  0  0  0
 52 47  2  0  0  0  0
M  END
>  <MODEL>
4

>  <REMARK>
 VINA RESULT:      -7.7      2.817      8.464
  Name = 
  19 active torsions:
  status: ('A' for Active; 'I' for Inactive)
    1  A    between atoms: C_2  and  N_14
    2  A    between atoms: C_2  and  C_25
    3  A    between atoms: C_3  and  C_15
    4  A    between atoms: C_3  and  C_35
    5  A    between atoms: C_5  and  N_23
    6  A    between atoms: C_5  and  C_32
    7  A    between atoms: C_15  and  C_28
    8  A    between atoms: C_15  and  C_30
    9  A    between atoms: S_16  and  N_49
   10  A    between atoms: N_20  and  C_24
   11  A    between atoms: N_20  and  C_48
   12  A    between atoms: C_21  and  C_33
   13  A    between atoms: C_21  and  O_42
   14  A    between atoms: C_22  and  C_30
   15  A    between atoms: C_24  and  C_41
   16  A    between atoms: C_26  and  C_35
   17  A    between atoms: C_30  and  O_42
   18  A    between atoms: C_33  and  C_48
   19  A    between atoms: C_41  and  N_49
                            x       y       z     vdW  Elec       q    Type
                         _______ _______ _______ _____ _____    ______ ____

>  <TORSDO>
F 19

$$$$
=
 OpenBabel11032421173D

 52 57  0  0  1  0  0  0  0  0999 V2000
  188.4350  178.2500  140.4420 C   0  0  2  0  0  3  0  0  0  0  0  0
  189.1520  178.7550  137.2810 C   0  0  0  0  0  2  0  0  0  0  0  0
  188.8110  177.6180  136.3170 C   0  0  0  0  0  2  0  0  0  0  0  0
  187.8580  177.9750  139.0470 C   0  0  1  0  0  3  0  0  0  0  0  0
  188.0600  179.0400  138.1250 O   0  0  0  0  0  0  0  0  0  0  0  0
  188.0150  176.5120  137.0190 C   0  0  2  0  0  3  0  0  0  0  0  0
  188.1920  176.5620  138.5340 C   0  0  0  0  0  2  0  0  0  0  0  0
  188.3260  175.1190  136.4640 C   0  0  2  0  0  3  0  0  0  0  0  0
  188.8900  175.1810  135.0480 C   0  0  0  0  0  1  0  0  0  0  0  0
  187.0420  172.9030  136.0910 C   0  0  0  0  0  0  0  0  0  0  0  0
  182.8460  172.3690  136.6690 C   0  0  1  0  0  3  0  0  0  0  0  0
  185.6350  172.5700  136.0680 C   0  0  0  0  0  0  0  0  0  0  0  0
  185.5310  170.2640  135.2740 N   0  0  0  0  0  0  0  0  0  0  0  0
  186.9200  169.9840  135.0200 C   0  0  0  0  0  3  0  0  0  0  0  0
  184.9420  171.3300  135.7260 C   0  0  0  0  0  0  0  0  0  0  0  0
  185.8530  174.7080  136.6800 O   0  0  0  0  0  0  0  0  0  0  0  0
  183.5180  171.3250  135.8900 N   0  0  0  0  0  2  0  0  0  0  0  0
  187.1430  174.2610  136.5200 N   0  0  0  0  0  0  0  0  0  0  0  0
  184.9740  173.6630  136.4170 C   0  0  0  0  0  0  0  0  0  0  0  0
  188.0650  172.1490  135.7130 C   0  0  0  0  0  3  0  0  0  0  0  0
  187.9830  170.7730  135.2070 C   0  0  0  0  0  3  0  0  0  0  0  0
  183.4730  173.7530  136.4290 C   0  0  0  0  0  2  0  0  0  0  0  0
  181.3740  172.4010  136.3210 C   0  0  0  0  0  1  0  0  0  0  0  0
  189.7440  177.4850  140.6990 C   0  0  1  0  0  3  0  0  0  0  0  0
  189.6840  177.3170  143.2040 N   0  0  0  0  0  0  0  0  0  0  0  0
  190.8150  176.4620  142.7730 C   0  0  0  0  0  0  0  0  0  0  0  0
  189.6190  176.5550  141.9310 C   0  0  2  0  0  3  0  0  0  0  0  0
  191.9570  177.1990  142.4490 O   0  0  0  0  0  1  0  0  0  0  0  0
  191.0020  175.2910  143.5140 O   0  0  0  0  0  1  0  0  0  0  0  0
  188.8030  176.6240  144.1340 C   0  0  0  0  0  2  0  0  0  0  0  0
  188.8060  177.8780  146.4900 C   0  0  0  0  0  3  0  0  0  0  0  0
  188.8140  177.3070  145.4270 C   0  0  0  0  0  0  0  0  0  0  0  0
  190.1650  176.8050  139.5460 O   0  0  0  0  0  0  0  0  0  0  0  0
  191.5310  177.0760  139.4470 C   0  0  0  0  0  2  0  0  0  0  0  0
  192.0350  176.6530  138.0840 C   0  0  0  0  0  2  0  0  0  0  0  0
  191.6590  175.2060  137.8480 C   0  0  0  0  0  2  0  0  0  0  0  0
  192.8550  174.4240  137.6070 N   0  0  0  0  0  2  0  0  0  0  0  0
  193.8700  175.3530  137.1480 C   0  0  0  0  0  2  0  0  0  0  0  0
  194.9070  174.6220  136.3190 C   0  0  0  0  0  2  0  0  0  0  0  0
  196.1420  175.3870  136.3050 N   0  0  0  0  0  2  0  0  0  0  0  0
  196.4980  173.5400  138.4750 C   0  0  0  0  0  1  0  0  0  0  0  0
  197.3160  174.5160  137.2320 S   0  0  0  0  0  0  0  0  0  0  0  0
  198.0810  173.6050  136.3190 O   0  0  0  0  0  0  0  0  0  0  0  0
  198.2690  175.4740  137.8900 O   0  0  0  0  0  0  0  0  0  0  0  0
  187.3970  178.1230  141.5650 C   0  0  0  0  0  2  0  0  0  0  0  0
  186.1290  178.9250  141.3030 C   0  0  0  0  0  2  0  0  0  0  0  0
  184.8830  178.7320  144.8780 C   0  0  0  0  0  3  0  0  0  0  0  0
  185.2210  178.8410  142.4790 C   0  0  0  0  0  0  0  0  0  0  0  0
  182.9750  178.8090  143.3890 C   0  0  0  0  0  3  0  0  0  0  0  0
  185.7440  178.7800  143.7760 C   0  0  0  0  0  3  0  0  0  0  0  0
  183.8350  178.8600  142.2880 C   0  0  0  0  0  3  0  0  0  0  0  0
  183.4980  178.7440  144.6840 C   0  0  0  0  0  3  0  0  0  0  0  0
  1 24  1  0  0  0  0
  1 45  1  1  0  0  0
  2  5  1  0  0  0  0
  3  6  1  0  0  0  0
  3  2  1  0  0  0  0
  4  1  1  1  0  0  0
  5  4  1  0  0  0  0
  6  8  1  6  0  0  0
  6  7  1  0  0  0  0
  7  4  1  0  0  0  0
  8  9  1  6  0  0  0
  8 18  1  0  0  0  0
 10 18  1  0  0  0  0
 11 23  1  6  0  0  0
 12 10  1  0  0  0  0
 12 19  2  0  0  0  0
 13 15  2  0  0  0  0
 14 21  2  0  0  0  0
 14 13  1  0  0  0  0
 15 17  1  0  0  0  0
 15 12  1  0  0  0  0
 17 11  1  0  0  0  0
 18 16  1  0  0  0  0
 19 22  1  0  0  0  0
 19 16  1  0  0  0  0
 20 10  2  0  0  0  0
 21 20  1  0  0  0  0
 22 11  1  0  0  0  0
 24 33  1  6  0  0  0
 25 30  1  0  0  0  0
 26 25  1  0  0  0  0
 26 29  1  0  0  0  0
 27 24  1  6  0  0  0
 27 26  1  0  0  0  0
 27 25  1  0  0  0  0
 28 26  1  0  0  0  0
 30 32  1  0  0  0  0
 32 31  3  0  0  0  0
 34 33  1  0  0  0  0
 35 34  1  0  0  0  0
 36 35  1  0  0  0  0
 37 36  1  0  0  0  0
 38 37  1  0  0  0  0
 39 38  1  0  0  0  0
 40 39  1  0  0  0  0
 40 42  1  0  0  0  0
 42 44  2  0  0  0  0
 42 41  1  0  0  0  0
 43 42  2  0  0  0  0
 46 45  1  0  0  0  0
 46 48  1  0  0  0  0
 48 50  1  0  0  0  0
 49 52  2  0  0  0  0
 50 47  2  0  0  0  0
 51 48  2  0  0  0  0
 51 49  1  0  0  0  0
 52 47  1  0  0  0  0
M  END
>  <MODEL>
5

>  <REMARK>
 VINA RESULT:      -7.4      3.447      6.897
  Name = 
  19 active torsions:
  status: ('A' for Active; 'I' for Inactive)
    1  A    between atoms: C_2  and  N_14
    2  A    between atoms: C_2  and  C_25
    3  A    between atoms: C_3  and  C_15
    4  A    between atoms: C_3  and  C_35
    5  A    between atoms: C_5  and  N_23
    6  A    between atoms: C_5  and  C_32
    7  A    between atoms: C_15  and  C_28
    8  A    between atoms: C_15  and  C_30
    9  A    between atoms: S_16  and  N_49
   10  A    between atoms: N_20  and  C_24
   11  A    between atoms: N_20  and  C_48
   12  A    between atoms: C_21  and  C_33
   13  A    between atoms: C_21  and  O_42
   14  A    between atoms: C_22  and  C_30
   15  A    between atoms: C_24  and  C_41
   16  A    between atoms: C_26  and  C_35
   17  A    between atoms: C_30  and  O_42
   18  A    between atoms: C_33  and  C_48
   19  A    between atoms: C_41  and  N_49
                            x       y       z     vdW  Elec       q    Type
                         _______ _______ _______ _____ _____    ______ ____

>  <TORSDO>
F 19

$$$$
=
 OpenBabel11032421173D

 52 57  0  0  1  0  0  0  0  0999 V2000
  186.2280  178.1500  141.5840 C   0  0  2  0  0  3  0  0  0  0  0  0
  184.7910  179.9470  143.9230 C   0  0  0  0  0  2  0  0  0  0  0  0
  183.2750  179.8000  144.0570 C   0  0  0  0  0  2  0  0  0  0  0  0
  185.1080  178.0430  142.6270 C   0  0  1  0  0  3  0  0  0  0  0  0
  185.4130  178.6840  143.8610 O   0  0  0  0  0  0  0  0  0  0  0  0
  182.7420  178.6740  143.1630 C   0  0  2  0  0  3  0  0  0  0  0  0
  183.7160  178.3380  142.0370 C   0  0  0  0  0  2  0  0  0  0  0  0
  181.3390  178.9640  142.6220 C   0  0  2  0  0  3  0  0  0  0  0  0
  180.2520  178.6090  143.6330 C   0  0  0  0  0  1  0  0  0  0  0  0
  181.1300  178.8500  140.0460 C   0  0  0  0  0  0  0  0  0  0  0  0
  179.8930  175.4150  137.8320 C   0  0  1  0  0  3  0  0  0  0  0  0
  180.5800  177.8620  139.1430 C   0  0  0  0  0  0  0  0  0  0  0  0
  180.5760  178.9270  136.9470 N   0  0  0  0  0  0  0  0  0  0  0  0
  181.0730  180.2400  137.2620 C   0  0  0  0  0  3  0  0  0  0  0  0
  180.3630  177.8890  137.6990 C   0  0  0  0  0  0  0  0  0  0  0  0
  180.5350  177.0360  141.2190 O   0  0  0  0  0  0  0  0  0  0  0  0
  179.8630  176.6860  137.1020 N   0  0  0  0  0  2  0  0  0  0  0  0
  181.1190  178.2740  141.3520 N   0  0  0  0  0  0  0  0  0  0  0  0
  180.2410  176.8130  139.8790 C   0  0  0  0  0  0  0  0  0  0  0  0
  181.5040  180.0910  139.7670 C   0  0  0  0  0  3  0  0  0  0  0  0
  181.4650  180.7280  138.4440 C   0  0  0  0  0  3  0  0  0  0  0  0
  179.5490  175.6010  139.3200 C   0  0  0  0  0  2  0  0  0  0  0  0
  178.9310  174.4360  137.1970 C   0  0  0  0  0  1  0  0  0  0  0  0
  187.5810  178.5270  142.2100 C   0  0  1  0  0  3  0  0  0  0  0  0
  188.2340  178.0350  144.5840 N   0  0  0  0  0  0  0  0  0  0  0  0
  189.4000  177.6430  143.7600 C   0  0  0  0  0  0  0  0  0  0  0  0
  188.0470  177.4580  143.2290 C   0  0  2  0  0  3  0  0  0  0  0  0
  190.1680  178.7370  143.3530 O   0  0  0  0  0  1  0  0  0  0  0  0
  190.0920  176.5070  144.1950 O   0  0  0  0  0  1  0  0  0  0  0  0
  187.8560  176.9890  145.5240 C   0  0  0  0  0  2  0  0  0  0  0  0
  187.8340  177.9510  148.0130 C   0  0  0  0  0  3  0  0  0  0  0  0
  187.8460  177.5250  146.8830 C   0  0  0  0  0  0  0  0  0  0  0  0
  188.5400  178.7850  141.2180 O   0  0  0  0  0  0  0  0  0  0  0  0
  188.7610  177.5530  140.6000 C   0  0  0  0  0  2  0  0  0  0  0  0
  189.9660  177.6490  139.6900 C   0  0  0  0  0  2  0  0  0  0  0  0
  190.0170  176.4190  138.8090 C   0  0  0  0  0  2  0  0  0  0  0  0
  191.3310  175.8150  138.8910 N   0  0  0  0  0  2  0  0  0  0  0  0
  191.6690  175.3780  137.5490 C   0  0  0  0  0  2  0  0  0  0  0  0
  192.9680  174.5990  137.5680 C   0  0  0  0  0  2  0  0  0  0  0  0
  194.0860  175.5230  137.6410 N   0  0  0  0  0  2  0  0  0  0  0  0
  195.1140  172.9410  138.3620 C   0  0  0  0  0  1  0  0  0  0  0  0
  195.4140  174.6940  138.3780 S   0  0  0  0  0  0  0  0  0  0  0  0
  196.6640  174.9840  137.6000 O   0  0  0  0  0  0  0  0  0  0  0  0
  195.5930  175.1620  139.7960 O   0  0  0  0  0  0  0  0  0  0  0  0
  185.8400  178.9920  140.3610 C   0  0  0  0  0  2  0  0  0  0  0  0
  184.7290  178.3650  139.5290 C   0  0  0  0  0  2  0  0  0  0  0  0
  184.8880  177.0990  135.9600 C   0  0  0  0  0  3  0  0  0  0  0  0
  185.2500  177.9770  138.1910 C   0  0  0  0  0  0  0  0  0  0  0  0
  187.0920  177.8550  136.6190 C   0  0  0  0  0  3  0  0  0  0  0  0
  184.3940  177.4330  137.2260 C   0  0  0  0  0  3  0  0  0  0  0  0
  186.5980  178.1920  137.8840 C   0  0  0  0  0  3  0  0  0  0  0  0
  186.2360  177.3080  135.6570 C   0  0  0  0  0  3  0  0  0  0  0  0
  1 45  1  6  0  0  0
  1 24  1  0  0  0  0
  2  3  1  0  0  0  0
  4  1  1  6  0  0  0
  4  5  1  0  0  0  0
  5  2  1  0  0  0  0
  6  8  1  6  0  0  0
  6  3  1  0  0  0  0
  7  4  1  0  0  0  0
  7  6  1  0  0  0  0
  8  9  1  1  0  0  0
 10 18  1  0  0  0  0
 11 23  1  6  0  0  0
 11 22  1  0  0  0  0
 12 19  2  0  0  0  0
 12 10  1  0  0  0  0
 13 14  1  0  0  0  0
 13 15  2  0  0  0  0
 14 21  2  0  0  0  0
 15 12  1  0  0  0  0
 16 18  1  0  0  0  0
 17 15  1  0  0  0  0
 17 11  1  0  0  0  0
 18  8  1  0  0  0  0
 19 16  1  0  0  0  0
 20 10  2  0  0  0  0
 21 20  1  0  0  0  0
 22 19  1  0  0  0  0
 24 33  1  6  0  0  0
 25 30  1  0  0  0  0
 26 29  1  0  0  0  0
 26 25  1  0  0  0  0
 27 24  1  6  0  0  0
 27 26  1  0  0  0  0
 27 25  1  0  0  0  0
 28 26  1  0  0  0  0
 30 32  1  0  0  0  0
 32 31  3  0  0  0  0
 34 33  1  0  0  0  0
 35 34  1  0  0  0  0
 36 37  1  0  0  0  0
 36 35  1  0  0  0  0
 38 39  1  0  0  0  0
 38 37  1  0  0  0  0
 39 40  1  0  0  0  0
 40 42  1  0  0  0  0
 41 42  1  0  0  0  0
 42 44  2  0  0  0  0
 43 42  2  0  0  0  0
 46 45  1  0  0  0  0
 47 50  1  0  0  0  0
 48 46  1  0  0  0  0
 49 51  2  0  0  0  0
 50 48  2  0  0  0  0
 51 48  1  0  0  0  0
 52 47  2  0  0  0  0
 52 49  1  0  0  0  0
M  END
>  <MODEL>
6

>  <REMARK>
 VINA RESULT:      -7.2      2.146      5.766
  Name = 
  19 active torsions:
  status: ('A' for Active; 'I' for Inactive)
    1  A    between atoms: C_2  and  N_14
    2  A    between atoms: C_2  and  C_25
    3  A    between atoms: C_3  and  C_15
    4  A    between atoms: C_3  and  C_35
    5  A    between atoms: C_5  and  N_23
    6  A    between atoms: C_5  and  C_32
    7  A    between atoms: C_15  and  C_28
    8  A    between atoms: C_15  and  C_30
    9  A    between atoms: S_16  and  N_49
   10  A    between atoms: N_20  and  C_24
   11  A    between atoms: N_20  and  C_48
   12  A    between atoms: C_21  and  C_33
   13  A    between atoms: C_21  and  O_42
   14  A    between atoms: C_22  and  C_30
   15  A    between atoms: C_24  and  C_41
   16  A    between atoms: C_26  and  C_35
   17  A    between atoms: C_30  and  O_42
   18  A    between atoms: C_33  and  C_48
   19  A    between atoms: C_41  and  N_49
                            x       y       z     vdW  Elec       q    Type
                         _______ _______ _______ _____ _____    ______ ____

>  <TORSDO>
F 19

$$$$
=
 OpenBabel11032421173D

 52 57  0  0  1  0  0  0  0  0999 V2000
  188.4690  177.3370  142.5760 C   0  0  2  0  0  3  0  0  0  0  0  0
  186.8570  178.3640  145.2410 C   0  0  0  0  0  2  0  0  0  0  0  0
  185.3600  178.6310  145.0700 C   0  0  0  0  0  2  0  0  0  0  0  0
  187.1160  177.1520  143.2760 C   0  0  1  0  0  3  0  0  0  0  0  0
  187.2080  177.1130  144.6950 O   0  0  0  0  0  0  0  0  0  0  0  0
  184.8680  178.1790  143.6890 C   0  0  2  0  0  3  0  0  0  0  0  0
  186.0160  178.0580  142.6920 C   0  0  0  0  0  2  0  0  0  0  0  0
  183.7440  179.0640  143.1450 C   0  0  2  0  0  3  0  0  0  0  0  0
  182.6140  179.2400  144.1560 C   0  0  0  0  0  1  0  0  0  0  0  0
  181.9040  178.6410  141.3760 C   0  0  0  0  0  0  0  0  0  0  0  0
  182.3540  176.2020  137.9010 C   0  0  1  0  0  3  0  0  0  0  0  0
  181.8060  177.7370  140.2500 C   0  0  0  0  0  0  0  0  0  0  0  0
  179.4980  177.9160  139.4770 N   0  0  0  0  0  0  0  0  0  0  0  0
  178.9430  178.8330  140.4380 C   0  0  0  0  0  3  0  0  0  0  0  0
  180.6980  177.4350  139.3480 C   0  0  0  0  0  0  0  0  0  0  0  0
  183.8600  177.5800  141.1180 O   0  0  0  0  0  0  0  0  0  0  0  0
  180.9750  176.5300  138.2720 N   0  0  0  0  0  2  0  0  0  0  0  0
  183.2360  178.5400  141.8780 N   0  0  0  0  0  0  0  0  0  0  0  0
  182.9800  177.1320  140.1390 C   0  0  0  0  0  0  0  0  0  0  0  0
  180.9420  179.3750  141.9180 C   0  0  0  0  0  3  0  0  0  0  0  0
  179.5480  179.4470  141.4600 C   0  0  0  0  0  3  0  0  0  0  0  0
  183.2570  176.0460  139.1370 C   0  0  0  0  0  2  0  0  0  0  0  0
  182.3760  174.9310  137.0810 C   0  0  0  0  0  1  0  0  0  0  0  0
  189.5360  177.9370  143.5060 C   0  0  1  0  0  3  0  0  0  0  0  0
  189.9700  177.6540  145.9630 N   0  0  0  0  0  0  0  0  0  0  0  0
  191.2010  177.1870  145.2840 C   0  0  0  0  0  0  0  0  0  0  0  0
  189.8980  176.9610  144.6520 C   0  0  2  0  0  3  0  0  0  0  0  0
  192.0140  178.2390  144.8530 O   0  0  0  0  0  1  0  0  0  0  0  0
  191.8380  176.0920  145.8760 O   0  0  0  0  0  1  0  0  0  0  0  0
  189.4990  176.6950  146.9530 C   0  0  0  0  0  2  0  0  0  0  0  0
  188.1150  177.9730  148.8430 C   0  0  0  0  0  3  0  0  0  0  0  0
  188.7330  177.3880  147.9870 C   0  0  0  0  0  0  0  0  0  0  0  0
  190.6590  178.3600  142.7780 O   0  0  0  0  0  0  0  0  0  0  0  0
  191.1210  177.2120  142.1310 C   0  0  0  0  0  2  0  0  0  0  0  0
  192.4300  177.5140  141.4340 C   0  0  0  0  0  2  0  0  0  0  0  0
  192.2110  177.4690  139.9360 C   0  0  0  0  0  2  0  0  0  0  0  0
  193.4060  176.9730  139.2840 N   0  0  0  0  0  2  0  0  0  0  0  0
  192.9760  176.3780  138.0320 C   0  0  0  0  0  2  0  0  0  0  0  0
  193.7040  175.0700  137.8010 C   0  0  0  0  0  2  0  0  0  0  0  0
  195.1030  175.3380  137.5190 N   0  0  0  0  0  2  0  0  0  0  0  0
  195.2920  172.5940  138.3450 C   0  0  0  0  0  1  0  0  0  0  0  0
  196.0530  174.2000  138.4140 S   0  0  0  0  0  0  0  0  0  0  0  0
  197.4210  174.1210  137.8050 O   0  0  0  0  0  0  0  0  0  0  0  0
  196.1730  174.6400  139.8470 O   0  0  0  0  0  0  0  0  0  0  0  0
  188.3570  178.0290  141.2110 C   0  0  0  0  0  2  0  0  0  0  0  0
  188.7970  177.1450  140.0520 C   0  0  0  0  0  2  0  0  0  0  0  0
  188.6030  178.4500  136.4980 C   0  0  0  0  0  3  0  0  0  0  0  0
  188.2590  177.6790  138.7720 C   0  0  0  0  0  0  0  0  0  0  0  0
  186.3630  178.3270  137.4080 C   0  0  0  0  0  3  0  0  0  0  0  0
  189.1210  177.9760  137.7090 C   0  0  0  0  0  3  0  0  0  0  0  0
  186.8790  177.8500  138.6170 C   0  0  0  0  0  3  0  0  0  0  0  0
  187.2250  178.6260  136.3480 C   0  0  0  0  0  3  0  0  0  0  0  0
  1 45  1  6  0  0  0
  1 24  1  0  0  0  0
  3  2  1  0  0  0  0
  4  1  1  6  0  0  0
  4  5  1  0  0  0  0
  5  2  1  0  0  0  0
  6  8  1  6  0  0  0
  6  3  1  0  0  0  0
  7  4  1  0  0  0  0
  7  6  1  0  0  0  0
  8  9  1  1  0  0  0
 10 18  1  0  0  0  0
 10 20  2  0  0  0  0
 11 23  1  1  0  0  0
 11 17  1  0  0  0  0
 11 22  1  0  0  0  0
 12 10  1  0  0  0  0
 13 14  1  0  0  0  0
 14 21  2  0  0  0  0
 15 13  2  0  0  0  0
 15 12  1  0  0  0  0
 16 18  1  0  0  0  0
 17 15  1  0  0  0  0
 18  8  1  0  0  0  0
 19 12  2  0  0  0  0
 19 16  1  0  0  0  0
 21 20  1  0  0  0  0
 22 19  1  0  0  0  0
 24 33  1  6  0  0  0
 25 30  1  0  0  0  0
 26 29  1  0  0  0  0
 26 25  1  0  0  0  0
 27 24  1  6  0  0  0
 27 26  1  0  0  0  0
 27 25  1  0  0  0  0
 28 26  1  0  0  0  0
 30 32  1  0  0  0  0
 32 31  3  0  0  0  0
 34 33  1  0  0  0  0
 35 34  1  0  0  0  0
 36 35  1  0  0  0  0
 37 36  1  0  0  0  0
 38 37  1  0  0  0  0
 39 38  1  0  0  0  0
 40 39  1  0  0  0  0
 40 42  1  0  0  0  0
 41 42  1  0  0  0  0
 42 44  2  0  0  0  0
 43 42  2  0  0  0  0
 46 45  1  0  0  0  0
 47 50  1  0  0  0  0
 48 46  1  0  0  0  0
 49 51  2  0  0  0  0
 50 48  2  0  0  0  0
 51 48  1  0  0  0  0
 52 47  2  0  0  0  0
 52 49  1  0  0  0  0
M  END
>  <MODEL>
7

>  <REMARK>
 VINA RESULT:      -7.2      2.130      5.265
  Name = 
  19 active torsions:
  status: ('A' for Active; 'I' for Inactive)
    1  A    between atoms: C_2  and  N_14
    2  A    between atoms: C_2  and  C_25
    3  A    between atoms: C_3  and  C_15
    4  A    between atoms: C_3  and  C_35
    5  A    between atoms: C_5  and  N_23
    6  A    between atoms: C_5  and  C_32
    7  A    between atoms: C_15  and  C_28
    8  A    between atoms: C_15  and  C_30
    9  A    between atoms: S_16  and  N_49
   10  A    between atoms: N_20  and  C_24
   11  A    between atoms: N_20  and  C_48
   12  A    between atoms: C_21  and  C_33
   13  A    between atoms: C_21  and  O_42
   14  A    between atoms: C_22  and  C_30
   15  A    between atoms: C_24  and  C_41
   16  A    between atoms: C_26  and  C_35
   17  A    between atoms: C_30  and  O_42
   18  A    between atoms: C_33  and  C_48
   19  A    between atoms: C_41  and  N_49
                            x       y       z     vdW  Elec       q    Type
                         _______ _______ _______ _____ _____    ______ ____

>  <TORSDO>
F 19

$$$$
=
 OpenBabel11032421173D

 52 57  0  0  1  0  0  0  0  0999 V2000
  181.7720  177.5430  139.7070 C   0  0  2  0  0  3  0  0  0  0  0  0
  183.1490  176.4730  136.9290 C   0  0  0  0  0  2  0  0  0  0  0  0
  184.6360  176.7820  136.7450 C   0  0  0  0  0  2  0  0  0  0  0  0
  183.0850  176.9280  139.2080 C   0  0  1  0  0  3  0  0  0  0  0  0
  182.9060  175.9310  138.2080 O   0  0  0  0  0  0  0  0  0  0  0  0
  185.2400  177.3920  138.0160 C   0  0  2  0  0  3  0  0  0  0  0  0
  184.1670  177.9870  138.9230 C   0  0  0  0  0  2  0  0  0  0  0  0
  186.3450  178.4080  137.7140 C   0  0  2  0  0  3  0  0  0  0  0  0
  186.9280  178.2210  136.3160 C   0  0  0  0  0  1  0  0  0  0  0  0
  188.6760  177.7350  138.6140 C   0  0  0  0  0  0  0  0  0  0  0  0
  190.0030  178.2700  142.6360 C   0  0  1  0  0  3  0  0  0  0  0  0
  189.2410  177.6770  139.9440 C   0  0  0  0  0  0  0  0  0  0  0  0
  191.3970  176.5640  139.6820 N   0  0  0  0  0  0  0  0  0  0  0  0
  191.3950  176.2590  138.2750 C   0  0  0  0  0  3  0  0  0  0  0  0
  190.5220  177.1690  140.4270 C   0  0  0  0  0  0  0  0  0  0  0  0
  187.2040  178.5860  140.0720 O   0  0  0  0  0  0  0  0  0  0  0  0
  190.7970  177.3440  141.8230 N   0  0  0  0  0  2  0  0  0  0  0  0
  187.3950  178.3530  138.7310 N   0  0  0  0  0  0  0  0  0  0  0  0
  188.3380  178.1860  140.7700 C   0  0  0  0  0  0  0  0  0  0  0  0
  189.1820  177.2430  137.4910 C   0  0  0  0  0  3  0  0  0  0  0  0
  190.4680  176.5470  137.3550 C   0  0  0  0  0  3  0  0  0  0  0  0
  188.5120  178.2240  142.2620 C   0  0  0  0  0  2  0  0  0  0  0  0
  190.1790  177.9440  144.1030 C   0  0  0  0  0  1  0  0  0  0  0  0
  180.7280  177.6930  138.5880 C   0  0  1  0  0  3  0  0  0  0  0  0
  180.3170  179.9920  137.6660 N   0  0  0  0  0  0  0  0  0  0  0  0
  180.1710  179.0690  136.5170 C   0  0  0  0  0  0  0  0  0  0  0  0
  181.1550  178.7700  137.5620 C   0  0  2  0  0  3  0  0  0  0  0  0
  178.9400  178.4080  136.5060 O   0  0  0  0  0  1  0  0  0  0  0  0
  180.6460  179.5500  135.2920 O   0  0  0  0  0  1  0  0  0  0  0  0
  181.1960  181.1110  137.3550 C   0  0  0  0  0  2  0  0  0  0  0  0
  179.7550  183.3100  136.8950 C   0  0  0  0  0  3  0  0  0  0  0  0
  180.3980  182.3100  137.1010 C   0  0  0  0  0  0  0  0  0  0  0  0
  180.4490  176.4540  137.9910 O   0  0  0  0  0  0  0  0  0  0  0  0
  179.5690  175.8200  138.8700 C   0  0  0  0  0  2  0  0  0  0  0  0
  179.8550  174.3350  138.8920 C   0  0  0  0  0  2  0  0  0  0  0  0
  179.8200  173.8060  137.4740 C   0  0  0  0  0  2  0  0  0  0  0  0
  180.2830  172.4330  137.4540 N   0  0  0  0  0  2  0  0  0  0  0  0
  180.7870  172.1870  136.1160 C   0  0  0  0  0  2  0  0  0  0  0  0
  181.9330  171.1970  136.1660 C   0  0  0  0  0  2  0  0  0  0  0  0
  182.8730  171.5960  137.1980 N   0  0  0  0  0  2  0  0  0  0  0  0
  185.2940  173.0790  137.6310 C   0  0  0  0  0  1  0  0  0  0  0  0
  184.2490  172.3010  136.4200 S   0  0  0  0  0  0  0  0  0  0  0  0
  185.0250  171.2190  135.7270 O   0  0  0  0  0  0  0  0  0  0  0  0
  183.8060  173.3190  135.4070 O   0  0  0  0  0  0  0  0  0  0  0  0
  181.9760  178.8060  140.5550 C   0  0  0  0  0  2  0  0  0  0  0  0
  181.5410  178.6330  142.0040 C   0  0  0  0  0  2  0  0  0  0  0  0
  185.1270  178.7060  143.2300 C   0  0  0  0  0  3  0  0  0  0  0  0
  182.7240  178.7030  142.9030 C   0  0  0  0  0  0  0  0  0  0  0  0
  183.6480  178.9960  145.1250 C   0  0  0  0  0  3  0  0  0  0  0  0
  184.0190  178.6090  142.3800 C   0  0  0  0  0  3  0  0  0  0  0  0
  182.5410  178.9020  144.2760 C   0  0  0  0  0  3  0  0  0  0  0  0
  184.9410  178.8980  144.6020 C   0  0  0  0  0  3  0  0  0  0  0  0
  1 45  1  6  0  0  0
  2  5  1  0  0  0  0
  3  2  1  0  0  0  0
  3  6  1  0  0  0  0
  4  1  1  6  0  0  0
  5  4  1  0  0  0  0
  6  8  1  6  0  0  0
  6  7  1  0  0  0  0
  7  4  1  0  0  0  0
  8  9  1  6  0  0  0
  8 18  1  0  0  0  0
 10 18  1  0  0  0  0
 10 12  1  0  0  0  0
 11 23  1  1  0  0  0
 12 15  1  0  0  0  0
 12 19  2  0  0  0  0
 13 15  2  0  0  0  0
 14 13  1  0  0  0  0
 15 17  1  0  0  0  0
 16 19  1  0  0  0  0
 17 11  1  0  0  0  0
 18 16  1  0  0  0  0
 19 22  1  0  0  0  0
 20 10  2  0  0  0  0
 21 20  1  0  0  0  0
 21 14  2  0  0  0  0
 22 11  1  0  0  0  0
 24 33  1  6  0  0  0
 24  1  1  0  0  0  0
 26 27  1  0  0  0  0
 26 25  1  0  0  0  0
 27 25  1  0  0  0  0
 27 24  1  1  0  0  0
 28 26  1  0  0  0  0
 29 26  1  0  0  0  0
 30 25  1  0  0  0  0
 31 32  3  0  0  0  0
 32 30  1  0  0  0  0
 33 34  1  0  0  0  0
 34 35  1  0  0  0  0
 36 35  1  0  0  0  0
 37 36  1  0  0  0  0
 38 39  1  0  0  0  0
 38 37  1  0  0  0  0
 39 40  1  0  0  0  0
 42 40  1  0  0  0  0
 42 41  1  0  0  0  0
 43 42  2  0  0  0  0
 44 42  2  0  0  0  0
 45 46  1  0  0  0  0
 46 48  1  0  0  0  0
 47 52  1  0  0  0  0
 48 51  2  0  0  0  0
 50 48  1  0  0  0  0
 50 47  2  0  0  0  0
 51 49  1  0  0  0  0
 52 49  2  0  0  0  0
M  END
>  <MODEL>
8

>  <REMARK>
 VINA RESULT:      -6.8      4.035      9.895
  Name = 
  19 active torsions:
  status: ('A' for Active; 'I' for Inactive)
    1  A    between atoms: C_2  and  N_14
    2  A    between atoms: C_2  and  C_25
    3  A    between atoms: C_3  and  C_15
    4  A    between atoms: C_3  and  C_35
    5  A    between atoms: C_5  and  N_23
    6  A    between atoms: C_5  and  C_32
    7  A    between atoms: C_15  and  C_28
    8  A    between atoms: C_15  and  C_30
    9  A    between atoms: S_16  and  N_49
   10  A    between atoms: N_20  and  C_24
   11  A    between atoms: N_20  and  C_48
   12  A    between atoms: C_21  and  C_33
   13  A    between atoms: C_21  and  O_42
   14  A    between atoms: C_22  and  C_30
   15  A    between atoms: C_24  and  C_41
   16  A    between atoms: C_26  and  C_35
   17  A    between atoms: C_30  and  O_42
   18  A    between atoms: C_33  and  C_48
   19  A    between atoms: C_41  and  N_49
                            x       y       z     vdW  Elec       q    Type
                         _______ _______ _______ _____ _____    ______ ____

>  <TORSDO>
F 19

$$$$
=
 OpenBabel11032421173D

 52 57  0  0  1  0  0  0  0  0999 V2000
  182.4400  177.2850  139.0120 C   0  0  2  0  0  3  0  0  0  0  0  0
  182.7970  177.1780  135.7530 C   0  0  0  0  0  2  0  0  0  0  0  0
  184.2320  177.1390  135.2270 C   0  0  0  0  0  2  0  0  0  0  0  0
  183.3240  176.6220  137.9470 C   0  0  1  0  0  3  0  0  0  0  0  0
  182.6130  176.2290  136.7790 O   0  0  0  0  0  0  0  0  0  0  0  0
  185.2400  176.9720  136.3710 C   0  0  2  0  0  3  0  0  0  0  0  0
  184.6440  177.3810  137.7140 C   0  0  0  0  0  2  0  0  0  0  0  0
  186.5630  177.6940  136.1010 C   0  0  2  0  0  3  0  0  0  0  0  0
  186.7330  178.0440  134.6250 C   0  0  0  0  0  1  0  0  0  0  0  0
  188.3640  177.0400  137.8400 C   0  0  0  0  0  0  0  0  0  0  0  0
  191.5190  174.2420  137.1750 C   0  0  1  0  0  3  0  0  0  0  0  0
  189.5810  176.2640  137.7570 C   0  0  0  0  0  0  0  0  0  0  0  0
  190.6990  176.5810  139.9030 N   0  0  0  0  0  0  0  0  0  0  0  0
  189.8080  177.5020  140.5580 C   0  0  0  0  0  3  0  0  0  0  0  0
  190.6410  176.0220  138.7320 C   0  0  0  0  0  0  0  0  0  0  0  0
  188.5160  176.1380  135.7960 O   0  0  0  0  0  0  0  0  0  0  0  0
  191.6840  175.1210  138.3360 N   0  0  0  0  0  2  0  0  0  0  0  0
  187.6950  176.9060  136.5870 N   0  0  0  0  0  0  0  0  0  0  0  0
  189.6300  175.7550  136.5340 C   0  0  0  0  0  0  0  0  0  0  0  0
  187.9550  177.8090  138.8400 C   0  0  0  0  0  3  0  0  0  0  0  0
  188.6550  178.0150  140.1140 C   0  0  0  0  0  3  0  0  0  0  0  0
  190.7920  174.9520  136.0190 C   0  0  0  0  0  2  0  0  0  0  0  0
  192.8700  173.7470  136.7100 C   0  0  0  0  0  1  0  0  0  0  0  0
  181.1510  177.8780  138.4220 C   0  0  1  0  0  3  0  0  0  0  0  0
  180.6920  180.3380  138.2090 N   0  0  0  0  0  0  0  0  0  0  0  0
  180.2980  179.7450  136.9100 C   0  0  0  0  0  0  0  0  0  0  0  0
  181.4380  179.1850  137.6420 C   0  0  2  0  0  3  0  0  0  0  0  0
  179.0550  179.1100  136.9600 O   0  0  0  0  0  1  0  0  0  0  0  0
  180.5680  180.5280  135.7820 O   0  0  0  0  0  1  0  0  0  0  0  0
  181.5540  181.4990  138.0360 C   0  0  0  0  0  2  0  0  0  0  0  0
  180.0780  183.7130  137.8310 C   0  0  0  0  0  3  0  0  0  0  0  0
  180.7390  182.7080  137.9310 C   0  0  0  0  0  0  0  0  0  0  0  0
  180.4650  176.9270  137.6510 O   0  0  0  0  0  0  0  0  0  0  0  0
  179.8200  176.1080  138.5800 C   0  0  0  0  0  2  0  0  0  0  0  0
  179.3710  174.8300  137.9060 C   0  0  0  0  0  2  0  0  0  0  0  0
  179.7470  173.6540  138.7820 C   0  0  0  0  0  2  0  0  0  0  0  0
  180.3630  172.6210  137.9750 N   0  0  0  0  0  2  0  0  0  0  0  0
  180.3460  173.1010  136.6060 C   0  0  0  0  0  2  0  0  0  0  0  0
  181.3500  172.3310  135.7720 C   0  0  0  0  0  2  0  0  0  0  0  0
  182.5640  173.1160  135.6300 N   0  0  0  0  0  2  0  0  0  0  0  0
  184.6630  173.1010  137.5900 C   0  0  0  0  0  1  0  0  0  0  0  0
  183.8740  172.1910  136.2810 S   0  0  0  0  0  0  0  0  0  0  0  0
  183.3350  170.9040  136.8350 O   0  0  0  0  0  0  0  0  0  0  0  0
  184.8770  171.8850  135.2040 O   0  0  0  0  0  0  0  0  0  0  0  0
  183.2120  178.2390  139.9330 C   0  0  0  0  0  2  0  0  0  0  0  0
  182.4430  178.6080  141.1950 C   0  0  0  0  0  2  0  0  0  0  0  0
  185.5600  178.2630  143.3240 C   0  0  0  0  0  3  0  0  0  0  0  0
  183.3560  178.6010  142.3690 C   0  0  0  0  0  0  0  0  0  0  0  0
  183.7360  179.0180  144.7270 C   0  0  0  0  0  3  0  0  0  0  0  0
  184.7000  178.2380  142.2200 C   0  0  0  0  0  3  0  0  0  0  0  0
  182.8770  178.9950  143.6230 C   0  0  0  0  0  3  0  0  0  0  0  0
  185.0770  178.6510  144.5770 C   0  0  0  0  0  3  0  0  0  0  0  0
  1 45  1  6  0  0  0
  2  5  1  0  0  0  0
  3  2  1  0  0  0  0
  3  6  1  0  0  0  0
  4  1  1  1  0  0  0
  5  4  1  0  0  0  0
  6  8  1  6  0  0  0
  6  7  1  0  0  0  0
  7  4  1  0  0  0  0
  8  9  1  6  0  0  0
  8 18  1  0  0  0  0
 10 20  2  0  0  0  0
 11 23  1  6  0  0  0
 11 17  1  0  0  0  0
 12 10  1  0  0  0  0
 12 15  1  0  0  0  0
 13 14  1  0  0  0  0
 15 13  2  0  0  0  0
 16 19  1  0  0  0  0
 16 18  1  0  0  0  0
 17 15  1  0  0  0  0
 18 10  1  0  0  0  0
 19 12  2  0  0  0  0
 20 21  1  0  0  0  0
 21 14  2  0  0  0  0
 22 19  1  0  0  0  0
 22 11  1  0  0  0  0
 24 33  1  6  0  0  0
 24  1  1  0  0  0  0
 26 28  1  0  0  0  0
 26 27  1  0  0  0  0
 26 25  1  0  0  0  0
 27 25  1  0  0  0  0
 27 24  1  1  0  0  0
 29 26  1  0  0  0  0
 30 25  1  0  0  0  0
 31 32  3  0  0  0  0
 32 30  1  0  0  0  0
 33 34  1  0  0  0  0
 35 34  1  0  0  0  0
 35 36  1  0  0  0  0
 37 36  1  0  0  0  0
 38 37  1  0  0  0  0
 39 38  1  0  0  0  0
 40 39  1  0  0  0  0
 40 42  1  0  0  0  0
 42 43  2  0  0  0  0
 42 41  1  0  0  0  0
 44 42  2  0  0  0  0
 45 46  1  0  0  0  0
 46 48  1  0  0  0  0
 47 52  1  0  0  0  0
 48 51  2  0  0  0  0
 50 48  1  0  0  0  0
 50 47  2  0  0  0  0
 51 49  1  0  0  0  0
 52 49  2  0  0  0  0
M  END
>  <MODEL>
9

>  <REMARK>
 VINA RESULT:      -6.7      4.238     10.143
  Name = 
  19 active torsions:
  status: ('A' for Active; 'I' for Inactive)
    1  A    between atoms: C_2  and  N_14
    2  A    between atoms: C_2  and  C_25
    3  A    between atoms: C_3  and  C_15
    4  A    between atoms: C_3  and  C_35
    5  A    between atoms: C_5  and  N_23
    6  A    between atoms: C_5  and  C_32
    7  A    between atoms: C_15  and  C_28
    8  A    between atoms: C_15  and  C_30
    9  A    between atoms: S_16  and  N_49
   10  A    between atoms: N_20  and  C_24
   11  A    between atoms: N_20  and  C_48
   12  A    between atoms: C_21  and  C_33
   13  A    between atoms: C_21  and  O_42
   14  A    between atoms: C_22  and  C_30
   15  A    between atoms: C_24  and  C_41
   16  A    between atoms: C_26  and  C_35
   17  A    between atoms: C_30  and  O_42
   18  A    between atoms: C_33  and  C_48
   19  A    between atoms: C_41  and  N_49
                            x       y       z     vdW  Elec       q    Type
                         _______ _______ _______ _____ _____    ______ ____

>  <TORSDO>
F 19

$$$$
