=
 OpenBabel11042412193D

 34 39  0  0  1  0  0  0  0  0999 V2000
  188.5200  177.5950  135.7510 O   0  0  0  0  0  0  0  0  0  0  0  0
  183.4550  179.3240  143.1860 O   0  0  0  0  0  0  0  0  0  0  0  0
  185.2120  178.7930  141.7580 N   0  0  0  0  0  0  0  0  0  0  0  0
  184.8210  179.0040  140.4050 C   0  0  2  0  0  0  0  0  0  0  0  0
  183.8400  177.9190  139.9480 C   0  0  2  0  0  3  0  0  0  0  0  0
  185.8320  178.2560  146.5870 O   0  0  0  0  0  1  0  0  0  0  0  0
  187.8240  178.1100  141.5320 C   0  0  0  0  0  2  0  0  0  0  0  0
  185.4160  178.5460  144.2070 N   0  0  0  0  0  2  0  0  0  0  0  0
  184.9680  178.6160  145.5630 C   0  0  0  0  0  0  0  0  0  0  0  0
  185.9810  175.7200  137.6250 C   0  0  0  0  0  2  0  0  0  0  0  0
  189.1950  178.1100  137.9420 C   0  0  0  0  0  2  0  0  0  0  0  0
  184.7490  175.5800  136.9870 O   0  0  0  0  0  0  0  0  0  0  0  0
  187.0870  175.2600  136.6960 C   0  0  0  0  0  2  0  0  0  0  0  0
  186.5350  178.4890  141.2140 C   0  0  2  0  0  0  0  0  0  0  0  0
  186.1370  178.7270  139.8980 C   0  0  0  0  0  0  0  0  0  0  0  0
  181.3650  177.7250  139.6690 N   0  0  1  0  0  0  0  0  0  0  0  0
  183.7300  177.8950  138.4870 N   0  0  0  0  0  2  0  0  0  0  0  0
  188.6930  177.1750  136.8850 C   0  0  0  0  0  0  0  0  0  0  0  0
  183.8020  179.0030  145.8430 O   0  0  0  0  0  0  0  0  0  0  0  0
  184.6360  178.9020  143.0590 C   0  0  0  0  0  0  0  0  0  0  0  0
  188.6830  177.9880  140.4060 C   0  0  0  0  0  3  0  0  0  0  0  0
  188.4460  175.7250  137.2070 C   0  0  2  0  0  3  0  0  0  0  0  0
  188.2250  178.2440  139.0680 C   0  0  0  0  0  0  0  0  0  0  0  0
  186.9260  178.6280  138.8140 N   0  0  0  0  0  0  0  0  0  0  0  0
  182.4520  178.1140  140.5800 C   0  0  0  0  0  2  0  0  0  0  0  0
  183.8140  175.4780  138.0200 C   0  0  0  0  0  2  0  0  0  0  0  0
  182.9410  176.7260  138.0660 C   0  0  1  0  0  3  0  0  0  0  0  0
  181.7330  176.4850  138.9820 C   0  0  0  0  0  2  0  0  0  0  0  0
  189.6220  174.6290  135.4270 O   0  0  0  0  0  0  0  0  0  0  0  0
  190.5100  174.3680  137.5250 O   0  0  0  0  0  1  0  0  0  0  0  0
  189.5450  174.8710  136.6630 C   0  0  0  0  0  0  0  0  0  0  0  0
  180.0150  178.5260  141.5290 C   0  0  0  0  0  2  0  0  0  0  0  0
  179.1510  178.5170  140.2880 C   0  0  0  0  0  2  0  0  0  0  0  0
  180.1970  177.4340  140.4900 C   0  0  0  0  0  3  0  0  0  0  0  0
  1 18  2  0  0  0  0
  3 20  1  0  0  0  0
  4 15  1  6  0  0  0
  4 14  1  0  0  0  0
  4  3  1  0  0  0  0
  5  4  1  0  0  0  0
  5 25  1  1  0  0  0
  8  9  1  0  0  0  0
  9 19  2  0  0  0  0
  9  6  1  0  0  0  0
 11 23  1  0  0  0  0
 12 10  1  0  0  0  0
 12 26  1  0  0  0  0
 13 22  1  0  0  0  0
 13 10  1  0  0  0  0
 14  7  1  6  0  0  0
 14  3  1  0  0  0  0
 15 14  1  0  0  0  0
 16 34  1  1  0  0  0
 16 25  1  0  0  0  0
 17  5  1  0  0  0  0
 18 22  1  0  0  0  0
 18 11  1  0  0  0  0
 20  2  2  0  0  0  0
 20  8  1  0  0  0  0
 21  7  1  0  0  0  0
 22 31  1  6  0  0  0
 23 21  2  0  0  0  0
 24 23  1  0  0  0  0
 24 15  2  0  0  0  0
 27 26  1  1  0  0  0
 27 17  1  0  0  0  0
 27 28  1  0  0  0  0
 28 16  1  0  0  0  0
 29 31  2  0  0  0  0
 31 30  1  0  0  0  0
 33 34  1  0  0  0  0
 33 32  1  0  0  0  0
 34 32  1  0  0  0  0
M  END
>  <MODEL>
1

>  <REMARK>
 VINA RESULT:      -7.9      0.000      0.000
  Name = 
  2 active torsions:
  status: ('A' for Active; 'I' for Inactive)
    1  A    between atoms: N_19  and  C_27
    2  A    between atoms: C_21  and  C_28
                            x       y       z     vdW  Elec       q    Type
                         _______ _______ _______ _____ _____    ______ ____

>  <TORSDO>
F 2

$$$$
=
 OpenBabel11042412193D

 34 39  0  0  1  0  0  0  0  0999 V2000
  180.1310  180.8670  142.3930 O   0  0  0  0  0  0  0  0  0  0  0  0
  185.2240  176.3740  136.2450 O   0  0  0  0  0  0  0  0  0  0  0  0
  183.5060  177.0220  137.6720 N   0  0  0  0  0  0  0  0  0  0  0  0
  183.7870  178.3060  138.2220 C   0  0  2  0  0  0  0  0  0  0  0  0
  184.9070  178.2160  139.2640 C   0  0  2  0  0  3  0  0  0  0  0  0
  183.2320  172.6650  135.4510 O   0  0  0  0  0  1  0  0  0  0  0  0
  181.0320  176.4820  138.6350 C   0  0  0  0  0  2  0  0  0  0  0  0
  183.4720  174.8420  136.5130 N   0  0  0  0  0  2  0  0  0  0  0  0
  183.9720  173.8230  135.6430 C   0  0  0  0  0  0  0  0  0  0  0  0
  183.0350  178.6310  142.6020 C   0  0  0  0  0  2  0  0  0  0  0  0
  179.4960  179.2560  140.8060 C   0  0  0  0  0  2  0  0  0  0  0  0
  184.2390  179.2450  142.9460 O   0  0  0  0  0  0  0  0  0  0  0  0
  181.9720  178.9950  143.6200 C   0  0  0  0  0  2  0  0  0  0  0  0
  182.2230  177.1260  138.3680 C   0  0  2  0  0  0  0  0  0  0  0  0
  182.5100  178.3950  138.8730 C   0  0  0  0  0  0  0  0  0  0  0  0
  187.3620  178.6710  139.3200 N   0  0  1  0  0  0  0  0  0  0  0  0
  184.9430  179.4210  140.0980 N   0  0  0  0  0  2  0  0  0  0  0  0
  180.0880  179.6780  142.1150 C   0  0  0  0  0  0  0  0  0  0  0  0
  185.0720  173.9620  135.0450 O   0  0  0  0  0  0  0  0  0  0  0  0
  184.1230  176.0880  136.7870 C   0  0  0  0  0  0  0  0  0  0  0  0
  180.1470  177.2270  139.4610 C   0  0  0  0  0  3  0  0  0  0  0  0
  180.5840  178.6480  143.0940 C   0  0  2  0  0  3  0  0  0  0  0  0
  180.4880  178.5320  139.9580 C   0  0  0  0  0  0  0  0  0  0  0  0
  181.6920  179.1270  139.6500 N   0  0  0  0  0  0  0  0  0  0  0  0
  186.2760  177.9890  138.6020 C   0  0  0  0  0  2  0  0  0  0  0  0
  185.2290  178.4630  142.3480 C   0  0  0  0  0  2  0  0  0  0  0  0
  185.8890  179.2300  141.2080 C   0  0  1  0  0  3  0  0  0  0  0  0
  187.1670  178.5050  140.7610 C   0  0  0  0  0  2  0  0  0  0  0  0
  179.4030  177.3410  144.7210 O   0  0  0  0  0  0  0  0  0  0  0  0
  178.9570  179.5900  144.7290 O   0  0  0  0  0  1  0  0  0  0  0  0
  179.6110  178.4780  144.2170 C   0  0  0  0  0  0  0  0  0  0  0  0
  188.4890  177.3970  137.5780 C   0  0  0  0  0  2  0  0  0  0  0  0
  189.2490  178.6880  137.7850 C   0  0  0  0  0  2  0  0  0  0  0  0
  188.6030  177.9920  138.9710 C   0  0  0  0  0  3  0  0  0  0  0  0
  2 20  2  0  0  0  0
  3  4  1  0  0  0  0
  3 14  1  0  0  0  0
  4 14  1  0  0  0  0
  4 15  1  6  0  0  0
  4  5  1  0  0  0  0
  5 25  1  6  0  0  0
  5 17  1  0  0  0  0
  6  9  1  0  0  0  0
  7 21  1  0  0  0  0
  8 20  1  0  0  0  0
  9  8  1  0  0  0  0
 10 12  1  0  0  0  0
 10 13  1  0  0  0  0
 11 18  1  0  0  0  0
 14  7  1  1  0  0  0
 14 15  1  0  0  0  0
 15 24  2  0  0  0  0
 16 34  1  6  0  0  0
 16 28  1  0  0  0  0
 17 27  1  0  0  0  0
 18  1  2  0  0  0  0
 18 22  1  0  0  0  0
 19  9  2  0  0  0  0
 20  3  1  0  0  0  0
 21 23  2  0  0  0  0
 22 13  1  0  0  0  0
 22 31  1  1  0  0  0
 23 11  1  0  0  0  0
 24 23  1  0  0  0  0
 25 16  1  0  0  0  0
 26 12  1  0  0  0  0
 27 28  1  6  0  0  0
 27 26  1  0  0  0  0
 31 29  2  0  0  0  0
 31 30  1  0  0  0  0
 32 33  1  0  0  0  0
 32 34  1  0  0  0  0
 33 34  1  0  0  0  0
M  END
>  <MODEL>
2

>  <REMARK>
 VINA RESULT:      -7.5      2.266      8.626
  Name = 
  2 active torsions:
  status: ('A' for Active; 'I' for Inactive)
    1  A    between atoms: N_19  and  C_27
    2  A    between atoms: C_21  and  C_28
                            x       y       z     vdW  Elec       q    Type
                         _______ _______ _______ _____ _____    ______ ____

>  <TORSDO>
F 2

$$$$
=
 OpenBabel11042412193D

 34 39  0  0  1  0  0  0  0  0999 V2000
  184.1810  180.5030  139.0940 O   0  0  0  0  0  0  0  0  0  0  0  0
  189.2350  173.8070  135.4140 O   0  0  0  0  0  0  0  0  0  0  0  0
  187.4800  175.0410  136.3110 N   0  0  0  0  0  0  0  0  0  0  0  0
  187.8730  176.4000  136.4760 C   0  0  2  0  0  0  0  0  0  0  0  0
  188.8540  176.5420  137.6460 C   0  0  2  0  0  3  0  0  0  0  0  0
  186.8500  170.2490  135.5150 O   0  0  0  0  0  1  0  0  0  0  0  0
  184.8670  175.0790  137.0270 C   0  0  0  0  0  2  0  0  0  0  0  0
  187.2710  172.6180  135.8820 N   0  0  0  0  0  2  0  0  0  0  0  0
  187.7170  171.3310  135.4470 C   0  0  0  0  0  0  0  0  0  0  0  0
  186.7140  178.1840  140.3910 C   0  0  0  0  0  2  0  0  0  0  0  0
  183.5030  178.5370  138.0020 C   0  0  0  0  0  2  0  0  0  0  0  0
  187.9470  178.7580  140.7000 O   0  0  0  0  0  0  0  0  0  0  0  0
  185.6090  178.9560  141.0860 C   0  0  0  0  0  2  0  0  0  0  0  0
  186.1570  175.4850  136.7510 C   0  0  2  0  0  0  0  0  0  0  0  0
  186.5590  176.8150  136.8790 C   0  0  0  0  0  0  0  0  0  0  0  0
  191.3290  176.7530  137.9110 N   0  0  1  0  0  0  0  0  0  0  0  0
  188.9660  177.9410  138.0660 N   0  0  0  0  0  2  0  0  0  0  0  0
  184.0050  179.2980  139.1890 C   0  0  0  0  0  0  0  0  0  0  0  0
  188.8830  171.1640  135.0000 O   0  0  0  0  0  0  0  0  0  0  0  0
  188.0540  173.8170  135.8530 C   0  0  0  0  0  0  0  0  0  0  0  0
  184.0100  176.1310  137.4500 C   0  0  0  0  0  3  0  0  0  0  0  0
  184.2490  178.5940  140.4970 C   0  0  2  0  0  3  0  0  0  0  0  0
  184.4710  177.4870  137.5680 C   0  0  0  0  0  0  0  0  0  0  0  0
  185.7710  177.8330  137.2690 N   0  0  0  0  0  0  0  0  0  0  0  0
  190.2410  175.9840  137.2880 C   0  0  0  0  0  2  0  0  0  0  0  0
  188.8790  177.7340  140.5180 C   0  0  0  0  0  2  0  0  0  0  0  0
  189.7540  178.0270  139.3060 C   0  0  1  0  0  3  0  0  0  0  0  0
  190.9610  177.0780  139.2900 C   0  0  0  0  0  2  0  0  0  0  0  0
  181.9570  179.0010  141.0720 O   0  0  0  0  0  0  0  0  0  0  0  0
  183.4420  179.0030  142.8180 O   0  0  0  0  0  1  0  0  0  0  0  0
  183.1500  178.8870  141.4660 C   0  0  0  0  0  0  0  0  0  0  0  0
  192.6870  175.1910  136.6300 C   0  0  0  0  0  2  0  0  0  0  0  0
  193.5500  176.3780  136.9940 C   0  0  0  0  0  2  0  0  0  0  0  0
  192.4950  175.8810  137.9690 C   0  0  0  0  0  3  0  0  0  0  0  0
  1 18  2  0  0  0  0
  2 20  2  0  0  0  0
  3  4  1  0  0  0  0
  3 14  1  0  0  0  0
  4 14  1  0  0  0  0
  4 15  1  6  0  0  0
  4  5  1  0  0  0  0
  5 25  1  6  0  0  0
  5 17  1  0  0  0  0
  7 21  1  0  0  0  0
  9  6  1  0  0  0  0
  9  8  1  0  0  0  0
 10 12  1  0  0  0  0
 10 13  1  0  0  0  0
 11 18  1  0  0  0  0
 14 15  1  0  0  0  0
 14  7  1  1  0  0  0
 15 24  2  0  0  0  0
 16 34  1  1  0  0  0
 16 28  1  0  0  0  0
 17 27  1  0  0  0  0
 18 22  1  0  0  0  0
 19  9  2  0  0  0  0
 20  8  1  0  0  0  0
 20  3  1  0  0  0  0
 21 23  2  0  0  0  0
 22 13  1  0  0  0  0
 22 31  1  1  0  0  0
 23 11  1  0  0  0  0
 24 23  1  0  0  0  0
 25 16  1  0  0  0  0
 26 12  1  0  0  0  0
 27 28  1  6  0  0  0
 27 26  1  0  0  0  0
 29 31  2  0  0  0  0
 31 30  1  0  0  0  0
 32 33  1  0  0  0  0
 32 34  1  0  0  0  0
 33 34  1  0  0  0  0
M  END
>  <MODEL>
3

>  <REMARK>
 VINA RESULT:      -7.3      2.882      8.737
  Name = 
  2 active torsions:
  status: ('A' for Active; 'I' for Inactive)
    1  A    between atoms: N_19  and  C_27
    2  A    between atoms: C_21  and  C_28
                            x       y       z     vdW  Elec       q    Type
                         _______ _______ _______ _____ _____    ______ ____

>  <TORSDO>
F 2

$$$$
=
 OpenBabel11042412193D

 34 39  0  0  1  0  0  0  0  0999 V2000
  191.7270  176.4970  135.8570 O   0  0  0  0  0  0  0  0  0  0  0  0
  185.4820  179.1860  141.9970 O   0  0  0  0  0  0  0  0  0  0  0  0
  187.3700  178.2800  140.9860 N   0  0  0  0  0  0  0  0  0  0  0  0
  187.3980  178.6280  139.6040 C   0  0  2  0  0  0  0  0  0  0  0  0
  186.3410  177.8390  138.8250 C   0  0  2  0  0  3  0  0  0  0  0  0
  186.5950  177.4430  145.7490 O   0  0  0  0  0  1  0  0  0  0  0  0
  189.7200  176.9740  141.3260 C   0  0  0  0  0  2  0  0  0  0  0  0
  186.8800  177.9090  143.3770 N   0  0  0  0  0  2  0  0  0  0  0  0
  186.1290  178.0430  144.5870 C   0  0  0  0  0  0  0  0  0  0  0  0
  188.4280  175.2540  136.8830 C   0  0  0  0  0  2  0  0  0  0  0  0
  191.9210  176.7530  138.1840 C   0  0  0  0  0  2  0  0  0  0  0  0
  187.4020  175.4490  135.9580 O   0  0  0  0  0  0  0  0  0  0  0  0
  189.5950  174.5630  136.2040 C   0  0  0  0  0  2  0  0  0  0  0  0
  188.6800  177.6740  140.7470 C   0  0  2  0  0  0  0  0  0  0  0  0
  188.6970  178.0490  139.4030 C   0  0  0  0  0  0  0  0  0  0  0  0
  184.0440  178.2800  137.9450 N   0  0  1  0  0  0  0  0  0  0  0  0
  186.6050  177.8920  137.3850 N   0  0  0  0  0  2  0  0  0  0  0  0
  191.5010  176.0090  136.9540 C   0  0  0  0  0  0  0  0  0  0  0  0
  185.0540  178.6990  144.6160 O   0  0  0  0  0  0  0  0  0  0  0  0
  186.5240  178.4860  142.1160 C   0  0  0  0  0  0  0  0  0  0  0  0
  190.7840  176.6790  140.4310 C   0  0  0  0  0  3  0  0  0  0  0  0
  190.8490  174.6570  137.0670 C   0  0  2  0  0  3  0  0  0  0  0  0
  190.7550  177.0870  139.0540 C   0  0  0  0  0  0  0  0  0  0  0  0
  189.6910  177.7910  138.5340 N   0  0  0  0  0  0  0  0  0  0  0  0
  184.9220  178.3540  139.1220 C   0  0  0  0  0  2  0  0  0  0  0  0
  186.2380  175.5490  136.7230 C   0  0  0  0  0  2  0  0  0  0  0  0
  185.6990  176.9730  136.6780 C   0  0  1  0  0  3  0  0  0  0  0  0
  184.2750  177.0110  137.2510 C   0  0  0  0  0  2  0  0  0  0  0  0
  191.4850  172.6280  135.9580 O   0  0  0  0  0  0  0  0  0  0  0  0
  193.1130  173.6290  137.2250 O   0  0  0  0  0  1  0  0  0  0  0  0
  191.8200  173.5740  136.7230 C   0  0  0  0  0  0  0  0  0  0  0  0
  182.4550  179.4130  139.3990 C   0  0  0  0  0  2  0  0  0  0  0  0
  181.9550  179.5230  137.9770 C   0  0  0  0  0  2  0  0  0  0  0  0
  182.6710  178.2630  138.4320 C   0  0  0  0  0  3  0  0  0  0  0  0
  1 18  2  0  0  0  0
  2 20  2  0  0  0  0
  3 20  1  0  0  0  0
  4 15  1  6  0  0  0
  4 14  1  0  0  0  0
  4  3  1  0  0  0  0
  5 25  1  6  0  0  0
  5  4  1  0  0  0  0
  8  9  1  0  0  0  0
  9 19  2  0  0  0  0
  9  6  1  0  0  0  0
 11 23  1  0  0  0  0
 12 26  1  0  0  0  0
 12 10  1  0  0  0  0
 13 10  1  0  0  0  0
 13 22  1  0  0  0  0
 14  3  1  0  0  0  0
 14  7  1  6  0  0  0
 15 14  1  0  0  0  0
 16 34  1  1  0  0  0
 16 25  1  0  0  0  0
 17  5  1  0  0  0  0
 18 22  1  0  0  0  0
 18 11  1  0  0  0  0
 20  8  1  0  0  0  0
 21  7  1  0  0  0  0
 22 31  1  6  0  0  0
 23 21  2  0  0  0  0
 24 23  1  0  0  0  0
 24 15  2  0  0  0  0
 27 26  1  1  0  0  0
 27 28  1  0  0  0  0
 27 17  1  0  0  0  0
 28 16  1  0  0  0  0
 29 31  2  0  0  0  0
 31 30  1  0  0  0  0
 33 34  1  0  0  0  0
 33 32  1  0  0  0  0
 34 32  1  0  0  0  0
M  END
>  <MODEL>
4

>  <REMARK>
 VINA RESULT:      -7.3      1.959      2.734
  Name = 
  2 active torsions:
  status: ('A' for Active; 'I' for Inactive)
    1  A    between atoms: N_19  and  C_27
    2  A    between atoms: C_21  and  C_28
                            x       y       z     vdW  Elec       q    Type
                         _______ _______ _______ _____ _____    ______ ____

>  <TORSDO>
F 2

$$$$
=
 OpenBabel11042412193D

 34 39  0  0  1  0  0  0  0  0999 V2000
  182.3430  180.1190  139.3650 O   0  0  0  0  0  0  0  0  0  0  0  0
  190.7740  176.5550  138.9970 O   0  0  0  0  0  0  0  0  0  0  0  0
  188.5300  177.0200  138.6040 N   0  0  0  0  0  0  0  0  0  0  0  0
  188.1320  178.1710  139.3440 C   0  0  2  0  0  0  0  0  0  0  0  0
  188.0240  177.8430  140.8370 C   0  0  2  0  0  3  0  0  0  0  0  0
  190.5720  173.1460  136.4100 O   0  0  0  0  0  0  0  0  0  0  0  0
  186.3100  176.4360  137.1630 C   0  0  0  0  0  2  0  0  0  0  0  0
  189.6520  175.0850  137.5580 N   0  0  0  0  0  2  0  0  0  0  0  0
  190.7510  174.2150  137.2760 C   0  0  0  0  0  0  0  0  0  0  0  0
  184.2240  177.7460  141.4410 C   0  0  0  0  0  2  0  0  0  0  0  0
  183.3640  178.8490  137.6740 C   0  0  0  0  0  2  0  0  0  0  0  0
  184.6320  178.2320  142.6830 O   0  0  0  0  0  0  0  0  0  0  0  0
  182.7340  177.9730  141.2740 C   0  0  0  0  0  2  0  0  0  0  0  0
  187.1830  177.0590  138.0320 C   0  0  2  0  0  0  0  0  0  0  0  0
  186.8260  178.2020  138.7480 C   0  0  0  0  0  0  0  0  0  0  0  0
  189.4490  178.1640  142.8640 N   0  0  1  0  0  0  0  0  0  0  0  0
  187.2650  178.8780  141.5450 N   0  0  0  0  0  2  0  0  0  0  0  0
  182.6650  179.0030  138.9890 C   0  0  0  0  0  0  0  0  0  0  0  0
  191.8810  174.4050  137.8000 O   0  0  0  0  0  1  0  0  0  0  0  0
  189.7030  176.2300  138.4170 C   0  0  0  0  0  0  0  0  0  0  0  0
  185.0380  177.0630  137.0770 C   0  0  0  0  0  3  0  0  0  0  0  0
  182.3230  177.7920  139.8170 C   0  0  2  0  0  3  0  0  0  0  0  0
  184.7170  178.2400  137.8350 C   0  0  0  0  0  0  0  0  0  0  0  0
  185.6350  178.8230  138.6820 N   0  0  0  0  0  0  0  0  0  0  0  0
  189.4110  177.6730  141.4790 C   0  0  0  0  0  2  0  0  0  0  0  0
  185.7970  177.5220  142.9840 C   0  0  0  0  0  2  0  0  0  0  0  0
  187.0060  178.4470  142.9280 C   0  0  1  0  0  3  0  0  0  0  0  0
  188.2240  177.7540  143.5540 C   0  0  0  0  0  2  0  0  0  0  0  0
  180.3810  177.0590  138.6170 O   0  0  0  0  0  0  0  0  0  0  0  0
  180.0520  177.5980  140.8210 O   0  0  0  0  0  1  0  0  0  0  0  0
  180.8680  177.4720  139.7050 C   0  0  0  0  0  0  0  0  0  0  0  0
  191.7920  177.5440  142.6360 C   0  0  0  0  0  2  0  0  0  0  0  0
  191.6680  178.5060  143.7970 C   0  0  0  0  0  2  0  0  0  0  0  0
  190.5620  177.4990  143.5270 C   0  0  0  0  0  3  0  0  0  0  0  0
  3  4  1  0  0  0  0
  4 15  1  6  0  0  0
  4  5  1  0  0  0  0
  5 25  1  1  0  0  0
  5 17  1  0  0  0  0
  6  9  2  0  0  0  0
  8 20  1  0  0  0  0
  9  8  1  0  0  0  0
  9 19  1  0  0  0  0
 10 12  1  0  0  0  0
 11 23  1  0  0  0  0
 11 18  1  0  0  0  0
 12 26  1  0  0  0  0
 13 10  1  0  0  0  0
 14  7  1  1  0  0  0
 14  3  1  0  0  0  0
 14 15  1  0  0  0  0
 14  4  1  0  0  0  0
 16 34  1  1  0  0  0
 16 28  1  0  0  0  0
 17 27  1  0  0  0  0
 18  1  2  0  0  0  0
 18 22  1  0  0  0  0
 20  3  1  0  0  0  0
 20  2  2  0  0  0  0
 21  7  1  0  0  0  0
 21 23  2  0  0  0  0
 22 31  1  1  0  0  0
 22 13  1  0  0  0  0
 23 24  1  0  0  0  0
 24 15  2  0  0  0  0
 25 16  1  0  0  0  0
 27 26  1  6  0  0  0
 27 28  1  0  0  0  0
 29 31  2  0  0  0  0
 31 30  1  0  0  0  0
 32 34  1  0  0  0  0
 32 33  1  0  0  0  0
 34 33  1  0  0  0  0
M  END
>  <MODEL>
5

>  <REMARK>
 VINA RESULT:      -7.2      2.537      7.857
  Name = 
  2 active torsions:
  status: ('A' for Active; 'I' for Inactive)
    1  A    between atoms: N_19  and  C_27
    2  A    between atoms: C_21  and  C_28
                            x       y       z     vdW  Elec       q    Type
                         _______ _______ _______ _____ _____    ______ ____

>  <TORSDO>
F 2

$$$$
=
 OpenBabel11042412193D

 34 39  0  0  1  0  0  0  0  0999 V2000
  186.8160  179.5940  136.1030 O   0  0  0  0  0  0  0  0  0  0  0  0
  189.6440  177.7740  144.6240 O   0  0  0  0  0  0  0  0  0  0  0  0
  189.4080  177.8040  142.3110 N   0  0  0  0  0  0  0  0  0  0  0  0
  188.4900  178.8240  141.9270 C   0  0  2  0  0  0  0  0  0  0  0  0
  187.0540  178.4210  142.2820 C   0  0  2  0  0  3  0  0  0  0  0  0
  192.3930  174.4990  144.3490 O   0  0  0  0  0  0  0  0  0  0  0  0
  190.2830  176.8550  139.9280 C   0  0  0  0  0  2  0  0  0  0  0  0
  190.8770  176.1720  143.4390 N   0  0  0  0  0  2  0  0  0  0  0  0
  191.5080  175.5470  144.5600 C   0  0  0  0  0  0  0  0  0  0  0  0
  185.5140  177.5550  138.8630 C   0  0  0  0  0  2  0  0  0  0  0  0
  188.8200  178.6190  136.8440 C   0  0  0  0  0  2  0  0  0  0  0  0
  184.3770  178.0600  139.4960 O   0  0  0  0  0  0  0  0  0  0  0  0
  185.2730  177.4910  137.3670 C   0  0  0  0  0  2  0  0  0  0  0  0
  189.6120  177.6010  140.8760 C   0  0  2  0  0  0  0  0  0  0  0  0
  188.7280  178.6220  140.5250 C   0  0  0  0  0  0  0  0  0  0  0  0
  185.4370  178.9330  144.1160 N   0  0  1  0  0  0  0  0  0  0  0  0
  186.0850  179.2560  141.5680 N   0  0  0  0  0  2  0  0  0  0  0  0
  187.3620  178.5790  136.5060 C   0  0  0  0  0  0  0  0  0  0  0  0
  191.2750  175.9340  145.7370 O   0  0  0  0  0  1  0  0  0  0  0  0
  189.9590  177.2680  143.5130 C   0  0  0  0  0  0  0  0  0  0  0  0
  189.9840  177.2230  138.5880 C   0  0  0  0  0  3  0  0  0  0  0  0
  186.5880  177.2930  136.6210 C   0  0  2  0  0  3  0  0  0  0  0  0
  189.0650  178.2820  138.2770 C   0  0  0  0  0  0  0  0  0  0  0  0
  188.4310  178.9990  139.2690 N   0  0  0  0  0  0  0  0  0  0  0  0
  186.8060  178.5010  143.7980 C   0  0  0  0  0  2  0  0  0  0  0  0
  184.4490  177.5820  140.8060 C   0  0  0  0  0  2  0  0  0  0  0  0
  184.7270  178.7280  141.7710 C   0  0  1  0  0  3  0  0  0  0  0  0
  184.4980  178.2620  143.2150 C   0  0  0  0  0  2  0  0  0  0  0  0
  187.3120  176.2230  134.6000 O   0  0  0  0  0  0  0  0  0  0  0  0
  185.0630  176.6360  134.7640 O   0  0  0  0  0  1  0  0  0  0  0  0
  186.3540  176.6970  135.2700 C   0  0  0  0  0  0  0  0  0  0  0  0
  186.4270  178.0400  146.1530 C   0  0  0  0  0  2  0  0  0  0  0  0
  185.8200  179.3870  146.4740 C   0  0  0  0  0  2  0  0  0  0  0  0
  185.1430  178.4730  145.4670 C   0  0  0  0  0  3  0  0  0  0  0  0
  1 18  2  0  0  0  0
  3 20  1  0  0  0  0
  4 15  1  1  0  0  0
  4  5  1  0  0  0  0
  4  3  1  0  0  0  0
  5 25  1  1  0  0  0
  6  9  2  0  0  0  0
  8 20  1  0  0  0  0
  8  9  1  0  0  0  0
  9 19  1  0  0  0  0
 10 12  1  0  0  0  0
 11 23  1  0  0  0  0
 12 26  1  0  0  0  0
 13 10  1  0  0  0  0
 14  7  1  6  0  0  0
 14  4  1  0  0  0  0
 14  3  1  0  0  0  0
 15 14  1  0  0  0  0
 16 34  1  1  0  0  0
 17 27  1  0  0  0  0
 17  5  1  0  0  0  0
 18 22  1  0  0  0  0
 18 11  1  0  0  0  0
 20  2  2  0  0  0  0
 21  7  1  0  0  0  0
 22 31  1  6  0  0  0
 22 13  1  0  0  0  0
 23 21  2  0  0  0  0
 23 24  1  0  0  0  0
 24 15  2  0  0  0  0
 25 16  1  0  0  0  0
 27 26  1  6  0  0  0
 27 28  1  0  0  0  0
 28 16  1  0  0  0  0
 29 31  2  0  0  0  0
 30 31  1  0  0  0  0
 32 33  1  0  0  0  0
 34 32  1  0  0  0  0
 34 33  1  0  0  0  0
M  END
>  <MODEL>
6

>  <REMARK>
 VINA RESULT:      -6.9      2.955      4.950
  Name = 
  2 active torsions:
  status: ('A' for Active; 'I' for Inactive)
    1  A    between atoms: N_19  and  C_27
    2  A    between atoms: C_21  and  C_28
                            x       y       z     vdW  Elec       q    Type
                         _______ _______ _______ _____ _____    ______ ____

>  <TORSDO>
F 2

$$$$
=
 OpenBabel11042412193D

 34 39  0  0  1  0  0  0  0  0999 V2000
  185.3120  180.5890  143.6560 O   0  0  0  0  0  0  0  0  0  0  0  0
  185.1460  176.2560  135.5860 O   0  0  0  0  0  0  0  0  0  0  0  0
  184.6540  176.9760  137.7410 N   0  0  0  0  0  0  0  0  0  0  0  0
  185.4780  178.0860  138.0860 C   0  0  2  0  0  0  0  0  0  0  0  0
  186.9200  177.6320  138.3370 C   0  0  2  0  0  3  0  0  0  0  0  0
  182.2210  173.1420  135.9050 O   0  0  0  0  0  1  0  0  0  0  0  0
  183.0180  176.7530  139.8900 C   0  0  0  0  0  2  0  0  0  0  0  0
  183.4950  175.0460  136.7270 N   0  0  0  0  0  2  0  0  0  0  0  0
  183.2010  174.1020  135.6940 C   0  0  0  0  0  0  0  0  0  0  0  0
  187.2570  177.8560  142.1640 C   0  0  0  0  0  2  0  0  0  0  0  0
  183.5720  179.3880  142.6310 C   0  0  0  0  0  2  0  0  0  0  0  0
  188.5670  178.1800  141.8080 O   0  0  0  0  0  0  0  0  0  0  0  0
  187.0160  178.2450  143.6100 C   0  0  0  0  0  2  0  0  0  0  0  0
  184.0010  177.2020  139.0310 C   0  0  2  0  0  0  0  0  0  0  0  0
  184.8030  178.3030  139.3340 C   0  0  0  0  0  0  0  0  0  0  0  0
  189.0590  177.6180  137.0460 N   0  0  1  0  0  0  0  0  0  0  0  0
  187.6770  178.6660  139.0490 N   0  0  0  0  0  2  0  0  0  0  0  0
  184.8470  179.4860  143.4110 C   0  0  0  0  0  0  0  0  0  0  0  0
  183.8150  174.1290  134.5940 O   0  0  0  0  0  0  0  0  0  0  0  0
  184.4670  176.0950  136.6350 C   0  0  0  0  0  0  0  0  0  0  0  0
  182.9110  177.5090  141.0880 C   0  0  0  0  0  3  0  0  0  0  0  0
  185.5240  178.2430  143.9240 C   0  0  2  0  0  3  0  0  0  0  0  0
  183.7610  178.6360  141.3560 C   0  0  0  0  0  0  0  0  0  0  0  0
  184.7210  179.0420  140.4550 N   0  0  0  0  0  0  0  0  0  0  0  0
  187.6320  177.2660  137.0240 C   0  0  0  0  0  2  0  0  0  0  0  0
  188.8720  177.3340  140.7400 C   0  0  0  0  0  2  0  0  0  0  0  0
  188.9900  178.1350  139.4500 C   0  0  1  0  0  3  0  0  0  0  0  0
  189.6220  177.2680  138.3520 C   0  0  0  0  0  2  0  0  0  0  0  0
  186.1200  177.4770  146.1170 O   0  0  0  0  0  1  0  0  0  0  0  0
  184.1440  178.6290  145.9620 O   0  0  0  0  0  0  0  0  0  0  0  0
  185.2840  178.0800  145.3900 C   0  0  0  0  0  0  0  0  0  0  0  0
  188.7350  176.3870  134.9710 C   0  0  0  0  0  2  0  0  0  0  0  0
  189.7250  177.5000  134.7100 C   0  0  0  0  0  2  0  0  0  0  0  0
  189.7250  176.7870  136.0520 C   0  0  0  0  0  3  0  0  0  0  0  0
  2 20  2  0  0  0  0
  3  4  1  0  0  0  0
  3 14  1  0  0  0  0
  4  5  1  0  0  0  0
  4 14  1  0  0  0  0
  4 15  1  6  0  0  0
  5 25  1  6  0  0  0
  5 17  1  0  0  0  0
  7 21  1  0  0  0  0
  9  6  1  0  0  0  0
  9  8  1  0  0  0  0
 10 13  1  0  0  0  0
 11 18  1  0  0  0  0
 12 10  1  0  0  0  0
 13 22  1  0  0  0  0
 14 15  1  0  0  0  0
 14  7  1  1  0  0  0
 15 24  2  0  0  0  0
 16 34  1  6  0  0  0
 16 28  1  0  0  0  0
 17 27  1  0  0  0  0
 18  1  2  0  0  0  0
 18 22  1  0  0  0  0
 19  9  2  0  0  0  0
 20  8  1  0  0  0  0
 20  3  1  0  0  0  0
 21 23  2  0  0  0  0
 22 31  1  1  0  0  0
 23 11  1  0  0  0  0
 24 23  1  0  0  0  0
 25 16  1  0  0  0  0
 26 12  1  0  0  0  0
 27 28  1  6  0  0  0
 27 26  1  0  0  0  0
 31 30  2  0  0  0  0
 31 29  1  0  0  0  0
 32 34  1  0  0  0  0
 33 32  1  0  0  0  0
 33 34  1  0  0  0  0
M  END
>  <MODEL>
7

>  <REMARK>
 VINA RESULT:      -6.8      2.321      7.975
  Name = 
  2 active torsions:
  status: ('A' for Active; 'I' for Inactive)
    1  A    between atoms: N_19  and  C_27
    2  A    between atoms: C_21  and  C_28
                            x       y       z     vdW  Elec       q    Type
                         _______ _______ _______ _____ _____    ______ ____

>  <TORSDO>
F 2

$$$$
=
 OpenBabel11042412193D

 34 39  0  0  1  0  0  0  0  0999 V2000
  188.2120  176.6450  135.0350 O   0  0  0  0  0  0  0  0  0  0  0  0
  179.9620  176.2720  139.0000 O   0  0  0  0  0  0  0  0  0  0  0  0
  182.1690  176.7950  138.4880 N   0  0  0  0  0  0  0  0  0  0  0  0
  182.5280  176.2240  137.2330 C   0  0  2  0  0  0  0  0  0  0  0  0
  182.6920  174.7050  137.3570 C   0  0  2  0  0  3  0  0  0  0  0  0
  180.2640  178.4020  142.7050 O   0  0  0  0  0  1  0  0  0  0  0  0
  184.3750  178.2210  139.1530 C   0  0  0  0  0  2  0  0  0  0  0  0
  181.1170  177.5450  140.5920 N   0  0  0  0  0  2  0  0  0  0  0  0
  180.0550  177.6760  141.5410 C   0  0  0  0  0  0  0  0  0  0  0  0
  186.5070  174.2200  137.2010 C   0  0  0  0  0  2  0  0  0  0  0  0
  187.2110  178.1240  136.5620 C   0  0  0  0  0  2  0  0  0  0  0  0
  186.1090  173.0380  136.5760 O   0  0  0  0  0  0  0  0  0  0  0  0
  187.9790  174.4630  136.9290 C   0  0  0  0  0  2  0  0  0  0  0  0
  183.4960  177.4110  138.4620 C   0  0  2  0  0  0  0  0  0  0  0  0
  183.8150  176.8620  137.2200 C   0  0  0  0  0  0  0  0  0  0  0  0
  181.3080  172.6910  136.8400 N   0  0  1  0  0  0  0  0  0  0  0  0
  183.4180  174.1620  136.2060 N   0  0  0  0  0  2  0  0  0  0  0  0
  187.9360  176.8630  136.2050 C   0  0  0  0  0  0  0  0  0  0  0  0
  178.9310  177.1440  141.3360 O   0  0  0  0  0  0  0  0  0  0  0  0
  181.0320  176.8400  139.3480 C   0  0  0  0  0  0  0  0  0  0  0  0
  185.6120  178.4300  138.4850 C   0  0  0  0  0  3  0  0  0  0  0  0
  188.3590  175.8980  137.2800 C   0  0  2  0  0  3  0  0  0  0  0  0
  185.8940  177.8400  137.2050 C   0  0  0  0  0  0  0  0  0  0  0  0
  184.9720  177.0460  136.5590 N   0  0  0  0  0  0  0  0  0  0  0  0
  181.3330  174.0020  137.5050 C   0  0  0  0  0  2  0  0  0  0  0  0
  184.9890  172.6090  137.2930 C   0  0  0  0  0  2  0  0  0  0  0  0
  183.7340  172.7440  136.4390 C   0  0  1  0  0  3  0  0  0  0  0  0
  182.5690  171.9940  137.1000 C   0  0  0  0  0  2  0  0  0  0  0  0
  190.4150  177.1240  137.4300 O   0  0  0  0  0  0  0  0  0  0  0  0
  190.5380  174.8960  137.9560 O   0  0  0  0  0  1  0  0  0  0  0  0
  189.8260  176.0150  137.5460 C   0  0  0  0  0  0  0  0  0  0  0  0
  178.9690  172.7300  137.5120 C   0  0  0  0  0  2  0  0  0  0  0  0
  179.1380  171.6630  136.4540 C   0  0  0  0  0  2  0  0  0  0  0  0
  180.2470  171.9110  137.4630 C   0  0  0  0  0  3  0  0  0  0  0  0
  1 18  2  0  0  0  0
  2 20  2  0  0  0  0
  3 20  1  0  0  0  0
  4 15  1  6  0  0  0
  4  5  1  0  0  0  0
  4 14  1  0  0  0  0
  4  3  1  0  0  0  0
  5 25  1  6  0  0  0
  8  9  1  0  0  0  0
  9  6  1  0  0  0  0
 11 23  1  0  0  0  0
 12 10  1  0  0  0  0
 12 26  1  0  0  0  0
 13 10  1  0  0  0  0
 13 22  1  0  0  0  0
 14  3  1  0  0  0  0
 14  7  1  1  0  0  0
 15 14  1  0  0  0  0
 16 28  1  0  0  0  0
 16 34  1  1  0  0  0
 16 25  1  0  0  0  0
 17 27  1  0  0  0  0
 17  5  1  0  0  0  0
 18 11  1  0  0  0  0
 18 22  1  0  0  0  0
 19  9  2  0  0  0  0
 20  8  1  0  0  0  0
 21  7  1  0  0  0  0
 22 31  1  6  0  0  0
 23 21  2  0  0  0  0
 24 23  1  0  0  0  0
 24 15  2  0  0  0  0
 27 28  1  1  0  0  0
 27 26  1  0  0  0  0
 29 31  2  0  0  0  0
 31 30  1  0  0  0  0
 33 34  1  0  0  0  0
 33 32  1  0  0  0  0
 34 32  1  0  0  0  0
M  END
>  <MODEL>
8

>  <REMARK>
 VINA RESULT:      -6.4      2.974      4.566
  Name = 
  2 active torsions:
  status: ('A' for Active; 'I' for Inactive)
    1  A    between atoms: N_19  and  C_27
    2  A    between atoms: C_21  and  C_28
                            x       y       z     vdW  Elec       q    Type
                         _______ _______ _______ _____ _____    ______ ____

>  <TORSDO>
F 2

$$$$
=
 OpenBabel11042412193D

 34 39  0  0  1  0  0  0  0  0999 V2000
  193.9870  175.9600  136.2740 O   0  0  0  0  0  0  0  0  0  0  0  0
  186.0390  178.6330  139.9630 O   0  0  0  0  0  0  0  0  0  0  0  0
  188.2410  177.9470  139.6640 N   0  0  0  0  0  0  0  0  0  0  0  0
  188.5660  177.9400  138.2770 C   0  0  2  0  0  0  0  0  0  0  0  0
  187.8800  176.7680  137.5660 C   0  0  2  0  0  3  0  0  0  0  0  0
  186.4160  178.1630  144.2050 O   0  0  0  0  0  1  0  0  0  0  0  0
  190.6000  177.3190  140.8390 C   0  0  0  0  0  2  0  0  0  0  0  0
  187.2210  178.0790  141.9090 N   0  0  0  0  0  2  0  0  0  0  0  0
  186.1750  178.3380  142.8490 C   0  0  0  0  0  0  0  0  0  0  0  0
  190.7730  174.3110  136.9280 C   0  0  0  0  0  2  0  0  0  0  0  0
  193.5380  176.8200  138.4130 C   0  0  0  0  0  2  0  0  0  0  0  0
  190.0000  174.0390  135.8000 O   0  0  0  0  0  0  0  0  0  0  0  0
  192.1680  173.7500  136.7330 C   0  0  0  0  0  2  0  0  0  0  0  0
  189.6470  177.6050  139.8830 C   0  0  2  0  0  0  0  0  0  0  0  0
  189.9480  177.6300  138.5210 C   0  0  0  0  0  0  0  0  0  0  0  0
  185.8450  176.4580  136.1510 N   0  0  1  0  0  0  0  0  0  0  0  0
  188.4920  176.5210  136.2580 N   0  0  0  0  0  2  0  0  0  0  0  0
  193.5680  175.7220  137.3960 C   0  0  0  0  0  0  0  0  0  0  0  0
  185.0380  178.7270  142.4670 O   0  0  0  0  0  0  0  0  0  0  0  0
  187.1130  178.2330  140.4890 C   0  0  0  0  0  0  0  0  0  0  0  0
  191.8910  177.0550  140.3050 C   0  0  0  0  0  3  0  0  0  0  0  0
  193.1290  174.3300  137.7650 C   0  0  2  0  0  3  0  0  0  0  0  0
  192.1510  177.0920  138.8920 C   0  0  0  0  0  0  0  0  0  0  0  0
  191.1580  177.3930  137.9850 N   0  0  0  0  0  0  0  0  0  0  0  0
  186.3700  177.0130  137.4060 C   0  0  0  0  0  2  0  0  0  0  0  0
  188.6790  174.0660  136.2510 C   0  0  0  0  0  2  0  0  0  0  0  0
  187.9520  175.2780  135.6830 C   0  0  1  0  0  3  0  0  0  0  0  0
  186.4410  175.1410  135.9190 C   0  0  0  0  0  2  0  0  0  0  0  0
  194.5210  172.4670  137.1780 O   0  0  0  0  0  0  0  0  0  0  0  0
  195.2100  173.7010  138.9830 O   0  0  0  0  0  1  0  0  0  0  0  0
  194.3130  173.4370  137.9570 C   0  0  0  0  0  0  0  0  0  0  0  0
  183.6450  177.1240  135.3490 C   0  0  0  0  0  2  0  0  0  0  0  0
  183.8210  175.6480  135.0740 C   0  0  0  0  0  2  0  0  0  0  0  0
  184.4140  176.2590  136.3320 C   0  0  0  0  0  3  0  0  0  0  0  0
  1 18  2  0  0  0  0
  2 20  2  0  0  0  0
  3 14  1  0  0  0  0
  3 20  1  0  0  0  0
  4 15  1  6  0  0  0
  4  3  1  0  0  0  0
  4 14  1  0  0  0  0
  5 25  1  6  0  0  0
  5  4  1  0  0  0  0
  8  9  1  0  0  0  0
  9  6  1  0  0  0  0
 11 23  1  0  0  0  0
 12 26  1  0  0  0  0
 12 10  1  0  0  0  0
 13 10  1  0  0  0  0
 13 22  1  0  0  0  0
 14  7  1  6  0  0  0
 15 14  1  0  0  0  0
 16 34  1  1  0  0  0
 16 25  1  0  0  0  0
 17  5  1  0  0  0  0
 18 22  1  0  0  0  0
 18 11  1  0  0  0  0
 19  9  2  0  0  0  0
 20  8  1  0  0  0  0
 21  7  1  0  0  0  0
 22 31  1  6  0  0  0
 23 21  2  0  0  0  0
 24 15  2  0  0  0  0
 24 23  1  0  0  0  0
 27 28  1  1  0  0  0
 27 26  1  0  0  0  0
 27 17  1  0  0  0  0
 28 16  1  0  0  0  0
 29 31  2  0  0  0  0
 31 30  1  0  0  0  0
 32 34  1  0  0  0  0
 33 32  1  0  0  0  0
 33 34  1  0  0  0  0
M  END
>  <MODEL>
9

>  <REMARK>
 VINA RESULT:      -5.9      3.108      4.897
  Name = 
  2 active torsions:
  status: ('A' for Active; 'I' for Inactive)
    1  A    between atoms: N_19  and  C_27
    2  A    between atoms: C_21  and  C_28
                            x       y       z     vdW  Elec       q    Type
                         _______ _______ _______ _____ _____    ______ ____

>  <TORSDO>
F 2

$$$$
