=
 OpenBabel11032420243D

 39 41  0  0  1  0  0  0  0  0999 V2000
  190.0870  177.2420  147.3950 C   0  0  0  0  0  0  0  0  0  0  0  0
  190.0560  177.6860  144.5950 C   0  0  1  0  0  3  0  0  0  0  0  0
  189.2000  177.2150  148.2880 O   0  0  0  0  0  0  0  0  0  0  0  0
  189.7410  177.5510  146.0500 N   0  0  0  0  0  0  0  0  0  0  0  0
  188.7840  178.0260  145.0040 C   0  0  2  0  0  3  0  0  0  0  0  0
  187.7810  176.9230  144.6650 C   0  0  2  0  0  3  0  0  0  0  0  0
  187.0690  177.6350  142.3390 C   0  0  0  0  0  3  0  0  0  0  0  0
  187.7920  176.6010  143.1690 C   0  0  0  0  0  2  0  0  0  0  0  0
  186.3530  177.2800  145.0860 C   0  0  0  0  0  2  0  0  0  0  0  0
  185.8570  178.5120  144.3330 C   0  0  0  0  0  2  0  0  0  0  0  0
  186.1360  178.4530  142.8530 C   0  0  0  0  0  0  0  0  0  0  0  0
  185.4290  179.4350  141.9780 C   0  0  0  0  0  2  0  0  0  0  0  0
  184.7220  178.7260  140.8340 C   0  0  0  0  0  2  0  0  0  0  0  0
  183.5710  177.8980  141.3740 C   0  0  0  0  0  2  0  0  0  0  0  0
  180.8090  179.1110  143.5390 C   0  0  0  0  0  2  0  0  0  0  0  0
  180.0620  178.5840  142.3330 C   0  0  0  0  0  2  0  0  0  0  0  0
  181.1020  178.2410  141.2810 C   0  0  0  0  0  2  0  0  0  0  0  0
  182.2720  178.8240  143.2920 C   0  0  0  0  0  2  0  0  0  0  0  0
  182.4150  178.7920  141.7900 C   0  0  0  0  0  3  0  0  0  0  0  0
  191.7850  176.9120  147.8320 S   0  0  0  0  0  0  0  0  0  0  0  0
  191.9120  175.6010  146.5880 C   0  0  0  0  0  1  0  0  0  0  0  0
  190.7900  178.8510  144.3790 O   0  0  0  0  0  0  0  0  0  0  0  0
  191.7330  178.5100  143.4070 C   0  0  0  0  0  2  0  0  0  0  0  0
  191.3550  177.1900  142.7470 C   0  0  0  0  0  2  0  0  0  0  0  0
  192.5040  177.5820  140.6710 N   0  0  0  0  0  2  0  0  0  0  0  0
  191.3970  177.3120  141.2600 C   0  0  0  0  0  0  0  0  0  0  0  0
  190.1910  176.8950  140.4680 C   0  0  0  0  0  2  0  0  0  0  0  0
  190.1060  177.5240  139.0750 C   0  0  2  0  0  3  0  0  0  0  0  0
  189.2740  178.6470  139.0590 O   0  0  0  0  0  1  0  0  0  0  0  0
  189.8210  176.5500  137.9250 C   0  0  2  0  0  3  0  0  0  0  0  0
  188.4900  176.1320  137.9530 O   0  0  0  0  0  1  0  0  0  0  0  0
  190.2380  174.2280  137.6610 O   0  0  0  0  0  0  0  0  0  0  0  0
  190.7480  175.3680  137.8230 C   0  0  0  0  0  0  0  0  0  0  0  0
  192.1350  175.4650  137.9720 O   0  0  0  0  0  0  0  0  0  0  0  0
  193.0380  174.4550  137.5520 C   0  0  0  0  0  2  0  0  0  0  0  0
  194.4720  174.9030  137.7870 C   0  0  0  0  0  2  0  0  0  0  0  0
  196.2480  173.3460  136.9900 O   0  0  0  0  0  0  0  0  0  0  0  0
  195.4790  173.1930  139.1400 O   0  0  0  0  0  1  0  0  0  0  0  0
  195.4010  173.7490  138.0140 C   0  0  0  0  0  0  0  0  0  0  0  0
  1 20  1  0  0  0  0
  1  3  2  0  0  0  0
  2 22  1  1  0  0  0
  2  5  1  0  0  0  0
  2  4  1  0  0  0  0
  4  1  1  0  0  0  0
  5  4  1  1  0  0  0
  6  8  1  6  0  0  0
  6  5  1  0  0  0  0
  6  9  1  0  0  0  0
  7 11  2  0  0  0  0
  7  8  1  0  0  0  0
 10  9  1  0  0  0  0
 11 10  1  0  0  0  0
 12 11  1  0  0  0  0
 13 14  1  0  0  0  0
 13 12  1  0  0  0  0
 14 19  1  0  0  0  0
 16 15  1  0  0  0  0
 17 19  1  0  0  0  0
 17 16  1  0  0  0  0
 18 15  1  0  0  0  0
 19 18  1  0  0  0  0
 21 20  1  0  0  0  0
 23 22  1  0  0  0  0
 24 23  1  0  0  0  0
 25 26  2  0  0  0  0
 26 24  1  0  0  0  0
 27 26  1  0  0  0  0
 28 29  1  1  0  0  0
 28 27  1  0  0  0  0
 30 31  1  1  0  0  0
 30 28  1  0  0  0  0
 32 33  2  0  0  0  0
 33 30  1  0  0  0  0
 33 34  1  0  0  0  0
 35 36  1  0  0  0  0
 35 34  1  0  0  0  0
 36 39  1  0  0  0  0
 37 39  2  0  0  0  0
 39 38  1  0  0  0  0
M  END
>  <MODEL>
1

>  <REMARK>
 VINA RESULT:      -7.0      0.000      0.000
  Name = 
  18 active torsions:
  status: ('A' for Active; 'I' for Inactive)
    1  A    between atoms: C_2  and  C_6
    2  A    between atoms: C_2  and  C_27
    3  A    between atoms: C_4  and  C_30
    4  A    between atoms: C_5  and  C_6
    5  A    between atoms: C_5  and  C_38
    6  A    between atoms: C_8  and  C_34
    7  A    between atoms: C_8  and  C_36
    8  A    between atoms: O_10  and  C_33
    9  A    between atoms: O_10  and  C_36
   10  A    between atoms: C_12  and  S_24
   11  A    between atoms: C_13  and  C_32
   12  A    between atoms: C_13  and  C_33
   13  A    between atoms: C_15  and  O_17
   14  A    between atoms: O_17  and  C_37
   15  A    between atoms: C_19  and  C_23
   16  A    between atoms: C_19  and  C_34
   17  A    between atoms: C_23  and  C_26
   18  A    between atoms: C_26  and  C_37
                            x       y       z     vdW  Elec       q    Type
                         _______ _______ _______ _____ _____    ______ ____

>  <TORSDO>
F 18

$$$$
=
 OpenBabel11032420243D

 39 41  0  0  1  0  0  0  0  0999 V2000
  181.1450  179.1670  141.8810 C   0  0  0  0  0  0  0  0  0  0  0  0
  183.3590  177.9980  140.5510 C   0  0  1  0  0  3  0  0  0  0  0  0
  180.9460  179.5820  143.0520 O   0  0  0  0  0  0  0  0  0  0  0  0
  182.3900  178.5710  141.5330 N   0  0  0  0  0  0  0  0  0  0  0  0
  183.7270  178.0010  141.8800 C   0  0  2  0  0  3  0  0  0  0  0  0
  184.7200  179.1260  142.1760 C   0  0  2  0  0  3  0  0  0  0  0  0
  186.5730  177.8270  143.3190 C   0  0  0  0  0  3  0  0  0  0  0  0
  186.1650  178.6270  142.1040 C   0  0  0  0  0  2  0  0  0  0  0  0
  184.4850  179.7690  143.5450 C   0  0  0  0  0  2  0  0  0  0  0  0
  184.6910  178.7530  144.6660 C   0  0  0  0  0  2  0  0  0  0  0  0
  185.9490  177.9400  144.5030 C   0  0  0  0  0  0  0  0  0  0  0  0
  186.4170  177.1490  145.6800 C   0  0  0  0  0  2  0  0  0  0  0  0
  187.3000  177.9950  146.5820 C   0  0  0  0  0  2  0  0  0  0  0  0
  188.3670  177.1250  147.2210 C   0  0  0  0  0  2  0  0  0  0  0  0
  191.2780  176.9550  144.9240 C   0  0  0  0  0  2  0  0  0  0  0  0
  191.8460  176.3790  146.2020 C   0  0  0  0  0  2  0  0  0  0  0  0
  190.8000  176.5820  147.2840 C   0  0  0  0  0  2  0  0  0  0  0  0
  189.8200  177.2440  145.1980 C   0  0  0  0  0  2  0  0  0  0  0  0
  189.7430  177.4820  146.6860 C   0  0  0  0  0  3  0  0  0  0  0  0
  179.8480  179.3100  140.6640 S   0  0  0  0  0  0  0  0  0  0  0  0
  180.8670  180.3830  139.6190 C   0  0  0  0  0  1  0  0  0  0  0  0
  182.9620  176.7120  140.1930 O   0  0  0  0  0  0  0  0  0  0  0  0
  182.5220  176.8230  138.8720 C   0  0  0  0  0  2  0  0  0  0  0  0
  183.4560  176.0610  137.9400 C   0  0  0  0  0  2  0  0  0  0  0  0
  182.7800  177.2960  135.9910 N   0  0  0  0  0  2  0  0  0  0  0  0
  183.7450  176.8600  136.7130 C   0  0  0  0  0  0  0  0  0  0  0  0
  185.1520  177.3290  136.4730 C   0  0  0  0  0  2  0  0  0  0  0  0
  186.0250  176.3310  135.7080 C   0  0  2  0  0  3  0  0  0  0  0  0
  185.2660  175.3050  135.1360 O   0  0  0  0  0  1  0  0  0  0  0  0
  187.2580  175.8160  136.4610 C   0  0  2  0  0  3  0  0  0  0  0  0
  186.8990  174.8220  137.3710 O   0  0  0  0  0  1  0  0  0  0  0  0
  189.0100  177.4180  136.4480 O   0  0  0  0  0  0  0  0  0  0  0  0
  188.1040  176.8680  137.1280 C   0  0  0  0  0  0  0  0  0  0  0  0
  187.9820  177.2080  138.4790 O   0  0  0  0  0  0  0  0  0  0  0  0
  188.7990  178.1770  139.1170 C   0  0  0  0  0  2  0  0  0  0  0  0
  189.2670  177.6590  140.4680 C   0  0  0  0  0  2  0  0  0  0  0  0
  190.8100  176.0200  139.3960 O   0  0  0  0  0  0  0  0  0  0  0  0
  191.5400  177.2940  141.1510 O   0  0  0  0  0  1  0  0  0  0  0  0
  190.5950  176.9710  140.3870 C   0  0  0  0  0  0  0  0  0  0  0  0
  1  3  2  0  0  0  0
  2 22  1  1  0  0  0
  2  4  1  0  0  0  0
  2  5  1  0  0  0  0
  4  1  1  0  0  0  0
  5  4  1  1  0  0  0
  5  6  1  0  0  0  0
  6  8  1  1  0  0  0
  6  9  1  0  0  0  0
  7 11  2  0  0  0  0
  8  7  1  0  0  0  0
  9 10  1  0  0  0  0
 11 10  1  0  0  0  0
 11 12  1  0  0  0  0
 12 13  1  0  0  0  0
 13 14  1  0  0  0  0
 15 18  1  0  0  0  0
 15 16  1  0  0  0  0
 16 17  1  0  0  0  0
 18 19  1  0  0  0  0
 19 14  1  0  0  0  0
 19 17  1  0  0  0  0
 20  1  1  0  0  0  0
 21 20  1  0  0  0  0
 23 22  1  0  0  0  0
 24 23  1  0  0  0  0
 25 26  2  0  0  0  0
 26 24  1  0  0  0  0
 27 26  1  0  0  0  0
 28 29  1  1  0  0  0
 28 30  1  0  0  0  0
 28 27  1  0  0  0  0
 30 33  1  0  0  0  0
 30 31  1  1  0  0  0
 32 33  2  0  0  0  0
 33 34  1  0  0  0  0
 34 35  1  0  0  0  0
 35 36  1  0  0  0  0
 37 39  2  0  0  0  0
 39 36  1  0  0  0  0
 39 38  1  0  0  0  0
M  END
>  <MODEL>
2

>  <REMARK>
 VINA RESULT:      -7.0      4.207      7.736
  Name = 
  18 active torsions:
  status: ('A' for Active; 'I' for Inactive)
    1  A    between atoms: C_2  and  C_6
    2  A    between atoms: C_2  and  C_27
    3  A    between atoms: C_4  and  C_30
    4  A    between atoms: C_5  and  C_6
    5  A    between atoms: C_5  and  C_38
    6  A    between atoms: C_8  and  C_34
    7  A    between atoms: C_8  and  C_36
    8  A    between atoms: O_10  and  C_33
    9  A    between atoms: O_10  and  C_36
   10  A    between atoms: C_12  and  S_24
   11  A    between atoms: C_13  and  C_32
   12  A    between atoms: C_13  and  C_33
   13  A    between atoms: C_15  and  O_17
   14  A    between atoms: O_17  and  C_37
   15  A    between atoms: C_19  and  C_23
   16  A    between atoms: C_19  and  C_34
   17  A    between atoms: C_23  and  C_26
   18  A    between atoms: C_26  and  C_37
                            x       y       z     vdW  Elec       q    Type
                         _______ _______ _______ _____ _____    ______ ____

>  <TORSDO>
F 18

$$$$
=
 OpenBabel11032420243D

 39 41  0  0  1  0  0  0  0  0999 V2000
  191.5230  175.4980  137.7860 C   0  0  0  0  0  0  0  0  0  0  0  0
  189.5940  177.5740  137.6900 C   0  0  1  0  0  3  0  0  0  0  0  0
  191.4660  174.2440  137.7010 O   0  0  0  0  0  0  0  0  0  0  0  0
  190.3320  176.2750  137.7480 N   0  0  0  0  0  0  0  0  0  0  0  0
  188.8440  176.4200  137.7680 C   0  0  2  0  0  3  0  0  0  0  0  0
  188.2580  176.0480  136.4050 C   0  0  2  0  0  3  0  0  0  0  0  0
  186.2510  177.5930  136.3210 C   0  0  0  0  0  3  0  0  0  0  0  0
  187.6010  177.2560  135.7340 C   0  0  0  0  0  2  0  0  0  0  0  0
  187.2350  174.9130  136.4980 C   0  0  0  0  0  2  0  0  0  0  0  0
  186.0350  175.3310  137.3440 C   0  0  0  0  0  2  0  0  0  0  0  0
  185.5070  176.6960  136.9890 C   0  0  0  0  0  0  0  0  0  0  0  0
  184.1640  177.0770  137.5190 C   0  0  0  0  0  2  0  0  0  0  0  0
  184.2260  178.4120  138.2410 C   0  0  0  0  0  2  0  0  0  0  0  0
  183.2640  178.4090  139.4150 C   0  0  0  0  0  2  0  0  0  0  0  0
  184.1360  178.8580  142.9950 C   0  0  0  0  0  2  0  0  0  0  0  0
  185.3910  179.3400  142.2980 C   0  0  0  0  0  2  0  0  0  0  0  0
  185.2310  179.0150  140.8230 C   0  0  0  0  0  2  0  0  0  0  0  0
  183.1520  178.5060  141.9040 C   0  0  0  0  0  2  0  0  0  0  0  0
  184.0040  178.1390  140.7140 C   0  0  0  0  0  3  0  0  0  0  0  0
  193.1080  176.2950  137.9790 S   0  0  0  0  0  0  0  0  0  0  0  0
  193.5390  175.9880  136.2470 C   0  0  0  0  0  1  0  0  0  0  0  0
  189.6190  178.1840  138.9420 O   0  0  0  0  0  0  0  0  0  0  0  0
  188.7900  177.3980  139.7460 C   0  0  0  0  0  2  0  0  0  0  0  0
  189.0800  177.6620  141.2180 C   0  0  0  0  0  2  0  0  0  0  0  0
  191.4420  177.2410  141.0540 N   0  0  0  0  0  2  0  0  0  0  0  0
  190.3340  176.9720  141.6400 C   0  0  0  0  0  0  0  0  0  0  0  0
  190.3140  176.1430  142.8930 C   0  0  0  0  0  2  0  0  0  0  0  0
  191.5990  176.2260  143.7210 C   0  0  2  0  0  3  0  0  0  0  0  0
  192.0490  174.9620  144.1140 O   0  0  0  0  0  1  0  0  0  0  0  0
  191.5820  177.2410  144.8710 C   0  0  2  0  0  3  0  0  0  0  0  0
  191.6320  176.5880  146.1040 O   0  0  0  0  0  1  0  0  0  0  0  0
  190.5770  179.2490  144.1000 O   0  0  0  0  0  0  0  0  0  0  0  0
  190.4560  178.2410  144.8450 C   0  0  0  0  0  0  0  0  0  0  0  0
  189.3230  178.1420  145.6590 O   0  0  0  0  0  0  0  0  0  0  0  0
  188.2980  177.1820  145.4560 C   0  0  0  0  0  2  0  0  0  0  0  0
  186.9650  177.8780  145.2310 C   0  0  0  0  0  2  0  0  0  0  0  0
  186.8890  178.0880  147.7140 O   0  0  0  0  0  1  0  0  0  0  0  0
  184.9690  178.3210  146.4910 O   0  0  0  0  0  0  0  0  0  0  0  0
  186.2040  178.0810  146.5060 C   0  0  0  0  0  0  0  0  0  0  0  0
  1 20  1  0  0  0  0
  2  4  1  0  0  0  0
  2  5  1  0  0  0  0
  2 22  1  1  0  0  0
  3  1  2  0  0  0  0
  4  1  1  0  0  0  0
  5  4  1  6  0  0  0
  6  8  1  1  0  0  0
  6  9  1  0  0  0  0
  6  5  1  0  0  0  0
  7 11  2  0  0  0  0
  8  7  1  0  0  0  0
  9 10  1  0  0  0  0
 11 10  1  0  0  0  0
 11 12  1  0  0  0  0
 12 13  1  0  0  0  0
 13 14  1  0  0  0  0
 14 19  1  0  0  0  0
 16 15  1  0  0  0  0
 17 16  1  0  0  0  0
 18 15  1  0  0  0  0
 19 17  1  0  0  0  0
 19 18  1  0  0  0  0
 21 20  1  0  0  0  0
 22 23  1  0  0  0  0
 23 24  1  0  0  0  0
 24 26  1  0  0  0  0
 25 26  2  0  0  0  0
 26 27  1  0  0  0  0
 27 28  1  0  0  0  0
 28 29  1  1  0  0  0
 28 30  1  0  0  0  0
 30 31  1  1  0  0  0
 32 33  2  0  0  0  0
 33 30  1  0  0  0  0
 33 34  1  0  0  0  0
 35 34  1  0  0  0  0
 36 35  1  0  0  0  0
 36 39  1  0  0  0  0
 38 39  2  0  0  0  0
 39 37  1  0  0  0  0
M  END
>  <MODEL>
3

>  <REMARK>
 VINA RESULT:      -6.9      2.819      7.719
  Name = 
  18 active torsions:
  status: ('A' for Active; 'I' for Inactive)
    1  A    between atoms: C_2  and  C_6
    2  A    between atoms: C_2  and  C_27
    3  A    between atoms: C_4  and  C_30
    4  A    between atoms: C_5  and  C_6
    5  A    between atoms: C_5  and  C_38
    6  A    between atoms: C_8  and  C_34
    7  A    between atoms: C_8  and  C_36
    8  A    between atoms: O_10  and  C_33
    9  A    between atoms: O_10  and  C_36
   10  A    between atoms: C_12  and  S_24
   11  A    between atoms: C_13  and  C_32
   12  A    between atoms: C_13  and  C_33
   13  A    between atoms: C_15  and  O_17
   14  A    between atoms: O_17  and  C_37
   15  A    between atoms: C_19  and  C_23
   16  A    between atoms: C_19  and  C_34
   17  A    between atoms: C_23  and  C_26
   18  A    between atoms: C_26  and  C_37
                            x       y       z     vdW  Elec       q    Type
                         _______ _______ _______ _____ _____    ______ ____

>  <TORSDO>
F 18

$$$$
=
 OpenBabel11032420243D

 39 41  0  0  1  0  0  0  0  0999 V2000
  190.6430  176.9130  146.8760 C   0  0  0  0  0  0  0  0  0  0  0  0
  189.0010  177.4880  144.6380 C   0  0  1  0  0  3  0  0  0  0  0  0
  190.5390  177.1130  148.1150 O   0  0  0  0  0  0  0  0  0  0  0  0
  189.6370  177.3810  145.9860 N   0  0  0  0  0  0  0  0  0  0  0  0
  188.4120  178.1800  145.6750 C   0  0  2  0  0  3  0  0  0  0  0  0
  187.1650  177.4550  146.1850 C   0  0  2  0  0  3  0  0  0  0  0  0
  185.6170  177.7340  144.1980 C   0  0  0  0  0  3  0  0  0  0  0  0
  186.4150  176.7690  145.0420 C   0  0  0  0  0  2  0  0  0  0  0  0
  186.2030  178.3920  146.9190 C   0  0  0  0  0  2  0  0  0  0  0  0
  185.6770  179.4750  145.9800 C   0  0  0  0  0  2  0  0  0  0  0  0
  185.2180  178.9340  144.6510 C   0  0  0  0  0  0  0  0  0  0  0  0
  184.4010  179.8330  143.7830 C   0  0  0  0  0  2  0  0  0  0  0  0
  183.4790  179.0260  142.8850 C   0  0  0  0  0  2  0  0  0  0  0  0
  182.0620  179.0720  143.4270 C   0  0  0  0  0  2  0  0  0  0  0  0
  180.7110  178.7780  139.9810 C   0  0  0  0  0  2  0  0  0  0  0  0
  179.7560  179.7650  140.6160 C   0  0  0  0  0  2  0  0  0  0  0  0
  180.0870  179.8150  142.0970 C   0  0  0  0  0  2  0  0  0  0  0  0
  181.7560  178.4640  141.0280 C   0  0  0  0  0  2  0  0  0  0  0  0
  181.0620  178.6870  142.3490 C   0  0  0  0  0  3  0  0  0  0  0  0
  192.0740  176.0570  146.2420 S   0  0  0  0  0  0  0  0  0  0  0  0
  192.6340  175.6320  147.9120 C   0  0  0  0  0  1  0  0  0  0  0  0
  189.7210  178.3810  143.8480 O   0  0  0  0  0  0  0  0  0  0  0  0
  190.0830  177.6520  142.7130 C   0  0  0  0  0  2  0  0  0  0  0  0
  188.8450  177.0530  142.0560 C   0  0  0  0  0  2  0  0  0  0  0  0
  187.2310  178.6880  141.3470 N   0  0  0  0  0  2  0  0  0  0  0  0
  188.2700  177.9970  141.0530 C   0  0  0  0  0  0  0  0  0  0  0  0
  189.0520  178.2850  139.8030 C   0  0  0  0  0  2  0  0  0  0  0  0
  189.0060  177.1640  138.7610 C   0  0  2  0  0  3  0  0  0  0  0  0
  190.0430  177.2740  137.8310 O   0  0  0  0  0  1  0  0  0  0  0  0
  187.6380  176.9210  138.1100 C   0  0  2  0  0  3  0  0  0  0  0  0
  187.7280  175.9260  137.1360 O   0  0  0  0  0  1  0  0  0  0  0  0
  187.3220  178.5810  136.4430 O   0  0  0  0  0  0  0  0  0  0  0  0
  186.9480  178.1420  137.5620 C   0  0  0  0  0  0  0  0  0  0  0  0
  185.9690  178.8510  138.2650 O   0  0  0  0  0  0  0  0  0  0  0  0
  184.7440  178.2740  138.6920 C   0  0  0  0  0  2  0  0  0  0  0  0
  184.0550  177.5840  137.5260 C   0  0  0  0  0  2  0  0  0  0  0  0
  184.3700  175.1120  137.5840 O   0  0  0  0  0  0  0  0  0  0  0  0
  182.4940  176.0440  138.5060 O   0  0  0  0  0  1  0  0  0  0  0  0
  183.5720  176.2100  137.8800 C   0  0  0  0  0  0  0  0  0  0  0  0
  1  3  2  0  0  0  0
  2 22  1  6  0  0  0
  2  5  1  0  0  0  0
  2  4  1  0  0  0  0
  4  1  1  0  0  0  0
  5  4  1  1  0  0  0
  5  6  1  0  0  0  0
  6  8  1  6  0  0  0
  6  9  1  0  0  0  0
  7 11  2  0  0  0  0
  7  8  1  0  0  0  0
 10  9  1  0  0  0  0
 11 10  1  0  0  0  0
 12 11  1  0  0  0  0
 13 14  1  0  0  0  0
 13 12  1  0  0  0  0
 15 16  1  0  0  0  0
 15 18  1  0  0  0  0
 16 17  1  0  0  0  0
 17 19  1  0  0  0  0
 18 19  1  0  0  0  0
 19 14  1  0  0  0  0
 20  1  1  0  0  0  0
 20 21  1  0  0  0  0
 23 22  1  0  0  0  0
 24 23  1  0  0  0  0
 26 25  2  0  0  0  0
 26 24  1  0  0  0  0
 27 26  1  0  0  0  0
 28 29  1  6  0  0  0
 28 27  1  0  0  0  0
 30 31  1  6  0  0  0
 30 28  1  0  0  0  0
 32 33  2  0  0  0  0
 33 30  1  0  0  0  0
 33 34  1  0  0  0  0
 34 35  1  0  0  0  0
 36 39  1  0  0  0  0
 36 35  1  0  0  0  0
 37 39  2  0  0  0  0
 39 38  1  0  0  0  0
M  END
>  <MODEL>
4

>  <REMARK>
 VINA RESULT:      -6.9      2.918      4.857
  Name = 
  18 active torsions:
  status: ('A' for Active; 'I' for Inactive)
    1  A    between atoms: C_2  and  C_6
    2  A    between atoms: C_2  and  C_27
    3  A    between atoms: C_4  and  C_30
    4  A    between atoms: C_5  and  C_6
    5  A    between atoms: C_5  and  C_38
    6  A    between atoms: C_8  and  C_34
    7  A    between atoms: C_8  and  C_36
    8  A    between atoms: O_10  and  C_33
    9  A    between atoms: O_10  and  C_36
   10  A    between atoms: C_12  and  S_24
   11  A    between atoms: C_13  and  C_32
   12  A    between atoms: C_13  and  C_33
   13  A    between atoms: C_15  and  O_17
   14  A    between atoms: O_17  and  C_37
   15  A    between atoms: C_19  and  C_23
   16  A    between atoms: C_19  and  C_34
   17  A    between atoms: C_23  and  C_26
   18  A    between atoms: C_26  and  C_37
                            x       y       z     vdW  Elec       q    Type
                         _______ _______ _______ _____ _____    ______ ____

>  <TORSDO>
F 18

$$$$
=
 OpenBabel11032420243D

 39 41  0  0  1  0  0  0  0  0999 V2000
  190.2910  177.2560  147.4590 C   0  0  0  0  0  0  0  0  0  0  0  0
  189.8490  177.2090  144.6590 C   0  0  1  0  0  3  0  0  0  0  0  0
  189.5700  177.5220  148.4550 O   0  0  0  0  0  0  0  0  0  0  0  0
  189.7670  177.3770  146.1410 N   0  0  0  0  0  0  0  0  0  0  0  0
  188.7170  177.8070  145.1690 C   0  0  2  0  0  3  0  0  0  0  0  0
  187.5400  176.8310  145.1960 C   0  0  2  0  0  3  0  0  0  0  0  0
  186.0420  177.8530  143.4260 C   0  0  0  0  0  3  0  0  0  0  0  0
  186.9100  176.6790  143.8100 C   0  0  0  0  0  2  0  0  0  0  0  0
  186.4550  177.2500  146.1910 C   0  0  0  0  0  2  0  0  0  0  0  0
  185.8460  178.5930  145.7980 C   0  0  0  0  0  2  0  0  0  0  0  0
  185.4970  178.6790  144.3340 C   0  0  0  0  0  0  0  0  0  0  0  0
  184.6180  179.8040  143.8980 C   0  0  0  0  0  2  0  0  0  0  0  0
  183.1540  179.4040  143.9680 C   0  0  0  0  0  2  0  0  0  0  0  0
  182.6720  178.9710  142.5950 C   0  0  0  0  0  2  0  0  0  0  0  0
  179.0250  179.6610  142.6750 C   0  0  0  0  0  2  0  0  0  0  0  0
  179.2650  179.0530  144.0400 C   0  0  0  0  0  2  0  0  0  0  0  0
  180.6950  178.5410  144.0530 C   0  0  0  0  0  2  0  0  0  0  0  0
  180.3760  179.7420  142.0020 C   0  0  0  0  0  2  0  0  0  0  0  0
  181.1900  178.6370  142.6280 C   0  0  0  0  0  3  0  0  0  0  0  0
  191.9830  176.7470  147.7080 S   0  0  0  0  0  0  0  0  0  0  0  0
  191.9300  175.6570  146.2620 C   0  0  0  0  0  1  0  0  0  0  0  0
  190.6770  178.1900  144.1190 O   0  0  0  0  0  0  0  0  0  0  0  0
  190.1950  178.3990  142.8240 C   0  0  0  0  0  2  0  0  0  0  0  0
  190.7620  177.3500  141.8760 C   0  0  0  0  0  2  0  0  0  0  0  0
  188.8900  177.9220  140.4780 N   0  0  0  0  0  2  0  0  0  0  0  0
  190.0520  177.3860  140.5640 C   0  0  0  0  0  0  0  0  0  0  0  0
  190.8070  176.9970  139.3250 C   0  0  0  0  0  2  0  0  0  0  0  0
  190.0940  175.9590  138.4540 C   0  0  2  0  0  3  0  0  0  0  0  0
  190.8840  174.8260  138.2400 O   0  0  0  0  0  1  0  0  0  0  0  0
  189.4570  176.4980  137.1680 C   0  0  2  0  0  3  0  0  0  0  0  0
  189.7180  177.8620  137.0240 O   0  0  0  0  0  1  0  0  0  0  0  0
  187.6150  175.0150  136.9590 O   0  0  0  0  0  0  0  0  0  0  0  0
  187.9870  176.2170  136.9970 C   0  0  0  0  0  0  0  0  0  0  0  0
  187.0310  177.2200  136.8050 O   0  0  0  0  0  0  0  0  0  0  0  0
  185.7650  177.2240  137.4450 C   0  0  0  0  0  2  0  0  0  0  0  0
  185.7540  178.2350  138.5800 C   0  0  0  0  0  2  0  0  0  0  0  0
  184.3710  180.2040  139.2320 O   0  0  0  0  0  1  0  0  0  0  0  0
  183.3660  178.3490  138.3450 O   0  0  0  0  0  0  0  0  0  0  0  0
  184.4240  178.9090  138.7320 C   0  0  0  0  0  0  0  0  0  0  0  0
  1 20  1  0  0  0  0
  1  3  2  0  0  0  0
  2 22  1  6  0  0  0
  2  5  1  0  0  0  0
  2  4  1  0  0  0  0
  4  1  1  0  0  0  0
  5  6  1  0  0  0  0
  5  4  1  1  0  0  0
  6  8  1  6  0  0  0
  6  9  1  0  0  0  0
  7  8  1  0  0  0  0
  7 11  2  0  0  0  0
 10  9  1  0  0  0  0
 11 10  1  0  0  0  0
 12 13  1  0  0  0  0
 12 11  1  0  0  0  0
 14 19  1  0  0  0  0
 14 13  1  0  0  0  0
 15 16  1  0  0  0  0
 16 17  1  0  0  0  0
 18 19  1  0  0  0  0
 18 15  1  0  0  0  0
 19 17  1  0  0  0  0
 21 20  1  0  0  0  0
 23 22  1  0  0  0  0
 24 23  1  0  0  0  0
 25 26  2  0  0  0  0
 26 24  1  0  0  0  0
 27 26  1  0  0  0  0
 28 29  1  6  0  0  0
 28 27  1  0  0  0  0
 30 31  1  1  0  0  0
 30 28  1  0  0  0  0
 32 33  2  0  0  0  0
 33 30  1  0  0  0  0
 34 33  1  0  0  0  0
 34 35  1  0  0  0  0
 35 36  1  0  0  0  0
 36 39  1  0  0  0  0
 38 39  2  0  0  0  0
 39 37  1  0  0  0  0
M  END
>  <MODEL>
5

>  <REMARK>
 VINA RESULT:      -6.7      2.145      4.570
  Name = 
  18 active torsions:
  status: ('A' for Active; 'I' for Inactive)
    1  A    between atoms: C_2  and  C_6
    2  A    between atoms: C_2  and  C_27
    3  A    between atoms: C_4  and  C_30
    4  A    between atoms: C_5  and  C_6
    5  A    between atoms: C_5  and  C_38
    6  A    between atoms: C_8  and  C_34
    7  A    between atoms: C_8  and  C_36
    8  A    between atoms: O_10  and  C_33
    9  A    between atoms: O_10  and  C_36
   10  A    between atoms: C_12  and  S_24
   11  A    between atoms: C_13  and  C_32
   12  A    between atoms: C_13  and  C_33
   13  A    between atoms: C_15  and  O_17
   14  A    between atoms: O_17  and  C_37
   15  A    between atoms: C_19  and  C_23
   16  A    between atoms: C_19  and  C_34
   17  A    between atoms: C_23  and  C_26
   18  A    between atoms: C_26  and  C_37
                            x       y       z     vdW  Elec       q    Type
                         _______ _______ _______ _____ _____    ______ ____

>  <TORSDO>
F 18

$$$$
=
 OpenBabel11032420243D

 39 41  0  0  1  0  0  0  0  0999 V2000
  183.8740  174.5740  136.8180 C   0  0  0  0  0  0  0  0  0  0  0  0
  184.4000  177.3100  137.3400 C   0  0  1  0  0  3  0  0  0  0  0  0
  183.0160  173.7510  137.2340 O   0  0  0  0  0  0  0  0  0  0  0  0
  183.9000  175.9020  137.3280 N   0  0  0  0  0  0  0  0  0  0  0  0
  183.4700  176.9570  138.2950 C   0  0  2  0  0  3  0  0  0  0  0  0
  182.0780  177.4740  137.9290 C   0  0  2  0  0  3  0  0  0  0  0  0
  181.9380  179.5300  139.4040 C   0  0  0  0  0  3  0  0  0  0  0  0
  182.0170  179.0010  137.9920 C   0  0  0  0  0  2  0  0  0  0  0  0
  180.9830  176.8960  138.8300 C   0  0  0  0  0  2  0  0  0  0  0  0
  181.1940  177.3190  140.2820 C   0  0  0  0  0  2  0  0  0  0  0  0
  181.4940  178.7880  140.4320 C   0  0  0  0  0  0  0  0  0  0  0  0
  181.4060  179.3750  141.8020 C   0  0  0  0  0  2  0  0  0  0  0  0
  182.2450  178.5760  142.7850 C   0  0  0  0  0  2  0  0  0  0  0  0
  183.7150  178.7040  142.4310 C   0  0  0  0  0  2  0  0  0  0  0  0
  186.0180  178.2510  145.3080 C   0  0  0  0  0  2  0  0  0  0  0  0
  184.7030  178.5460  145.9950 C   0  0  0  0  0  2  0  0  0  0  0  0
  183.7170  178.9510  144.9120 C   0  0  0  0  0  2  0  0  0  0  0  0
  185.7260  178.2230  143.8250 C   0  0  0  0  0  2  0  0  0  0  0  0
  184.5260  179.1200  143.6470 C   0  0  0  0  0  3  0  0  0  0  0  0
  185.0710  174.0560  135.6000 S   0  0  0  0  0  0  0  0  0  0  0  0
  186.3690  173.9070  136.8540 C   0  0  0  0  0  1  0  0  0  0  0  0
  185.6610  177.3570  137.9300 O   0  0  0  0  0  0  0  0  0  0  0  0
  186.4360  178.1360  137.0680 C   0  0  0  0  0  2  0  0  0  0  0  0
  187.7400  177.4190  136.7400 C   0  0  0  0  0  2  0  0  0  0  0  0
  188.9770  179.3840  137.3680 N   0  0  0  0  0  2  0  0  0  0  0  0
  188.8960  178.1040  137.3880 C   0  0  0  0  0  0  0  0  0  0  0  0
  189.8260  177.2940  138.2460 C   0  0  0  0  0  2  0  0  0  0  0  0
  189.9890  177.8250  139.6720 C   0  0  2  0  0  3  0  0  0  0  0  0
  191.2750  177.5980  140.1700 O   0  0  0  0  0  1  0  0  0  0  0  0
  188.8840  177.4260  140.6580 C   0  0  2  0  0  3  0  0  0  0  0  0
  187.8410  178.3520  140.6300 O   0  0  0  0  0  1  0  0  0  0  0  0
  189.7300  176.0140  142.3690 O   0  0  0  0  0  0  0  0  0  0  0  0
  189.3300  177.1710  142.0730 C   0  0  0  0  0  0  0  0  0  0  0  0
  189.2530  178.1310  143.0870 O   0  0  0  0  0  0  0  0  0  0  0  0
  190.1520  178.1820  144.1840 C   0  0  0  0  0  2  0  0  0  0  0  0
  189.5940  177.3900  145.3560 C   0  0  0  0  0  2  0  0  0  0  0  0
  190.1780  177.1110  147.7630 O   0  0  0  0  0  1  0  0  0  0  0  0
  191.8210  177.0130  146.1720 O   0  0  0  0  0  0  0  0  0  0  0  0
  190.6050  177.1880  146.4430 C   0  0  0  0  0  0  0  0  0  0  0  0
  1  3  2  0  0  0  0
  1  4  1  0  0  0  0
  2 22  1  1  0  0  0
  2  5  1  0  0  0  0
  4  2  1  0  0  0  0
  5  4  1  6  0  0  0
  6  8  1  1  0  0  0
  6  5  1  0  0  0  0
  6  9  1  0  0  0  0
  7 11  2  0  0  0  0
  8  7  1  0  0  0  0
  9 10  1  0  0  0  0
 10 11  1  0  0  0  0
 11 12  1  0  0  0  0
 12 13  1  0  0  0  0
 14 13  1  0  0  0  0
 14 19  1  0  0  0  0
 15 16  1  0  0  0  0
 17 16  1  0  0  0  0
 18 15  1  0  0  0  0
 19 18  1  0  0  0  0
 19 17  1  0  0  0  0
 20  1  1  0  0  0  0
 20 21  1  0  0  0  0
 23 22  1  0  0  0  0
 24 23  1  0  0  0  0
 24 26  1  0  0  0  0
 25 26  2  0  0  0  0
 26 27  1  0  0  0  0
 27 28  1  0  0  0  0
 28 29  1  1  0  0  0
 28 30  1  0  0  0  0
 30 31  1  1  0  0  0
 30 33  1  0  0  0  0
 33 32  2  0  0  0  0
 33 34  1  0  0  0  0
 34 35  1  0  0  0  0
 35 36  1  0  0  0  0
 36 39  1  0  0  0  0
 38 39  2  0  0  0  0
 39 37  1  0  0  0  0
M  END
>  <MODEL>
6

>  <REMARK>
 VINA RESULT:      -6.7      3.915      7.596
  Name = 
  18 active torsions:
  status: ('A' for Active; 'I' for Inactive)
    1  A    between atoms: C_2  and  C_6
    2  A    between atoms: C_2  and  C_27
    3  A    between atoms: C_4  and  C_30
    4  A    between atoms: C_5  and  C_6
    5  A    between atoms: C_5  and  C_38
    6  A    between atoms: C_8  and  C_34
    7  A    between atoms: C_8  and  C_36
    8  A    between atoms: O_10  and  C_33
    9  A    between atoms: O_10  and  C_36
   10  A    between atoms: C_12  and  S_24
   11  A    between atoms: C_13  and  C_32
   12  A    between atoms: C_13  and  C_33
   13  A    between atoms: C_15  and  O_17
   14  A    between atoms: O_17  and  C_37
   15  A    between atoms: C_19  and  C_23
   16  A    between atoms: C_19  and  C_34
   17  A    between atoms: C_23  and  C_26
   18  A    between atoms: C_26  and  C_37
                            x       y       z     vdW  Elec       q    Type
                         _______ _______ _______ _____ _____    ______ ____

>  <TORSDO>
F 18

$$$$
=
 OpenBabel11032420243D

 39 41  0  0  1  0  0  0  0  0999 V2000
  190.0600  177.4810  147.6830 C   0  0  0  0  0  0  0  0  0  0  0  0
  190.3010  177.4400  144.8580 C   0  0  1  0  0  3  0  0  0  0  0  0
  189.0970  177.6430  148.4780 O   0  0  0  0  0  0  0  0  0  0  0  0
  189.8520  177.5680  146.2780 N   0  0  0  0  0  0  0  0  0  0  0  0
  189.0180  177.8950  145.0810 C   0  0  2  0  0  3  0  0  0  0  0  0
  187.9900  176.7890  144.8360 C   0  0  2  0  0  3  0  0  0  0  0  0
  186.9660  177.5770  142.6550 C   0  0  0  0  0  3  0  0  0  0  0  0
  187.8040  176.5240  143.3400 C   0  0  0  0  0  2  0  0  0  0  0  0
  186.6280  177.1090  145.4560 C   0  0  0  0  0  2  0  0  0  0  0  0
  186.0230  178.3610  144.8250 C   0  0  0  0  0  2  0  0  0  0  0  0
  186.1020  178.3610  143.3200 C   0  0  0  0  0  0  0  0  0  0  0  0
  185.2740  179.3640  142.5850 C   0  0  0  0  0  2  0  0  0  0  0  0
  185.1540  178.9920  141.1170 C   0  0  0  0  0  2  0  0  0  0  0  0
  183.7010  178.7220  140.7700 C   0  0  0  0  0  2  0  0  0  0  0  0
  182.9520  177.0930  137.5190 C   0  0  0  0  0  2  0  0  0  0  0  0
  181.8880  176.5080  138.4230 C   0  0  0  0  0  2  0  0  0  0  0  0
  182.2170  176.9480  139.8380 C   0  0  0  0  0  2  0  0  0  0  0  0
  183.7300  178.0790  138.3610 C   0  0  0  0  0  2  0  0  0  0  0  0
  183.5900  177.5780  139.7770 C   0  0  0  0  0  3  0  0  0  0  0  0
  191.6920  177.1650  148.3300 S   0  0  0  0  0  0  0  0  0  0  0  0
  191.9170  175.7440  147.2290 C   0  0  0  0  0  1  0  0  0  0  0  0
  191.1130  178.5200  144.5220 O   0  0  0  0  0  0  0  0  0  0  0  0
  191.0210  178.6260  143.1320 C   0  0  0  0  0  2  0  0  0  0  0  0
  191.6410  177.4010  142.4700 C   0  0  0  0  0  2  0  0  0  0  0  0
  192.4530  177.5180  140.2100 N   0  0  0  0  0  2  0  0  0  0  0  0
  191.4400  177.4430  140.9920 C   0  0  0  0  0  0  0  0  0  0  0  0
  190.0690  177.1690  140.4420 C   0  0  0  0  0  2  0  0  0  0  0  0
  189.6690  178.0720  139.2730 C   0  0  2  0  0  3  0  0  0  0  0  0
  188.4310  178.6850  139.4870 O   0  0  0  0  0  1  0  0  0  0  0  0
  189.7940  177.4460  137.8780 C   0  0  2  0  0  3  0  0  0  0  0  0
  188.8450  177.9860  137.0100 O   0  0  0  0  0  1  0  0  0  0  0  0
  188.6960  175.3830  137.4620 O   0  0  0  0  0  0  0  0  0  0  0  0
  189.7620  175.9410  137.8310 C   0  0  0  0  0  0  0  0  0  0  0  0
  190.8290  175.1380  138.2460 O   0  0  0  0  0  0  0  0  0  0  0  0
  191.6700  174.4320  137.3460 C   0  0  0  0  0  2  0  0  0  0  0  0
  193.1120  174.8840  137.5130 C   0  0  0  0  0  2  0  0  0  0  0  0
  192.8600  175.9990  135.2980 O   0  0  0  0  0  0  0  0  0  0  0  0
  194.3200  176.8480  136.8410 O   0  0  0  0  0  1  0  0  0  0  0  0
  193.4930  175.9510  136.5330 C   0  0  0  0  0  0  0  0  0  0  0  0
  1 20  1  0  0  0  0
  1  3  2  0  0  0  0
  2 22  1  1  0  0  0
  2  5  1  0  0  0  0
  2  4  1  0  0  0  0
  4  1  1  0  0  0  0
  5  4  1  1  0  0  0
  6  8  1  6  0  0  0
  6  5  1  0  0  0  0
  6  9  1  0  0  0  0
  7 11  2  0  0  0  0
  7  8  1  0  0  0  0
 10  9  1  0  0  0  0
 11 10  1  0  0  0  0
 12 11  1  0  0  0  0
 13 12  1  0  0  0  0
 14 13  1  0  0  0  0
 15 18  1  0  0  0  0
 15 16  1  0  0  0  0
 16 17  1  0  0  0  0
 18 19  1  0  0  0  0
 19 17  1  0  0  0  0
 19 14  1  0  0  0  0
 21 20  1  0  0  0  0
 23 22  1  0  0  0  0
 24 23  1  0  0  0  0
 25 26  2  0  0  0  0
 26 24  1  0  0  0  0
 27 26  1  0  0  0  0
 28 29  1  1  0  0  0
 28 27  1  0  0  0  0
 30 31  1  6  0  0  0
 30 28  1  0  0  0  0
 32 33  2  0  0  0  0
 33 30  1  0  0  0  0
 33 34  1  0  0  0  0
 35 36  1  0  0  0  0
 35 34  1  0  0  0  0
 37 39  2  0  0  0  0
 39 38  1  0  0  0  0
 39 36  1  0  0  0  0
M  END
>  <MODEL>
7

>  <REMARK>
 VINA RESULT:      -6.6      1.631      2.160
  Name = 
  18 active torsions:
  status: ('A' for Active; 'I' for Inactive)
    1  A    between atoms: C_2  and  C_6
    2  A    between atoms: C_2  and  C_27
    3  A    between atoms: C_4  and  C_30
    4  A    between atoms: C_5  and  C_6
    5  A    between atoms: C_5  and  C_38
    6  A    between atoms: C_8  and  C_34
    7  A    between atoms: C_8  and  C_36
    8  A    between atoms: O_10  and  C_33
    9  A    between atoms: O_10  and  C_36
   10  A    between atoms: C_12  and  S_24
   11  A    between atoms: C_13  and  C_32
   12  A    between atoms: C_13  and  C_33
   13  A    between atoms: C_15  and  O_17
   14  A    between atoms: O_17  and  C_37
   15  A    between atoms: C_19  and  C_23
   16  A    between atoms: C_19  and  C_34
   17  A    between atoms: C_23  and  C_26
   18  A    between atoms: C_26  and  C_37
                            x       y       z     vdW  Elec       q    Type
                         _______ _______ _______ _____ _____    ______ ____

>  <TORSDO>
F 18

$$$$
=
 OpenBabel11032420243D

 39 41  0  0  1  0  0  0  0  0999 V2000
  191.8350  176.5870  137.8660 C   0  0  0  0  0  0  0  0  0  0  0  0
  189.2120  177.5700  138.3010 C   0  0  1  0  0  3  0  0  0  0  0  0
  192.8270  176.3760  138.6120 O   0  0  0  0  0  0  0  0  0  0  0  0
  190.6420  177.1490  138.4000 N   0  0  0  0  0  0  0  0  0  0  0  0
  189.8640  177.8100  139.4920 C   0  0  2  0  0  3  0  0  0  0  0  0
  189.4690  176.7830  140.5550 C   0  0  2  0  0  3  0  0  0  0  0  0
  189.0580  178.3020  142.5420 C   0  0  0  0  0  3  0  0  0  0  0  0
  188.4440  177.3620  141.5330 C   0  0  0  0  0  2  0  0  0  0  0  0
  190.6730  176.2660  141.3460 C   0  0  0  0  0  2  0  0  0  0  0  0
  191.3430  177.3990  142.1190 C   0  0  0  0  0  2  0  0  0  0  0  0
  190.3630  178.2690  142.8630 C   0  0  0  0  0  0  0  0  0  0  0  0
  190.9090  179.2000  143.8940 C   0  0  0  0  0  2  0  0  0  0  0  0
  191.5240  178.4260  145.0480 C   0  0  0  0  0  2  0  0  0  0  0  0
  190.5460  177.3770  145.5440 C   0  0  0  0  0  2  0  0  0  0  0  0
  188.1530  177.6470  148.3700 C   0  0  0  0  0  2  0  0  0  0  0  0
  187.2290  177.4940  147.1820 C   0  0  0  0  0  2  0  0  0  0  0  0
  188.0910  177.5760  145.9340 C   0  0  0  0  0  2  0  0  0  0  0  0
  189.5610  177.5470  147.8290 C   0  0  0  0  0  2  0  0  0  0  0  0
  189.4620  178.0140  146.3970 C   0  0  0  0  0  3  0  0  0  0  0  0
  191.9430  176.1960  136.1290 S   0  0  0  0  0  0  0  0  0  0  0  0
  191.1600  174.5820  136.3830 C   0  0  0  0  0  1  0  0  0  0  0  0
  189.1210  178.7620  137.5860 O   0  0  0  0  0  0  0  0  0  0  0  0
  187.8800  178.7080  136.9470 C   0  0  0  0  0  2  0  0  0  0  0  0
  187.1110  177.4710  137.3950 C   0  0  0  0  0  2  0  0  0  0  0  0
  185.0420  177.5020  136.1700 N   0  0  0  0  0  2  0  0  0  0  0  0
  185.6400  177.6960  137.2880 C   0  0  0  0  0  0  0  0  0  0  0  0
  184.8520  177.9280  138.5460 C   0  0  0  0  0  2  0  0  0  0  0  0
  183.9370  179.1540  138.4980 C   0  0  2  0  0  3  0  0  0  0  0  0
  184.4930  180.2470  139.1690 O   0  0  0  0  0  1  0  0  0  0  0  0
  182.4710  178.9020  138.8730 C   0  0  2  0  0  3  0  0  0  0  0  0
  181.7230  180.0730  138.7480 O   0  0  0  0  0  1  0  0  0  0  0  0
  181.7660  177.0990  140.2470 O   0  0  0  0  0  0  0  0  0  0  0  0
  182.2400  178.2650  140.2180 C   0  0  0  0  0  0  0  0  0  0  0  0
  182.4570  178.9290  141.4290 O   0  0  0  0  0  0  0  0  0  0  0  0
  183.3790  178.4820  142.4110 C   0  0  0  0  0  2  0  0  0  0  0  0
  182.9880  179.0170  143.7790 C   0  0  0  0  0  2  0  0  0  0  0  0
  183.8670  178.9910  146.1120 O   0  0  0  0  0  1  0  0  0  0  0  0
  185.3200  178.9150  144.3450 O   0  0  0  0  0  0  0  0  0  0  0  0
  184.1310  179.0000  144.7480 C   0  0  0  0  0  0  0  0  0  0  0  0
  1  4  1  0  0  0  0
  1  3  2  0  0  0  0
  2 22  1  6  0  0  0
  2  4  1  0  0  0  0
  2  5  1  0  0  0  0
  5  4  1  6  0  0  0
  5  6  1  0  0  0  0
  6  9  1  1  0  0  0
  6  8  1  0  0  0  0
  7 11  2  0  0  0  0
  8  7  1  0  0  0  0
  9 10  1  0  0  0  0
 10 11  1  0  0  0  0
 11 12  1  0  0  0  0
 12 13  1  0  0  0  0
 13 14  1  0  0  0  0
 14 19  1  0  0  0  0
 16 15  1  0  0  0  0
 17 19  1  0  0  0  0
 17 16  1  0  0  0  0
 18 15  1  0  0  0  0
 19 18  1  0  0  0  0
 20 21  1  0  0  0  0
 20  1  1  0  0  0  0
 23 24  1  0  0  0  0
 23 22  1  0  0  0  0
 25 26  2  0  0  0  0
 26 24  1  0  0  0  0
 26 27  1  0  0  0  0
 28 27  1  0  0  0  0
 28 30  1  0  0  0  0
 28 29  1  1  0  0  0
 30 31  1  1  0  0  0
 30 33  1  0  0  0  0
 33 32  2  0  0  0  0
 33 34  1  0  0  0  0
 34 35  1  0  0  0  0
 35 36  1  0  0  0  0
 36 39  1  0  0  0  0
 38 39  2  0  0  0  0
 39 37  1  0  0  0  0
M  END
>  <MODEL>
8

>  <REMARK>
 VINA RESULT:      -6.5      3.855      8.725
  Name = 
  18 active torsions:
  status: ('A' for Active; 'I' for Inactive)
    1  A    between atoms: C_2  and  C_6
    2  A    between atoms: C_2  and  C_27
    3  A    between atoms: C_4  and  C_30
    4  A    between atoms: C_5  and  C_6
    5  A    between atoms: C_5  and  C_38
    6  A    between atoms: C_8  and  C_34
    7  A    between atoms: C_8  and  C_36
    8  A    between atoms: O_10  and  C_33
    9  A    between atoms: O_10  and  C_36
   10  A    between atoms: C_12  and  S_24
   11  A    between atoms: C_13  and  C_32
   12  A    between atoms: C_13  and  C_33
   13  A    between atoms: C_15  and  O_17
   14  A    between atoms: O_17  and  C_37
   15  A    between atoms: C_19  and  C_23
   16  A    between atoms: C_19  and  C_34
   17  A    between atoms: C_23  and  C_26
   18  A    between atoms: C_26  and  C_37
                            x       y       z     vdW  Elec       q    Type
                         _______ _______ _______ _____ _____    ______ ____

>  <TORSDO>
F 18

$$$$
=
 OpenBabel11032420243D

 39 41  0  0  1  0  0  0  0  0999 V2000
  181.4750  174.8020  137.5700 C   0  0  0  0  0  0  0  0  0  0  0  0
  183.6710  176.5730  137.2870 C   0  0  1  0  0  3  0  0  0  0  0  0
  180.6950  174.5180  138.5160 O   0  0  0  0  0  0  0  0  0  0  0  0
  182.5380  175.7260  137.7710 N   0  0  0  0  0  0  0  0  0  0  0  0
  183.4080  176.5750  138.6410 C   0  0  2  0  0  3  0  0  0  0  0  0
  182.6620  177.8430  139.0580 C   0  0  2  0  0  3  0  0  0  0  0  0
  184.5960  179.3020  139.8030 C   0  0  0  0  0  3  0  0  0  0  0  0
  183.4980  179.0950  138.7870 C   0  0  0  0  0  2  0  0  0  0  0  0
  182.2580  177.8260  140.5340 C   0  0  0  0  0  2  0  0  0  0  0  0
  183.4900  177.7770  141.4350 C   0  0  0  0  0  2  0  0  0  0  0  0
  184.5560  178.7630  141.0320 C   0  0  0  0  0  0  0  0  0  0  0  0
  185.6540  179.0280  142.0080 C   0  0  0  0  0  2  0  0  0  0  0  0
  185.6310  178.0110  143.1370 C   0  0  0  0  0  2  0  0  0  0  0  0
  185.3570  178.7110  144.4560 C   0  0  0  0  0  2  0  0  0  0  0  0
  187.1660  178.1630  147.6520 C   0  0  0  0  0  2  0  0  0  0  0  0
  188.0820  177.4960  146.6480 C   0  0  0  0  0  2  0  0  0  0  0  0
  187.3460  177.4790  145.3200 C   0  0  0  0  0  2  0  0  0  0  0  0
  186.0290  178.7640  146.8570 C   0  0  0  0  0  2  0  0  0  0  0  0
  185.9280  177.9120  145.6160 C   0  0  0  0  0  3  0  0  0  0  0  0
  181.2540  174.0200  135.9820 S   0  0  0  0  0  0  0  0  0  0  0  0
  179.4710  174.3460  136.0050 C   0  0  0  0  0  1  0  0  0  0  0  0
  184.7850  175.7740  137.0420 O   0  0  0  0  0  0  0  0  0  0  0  0
  185.8830  176.5690  137.3790 C   0  0  0  0  0  2  0  0  0  0  0  0
  186.4960  177.1780  136.1240 C   0  0  0  0  0  2  0  0  0  0  0  0
  187.1160  179.4050  136.7860 N   0  0  0  0  0  2  0  0  0  0  0  0
  187.5020  178.2210  136.4800 C   0  0  0  0  0  0  0  0  0  0  0  0
  188.9290  177.8040  136.6920 C   0  0  0  0  0  2  0  0  0  0  0  0
  189.2850  177.5030  138.1510 C   0  0  2  0  0  3  0  0  0  0  0  0
  189.4190  178.6710  138.9070 O   0  0  0  0  0  1  0  0  0  0  0  0
  190.4410  176.5160  138.3600 C   0  0  2  0  0  3  0  0  0  0  0  0
  190.0070  175.2040  138.1680 O   0  0  0  0  0  1  0  0  0  0  0  0
  192.3340  177.1580  139.6400 O   0  0  0  0  0  0  0  0  0  0  0  0
  191.1840  176.6460  139.6630 C   0  0  0  0  0  0  0  0  0  0  0  0
  190.6930  176.1600  140.8790 O   0  0  0  0  0  0  0  0  0  0  0  0
  190.1120  176.9900  141.8730 C   0  0  0  0  0  2  0  0  0  0  0  0
  190.2670  176.3510  143.2440 C   0  0  0  0  0  2  0  0  0  0  0  0
  191.7730  178.2940  143.6590 O   0  0  0  0  0  0  0  0  0  0  0  0
  191.3200  176.8200  145.3510 O   0  0  0  0  0  1  0  0  0  0  0  0
  191.1670  177.1410  144.1440 C   0  0  0  0  0  0  0  0  0  0  0  0
  1  4  1  0  0  0  0
  1  3  2  0  0  0  0
  2 22  1  1  0  0  0
  2  4  1  0  0  0  0
  2  5  1  0  0  0  0
  5  4  1  6  0  0  0
  5  6  1  0  0  0  0
  6  8  1  1  0  0  0
  6  9  1  0  0  0  0
  7 11  2  0  0  0  0
  8  7  1  0  0  0  0
  9 10  1  0  0  0  0
 11 10  1  0  0  0  0
 11 12  1  0  0  0  0
 12 13  1  0  0  0  0
 13 14  1  0  0  0  0
 14 19  1  0  0  0  0
 16 15  1  0  0  0  0
 17 19  1  0  0  0  0
 17 16  1  0  0  0  0
 18 15  1  0  0  0  0
 19 18  1  0  0  0  0
 20 21  1  0  0  0  0
 20  1  1  0  0  0  0
 22 23  1  0  0  0  0
 24 26  1  0  0  0  0
 24 23  1  0  0  0  0
 26 27  1  0  0  0  0
 26 25  2  0  0  0  0
 27 28  1  0  0  0  0
 28 30  1  0  0  0  0
 28 29  1  6  0  0  0
 30 31  1  1  0  0  0
 30 33  1  0  0  0  0
 32 33  2  0  0  0  0
 33 34  1  0  0  0  0
 34 35  1  0  0  0  0
 35 36  1  0  0  0  0
 36 39  1  0  0  0  0
 37 39  2  0  0  0  0
 39 38  1  0  0  0  0
M  END
>  <MODEL>
9

>  <REMARK>
 VINA RESULT:      -6.5      4.267      7.696
  Name = 
  18 active torsions:
  status: ('A' for Active; 'I' for Inactive)
    1  A    between atoms: C_2  and  C_6
    2  A    between atoms: C_2  and  C_27
    3  A    between atoms: C_4  and  C_30
    4  A    between atoms: C_5  and  C_6
    5  A    between atoms: C_5  and  C_38
    6  A    between atoms: C_8  and  C_34
    7  A    between atoms: C_8  and  C_36
    8  A    between atoms: O_10  and  C_33
    9  A    between atoms: O_10  and  C_36
   10  A    between atoms: C_12  and  S_24
   11  A    between atoms: C_13  and  C_32
   12  A    between atoms: C_13  and  C_33
   13  A    between atoms: C_15  and  O_17
   14  A    between atoms: O_17  and  C_37
   15  A    between atoms: C_19  and  C_23
   16  A    between atoms: C_19  and  C_34
   17  A    between atoms: C_23  and  C_26
   18  A    between atoms: C_26  and  C_37
                            x       y       z     vdW  Elec       q    Type
                         _______ _______ _______ _____ _____    ______ ____

>  <TORSDO>
F 18

$$$$
