=
 OpenBabel11042410363D

 44 47  0  0  1  0  0  0  0  0999 V2000
  189.8270  177.0880  141.5590 C   0  0  0  0  0  3  0  0  0  0  0  0
  189.1000  177.4970  138.8660 C   0  0  0  0  0  0  0  0  0  0  0  0
  190.7210  176.4040  140.5390 C   0  0  0  0  0  3  0  0  0  0  0  0
  188.3680  178.0530  139.8240 C   0  0  0  0  0  3  0  0  0  0  0  0
  190.2610  176.6950  139.1440 C   0  0  2  0  0  3  0  0  0  0  0  0
  188.7550  177.8460  141.2430 C   0  0  0  0  0  0  0  0  0  0  0  0
  190.7920  176.3210  137.9890 C   0  0  0  0  0  0  0  0  0  0  0  0
  189.9520  176.8450  136.8860 C   0  0  0  0  0  0  0  0  0  0  0  0
  188.9490  177.5560  137.4230 C   0  0  0  0  0  0  0  0  0  0  0  0
  191.9420  175.4720  137.8830 N   0  0  0  0  0  2  0  0  0  0  0  0
  193.2950  175.9210  137.7850 C   0  0  0  0  0  0  0  0  0  0  0  0
  193.6060  177.1050  138.0950 O   0  0  0  0  0  0  0  0  0  0  0  0
  195.1520  174.4680  138.5920 C   0  0  0  0  0  2  0  0  0  0  0  0
  195.3040  172.9650  138.4430 C   0  0  0  0  0  2  0  0  0  0  0  0
  193.7510  173.7100  136.7600 C   0  0  0  0  0  2  0  0  0  0  0  0
  194.3550  174.9450  137.3900 C   0  0  0  0  0  3  0  0  0  0  0  0
  194.7100  172.5960  137.0990 C   0  0  0  0  0  2  0  0  0  0  0  0
  189.6270  175.5280  134.9160 O   0  0  0  0  0  0  0  0  0  0  0  0
  190.1460  176.5380  135.4590 C   0  0  0  0  0  3  0  0  0  0  0  0
  187.6040  178.3770  136.5650 S   0  0  0  0  0  0  0  0  0  0  0  0
  186.5880  176.8690  136.5680 C   0  0  0  0  0  2  0  0  0  0  0  0
  185.1270  177.2280  136.3720 C   0  0  0  0  0  2  0  0  0  0  0  0
  184.2350  176.1540  136.9710 C   0  0  0  0  0  2  0  0  0  0  0  0
  182.7410  175.6750  138.7500 O   0  0  0  0  0  1  0  0  0  0  0  0
  183.5990  176.6600  138.2550 C   0  0  2  0  0  3  0  0  0  0  0  0
  182.8650  177.8250  137.9910 O   0  0  0  0  0  0  0  0  0  0  0  0
  182.8890  178.5760  139.1780 C   0  0  1  0  0  3  0  0  0  0  0  0
  184.3280  178.9970  139.4960 C   0  0  1  0  0  3  0  0  0  0  0  0
  184.5830  180.2790  138.9980 O   0  0  0  0  0  1  0  0  0  0  0  0
  183.8790  178.0060  141.8380 C   0  0  0  0  0  1  0  0  0  0  0  0
  184.6020  178.9750  140.9690 C   0  0  0  0  0  0  0  0  0  0  0  0
  185.4290  179.7290  141.4590 O   0  0  0  0  0  0  0  0  0  0  0  0
  182.0270  179.8250  139.0040 C   0  0  0  0  0  2  0  0  0  0  0  0
  181.1020  179.6720  137.8130 C   0  0  0  0  0  1  0  0  0  0  0  0
  187.9950  178.4230  142.3170 N   0  0  0  0  0  2  0  0  0  0  0  0
  189.1390  177.7730  144.3700 C   0  0  0  0  0  3  0  0  0  0  0  0
  187.9380  178.0000  143.6890 C   0  0  0  0  0  0  0  0  0  0  0  0
  189.1390  177.3660  145.7120 C   0  0  0  0  0  0  0  0  0  0  0  0
  186.7110  177.4230  145.7060 C   0  0  0  0  0  3  0  0  0  0  0  0
  187.9160  177.1900  146.3760 C   0  0  0  0  0  3  0  0  0  0  0  0
  186.7240  177.8280  144.3700 C   0  0  0  0  0  3  0  0  0  0  0  0
  190.4390  177.0710  147.6760 O   0  0  0  0  0  0  0  0  0  0  0  0
  190.4100  177.1220  146.4180 C   0  0  0  0  0  0  0  0  0  0  0  0
  191.6180  176.9360  145.6850 N   0  0  0  0  0  1  0  0  0  0  0  0
  2  5  1  0  0  0  0
  2  4  1  0  0  0  0
  3  1  2  0  0  0  0
  4  6  2  0  0  0  0
  5  3  1  6  0  0  0
  6  1  1  0  0  0  0
  6 35  1  0  0  0  0
  7  5  1  0  0  0  0
  8  9  1  0  0  0  0
  8  7  2  0  0  0  0
  9  2  2  0  0  0  0
 10  7  1  0  0  0  0
 11 10  1  0  0  0  0
 11 12  2  0  0  0  0
 14 13  1  0  0  0  0
 15 17  1  0  0  0  0
 15 16  1  0  0  0  0
 16 11  1  0  0  0  0
 16 13  1  0  0  0  0
 17 14  1  0  0  0  0
 18 19  2  0  0  0  0
 19  8  1  0  0  0  0
 20 21  1  0  0  0  0
 20  9  1  0  0  0  0
 22 21  1  0  0  0  0
 22 23  1  0  0  0  0
 23 25  1  0  0  0  0
 25 24  1  6  0  0  0
 26 25  1  0  0  0  0
 26 27  1  0  0  0  0
 27 33  1  6  0  0  0
 27 28  1  0  0  0  0
 28 29  1  1  0  0  0
 28 31  1  0  0  0  0
 31 32  2  0  0  0  0
 31 30  1  0  0  0  0
 34 33  1  0  0  0  0
 35 37  1  0  0  0  0
 36 38  1  0  0  0  0
 37 36  2  0  0  0  0
 37 41  1  0  0  0  0
 38 40  2  0  0  0  0
 38 43  1  0  0  0  0
 39 40  1  0  0  0  0
 41 39  2  0  0  0  0
 43 42  2  0  0  0  0
 44 43  1  0  0  0  0
M  END
>  <MODEL>
1

>  <REMARK>
 VINA RESULT:      -7.7      0.000      0.000
  Name = 
  16 active torsions:
  status: ('A' for Active; 'I' for Inactive)
    1  A    between atoms: N_4  and  C_36
    2  A    between atoms: C_5  and  C_14
    3  A    between atoms: C_5  and  C_23
    4  A    between atoms: C_6  and  N_7
    5  A    between atoms: N_7  and  C_35
    6  A    between atoms: C_8  and  C_29
    7  A    between atoms: C_9  and  C_38
    8  A    between atoms: C_14  and  C_16
    9  A    between atoms: C_14  and  O_31
   10  A    between atoms: C_15  and  C_22
   11  A    between atoms: C_15  and  C_40
   12  A    between atoms: C_17  and  S_18
   13  A    between atoms: C_17  and  C_22
   14  A    between atoms: S_18  and  C_39
   15  A    between atoms: C_21  and  C_37
   16  A    between atoms: O_31  and  C_40
                            x       y       z     vdW  Elec       q    Type
                         _______ _______ _______ _____ _____    ______ ____

>  <TORSDO>
F 16

$$$$
=
 OpenBabel11042410363D

 44 47  0  0  1  0  0  0  0  0999 V2000
  187.2920  178.4030  142.3530 C   0  0  0  0  0  3  0  0  0  0  0  0
  187.9590  178.1170  139.6290 C   0  0  0  0  0  0  0  0  0  0  0  0
  186.1140  178.4330  141.3940 C   0  0  0  0  0  3  0  0  0  0  0  0
  188.9290  178.1110  140.5350 C   0  0  0  0  0  3  0  0  0  0  0  0
  186.5710  178.2570  139.9790 C   0  0  2  0  0  3  0  0  0  0  0  0
  188.5780  178.2520  141.9720 C   0  0  0  0  0  0  0  0  0  0  0  0
  185.8540  178.1880  138.8670 C   0  0  0  0  0  0  0  0  0  0  0  0
  186.7740  178.0340  137.7150 C   0  0  0  0  0  0  0  0  0  0  0  0
  188.0300  177.9830  138.1840 C   0  0  0  0  0  0  0  0  0  0  0  0
  184.4290  178.3320  138.8330 N   0  0  0  0  0  2  0  0  0  0  0  0
  183.7180  179.5630  138.9880 C   0  0  0  0  0  0  0  0  0  0  0  0
  184.3110  180.6710  138.8610 O   0  0  0  0  0  0  0  0  0  0  0  0
  181.5020  180.4500  138.2720 C   0  0  0  0  0  2  0  0  0  0  0  0
  180.2990  179.6780  137.7610 C   0  0  0  0  0  2  0  0  0  0  0  0
  181.6920  178.1350  138.9790 C   0  0  0  0  0  2  0  0  0  0  0  0
  182.2430  179.5220  139.2200 C   0  0  0  0  0  3  0  0  0  0  0  0
  180.2760  178.3590  138.5080 C   0  0  0  0  0  2  0  0  0  0  0  0
  186.3360  176.9950  135.6060 O   0  0  0  0  0  0  0  0  0  0  0  0
  186.3640  178.0440  136.3010 C   0  0  0  0  0  3  0  0  0  0  0  0
  189.5500  177.8540  137.2400 S   0  0  0  0  0  0  0  0  0  0  0  0
  189.4780  176.0370  137.2380 C   0  0  0  0  0  2  0  0  0  0  0  0
  190.5570  175.4730  138.1430 C   0  0  0  0  0  2  0  0  0  0  0  0
  191.7000  176.4630  138.2810 C   0  0  0  0  0  2  0  0  0  0  0  0
  192.8830  176.1460  136.2500 O   0  0  0  0  0  1  0  0  0  0  0  0
  192.9530  175.9070  137.6250 C   0  0  2  0  0  3  0  0  0  0  0  0
  193.0320  174.5260  137.8530 O   0  0  0  0  0  0  0  0  0  0  0  0
  194.2110  174.0960  137.2210 C   0  0  1  0  0  3  0  0  0  0  0  0
  195.3680  174.1010  138.2250 C   0  0  1  0  0  3  0  0  0  0  0  0
  195.3950  172.9040  138.9470 O   0  0  0  0  0  1  0  0  0  0  0  0
  197.6570  173.1700  137.4740 C   0  0  0  0  0  1  0  0  0  0  0  0
  196.6910  174.3000  137.5480 C   0  0  0  0  0  0  0  0  0  0  0  0
  196.9740  175.3750  137.0400 O   0  0  0  0  0  0  0  0  0  0  0  0
  194.0120  172.6770  136.6920 C   0  0  0  0  0  2  0  0  0  0  0  0
  193.0540  172.6760  135.5170 C   0  0  0  0  0  1  0  0  0  0  0  0
  189.5900  178.2530  142.9910 N   0  0  0  0  0  2  0  0  0  0  0  0
  190.6120  177.2770  144.9780 C   0  0  0  0  0  3  0  0  0  0  0  0
  189.4780  177.8040  144.3510 C   0  0  0  0  0  0  0  0  0  0  0  0
  190.5580  176.8320  146.3070 C   0  0  0  0  0  0  0  0  0  0  0  0
  188.2130  177.4540  146.3970 C   0  0  0  0  0  3  0  0  0  0  0  0
  189.3490  176.9220  147.0120 C   0  0  0  0  0  3  0  0  0  0  0  0
  188.2780  177.8950  145.0730 C   0  0  0  0  0  3  0  0  0  0  0  0
  192.3730  175.3070  146.4290 O   0  0  0  0  0  0  0  0  0  0  0  0
  191.7580  176.2720  146.9560 C   0  0  0  0  0  0  0  0  0  0  0  0
  192.2370  176.8180  148.1810 N   0  0  0  0  0  1  0  0  0  0  0  0
  2  5  1  0  0  0  0
  2  4  1  0  0  0  0
  3  1  2  0  0  0  0
  4  6  2  0  0  0  0
  5  3  1  1  0  0  0
  6  1  1  0  0  0  0
  6 35  1  0  0  0  0
  7  5  1  0  0  0  0
  8  9  1  0  0  0  0
  8  7  2  0  0  0  0
  9  2  2  0  0  0  0
 10  7  1  0  0  0  0
 10 11  1  0  0  0  0
 11 16  1  0  0  0  0
 12 11  2  0  0  0  0
 13 16  1  0  0  0  0
 14 13  1  0  0  0  0
 14 17  1  0  0  0  0
 15 16  1  0  0  0  0
 17 15  1  0  0  0  0
 18 19  2  0  0  0  0
 19  8  1  0  0  0  0
 20  9  1  0  0  0  0
 21 20  1  0  0  0  0
 21 22  1  0  0  0  0
 22 23  1  0  0  0  0
 25 24  1  6  0  0  0
 25 26  1  0  0  0  0
 25 23  1  0  0  0  0
 27 33  1  1  0  0  0
 27 26  1  0  0  0  0
 27 28  1  0  0  0  0
 28 29  1  6  0  0  0
 30 31  1  0  0  0  0
 31 28  1  0  0  0  0
 32 31  2  0  0  0  0
 34 33  1  0  0  0  0
 35 37  1  0  0  0  0
 36 38  1  0  0  0  0
 37 36  2  0  0  0  0
 37 41  1  0  0  0  0
 38 43  1  0  0  0  0
 38 40  2  0  0  0  0
 39 40  1  0  0  0  0
 41 39  2  0  0  0  0
 42 43  2  0  0  0  0
 43 44  1  0  0  0  0
M  END
>  <MODEL>
2

>  <REMARK>
 VINA RESULT:      -7.2      2.071      8.772
  Name = 
  16 active torsions:
  status: ('A' for Active; 'I' for Inactive)
    1  A    between atoms: N_4  and  C_36
    2  A    between atoms: C_5  and  C_14
    3  A    between atoms: C_5  and  C_23
    4  A    between atoms: C_6  and  N_7
    5  A    between atoms: N_7  and  C_35
    6  A    between atoms: C_8  and  C_29
    7  A    between atoms: C_9  and  C_38
    8  A    between atoms: C_14  and  C_16
    9  A    between atoms: C_14  and  O_31
   10  A    between atoms: C_15  and  C_22
   11  A    between atoms: C_15  and  C_40
   12  A    between atoms: C_17  and  S_18
   13  A    between atoms: C_17  and  C_22
   14  A    between atoms: S_18  and  C_39
   15  A    between atoms: C_21  and  C_37
   16  A    between atoms: O_31  and  C_40
                            x       y       z     vdW  Elec       q    Type
                         _______ _______ _______ _____ _____    ______ ____

>  <TORSDO>
F 16

$$$$
=
 OpenBabel11042410363D

 44 47  0  0  1  0  0  0  0  0999 V2000
  192.1610  175.7740  136.3110 C   0  0  0  0  0  3  0  0  0  0  0  0
  191.4500  176.7280  138.8660 C   0  0  0  0  0  0  0  0  0  0  0  0
  190.6770  176.0220  136.5160 C   0  0  0  0  0  3  0  0  0  0  0  0
  192.7270  176.4770  138.6030 C   0  0  0  0  0  3  0  0  0  0  0  0
  190.4060  176.5400  137.8950 C   0  0  0  0  0  0  0  0  0  0  0  0
  193.1040  175.9830  137.2540 C   0  0  0  0  0  0  0  0  0  0  0  0
  189.2590  176.9110  138.4430 C   0  0  0  0  0  0  0  0  0  0  0  0
  189.5110  177.3290  139.8430 C   0  0  0  0  0  0  0  0  0  0  0  0
  190.8270  177.2250  140.0810 C   0  0  1  0  0  3  0  0  0  0  0  0
  187.9940  176.8190  137.7740 N   0  0  0  0  0  2  0  0  0  0  0  0
  187.1690  177.9280  137.4090 C   0  0  0  0  0  0  0  0  0  0  0  0
  187.6400  179.0990  137.3750 O   0  0  0  0  0  0  0  0  0  0  0  0
  185.5350  176.2090  136.6440 C   0  0  0  0  0  2  0  0  0  0  0  0
  184.2170  175.8110  137.2850 C   0  0  0  0  0  2  0  0  0  0  0  0
  184.7880  178.0070  138.0950 C   0  0  0  0  0  2  0  0  0  0  0  0
  185.7600  177.6720  136.9860 C   0  0  0  0  0  3  0  0  0  0  0  0
  183.6240  177.0710  137.8830 C   0  0  0  0  0  2  0  0  0  0  0  0
  188.4300  178.8230  141.3660 O   0  0  0  0  0  0  0  0  0  0  0  0
  188.4670  177.6920  140.8160 C   0  0  0  0  0  3  0  0  0  0  0  0
  191.6930  177.5500  141.6180 S   0  0  0  0  0  0  0  0  0  0  0  0
  190.7590  176.2630  142.4990 C   0  0  0  0  0  2  0  0  0  0  0  0
  190.6590  176.6100  143.9720 C   0  0  0  0  0  2  0  0  0  0  0  0
  189.2050  176.6610  144.4060 C   0  0  0  0  0  2  0  0  0  0  0  0
  190.1940  177.3960  146.4320 O   0  0  0  0  0  1  0  0  0  0  0  0
  189.0570  177.5430  145.6340 C   0  0  2  0  0  3  0  0  0  0  0  0
  187.9240  177.1530  146.3620 O   0  0  0  0  0  0  0  0  0  0  0  0
  187.1350  178.3070  146.5000 C   0  0  1  0  0  3  0  0  0  0  0  0
  185.6730  177.9760  146.1870 C   0  0  1  0  0  3  0  0  0  0  0  0
  184.8340  178.4620  147.1960 O   0  0  0  0  0  1  0  0  0  0  0  0
  185.9310  178.1130  143.6220 C   0  0  0  0  0  1  0  0  0  0  0  0
  185.2420  178.5450  144.8690 C   0  0  0  0  0  0  0  0  0  0  0  0
  184.3180  179.3420  144.8080 O   0  0  0  0  0  0  0  0  0  0  0  0
  187.2380  178.8200  147.9350 C   0  0  0  0  0  2  0  0  0  0  0  0
  187.9750  177.8230  148.8070 C   0  0  0  0  0  1  0  0  0  0  0  0
  194.4700  175.6940  136.9190 N   0  0  0  0  0  2  0  0  0  0  0  0
  194.5070  173.2560  136.9110 C   0  0  0  0  0  3  0  0  0  0  0  0
  195.1870  174.4630  137.1070 C   0  0  0  0  0  0  0  0  0  0  0  0
  195.1630  172.0260  137.0740 C   0  0  0  0  0  0  0  0  0  0  0  0
  197.2080  173.2140  137.6240 C   0  0  0  0  0  3  0  0  0  0  0  0
  196.5180  172.0140  137.4340 C   0  0  0  0  0  3  0  0  0  0  0  0
  196.5450  174.4330  137.4580 C   0  0  0  0  0  3  0  0  0  0  0  0
  194.7160  169.7480  137.5660 O   0  0  0  0  0  0  0  0  0  0  0  0
  194.4340  170.7600  136.8720 C   0  0  0  0  0  0  0  0  0  0  0  0
  193.4020  170.6700  135.8940 N   0  0  0  0  0  1  0  0  0  0  0  0
  1  3  2  0  0  0  0
  1  6  1  0  0  0  0
  2  9  1  0  0  0  0
  3  5  1  0  0  0  0
  4  2  1  0  0  0  0
  5  7  1  0  0  0  0
  5  2  2  0  0  0  0
  6  4  2  0  0  0  0
  7  8  2  0  0  0  0
  8  9  1  0  0  0  0
  8 19  1  0  0  0  0
  9 20  1  1  0  0  0
 10  7  1  0  0  0  0
 11 10  1  0  0  0  0
 12 11  2  0  0  0  0
 13 16  1  0  0  0  0
 13 14  1  0  0  0  0
 14 17  1  0  0  0  0
 16 11  1  0  0  0  0
 16 15  1  0  0  0  0
 17 15  1  0  0  0  0
 19 18  2  0  0  0  0
 20 21  1  0  0  0  0
 21 22  1  0  0  0  0
 22 23  1  0  0  0  0
 23 25  1  0  0  0  0
 25 26  1  0  0  0  0
 25 24  1  1  0  0  0
 26 27  1  0  0  0  0
 27 33  1  1  0  0  0
 28 27  1  0  0  0  0
 28 29  1  1  0  0  0
 30 31  1  0  0  0  0
 31 28  1  0  0  0  0
 32 31  2  0  0  0  0
 33 34  1  0  0  0  0
 35 37  1  0  0  0  0
 35  6  1  0  0  0  0
 36 38  2  0  0  0  0
 36 37  1  0  0  0  0
 37 41  2  0  0  0  0
 38 40  1  0  0  0  0
 40 39  2  0  0  0  0
 41 39  1  0  0  0  0
 43 38  1  0  0  0  0
 43 42  2  0  0  0  0
 44 43  1  0  0  0  0
M  END
>  <MODEL>
3

>  <REMARK>
 VINA RESULT:      -7.1      2.950      8.759
  Name = 
  16 active torsions:
  status: ('A' for Active; 'I' for Inactive)
    1  A    between atoms: N_4  and  C_36
    2  A    between atoms: C_5  and  C_14
    3  A    between atoms: C_5  and  C_23
    4  A    between atoms: C_6  and  N_7
    5  A    between atoms: N_7  and  C_35
    6  A    between atoms: C_8  and  C_29
    7  A    between atoms: C_9  and  C_38
    8  A    between atoms: C_14  and  C_16
    9  A    between atoms: C_14  and  O_31
   10  A    between atoms: C_15  and  C_22
   11  A    between atoms: C_15  and  C_40
   12  A    between atoms: C_17  and  S_18
   13  A    between atoms: C_17  and  C_22
   14  A    between atoms: S_18  and  C_39
   15  A    between atoms: C_21  and  C_37
   16  A    between atoms: O_31  and  C_40
                            x       y       z     vdW  Elec       q    Type
                         _______ _______ _______ _____ _____    ______ ____

>  <TORSDO>
F 16

$$$$
=
 OpenBabel11042410363D

 44 47  0  0  1  0  0  0  0  0999 V2000
  190.0480  177.0010  141.8670 C   0  0  0  0  0  3  0  0  0  0  0  0
  189.1780  177.4790  139.2290 C   0  0  0  0  0  0  0  0  0  0  0  0
  190.8770  176.3330  140.7840 C   0  0  0  0  0  3  0  0  0  0  0  0
  188.5050  178.0180  140.2380 C   0  0  0  0  0  3  0  0  0  0  0  0
  190.3450  176.6610  139.4230 C   0  0  2  0  0  3  0  0  0  0  0  0
  188.9680  177.7750  141.6280 C   0  0  0  0  0  0  0  0  0  0  0  0
  190.8070  176.3080  138.2330 C   0  0  0  0  0  0  0  0  0  0  0  0
  189.9130  176.8650  137.1900 C   0  0  0  0  0  0  0  0  0  0  0  0
  188.9480  177.5720  137.7970 C   0  0  0  0  0  0  0  0  0  0  0  0
  191.9410  175.4520  138.0450 N   0  0  0  0  0  2  0  0  0  0  0  0
  193.2860  175.8920  137.8490 C   0  0  0  0  0  0  0  0  0  0  0  0
  193.6270  177.0740  138.1370 O   0  0  0  0  0  0  0  0  0  0  0  0
  195.1710  174.4080  138.5250 C   0  0  0  0  0  2  0  0  0  0  0  0
  195.2950  172.9050  138.3480 C   0  0  0  0  0  2  0  0  0  0  0  0
  193.6530  173.6910  136.7710 C   0  0  0  0  0  2  0  0  0  0  0  0
  194.3080  174.9100  137.3790 C   0  0  0  0  0  3  0  0  0  0  0  0
  194.6170  172.5610  137.0370 C   0  0  0  0  0  2  0  0  0  0  0  0
  189.1520  175.9330  135.1230 O   0  0  0  0  0  0  0  0  0  0  0  0
  190.0250  176.5890  135.7480 C   0  0  0  0  0  3  0  0  0  0  0  0
  187.5660  178.4240  137.0340 S   0  0  0  0  0  0  0  0  0  0  0  0
  186.4430  177.0290  137.3450 C   0  0  0  0  0  2  0  0  0  0  0  0
  185.0040  177.4640  137.1350 C   0  0  0  0  0  2  0  0  0  0  0  0
  184.0560  176.5090  137.8380 C   0  0  0  0  0  2  0  0  0  0  0  0
  183.1330  178.6480  138.2790 O   0  0  0  0  0  1  0  0  0  0  0  0
  182.9690  177.2890  138.5570 C   0  0  2  0  0  3  0  0  0  0  0  0
  183.0740  177.0820  139.9390 O   0  0  0  0  0  0  0  0  0  0  0  0
  182.7080  178.2960  140.5430 C   0  0  1  0  0  3  0  0  0  0  0  0
  181.2890  178.1860  141.1100 C   0  0  1  0  0  3  0  0  0  0  0  0
  181.2410  178.6970  142.4110 O   0  0  0  0  0  1  0  0  0  0  0  0
  180.5020  180.3470  139.9370 C   0  0  0  0  0  1  0  0  0  0  0  0
  180.2910  178.9080  140.2580 C   0  0  0  0  0  0  0  0  0  0  0  0
  179.3180  178.3220  139.8070 O   0  0  0  0  0  0  0  0  0  0  0  0
  183.6800  178.6080  141.6790 C   0  0  0  0  0  2  0  0  0  0  0  0
  185.0480  178.9590  141.1290 C   0  0  0  0  0  1  0  0  0  0  0  0
  188.2740  178.3340  142.7550 N   0  0  0  0  0  2  0  0  0  0  0  0
  189.5890  177.6010  144.6730 C   0  0  0  0  0  3  0  0  0  0  0  0
  188.3400  177.9210  144.1300 C   0  0  0  0  0  0  0  0  0  0  0  0
  189.7090  177.1990  146.0120 C   0  0  0  0  0  0  0  0  0  0  0  0
  187.3090  177.4510  146.2800 C   0  0  0  0  0  3  0  0  0  0  0  0
  188.5600  177.1240  146.8110 C   0  0  0  0  0  3  0  0  0  0  0  0
  187.2010  177.8490  144.9460 C   0  0  0  0  0  3  0  0  0  0  0  0
  191.3420  177.2280  147.7340 O   0  0  0  0  0  0  0  0  0  0  0  0
  191.0290  176.8570  146.5720 C   0  0  0  0  0  0  0  0  0  0  0  0
  191.9630  176.0980  145.8080 N   0  0  0  0  0  1  0  0  0  0  0  0
  2  5  1  0  0  0  0
  2  4  1  0  0  0  0
  3  1  2  0  0  0  0
  4  6  2  0  0  0  0
  5  3  1  6  0  0  0
  6  1  1  0  0  0  0
  6 35  1  0  0  0  0
  7  5  1  0  0  0  0
  8  9  1  0  0  0  0
  8  7  2  0  0  0  0
  9  2  2  0  0  0  0
 10  7  1  0  0  0  0
 11 10  1  0  0  0  0
 11 12  2  0  0  0  0
 14 13  1  0  0  0  0
 15 17  1  0  0  0  0
 15 16  1  0  0  0  0
 16 11  1  0  0  0  0
 16 13  1  0  0  0  0
 17 14  1  0  0  0  0
 18 19  2  0  0  0  0
 19  8  1  0  0  0  0
 20 21  1  0  0  0  0
 20  9  1  0  0  0  0
 22 21  1  0  0  0  0
 22 23  1  0  0  0  0
 23 25  1  0  0  0  0
 25 24  1  1  0  0  0
 25 26  1  0  0  0  0
 26 27  1  0  0  0  0
 27 28  1  0  0  0  0
 27 33  1  1  0  0  0
 28 29  1  1  0  0  0
 30 31  1  0  0  0  0
 31 28  1  0  0  0  0
 32 31  2  0  0  0  0
 34 33  1  0  0  0  0
 35 37  1  0  0  0  0
 36 38  1  0  0  0  0
 37 36  2  0  0  0  0
 37 41  1  0  0  0  0
 38 43  1  0  0  0  0
 38 40  2  0  0  0  0
 39 40  1  0  0  0  0
 41 39  2  0  0  0  0
 43 42  2  0  0  0  0
 44 43  1  0  0  0  0
M  END
>  <MODEL>
4

>  <REMARK>
 VINA RESULT:      -7.1      1.240      2.045
  Name = 
  16 active torsions:
  status: ('A' for Active; 'I' for Inactive)
    1  A    between atoms: N_4  and  C_36
    2  A    between atoms: C_5  and  C_14
    3  A    between atoms: C_5  and  C_23
    4  A    between atoms: C_6  and  N_7
    5  A    between atoms: N_7  and  C_35
    6  A    between atoms: C_8  and  C_29
    7  A    between atoms: C_9  and  C_38
    8  A    between atoms: C_14  and  C_16
    9  A    between atoms: C_14  and  O_31
   10  A    between atoms: C_15  and  C_22
   11  A    between atoms: C_15  and  C_40
   12  A    between atoms: C_17  and  S_18
   13  A    between atoms: C_17  and  C_22
   14  A    between atoms: S_18  and  C_39
   15  A    between atoms: C_21  and  C_37
   16  A    between atoms: O_31  and  C_40
                            x       y       z     vdW  Elec       q    Type
                         _______ _______ _______ _____ _____    ______ ____

>  <TORSDO>
F 16

$$$$
=
 OpenBabel11042410363D

 44 47  0  0  1  0  0  0  0  0999 V2000
  190.2210  177.3710  141.4680 C   0  0  0  0  0  3  0  0  0  0  0  0
  189.0330  177.7820  138.9450 C   0  0  0  0  0  0  0  0  0  0  0  0
  190.9800  176.7780  140.2940 C   0  0  0  0  0  3  0  0  0  0  0  0
  188.4310  178.2610  140.0270 C   0  0  0  0  0  3  0  0  0  0  0  0
  190.2780  177.0640  139.0030 C   0  0  2  0  0  3  0  0  0  0  0  0
  189.0600  178.0530  141.3560 C   0  0  0  0  0  0  0  0  0  0  0  0
  190.6360  176.7550  137.7660 C   0  0  0  0  0  0  0  0  0  0  0  0
  189.5910  177.2380  136.8310 C   0  0  0  0  0  0  0  0  0  0  0  0
  188.6430  177.8600  137.5480 C   0  0  0  0  0  0  0  0  0  0  0  0
  191.8100  175.9970  137.4460 N   0  0  0  0  0  2  0  0  0  0  0  0
  191.9090  174.5710  137.4820 C   0  0  0  0  0  0  0  0  0  0  0  0
  190.8700  173.8520  137.5030 O   0  0  0  0  0  0  0  0  0  0  0  0
  193.7150  173.7560  135.9700 C   0  0  0  0  0  2  0  0  0  0  0  0
  195.1670  174.1950  135.9160 C   0  0  0  0  0  2  0  0  0  0  0  0
  194.3030  174.8000  138.0820 C   0  0  0  0  0  2  0  0  0  0  0  0
  193.2590  173.9380  137.4090 C   0  0  0  0  0  3  0  0  0  0  0  0
  195.5830  174.5060  137.3400 C   0  0  0  0  0  2  0  0  0  0  0  0
  189.3470  175.8300  134.9140 O   0  0  0  0  0  0  0  0  0  0  0  0
  189.5690  176.9770  135.3830 C   0  0  0  0  0  3  0  0  0  0  0  0
  187.1200  178.5960  136.9480 S   0  0  0  0  0  0  0  0  0  0  0  0
  186.1210  177.2130  137.5770 C   0  0  0  0  0  2  0  0  0  0  0  0
  184.6490  177.4770  137.3210 C   0  0  0  0  0  2  0  0  0  0  0  0
  183.9260  177.7480  138.6280 C   0  0  0  0  0  2  0  0  0  0  0  0
  184.2870  179.9920  139.3060 O   0  0  0  0  0  1  0  0  0  0  0  0
  183.3800  179.1660  138.6370 C   0  0  2  0  0  3  0  0  0  0  0  0
  182.1480  179.1940  139.3050 O   0  0  0  0  0  0  0  0  0  0  0  0
  182.2680  178.2950  140.3780 C   0  0  1  0  0  3  0  0  0  0  0  0
  182.2650  179.0660  141.7020 C   0  0  1  0  0  3  0  0  0  0  0  0
  181.0390  178.9090  142.3570 O   0  0  0  0  0  1  0  0  0  0  0  0
  184.6380  178.1000  142.0240 C   0  0  0  0  0  1  0  0  0  0  0  0
  183.3710  178.6200  142.6090 C   0  0  0  0  0  0  0  0  0  0  0  0
  183.2510  178.7000  143.8220 O   0  0  0  0  0  0  0  0  0  0  0  0
  181.0880  177.3250  140.3590 C   0  0  0  0  0  2  0  0  0  0  0  0
  180.8210  176.8380  138.9490 C   0  0  0  0  0  1  0  0  0  0  0  0
  188.4490  178.5480  142.5580 N   0  0  0  0  0  2  0  0  0  0  0  0
  189.7990  177.6050  144.3570 C   0  0  0  0  0  3  0  0  0  0  0  0
  188.5450  178.0110  143.8870 C   0  0  0  0  0  0  0  0  0  0  0  0
  189.9480  177.0810  145.6490 C   0  0  0  0  0  0  0  0  0  0  0  0
  187.5670  177.3790  146.0210 C   0  0  0  0  0  3  0  0  0  0  0  0
  188.8220  176.9690  146.4780 C   0  0  0  0  0  3  0  0  0  0  0  0
  187.4300  177.9000  144.7320 C   0  0  0  0  0  3  0  0  0  0  0  0
  192.0370  175.9880  145.3800 O   0  0  0  0  0  0  0  0  0  0  0  0
  191.2730  176.6490  146.1310 C   0  0  0  0  0  0  0  0  0  0  0  0
  191.7040  176.9800  147.4480 N   0  0  0  0  0  1  0  0  0  0  0  0
  2  5  1  0  0  0  0
  2  4  1  0  0  0  0
  3  1  2  0  0  0  0
  4  6  2  0  0  0  0
  5  3  1  6  0  0  0
  6  1  1  0  0  0  0
  6 35  1  0  0  0  0
  7  5  1  0  0  0  0
  8  9  1  0  0  0  0
  8  7  2  0  0  0  0
  9  2  2  0  0  0  0
 10 11  1  0  0  0  0
 10  7  1  0  0  0  0
 11 12  2  0  0  0  0
 13 16  1  0  0  0  0
 14 13  1  0  0  0  0
 14 17  1  0  0  0  0
 16 11  1  0  0  0  0
 16 15  1  0  0  0  0
 17 15  1  0  0  0  0
 18 19  2  0  0  0  0
 19  8  1  0  0  0  0
 20  9  1  0  0  0  0
 20 21  1  0  0  0  0
 22 21  1  0  0  0  0
 22 23  1  0  0  0  0
 23 25  1  0  0  0  0
 25 26  1  0  0  0  0
 25 24  1  1  0  0  0
 26 27  1  0  0  0  0
 27 33  1  1  0  0  0
 27 28  1  0  0  0  0
 28 29  1  1  0  0  0
 28 31  1  0  0  0  0
 30 31  1  0  0  0  0
 31 32  2  0  0  0  0
 34 33  1  0  0  0  0
 35 37  1  0  0  0  0
 36 38  1  0  0  0  0
 37 36  2  0  0  0  0
 37 41  1  0  0  0  0
 38 43  1  0  0  0  0
 38 40  2  0  0  0  0
 39 40  1  0  0  0  0
 41 39  2  0  0  0  0
 42 43  2  0  0  0  0
 43 44  1  0  0  0  0
M  END
>  <MODEL>
5

>  <REMARK>
 VINA RESULT:      -7.0      1.537      2.032
  Name = 
  16 active torsions:
  status: ('A' for Active; 'I' for Inactive)
    1  A    between atoms: N_4  and  C_36
    2  A    between atoms: C_5  and  C_14
    3  A    between atoms: C_5  and  C_23
    4  A    between atoms: C_6  and  N_7
    5  A    between atoms: N_7  and  C_35
    6  A    between atoms: C_8  and  C_29
    7  A    between atoms: C_9  and  C_38
    8  A    between atoms: C_14  and  C_16
    9  A    between atoms: C_14  and  O_31
   10  A    between atoms: C_15  and  C_22
   11  A    between atoms: C_15  and  C_40
   12  A    between atoms: C_17  and  S_18
   13  A    between atoms: C_17  and  C_22
   14  A    between atoms: S_18  and  C_39
   15  A    between atoms: C_21  and  C_37
   16  A    between atoms: O_31  and  C_40
                            x       y       z     vdW  Elec       q    Type
                         _______ _______ _______ _____ _____    ______ ____

>  <TORSDO>
F 16

$$$$
=
 OpenBabel11042410363D

 44 47  0  0  1  0  0  0  0  0999 V2000
  189.5930  177.1610  141.1510 C   0  0  0  0  0  3  0  0  0  0  0  0
  189.0910  177.3040  138.3810 C   0  0  0  0  0  0  0  0  0  0  0  0
  190.6130  176.4560  140.2740 C   0  0  0  0  0  3  0  0  0  0  0  0
  188.2440  177.8860  139.2210 C   0  0  0  0  0  3  0  0  0  0  0  0
  190.2660  176.6030  138.8250 C   0  0  2  0  0  3  0  0  0  0  0  0
  188.5120  177.8190  140.6800 C   0  0  0  0  0  0  0  0  0  0  0  0
  190.9200  176.1720  137.7570 C   0  0  0  0  0  0  0  0  0  0  0  0
  190.1560  176.5500  136.5440 C   0  0  0  0  0  0  0  0  0  0  0  0
  189.0690  177.2360  136.9300 C   0  0  0  0  0  0  0  0  0  0  0  0
  192.1220  175.3930  137.8230 N   0  0  0  0  0  2  0  0  0  0  0  0
  193.4410  175.8870  137.5790 C   0  0  0  0  0  0  0  0  0  0  0  0
  193.6780  177.1270  137.5870 O   0  0  0  0  0  0  0  0  0  0  0  0
  195.2020  174.5460  138.7250 C   0  0  0  0  0  2  0  0  0  0  0  0
  195.3940  173.0400  138.7150 C   0  0  0  0  0  2  0  0  0  0  0  0
  194.0560  173.6160  136.7970 C   0  0  0  0  0  2  0  0  0  0  0  0
  194.5570  174.9100  137.3980 C   0  0  0  0  0  3  0  0  0  0  0  0
  194.9810  172.5550  137.3400 C   0  0  0  0  0  2  0  0  0  0  0  0
  190.6060  174.9320  134.8410 O   0  0  0  0  0  0  0  0  0  0  0  0
  190.4960  176.1420  135.1710 C   0  0  0  0  0  3  0  0  0  0  0  0
  187.7620  177.8960  135.8930 S   0  0  0  0  0  0  0  0  0  0  0  0
  186.9560  176.2720  135.7520 C   0  0  0  0  0  2  0  0  0  0  0  0
  185.4530  176.4250  135.8910 C   0  0  0  0  0  2  0  0  0  0  0  0
  185.1200  177.3020  137.0850 C   0  0  0  0  0  2  0  0  0  0  0  0
  183.6830  175.4330  137.3480 O   0  0  0  0  0  1  0  0  0  0  0  0
  184.1190  176.5980  137.9850 C   0  0  2  0  0  3  0  0  0  0  0  0
  183.0210  177.4370  138.2190 O   0  0  0  0  0  0  0  0  0  0  0  0
  182.7160  177.3080  139.5840 C   0  0  1  0  0  3  0  0  0  0  0  0
  183.0080  178.6260  140.3080 C   0  0  1  0  0  3  0  0  0  0  0  0
  184.1230  178.4910  141.1400 O   0  0  0  0  0  1  0  0  0  0  0  0
  182.0790  180.4290  138.7090 C   0  0  0  0  0  1  0  0  0  0  0  0
  183.2420  179.7500  139.3440 C   0  0  0  0  0  0  0  0  0  0  0  0
  184.3770  180.1280  139.0940 O   0  0  0  0  0  0  0  0  0  0  0  0
  181.2360  176.9650  139.7410 C   0  0  0  0  0  2  0  0  0  0  0  0
  180.5290  177.0280  138.4010 C   0  0  0  0  0  1  0  0  0  0  0  0
  187.6260  178.4310  141.6310 N   0  0  0  0  0  2  0  0  0  0  0  0
  186.2860  178.5000  143.6670 C   0  0  0  0  0  3  0  0  0  0  0  0
  187.4680  178.1160  143.0240 C   0  0  0  0  0  0  0  0  0  0  0  0
  186.0790  178.2110  145.0240 C   0  0  0  0  0  0  0  0  0  0  0  0
  188.2510  177.1290  145.1030 C   0  0  0  0  0  3  0  0  0  0  0  0
  187.0710  177.5240  145.7380 C   0  0  0  0  0  3  0  0  0  0  0  0
  188.4470  177.4220  143.7510 C   0  0  0  0  0  3  0  0  0  0  0  0
  184.6850  178.4450  146.9310 O   0  0  0  0  0  0  0  0  0  0  0  0
  184.8330  178.6270  145.6930 C   0  0  0  0  0  0  0  0  0  0  0  0
  183.7860  179.2450  144.9490 N   0  0  0  0  0  1  0  0  0  0  0  0
  2  5  1  0  0  0  0
  2  4  1  0  0  0  0
  3  1  2  0  0  0  0
  4  6  2  0  0  0  0
  5  3  1  6  0  0  0
  6  1  1  0  0  0  0
  6 35  1  0  0  0  0
  7 10  1  0  0  0  0
  7  5  1  0  0  0  0
  8  9  1  0  0  0  0
  8  7  2  0  0  0  0
  9  2  2  0  0  0  0
 11 12  2  0  0  0  0
 11 10  1  0  0  0  0
 14 13  1  0  0  0  0
 15 17  1  0  0  0  0
 15 16  1  0  0  0  0
 16 11  1  0  0  0  0
 16 13  1  0  0  0  0
 17 14  1  0  0  0  0
 18 19  2  0  0  0  0
 19  8  1  0  0  0  0
 20  9  1  0  0  0  0
 21 22  1  0  0  0  0
 21 20  1  0  0  0  0
 22 23  1  0  0  0  0
 23 25  1  0  0  0  0
 25 24  1  6  0  0  0
 25 26  1  0  0  0  0
 26 27  1  0  0  0  0
 27 33  1  6  0  0  0
 27 28  1  0  0  0  0
 28 29  1  6  0  0  0
 30 31  1  0  0  0  0
 31 28  1  0  0  0  0
 32 31  2  0  0  0  0
 34 33  1  0  0  0  0
 35 37  1  0  0  0  0
 36 38  1  0  0  0  0
 37 36  2  0  0  0  0
 37 41  1  0  0  0  0
 38 43  1  0  0  0  0
 38 40  2  0  0  0  0
 39 40  1  0  0  0  0
 41 39  2  0  0  0  0
 43 42  2  0  0  0  0
 44 43  1  0  0  0  0
M  END
>  <MODEL>
6

>  <REMARK>
 VINA RESULT:      -7.0      1.580      2.328
  Name = 
  16 active torsions:
  status: ('A' for Active; 'I' for Inactive)
    1  A    between atoms: N_4  and  C_36
    2  A    between atoms: C_5  and  C_14
    3  A    between atoms: C_5  and  C_23
    4  A    between atoms: C_6  and  N_7
    5  A    between atoms: N_7  and  C_35
    6  A    between atoms: C_8  and  C_29
    7  A    between atoms: C_9  and  C_38
    8  A    between atoms: C_14  and  C_16
    9  A    between atoms: C_14  and  O_31
   10  A    between atoms: C_15  and  C_22
   11  A    between atoms: C_15  and  C_40
   12  A    between atoms: C_17  and  S_18
   13  A    between atoms: C_17  and  C_22
   14  A    between atoms: S_18  and  C_39
   15  A    between atoms: C_21  and  C_37
   16  A    between atoms: O_31  and  C_40
                            x       y       z     vdW  Elec       q    Type
                         _______ _______ _______ _____ _____    ______ ____

>  <TORSDO>
F 16

$$$$
=
 OpenBabel11042410363D

 44 47  0  0  1  0  0  0  0  0999 V2000
  184.9390  179.0240  141.0900 C   0  0  0  0  0  3  0  0  0  0  0  0
  187.0250  178.1760  139.3940 C   0  0  0  0  0  0  0  0  0  0  0  0
  186.2840  178.8350  141.7690 C   0  0  0  0  0  2  0  0  0  0  0  0
  185.8120  178.3580  138.8850 C   0  0  0  0  0  3  0  0  0  0  0  0
  187.3240  178.4000  140.7830 C   0  0  0  0  0  0  0  0  0  0  0  0
  184.7140  178.8140  139.7750 C   0  0  0  0  0  0  0  0  0  0  0  0
  188.6160  178.1710  140.9710 C   0  0  0  0  0  0  0  0  0  0  0  0
  189.2150  177.7390  139.6850 C   0  0  0  0  0  0  0  0  0  0  0  0
  188.2560  177.7550  138.7480 C   0  0  0  0  0  0  0  0  0  0  0  0
  189.2590  178.2570  142.2480 N   0  0  0  0  0  2  0  0  0  0  0  0
  188.9630  177.4350  143.3800 C   0  0  0  0  0  0  0  0  0  0  0  0
  188.3190  176.3570  143.2440 O   0  0  0  0  0  0  0  0  0  0  0  0
  188.5130  177.5130  145.8300 C   0  0  0  0  0  2  0  0  0  0  0  0
  189.3120  176.8790  146.9550 C   0  0  0  0  0  2  0  0  0  0  0  0
  190.7640  177.0610  145.0420 C   0  0  0  0  0  2  0  0  0  0  0  0
  189.5000  177.8250  144.7180 C   0  0  0  0  0  3  0  0  0  0  0  0
  190.7700  176.9440  146.5460 C   0  0  0  0  0  2  0  0  0  0  0  0
  190.8860  176.0620  139.3440 O   0  0  0  0  0  0  0  0  0  0  0  0
  190.6030  177.2760  139.5160 C   0  0  0  0  0  3  0  0  0  0  0  0
  188.3980  177.2800  137.0240 S   0  0  0  0  0  0  0  0  0  0  0  0
  187.6790  175.6410  137.3430 C   0  0  0  0  0  2  0  0  0  0  0  0
  188.3090  174.6100  136.4260 C   0  0  0  0  0  2  0  0  0  0  0  0
  187.3010  174.1340  135.3950 C   0  0  0  0  0  2  0  0  0  0  0  0
  187.1280  171.8510  136.0130 O   0  0  0  0  0  1  0  0  0  0  0  0
  186.4160  173.0530  135.9910 C   0  0  2  0  0  3  0  0  0  0  0  0
  185.2660  172.8960  135.2060 O   0  0  0  0  0  0  0  0  0  0  0  0
  184.1840  173.2630  136.0240 C   0  0  1  0  0  3  0  0  0  0  0  0
  183.6070  174.6010  135.5510 C   0  0  1  0  0  3  0  0  0  0  0  0
  182.2300  174.4900  135.3320 O   0  0  0  0  0  1  0  0  0  0  0  0
  183.6960  177.1180  136.1200 C   0  0  0  0  0  1  0  0  0  0  0  0
  183.8640  175.6990  136.5380 C   0  0  0  0  0  0  0  0  0  0  0  0
  184.1890  175.4390  137.6860 O   0  0  0  0  0  0  0  0  0  0  0  0
  183.1000  172.1900  135.9390 C   0  0  0  0  0  2  0  0  0  0  0  0
  183.4330  171.0230  136.8460 C   0  0  0  0  0  1  0  0  0  0  0  0
  183.3850  179.0240  139.2740 N   0  0  0  0  0  2  0  0  0  0  0  0
  181.8500  177.1340  139.4040 C   0  0  0  0  0  3  0  0  0  0  0  0
  182.1570  178.4530  139.7540 C   0  0  0  0  0  0  0  0  0  0  0  0
  180.6670  176.5270  139.8520 C   0  0  0  0  0  0  0  0  0  0  0  0
  180.0900  178.5720  141.0280 C   0  0  0  0  0  3  0  0  0  0  0  0
  179.7880  177.2560  140.6660 C   0  0  0  0  0  3  0  0  0  0  0  0
  181.2700  179.1660  140.5760 C   0  0  0  0  0  3  0  0  0  0  0  0
  180.6900  174.6970  138.3420 O   0  0  0  0  0  0  0  0  0  0  0  0
  180.3500  175.1390  139.4710 C   0  0  0  0  0  0  0  0  0  0  0  0
  179.6590  174.2820  140.3760 N   0  0  0  0  0  1  0  0  0  0  0  0
  1  3  1  0  0  0  0
  2  5  1  0  0  0  0
  4  2  2  0  0  0  0
  4  6  1  0  0  0  0
  5  7  2  0  0  0  0
  5  3  1  0  0  0  0
  6  1  2  0  0  0  0
  7 10  1  0  0  0  0
  8  7  1  0  0  0  0
  9  2  1  0  0  0  0
  9  8  2  0  0  0  0
 10 11  1  0  0  0  0
 11 16  1  0  0  0  0
 12 11  2  0  0  0  0
 13 14  1  0  0  0  0
 15 17  1  0  0  0  0
 16 15  1  0  0  0  0
 16 13  1  0  0  0  0
 17 14  1  0  0  0  0
 18 19  2  0  0  0  0
 19  8  1  0  0  0  0
 20 21  1  0  0  0  0
 20  9  1  0  0  0  0
 22 21  1  0  0  0  0
 23 25  1  0  0  0  0
 23 22  1  0  0  0  0
 25 24  1  6  0  0  0
 26 25  1  0  0  0  0
 26 27  1  0  0  0  0
 27 33  1  6  0  0  0
 28 29  1  1  0  0  0
 28 27  1  0  0  0  0
 28 31  1  0  0  0  0
 30 31  1  0  0  0  0
 31 32  2  0  0  0  0
 33 34  1  0  0  0  0
 35 37  1  0  0  0  0
 35  6  1  0  0  0  0
 36 37  2  0  0  0  0
 36 38  1  0  0  0  0
 37 41  1  0  0  0  0
 38 40  2  0  0  0  0
 40 39  1  0  0  0  0
 41 39  2  0  0  0  0
 42 43  2  0  0  0  0
 43 38  1  0  0  0  0
 43 44  1  0  0  0  0
M  END
>  <MODEL>
7

>  <REMARK>
 VINA RESULT:      -6.9      3.074      7.313
  Name = 
  16 active torsions:
  status: ('A' for Active; 'I' for Inactive)
    1  A    between atoms: N_4  and  C_36
    2  A    between atoms: C_5  and  C_14
    3  A    between atoms: C_5  and  C_23
    4  A    between atoms: C_6  and  N_7
    5  A    between atoms: N_7  and  C_35
    6  A    between atoms: C_8  and  C_29
    7  A    between atoms: C_9  and  C_38
    8  A    between atoms: C_14  and  C_16
    9  A    between atoms: C_14  and  O_31
   10  A    between atoms: C_15  and  C_22
   11  A    between atoms: C_15  and  C_40
   12  A    between atoms: C_17  and  S_18
   13  A    between atoms: C_17  and  C_22
   14  A    between atoms: S_18  and  C_39
   15  A    between atoms: C_21  and  C_37
   16  A    between atoms: O_31  and  C_40
                            x       y       z     vdW  Elec       q    Type
                         _______ _______ _______ _____ _____    ______ ____

>  <TORSDO>
F 16

$$$$
=
 OpenBabel11042410363D

 44 47  0  0  1  0  0  0  0  0999 V2000
  192.0690  176.7910  139.1240 C   0  0  0  0  0  3  0  0  0  0  0  0
  189.3470  177.4690  138.8520 C   0  0  0  0  0  0  0  0  0  0  0  0
  191.3730  177.1930  140.4130 C   0  0  0  0  0  2  0  0  0  0  0  0
  190.0350  177.1140  137.7730 C   0  0  0  0  0  3  0  0  0  0  0  0
  189.9320  177.5170  140.1640 C   0  0  0  0  0  0  0  0  0  0  0  0
  191.4670  176.7470  137.9170 C   0  0  0  0  0  0  0  0  0  0  0  0
  188.9890  177.8660  141.0260 C   0  0  0  0  0  0  0  0  0  0  0  0
  187.7280  178.1040  140.2840 C   0  0  0  0  0  0  0  0  0  0  0  0
  187.9520  177.8530  138.9850 C   0  0  0  0  0  0  0  0  0  0  0  0
  189.2260  178.0550  142.4270 N   0  0  0  0  0  2  0  0  0  0  0  0
  188.5510  177.3630  143.4810 C   0  0  0  0  0  0  0  0  0  0  0  0
  187.9060  176.3030  143.2470 O   0  0  0  0  0  0  0  0  0  0  0  0
  187.4080  177.6690  145.6740 C   0  0  0  0  0  2  0  0  0  0  0  0
  187.8170  177.1290  147.0320 C   0  0  0  0  0  2  0  0  0  0  0  0
  189.7710  177.1160  145.6240 C   0  0  0  0  0  2  0  0  0  0  0  0
  188.6890  177.8650  144.8800 C   0  0  0  0  0  3  0  0  0  0  0  0
  189.3320  177.1350  147.0670 C   0  0  0  0  0  2  0  0  0  0  0  0
  186.4100  179.7880  141.3540 O   0  0  0  0  0  0  0  0  0  0  0  0
  186.4860  178.6260  140.8770 C   0  0  0  0  0  3  0  0  0  0  0  0
  186.8000  178.0220  137.6200 S   0  0  0  0  0  0  0  0  0  0  0  0
  186.5990  176.2210  137.4740 C   0  0  0  0  0  2  0  0  0  0  0  0
  185.4330  175.9020  136.5580 C   0  0  0  0  0  2  0  0  0  0  0  0
  184.2850  176.8640  136.8100 C   0  0  0  0  0  2  0  0  0  0  0  0
  183.0870  175.2130  138.0200 O   0  0  0  0  0  1  0  0  0  0  0  0
  183.5880  176.5140  138.1140 C   0  0  2  0  0  3  0  0  0  0  0  0
  182.5290  177.4040  138.3370 O   0  0  0  0  0  0  0  0  0  0  0  0
  182.3320  177.4330  139.7270 C   0  0  1  0  0  3  0  0  0  0  0  0
  182.3140  178.8840  140.2190 C   0  0  1  0  0  3  0  0  0  0  0  0
  183.1020  179.0220  141.3660 O   0  0  0  0  0  1  0  0  0  0  0  0
  181.8260  180.4390  138.2160 C   0  0  0  0  0  1  0  0  0  0  0  0
  182.7990  179.8340  139.1670 C   0  0  0  0  0  0  0  0  0  0  0  0
  183.9810  180.1340  139.0970 O   0  0  0  0  0  0  0  0  0  0  0  0
  180.9960  176.7730  140.0620 C   0  0  0  0  0  2  0  0  0  0  0  0
  179.8740  177.4050  139.2630 C   0  0  0  0  0  1  0  0  0  0  0  0
  192.2560  176.3580  136.7810 N   0  0  0  0  0  2  0  0  0  0  0  0
  194.5370  175.5060  136.6540 C   0  0  0  0  0  3  0  0  0  0  0  0
  193.1620  175.2480  136.6710 C   0  0  0  0  0  0  0  0  0  0  0  0
  195.4640  174.4570  136.5550 C   0  0  0  0  0  0  0  0  0  0  0  0
  193.6280  172.8690  136.5010 C   0  0  0  0  0  3  0  0  0  0  0  0
  195.0000  173.1360  136.4770 C   0  0  0  0  0  3  0  0  0  0  0  0
  192.7140  173.9200  136.6000 C   0  0  0  0  0  3  0  0  0  0  0  0
  197.7330  173.8810  136.9430 O   0  0  0  0  0  0  0  0  0  0  0  0
  196.9100  174.7410  136.5310 C   0  0  0  0  0  0  0  0  0  0  0  0
  197.3930  175.9870  136.0370 N   0  0  0  0  0  1  0  0  0  0  0  0
  1  3  1  0  0  0  0
  2  9  1  0  0  0  0
  2  5  1  0  0  0  0
  4  6  1  0  0  0  0
  4  2  2  0  0  0  0
  5  3  1  0  0  0  0
  5  7  2  0  0  0  0
  6  1  2  0  0  0  0
  7 10  1  0  0  0  0
  8 19  1  0  0  0  0
  8  7  1  0  0  0  0
  9  8  2  0  0  0  0
 10 11  1  0  0  0  0
 11 16  1  0  0  0  0
 12 11  2  0  0  0  0
 13 14  1  0  0  0  0
 14 17  1  0  0  0  0
 15 17  1  0  0  0  0
 16 15  1  0  0  0  0
 16 13  1  0  0  0  0
 19 18  2  0  0  0  0
 20  9  1  0  0  0  0
 21 20  1  0  0  0  0
 22 23  1  0  0  0  0
 22 21  1  0  0  0  0
 23 25  1  0  0  0  0
 25 24  1  6  0  0  0
 25 26  1  0  0  0  0
 26 27  1  0  0  0  0
 27 33  1  6  0  0  0
 27 28  1  0  0  0  0
 28 29  1  1  0  0  0
 30 31  1  0  0  0  0
 31 28  1  0  0  0  0
 32 31  2  0  0  0  0
 34 33  1  0  0  0  0
 35  6  1  0  0  0  0
 36 37  1  0  0  0  0
 37 35  1  0  0  0  0
 38 36  2  0  0  0  0
 39 41  1  0  0  0  0
 40 39  2  0  0  0  0
 40 38  1  0  0  0  0
 41 37  2  0  0  0  0
 43 38  1  0  0  0  0
 43 42  2  0  0  0  0
 44 43  1  0  0  0  0
M  END
>  <MODEL>
8

>  <REMARK>
 VINA RESULT:      -6.8      2.049      7.216
  Name = 
  16 active torsions:
  status: ('A' for Active; 'I' for Inactive)
    1  A    between atoms: N_4  and  C_36
    2  A    between atoms: C_5  and  C_14
    3  A    between atoms: C_5  and  C_23
    4  A    between atoms: C_6  and  N_7
    5  A    between atoms: N_7  and  C_35
    6  A    between atoms: C_8  and  C_29
    7  A    between atoms: C_9  and  C_38
    8  A    between atoms: C_14  and  C_16
    9  A    between atoms: C_14  and  O_31
   10  A    between atoms: C_15  and  C_22
   11  A    between atoms: C_15  and  C_40
   12  A    between atoms: C_17  and  S_18
   13  A    between atoms: C_17  and  C_22
   14  A    between atoms: S_18  and  C_39
   15  A    between atoms: C_21  and  C_37
   16  A    between atoms: O_31  and  C_40
                            x       y       z     vdW  Elec       q    Type
                         _______ _______ _______ _____ _____    ______ ____

>  <TORSDO>
F 16

$$$$
=
 OpenBabel11042410363D

 44 47  0  0  1  0  0  0  0  0999 V2000
  191.6900  177.5220  141.3610 C   0  0  0  0  0  3  0  0  0  0  0  0
  190.3980  176.6260  139.0210 C   0  0  0  0  0  0  0  0  0  0  0  0
  192.6170  177.0980  140.2350 C   0  0  0  0  0  3  0  0  0  0  0  0
  189.6630  177.0090  140.0590 C   0  0  0  0  0  3  0  0  0  0  0  0
  191.8360  176.6560  139.0360 C   0  0  2  0  0  3  0  0  0  0  0  0
  190.3420  177.4890  141.2890 C   0  0  0  0  0  0  0  0  0  0  0  0
  192.2710  176.2540  137.8510 C   0  0  0  0  0  0  0  0  0  0  0  0
  191.1030  175.9010  137.0080 C   0  0  0  0  0  0  0  0  0  0  0  0
  189.9880  176.1370  137.7160 C   0  0  0  0  0  0  0  0  0  0  0  0
  193.6590  176.1180  137.5200 N   0  0  0  0  0  2  0  0  0  0  0  0
  194.4310  174.9240  137.6690 C   0  0  0  0  0  0  0  0  0  0  0  0
  193.8650  173.8040  137.8170 O   0  0  0  0  0  0  0  0  0  0  0  0
  196.6010  173.9750  138.4450 C   0  0  0  0  0  2  0  0  0  0  0  0
  197.7090  173.3560  137.6120 C   0  0  0  0  0  2  0  0  0  0  0  0
  196.3790  174.7300  136.1480 C   0  0  0  0  0  2  0  0  0  0  0  0
  195.9180  175.0060  137.5620 C   0  0  0  0  0  3  0  0  0  0  0  0
  197.7480  174.1150  136.3010 C   0  0  0  0  0  2  0  0  0  0  0  0
  191.3310  174.0590  135.5000 O   0  0  0  0  0  0  0  0  0  0  0  0
  191.1830  175.2970  135.6680 C   0  0  0  0  0  3  0  0  0  0  0  0
  188.2900  175.8460  137.2170 S   0  0  0  0  0  0  0  0  0  0  0  0
  188.1100  177.5410  136.5850 C   0  0  0  0  0  2  0  0  0  0  0  0
  186.6730  178.0020  136.7370 C   0  0  0  0  0  2  0  0  0  0  0  0
  185.7170  176.8690  136.4110 C   0  0  0  0  0  2  0  0  0  0  0  0
  183.9230  175.5950  137.2960 O   0  0  0  0  0  1  0  0  0  0  0  0
  184.6160  176.7970  137.4560 C   0  0  2  0  0  3  0  0  0  0  0  0
  183.7310  177.8700  137.2830 O   0  0  0  0  0  0  0  0  0  0  0  0
  183.3400  178.2620  138.5740 C   0  0  1  0  0  3  0  0  0  0  0  0
  184.3410  179.2780  139.1330 C   0  0  1  0  0  3  0  0  0  0  0  0
  183.7980  180.5660  139.1070 O   0  0  0  0  0  1  0  0  0  0  0  0
  186.1800  178.6540  140.8360 C   0  0  0  0  0  1  0  0  0  0  0  0
  184.7500  178.9420  140.5360 C   0  0  0  0  0  0  0  0  0  0  0  0
  183.9260  178.9250  141.4370 O   0  0  0  0  0  0  0  0  0  0  0  0
  181.9560  178.9050  138.5100 C   0  0  0  0  0  2  0  0  0  0  0  0
  181.4680  178.9780  137.0760 C   0  0  0  0  0  1  0  0  0  0  0  0
  189.5940  177.9120  142.4390 N   0  0  0  0  0  2  0  0  0  0  0  0
  188.8130  177.7170  144.7410 C   0  0  0  0  0  3  0  0  0  0  0  0
  189.8660  177.6390  143.8230 C   0  0  0  0  0  0  0  0  0  0  0  0
  189.0250  177.4530  146.1020 C   0  0  0  0  0  0  0  0  0  0  0  0
  191.3650  177.0130  145.6310 C   0  0  0  0  0  3  0  0  0  0  0  0
  190.3090  177.1020  146.5420 C   0  0  0  0  0  3  0  0  0  0  0  0
  191.1440  177.2780  144.2780 C   0  0  0  0  0  3  0  0  0  0  0  0
  187.9710  176.9470  148.1680 O   0  0  0  0  0  0  0  0  0  0  0  0
  187.9090  177.5460  147.0620 C   0  0  0  0  0  0  0  0  0  0  0  0
  186.7520  178.3180  146.7510 N   0  0  0  0  0  1  0  0  0  0  0  0
  2  5  1  0  0  0  0
  2  4  1  0  0  0  0
  3  1  2  0  0  0  0
  4  6  2  0  0  0  0
  5  3  1  6  0  0  0
  6  1  1  0  0  0  0
  6 35  1  0  0  0  0
  7  5  1  0  0  0  0
  8  9  1  0  0  0  0
  8  7  2  0  0  0  0
  9  2  2  0  0  0  0
 10 11  1  0  0  0  0
 10  7  1  0  0  0  0
 11 12  2  0  0  0  0
 14 13  1  0  0  0  0
 15 17  1  0  0  0  0
 15 16  1  0  0  0  0
 16 11  1  0  0  0  0
 16 13  1  0  0  0  0
 17 14  1  0  0  0  0
 18 19  2  0  0  0  0
 19  8  1  0  0  0  0
 20  9  1  0  0  0  0
 21 22  1  0  0  0  0
 21 20  1  0  0  0  0
 23 22  1  0  0  0  0
 23 25  1  0  0  0  0
 25 24  1  6  0  0  0
 26 25  1  0  0  0  0
 26 27  1  0  0  0  0
 27 33  1  6  0  0  0
 27 28  1  0  0  0  0
 28 29  1  1  0  0  0
 28 31  1  0  0  0  0
 31 30  1  0  0  0  0
 31 32  2  0  0  0  0
 34 33  1  0  0  0  0
 35 37  1  0  0  0  0
 36 38  1  0  0  0  0
 37 41  1  0  0  0  0
 37 36  2  0  0  0  0
 38 40  2  0  0  0  0
 38 43  1  0  0  0  0
 39 40  1  0  0  0  0
 41 39  2  0  0  0  0
 43 42  2  0  0  0  0
 44 43  1  0  0  0  0
M  END
>  <MODEL>
9

>  <REMARK>
 VINA RESULT:      -6.8      1.714      2.203
  Name = 
  16 active torsions:
  status: ('A' for Active; 'I' for Inactive)
    1  A    between atoms: N_4  and  C_36
    2  A    between atoms: C_5  and  C_14
    3  A    between atoms: C_5  and  C_23
    4  A    between atoms: C_6  and  N_7
    5  A    between atoms: N_7  and  C_35
    6  A    between atoms: C_8  and  C_29
    7  A    between atoms: C_9  and  C_38
    8  A    between atoms: C_14  and  C_16
    9  A    between atoms: C_14  and  O_31
   10  A    between atoms: C_15  and  C_22
   11  A    between atoms: C_15  and  C_40
   12  A    between atoms: C_17  and  S_18
   13  A    between atoms: C_17  and  C_22
   14  A    between atoms: S_18  and  C_39
   15  A    between atoms: C_21  and  C_37
   16  A    between atoms: O_31  and  C_40
                            x       y       z     vdW  Elec       q    Type
                         _______ _______ _______ _____ _____    ______ ____

>  <TORSDO>
F 16

$$$$
