=
 OpenBabel11032420313D

 33 38  0  0  1  0  0  0  0  0999 V2000
  187.0640  176.8210  137.1540 N   0  0  0  0  0  0  0  0  0  0  0  0
  188.5880  175.2760  136.2110 N   0  0  0  0  0  0  0  0  0  0  0  0
  189.8730  178.2160  140.1020 C   0  0  1  0  0  3  0  0  0  0  0  0
  188.8300  177.2600  139.5440 C   0  0  1  0  0  0  0  0  0  0  0  0
  186.3300  177.5830  143.8670 C   0  0  0  0  0  3  0  0  0  0  0  0
  186.6940  177.8540  138.0800 C   0  0  0  0  0  2  0  0  0  0  0  0
  188.3970  178.5090  140.1870 C   0  0  2  0  0  0  0  0  0  0  0  0
  190.5410  177.7290  141.4060 C   0  0  0  0  0  2  0  0  0  0  0  0
  188.2780  176.3120  137.1520 C   0  0  0  0  0  0  0  0  0  0  0  0
  189.7730  174.7600  136.0820 C   0  0  0  0  0  3  0  0  0  0  0  0
  191.3020  175.7890  139.1700 N   0  0  0  0  0  2  0  0  0  0  0  0
  187.5870  178.0080  139.0250 C   0  0  1  0  0  3  0  0  0  0  0  0
  190.5070  175.8520  138.1660 C   0  0  0  0  0  0  0  0  0  0  0  0
  189.6580  176.9590  142.2740 N   0  0  0  0  0  0  0  0  0  0  0  0
  187.7050  178.2040  141.5010 C   0  0  0  0  0  0  0  0  0  0  0  0
  187.6220  177.0950  143.6600 C   0  0  0  0  0  3  0  0  0  0  0  0
  186.4130  178.7020  141.7250 C   0  0  0  0  0  3  0  0  0  0  0  0
  188.3190  177.4160  142.4880 C   0  0  0  0  0  0  0  0  0  0  0  0
  189.3750  176.8600  138.1200 C   0  0  2  0  0  3  0  0  0  0  0  0
  190.9510  175.2480  136.8720 C   0  0  0  0  0  2  0  0  0  0  0  0
  185.7180  178.4000  142.9070 C   0  0  0  0  0  0  0  0  0  0  0  0
  184.3930  178.9050  143.1320 N   0  0  0  0  0  0  0  0  0  0  0  0
  184.0060  179.4790  144.4120 C   0  0  0  0  0  1  0  0  0  0  0  0
  183.4700  178.8540  142.1420 O   0  0  0  0  0  1  0  0  0  0  0  0
  190.1460  175.7050  142.8320 C   0  0  0  0  0  2  0  0  0  0  0  0
  191.3930  175.9500  143.6620 C   0  0  0  0  0  2  0  0  0  0  0  0
  191.0550  176.8670  144.8170 C   0  0  0  0  0  2  0  0  0  0  0  0
  191.7200  176.3560  146.0760 C   0  0  0  0  0  2  0  0  0  0  0  0
  190.8760  176.7290  147.2810 C   0  0  0  0  0  2  0  0  0  0  0  0
  189.4100  176.8370  146.8920 C   0  0  0  0  0  2  0  0  0  0  0  0
  189.3280  178.4270  148.6660 O   0  0  0  0  0  1  0  0  0  0  0  0
  188.6950  177.7990  147.7780 C   0  0  0  0  0  0  0  0  0  0  0  0
  187.3250  177.9780  147.6460 O   0  0  0  0  0  0  0  0  0  0  0  0
  1  6  1  0  0  0  0
  2  9  1  0  0  0  0
  3  7  1  0  0  0  0
  3  8  1  1  0  0  0
  4  3  1  0  0  0  0
  4  7  1  0  0  0  0
  6 12  1  0  0  0  0
  7 15  1  0  0  0  0
  8 14  1  0  0  0  0
  9  1  2  0  0  0  0
  9 19  1  0  0  0  0
 10  2  2  0  0  0  0
 10 20  1  0  0  0  0
 12  4  1  0  0  0  0
 12  7  1  0  0  0  0
 13 11  2  0  0  0  0
 14 18  1  0  0  0  0
 14 25  1  0  0  0  0
 15 17  2  0  0  0  0
 15 18  1  0  0  0  0
 16  5  1  0  0  0  0
 17 21  1  0  0  0  0
 18 16  2  0  0  0  0
 19 13  1  0  0  0  0
 19  4  1  0  0  0  0
 20 13  1  0  0  0  0
 21 22  1  0  0  0  0
 21  5  2  0  0  0  0
 22 23  1  0  0  0  0
 24 22  1  0  0  0  0
 25 26  1  0  0  0  0
 26 27  1  0  0  0  0
 27 28  1  0  0  0  0
 28 29  1  0  0  0  0
 30 29  1  0  0  0  0
 30 32  1  0  0  0  0
 32 31  1  0  0  0  0
 33 32  2  0  0  0  0
M  END
>  <MODEL>
1

>  <REMARK>
 VINA RESULT:      -8.4      0.000      0.000
  Name = 
  8 active torsions:
  status: ('A' for Active; 'I' for Inactive)
    1  A    between atoms: C_6  and  C_17
    2  A    between atoms: C_6  and  C_26
    3  A    between atoms: C_13  and  C_22
    4  A    between atoms: C_13  and  C_29
    5  A    between atoms: C_17  and  C_22
    6  A    between atoms: N_18  and  C_30
    7  A    between atoms: N_20  and  C_33
    8  A    between atoms: C_26  and  C_30
                            x       y       z     vdW  Elec       q    Type
                         _______ _______ _______ _____ _____    ______ ____

>  <TORSDO>
F 8

$$$$
=
 OpenBabel11032420313D

 33 38  0  0  1  0  0  0  0  0999 V2000
  187.3840  178.2000  147.1000 N   0  0  0  0  0  0  0  0  0  0  0  0
  189.4150  178.3090  148.3100 N   0  0  0  0  0  0  0  0  0  0  0  0
  189.0710  175.8090  143.9430 C   0  0  1  0  0  3  0  0  0  0  0  0
  188.7720  177.1130  144.6690 C   0  0  1  0  0  0  0  0  0  0  0  0
  187.1050  179.0400  140.3620 C   0  0  0  0  0  3  0  0  0  0  0  0
  186.5690  177.7680  146.0000 C   0  0  0  0  0  2  0  0  0  0  0  0
  187.7440  176.5120  143.8070 C   0  0  2  0  0  0  0  0  0  0  0  0
  190.0390  175.9590  142.7500 C   0  0  0  0  0  2  0  0  0  0  0  0
  188.6460  177.8400  147.1950 C   0  0  0  0  0  0  0  0  0  0  0  0
  190.6450  177.9530  148.5300 C   0  0  0  0  0  3  0  0  0  0  0  0
  191.5660  176.6580  145.3040 N   0  0  0  0  0  2  0  0  0  0  0  0
  187.2820  177.2310  145.0420 C   0  0  1  0  0  3  0  0  0  0  0  0
  190.7900  176.9570  146.2800 C   0  0  0  0  0  0  0  0  0  0  0  0
  189.9150  177.2270  142.0400 N   0  0  0  0  0  0  0  0  0  0  0  0
  187.5360  177.3660  142.5720 C   0  0  0  0  0  0  0  0  0  0  0  0
  188.3920  178.5860  140.6540 C   0  0  0  0  0  3  0  0  0  0  0  0
  186.2450  177.8170  142.2610 C   0  0  0  0  0  3  0  0  0  0  0  0
  188.6110  177.7360  141.7460 C   0  0  0  0  0  0  0  0  0  0  0  0
  189.2820  176.8770  146.1410 C   0  0  2  0  0  3  0  0  0  0  0  0
  191.3590  176.9600  147.6630 C   0  0  0  0  0  2  0  0  0  0  0  0
  186.0180  178.6520  141.1560 C   0  0  0  0  0  0  0  0  0  0  0  0
  184.6960  179.1170  140.8430 N   0  0  0  0  0  0  0  0  0  0  0  0
  183.5560  178.7860  141.6850 C   0  0  0  0  0  1  0  0  0  0  0  0
  184.4870  179.8800  139.7440 O   0  0  0  0  0  1  0  0  0  0  0  0
  191.1260  177.9710  141.7210 C   0  0  0  0  0  2  0  0  0  0  0  0
  191.9520  177.2170  140.6960 C   0  0  0  0  0  2  0  0  0  0  0  0
  191.3640  177.4350  139.3180 C   0  0  0  0  0  2  0  0  0  0  0  0
  190.8330  176.1230  138.7850 C   0  0  0  0  0  2  0  0  0  0  0  0
  189.5200  176.3650  138.0630 C   0  0  0  0  0  2  0  0  0  0  0  0
  189.7100  177.3650  136.9340 C   0  0  0  0  0  2  0  0  0  0  0  0
  187.4770  178.1550  136.6610 O   0  0  0  0  0  0  0  0  0  0  0  0
  188.6630  178.4250  136.9830 C   0  0  0  0  0  0  0  0  0  0  0  0
  189.0010  179.7200  137.3530 O   0  0  0  0  0  1  0  0  0  0  0  0
  1  9  2  0  0  0  0
  2 10  2  0  0  0  0
  3  8  1  6  0  0  0
  3  4  1  0  0  0  0
  4 12  1  0  0  0  0
  4 19  1  0  0  0  0
  5 16  2  0  0  0  0
  5 21  1  0  0  0  0
  6  1  1  0  0  0  0
  7  3  1  0  0  0  0
  7  4  1  0  0  0  0
  7 12  1  0  0  0  0
  9  2  1  0  0  0  0
 11 13  2  0  0  0  0
 12  6  1  0  0  0  0
 13 20  1  0  0  0  0
 14  8  1  0  0  0  0
 15  7  1  0  0  0  0
 16 18  1  0  0  0  0
 17 15  1  0  0  0  0
 18 14  1  0  0  0  0
 18 15  2  0  0  0  0
 19 13  1  0  0  0  0
 19  9  1  0  0  0  0
 20 10  1  0  0  0  0
 21 17  2  0  0  0  0
 22 21  1  0  0  0  0
 22 23  1  0  0  0  0
 24 22  1  0  0  0  0
 25 14  1  0  0  0  0
 26 25  1  0  0  0  0
 27 26  1  0  0  0  0
 28 27  1  0  0  0  0
 29 28  1  0  0  0  0
 30 32  1  0  0  0  0
 30 29  1  0  0  0  0
 31 32  2  0  0  0  0
 32 33  1  0  0  0  0
M  END
>  <MODEL>
2

>  <REMARK>
 VINA RESULT:      -7.4      3.114      7.191
  Name = 
  8 active torsions:
  status: ('A' for Active; 'I' for Inactive)
    1  A    between atoms: C_6  and  C_17
    2  A    between atoms: C_6  and  C_26
    3  A    between atoms: C_13  and  C_22
    4  A    between atoms: C_13  and  C_29
    5  A    between atoms: C_17  and  C_22
    6  A    between atoms: N_18  and  C_30
    7  A    between atoms: N_20  and  C_33
    8  A    between atoms: C_26  and  C_30
                            x       y       z     vdW  Elec       q    Type
                         _______ _______ _______ _____ _____    ______ ____

>  <TORSDO>
F 8

$$$$
=
 OpenBabel11032420313D

 33 38  0  0  1  0  0  0  0  0999 V2000
  186.8240  174.5330  136.5930 N   0  0  0  0  0  0  0  0  0  0  0  0
  188.8740  173.3620  136.7460 N   0  0  0  0  0  0  0  0  0  0  0  0
  188.5360  178.2600  137.9000 C   0  0  1  0  0  3  0  0  0  0  0  0
  187.9330  176.8780  138.1060 C   0  0  1  0  0  0  0  0  0  0  0  0
  184.7250  178.8540  141.4010 C   0  0  0  0  0  3  0  0  0  0  0  0
  186.0100  175.7120  136.6920 C   0  0  0  0  0  2  0  0  0  0  0  0
  187.0470  178.0240  137.8520 C   0  0  2  0  0  0  0  0  0  0  0  0
  189.0750  178.9120  139.1900 C   0  0  0  0  0  2  0  0  0  0  0  0
  188.1130  174.5720  136.8520 C   0  0  0  0  0  0  0  0  0  0  0  0
  190.1620  173.3110  136.9120 C   0  0  0  0  0  3  0  0  0  0  0  0
  190.7530  176.4230  138.6140 N   0  0  0  0  0  2  0  0  0  0  0  0
  186.6380  176.6910  137.2930 C   0  0  1  0  0  3  0  0  0  0  0  0
  190.1640  175.5990  137.8270 C   0  0  0  0  0  0  0  0  0  0  0  0
  188.3170  178.5730  140.3890 N   0  0  0  0  0  0  0  0  0  0  0  0
  186.2540  178.3540  139.1010 C   0  0  0  0  0  0  0  0  0  0  0  0
  186.1190  178.8120  141.4830 C   0  0  0  0  0  3  0  0  0  0  0  0
  184.8550  178.4130  139.0270 C   0  0  0  0  0  3  0  0  0  0  0  0
  186.8870  178.5800  140.3350 C   0  0  0  0  0  0  0  0  0  0  0  0
  188.8130  175.9200  137.2170 C   0  0  2  0  0  3  0  0  0  0  0  0
  190.9860  174.5370  137.1710 C   0  0  0  0  0  2  0  0  0  0  0  0
  184.0810  178.6650  140.1710 C   0  0  0  0  0  0  0  0  0  0  0  0
  182.6480  178.7190  140.0940 N   0  0  0  0  0  0  0  0  0  0  0  0
  181.9440  178.4390  138.8520 C   0  0  0  0  0  1  0  0  0  0  0  0
  181.9200  179.0370  141.1910 O   0  0  0  0  0  1  0  0  0  0  0  0
  189.0440  178.1610  141.5830 C   0  0  0  0  0  2  0  0  0  0  0  0
  189.0900  176.6470  141.6730 C   0  0  0  0  0  2  0  0  0  0  0  0
  189.0420  176.2290  143.1270 C   0  0  0  0  0  2  0  0  0  0  0  0
  187.6400  176.4270  143.6610 C   0  0  0  0  0  2  0  0  0  0  0  0
  187.6930  177.2790  144.9160 C   0  0  0  0  0  2  0  0  0  0  0  0
  186.3610  177.9760  145.1420 C   0  0  0  0  0  2  0  0  0  0  0  0
  185.2930  179.2020  146.8870 O   0  0  0  0  0  0  0  0  0  0  0  0
  186.2390  178.4410  146.5530 C   0  0  0  0  0  0  0  0  0  0  0  0
  187.1860  178.0610  147.4940 O   0  0  0  0  0  1  0  0  0  0  0  0
  1  6  1  0  0  0  0
  1  9  2  0  0  0  0
  2  9  1  0  0  0  0
  2 10  2  0  0  0  0
  3  4  1  0  0  0  0
  3  8  1  1  0  0  0
  5 16  1  0  0  0  0
  6 12  1  0  0  0  0
  7  3  1  0  0  0  0
  7  4  1  0  0  0  0
  7 15  1  0  0  0  0
  8 14  1  0  0  0  0
  9 19  1  0  0  0  0
 10 20  1  0  0  0  0
 12  7  1  0  0  0  0
 12  4  1  0  0  0  0
 13 11  2  0  0  0  0
 14 25  1  0  0  0  0
 15 18  1  0  0  0  0
 17 15  2  0  0  0  0
 17 21  1  0  0  0  0
 18 14  1  0  0  0  0
 18 16  2  0  0  0  0
 19 13  1  0  0  0  0
 19  4  1  0  0  0  0
 20 13  1  0  0  0  0
 21  5  2  0  0  0  0
 22 21  1  0  0  0  0
 22 24  1  0  0  0  0
 23 22  1  0  0  0  0
 25 26  1  0  0  0  0
 26 27  1  0  0  0  0
 27 28  1  0  0  0  0
 28 29  1  0  0  0  0
 29 30  1  0  0  0  0
 30 32  1  0  0  0  0
 32 31  2  0  0  0  0
 32 33  1  0  0  0  0
M  END
>  <MODEL>
3

>  <REMARK>
 VINA RESULT:      -7.4      2.026      2.913
  Name = 
  8 active torsions:
  status: ('A' for Active; 'I' for Inactive)
    1  A    between atoms: C_6  and  C_17
    2  A    between atoms: C_6  and  C_26
    3  A    between atoms: C_13  and  C_22
    4  A    between atoms: C_13  and  C_29
    5  A    between atoms: C_17  and  C_22
    6  A    between atoms: N_18  and  C_30
    7  A    between atoms: N_20  and  C_33
    8  A    between atoms: C_26  and  C_30
                            x       y       z     vdW  Elec       q    Type
                         _______ _______ _______ _____ _____    ______ ____

>  <TORSDO>
F 8

$$$$
=
 OpenBabel11032420313D

 33 38  0  0  1  0  0  0  0  0999 V2000
  191.4020  177.3950  141.4630 N   0  0  0  0  0  0  0  0  0  0  0  0
  190.1650  178.4700  139.7570 N   0  0  0  0  0  0  0  0  0  0  0  0
  187.8860  176.1180  143.5920 C   0  0  1  0  0  3  0  0  0  0  0  0
  188.9650  177.1140  143.1950 C   0  0  1  0  0  0  0  0  0  0  0  0
  189.8240  178.0000  148.0450 C   0  0  0  0  0  3  0  0  0  0  0  0
  191.5220  176.6230  142.6680 C   0  0  0  0  0  2  0  0  0  0  0  0
  189.2620  176.0920  144.2090 C   0  0  2  0  0  0  0  0  0  0  0  0
  186.7640  176.7170  144.4670 C   0  0  0  0  0  2  0  0  0  0  0  0
  190.2240  177.6880  140.9570 C   0  0  0  0  0  0  0  0  0  0  0  0
  189.0560  178.7510  139.1410 C   0  0  0  0  0  3  0  0  0  0  0  0
  186.6510  178.0650  141.7260 N   0  0  0  0  0  2  0  0  0  0  0  0
  190.3740  176.4980  143.2860 C   0  0  1  0  0  3  0  0  0  0  0  0
  187.7480  177.9510  141.0720 C   0  0  0  0  0  0  0  0  0  0  0  0
  187.2150  177.7670  145.3720 N   0  0  0  0  0  0  0  0  0  0  0  0
  189.4220  176.7400  145.5700 C   0  0  0  0  0  0  0  0  0  0  0  0
  188.6460  178.2230  147.3300 C   0  0  0  0  0  3  0  0  0  0  0  0
  190.5950  176.5120  146.3030 C   0  0  0  0  0  3  0  0  0  0  0  0
  188.4320  177.5840  146.1020 C   0  0  0  0  0  0  0  0  0  0  0  0
  188.9140  177.1530  141.6210 C   0  0  2  0  0  3  0  0  0  0  0  0
  187.7280  178.2280  139.6020 C   0  0  0  0  0  2  0  0  0  0  0  0
  190.8050  177.1340  147.5430 C   0  0  0  0  0  0  0  0  0  0  0  0
  192.0100  176.9030  148.2890 N   0  0  0  0  0  0  0  0  0  0  0  0
  192.8050  175.7000  148.0940 C   0  0  0  0  0  1  0  0  0  0  0  0
  192.4300  177.8130  149.2000 O   0  0  0  0  0  1  0  0  0  0  0  0
  186.4490  179.0040  145.4450 C   0  0  0  0  0  2  0  0  0  0  0  0
  185.2380  178.8200  146.3410 C   0  0  0  0  0  2  0  0  0  0  0  0
  183.9810  178.8450  145.4990 C   0  0  0  0  0  2  0  0  0  0  0  0
  184.3150  179.3480  144.1120 C   0  0  0  0  0  2  0  0  0  0  0  0
  183.0950  179.2180  143.2190 C   0  0  0  0  0  2  0  0  0  0  0  0
  181.9280  178.6280  143.9950 C   0  0  0  0  0  2  0  0  0  0  0  0
  180.4920  180.1300  142.8260 O   0  0  0  0  0  0  0  0  0  0  0  0
  180.6290  179.0020  143.3650 C   0  0  0  0  0  0  0  0  0  0  0  0
  179.5600  178.1180  143.4020 O   0  0  0  0  0  1  0  0  0  0  0  0
  1  6  1  0  0  0  0
  2  9  1  0  0  0  0
  3  7  1  0  0  0  0
  3  8  1  1  0  0  0
  4 12  1  0  0  0  0
  4  3  1  0  0  0  0
  4  7  1  0  0  0  0
  6 12  1  0  0  0  0
  7 15  1  0  0  0  0
  8 14  1  0  0  0  0
  9  1  2  0  0  0  0
  9 19  1  0  0  0  0
 10 20  1  0  0  0  0
 10  2  2  0  0  0  0
 12  7  1  0  0  0  0
 13 19  1  0  0  0  0
 13 11  2  0  0  0  0
 14 25  1  0  0  0  0
 14 18  1  0  0  0  0
 15 18  2  0  0  0  0
 15 17  1  0  0  0  0
 16  5  2  0  0  0  0
 17 21  2  0  0  0  0
 18 16  1  0  0  0  0
 19  4  1  0  0  0  0
 20 13  1  0  0  0  0
 21  5  1  0  0  0  0
 21 22  1  0  0  0  0
 22 24  1  0  0  0  0
 23 22  1  0  0  0  0
 25 26  1  0  0  0  0
 27 26  1  0  0  0  0
 28 27  1  0  0  0  0
 29 30  1  0  0  0  0
 29 28  1  0  0  0  0
 31 32  2  0  0  0  0
 32 33  1  0  0  0  0
 32 30  1  0  0  0  0
M  END
>  <MODEL>
4

>  <REMARK>
 VINA RESULT:      -7.1      2.548      6.760
  Name = 
  8 active torsions:
  status: ('A' for Active; 'I' for Inactive)
    1  A    between atoms: C_6  and  C_17
    2  A    between atoms: C_6  and  C_26
    3  A    between atoms: C_13  and  C_22
    4  A    between atoms: C_13  and  C_29
    5  A    between atoms: C_17  and  C_22
    6  A    between atoms: N_18  and  C_30
    7  A    between atoms: N_20  and  C_33
    8  A    between atoms: C_26  and  C_30
                            x       y       z     vdW  Elec       q    Type
                         _______ _______ _______ _____ _____    ______ ____

>  <TORSDO>
F 8

$$$$
=
 OpenBabel11032420313D

 33 38  0  0  1  0  0  0  0  0999 V2000
  185.9380  178.8080  146.9550 N   0  0  0  0  0  0  0  0  0  0  0  0
  187.8530  178.9450  148.3380 N   0  0  0  0  0  0  0  0  0  0  0  0
  187.8030  176.1090  144.1680 C   0  0  1  0  0  3  0  0  0  0  0  0
  187.4950  177.4760  144.7580 C   0  0  1  0  0  0  0  0  0  0  0  0
  186.3090  179.1010  140.1760 C   0  0  0  0  0  3  0  0  0  0  0  0
  185.2090  178.3150  145.8200 C   0  0  0  0  0  2  0  0  0  0  0  0
  186.5240  176.8430  143.8540 C   0  0  2  0  0  0  0  0  0  0  0  0
  188.8810  176.1260  143.0640 C   0  0  0  0  0  2  0  0  0  0  0  0
  187.1700  178.4120  147.1960 C   0  0  0  0  0  0  0  0  0  0  0  0
  189.0420  178.5650  148.7010 C   0  0  0  0  0  3  0  0  0  0  0  0
  190.1970  176.9790  145.6870 N   0  0  0  0  0  2  0  0  0  0  0  0
  185.9830  177.6770  144.9790 C   0  0  1  0  0  3  0  0  0  0  0  0
  189.3490  177.3840  146.5590 C   0  0  0  0  0  0  0  0  0  0  0  0
  188.8760  177.3340  142.2480 N   0  0  0  0  0  0  0  0  0  0  0  0
  186.4660  177.6000  142.5410 C   0  0  0  0  0  0  0  0  0  0  0  0
  187.5440  178.6270  140.6220 C   0  0  0  0  0  3  0  0  0  0  0  0
  185.2290  178.0680  142.0760 C   0  0  0  0  0  3  0  0  0  0  0  0
  187.6260  177.8630  141.7930 C   0  0  0  0  0  0  0  0  0  0  0  0
  187.8580  177.3450  146.2860 C   0  0  2  0  0  3  0  0  0  0  0  0
  189.7900  177.4810  147.9840 C   0  0  0  0  0  2  0  0  0  0  0  0
  185.1390  178.8170  140.8920 C   0  0  0  0  0  0  0  0  0  0  0  0
  183.8710  179.3000  140.4210 N   0  0  0  0  0  0  0  0  0  0  0  0
  182.6220  178.8870  141.0420 C   0  0  0  0  0  1  0  0  0  0  0  0
  183.8180  180.1590  139.3750 O   0  0  0  0  0  1  0  0  0  0  0  0
  190.1410  178.0080  141.9870 C   0  0  0  0  0  2  0  0  0  0  0  0
  191.1460  177.0300  141.4070 C   0  0  0  0  0  2  0  0  0  0  0  0
  191.5260  177.4700  140.0090 C   0  0  0  0  0  2  0  0  0  0  0  0
  191.1230  176.3990  139.0190 C   0  0  0  0  0  2  0  0  0  0  0  0
  189.6980  176.6450  138.5590 C   0  0  0  0  0  2  0  0  0  0  0  0
  189.6650  177.7110  137.4760 C   0  0  0  0  0  2  0  0  0  0  0  0
  187.4220  177.1430  136.9000 O   0  0  0  0  0  0  0  0  0  0  0  0
  188.2600  178.0560  137.1150 C   0  0  0  0  0  0  0  0  0  0  0  0
  187.8840  179.3860  136.9830 O   0  0  0  0  0  1  0  0  0  0  0  0
  1  9  2  0  0  0  0
  2 10  2  0  0  0  0
  3  8  1  6  0  0  0
  3  4  1  0  0  0  0
  4 12  1  0  0  0  0
  4 19  1  0  0  0  0
  5 16  2  0  0  0  0
  5 21  1  0  0  0  0
  6  1  1  0  0  0  0
  7  3  1  0  0  0  0
  7  4  1  0  0  0  0
  7 12  1  0  0  0  0
  9  2  1  0  0  0  0
 11 13  2  0  0  0  0
 12  6  1  0  0  0  0
 13 20  1  0  0  0  0
 14  8  1  0  0  0  0
 15  7  1  0  0  0  0
 16 18  1  0  0  0  0
 17 15  1  0  0  0  0
 18 14  1  0  0  0  0
 18 15  2  0  0  0  0
 19 13  1  0  0  0  0
 19  9  1  0  0  0  0
 20 10  1  0  0  0  0
 21 17  2  0  0  0  0
 22 21  1  0  0  0  0
 22 23  1  0  0  0  0
 24 22  1  0  0  0  0
 25 14  1  0  0  0  0
 26 25  1  0  0  0  0
 27 26  1  0  0  0  0
 28 27  1  0  0  0  0
 29 28  1  0  0  0  0
 30 29  1  0  0  0  0
 31 32  2  0  0  0  0
 32 30  1  0  0  0  0
 33 32  1  0  0  0  0
M  END
>  <MODEL>
5

>  <REMARK>
 VINA RESULT:      -7.1      3.387      7.262
  Name = 
  8 active torsions:
  status: ('A' for Active; 'I' for Inactive)
    1  A    between atoms: C_6  and  C_17
    2  A    between atoms: C_6  and  C_26
    3  A    between atoms: C_13  and  C_22
    4  A    between atoms: C_13  and  C_29
    5  A    between atoms: C_17  and  C_22
    6  A    between atoms: N_18  and  C_30
    7  A    between atoms: N_20  and  C_33
    8  A    between atoms: C_26  and  C_30
                            x       y       z     vdW  Elec       q    Type
                         _______ _______ _______ _____ _____    ______ ____

>  <TORSDO>
F 8

$$$$
=
 OpenBabel11032420313D

 33 38  0  0  1  0  0  0  0  0999 V2000
  186.4390  174.8500  136.0730 N   0  0  0  0  0  0  0  0  0  0  0  0
  188.2210  173.2930  136.0680 N   0  0  0  0  0  0  0  0  0  0  0  0
  188.8090  177.9770  137.8440 C   0  0  1  0  0  3  0  0  0  0  0  0
  187.9470  176.7240  137.8730 C   0  0  1  0  0  0  0  0  0  0  0  0
  185.1080  178.8500  141.4040 C   0  0  0  0  0  3  0  0  0  0  0  0
  185.8670  176.1430  136.3260 C   0  0  0  0  0  2  0  0  0  0  0  0
  187.3050  178.0420  137.7710 C   0  0  2  0  0  0  0  0  0  0  0  0
  189.4360  178.3430  139.2070 C   0  0  0  0  0  2  0  0  0  0  0  0
  187.7060  174.6050  136.3310 C   0  0  0  0  0  0  0  0  0  0  0  0
  189.4710  172.9720  136.2220 C   0  0  0  0  0  3  0  0  0  0  0  0
  190.6130  175.6680  138.3090 N   0  0  0  0  0  2  0  0  0  0  0  0
  186.6580  176.8970  137.0460 C   0  0  1  0  0  3  0  0  0  0  0  0
  189.8940  175.0820  137.4250 C   0  0  0  0  0  0  0  0  0  0  0  0
  188.6000  178.0070  140.3540 N   0  0  0  0  0  0  0  0  0  0  0  0
  186.5620  178.3590  139.0540 C   0  0  0  0  0  0  0  0  0  0  0  0
  186.4650  178.5280  141.4760 C   0  0  0  0  0  3  0  0  0  0  0  0
  185.2030  178.6980  138.9930 C   0  0  0  0  0  3  0  0  0  0  0  0
  187.2000  178.2990  140.3050 C   0  0  0  0  0  0  0  0  0  0  0  0
  188.6450  175.7340  136.8650 C   0  0  2  0  0  3  0  0  0  0  0  0
  190.5100  173.9720  136.6340 C   0  0  0  0  0  2  0  0  0  0  0  0
  184.4680  178.9480  140.1620 C   0  0  0  0  0  0  0  0  0  0  0  0
  183.0740  179.2890  140.0960 N   0  0  0  0  0  0  0  0  0  0  0  0
  182.4960  179.8970  138.9070 C   0  0  0  0  0  1  0  0  0  0  0  0
  182.2650  179.0480  141.1560 O   0  0  0  0  0  1  0  0  0  0  0  0
  189.2070  177.3140  141.4820 C   0  0  0  0  0  2  0  0  0  0  0  0
  190.7180  177.3200  141.3510 C   0  0  0  0  0  2  0  0  0  0  0  0
  191.3430  177.3440  142.7290 C   0  0  0  0  0  2  0  0  0  0  0  0
  190.7010  178.4400  143.5520 C   0  0  0  0  0  2  0  0  0  0  0  0
  190.2850  177.8810  144.9000 C   0  0  0  0  0  2  0  0  0  0  0  0
  191.4430  177.1420  145.5510 C   0  0  0  0  0  2  0  0  0  0  0  0
  192.0210  176.6930  147.8200 O   0  0  0  0  0  1  0  0  0  0  0  0
  191.1110  176.7650  146.9540 C   0  0  0  0  0  0  0  0  0  0  0  0
  189.8010  176.4600  147.2990 O   0  0  0  0  0  0  0  0  0  0  0  0
  1  6  1  0  0  0  0
  1  9  2  0  0  0  0
  2 10  2  0  0  0  0
  2  9  1  0  0  0  0
  3  4  1  0  0  0  0
  3  8  1  1  0  0  0
  5 16  1  0  0  0  0
  6 12  1  0  0  0  0
  7  3  1  0  0  0  0
  7  4  1  0  0  0  0
  7 15  1  0  0  0  0
  8 14  1  0  0  0  0
  9 19  1  0  0  0  0
 10 20  1  0  0  0  0
 12  7  1  0  0  0  0
 12  4  1  0  0  0  0
 13 11  2  0  0  0  0
 14 25  1  0  0  0  0
 15 18  1  0  0  0  0
 17 15  2  0  0  0  0
 17 21  1  0  0  0  0
 18 14  1  0  0  0  0
 18 16  2  0  0  0  0
 19 13  1  0  0  0  0
 19  4  1  0  0  0  0
 20 13  1  0  0  0  0
 21  5  2  0  0  0  0
 22 21  1  0  0  0  0
 22 24  1  0  0  0  0
 23 22  1  0  0  0  0
 26 25  1  0  0  0  0
 26 27  1  0  0  0  0
 27 28  1  0  0  0  0
 28 29  1  0  0  0  0
 29 30  1  0  0  0  0
 30 32  1  0  0  0  0
 32 33  2  0  0  0  0
 32 31  1  0  0  0  0
M  END
>  <MODEL>
6

>  <REMARK>
 VINA RESULT:      -7.0      1.892      2.658
  Name = 
  8 active torsions:
  status: ('A' for Active; 'I' for Inactive)
    1  A    between atoms: C_6  and  C_17
    2  A    between atoms: C_6  and  C_26
    3  A    between atoms: C_13  and  C_22
    4  A    between atoms: C_13  and  C_29
    5  A    between atoms: C_17  and  C_22
    6  A    between atoms: N_18  and  C_30
    7  A    between atoms: N_20  and  C_33
    8  A    between atoms: C_26  and  C_30
                            x       y       z     vdW  Elec       q    Type
                         _______ _______ _______ _____ _____    ______ ____

>  <TORSDO>
F 8

$$$$
=
 OpenBabel11032420313D

 33 38  0  0  1  0  0  0  0  0999 V2000
  186.8580  178.3620  147.5610 N   0  0  0  0  0  0  0  0  0  0  0  0
  189.0480  178.6070  148.4250 N   0  0  0  0  0  0  0  0  0  0  0  0
  188.1590  176.0700  144.1580 C   0  0  1  0  0  3  0  0  0  0  0  0
  187.9000  177.3540  144.9300 C   0  0  1  0  0  0  0  0  0  0  0  0
  185.4320  179.1500  140.9640 C   0  0  0  0  0  3  0  0  0  0  0  0
  185.9050  177.8730  146.6060 C   0  0  0  0  0  2  0  0  0  0  0  0
  186.7850  176.6840  144.2440 C   0  0  2  0  0  0  0  0  0  0  0  0
  188.9090  176.2750  142.8240 C   0  0  0  0  0  2  0  0  0  0  0  0
  188.1400  178.0840  147.4470 C   0  0  0  0  0  0  0  0  0  0  0  0
  190.3180  178.3320  148.4400 C   0  0  0  0  0  3  0  0  0  0  0  0
  190.7830  177.0840  145.1000 N   0  0  0  0  0  2  0  0  0  0  0  0
  186.4860  177.3790  145.5420 C   0  0  1  0  0  3  0  0  0  0  0  0
  190.1580  177.3370  146.1900 C   0  0  0  0  0  0  0  0  0  0  0  0
  188.5890  177.5290  142.1510 N   0  0  0  0  0  0  0  0  0  0  0  0
  186.3240  177.5180  143.0650 C   0  0  0  0  0  0  0  0  0  0  0  0
  186.7770  178.7800  141.0390 C   0  0  0  0  0  3  0  0  0  0  0  0
  184.9740  177.8820  142.9700 C   0  0  0  0  0  3  0  0  0  0  0  0
  187.2240  177.9520  142.0770 C   0  0  0  0  0  0  0  0  0  0  0  0
  188.6560  177.1590  146.2980 C   0  0  2  0  0  3  0  0  0  0  0  0
  190.9440  177.3840  147.4620 C   0  0  0  0  0  2  0  0  0  0  0  0
  184.5170  178.6960  141.9220 C   0  0  0  0  0  0  0  0  0  0  0  0
  183.1340  179.0730  141.8310 N   0  0  0  0  0  0  0  0  0  0  0  0
  182.3010  179.1960  143.0180 C   0  0  0  0  0  1  0  0  0  0  0  0
  182.5750  179.3220  140.6230 O   0  0  0  0  0  1  0  0  0  0  0  0
  189.6820  178.3480  141.6440 C   0  0  0  0  0  2  0  0  0  0  0  0
  190.3700  177.6480  140.4870 C   0  0  0  0  0  2  0  0  0  0  0  0
  189.6770  178.0160  139.1930 C   0  0  0  0  0  2  0  0  0  0  0  0
  190.0070  176.9850  138.1360 C   0  0  0  0  0  2  0  0  0  0  0  0
  190.9300  175.9340  138.7240 C   0  0  0  0  0  2  0  0  0  0  0  0
  192.0160  175.5610  137.7280 C   0  0  0  0  0  2  0  0  0  0  0  0
  193.5940  176.7320  139.0780 O   0  0  0  0  0  1  0  0  0  0  0  0
  193.2260  176.4100  137.9180 C   0  0  0  0  0  0  0  0  0  0  0  0
  193.9300  176.8740  136.8150 O   0  0  0  0  0  0  0  0  0  0  0  0
  2 10  2  0  0  0  0
  3  8  1  6  0  0  0
  3  7  1  0  0  0  0
  3  4  1  0  0  0  0
  4 12  1  0  0  0  0
  4 19  1  0  0  0  0
  5 16  2  0  0  0  0
  5 21  1  0  0  0  0
  6  1  1  0  0  0  0
  7  4  1  0  0  0  0
  7 12  1  0  0  0  0
  9  1  2  0  0  0  0
  9  2  1  0  0  0  0
 11 13  2  0  0  0  0
 12  6  1  0  0  0  0
 13 19  1  0  0  0  0
 13 20  1  0  0  0  0
 14  8  1  0  0  0  0
 15  7  1  0  0  0  0
 16 18  1  0  0  0  0
 17 15  1  0  0  0  0
 18 14  1  0  0  0  0
 18 15  2  0  0  0  0
 19  9  1  0  0  0  0
 20 10  1  0  0  0  0
 21 17  2  0  0  0  0
 22 21  1  0  0  0  0
 22 23  1  0  0  0  0
 24 22  1  0  0  0  0
 25 14  1  0  0  0  0
 26 25  1  0  0  0  0
 27 26  1  0  0  0  0
 28 29  1  0  0  0  0
 28 27  1  0  0  0  0
 30 32  1  0  0  0  0
 30 29  1  0  0  0  0
 32 31  1  0  0  0  0
 33 32  2  0  0  0  0
M  END
>  <MODEL>
7

>  <REMARK>
 VINA RESULT:      -6.9      3.428      7.320
  Name = 
  8 active torsions:
  status: ('A' for Active; 'I' for Inactive)
    1  A    between atoms: C_6  and  C_17
    2  A    between atoms: C_6  and  C_26
    3  A    between atoms: C_13  and  C_22
    4  A    between atoms: C_13  and  C_29
    5  A    between atoms: C_17  and  C_22
    6  A    between atoms: N_18  and  C_30
    7  A    between atoms: N_20  and  C_33
    8  A    between atoms: C_26  and  C_30
                            x       y       z     vdW  Elec       q    Type
                         _______ _______ _______ _____ _____    ______ ____

>  <TORSDO>
F 8

$$$$
=
 OpenBabel11032420313D

 33 38  0  0  1  0  0  0  0  0999 V2000
  189.6480  176.8380  142.5630 N   0  0  0  0  0  0  0  0  0  0  0  0
  187.4660  177.3670  143.3100 N   0  0  0  0  0  0  0  0  0  0  0  0
  189.0860  178.6980  138.7230 C   0  0  1  0  0  3  0  0  0  0  0  0
  188.9660  177.5650  139.7300 C   0  0  1  0  0  0  0  0  0  0  0  0
  190.8860  174.4380  136.3270 C   0  0  0  0  0  3  0  0  0  0  0  0
  190.7140  176.8560  141.6010 C   0  0  0  0  0  2  0  0  0  0  0  0
  190.2320  177.7620  139.0100 C   0  0  2  0  0  0  0  0  0  0  0  0
  188.3260  178.4510  137.4020 C   0  0  0  0  0  2  0  0  0  0  0  0
  188.4970  177.4260  142.3160 C   0  0  0  0  0  0  0  0  0  0  0  0
  186.3240  177.9750  143.1910 C   0  0  0  0  0  3  0  0  0  0  0  0
  186.2710  178.6360  139.6570 N   0  0  0  0  0  2  0  0  0  0  0  0
  190.3080  177.2750  140.4290 C   0  0  1  0  0  3  0  0  0  0  0  0
  186.7850  178.4370  140.8140 C   0  0  0  0  0  0  0  0  0  0  0  0
  188.2920  177.0530  136.9890 N   0  0  0  0  0  0  0  0  0  0  0  0
  190.4570  176.6240  138.0340 C   0  0  0  0  0  0  0  0  0  0  0  0
  189.6970  175.1660  136.2450 C   0  0  0  0  0  3  0  0  0  0  0  0
  191.6540  175.8950  138.0970 C   0  0  0  0  0  3  0  0  0  0  0  0
  189.4850  176.2690  137.0830 C   0  0  0  0  0  0  0  0  0  0  0  0
  188.2750  178.2170  140.9870 C   0  0  2  0  0  3  0  0  0  0  0  0
  186.0010  178.8510  142.0180 C   0  0  0  0  0  2  0  0  0  0  0  0
  191.8790  174.8020  137.2460 C   0  0  0  0  0  0  0  0  0  0  0  0
  193.1030  174.0530  137.3170 N   0  0  0  0  0  0  0  0  0  0  0  0
  194.2760  174.5790  137.9980 C   0  0  0  0  0  1  0  0  0  0  0  0
  193.1840  172.8300  136.7410 O   0  0  0  0  0  1  0  0  0  0  0  0
  187.0210  176.4800  136.5670 C   0  0  0  0  0  2  0  0  0  0  0  0
  186.0170  177.5810  136.2810 C   0  0  0  0  0  2  0  0  0  0  0  0
  184.6190  177.0020  136.2920 C   0  0  0  0  0  2  0  0  0  0  0  0
  184.6260  175.6570  135.6000 C   0  0  0  0  0  2  0  0  0  0  0  0
  183.6340  174.7330  136.2810 C   0  0  0  0  0  2  0  0  0  0  0  0
  184.1220  174.3590  137.6720 C   0  0  0  0  0  2  0  0  0  0  0  0
  186.0010  172.9110  137.9180 O   0  0  0  0  0  1  0  0  0  0  0  0
  184.7730  173.0180  137.6630 C   0  0  0  0  0  0  0  0  0  0  0  0
  184.0330  171.8890  137.3420 O   0  0  0  0  0  0  0  0  0  0  0  0
  3  8  1  6  0  0  0
  3  7  1  0  0  0  0
  3  4  1  0  0  0  0
  4 12  1  0  0  0  0
  4 19  1  0  0  0  0
  5 21  1  0  0  0  0
  6  1  1  0  0  0  0
  7  4  1  0  0  0  0
  7 12  1  0  0  0  0
  9  1  2  0  0  0  0
  9  2  1  0  0  0  0
 10  2  2  0  0  0  0
 11 13  2  0  0  0  0
 12  6  1  0  0  0  0
 13 19  1  0  0  0  0
 13 20  1  0  0  0  0
 14 18  1  0  0  0  0
 14  8  1  0  0  0  0
 15 17  1  0  0  0  0
 15  7  1  0  0  0  0
 16  5  2  0  0  0  0
 16 18  1  0  0  0  0
 18 15  2  0  0  0  0
 19  9  1  0  0  0  0
 20 10  1  0  0  0  0
 21 22  1  0  0  0  0
 21 17  2  0  0  0  0
 22 23  1  0  0  0  0
 24 22  1  0  0  0  0
 25 14  1  0  0  0  0
 26 27  1  0  0  0  0
 26 25  1  0  0  0  0
 28 29  1  0  0  0  0
 28 27  1  0  0  0  0
 29 30  1  0  0  0  0
 32 30  1  0  0  0  0
 32 31  1  0  0  0  0
 33 32  2  0  0  0  0
M  END
>  <MODEL>
8

>  <REMARK>
 VINA RESULT:      -6.7      3.943      8.503
  Name = 
  8 active torsions:
  status: ('A' for Active; 'I' for Inactive)
    1  A    between atoms: C_6  and  C_17
    2  A    between atoms: C_6  and  C_26
    3  A    between atoms: C_13  and  C_22
    4  A    between atoms: C_13  and  C_29
    5  A    between atoms: C_17  and  C_22
    6  A    between atoms: N_18  and  C_30
    7  A    between atoms: N_20  and  C_33
    8  A    between atoms: C_26  and  C_30
                            x       y       z     vdW  Elec       q    Type
                         _______ _______ _______ _____ _____    ______ ____

>  <TORSDO>
F 8

$$$$
=
 OpenBabel11032420313D

 33 38  0  0  1  0  0  0  0  0999 V2000
  189.7300  176.7820  142.6030 N   0  0  0  0  0  0  0  0  0  0  0  0
  187.5850  177.3460  143.4270 N   0  0  0  0  0  0  0  0  0  0  0  0
  189.0540  178.6410  138.7800 C   0  0  1  0  0  3  0  0  0  0  0  0
  188.9550  177.5120  139.7940 C   0  0  1  0  0  0  0  0  0  0  0  0
  190.7020  174.3490  136.3320 C   0  0  0  0  0  3  0  0  0  0  0  0
  190.7600  176.7820  141.6020 C   0  0  0  0  0  2  0  0  0  0  0  0
  190.1960  177.6890  139.0280 C   0  0  2  0  0  0  0  0  0  0  0  0
  188.2430  178.4030  137.4880 C   0  0  0  0  0  2  0  0  0  0  0  0
  188.5800  177.3870  142.3960 C   0  0  0  0  0  0  0  0  0  0  0  0
  186.4480  177.9710  143.3490 C   0  0  0  0  0  3  0  0  0  0  0  0
  186.2750  178.6230  139.8170 N   0  0  0  0  0  2  0  0  0  0  0  0
  190.3180  177.2040  140.4440 C   0  0  1  0  0  3  0  0  0  0  0  0
  186.8290  178.4200  140.9550 C   0  0  0  0  0  0  0  0  0  0  0  0
  188.1730  177.0040  137.0820 N   0  0  0  0  0  0  0  0  0  0  0  0
  190.3690  176.5450  138.0470 C   0  0  0  0  0  0  0  0  0  0  0  0
  189.5220  175.0950  136.2920 C   0  0  0  0  0  3  0  0  0  0  0  0
  191.5550  175.7980  138.0690 C   0  0  0  0  0  3  0  0  0  0  0  0
  189.3570  176.2020  137.1340 C   0  0  0  0  0  0  0  0  0  0  0  0
  188.3210  178.1790  141.0740 C   0  0  2  0  0  3  0  0  0  0  0  0
  186.0950  178.8490  142.1860 C   0  0  0  0  0  2  0  0  0  0  0  0
  191.7330  174.7000  137.2130 C   0  0  0  0  0  0  0  0  0  0  0  0
  192.9470  173.9330  137.2410 N   0  0  0  0  0  0  0  0  0  0  0  0
  193.0940  172.7150  136.4590 C   0  0  0  0  0  1  0  0  0  0  0  0
  193.9880  174.3370  138.0080 O   0  0  0  0  0  1  0  0  0  0  0  0
  186.8790  176.4490  136.7090 C   0  0  0  0  0  2  0  0  0  0  0  0
  185.9800  177.5390  136.1550 C   0  0  0  0  0  2  0  0  0  0  0  0
  184.5330  177.1240  136.3120 C   0  0  0  0  0  2  0  0  0  0  0  0
  184.3210  176.5540  137.6970 C   0  0  0  0  0  2  0  0  0  0  0  0
  183.0030  177.0560  138.2560 C   0  0  0  0  0  2  0  0  0  0  0  0
  182.8300  178.5380  137.9640 C   0  0  0  0  0  2  0  0  0  0  0  0
  183.5670  180.5050  139.0920 O   0  0  0  0  0  0  0  0  0  0  0  0
  183.0740  179.3510  139.1890 C   0  0  0  0  0  0  0  0  0  0  0  0
  182.7870  178.8250  140.4410 O   0  0  0  0  0  1  0  0  0  0  0  0
  3  8  1  6  0  0  0
  3  7  1  0  0  0  0
  3  4  1  0  0  0  0
  4 12  1  0  0  0  0
  4 19  1  0  0  0  0
  5 21  1  0  0  0  0
  6  1  1  0  0  0  0
  7  4  1  0  0  0  0
  7 12  1  0  0  0  0
  9  1  2  0  0  0  0
  9  2  1  0  0  0  0
 10  2  2  0  0  0  0
 11 13  2  0  0  0  0
 12  6  1  0  0  0  0
 13 19  1  0  0  0  0
 13 20  1  0  0  0  0
 14 18  1  0  0  0  0
 14  8  1  0  0  0  0
 15 17  1  0  0  0  0
 15  7  1  0  0  0  0
 16  5  2  0  0  0  0
 16 18  1  0  0  0  0
 18 15  2  0  0  0  0
 19  9  1  0  0  0  0
 20 10  1  0  0  0  0
 21 22  1  0  0  0  0
 21 17  2  0  0  0  0
 22 24  1  0  0  0  0
 23 22  1  0  0  0  0
 25 14  1  0  0  0  0
 26 27  1  0  0  0  0
 26 25  1  0  0  0  0
 27 28  1  0  0  0  0
 28 29  1  0  0  0  0
 30 29  1  0  0  0  0
 30 32  1  0  0  0  0
 31 32  2  0  0  0  0
 32 33  1  0  0  0  0
M  END
>  <MODEL>
9

>  <REMARK>
 VINA RESULT:      -6.5      3.291      8.154
  Name = 
  8 active torsions:
  status: ('A' for Active; 'I' for Inactive)
    1  A    between atoms: C_6  and  C_17
    2  A    between atoms: C_6  and  C_26
    3  A    between atoms: C_13  and  C_22
    4  A    between atoms: C_13  and  C_29
    5  A    between atoms: C_17  and  C_22
    6  A    between atoms: N_18  and  C_30
    7  A    between atoms: N_20  and  C_33
    8  A    between atoms: C_26  and  C_30
                            x       y       z     vdW  Elec       q    Type
                         _______ _______ _______ _____ _____    ______ ____

>  <TORSDO>
F 8

$$$$
