=
 OpenBabel11042410223D

 37 40  0  0  1  0  0  0  0  0999 V2000
  189.3370  176.1050  135.2100 O   0  0  0  0  0  0  0  0  0  0  0  0
  190.6800  175.2620  137.0770 C   0  0  0  0  0  0  0  0  0  0  0  0
  187.7280  178.3520  138.6780 C   0  0  0  0  0  3  0  0  0  0  0  0
  189.4130  177.0440  139.8720 C   0  0  0  0  0  0  0  0  0  0  0  0
  188.3800  178.0060  139.8890 C   0  0  0  0  0  0  0  0  0  0  0  0
  188.0840  177.7650  137.4970 N   0  0  0  0  0  0  0  0  0  0  0  0
  189.0750  176.8440  137.5030 C   0  0  0  0  0  0  0  0  0  0  0  0
  189.6510  176.0790  136.4290 C   0  0  0  0  0  0  0  0  0  0  0  0
  191.5670  174.2920  136.3830 C   0  0  0  0  0  1  0  0  0  0  0  0
  190.7380  175.4840  138.3590 N   0  0  0  0  0  0  0  0  0  0  0  0
  189.7390  176.4710  138.6380 C   0  0  0  0  0  0  0  0  0  0  0  0
  190.1240  176.6660  141.1380 C   0  0  1  0  0  3  0  0  0  0  0  0
  191.1220  177.6790  141.4810 N   0  0  0  0  0  2  0  0  0  0  0  0
  191.9190  177.1940  142.6090 C   0  0  0  0  0  2  0  0  0  0  0  0
  189.1300  176.4870  142.2840 C   0  0  0  0  0  2  0  0  0  0  0  0
  191.0480  176.9830  143.8520 C   0  0  2  0  0  3  0  0  0  0  0  0
  189.8710  176.0540  143.5460 C   0  0  0  0  0  2  0  0  0  0  0  0
  190.7640  179.3650  143.8580 O   0  0  0  0  0  0  0  0  0  0  0  0
  190.6010  178.2780  144.4730 C   0  0  0  0  0  0  0  0  0  0  0  0
  189.9660  178.2930  145.7510 N   0  0  0  0  0  2  0  0  0  0  0  0
  189.7290  177.0790  146.5210 C   0  0  0  0  0  2  0  0  0  0  0  0
  187.3090  177.2720  146.3390 N   0  0  0  0  0  2  0  0  0  0  0  0
  186.6090  178.5170  146.6310 C   0  0  1  0  0  3  0  0  0  0  0  0
  188.3970  178.3940  148.1780 C   0  0  0  0  0  2  0  0  0  0  0  0
  188.4150  177.1650  147.2870 C   0  0  2  0  0  0  0  0  0  0  0  0
  185.1120  178.2900  146.5890 C   0  0  0  0  0  1  0  0  0  0  0  0
  187.0230  178.9730  148.0060 C   0  0  0  0  0  2  0  0  0  0  0  0
  188.2410  176.0190  148.0660 O   0  0  0  0  0  1  0  0  0  0  0  0
  188.0130  178.6100  141.0980 O   0  0  0  0  0  0  0  0  0  0  0  0
  186.7670  179.1750  141.2830 N   0  0  0  0  0  2  0  0  0  0  0  0
  186.1150  178.4480  142.3640 C   0  0  0  0  0  2  0  0  0  0  0  0
  184.6090  178.6680  142.3280 C   0  0  2  0  0  3  0  0  0  0  0  0
  184.0140  178.0730  143.4260 F   0  0  0  0  0  0  0  0  0  0  0  0
  183.9960  178.1140  141.0480 C   0  0  0  0  0  2  0  0  0  0  0  0
  183.7850  179.2130  139.0050 C   0  0  0  0  0  1  0  0  0  0  0  0
  181.8810  178.6810  140.2320 C   0  0  0  0  0  1  0  0  0  0  0  0
  183.2510  179.1510  140.3530 N   0  0  0  0  0  0  0  0  0  0  0  0
  1  8  2  0  0  0  0
  2 10  2  0  0  0  0
  3  5  1  0  0  0  0
  4  5  2  0  0  0  0
  5 29  1  0  0  0  0
  6  7  1  0  0  0  0
  6  3  2  0  0  0  0
  7 11  2  0  0  0  0
  8  2  1  0  0  0  0
  8  7  1  0  0  0  0
  9  2  1  0  0  0  0
 10 11  1  0  0  0  0
 11  4  1  0  0  0  0
 12  4  1  6  0  0  0
 12 13  1  0  0  0  0
 12 15  1  0  0  0  0
 13 14  1  0  0  0  0
 14 16  1  0  0  0  0
 15 17  1  0  0  0  0
 16 19  1  6  0  0  0
 17 16  1  0  0  0  0
 18 19  2  0  0  0  0
 19 20  1  0  0  0  0
 20 21  1  0  0  0  0
 21 25  1  0  0  0  0
 22 23  1  0  0  0  0
 22 25  1  0  0  0  0
 23 26  1  1  0  0  0
 23 27  1  0  0  0  0
 25 28  1  1  0  0  0
 25 24  1  0  0  0  0
 27 24  1  0  0  0  0
 29 30  1  0  0  0  0
 30 31  1  0  0  0  0
 32 31  1  0  0  0  0
 32 33  1  1  0  0  0
 34 32  1  0  0  0  0
 35 37  1  0  0  0  0
 36 37  1  0  0  0  0
 37 34  1  0  0  0  0
M  END
>  <MODEL>
1

>  <REMARK>
 VINA RESULT:      -7.8      0.000      0.000
  Name = 
  10 active torsions:
  status: ('A' for Active; 'I' for Inactive)
    1  A    between atoms: C_2  and  C_3
    2  A    between atoms: C_2  and  C_15
    3  A    between atoms: C_3  and  N_30
    4  A    between atoms: C_6  and  C_16
    5  A    between atoms: O_9  and  C_17
    6  A    between atoms: O_9  and  N_30
    7  A    between atoms: C_14  and  C_24
    8  A    between atoms: C_15  and  N_31
    9  A    between atoms: N_19  and  C_25
   10  A    between atoms: C_21  and  C_25
                            x       y       z     vdW  Elec       q    Type
                         _______ _______ _______ _____ _____    ______ ____

>  <TORSDO>
F 10

$$$$
=
 OpenBabel11042410223D

 37 40  0  0  1  0  0  0  0  0999 V2000
  184.5520  179.5250  139.7990 O   0  0  0  0  0  0  0  0  0  0  0  0
  185.8630  178.8460  141.7530 C   0  0  0  0  0  0  0  0  0  0  0  0
  188.1950  177.7650  137.9840 C   0  0  0  0  0  3  0  0  0  0  0  0
  188.7900  177.4320  140.3310 C   0  0  0  0  0  0  0  0  0  0  0  0
  189.1100  177.3000  138.9620 C   0  0  0  0  0  0  0  0  0  0  0  0
  187.0110  178.3410  138.3470 N   0  0  0  0  0  0  0  0  0  0  0  0
  186.7250  178.4600  139.6640 C   0  0  0  0  0  0  0  0  0  0  0  0
  185.5740  179.0130  140.3270 C   0  0  0  0  0  0  0  0  0  0  0  0
  184.9670  179.2640  142.8640 C   0  0  0  0  0  1  0  0  0  0  0  0
  187.0170  178.2770  141.9500 N   0  0  0  0  0  0  0  0  0  0  0  0
  187.5660  178.0300  140.6520 C   0  0  0  0  0  0  0  0  0  0  0  0
  189.7370  176.9410  141.3860 C   0  0  1  0  0  3  0  0  0  0  0  0
  190.8200  177.9040  141.5850 N   0  0  0  0  0  2  0  0  0  0  0  0
  191.8180  177.3150  142.4790 C   0  0  0  0  0  2  0  0  0  0  0  0
  188.9990  176.6880  142.7000 C   0  0  0  0  0  2  0  0  0  0  0  0
  191.2190  177.0200  143.8590 C   0  0  2  0  0  3  0  0  0  0  0  0
  189.9720  176.1410  143.7400 C   0  0  0  0  0  2  0  0  0  0  0  0
  191.2190  179.4000  144.1660 O   0  0  0  0  0  0  0  0  0  0  0  0
  190.9570  178.2690  144.6560 C   0  0  0  0  0  0  0  0  0  0  0  0
  190.3890  178.1940  145.9630 N   0  0  0  0  0  2  0  0  0  0  0  0
  190.0470  176.9270  146.5960 C   0  0  0  0  0  2  0  0  0  0  0  0
  187.6340  177.1540  146.3650 N   0  0  0  0  0  2  0  0  0  0  0  0
  186.9450  178.4070  146.6500 C   0  0  1  0  0  3  0  0  0  0  0  0
  188.6990  178.2500  148.2340 C   0  0  0  0  0  2  0  0  0  0  0  0
  188.7180  177.0270  147.3350 C   0  0  2  0  0  0  0  0  0  0  0  0
  185.4460  178.2010  146.5750 C   0  0  0  0  0  1  0  0  0  0  0  0
  187.3360  178.8490  148.0370 C   0  0  0  0  0  2  0  0  0  0  0  0
  188.5120  175.8780  148.1020 O   0  0  0  0  0  1  0  0  0  0  0  0
  190.3230  176.7090  138.5860 O   0  0  0  0  0  0  0  0  0  0  0  0
  190.4150  175.3680  138.2740 N   0  0  0  0  0  2  0  0  0  0  0  0
  191.4820  175.2210  137.2930 C   0  0  0  0  0  2  0  0  0  0  0  0
  192.8350  175.5380  137.9180 C   0  0  2  0  0  3  0  0  0  0  0  0
  193.3650  176.6820  137.3510 F   0  0  0  0  0  0  0  0  0  0  0  0
  193.8100  174.3800  137.7490 C   0  0  0  0  0  2  0  0  0  0  0  0
  195.7360  174.2750  139.0550 C   0  0  0  0  0  1  0  0  0  0  0  0
  195.9130  174.2680  136.7360 C   0  0  0  0  0  1  0  0  0  0  0  0
  195.1810  174.8540  137.8460 N   0  0  0  0  0  0  0  0  0  0  0  0
  1  8  2  0  0  0  0
  2 10  2  0  0  0  0
  2  9  1  0  0  0  0
  3  6  2  0  0  0  0
  3  5  1  0  0  0  0
  4 11  1  0  0  0  0
  5  4  2  0  0  0  0
  6  7  1  0  0  0  0
  7  8  1  0  0  0  0
  7 11  2  0  0  0  0
  8  2  1  0  0  0  0
 11 10  1  0  0  0  0
 12  4  1  6  0  0  0
 12 13  1  0  0  0  0
 12 15  1  0  0  0  0
 13 14  1  0  0  0  0
 14 16  1  0  0  0  0
 15 17  1  0  0  0  0
 16 19  1  6  0  0  0
 17 16  1  0  0  0  0
 18 19  2  0  0  0  0
 19 20  1  0  0  0  0
 20 21  1  0  0  0  0
 21 25  1  0  0  0  0
 22 23  1  0  0  0  0
 22 25  1  0  0  0  0
 23 26  1  1  0  0  0
 23 27  1  0  0  0  0
 25 28  1  1  0  0  0
 25 24  1  0  0  0  0
 27 24  1  0  0  0  0
 29  5  1  0  0  0  0
 30 29  1  0  0  0  0
 31 32  1  0  0  0  0
 31 30  1  0  0  0  0
 32 33  1  6  0  0  0
 34 37  1  0  0  0  0
 34 32  1  0  0  0  0
 36 37  1  0  0  0  0
 37 35  1  0  0  0  0
M  END
>  <MODEL>
2

>  <REMARK>
 VINA RESULT:      -7.6      2.587      6.053
  Name = 
  10 active torsions:
  status: ('A' for Active; 'I' for Inactive)
    1  A    between atoms: C_2  and  C_3
    2  A    between atoms: C_2  and  C_15
    3  A    between atoms: C_3  and  N_30
    4  A    between atoms: C_6  and  C_16
    5  A    between atoms: O_9  and  C_17
    6  A    between atoms: O_9  and  N_30
    7  A    between atoms: C_14  and  C_24
    8  A    between atoms: C_15  and  N_31
    9  A    between atoms: N_19  and  C_25
   10  A    between atoms: C_21  and  C_25
                            x       y       z     vdW  Elec       q    Type
                         _______ _______ _______ _____ _____    ______ ____

>  <TORSDO>
F 10

$$$$
=
 OpenBabel11042410223D

 37 40  0  0  1  0  0  0  0  0999 V2000
  183.1430  179.7240  144.3400 O   0  0  0  0  0  0  0  0  0  0  0  0
  185.2500  178.6270  144.9380 C   0  0  0  0  0  0  0  0  0  0  0  0
  185.0880  179.1060  140.4040 C   0  0  0  0  0  3  0  0  0  0  0  0
  186.8330  178.1190  141.8030 C   0  0  0  0  0  0  0  0  0  0  0  0
  186.3510  178.4720  140.5230 C   0  0  0  0  0  0  0  0  0  0  0  0
  184.3340  179.3830  141.5080 N   0  0  0  0  0  0  0  0  0  0  0  0
  184.8150  179.0390  142.7250 C   0  0  0  0  0  0  0  0  0  0  0  0
  184.2480  179.2020  144.0380 C   0  0  0  0  0  0  0  0  0  0  0  0
  185.1300  178.5530  146.4190 C   0  0  0  0  0  1  0  0  0  0  0  0
  186.2830  178.1740  144.2880 N   0  0  0  0  0  0  0  0  0  0  0  0
  186.0230  178.4260  142.9030 C   0  0  0  0  0  0  0  0  0  0  0  0
  188.1620  177.4400  141.9570 C   0  0  1  0  0  3  0  0  0  0  0  0
  189.2430  178.3450  141.5690 N   0  0  0  0  0  2  0  0  0  0  0  0
  190.5020  177.5980  141.5540 C   0  0  0  0  0  2  0  0  0  0  0  0
  188.3600  176.9580  143.3930 C   0  0  0  0  0  2  0  0  0  0  0  0
  190.8440  177.0620  142.9480 C   0  0  2  0  0  3  0  0  0  0  0  0
  189.6930  176.2260  143.5120 C   0  0  0  0  0  2  0  0  0  0  0  0
  191.2890  179.3490  143.5190 O   0  0  0  0  0  0  0  0  0  0  0  0
  191.2730  178.1480  143.8970 C   0  0  0  0  0  0  0  0  0  0  0  0
  191.6450  177.8370  145.2400 N   0  0  0  0  0  2  0  0  0  0  0  0
  191.6410  176.4750  145.7570 C   0  0  0  0  0  2  0  0  0  0  0  0
  189.5380  176.6140  146.9750 N   0  0  0  0  0  2  0  0  0  0  0  0
  189.1800  177.7840  147.7680 C   0  0  1  0  0  3  0  0  0  0  0  0
  191.5170  177.5040  148.0320 C   0  0  0  0  0  2  0  0  0  0  0  0
  190.9760  176.4130  147.1270 C   0  0  2  0  0  0  0  0  0  0  0  0
  187.9010  177.5180  148.5340 C   0  0  0  0  0  1  0  0  0  0  0  0
  190.3080  178.0580  148.7300 C   0  0  0  0  0  2  0  0  0  0  0  0
  191.2040  175.1640  147.7110 O   0  0  0  0  0  1  0  0  0  0  0  0
  187.1220  178.1880  139.3890 O   0  0  0  0  0  0  0  0  0  0  0  0
  186.5450  177.8870  138.1720 N   0  0  0  0  0  2  0  0  0  0  0  0
  187.4600  178.3400  137.1320 C   0  0  0  0  0  2  0  0  0  0  0  0
  188.8660  178.5140  137.6920 C   0  0  2  0  0  3  0  0  0  0  0  0
  189.3180  179.7990  137.4530 F   0  0  0  0  0  0  0  0  0  0  0  0
  189.8340  177.5060  137.0840 C   0  0  0  0  0  2  0  0  0  0  0  0
  189.8680  175.2130  137.4900 C   0  0  0  0  0  1  0  0  0  0  0  0
  191.6500  176.5350  138.1880 C   0  0  0  0  0  1  0  0  0  0  0  0
  190.2020  176.5010  138.0680 N   0  0  0  0  0  0  0  0  0  0  0  0
  2  9  1  0  0  0  0
  3  5  2  0  0  0  0
  3  6  1  0  0  0  0
  4 11  2  0  0  0  0
  5  4  1  0  0  0  0
  6  7  2  0  0  0  0
  7 11  1  0  0  0  0
  7  8  1  0  0  0  0
  8  1  2  0  0  0  0
  8  2  1  0  0  0  0
 10  2  2  0  0  0  0
 11 10  1  0  0  0  0
 12  4  1  1  0  0  0
 12 15  1  0  0  0  0
 13 12  1  0  0  0  0
 14 13  1  0  0  0  0
 14 16  1  0  0  0  0
 15 17  1  0  0  0  0
 16 17  1  0  0  0  0
 16 19  1  1  0  0  0
 18 19  2  0  0  0  0
 19 20  1  0  0  0  0
 20 21  1  0  0  0  0
 21 25  1  0  0  0  0
 22 25  1  0  0  0  0
 22 23  1  0  0  0  0
 23 26  1  1  0  0  0
 23 27  1  0  0  0  0
 24 27  1  0  0  0  0
 25 28  1  1  0  0  0
 25 24  1  0  0  0  0
 29  5  1  0  0  0  0
 30 29  1  0  0  0  0
 31 32  1  0  0  0  0
 31 30  1  0  0  0  0
 32 33  1  6  0  0  0
 34 32  1  0  0  0  0
 34 37  1  0  0  0  0
 35 37  1  0  0  0  0
 37 36  1  0  0  0  0
M  END
>  <MODEL>
3

>  <REMARK>
 VINA RESULT:      -7.5      2.271      5.728
  Name = 
  10 active torsions:
  status: ('A' for Active; 'I' for Inactive)
    1  A    between atoms: C_2  and  C_3
    2  A    between atoms: C_2  and  C_15
    3  A    between atoms: C_3  and  N_30
    4  A    between atoms: C_6  and  C_16
    5  A    between atoms: O_9  and  C_17
    6  A    between atoms: O_9  and  N_30
    7  A    between atoms: C_14  and  C_24
    8  A    between atoms: C_15  and  N_31
    9  A    between atoms: N_19  and  C_25
   10  A    between atoms: C_21  and  C_25
                            x       y       z     vdW  Elec       q    Type
                         _______ _______ _______ _____ _____    ______ ____

>  <TORSDO>
F 10

$$$$
=
 OpenBabel11042410223D

 37 40  0  0  1  0  0  0  0  0999 V2000
  188.7280  178.0240  148.9480 O   0  0  0  0  0  0  0  0  0  0  0  0
  189.9080  177.1770  146.9760 C   0  0  0  0  0  0  0  0  0  0  0  0
  185.7500  178.5630  145.7070 C   0  0  0  0  0  3  0  0  0  0  0  0
  187.5460  177.5960  144.3610 C   0  0  0  0  0  0  0  0  0  0  0  0
  186.2400  178.1270  144.4510 C   0  0  0  0  0  0  0  0  0  0  0  0
  186.5220  178.4780  146.8310 N   0  0  0  0  0  0  0  0  0  0  0  0
  187.7710  177.9680  146.7220 C   0  0  0  0  0  0  0  0  0  0  0  0
  188.7890  177.7610  147.7190 C   0  0  0  0  0  0  0  0  0  0  0  0
  191.2130  176.7760  147.5660 C   0  0  0  0  0  1  0  0  0  0  0  0
  189.6320  177.0400  145.7110 N   0  0  0  0  0  0  0  0  0  0  0  0
  188.2980  177.5320  145.5390 C   0  0  0  0  0  0  0  0  0  0  0  0
  188.0870  177.1200  143.0440 C   0  0  1  0  0  3  0  0  0  0  0  0
  188.5390  178.2550  142.2410 N   0  0  0  0  0  2  0  0  0  0  0  0
  188.8860  177.7770  140.9010 C   0  0  0  0  0  2  0  0  0  0  0  0
  189.2280  176.1270  143.2560 C   0  0  0  0  0  2  0  0  0  0  0  0
  190.0440  176.7750  140.9540 C   0  0  2  0  0  3  0  0  0  0  0  0
  189.7260  175.6190  141.9060 C   0  0  0  0  0  2  0  0  0  0  0  0
  191.6030  177.8230  142.4460 O   0  0  0  0  0  0  0  0  0  0  0  0
  191.3610  177.4270  141.2750 C   0  0  0  0  0  0  0  0  0  0  0  0
  192.3600  177.5850  140.2680 N   0  0  0  0  0  2  0  0  0  0  0  0
  192.1620  177.1440  138.8930 C   0  0  0  0  0  2  0  0  0  0  0  0
  193.9170  176.9600  137.2160 N   0  0  0  0  0  2  0  0  0  0  0  0
  193.8550  175.9820  136.1360 C   0  0  1  0  0  3  0  0  0  0  0  0
  192.9190  174.9210  138.0360 C   0  0  0  0  0  2  0  0  0  0  0  0
  193.3530  176.3280  138.4050 C   0  0  2  0  0  0  0  0  0  0  0  0
  195.1510  175.9940  135.3530 C   0  0  0  0  0  1  0  0  0  0  0  0
  193.6370  174.6230  136.7510 C   0  0  0  0  0  2  0  0  0  0  0  0
  194.3310  176.2700  139.4010 O   0  0  0  0  0  1  0  0  0  0  0  0
  185.4450  178.2140  143.3010 O   0  0  0  0  0  0  0  0  0  0  0  0
  184.5840  179.2710  143.0890 N   0  0  0  0  0  2  0  0  0  0  0  0
  183.3000  178.7130  142.6860 C   0  0  0  0  0  2  0  0  0  0  0  0
  182.1980  179.1570  143.6400 C   0  0  2  0  0  3  0  0  0  0  0  0
  182.5050  178.7750  144.9330 F   0  0  0  0  0  0  0  0  0  0  0  0
  180.8480  178.5750  143.2380 C   0  0  0  0  0  2  0  0  0  0  0  0
  179.6270  177.8250  141.4020 C   0  0  0  0  0  1  0  0  0  0  0  0
  179.9110  180.1080  141.7440 C   0  0  0  0  0  1  0  0  0  0  0  0
  180.5880  178.8250  141.8290 N   0  0  0  0  0  0  0  0  0  0  0  0
  2  9  1  0  0  0  0
  2  8  1  0  0  0  0
  3  6  1  0  0  0  0
  4  5  1  0  0  0  0
  4 11  2  0  0  0  0
  5  3  2  0  0  0  0
  7  6  2  0  0  0  0
  7  8  1  0  0  0  0
  8  1  2  0  0  0  0
 10  2  2  0  0  0  0
 11 10  1  0  0  0  0
 11  7  1  0  0  0  0
 12 15  1  0  0  0  0
 12  4  1  1  0  0  0
 13 12  1  0  0  0  0
 14 16  1  0  0  0  0
 14 13  1  0  0  0  0
 16 19  1  1  0  0  0
 16 17  1  0  0  0  0
 17 15  1  0  0  0  0
 19 18  2  0  0  0  0
 20 19  1  0  0  0  0
 21 20  1  0  0  0  0
 22 25  1  0  0  0  0
 23 26  1  1  0  0  0
 23 27  1  0  0  0  0
 23 22  1  0  0  0  0
 24 25  1  0  0  0  0
 25 21  1  0  0  0  0
 25 28  1  1  0  0  0
 27 24  1  0  0  0  0
 29  5  1  0  0  0  0
 30 29  1  0  0  0  0
 31 30  1  0  0  0  0
 31 32  1  0  0  0  0
 32 33  1  1  0  0  0
 34 32  1  0  0  0  0
 35 37  1  0  0  0  0
 36 37  1  0  0  0  0
 37 34  1  0  0  0  0
M  END
>  <MODEL>
4

>  <REMARK>
 VINA RESULT:      -7.4      2.487      7.837
  Name = 
  10 active torsions:
  status: ('A' for Active; 'I' for Inactive)
    1  A    between atoms: C_2  and  C_3
    2  A    between atoms: C_2  and  C_15
    3  A    between atoms: C_3  and  N_30
    4  A    between atoms: C_6  and  C_16
    5  A    between atoms: O_9  and  C_17
    6  A    between atoms: O_9  and  N_30
    7  A    between atoms: C_14  and  C_24
    8  A    between atoms: C_15  and  N_31
    9  A    between atoms: N_19  and  C_25
   10  A    between atoms: C_21  and  C_25
                            x       y       z     vdW  Elec       q    Type
                         _______ _______ _______ _____ _____    ______ ____

>  <TORSDO>
F 10

$$$$
=
 OpenBabel11042410223D

 37 40  0  0  1  0  0  0  0  0999 V2000
  189.9230  174.1800  135.5740 O   0  0  0  0  0  0  0  0  0  0  0  0
  191.1090  174.8700  137.6020 C   0  0  0  0  0  0  0  0  0  0  0  0
  187.1860  177.1860  137.3440 C   0  0  0  0  0  3  0  0  0  0  0  0
  188.9390  177.2800  139.0450 C   0  0  0  0  0  0  0  0  0  0  0  0
  187.6920  177.7240  138.5540 C   0  0  0  0  0  0  0  0  0  0  0  0
  187.8870  176.2430  136.6480 N   0  0  0  0  0  0  0  0  0  0  0  0
  189.0790  175.8290  137.1360 C   0  0  0  0  0  0  0  0  0  0  0  0
  190.0190  174.8670  136.6240 C   0  0  0  0  0  0  0  0  0  0  0  0
  192.3360  174.0350  137.5210 C   0  0  0  0  0  1  0  0  0  0  0  0
  190.8840  175.7050  138.5760 N   0  0  0  0  0  0  0  0  0  0  0  0
  189.6180  176.3120  138.2960 C   0  0  0  0  0  0  0  0  0  0  0  0
  189.5010  177.8390  140.3180 C   0  0  1  0  0  3  0  0  0  0  0  0
  188.6140  177.5370  141.4410 N   0  0  0  0  0  2  0  0  0  0  0  0
  189.0920  178.2490  142.6260 C   0  0  0  0  0  2  0  0  0  0  0  0
  190.9010  177.2870  140.5810 C   0  0  0  0  0  2  0  0  0  0  0  0
  190.4960  177.7800  143.0250 C   0  0  2  0  0  3  0  0  0  0  0  0
  191.4710  177.9080  141.8520 C   0  0  0  0  0  2  0  0  0  0  0  0
  190.5920  175.3880  142.8660 O   0  0  0  0  0  0  0  0  0  0  0  0
  190.4990  176.3960  143.6150 C   0  0  0  0  0  0  0  0  0  0  0  0
  190.4200  176.2070  145.0270 N   0  0  0  0  0  2  0  0  0  0  0  0
  190.3210  177.3200  145.9620 C   0  0  0  0  0  2  0  0  0  0  0  0
  187.8930  177.2180  146.0940 N   0  0  0  0  0  2  0  0  0  0  0  0
  187.1000  178.3250  146.6150 C   0  0  1  0  0  3  0  0  0  0  0  0
  189.0800  178.2700  147.9130 C   0  0  0  0  0  2  0  0  0  0  0  0
  189.1190  177.1550  146.8840 C   0  0  2  0  0  0  0  0  0  0  0  0
  185.6460  177.9140  146.7250 C   0  0  0  0  0  1  0  0  0  0  0  0
  187.6380  178.6830  147.9770 C   0  0  0  0  0  2  0  0  0  0  0  0
  189.1820  175.9200  147.5330 O   0  0  0  0  0  1  0  0  0  0  0  0
  186.9710  178.6920  139.2650 O   0  0  0  0  0  0  0  0  0  0  0  0
  185.6020  178.6130  139.4210 N   0  0  0  0  0  2  0  0  0  0  0  0
  185.2970  179.0030  140.7910 C   0  0  0  0  0  2  0  0  0  0  0  0
  183.8620  178.6360  141.1480 C   0  0  2  0  0  3  0  0  0  0  0  0
  183.8490  177.5950  142.0580 F   0  0  0  0  0  0  0  0  0  0  0  0
  183.0640  178.2470  139.9100 C   0  0  0  0  0  2  0  0  0  0  0  0
  180.8430  177.5550  139.8050 C   0  0  0  0  0  1  0  0  0  0  0  0
  182.5460  176.0430  139.3300 C   0  0  0  0  0  1  0  0  0  0  0  0
  182.1720  177.1380  140.2090 N   0  0  0  0  0  0  0  0  0  0  0  0
  1  8  2  0  0  0  0
  2 10  2  0  0  0  0
  3  5  1  0  0  0  0
  5  4  2  0  0  0  0
  5 29  1  0  0  0  0
  6  7  1  0  0  0  0
  6  3  2  0  0  0  0
  7 11  2  0  0  0  0
  8  7  1  0  0  0  0
  8  2  1  0  0  0  0
  9  2  1  0  0  0  0
 11 10  1  0  0  0  0
 11  4  1  0  0  0  0
 12  4  1  6  0  0  0
 12 15  1  0  0  0  0
 12 13  1  0  0  0  0
 13 14  1  0  0  0  0
 14 16  1  0  0  0  0
 15 17  1  0  0  0  0
 16 19  1  6  0  0  0
 17 16  1  0  0  0  0
 18 19  2  0  0  0  0
 19 20  1  0  0  0  0
 20 21  1  0  0  0  0
 21 25  1  0  0  0  0
 22 23  1  0  0  0  0
 22 25  1  0  0  0  0
 23 26  1  1  0  0  0
 23 27  1  0  0  0  0
 24 27  1  0  0  0  0
 25 28  1  1  0  0  0
 25 24  1  0  0  0  0
 29 30  1  0  0  0  0
 30 31  1  0  0  0  0
 31 32  1  0  0  0  0
 32 33  1  1  0  0  0
 34 37  1  0  0  0  0
 34 32  1  0  0  0  0
 35 37  1  0  0  0  0
 36 37  1  0  0  0  0
M  END
>  <MODEL>
5

>  <REMARK>
 VINA RESULT:      -7.1      1.561      1.877
  Name = 
  10 active torsions:
  status: ('A' for Active; 'I' for Inactive)
    1  A    between atoms: C_2  and  C_3
    2  A    between atoms: C_2  and  C_15
    3  A    between atoms: C_3  and  N_30
    4  A    between atoms: C_6  and  C_16
    5  A    between atoms: O_9  and  C_17
    6  A    between atoms: O_9  and  N_30
    7  A    between atoms: C_14  and  C_24
    8  A    between atoms: C_15  and  N_31
    9  A    between atoms: N_19  and  C_25
   10  A    between atoms: C_21  and  C_25
                            x       y       z     vdW  Elec       q    Type
                         _______ _______ _______ _____ _____    ______ ____

>  <TORSDO>
F 10

$$$$
=
 OpenBabel11042410223D

 37 40  0  0  1  0  0  0  0  0999 V2000
  183.0990  179.5470  144.5460 O   0  0  0  0  0  0  0  0  0  0  0  0
  185.2210  178.4560  145.0980 C   0  0  0  0  0  0  0  0  0  0  0  0
  185.0510  179.1240  140.5880 C   0  0  0  0  0  3  0  0  0  0  0  0
  186.8100  178.1040  141.9440 C   0  0  0  0  0  0  0  0  0  0  0  0
  186.3220  178.5030  140.6810 C   0  0  0  0  0  0  0  0  0  0  0  0
  184.2930  179.3430  141.7020 N   0  0  0  0  0  0  0  0  0  0  0  0
  184.7800  178.9550  142.9040 C   0  0  0  0  0  0  0  0  0  0  0  0
  184.2110  179.0550  144.2220 C   0  0  0  0  0  0  0  0  0  0  0  0
  185.1030  178.3180  146.5740 C   0  0  0  0  0  1  0  0  0  0  0  0
  186.2600  178.0460  144.4300 N   0  0  0  0  0  0  0  0  0  0  0  0
  185.9970  178.3520  143.0560 C   0  0  0  0  0  0  0  0  0  0  0  0
  188.1480  177.4380  142.0700 C   0  0  1  0  0  3  0  0  0  0  0  0
  189.2130  178.3560  141.6670 N   0  0  0  0  0  2  0  0  0  0  0  0
  190.4790  177.6230  141.6240 C   0  0  0  0  0  2  0  0  0  0  0  0
  188.3770  176.9490  143.4990 C   0  0  0  0  0  2  0  0  0  0  0  0
  190.8520  177.0820  143.0090 C   0  0  2  0  0  3  0  0  0  0  0  0
  189.7210  176.2300  143.5880 C   0  0  0  0  0  2  0  0  0  0  0  0
  191.2960  179.3690  143.5820 O   0  0  0  0  0  0  0  0  0  0  0  0
  191.2880  178.1660  143.9560 C   0  0  0  0  0  0  0  0  0  0  0  0
  191.6730  177.8520  145.2940 N   0  0  0  0  0  2  0  0  0  0  0  0
  191.6790  176.4890  145.8080 C   0  0  0  0  0  2  0  0  0  0  0  0
  189.5700  176.6170  147.0180 N   0  0  0  0  0  2  0  0  0  0  0  0
  189.2070  177.7810  147.8160 C   0  0  1  0  0  3  0  0  0  0  0  0
  191.5430  177.5040  148.0890 C   0  0  0  0  0  2  0  0  0  0  0  0
  191.0080  176.4170  147.1740 C   0  0  2  0  0  0  0  0  0  0  0  0
  187.9250  177.5080  148.5750 C   0  0  0  0  0  1  0  0  0  0  0  0
  190.3300  178.0510  148.7840 C   0  0  0  0  0  2  0  0  0  0  0  0
  191.2360  175.1650  147.7510 O   0  0  0  0  0  1  0  0  0  0  0  0
  187.0960  178.2790  139.5350 O   0  0  0  0  0  0  0  0  0  0  0  0
  186.6520  178.6250  138.2750 N   0  0  0  0  0  2  0  0  0  0  0  0
  187.1080  177.5920  137.3540 C   0  0  0  0  0  2  0  0  0  0  0  0
  185.9220  176.8740  136.7220 C   0  0  2  0  0  3  0  0  0  0  0  0
  185.9420  177.0390  135.3500 F   0  0  0  0  0  0  0  0  0  0  0  0
  184.6010  177.3850  137.2830 C   0  0  0  0  0  2  0  0  0  0  0  0
  184.3730  175.0680  137.2140 C   0  0  0  0  0  1  0  0  0  0  0  0
  183.0880  176.3090  138.7030 C   0  0  0  0  0  1  0  0  0  0  0  0
  183.6290  176.3050  137.3540 N   0  0  0  0  0  0  0  0  0  0  0  0
  2  9  1  0  0  0  0
  3  5  2  0  0  0  0
  3  6  1  0  0  0  0
  4 11  2  0  0  0  0
  5  4  1  0  0  0  0
  6  7  2  0  0  0  0
  7 11  1  0  0  0  0
  7  8  1  0  0  0  0
  8  1  2  0  0  0  0
  8  2  1  0  0  0  0
 10  2  2  0  0  0  0
 11 10  1  0  0  0  0
 12  4  1  1  0  0  0
 12 15  1  0  0  0  0
 13 12  1  0  0  0  0
 14 13  1  0  0  0  0
 14 16  1  0  0  0  0
 15 17  1  0  0  0  0
 16 17  1  0  0  0  0
 16 19  1  1  0  0  0
 18 19  2  0  0  0  0
 19 20  1  0  0  0  0
 20 21  1  0  0  0  0
 21 25  1  0  0  0  0
 22 25  1  0  0  0  0
 22 23  1  0  0  0  0
 23 26  1  1  0  0  0
 23 27  1  0  0  0  0
 24 27  1  0  0  0  0
 25 28  1  1  0  0  0
 25 24  1  0  0  0  0
 29  5  1  0  0  0  0
 30 29  1  0  0  0  0
 31 30  1  0  0  0  0
 32 33  1  6  0  0  0
 32 34  1  0  0  0  0
 32 31  1  0  0  0  0
 34 37  1  0  0  0  0
 35 37  1  0  0  0  0
 37 36  1  0  0  0  0
M  END
>  <MODEL>
6

>  <REMARK>
 VINA RESULT:      -7.1      2.744      5.250
  Name = 
  10 active torsions:
  status: ('A' for Active; 'I' for Inactive)
    1  A    between atoms: C_2  and  C_3
    2  A    between atoms: C_2  and  C_15
    3  A    between atoms: C_3  and  N_30
    4  A    between atoms: C_6  and  C_16
    5  A    between atoms: O_9  and  C_17
    6  A    between atoms: O_9  and  N_30
    7  A    between atoms: C_14  and  C_24
    8  A    between atoms: C_15  and  N_31
    9  A    between atoms: N_19  and  C_25
   10  A    between atoms: C_21  and  C_25
                            x       y       z     vdW  Elec       q    Type
                         _______ _______ _______ _____ _____    ______ ____

>  <TORSDO>
F 10

$$$$
=
 OpenBabel11042410223D

 37 40  0  0  1  0  0  0  0  0999 V2000
  182.9390  178.8150  141.9830 O   0  0  0  0  0  0  0  0  0  0  0  0
  184.5270  179.1750  140.1530 C   0  0  0  0  0  0  0  0  0  0  0  0
  186.7900  177.4950  143.7410 C   0  0  0  0  0  3  0  0  0  0  0  0
  187.6230  178.1250  141.5310 C   0  0  0  0  0  0  0  0  0  0  0  0
  187.8670  177.6220  142.8280 C   0  0  0  0  0  0  0  0  0  0  0  0
  185.5210  177.8520  143.3840 N   0  0  0  0  0  0  0  0  0  0  0  0
  185.3090  178.3300  142.1360 C   0  0  0  0  0  0  0  0  0  0  0  0
  184.0990  178.7770  141.4960 C   0  0  0  0  0  0  0  0  0  0  0  0
  183.6330  179.7140  139.0930 C   0  0  0  0  0  1  0  0  0  0  0  0
  185.8050  179.0020  139.9800 N   0  0  0  0  0  0  0  0  0  0  0  0
  186.3060  178.4750  141.2130 C   0  0  0  0  0  0  0  0  0  0  0  0
  188.7470  178.2760  140.5480 C   0  0  1  0  0  3  0  0  0  0  0  0
  189.7630  177.2490  140.7760 N   0  0  0  0  0  2  0  0  0  0  0  0
  190.9220  177.5350  139.9300 C   0  0  0  0  0  2  0  0  0  0  0  0
  188.2250  178.2020  139.1150 C   0  0  0  0  0  2  0  0  0  0  0  0
  190.5500  177.4780  138.4440 C   0  0  2  0  0  3  0  0  0  0  0  0
  189.3770  178.4100  138.1350 C   0  0  0  0  0  2  0  0  0  0  0  0
  189.2750  175.4480  138.3420 O   0  0  0  0  0  0  0  0  0  0  0  0
  190.3000  176.0740  137.9630 C   0  0  0  0  0  0  0  0  0  0  0  0
  191.2040  175.4430  137.0560 N   0  0  0  0  0  2  0  0  0  0  0  0
  192.4050  176.1030  136.5620 C   0  0  0  0  0  2  0  0  0  0  0  0
  194.8220  175.8260  136.4650 N   0  0  0  0  0  2  0  0  0  0  0  0
  195.4420  174.5240  136.2490 C   0  0  1  0  0  3  0  0  0  0  0  0
  193.5330  174.1250  137.5920 C   0  0  0  0  0  2  0  0  0  0  0  0
  193.6430  175.6100  137.3000 C   0  0  2  0  0  0  0  0  0  0  0  0
  196.9450  174.6370  136.3980 C   0  0  0  0  0  1  0  0  0  0  0  0
  194.8920  173.5700  137.2780 C   0  0  0  0  0  2  0  0  0  0  0  0
  193.7960  176.3140  138.4970 O   0  0  0  0  0  1  0  0  0  0  0  0
  189.1670  177.2560  143.1980 O   0  0  0  0  0  0  0  0  0  0  0  0
  189.8540  177.9160  144.1960 N   0  0  0  0  0  2  0  0  0  0  0  0
  190.8020  176.9700  144.7710 C   0  0  0  0  0  2  0  0  0  0  0  0
  190.9020  177.1580  146.2790 C   0  0  2  0  0  3  0  0  0  0  0  0
  191.9560  176.4180  146.7820 F   0  0  0  0  0  0  0  0  0  0  0  0
  189.6100  176.7530  146.9760 C   0  0  0  0  0  2  0  0  0  0  0  0
  187.4230  177.5220  147.2050 C   0  0  0  0  0  1  0  0  0  0  0  0
  189.0630  178.2520  148.6840 C   0  0  0  0  0  1  0  0  0  0  0  0
  188.8130  177.9290  147.2890 N   0  0  0  0  0  0  0  0  0  0  0  0
  2  8  1  0  0  0  0
  4  5  1  0  0  0  0
  5 29  1  0  0  0  0
  5  3  2  0  0  0  0
  6  3  1  0  0  0  0
  7  6  2  0  0  0  0
  8  1  2  0  0  0  0
  8  7  1  0  0  0  0
  9  2  1  0  0  0  0
 10  2  2  0  0  0  0
 10 11  1  0  0  0  0
 11  4  2  0  0  0  0
 11  7  1  0  0  0  0
 12 13  1  0  0  0  0
 12  4  1  1  0  0  0
 14 13  1  0  0  0  0
 15 12  1  0  0  0  0
 16 19  1  1  0  0  0
 16 14  1  0  0  0  0
 17 16  1  0  0  0  0
 17 15  1  0  0  0  0
 19 18  2  0  0  0  0
 20 19  1  0  0  0  0
 21 20  1  0  0  0  0
 21 25  1  0  0  0  0
 22 25  1  0  0  0  0
 23 26  1  1  0  0  0
 23 22  1  0  0  0  0
 23 27  1  0  0  0  0
 25 24  1  0  0  0  0
 25 28  1  1  0  0  0
 27 24  1  0  0  0  0
 29 30  1  0  0  0  0
 30 31  1  0  0  0  0
 31 32  1  0  0  0  0
 32 33  1  1  0  0  0
 32 34  1  0  0  0  0
 34 37  1  0  0  0  0
 35 37  1  0  0  0  0
 37 36  1  0  0  0  0
M  END
>  <MODEL>
7

>  <REMARK>
 VINA RESULT:      -6.9      2.819      8.485
  Name = 
  10 active torsions:
  status: ('A' for Active; 'I' for Inactive)
    1  A    between atoms: C_2  and  C_3
    2  A    between atoms: C_2  and  C_15
    3  A    between atoms: C_3  and  N_30
    4  A    between atoms: C_6  and  C_16
    5  A    between atoms: O_9  and  C_17
    6  A    between atoms: O_9  and  N_30
    7  A    between atoms: C_14  and  C_24
    8  A    between atoms: C_15  and  N_31
    9  A    between atoms: N_19  and  C_25
   10  A    between atoms: C_21  and  C_25
                            x       y       z     vdW  Elec       q    Type
                         _______ _______ _______ _____ _____    ______ ____

>  <TORSDO>
F 10

$$$$
=
 OpenBabel11042410223D

 37 40  0  0  1  0  0  0  0  0999 V2000
  188.7770  176.9820  146.9870 O   0  0  0  0  0  0  0  0  0  0  0  0
  190.3830  176.9980  145.1370 C   0  0  0  0  0  0  0  0  0  0  0  0
  186.2640  178.0900  143.5060 C   0  0  0  0  0  3  0  0  0  0  0  0
  188.3980  177.8840  142.3320 C   0  0  0  0  0  0  0  0  0  0  0  0
  187.0130  178.1590  142.3040 C   0  0  0  0  0  0  0  0  0  0  0  0
  186.8620  177.7630  144.6890 N   0  0  0  0  0  0  0  0  0  0  0  0
  188.1910  177.5050  144.6940 C   0  0  0  0  0  0  0  0  0  0  0  0
  189.0710  177.1400  145.7730 C   0  0  0  0  0  0  0  0  0  0  0  0
  191.6400  176.6260  145.8390 C   0  0  0  0  0  1  0  0  0  0  0  0
  190.3300  177.2380  143.8580 N   0  0  0  0  0  0  0  0  0  0  0  0
  188.9650  177.5560  143.5690 C   0  0  0  0  0  0  0  0  0  0  0  0
  189.2130  177.9430  141.0730 C   0  0  1  0  0  3  0  0  0  0  0  0
  189.6270  176.5980  140.6740 N   0  0  0  0  0  2  0  0  0  0  0  0
  190.5660  176.7060  139.5570 C   0  0  0  0  0  2  0  0  0  0  0  0
  188.4250  178.6140  139.9500 C   0  0  0  0  0  2  0  0  0  0  0  0
  189.9020  177.3530  138.3360 C   0  0  2  0  0  3  0  0  0  0  0  0
  189.2910  178.7080  138.6970 C   0  0  0  0  0  2  0  0  0  0  0  0
  187.6950  176.4750  138.0020 O   0  0  0  0  0  0  0  0  0  0  0  0
  188.9080  176.4430  137.6670 C   0  0  0  0  0  0  0  0  0  0  0  0
  189.3190  175.5520  136.6300 N   0  0  0  0  0  2  0  0  0  0  0  0
  190.7010  175.4630  136.1760 C   0  0  0  0  0  2  0  0  0  0  0  0
  192.5800  174.6750  137.5070 N   0  0  0  0  0  2  0  0  0  0  0  0
  193.7290  174.0080  136.9050 C   0  0  1  0  0  3  0  0  0  0  0  0
  191.8360  173.2940  135.6730 C   0  0  0  0  0  2  0  0  0  0  0  0
  191.3950  174.2450  136.7710 C   0  0  2  0  0  0  0  0  0  0  0  0
  194.6530  173.4920  137.9880 C   0  0  0  0  0  1  0  0  0  0  0  0
  193.2170  172.8600  136.0730 C   0  0  0  0  0  2  0  0  0  0  0  0
  190.5290  173.5830  137.6450 O   0  0  0  0  0  1  0  0  0  0  0  0
  186.3960  178.4940  141.0930 O   0  0  0  0  0  0  0  0  0  0  0  0
  185.3920  179.4380  141.0220 N   0  0  0  0  0  2  0  0  0  0  0  0
  184.3960  178.9460  140.0790 C   0  0  0  0  0  2  0  0  0  0  0  0
  183.0900  178.6270  140.7940 C   0  0  2  0  0  3  0  0  0  0  0  0
  183.3450  178.2160  142.0900 F   0  0  0  0  0  0  0  0  0  0  0  0
  182.3030  177.5490  140.0580 C   0  0  0  0  0  2  0  0  0  0  0  0
  182.9110  175.7070  138.7690 C   0  0  0  0  0  1  0  0  0  0  0  0
  182.2310  177.6710  137.7260 C   0  0  0  0  0  1  0  0  0  0  0  0
  182.9990  177.1520  138.8450 N   0  0  0  0  0  0  0  0  0  0  0  0
  2  8  1  0  0  0  0
  2  9  1  0  0  0  0
  3  6  1  0  0  0  0
  4 11  2  0  0  0  0
  5  4  1  0  0  0  0
  5  3  2  0  0  0  0
  6  7  2  0  0  0  0
  7  8  1  0  0  0  0
  8  1  2  0  0  0  0
 10  2  2  0  0  0  0
 11 10  1  0  0  0  0
 11  7  1  0  0  0  0
 12  4  1  1  0  0  0
 13 12  1  0  0  0  0
 14 13  1  0  0  0  0
 15 12  1  0  0  0  0
 16 19  1  1  0  0  0
 16 17  1  0  0  0  0
 16 14  1  0  0  0  0
 17 15  1  0  0  0  0
 19 18  2  0  0  0  0
 20 19  1  0  0  0  0
 21 20  1  0  0  0  0
 21 25  1  0  0  0  0
 23 22  1  0  0  0  0
 23 26  1  1  0  0  0
 24 27  1  0  0  0  0
 24 25  1  0  0  0  0
 25 22  1  0  0  0  0
 25 28  1  1  0  0  0
 27 23  1  0  0  0  0
 29  5  1  0  0  0  0
 30 29  1  0  0  0  0
 31 32  1  0  0  0  0
 31 30  1  0  0  0  0
 32 33  1  1  0  0  0
 34 32  1  0  0  0  0
 35 37  1  0  0  0  0
 36 37  1  0  0  0  0
 37 34  1  0  0  0  0
M  END
>  <MODEL>
8

>  <REMARK>
 VINA RESULT:      -6.9      2.007      7.664
  Name = 
  10 active torsions:
  status: ('A' for Active; 'I' for Inactive)
    1  A    between atoms: C_2  and  C_3
    2  A    between atoms: C_2  and  C_15
    3  A    between atoms: C_3  and  N_30
    4  A    between atoms: C_6  and  C_16
    5  A    between atoms: O_9  and  C_17
    6  A    between atoms: O_9  and  N_30
    7  A    between atoms: C_14  and  C_24
    8  A    between atoms: C_15  and  N_31
    9  A    between atoms: N_19  and  C_25
   10  A    between atoms: C_21  and  C_25
                            x       y       z     vdW  Elec       q    Type
                         _______ _______ _______ _____ _____    ______ ____

>  <TORSDO>
F 10

$$$$
=
 OpenBabel11042410223D

 37 40  0  0  1  0  0  0  0  0999 V2000
  186.6640  178.2280  145.6660 O   0  0  0  0  0  0  0  0  0  0  0  0
  186.6190  178.0430  143.2240 C   0  0  0  0  0  0  0  0  0  0  0  0
  182.4040  178.9840  144.6970 C   0  0  0  0  0  3  0  0  0  0  0  0
  183.2160  178.6450  142.4160 C   0  0  0  0  0  0  0  0  0  0  0  0
  182.1520  178.9240  143.3030 C   0  0  0  0  0  0  0  0  0  0  0  0
  183.6590  178.7780  145.1940 N   0  0  0  0  0  0  0  0  0  0  0  0
  184.6640  178.5140  144.3270 C   0  0  0  0  0  0  0  0  0  0  0  0
  186.0610  178.2580  144.5620 C   0  0  0  0  0  0  0  0  0  0  0  0
  188.0440  177.7380  142.9280 C   0  0  0  0  0  1  0  0  0  0  0  0
  185.7100  178.1490  142.2980 N   0  0  0  0  0  0  0  0  0  0  0  0
  184.4830  178.4430  142.9740 C   0  0  0  0  0  0  0  0  0  0  0  0
  182.9760  178.5680  140.9370 C   0  0  1  0  0  3  0  0  0  0  0  0
  183.8000  179.5520  140.2370 N   0  0  0  0  0  2  0  0  0  0  0  0
  183.4090  179.5780  138.8270 C   0  0  0  0  0  2  0  0  0  0  0  0
  183.2650  177.1620  140.4150 C   0  0  0  0  0  2  0  0  0  0  0  0
  183.6620  178.2230  138.1570 C   0  0  2  0  0  3  0  0  0  0  0  0
  182.9650  177.0950  138.9210 C   0  0  0  0  0  2  0  0  0  0  0  0
  185.9880  178.5100  138.6720 O   0  0  0  0  0  0  0  0  0  0  0  0
  185.1260  177.9440  137.9480 C   0  0  0  0  0  0  0  0  0  0  0  0
  185.5560  177.0220  136.9480 N   0  0  0  0  0  2  0  0  0  0  0  0
  184.6220  176.3170  136.0790 C   0  0  0  0  0  2  0  0  0  0  0  0
  183.7380  174.0500  136.1330 N   0  0  0  0  0  2  0  0  0  0  0  0
  183.9060  173.1820  137.2920 C   0  0  1  0  0  3  0  0  0  0  0  0
  185.9040  174.4420  137.1230 C   0  0  0  0  0  2  0  0  0  0  0  0
  184.9630  174.8340  135.9990 C   0  0  2  0  0  0  0  0  0  0  0  0
  183.3990  171.7910  136.9750 C   0  0  0  0  0  1  0  0  0  0  0  0
  185.3750  173.1310  137.6270 C   0  0  0  0  0  2  0  0  0  0  0  0
  185.5580  174.5480  134.7680 O   0  0  0  0  0  1  0  0  0  0  0  0
  180.8640  179.1350  142.7970 O   0  0  0  0  0  0  0  0  0  0  0  0
  180.4910  180.3350  142.2270 N   0  0  0  0  0  2  0  0  0  0  0  0
  179.2200  180.1190  141.5480 C   0  0  0  0  0  2  0  0  0  0  0  0
  179.4170  180.0790  140.0380 C   0  0  2  0  0  3  0  0  0  0  0  0
  180.0380  178.9000  139.6700 F   0  0  0  0  0  0  0  0  0  0  0  0
  180.2390  181.2670  139.5540 C   0  0  0  0  0  2  0  0  0  0  0  0
  178.9310  181.4820  137.6390 C   0  0  0  0  0  1  0  0  0  0  0  0
  181.0300  182.4810  137.7200 C   0  0  0  0  0  1  0  0  0  0  0  0
  180.2920  181.2880  138.1010 N   0  0  0  0  0  0  0  0  0  0  0  0
  2  8  1  0  0  0  0
  3  6  1  0  0  0  0
  4 11  2  0  0  0  0
  4  5  1  0  0  0  0
  5  3  2  0  0  0  0
  7  8  1  0  0  0  0
  7  6  2  0  0  0  0
  8  1  2  0  0  0  0
  9  2  1  0  0  0  0
 10 11  1  0  0  0  0
 10  2  2  0  0  0  0
 11  7  1  0  0  0  0
 12  4  1  1  0  0  0
 13 12  1  0  0  0  0
 14 13  1  0  0  0  0
 15 12  1  0  0  0  0
 16 19  1  1  0  0  0
 16 14  1  0  0  0  0
 16 17  1  0  0  0  0
 17 15  1  0  0  0  0
 19 18  2  0  0  0  0
 20 19  1  0  0  0  0
 21 20  1  0  0  0  0
 22 23  1  0  0  0  0
 23 26  1  6  0  0  0
 23 27  1  0  0  0  0
 24 27  1  0  0  0  0
 25 28  1  6  0  0  0
 25 21  1  0  0  0  0
 25 22  1  0  0  0  0
 25 24  1  0  0  0  0
 29  5  1  0  0  0  0
 30 29  1  0  0  0  0
 31 30  1  0  0  0  0
 32 33  1  1  0  0  0
 32 31  1  0  0  0  0
 34 32  1  0  0  0  0
 35 37  1  0  0  0  0
 36 37  1  0  0  0  0
 37 34  1  0  0  0  0
M  END
>  <MODEL>
9

>  <REMARK>
 VINA RESULT:      -6.7      3.741      8.731
  Name = 
  10 active torsions:
  status: ('A' for Active; 'I' for Inactive)
    1  A    between atoms: C_2  and  C_3
    2  A    between atoms: C_2  and  C_15
    3  A    between atoms: C_3  and  N_30
    4  A    between atoms: C_6  and  C_16
    5  A    between atoms: O_9  and  C_17
    6  A    between atoms: O_9  and  N_30
    7  A    between atoms: C_14  and  C_24
    8  A    between atoms: C_15  and  N_31
    9  A    between atoms: N_19  and  C_25
   10  A    between atoms: C_21  and  C_25
                            x       y       z     vdW  Elec       q    Type
                         _______ _______ _______ _____ _____    ______ ____

>  <TORSDO>
F 10

$$$$
