=
 OpenBabel11032420283D

 33 38  0  0  1  0  0  0  0  0999 V2000
  189.4010  178.0970  142.8690 N   0  0  1  0  0  0  0  0  0  0  0  0
  190.8190  178.3760  143.0930 C   0  0  0  0  0  2  0  0  0  0  0  0
  190.1580  175.8470  137.0450 C   0  0  0  0  0  0  0  0  0  0  0  0
  188.7300  175.9420  136.7070 C   0  0  0  0  0  0  0  0  0  0  0  0
  192.0830  176.4110  138.3010 C   0  0  0  0  0  2  0  0  0  0  0  0
  190.6020  176.3820  138.1720 C   0  0  0  0  0  0  0  0  0  0  0  0
  187.6400  177.7210  141.1180 C   0  0  1  0  0  3  0  0  0  0  0  0
  191.7140  177.2650  142.5490 C   0  0  2  0  0  3  0  0  0  0  0  0
  192.4780  177.7290  141.3320 C   0  0  0  0  0  2  0  0  0  0  0  0
  187.2190  178.4110  139.5050 S   0  0  0  0  0  0  0  0  0  0  0  0
  186.6680  177.8650  143.3580 C   0  0  0  0  0  0  0  0  0  0  0  0
  184.5500  178.8240  146.2050 O   0  0  0  0  0  0  0  0  0  0  0  0
  189.0800  178.1540  141.4310 C   0  0  2  0  0  3  0  0  0  0  0  0
  186.7160  178.2500  142.1160 N   0  0  0  0  0  0  0  0  0  0  0  0
  191.2890  176.8020  141.1550 C   0  0  2  0  0  3  0  0  0  0  0  0
  189.0260  176.8000  143.4450 C   0  0  0  0  0  2  0  0  0  0  0  0
  185.5220  178.2800  145.6210 C   0  0  0  0  0  0  0  0  0  0  0  0
  191.4010  175.2550  135.9160 S   0  0  0  0  0  0  0  0  0  0  0  0
  186.4470  177.5100  146.3800 N   0  0  0  0  0  1  0  0  0  0  0  0
  187.8830  176.7660  137.5170 N   0  0  0  0  0  0  0  0  0  0  0  0
  185.6860  178.4720  144.2090 N   0  0  0  0  0  2  0  0  0  0  0  0
  192.6450  176.1540  136.9070 C   0  0  2  0  0  3  0  0  0  0  0  0
  187.5530  176.7520  143.8790 C   0  0  0  0  0  2  0  0  0  0  0  0
  188.2690  175.3720  135.6840 O   0  0  0  0  0  0  0  0  0  0  0  0
  189.6160  176.7970  139.2510 C   0  0  2  0  0  3  0  0  0  0  0  0
  188.2930  177.2610  138.6510 C   0  0  0  0  0  0  0  0  0  0  0  0
  190.1710  177.5990  140.4570 C   0  0  1  0  0  3  0  0  0  0  0  0
  193.9890  175.4290  136.9430 C   0  0  0  0  0  2  0  0  0  0  0  0
  195.2840  175.3310  138.9610 O   0  0  0  0  0  1  0  0  0  0  0  0
  194.2490  174.7070  138.2630 C   0  0  2  0  0  3  0  0  0  0  0  0
  194.0780  172.6360  136.8910 O   0  0  0  0  0  0  0  0  0  0  0  0
  194.6010  173.2810  138.0040 C   0  0  0  0  0  0  0  0  0  0  0  0
  195.3860  172.6650  138.7720 O   0  0  0  0  0  1  0  0  0  0  0  0
  1  2  1  6  0  0  0
  1 16  1  0  0  0  0
  3  6  2  0  0  0  0
  4  3  1  0  0  0  0
  4 20  1  0  0  0  0
  6  5  1  0  0  0  0
  6 25  1  0  0  0  0
  7 10  1  6  0  0  0
  7 13  1  0  0  0  0
  7 14  1  0  0  0  0
  8  9  1  6  0  0  0
  8  2  1  0  0  0  0
 11 23  1  0  0  0  0
 11 21  1  0  0  0  0
 13  1  1  0  0  0  0
 14 11  2  0  0  0  0
 15  9  1  0  0  0  0
 15  8  1  0  0  0  0
 16 23  1  0  0  0  0
 17 12  2  0  0  0  0
 17 19  1  0  0  0  0
 18 22  1  0  0  0  0
 18  3  1  0  0  0  0
 20 26  2  0  0  0  0
 21 17  1  0  0  0  0
 22 28  1  0  0  0  0
 22  5  1  0  0  0  0
 24  4  2  0  0  0  0
 25 27  1  0  0  0  0
 26 25  1  0  0  0  0
 26 10  1  0  0  0  0
 27 15  1  0  0  0  0
 27 13  1  0  0  0  0
 28 30  1  0  0  0  0
 30 29  1  0  0  0  0
 31 32  2  0  0  0  0
 32 30  1  0  0  0  0
 32 33  1  0  0  0  0
M  END
>  <MODEL>
1

>  <REMARK>
 VINA RESULT:      -8.1      0.000      0.000
  Name = 
  3 active torsions:
  status: ('A' for Active; 'I' for Inactive)
    1  A    between atoms: C_12  and  C_14
    2  A    between atoms: C_12  and  C_31
    3  A    between atoms: C_14  and  C_26
                            x       y       z     vdW  Elec       q    Type
                         _______ _______ _______ _____ _____    ______ ____

>  <TORSDO>
F 3

$$$$
=
 OpenBabel11032420283D

 33 38  0  0  1  0  0  0  0  0999 V2000
  190.6570  177.0580  137.4670 N   0  0  1  0  0  0  0  0  0  0  0  0
  189.4590  177.6850  136.9090 C   0  0  0  0  0  2  0  0  0  0  0  0
  188.6600  177.1860  143.4300 C   0  0  0  0  0  0  0  0  0  0  0  0
  189.9920  176.9250  143.9950 C   0  0  0  0  0  0  0  0  0  0  0  0
  187.1810  177.8940  141.7230 C   0  0  0  0  0  2  0  0  0  0  0  0
  188.5340  177.4380  142.1350 C   0  0  0  0  0  0  0  0  0  0  0  0
  192.0110  176.7300  139.5560 C   0  0  1  0  0  3  0  0  0  0  0  0
  188.1810  177.1570  137.5560 C   0  0  2  0  0  3  0  0  0  0  0  0
  187.5400  178.2090  138.4290 C   0  0  0  0  0  2  0  0  0  0  0  0
  192.5200  177.7340  140.9670 S   0  0  0  0  0  0  0  0  0  0  0  0
  193.1500  175.8220  137.5910 C   0  0  0  0  0  0  0  0  0  0  0  0
  195.6980  175.0760  135.0490 O   0  0  0  0  0  0  0  0  0  0  0  0
  190.8560  177.4730  138.8680 C   0  0  2  0  0  3  0  0  0  0  0  0
  193.1430  176.5830  138.6460 N   0  0  0  0  0  0  0  0  0  0  0  0
  188.2940  177.0620  139.0790 C   0  0  2  0  0  3  0  0  0  0  0  0
  190.5820  175.5960  137.3520 C   0  0  0  0  0  2  0  0  0  0  0  0
  194.5500  175.0920  135.5640 C   0  0  0  0  0  0  0  0  0  0  0  0
  187.1980  177.4210  144.4190 S   0  0  0  0  0  0  0  0  0  0  0  0
  193.4750  174.4530  134.8840 N   0  0  0  0  0  1  0  0  0  0  0  0
  191.1440  177.1260  143.1650 N   0  0  0  0  0  0  0  0  0  0  0  0
  194.3520  175.7730  136.8090 N   0  0  0  0  0  2  0  0  0  0  0  0
  186.4510  178.2960  143.0000 C   0  0  2  0  0  3  0  0  0  0  0  0
  191.9680  174.9430  137.2380 C   0  0  0  0  0  2  0  0  0  0  0  0
  190.1300  176.6020  145.2030 O   0  0  0  0  0  0  0  0  0  0  0  0
  189.6890  177.1430  141.1930 C   0  0  2  0  0  3  0  0  0  0  0  0
  191.0360  177.3290  141.8830 C   0  0  0  0  0  0  0  0  0  0  0  0
  189.5630  177.6420  139.7300 C   0  0  1  0  0  3  0  0  0  0  0  0
  184.9440  178.0680  142.9100 C   0  0  0  0  0  2  0  0  0  0  0  0
  184.9670  180.3110  143.7630 O   0  0  0  0  0  1  0  0  0  0  0  0
  184.1230  179.2680  143.3770 C   0  0  2  0  0  3  0  0  0  0  0  0
  183.7520  178.9160  145.8140 O   0  0  0  0  0  1  0  0  0  0  0  0
  183.2500  178.8750  144.5200 C   0  0  0  0  0  0  0  0  0  0  0  0
  182.0550  178.5270  144.3240 O   0  0  0  0  0  0  0  0  0  0  0  0
  1  2  1  1  0  0  0
  1 13  1  0  0  0  0
  3  4  1  0  0  0  0
  3 18  1  0  0  0  0
  4 24  2  0  0  0  0
  5  6  1  0  0  0  0
  5 22  1  0  0  0  0
  6  3  2  0  0  0  0
  7 14  1  6  0  0  0
  7 10  1  0  0  0  0
  8  2  1  6  0  0  0
  8  9  1  0  0  0  0
  8 15  1  0  0  0  0
  9 15  1  0  0  0  0
 10 26  1  0  0  0  0
 11 14  2  0  0  0  0
 12 17  2  0  0  0  0
 13  7  1  0  0  0  0
 13 27  1  0  0  0  0
 15 27  1  0  0  0  0
 16  1  1  0  0  0  0
 17 21  1  0  0  0  0
 19 17  1  0  0  0  0
 20  4  1  0  0  0  0
 21 11  1  0  0  0  0
 22 18  1  0  0  0  0
 23 16  1  0  0  0  0
 23 11  1  0  0  0  0
 25 26  1  0  0  0  0
 25  6  1  0  0  0  0
 26 20  2  0  0  0  0
 27 25  1  0  0  0  0
 28 22  1  0  0  0  0
 28 30  1  0  0  0  0
 30 29  1  0  0  0  0
 30 32  1  0  0  0  0
 32 31  1  0  0  0  0
 33 32  2  0  0  0  0
M  END
>  <MODEL>
2

>  <REMARK>
 VINA RESULT:      -7.9      3.017      9.279
  Name = 
  3 active torsions:
  status: ('A' for Active; 'I' for Inactive)
    1  A    between atoms: C_12  and  C_14
    2  A    between atoms: C_12  and  C_31
    3  A    between atoms: C_14  and  C_26
                            x       y       z     vdW  Elec       q    Type
                         _______ _______ _______ _____ _____    ______ ____

>  <TORSDO>
F 3

$$$$
=
 OpenBabel11032420283D

 33 38  0  0  1  0  0  0  0  0999 V2000
  189.1180  178.0780  142.7340 N   0  0  1  0  0  0  0  0  0  0  0  0
  190.5690  178.2630  142.7660 C   0  0  0  0  0  2  0  0  0  0  0  0
  188.9090  176.1280  136.7580 C   0  0  0  0  0  0  0  0  0  0  0  0
  187.4570  176.3220  136.6330 C   0  0  0  0  0  0  0  0  0  0  0  0
  191.0220  176.5110  137.7530 C   0  0  0  0  0  2  0  0  0  0  0  0
  189.5390  176.5710  137.8360 C   0  0  0  0  0  0  0  0  0  0  0  0
  187.1090  177.9020  141.2370 C   0  0  1  0  0  3  0  0  0  0  0  0
  191.3060  177.1370  142.0470 C   0  0  2  0  0  3  0  0  0  0  0  0
  191.9200  177.6270  140.7570 C   0  0  0  0  0  2  0  0  0  0  0  0
  186.5110  178.7060  139.7370 S   0  0  0  0  0  0  0  0  0  0  0  0
  186.4720  177.9710  143.5980 C   0  0  0  0  0  0  0  0  0  0  0  0
  184.8370  178.8800  146.7620 O   0  0  0  0  0  0  0  0  0  0  0  0
  188.6040  178.2350  141.3610 C   0  0  2  0  0  3  0  0  0  0  0  0
  186.3690  178.4230  142.3820 N   0  0  0  0  0  0  0  0  0  0  0  0
  190.6610  176.7800  140.7060 C   0  0  2  0  0  3  0  0  0  0  0  0
  188.7460  176.7720  143.2940 C   0  0  0  0  0  2  0  0  0  0  0  0
  185.6820  178.3180  146.0180 C   0  0  0  0  0  0  0  0  0  0  0  0
  189.9420  175.5330  135.4360 S   0  0  0  0  0  0  0  0  0  0  0  0
  186.6530  177.4540  146.5990 N   0  0  0  0  0  1  0  0  0  0  0  0
  186.7860  177.1440  137.5960 N   0  0  0  0  0  0  0  0  0  0  0  0
  185.6590  178.5820  144.6090 N   0  0  0  0  0  2  0  0  0  0  0  0
  191.3660  176.3030  136.2820 C   0  0  2  0  0  3  0  0  0  0  0  0
  187.3480  176.7820  143.9310 C   0  0  0  0  0  2  0  0  0  0  0  0
  186.8210  175.8380  135.6600 O   0  0  0  0  0  0  0  0  0  0  0  0
  188.7420  176.9780  139.0640 C   0  0  2  0  0  3  0  0  0  0  0  0
  187.3800  177.5490  138.6830 C   0  0  0  0  0  0  0  0  0  0  0  0
  189.5100  177.6770  140.2160 C   0  0  1  0  0  3  0  0  0  0  0  0
  192.6530  175.5040  136.0890 C   0  0  0  0  0  2  0  0  0  0  0  0
  194.6390  176.8490  136.1610 O   0  0  0  0  0  1  0  0  0  0  0  0
  193.8170  176.0250  136.9300 C   0  0  2  0  0  3  0  0  0  0  0  0
  193.9610  173.7060  137.8280 O   0  0  0  0  0  1  0  0  0  0  0  0
  194.6090  174.8810  137.4690 C   0  0  0  0  0  0  0  0  0  0  0  0
  195.8610  174.9640  137.5800 O   0  0  0  0  0  0  0  0  0  0  0  0
  1  2  1  6  0  0  0
  1 16  1  0  0  0  0
  3  6  2  0  0  0  0
  4  3  1  0  0  0  0
  4 20  1  0  0  0  0
  5  6  1  0  0  0  0
  6 25  1  0  0  0  0
  7 10  1  6  0  0  0
  7 13  1  0  0  0  0
  7 14  1  0  0  0  0
  8  9  1  6  0  0  0
  8  2  1  0  0  0  0
 11 23  1  0  0  0  0
 11 21  1  0  0  0  0
 13  1  1  0  0  0  0
 14 11  2  0  0  0  0
 15  9  1  0  0  0  0
 15  8  1  0  0  0  0
 16 23  1  0  0  0  0
 17 19  1  0  0  0  0
 17 12  2  0  0  0  0
 18 22  1  0  0  0  0
 18  3  1  0  0  0  0
 20 26  2  0  0  0  0
 21 17  1  0  0  0  0
 22  5  1  0  0  0  0
 24  4  2  0  0  0  0
 25 27  1  0  0  0  0
 26 25  1  0  0  0  0
 26 10  1  0  0  0  0
 27 15  1  0  0  0  0
 27 13  1  0  0  0  0
 28 22  1  0  0  0  0
 28 30  1  0  0  0  0
 29 30  1  0  0  0  0
 30 32  1  0  0  0  0
 32 33  2  0  0  0  0
 32 31  1  0  0  0  0
M  END
>  <MODEL>
3

>  <REMARK>
 VINA RESULT:      -7.9      1.033      1.227
  Name = 
  3 active torsions:
  status: ('A' for Active; 'I' for Inactive)
    1  A    between atoms: C_12  and  C_14
    2  A    between atoms: C_12  and  C_31
    3  A    between atoms: C_14  and  C_26
                            x       y       z     vdW  Elec       q    Type
                         _______ _______ _______ _____ _____    ______ ____

>  <TORSDO>
F 3

$$$$
=
 OpenBabel11032420283D

 33 38  0  0  1  0  0  0  0  0999 V2000
  190.9140  176.7770  137.2630 N   0  0  1  0  0  0  0  0  0  0  0  0
  189.6450  177.2730  136.7280 C   0  0  0  0  0  2  0  0  0  0  0  0
  189.2380  177.2830  143.3040 C   0  0  0  0  0  0  0  0  0  0  0  0
  190.6140  177.1600  143.8070 C   0  0  0  0  0  0  0  0  0  0  0  0
  187.6220  177.7420  141.6370 C   0  0  0  0  0  2  0  0  0  0  0  0
  189.0250  177.4140  142.0030 C   0  0  0  0  0  0  0  0  0  0  0  0
  192.3990  176.7210  139.2870 C   0  0  1  0  0  3  0  0  0  0  0  0
  188.4460  176.7190  137.4910 C   0  0  2  0  0  3  0  0  0  0  0  0
  187.7790  177.7970  138.3130 C   0  0  0  0  0  2  0  0  0  0  0  0
  192.9100  177.8730  140.5780 S   0  0  0  0  0  0  0  0  0  0  0  0
  193.4910  175.7250  137.3380 C   0  0  0  0  0  0  0  0  0  0  0  0
  195.9450  174.9350  134.7180 O   0  0  0  0  0  0  0  0  0  0  0  0
  191.1580  177.3230  138.6110 C   0  0  2  0  0  3  0  0  0  0  0  0
  193.4870  176.5710  138.3260 N   0  0  0  0  0  0  0  0  0  0  0  0
  188.6470  176.7630  139.0070 C   0  0  2  0  0  3  0  0  0  0  0  0
  190.9370  175.3090  137.2730 C   0  0  0  0  0  2  0  0  0  0  0  0
  194.8290  174.9180  135.2970 C   0  0  0  0  0  0  0  0  0  0  0  0
  187.8180  177.5040  144.3570 S   0  0  0  0  0  0  0  0  0  0  0  0
  193.7660  174.1540  134.7370 N   0  0  0  0  0  1  0  0  0  0  0  0
  191.7010  177.3660  142.8970 N   0  0  0  0  0  0  0  0  0  0  0  0
  194.6490  175.6890  136.4930 N   0  0  0  0  0  2  0  0  0  0  0  0
  186.9350  178.2020  142.9180 C   0  0  2  0  0  3  0  0  0  0  0  0
  192.3580  174.7430  137.1290 C   0  0  0  0  0  2  0  0  0  0  0  0
  190.8400  176.9520  145.0280 O   0  0  0  0  0  0  0  0  0  0  0  0
  190.1450  177.1170  141.0200 C   0  0  2  0  0  3  0  0  0  0  0  0
  191.5110  177.4510  141.6110 C   0  0  0  0  0  0  0  0  0  0  0  0
  189.9050  177.4800  139.5320 C   0  0  1  0  0  3  0  0  0  0  0  0
  185.4450  177.8680  142.9370 C   0  0  0  0  0  2  0  0  0  0  0  0
  183.3950  179.0920  143.1750 O   0  0  0  0  0  1  0  0  0  0  0  0
  184.5660  179.0050  142.4210 C   0  0  2  0  0  3  0  0  0  0  0  0
  184.5200  179.7600  140.0490 O   0  0  0  0  0  0  0  0  0  0  0  0
  184.2280  178.7780  140.9860 C   0  0  0  0  0  0  0  0  0  0  0  0
  183.7010  177.6960  140.6150 O   0  0  0  0  0  1  0  0  0  0  0  0
  1  2  1  1  0  0  0
  1 16  1  0  0  0  0
  1 13  1  0  0  0  0
  3  4  1  0  0  0  0
  3 18  1  0  0  0  0
  4 24  2  0  0  0  0
  5  6  1  0  0  0  0
  5 22  1  0  0  0  0
  6  3  2  0  0  0  0
  7 14  1  6  0  0  0
  7 10  1  0  0  0  0
  8  2  1  6  0  0  0
  8  9  1  0  0  0  0
  8 15  1  0  0  0  0
  9 15  1  0  0  0  0
 10 26  1  0  0  0  0
 11 14  2  0  0  0  0
 12 17  2  0  0  0  0
 13  7  1  0  0  0  0
 13 27  1  0  0  0  0
 15 27  1  0  0  0  0
 17 21  1  0  0  0  0
 19 17  1  0  0  0  0
 20  4  1  0  0  0  0
 21 11  1  0  0  0  0
 22 28  1  0  0  0  0
 22 18  1  0  0  0  0
 23 16  1  0  0  0  0
 23 11  1  0  0  0  0
 25 26  1  0  0  0  0
 25  6  1  0  0  0  0
 26 20  2  0  0  0  0
 27 25  1  0  0  0  0
 30 28  1  0  0  0  0
 30 29  1  0  0  0  0
 31 32  2  0  0  0  0
 32 30  1  0  0  0  0
 33 32  1  0  0  0  0
M  END
>  <MODEL>
4

>  <REMARK>
 VINA RESULT:      -7.5      3.400      9.019
  Name = 
  3 active torsions:
  status: ('A' for Active; 'I' for Inactive)
    1  A    between atoms: C_12  and  C_14
    2  A    between atoms: C_12  and  C_31
    3  A    between atoms: C_14  and  C_26
                            x       y       z     vdW  Elec       q    Type
                         _______ _______ _______ _____ _____    ______ ____

>  <TORSDO>
F 3

$$$$
=
 OpenBabel11032420283D

 33 38  0  0  1  0  0  0  0  0999 V2000
  183.7870  178.5070  140.0270 N   0  0  1  0  0  0  0  0  0  0  0  0
  183.6230  179.2550  141.2740 C   0  0  0  0  0  2  0  0  0  0  0  0
  189.9240  177.3840  140.8220 C   0  0  0  0  0  0  0  0  0  0  0  0
  190.1430  176.9910  139.4230 C   0  0  0  0  0  0  0  0  0  0  0  0
  188.7340  178.4590  142.5620 C   0  0  0  0  0  2  0  0  0  0  0  0
  188.7620  177.9080  141.1820 C   0  0  0  0  0  0  0  0  0  0  0  0
  185.4480  177.7230  138.3140 C   0  0  1  0  0  3  0  0  0  0  0  0
  184.3900  178.6180  142.4290 C   0  0  2  0  0  3  0  0  0  0  0  0
  185.5720  179.4670  142.8300 C   0  0  0  0  0  2  0  0  0  0  0  0
  186.9040  178.3960  137.4880 S   0  0  0  0  0  0  0  0  0  0  0  0
  183.1490  177.2410  137.6290 C   0  0  0  0  0  0  0  0  0  0  0  0
  180.0490  177.0230  135.6660 O   0  0  0  0  0  0  0  0  0  0  0  0
  185.1740  178.6110  139.5370 C   0  0  2  0  0  3  0  0  0  0  0  0
  184.3180  177.7590  137.3900 N   0  0  0  0  0  0  0  0  0  0  0  0
  185.8060  178.1980  142.0300 C   0  0  2  0  0  3  0  0  0  0  0  0
  183.3900  177.1050  140.2030 C   0  0  0  0  0  2  0  0  0  0  0  0
  180.7760  176.9430  136.6900 C   0  0  0  0  0  0  0  0  0  0  0  0
  191.2140  177.4210  142.0500 S   0  0  0  0  0  0  0  0  0  0  0  0
  180.2080  176.4790  137.9110 N   0  0  0  0  0  1  0  0  0  0  0  0
  189.1600  177.3500  138.4440 N   0  0  0  0  0  0  0  0  0  0  0  0
  182.1490  177.3450  136.6060 N   0  0  0  0  0  2  0  0  0  0  0  0
  190.1860  178.5880  143.0080 C   0  0  2  0  0  3  0  0  0  0  0  0
  182.8670  176.4740  138.9040 C   0  0  0  0  0  2  0  0  0  0  0  0
  191.2060  176.4150  139.0710 O   0  0  0  0  0  0  0  0  0  0  0  0
  187.5660  177.8060  140.2490 C   0  0  2  0  0  3  0  0  0  0  0  0
  187.9950  177.8240  138.7860 C   0  0  0  0  0  0  0  0  0  0  0  0
  186.2940  178.6090  140.6280 C   0  0  1  0  0  3  0  0  0  0  0  0
  190.3550  178.4040  144.5150 C   0  0  0  0  0  2  0  0  0  0  0  0
  189.0820  176.8670  145.8470 O   0  0  0  0  0  1  0  0  0  0  0  0
  190.1640  176.9590  144.9700 C   0  0  2  0  0  3  0  0  0  0  0  0
  191.8170  177.0520  146.8300 O   0  0  0  0  0  1  0  0  0  0  0  0
  191.4020  176.4680  145.6400 C   0  0  0  0  0  0  0  0  0  0  0  0
  192.0620  175.5150  145.1480 O   0  0  0  0  0  0  0  0  0  0  0  0
  1 16  1  1  0  0  0
  1  2  1  0  0  0  0
  3  6  2  0  0  0  0
  3 18  1  0  0  0  0
  4  3  1  0  0  0  0
  5 22  1  0  0  0  0
  6  5  1  0  0  0  0
  7 14  1  6  0  0  0
  7 13  1  0  0  0  0
  8  2  1  6  0  0  0
  8  9  1  0  0  0  0
 10  7  1  0  0  0  0
 10 26  1  0  0  0  0
 11 23  1  0  0  0  0
 12 17  2  0  0  0  0
 13  1  1  0  0  0  0
 13 27  1  0  0  0  0
 14 11  2  0  0  0  0
 15  8  1  0  0  0  0
 15  9  1  0  0  0  0
 17 19  1  0  0  0  0
 18 22  1  0  0  0  0
 20 26  2  0  0  0  0
 20  4  1  0  0  0  0
 21 17  1  0  0  0  0
 21 11  1  0  0  0  0
 22 28  1  0  0  0  0
 23 16  1  0  0  0  0
 24  4  2  0  0  0  0
 25 27  1  0  0  0  0
 25  6  1  0  0  0  0
 26 25  1  0  0  0  0
 27 15  1  0  0  0  0
 28 30  1  0  0  0  0
 30 32  1  0  0  0  0
 30 29  1  0  0  0  0
 32 31  1  0  0  0  0
 33 32  2  0  0  0  0
M  END
>  <MODEL>
5

>  <REMARK>
 VINA RESULT:      -7.2      4.171      6.893
  Name = 
  3 active torsions:
  status: ('A' for Active; 'I' for Inactive)
    1  A    between atoms: C_12  and  C_14
    2  A    between atoms: C_12  and  C_31
    3  A    between atoms: C_14  and  C_26
                            x       y       z     vdW  Elec       q    Type
                         _______ _______ _______ _____ _____    ______ ____

>  <TORSDO>
F 3

$$$$
=
 OpenBabel11032420283D

 33 38  0  0  1  0  0  0  0  0999 V2000
  184.2990  179.1600  142.2450 N   0  0  1  0  0  0  0  0  0  0  0  0
  184.3130  179.5130  143.6650 C   0  0  0  0  0  2  0  0  0  0  0  0
  190.0590  176.6340  142.2140 C   0  0  0  0  0  0  0  0  0  0  0  0
  190.1740  176.6470  140.7490 C   0  0  0  0  0  0  0  0  0  0  0  0
  189.1460  177.3500  144.2770 C   0  0  0  0  0  2  0  0  0  0  0  0
  189.0400  177.2480  142.7980 C   0  0  0  0  0  0  0  0  0  0  0  0
  185.7340  178.6130  140.2580 C   0  0  1  0  0  3  0  0  0  0  0  0
  184.9370  178.4150  144.5220 C   0  0  2  0  0  3  0  0  0  0  0  0
  186.2790  178.8460  145.0640 C   0  0  0  0  0  2  0  0  0  0  0  0
  187.2920  179.1950  139.5590 S   0  0  0  0  0  0  0  0  0  0  0  0
  183.3780  178.8350  139.6370 C   0  0  0  0  0  0  0  0  0  0  0  0
  180.2830  179.8510  137.9340 O   0  0  0  0  0  0  0  0  0  0  0  0
  185.6700  179.1240  141.7050 C   0  0  2  0  0  3  0  0  0  0  0  0
  184.6290  179.1530  139.4720 N   0  0  0  0  0  0  0  0  0  0  0  0
  186.2250  177.8590  143.9120 C   0  0  2  0  0  3  0  0  0  0  0  0
  183.6110  177.8810  142.0320 C   0  0  0  0  0  2  0  0  0  0  0  0
  180.9870  179.3200  138.8320 C   0  0  0  0  0  0  0  0  0  0  0  0
  191.3390  176.0370  143.2980 S   0  0  0  0  0  0  0  0  0  0  0  0
  180.3460  178.6330  139.9020 N   0  0  0  0  0  1  0  0  0  0  0  0
  189.2800  177.4760  139.9950 N   0  0  0  0  0  0  0  0  0  0  0  0
  182.4140  179.4420  138.7670 N   0  0  0  0  0  2  0  0  0  0  0  0
  190.5970  177.0430  144.6310 C   0  0  2  0  0  3  0  0  0  0  0  0
  182.9510  177.7910  140.6480 C   0  0  0  0  0  2  0  0  0  0  0  0
  191.0840  176.0030  140.1650 O   0  0  0  0  0  0  0  0  0  0  0  0
  187.8410  177.6770  141.9690 C   0  0  2  0  0  3  0  0  0  0  0  0
  188.2480  178.0490  140.5470 C   0  0  0  0  0  0  0  0  0  0  0  0
  186.7760  178.5670  142.6600 C   0  0  1  0  0  3  0  0  0  0  0  0
  190.7380  176.3820  146.0000 C   0  0  0  0  0  2  0  0  0  0  0  0
  191.7290  177.0050  148.0960 O   0  0  0  0  0  1  0  0  0  0  0  0
  190.7730  177.3840  147.1520 C   0  0  2  0  0  3  0  0  0  0  0  0
  189.0620  178.6250  148.4690 O   0  0  0  0  0  1  0  0  0  0  0  0
  189.4300  177.4660  147.7970 C   0  0  0  0  0  0  0  0  0  0  0  0
  188.6210  176.5050  147.7190 O   0  0  0  0  0  0  0  0  0  0  0  0
  1 16  1  1  0  0  0
  1  2  1  0  0  0  0
  3  6  2  0  0  0  0
  3 18  1  0  0  0  0
  4  3  1  0  0  0  0
  5 22  1  0  0  0  0
  6  5  1  0  0  0  0
  7 14  1  6  0  0  0
  7 13  1  0  0  0  0
  8  2  1  6  0  0  0
  8  9  1  0  0  0  0
 10  7  1  0  0  0  0
 10 26  1  0  0  0  0
 11 23  1  0  0  0  0
 12 17  2  0  0  0  0
 13  1  1  0  0  0  0
 13 27  1  0  0  0  0
 14 11  2  0  0  0  0
 15  8  1  0  0  0  0
 15  9  1  0  0  0  0
 17 19  1  0  0  0  0
 18 22  1  0  0  0  0
 20 26  2  0  0  0  0
 20  4  1  0  0  0  0
 21 17  1  0  0  0  0
 21 11  1  0  0  0  0
 22 28  1  0  0  0  0
 23 16  1  0  0  0  0
 24  4  2  0  0  0  0
 25 27  1  0  0  0  0
 25  6  1  0  0  0  0
 26 25  1  0  0  0  0
 27 15  1  0  0  0  0
 28 30  1  0  0  0  0
 30 32  1  0  0  0  0
 30 29  1  0  0  0  0
 32 31  1  0  0  0  0
 33 32  2  0  0  0  0
M  END
>  <MODEL>
6

>  <REMARK>
 VINA RESULT:      -7.0      4.050      7.138
  Name = 
  3 active torsions:
  status: ('A' for Active; 'I' for Inactive)
    1  A    between atoms: C_12  and  C_14
    2  A    between atoms: C_12  and  C_31
    3  A    between atoms: C_14  and  C_26
                            x       y       z     vdW  Elec       q    Type
                         _______ _______ _______ _____ _____    ______ ____

>  <TORSDO>
F 3

$$$$
=
 OpenBabel11032420283D

 33 38  0  0  1  0  0  0  0  0999 V2000
  188.2400  178.3200  142.2510 N   0  0  1  0  0  0  0  0  0  0  0  0
  189.6550  178.4140  141.8900 C   0  0  0  0  0  2  0  0  0  0  0  0
  186.2530  176.9170  136.4500 C   0  0  0  0  0  0  0  0  0  0  0  0
  184.8430  177.2080  136.7470 C   0  0  0  0  0  0  0  0  0  0  0  0
  188.5810  177.0830  136.8420 C   0  0  0  0  0  2  0  0  0  0  0  0
  187.1870  177.2260  137.3380 C   0  0  0  0  0  0  0  0  0  0  0  0
  185.8930  178.3970  141.3620 C   0  0  1  0  0  3  0  0  0  0  0  0
  190.0740  177.3130  140.9200 C   0  0  2  0  0  3  0  0  0  0  0  0
  190.3510  177.8760  139.5470 C   0  0  0  0  0  2  0  0  0  0  0  0
  184.9770  179.3640  140.1450 S   0  0  0  0  0  0  0  0  0  0  0  0
  185.9300  178.2970  143.8060 C   0  0  0  0  0  0  0  0  0  0  0  0
  185.2990  179.0230  147.3540 O   0  0  0  0  0  0  0  0  0  0  0  0
  187.3860  178.6270  141.0880 C   0  0  2  0  0  3  0  0  0  0  0  0
  185.5380  178.8600  142.7000 N   0  0  0  0  0  0  0  0  0  0  0  0
  189.0610  177.1140  139.7900 C   0  0  2  0  0  3  0  0  0  0  0  0
  187.9290  176.9950  142.8020 C   0  0  0  0  0  2  0  0  0  0  0  0
  185.8600  178.4780  146.3680 C   0  0  0  0  0  0  0  0  0  0  0  0
  186.8350  176.3790  134.8550 S   0  0  0  0  0  0  0  0  0  0  0  0
  186.8780  177.5100  146.5970 N   0  0  0  0  0  1  0  0  0  0  0  0
  184.5290  177.9820  137.9120 N   0  0  0  0  0  0  0  0  0  0  0  0
  185.4760  178.8650  145.0420 N   0  0  0  0  0  2  0  0  0  0  0  0
  188.4930  176.9840  135.3230 C   0  0  2  0  0  3  0  0  0  0  0  0
  186.7630  177.0330  143.8010 C   0  0  0  0  0  2  0  0  0  0  0  0
  183.9290  176.8500  135.9590 O   0  0  0  0  0  0  0  0  0  0  0  0
  186.7900  177.5700  138.7630 C   0  0  2  0  0  3  0  0  0  0  0  0
  185.4280  178.2530  138.8150 C   0  0  0  0  0  0  0  0  0  0  0  0
  187.8980  178.1180  139.7010 C   0  0  1  0  0  3  0  0  0  0  0  0
  189.6100  176.1290  134.7260 C   0  0  0  0  0  2  0  0  0  0  0  0
  191.7880  175.7880  135.6750 O   0  0  0  0  0  1  0  0  0  0  0  0
  190.4480  175.4120  135.7820 C   0  0  2  0  0  3  0  0  0  0  0  0
  189.0620  173.3570  135.5480 O   0  0  0  0  0  1  0  0  0  0  0  0
  190.3220  173.9350  135.6160 C   0  0  0  0  0  0  0  0  0  0  0  0
  191.3480  173.2120  135.5140 O   0  0  0  0  0  0  0  0  0  0  0  0
  1  2  1  6  0  0  0
  1 16  1  0  0  0  0
  3  4  1  0  0  0  0
  3  6  2  0  0  0  0
  4 20  1  0  0  0  0
  5  6  1  0  0  0  0
  6 25  1  0  0  0  0
  7 10  1  6  0  0  0
  7 14  1  0  0  0  0
  8  9  1  6  0  0  0
  8  2  1  0  0  0  0
  9 15  1  0  0  0  0
 11 21  1  0  0  0  0
 13  7  1  0  0  0  0
 13  1  1  0  0  0  0
 14 11  2  0  0  0  0
 15  8  1  0  0  0  0
 16 23  1  0  0  0  0
 17 19  1  0  0  0  0
 17 12  2  0  0  0  0
 18 22  1  0  0  0  0
 18  3  1  0  0  0  0
 20 26  2  0  0  0  0
 21 17  1  0  0  0  0
 22  5  1  0  0  0  0
 23 11  1  0  0  0  0
 24  4  2  0  0  0  0
 25 26  1  0  0  0  0
 25 27  1  0  0  0  0
 26 10  1  0  0  0  0
 27 15  1  0  0  0  0
 27 13  1  0  0  0  0
 28 22  1  0  0  0  0
 28 30  1  0  0  0  0
 29 30  1  0  0  0  0
 31 32  1  0  0  0  0
 32 30  1  0  0  0  0
 33 32  2  0  0  0  0
M  END
>  <MODEL>
7

>  <REMARK>
 VINA RESULT:      -6.7      2.575      3.294
  Name = 
  3 active torsions:
  status: ('A' for Active; 'I' for Inactive)
    1  A    between atoms: C_12  and  C_14
    2  A    between atoms: C_12  and  C_31
    3  A    between atoms: C_14  and  C_26
                            x       y       z     vdW  Elec       q    Type
                         _______ _______ _______ _____ _____    ______ ____

>  <TORSDO>
F 3

$$$$
=
 OpenBabel11032420283D

 33 38  0  0  1  0  0  0  0  0999 V2000
  188.1750  177.1170  146.4940 N   0  0  1  0  0  0  0  0  0  0  0  0
  186.8250  177.0860  147.0590 C   0  0  0  0  0  2  0  0  0  0  0  0
  186.3350  178.6030  140.6660 C   0  0  0  0  0  0  0  0  0  0  0  0
  187.6240  178.2510  140.0540 C   0  0  0  0  0  0  0  0  0  0  0  0
  184.7060  178.5150  142.3810 C   0  0  0  0  0  2  0  0  0  0  0  0
  186.1100  178.3060  141.9370 C   0  0  0  0  0  0  0  0  0  0  0  0
  189.5080  176.9750  144.3700 C   0  0  1  0  0  3  0  0  0  0  0  0
  185.9590  178.2290  146.5360 C   0  0  2  0  0  3  0  0  0  0  0  0
  184.8850  177.7150  145.6070 C   0  0  0  0  0  2  0  0  0  0  0  0
  189.4600  176.0080  142.8480 S   0  0  0  0  0  0  0  0  0  0  0  0
  190.9540  177.0080  146.3440 C   0  0  0  0  0  0  0  0  0  0  0  0
  193.5580  176.1610  148.7960 O   0  0  0  0  0  0  0  0  0  0  0  0
  188.1410  176.8100  145.0520 C   0  0  2  0  0  3  0  0  0  0  0  0
  190.5740  176.4620  145.2250 N   0  0  0  0  0  0  0  0  0  0  0  0
  186.0960  178.4210  145.0240 C   0  0  2  0  0  3  0  0  0  0  0  0
  188.8170  178.4130  146.7460 C   0  0  0  0  0  2  0  0  0  0  0  0
  192.5430  176.7540  148.3470 C   0  0  0  0  0  0  0  0  0  0  0  0
  184.9360  179.2070  139.7430 S   0  0  0  0  0  0  0  0  0  0  0  0
  191.9140  177.7530  149.1420 N   0  0  0  0  0  1  0  0  0  0  0  0
  188.5390  177.4340  140.7950 N   0  0  0  0  0  0  0  0  0  0  0  0
  192.0330  176.3900  147.0570 N   0  0  0  0  0  2  0  0  0  0  0  0
  183.8670  178.6530  141.1160 C   0  0  2  0  0  3  0  0  0  0  0  0
  190.3460  178.3030  146.8410 C   0  0  0  0  0  2  0  0  0  0  0  0
  187.8950  178.5960  138.8740 O   0  0  0  0  0  0  0  0  0  0  0  0
  187.2680  177.9070  142.8360 C   0  0  2  0  0  3  0  0  0  0  0  0
  188.3530  177.1720  142.0580 C   0  0  0  0  0  0  0  0  0  0  0  0
  186.9230  177.3760  144.2520 C   0  0  1  0  0  3  0  0  0  0  0  0
  182.6580  179.5660  141.3120 C   0  0  0  0  0  2  0  0  0  0  0  0
  180.4690  178.9240  140.5660 O   0  0  0  0  0  1  0  0  0  0  0  0
  181.3720  178.8040  141.6240 C   0  0  2  0  0  3  0  0  0  0  0  0
  180.0550  180.5300  142.8440 O   0  0  0  0  0  0  0  0  0  0  0  0
  180.7570  179.3320  142.8760 C   0  0  0  0  0  0  0  0  0  0  0  0
  180.8500  178.6900  143.9550 O   0  0  0  0  0  1  0  0  0  0  0  0
  1 16  1  6  0  0  0
  1  2  1  0  0  0  0
  3  6  2  0  0  0  0
  4  3  1  0  0  0  0
  4 20  1  0  0  0  0
  6  5  1  0  0  0  0
  6 25  1  0  0  0  0
  7 10  1  6  0  0  0
  7 13  1  0  0  0  0
  7 14  1  0  0  0  0
  8  9  1  6  0  0  0
  8  2  1  0  0  0  0
 11 23  1  0  0  0  0
 11 21  1  0  0  0  0
 13  1  1  0  0  0  0
 14 11  2  0  0  0  0
 15  9  1  0  0  0  0
 15  8  1  0  0  0  0
 16 23  1  0  0  0  0
 17 12  2  0  0  0  0
 17 19  1  0  0  0  0
 18  3  1  0  0  0  0
 18 22  1  0  0  0  0
 20 26  2  0  0  0  0
 21 17  1  0  0  0  0
 22 28  1  0  0  0  0
 22  5  1  0  0  0  0
 24  4  2  0  0  0  0
 25 27  1  0  0  0  0
 26 25  1  0  0  0  0
 26 10  1  0  0  0  0
 27 15  1  0  0  0  0
 27 13  1  0  0  0  0
 28 30  1  0  0  0  0
 29 30  1  0  0  0  0
 30 32  1  0  0  0  0
 31 32  2  0  0  0  0
 32 33  1  0  0  0  0
M  END
>  <MODEL>
8

>  <REMARK>
 VINA RESULT:      -6.6      4.735      8.611
  Name = 
  3 active torsions:
  status: ('A' for Active; 'I' for Inactive)
    1  A    between atoms: C_12  and  C_14
    2  A    between atoms: C_12  and  C_31
    3  A    between atoms: C_14  and  C_26
                            x       y       z     vdW  Elec       q    Type
                         _______ _______ _______ _____ _____    ______ ____

>  <TORSDO>
F 3

$$$$
=
 OpenBabel11032420283D

 33 38  0  0  1  0  0  0  0  0999 V2000
  190.3230  176.9960  137.0680 N   0  0  1  0  0  0  0  0  0  0  0  0
  189.4250  177.7380  136.1830 C   0  0  0  0  0  2  0  0  0  0  0  0
  186.8850  177.8710  142.2610 C   0  0  0  0  0  0  0  0  0  0  0  0
  187.9670  177.4720  143.1740 C   0  0  0  0  0  0  0  0  0  0  0  0
  186.0300  178.6410  140.1930 C   0  0  0  0  0  2  0  0  0  0  0  0
  187.1420  178.0340  140.9720 C   0  0  0  0  0  0  0  0  0  0  0  0
  191.0180  176.6490  139.4560 C   0  0  1  0  0  3  0  0  0  0  0  0
  187.9570  177.4460  136.4820 C   0  0  2  0  0  3  0  0  0  0  0  0
  187.2810  178.6420  137.1080 C   0  0  0  0  0  2  0  0  0  0  0  0
  191.2900  177.6800  140.9110 S   0  0  0  0  0  0  0  0  0  0  0  0
  192.4750  175.4380  137.9070 C   0  0  0  0  0  0  0  0  0  0  0  0
  195.4500  174.1470  136.1780 O   0  0  0  0  0  0  0  0  0  0  0  0
  190.2120  177.4880  138.4530 C   0  0  2  0  0  3  0  0  0  0  0  0
  192.3110  176.2740  138.8920 N   0  0  0  0  0  0  0  0  0  0  0  0
  187.6520  177.4560  137.9810 C   0  0  2  0  0  3  0  0  0  0  0  0
  190.0550  175.5540  136.9940 C   0  0  0  0  0  2  0  0  0  0  0  0
  194.2240  174.3630  136.3630 C   0  0  0  0  0  0  0  0  0  0  0  0
  185.2710  178.3840  142.8100 S   0  0  0  0  0  0  0  0  0  0  0  0
  193.2780  173.8290  135.4430 N   0  0  0  0  0  1  0  0  0  0  0  0
  189.3110  177.4450  142.6790 N   0  0  0  0  0  0  0  0  0  0  0  0
  193.8160  175.1610  137.4820 N   0  0  0  0  0  2  0  0  0  0  0  0
  185.0650  179.2400  141.2090 C   0  0  2  0  0  3  0  0  0  0  0  0
  191.3040  174.7080  137.2830 C   0  0  0  0  0  2  0  0  0  0  0  0
  187.7330  177.2300  144.3870 O   0  0  0  0  0  0  0  0  0  0  0  0
  188.4420  177.5080  140.3880 C   0  0  2  0  0  3  0  0  0  0  0  0
  189.5750  177.5590  141.4080 C   0  0  0  0  0  0  0  0  0  0  0  0
  188.7810  177.9040  138.9270 C   0  0  1  0  0  3  0  0  0  0  0  0
  183.6170  179.2170  140.7240 C   0  0  0  0  0  2  0  0  0  0  0  0
  182.3860  177.1640  140.5530 O   0  0  0  0  0  1  0  0  0  0  0  0
  182.7580  178.1760  141.4390 C   0  0  2  0  0  3  0  0  0  0  0  0
  181.6620  179.6700  143.1030 O   0  0  0  0  0  1  0  0  0  0  0  0
  181.5410  178.8230  142.0090 C   0  0  0  0  0  0  0  0  0  0  0  0
  180.4090  178.6250  141.4940 O   0  0  0  0  0  0  0  0  0  0  0  0
  1  2  1  6  0  0  0
  1 13  1  0  0  0  0
  3 18  1  0  0  0  0
  3  4  1  0  0  0  0
  4 24  2  0  0  0  0
  5  6  1  0  0  0  0
  5 22  1  0  0  0  0
  6  3  2  0  0  0  0
  7 14  1  6  0  0  0
  7 10  1  0  0  0  0
  8  2  1  1  0  0  0
  8  9  1  0  0  0  0
  8 15  1  0  0  0  0
  9 15  1  0  0  0  0
 10 26  1  0  0  0  0
 11 14  2  0  0  0  0
 12 17  2  0  0  0  0
 13 27  1  0  0  0  0
 13  7  1  0  0  0  0
 15 27  1  0  0  0  0
 16  1  1  0  0  0  0
 16 23  1  0  0  0  0
 17 21  1  0  0  0  0
 19 17  1  0  0  0  0
 20  4  1  0  0  0  0
 21 11  1  0  0  0  0
 22 18  1  0  0  0  0
 23 11  1  0  0  0  0
 25  6  1  0  0  0  0
 25 26  1  0  0  0  0
 26 20  2  0  0  0  0
 27 25  1  0  0  0  0
 28 22  1  0  0  0  0
 28 30  1  0  0  0  0
 29 30  1  0  0  0  0
 30 32  1  0  0  0  0
 32 31  1  0  0  0  0
 33 32  2  0  0  0  0
M  END
>  <MODEL>
9

>  <REMARK>
 VINA RESULT:      -6.5      3.334      9.280
  Name = 
  3 active torsions:
  status: ('A' for Active; 'I' for Inactive)
    1  A    between atoms: C_12  and  C_14
    2  A    between atoms: C_12  and  C_31
    3  A    between atoms: C_14  and  C_26
                            x       y       z     vdW  Elec       q    Type
                         _______ _______ _______ _____ _____    ______ ____

>  <TORSDO>
F 3

$$$$
