=
 OpenBabel11042410463D

 49 56  0  0  0  0  0  0  0  0999 V2000
  188.2520  177.5100  147.9080 S   0  0  0  0  0  0  0  0  0  0  0  0
  187.9170  178.1170  141.6470 N   0  0  0  0  0  0  0  0  0  0  0  0
  191.0750  177.3670  145.2710 C   0  0  0  0  0  1  0  0  0  0  0  0
  182.2080  178.9630  141.2870 C   0  0  0  0  0  0  0  0  0  0  0  0
  181.2240  179.2200  140.2210 C   0  0  0  0  0  3  0  0  0  0  0  0
  187.9640  178.2580  140.2080 C   0  0  0  0  0  0  0  0  0  0  0  0
  188.1860  177.8690  144.1280 C   0  0  0  0  0  0  0  0  0  0  0  0
  189.8120  177.4690  146.0520 C   0  0  0  0  0  0  0  0  0  0  0  0
  186.8200  178.4850  139.5330 C   0  0  0  0  0  3  0  0  0  0  0  0
  187.5190  177.7450  146.4340 C   0  0  0  0  0  0  0  0  0  0  0  0
  183.5290  178.7920  141.1220 C   0  0  0  0  0  0  0  0  0  0  0  0
  182.6150  179.2150  138.1100 C   0  0  0  0  0  3  0  0  0  0  0  0
  185.5590  178.4490  141.6790 C   0  0  0  0  0  0  0  0  0  0  0  0
  185.5730  178.5800  140.3180 C   0  0  0  0  0  0  0  0  0  0  0  0
  186.8460  178.0770  143.7910 C   0  0  0  0  0  0  0  0  0  0  0  0
  183.8490  178.9920  138.5440 C   0  0  0  0  0  3  0  0  0  0  0  0
  184.9290  178.0130  147.3490 Cl  0  0  0  0  0  0  0  0  0  0  0  0
  184.3420  178.5770  142.1450 O   0  0  0  0  0  0  0  0  0  0  0  0
  181.3870  179.3260  138.9030 C   0  0  0  0  0  3  0  0  0  0  0  0
  188.5320  177.6960  145.4790 C   0  0  0  0  0  0  0  0  0  0  0  0
  185.8330  178.1240  144.7640 C   0  0  0  0  0  3  0  0  0  0  0  0
  184.2690  178.8020  139.9330 C   0  0  0  0  0  0  0  0  0  0  0  0
  186.1730  177.9560  146.1150 C   0  0  0  0  0  0  0  0  0  0  0  0
  189.3120  177.8540  142.7110 S   0  0  0  0  0  0  0  0  0  0  0  0
  186.6830  178.2250  142.3600 C   0  0  0  0  0  0  0  0  0  0  0  0
  189.8320  177.3400  147.4070 N   0  0  0  0  0  0  0  0  0  0  0  0
  180.2840  178.2480  142.6670 C   0  0  0  0  0  1  0  0  0  0  0  0
  181.6470  178.9150  142.6730 C   0  0  0  0  0  2  0  0  0  0  0  0
  189.2570  178.1440  139.4660 C   0  0  0  0  0  2  0  0  0  0  0  0
  189.6190  176.6860  139.2160 C   0  0  0  0  0  2  0  0  0  0  0  0
  189.7590  176.3950  137.7290 C   0  0  0  0  0  2  0  0  0  0  0  0
  188.5160  174.2720  137.0020 N   0  0  0  0  0  2  0  0  0  0  0  0
  190.7430  174.2360  137.6550 O   0  0  0  0  0  0  0  0  0  0  0  0
  187.0310  176.0770  137.1280 O   0  0  0  0  0  0  0  0  0  0  0  0
  187.2280  174.8730  136.8100 C   0  0  0  0  0  0  0  0  0  0  0  0
  189.7040  174.9220  137.4750 C   0  0  0  0  0  0  0  0  0  0  0  0
  186.2470  173.5700  135.1100 O   0  0  0  0  0  0  0  0  0  0  0  0
  186.1070  174.0880  136.2510 C   0  0  0  0  0  0  0  0  0  0  0  0
  184.6970  172.9350  137.7910 O   0  0  0  0  0  0  0  0  0  0  0  0
  184.8300  173.8880  136.9770 C   0  0  0  0  0  0  0  0  0  0  0  0
  183.9780  176.0730  135.9840 C   0  0  0  0  0  2  0  0  0  0  0  0
  183.6560  174.7850  136.7160 C   0  0  0  0  0  0  0  0  0  0  0  0
  183.2490  174.9470  135.2650 C   0  0  0  0  0  2  0  0  0  0  0  0
  181.3180  174.2830  137.4860 C   0  0  0  0  0  3  0  0  0  0  0  0
  182.7510  175.6200  138.9090 C   0  0  0  0  0  3  0  0  0  0  0  0
  181.7150  175.7390  139.8400 C   0  0  0  0  0  3  0  0  0  0  0  0
  182.5600  174.8820  137.7320 C   0  0  0  0  0  0  0  0  0  0  0  0
  180.4820  175.1280  139.5960 C   0  0  0  0  0  3  0  0  0  0  0  0
  180.2830  174.4020  138.4180 C   0  0  0  0  0  3  0  0  0  0  0  0
  2 25  1  0  0  0  0
  2 24  1  0  0  0  0
  3  8  1  0  0  0  0
  4 28  1  0  0  0  0
  5  4  1  0  0  0  0
  6  2  1  0  0  0  0
  7 20  1  0  0  0  0
  8 26  2  0  0  0  0
  9  6  2  0  0  0  0
  9 14  1  0  0  0  0
 10  1  1  0  0  0  0
 11  4  2  0  0  0  0
 11 18  1  0  0  0  0
 12 16  2  0  0  0  0
 12 19  1  0  0  0  0
 13 18  1  0  0  0  0
 13 25  2  0  0  0  0
 14 13  1  0  0  0  0
 15  7  2  0  0  0  0
 15 21  1  0  0  0  0
 16 22  1  0  0  0  0
 19  5  2  0  0  0  0
 20  8  1  0  0  0  0
 20 10  2  0  0  0  0
 21 23  2  0  0  0  0
 22 14  2  0  0  0  0
 22 11  1  0  0  0  0
 23 10  1  0  0  0  0
 23 17  1  0  0  0  0
 24  7  1  0  0  0  0
 25 15  1  0  0  0  0
 26  1  1  0  0  0  0
 27 28  1  0  0  0  0
 29  6  1  0  0  0  0
 30 29  1  0  0  0  0
 31 30  1  0  0  0  0
 32 36  1  0  0  0  0
 35 32  1  0  0  0  0
 35 34  2  0  0  0  0
 36 33  2  0  0  0  0
 36 31  1  0  0  0  0
 37 38  2  0  0  0  0
 38 35  1  0  0  0  0
 38 40  1  0  0  0  0
 40 39  2  0  0  0  0
 41 42  1  0  0  0  0
 42 40  1  0  0  0  0
 42 47  1  0  0  0  0
 43 41  1  0  0  0  0
 43 42  1  0  0  0  0
 44 47  2  0  0  0  0
 44 49  1  0  0  0  0
 45 46  2  0  0  0  0
 47 45  1  0  0  0  0
 48 46  1  0  0  0  0
 49 48  2  0  0  0  0
M  END
>  <MODEL>
1

>  <REMARK>
 VINA RESULT:      -9.3      0.000      0.000
  Name = 
  9 active torsions:
  status: ('A' for Active; 'I' for Inactive)
    1  A    between atoms: C_2  and  C_29
    2  A    between atoms: C_2  and  C_48
    3  A    between atoms: C_6  and  C_32
    4  A    between atoms: C_9  and  C_48
    5  A    between atoms: C_25  and  C_44
    6  A    between atoms: C_26  and  C_38
    7  A    between atoms: C_26  and  C_45
    8  A    between atoms: C_29  and  C_41
    9  A    between atoms: C_44  and  C_45
                            x       y       z     vdW  Elec       q    Type
                         _______ _______ _______ _____ _____    ______ ____

>  <TORSDO>
F 9

$$$$
=
 OpenBabel11042410463D

 49 56  0  0  0  0  0  0  0  0999 V2000
  180.9110  179.3560  141.9310 S   0  0  0  0  0  0  0  0  0  0  0  0
  186.9790  178.2730  140.6310 N   0  0  0  0  0  0  0  0  0  0  0  0
  182.7250  179.3220  138.5170 C   0  0  0  0  0  1  0  0  0  0  0  0
  188.7500  177.3550  146.0580 C   0  0  0  0  0  0  0  0  0  0  0  0
  190.0130  177.0100  146.7340 C   0  0  0  0  0  3  0  0  0  0  0  0
  188.3420  178.0240  140.2120 C   0  0  0  0  0  0  0  0  0  0  0  0
  184.5400  178.7110  141.0140 C   0  0  0  0  0  0  0  0  0  0  0  0
  182.2950  179.2690  139.9410 C   0  0  0  0  0  0  0  0  0  0  0  0
  189.2720  177.7360  141.1430 C   0  0  0  0  0  3  0  0  0  0  0  0
  182.5030  179.0040  142.2570 C   0  0  0  0  0  0  0  0  0  0  0  0
  188.5770  177.5240  144.7380 C   0  0  0  0  0  0  0  0  0  0  0  0
  191.6830  176.8660  144.8400 C   0  0  0  0  0  3  0  0  0  0  0  0
  187.5380  177.9250  142.9190 C   0  0  0  0  0  0  0  0  0  0  0  0
  188.8340  177.6910  142.5530 C   0  0  0  0  0  0  0  0  0  0  0  0
  185.1970  178.4670  142.2220 C   0  0  0  0  0  0  0  0  0  0  0  0
  190.9600  177.1320  143.7590 C   0  0  0  0  0  3  0  0  0  0  0  0
  182.2780  178.7850  144.9990 Cl  0  0  0  0  0  0  0  0  0  0  0  0
  187.3970  177.8230  144.2170 O   0  0  0  0  0  0  0  0  0  0  0  0
  191.2310  176.8060  146.2340 C   0  0  0  0  0  3  0  0  0  0  0  0
  183.1630  178.9880  141.0300 C   0  0  0  0  0  0  0  0  0  0  0  0
  184.5220  178.4850  143.4540 C   0  0  0  0  0  3  0  0  0  0  0  0
  189.5280  177.4300  143.7140 C   0  0  0  0  0  0  0  0  0  0  0  0
  183.1460  178.7580  143.4760 C   0  0  0  0  0  0  0  0  0  0  0  0
  185.6120  178.6280  139.5580 S   0  0  0  0  0  0  0  0  0  0  0  0
  186.6060  178.2090  142.0090 C   0  0  0  0  0  0  0  0  0  0  0  0
  180.9950  179.5000  140.2730 N   0  0  0  0  0  0  0  0  0  0  0  0
  188.0160  177.8280  148.3720 C   0  0  0  0  0  1  0  0  0  0  0  0
  187.5650  177.5030  146.9600 C   0  0  0  0  0  2  0  0  0  0  0  0
  188.7270  178.0920  138.7690 C   0  0  0  0  0  2  0  0  0  0  0  0
  190.0880  177.4480  138.5350 C   0  0  0  0  0  2  0  0  0  0  0  0
  190.0490  176.4760  137.3640 C   0  0  0  0  0  2  0  0  0  0  0  0
  187.8820  176.1600  136.0300 N   0  0  0  0  0  2  0  0  0  0  0  0
  189.2390  178.0220  135.7560 O   0  0  0  0  0  0  0  0  0  0  0  0
  188.3420  174.2440  137.2910 O   0  0  0  0  0  0  0  0  0  0  0  0
  187.5430  174.8620  136.5380 C   0  0  0  0  0  0  0  0  0  0  0  0
  189.0540  176.9240  136.3420 C   0  0  0  0  0  0  0  0  0  0  0  0
  186.1760  173.6370  135.0620 O   0  0  0  0  0  0  0  0  0  0  0  0
  186.2610  174.2220  136.1760 C   0  0  0  0  0  0  0  0  0  0  0  0
  184.9320  173.3680  137.9630 O   0  0  0  0  0  0  0  0  0  0  0  0
  185.0770  174.2420  137.0670 C   0  0  0  0  0  0  0  0  0  0  0  0
  184.4970  176.6690  136.5530 C   0  0  0  0  0  2  0  0  0  0  0  0
  184.0040  175.2740  136.8860 C   0  0  0  0  0  0  0  0  0  0  0  0
  183.8320  175.8190  135.4810 C   0  0  0  0  0  2  0  0  0  0  0  0
  182.7910  175.7350  139.0380 C   0  0  0  0  0  3  0  0  0  0  0  0
  181.6110  174.5950  137.2560 C   0  0  0  0  0  3  0  0  0  0  0  0
  180.4730  174.5110  138.0630 C   0  0  0  0  0  3  0  0  0  0  0  0
  182.7720  175.2170  137.7350 C   0  0  0  0  0  0  0  0  0  0  0  0
  180.4920  175.0420  139.3560 C   0  0  0  0  0  3  0  0  0  0  0  0
  181.6520  175.6510  139.8430 C   0  0  0  0  0  3  0  0  0  0  0  0
  1 10  1  0  0  0  0
  2 25  1  0  0  0  0
  3  8  1  0  0  0  0
  4  5  1  0  0  0  0
  4 28  1  0  0  0  0
  6  2  1  0  0  0  0
  6  9  2  0  0  0  0
  7 20  2  0  0  0  0
  7 15  1  0  0  0  0
  8 26  2  0  0  0  0
  8 20  1  0  0  0  0
  9 14  1  0  0  0  0
 10 23  2  0  0  0  0
 11  4  2  0  0  0  0
 12 19  1  0  0  0  0
 13 18  1  0  0  0  0
 14 13  1  0  0  0  0
 14 22  2  0  0  0  0
 15 21  2  0  0  0  0
 16 12  2  0  0  0  0
 18 11  1  0  0  0  0
 19  5  2  0  0  0  0
 20 10  1  0  0  0  0
 21 23  1  0  0  0  0
 22 16  1  0  0  0  0
 22 11  1  0  0  0  0
 23 17  1  0  0  0  0
 24  2  1  0  0  0  0
 24  7  1  0  0  0  0
 25 15  1  0  0  0  0
 25 13  2  0  0  0  0
 26  1  1  0  0  0  0
 28 27  1  0  0  0  0
 29  6  1  0  0  0  0
 30 29  1  0  0  0  0
 31 30  1  0  0  0  0
 32 36  1  0  0  0  0
 32 35  1  0  0  0  0
 33 36  2  0  0  0  0
 35 34  2  0  0  0  0
 36 31  1  0  0  0  0
 37 38  2  0  0  0  0
 38 35  1  0  0  0  0
 38 40  1  0  0  0  0
 40 39  2  0  0  0  0
 41 42  1  0  0  0  0
 42 40  1  0  0  0  0
 42 47  1  0  0  0  0
 43 41  1  0  0  0  0
 43 42  1  0  0  0  0
 44 49  1  0  0  0  0
 45 47  1  0  0  0  0
 45 46  2  0  0  0  0
 46 48  1  0  0  0  0
 47 44  2  0  0  0  0
 48 49  2  0  0  0  0
M  END
>  <MODEL>
2

>  <REMARK>
 VINA RESULT:      -9.1      2.213      5.593
  Name = 
  9 active torsions:
  status: ('A' for Active; 'I' for Inactive)
    1  A    between atoms: C_2  and  C_29
    2  A    between atoms: C_2  and  C_48
    3  A    between atoms: C_6  and  C_32
    4  A    between atoms: C_9  and  C_48
    5  A    between atoms: C_25  and  C_44
    6  A    between atoms: C_26  and  C_38
    7  A    between atoms: C_26  and  C_45
    8  A    between atoms: C_29  and  C_41
    9  A    between atoms: C_44  and  C_45
                            x       y       z     vdW  Elec       q    Type
                         _______ _______ _______ _____ _____    ______ ____

>  <TORSDO>
F 9

$$$$
=
 OpenBabel11042410463D

 49 56  0  0  0  0  0  0  0  0999 V2000
  188.2580  177.5490  147.9160 S   0  0  0  0  0  0  0  0  0  0  0  0
  187.9110  178.1040  141.6510 N   0  0  0  0  0  0  0  0  0  0  0  0
  191.0760  177.3850  145.2740 C   0  0  0  0  0  1  0  0  0  0  0  0
  182.2010  178.9450  141.2950 C   0  0  0  0  0  0  0  0  0  0  0  0
  181.2140  179.1930  140.2280 C   0  0  0  0  0  3  0  0  0  0  0  0
  187.9550  178.2340  140.2100 C   0  0  0  0  0  0  0  0  0  0  0  0
  188.1850  177.8760  144.1330 C   0  0  0  0  0  0  0  0  0  0  0  0
  189.8150  177.4940  146.0560 C   0  0  0  0  0  0  0  0  0  0  0  0
  186.8100  178.4550  139.5350 C   0  0  0  0  0  3  0  0  0  0  0  0
  187.5220  177.7720  146.4410 C   0  0  0  0  0  0  0  0  0  0  0  0
  183.5220  178.7730  141.1280 C   0  0  0  0  0  0  0  0  0  0  0  0
  182.6020  179.1710  138.1150 C   0  0  0  0  0  3  0  0  0  0  0  0
  185.5530  178.4360  141.6840 C   0  0  0  0  0  0  0  0  0  0  0  0
  185.5640  178.5560  140.3230 C   0  0  0  0  0  0  0  0  0  0  0  0
  186.8440  178.0810  143.7970 C   0  0  0  0  0  0  0  0  0  0  0  0
  183.8370  178.9520  138.5480 C   0  0  0  0  0  3  0  0  0  0  0  0
  184.9340  178.0450  147.3590 Cl  0  0  0  0  0  0  0  0  0  0  0  0
  184.3360  178.5670  142.1520 O   0  0  0  0  0  0  0  0  0  0  0  0
  181.3750  179.2880  138.9090 C   0  0  0  0  0  3  0  0  0  0  0  0
  188.5330  177.7150  145.4840 C   0  0  0  0  0  0  0  0  0  0  0  0
  185.8330  178.1360  144.7710 C   0  0  0  0  0  3  0  0  0  0  0  0
  184.2600  178.7740  139.9380 C   0  0  0  0  0  0  0  0  0  0  0  0
  186.1760  177.9790  146.1230 C   0  0  0  0  0  0  0  0  0  0  0  0
  189.3080  177.8510  142.7130 S   0  0  0  0  0  0  0  0  0  0  0  0
  186.6780  178.2180  142.3650 C   0  0  0  0  0  0  0  0  0  0  0  0
  189.8370  177.3760  147.4130 N   0  0  0  0  0  0  0  0  0  0  0  0
  180.1790  178.5090  142.6510 C   0  0  0  0  0  1  0  0  0  0  0  0
  181.6430  178.9080  142.6820 C   0  0  0  0  0  2  0  0  0  0  0  0
  189.2470  178.1150  139.4670 C   0  0  0  0  0  2  0  0  0  0  0  0
  189.5100  176.6720  139.0540 C   0  0  0  0  0  2  0  0  0  0  0  0
  190.9760  176.4510  138.7090 C   0  0  0  0  0  2  0  0  0  0  0  0
  192.3620  174.9790  137.1310 N   0  0  0  0  0  2  0  0  0  0  0  0
  190.1540  174.4910  137.6530 O   0  0  0  0  0  0  0  0  0  0  0  0
  193.5600  176.9070  137.7000 O   0  0  0  0  0  0  0  0  0  0  0  0
  193.5490  175.7860  137.1250 C   0  0  0  0  0  0  0  0  0  0  0  0
  191.1300  175.2700  137.8050 C   0  0  0  0  0  0  0  0  0  0  0  0
  195.5450  176.1870  135.9410 O   0  0  0  0  0  0  0  0  0  0  0  0
  194.7710  175.3220  136.4350 C   0  0  0  0  0  0  0  0  0  0  0  0
  194.7250  173.2190  135.3110 O   0  0  0  0  0  0  0  0  0  0  0  0
  195.1200  173.8880  136.3040 C   0  0  0  0  0  0  0  0  0  0  0  0
  195.2430  171.9670  137.9720 C   0  0  0  0  0  2  0  0  0  0  0  0
  195.9070  173.1940  137.3760 C   0  0  0  0  0  0  0  0  0  0  0  0
  196.4290  171.8130  137.0320 C   0  0  0  0  0  2  0  0  0  0  0  0
  198.0930  174.2190  138.0710 C   0  0  0  0  0  3  0  0  0  0  0  0
  196.1640  174.4970  139.5100 C   0  0  0  0  0  3  0  0  0  0  0  0
  196.9440  175.2220  140.4160 C   0  0  0  0  0  3  0  0  0  0  0  0
  196.7320  174.0020  138.3290 C   0  0  0  0  0  0  0  0  0  0  0  0
  198.2980  175.4480  140.1480 C   0  0  0  0  0  3  0  0  0  0  0  0
  198.8720  174.9450  138.9770 C   0  0  0  0  0  3  0  0  0  0  0  0
  2 25  1  0  0  0  0
  2 24  1  0  0  0  0
  3  8  1  0  0  0  0
  4 28  1  0  0  0  0
  5  4  1  0  0  0  0
  6  2  1  0  0  0  0
  7 20  1  0  0  0  0
  8 26  2  0  0  0  0
  9  6  2  0  0  0  0
  9 14  1  0  0  0  0
 10  1  1  0  0  0  0
 11  4  2  0  0  0  0
 11 18  1  0  0  0  0
 12 16  2  0  0  0  0
 12 19  1  0  0  0  0
 13 18  1  0  0  0  0
 13 25  2  0  0  0  0
 14 13  1  0  0  0  0
 15  7  2  0  0  0  0
 15 21  1  0  0  0  0
 16 22  1  0  0  0  0
 19  5  2  0  0  0  0
 20  8  1  0  0  0  0
 20 10  2  0  0  0  0
 21 23  2  0  0  0  0
 22 14  2  0  0  0  0
 22 11  1  0  0  0  0
 23 10  1  0  0  0  0
 23 17  1  0  0  0  0
 24  7  1  0  0  0  0
 25 15  1  0  0  0  0
 26  1  1  0  0  0  0
 27 28  1  0  0  0  0
 29  6  1  0  0  0  0
 30 29  1  0  0  0  0
 31 30  1  0  0  0  0
 32 36  1  0  0  0  0
 33 36  2  0  0  0  0
 35 32  1  0  0  0  0
 35 34  2  0  0  0  0
 36 31  1  0  0  0  0
 37 38  2  0  0  0  0
 38 35  1  0  0  0  0
 39 40  2  0  0  0  0
 40 38  1  0  0  0  0
 40 42  1  0  0  0  0
 42 41  1  0  0  0  0
 42 47  1  0  0  0  0
 43 42  1  0  0  0  0
 43 41  1  0  0  0  0
 44 47  2  0  0  0  0
 44 49  1  0  0  0  0
 45 46  2  0  0  0  0
 47 45  1  0  0  0  0
 48 46  1  0  0  0  0
 49 48  2  0  0  0  0
M  END
>  <MODEL>
3

>  <REMARK>
 VINA RESULT:      -8.8      3.745      7.197
  Name = 
  9 active torsions:
  status: ('A' for Active; 'I' for Inactive)
    1  A    between atoms: C_2  and  C_29
    2  A    between atoms: C_2  and  C_48
    3  A    between atoms: C_6  and  C_32
    4  A    between atoms: C_9  and  C_48
    5  A    between atoms: C_25  and  C_44
    6  A    between atoms: C_26  and  C_38
    7  A    between atoms: C_26  and  C_45
    8  A    between atoms: C_29  and  C_41
    9  A    between atoms: C_44  and  C_45
                            x       y       z     vdW  Elec       q    Type
                         _______ _______ _______ _____ _____    ______ ____

>  <TORSDO>
F 9

$$$$
=
 OpenBabel11042410463D

 49 56  0  0  0  0  0  0  0  0999 V2000
  189.0760  177.3610  147.2560 S   0  0  0  0  0  0  0  0  0  0  0  0
  185.5980  178.4370  142.1160 N   0  0  0  0  0  0  0  0  0  0  0  0
  185.3410  178.3170  146.9730 C   0  0  0  0  0  1  0  0  0  0  0  0
  189.7460  177.4910  138.2000 C   0  0  0  0  0  0  0  0  0  0  0  0
  189.8580  177.4890  136.7300 C   0  0  0  0  0  3  0  0  0  0  0  0
  184.6990  178.6880  141.0100 C   0  0  0  0  0  0  0  0  0  0  0  0
  186.8690  178.0240  144.2370 C   0  0  0  0  0  0  0  0  0  0  0  0
  186.7730  177.9590  146.7850 C   0  0  0  0  0  0  0  0  0  0  0  0
  185.1700  178.6040  139.7500 C   0  0  0  0  0  3  0  0  0  0  0  0
  188.7570  177.4990  145.6300 C   0  0  0  0  0  0  0  0  0  0  0  0
  188.6370  177.7520  138.9100 C   0  0  0  0  0  0  0  0  0  0  0  0
  187.5340  178.1130  135.9540 C   0  0  0  0  0  3  0  0  0  0  0  0
  187.4190  178.0140  140.6410 C   0  0  0  0  0  0  0  0  0  0  0  0
  186.5940  178.2520  139.5770 C   0  0  0  0  0  0  0  0  0  0  0  0
  187.6950  177.8600  143.1220 C   0  0  0  0  0  0  0  0  0  0  0  0
  186.8520  178.2620  137.0820 C   0  0  0  0  0  3  0  0  0  0  0  0
  191.2860  176.8940  144.7060 Cl  0  0  0  0  0  0  0  0  0  0  0  0
  188.6280  177.7180  140.2340 O   0  0  0  0  0  0  0  0  0  0  0  0
  188.9450  177.7460  135.7950 C   0  0  0  0  0  3  0  0  0  0  0  0
  187.4110  177.8420  145.5210 C   0  0  0  0  0  0  0  0  0  0  0  0
  189.0510  177.5140  143.2450 C   0  0  0  0  0  3  0  0  0  0  0  0
  187.3610  178.0900  138.4440 C   0  0  0  0  0  0  0  0  0  0  0  0
  189.5970  177.3280  144.5240 C   0  0  0  0  0  0  0  0  0  0  0  0
  185.1600  178.4620  143.8340 S   0  0  0  0  0  0  0  0  0  0  0  0
  186.9670  178.0930  141.8930 C   0  0  0  0  0  0  0  0  0  0  0  0
  187.5670  177.7220  147.8650 N   0  0  0  0  0  0  0  0  0  0  0  0
  191.6950  175.9690  138.2690 C   0  0  0  0  0  1  0  0  0  0  0  0
  191.0020  177.1440  138.9350 C   0  0  0  0  0  2  0  0  0  0  0  0
  183.2680  179.0470  141.2480 C   0  0  0  0  0  2  0  0  0  0  0  0
  182.4020  178.6660  140.0540 C   0  0  0  0  0  2  0  0  0  0  0  0
  181.7990  177.2790  140.2250 C   0  0  0  0  0  2  0  0  0  0  0  0
  180.8820  176.0500  138.1690 N   0  0  0  0  0  2  0  0  0  0  0  0
  179.6720  177.7040  139.2590 O   0  0  0  0  0  0  0  0  0  0  0  0
  183.1040  175.4300  138.5580 O   0  0  0  0  0  0  0  0  0  0  0  0
  182.0440  175.2540  137.9000 C   0  0  0  0  0  0  0  0  0  0  0  0
  180.7380  177.0370  139.1990 C   0  0  0  0  0  0  0  0  0  0  0  0
  180.9890  173.5130  136.7140 O   0  0  0  0  0  0  0  0  0  0  0  0
  182.0230  174.2250  136.8390 C   0  0  0  0  0  0  0  0  0  0  0  0
  183.2720  174.6600  134.8540 O   0  0  0  0  0  0  0  0  0  0  0  0
  183.1640  173.9980  135.9210 C   0  0  0  0  0  0  0  0  0  0  0  0
  183.7490  171.8870  137.2210 C   0  0  0  0  0  2  0  0  0  0  0  0
  184.1850  172.9400  136.2200 C   0  0  0  0  0  0  0  0  0  0  0  0
  183.8530  171.5390  135.7440 C   0  0  0  0  0  2  0  0  0  0  0  0
  186.0960  174.2490  137.1930 C   0  0  0  0  0  3  0  0  0  0  0  0
  186.5340  172.7470  135.3430 C   0  0  0  0  0  3  0  0  0  0  0  0
  187.8820  173.1140  135.3640 C   0  0  0  0  0  3  0  0  0  0  0  0
  185.6360  173.3040  136.2650 C   0  0  0  0  0  0  0  0  0  0  0  0
  188.3380  174.0460  136.3000 C   0  0  0  0  0  3  0  0  0  0  0  0
  187.4450  174.6150  137.2130 C   0  0  0  0  0  3  0  0  0  0  0  0
  1 26  1  0  0  0  0
  2 24  1  0  0  0  0
  4 11  2  0  0  0  0
  4 28  1  0  0  0  0
  5  4  1  0  0  0  0
  6 29  1  0  0  0  0
  6  2  1  0  0  0  0
  7 20  2  0  0  0  0
  8  3  1  0  0  0  0
  8 26  2  0  0  0  0
  9  6  2  0  0  0  0
 10  1  1  0  0  0  0
 11 18  1  0  0  0  0
 12 16  2  0  0  0  0
 13 25  2  0  0  0  0
 14  9  1  0  0  0  0
 14 13  1  0  0  0  0
 15 21  2  0  0  0  0
 15  7  1  0  0  0  0
 16 22  1  0  0  0  0
 18 13  1  0  0  0  0
 19 12  1  0  0  0  0
 19  5  2  0  0  0  0
 20 10  1  0  0  0  0
 20  8  1  0  0  0  0
 21 23  1  0  0  0  0
 22 11  1  0  0  0  0
 22 14  2  0  0  0  0
 23 17  1  0  0  0  0
 23 10  2  0  0  0  0
 24  7  1  0  0  0  0
 25  2  1  0  0  0  0
 25 15  1  0  0  0  0
 27 28  1  0  0  0  0
 30 31  1  0  0  0  0
 30 29  1  0  0  0  0
 32 36  1  0  0  0  0
 35 32  1  0  0  0  0
 35 34  2  0  0  0  0
 36 33  2  0  0  0  0
 36 31  1  0  0  0  0
 37 38  2  0  0  0  0
 38 35  1  0  0  0  0
 39 40  2  0  0  0  0
 40 42  1  0  0  0  0
 40 38  1  0  0  0  0
 42 47  1  0  0  0  0
 42 41  1  0  0  0  0
 43 42  1  0  0  0  0
 43 41  1  0  0  0  0
 44 49  1  0  0  0  0
 45 46  2  0  0  0  0
 45 47  1  0  0  0  0
 46 48  1  0  0  0  0
 47 44  2  0  0  0  0
 48 49  2  0  0  0  0
M  END
>  <MODEL>
4

>  <REMARK>
 VINA RESULT:      -8.7      2.504      5.789
  Name = 
  9 active torsions:
  status: ('A' for Active; 'I' for Inactive)
    1  A    between atoms: C_2  and  C_29
    2  A    between atoms: C_2  and  C_48
    3  A    between atoms: C_6  and  C_32
    4  A    between atoms: C_9  and  C_48
    5  A    between atoms: C_25  and  C_44
    6  A    between atoms: C_26  and  C_38
    7  A    between atoms: C_26  and  C_45
    8  A    between atoms: C_29  and  C_41
    9  A    between atoms: C_44  and  C_45
                            x       y       z     vdW  Elec       q    Type
                         _______ _______ _______ _____ _____    ______ ____

>  <TORSDO>
F 9

$$$$
=
 OpenBabel11042410463D

 49 56  0  0  0  0  0  0  0  0999 V2000
  188.3030  177.4970  147.9040 S   0  0  0  0  0  0  0  0  0  0  0  0
  187.7220  178.1190  141.6620 N   0  0  0  0  0  0  0  0  0  0  0  0
  191.0150  177.3250  145.1540 C   0  0  0  0  0  1  0  0  0  0  0  0
  182.0140  179.0330  141.5350 C   0  0  0  0  0  0  0  0  0  0  0  0
  180.9900  179.3030  140.5090 C   0  0  0  0  0  3  0  0  0  0  0  0
  187.7130  178.2620  140.2220 C   0  0  0  0  0  0  0  0  0  0  0  0
  188.0880  177.8630  144.1300 C   0  0  0  0  0  0  0  0  0  0  0  0
  189.7860  177.4420  145.9850 C   0  0  0  0  0  0  0  0  0  0  0  0
  186.5450  178.5040  139.5940 C   0  0  0  0  0  3  0  0  0  0  0  0
  187.5140  177.7440  146.4610 C   0  0  0  0  0  0  0  0  0  0  0  0
  183.3250  178.8470  141.3160 C   0  0  0  0  0  0  0  0  0  0  0  0
  182.2950  179.2860  138.3440 C   0  0  0  0  0  3  0  0  0  0  0  0
  185.3710  178.4790  141.7900 C   0  0  0  0  0  0  0  0  0  0  0  0
  185.3320  178.6120  140.4300 C   0  0  0  0  0  0  0  0  0  0  0  0
  186.7390  178.0880  143.8480 C   0  0  0  0  0  0  0  0  0  0  0  0
  183.5430  179.0470  138.7280 C   0  0  0  0  0  3  0  0  0  0  0  0
  184.9660  178.0400  147.4800 Cl  0  0  0  0  0  0  0  0  0  0  0  0
  184.1760  178.6200  142.3050 O   0  0  0  0  0  0  0  0  0  0  0  0
  181.1010  179.4090  139.1860 C   0  0  0  0  0  3  0  0  0  0  0  0
  188.4860  177.6840  145.4650 C   0  0  0  0  0  0  0  0  0  0  0  0
  185.7660  178.1450  144.8610 C   0  0  0  0  0  3  0  0  0  0  0  0
  184.0160  178.8500  140.0990 C   0  0  0  0  0  0  0  0  0  0  0  0
  186.1590  177.9710  146.1970 C   0  0  0  0  0  0  0  0  0  0  0  0
  189.1550  177.8380  142.6680 S   0  0  0  0  0  0  0  0  0  0  0  0
  186.5190  178.2400  142.4250 C   0  0  0  0  0  0  0  0  0  0  0  0
  189.8600  177.3100  147.3390 N   0  0  0  0  0  0  0  0  0  0  0  0
  180.1700  178.2760  143.0010 C   0  0  0  0  0  1  0  0  0  0  0  0
  181.5090  178.9890  142.9430 C   0  0  0  0  0  2  0  0  0  0  0  0
  188.9730  178.1340  139.4290 C   0  0  0  0  0  2  0  0  0  0  0  0
  188.8320  178.7990  138.0660 C   0  0  0  0  0  2  0  0  0  0  0  0
  189.2460  177.8590  136.9430 C   0  0  0  0  0  2  0  0  0  0  0  0
  187.5840  175.9180  136.7320 N   0  0  0  0  0  2  0  0  0  0  0  0
  189.5560  175.7270  137.9390 O   0  0  0  0  0  0  0  0  0  0  0  0
  186.6890  177.8570  135.7740 O   0  0  0  0  0  0  0  0  0  0  0  0
  186.5780  176.6190  135.9870 C   0  0  0  0  0  0  0  0  0  0  0  0
  188.8090  176.4610  137.2410 C   0  0  0  0  0  0  0  0  0  0  0  0
  185.5610  175.0140  134.5940 O   0  0  0  0  0  0  0  0  0  0  0  0
  185.3910  175.9080  135.4680 C   0  0  0  0  0  0  0  0  0  0  0  0
  183.4520  177.2870  135.6320 O   0  0  0  0  0  0  0  0  0  0  0  0
  184.0150  176.2010  135.9350 C   0  0  0  0  0  0  0  0  0  0  0  0
  183.3960  175.5090  138.3070 C   0  0  0  0  0  2  0  0  0  0  0  0
  183.2880  175.2330  136.8200 C   0  0  0  0  0  0  0  0  0  0  0  0
  182.0930  175.7840  137.5720 C   0  0  0  0  0  2  0  0  0  0  0  0
  183.9180  172.8310  137.2000 C   0  0  0  0  0  3  0  0  0  0  0  0
  182.5320  173.3830  135.2930 C   0  0  0  0  0  3  0  0  0  0  0  0
  182.5060  172.0360  134.9210 C   0  0  0  0  0  3  0  0  0  0  0  0
  183.2280  173.7850  136.4400 C   0  0  0  0  0  0  0  0  0  0  0  0
  183.1840  171.0860  135.6890 C   0  0  0  0  0  3  0  0  0  0  0  0
  183.8920  171.4830  136.8270 C   0  0  0  0  0  3  0  0  0  0  0  0
  2 25  1  0  0  0  0
  2 24  1  0  0  0  0
  3  8  1  0  0  0  0
  4 28  1  0  0  0  0
  5  4  1  0  0  0  0
  6  2  1  0  0  0  0
  7 20  1  0  0  0  0
  8 26  2  0  0  0  0
  9  6  2  0  0  0  0
  9 14  1  0  0  0  0
 10  1  1  0  0  0  0
 11  4  2  0  0  0  0
 11 18  1  0  0  0  0
 12 16  2  0  0  0  0
 12 19  1  0  0  0  0
 13 18  1  0  0  0  0
 13 25  2  0  0  0  0
 14 13  1  0  0  0  0
 15  7  2  0  0  0  0
 15 21  1  0  0  0  0
 16 22  1  0  0  0  0
 19  5  2  0  0  0  0
 20  8  1  0  0  0  0
 20 10  2  0  0  0  0
 21 23  2  0  0  0  0
 22 14  2  0  0  0  0
 22 11  1  0  0  0  0
 23 10  1  0  0  0  0
 23 17  1  0  0  0  0
 24  7  1  0  0  0  0
 25 15  1  0  0  0  0
 26  1  1  0  0  0  0
 28 27  1  0  0  0  0
 29  6  1  0  0  0  0
 30 29  1  0  0  0  0
 31 36  1  0  0  0  0
 31 30  1  0  0  0  0
 32 36  1  0  0  0  0
 34 35  2  0  0  0  0
 35 32  1  0  0  0  0
 36 33  2  0  0  0  0
 37 38  2  0  0  0  0
 38 40  1  0  0  0  0
 38 35  1  0  0  0  0
 39 40  2  0  0  0  0
 40 42  1  0  0  0  0
 42 43  1  0  0  0  0
 42 41  1  0  0  0  0
 43 41  1  0  0  0  0
 45 47  1  0  0  0  0
 46 45  2  0  0  0  0
 46 48  1  0  0  0  0
 47 42  1  0  0  0  0
 47 44  2  0  0  0  0
 48 49  2  0  0  0  0
 49 44  1  0  0  0  0
M  END
>  <MODEL>
5

>  <REMARK>
 VINA RESULT:      -8.6      1.303      2.100
  Name = 
  9 active torsions:
  status: ('A' for Active; 'I' for Inactive)
    1  A    between atoms: C_2  and  C_29
    2  A    between atoms: C_2  and  C_48
    3  A    between atoms: C_6  and  C_32
    4  A    between atoms: C_9  and  C_48
    5  A    between atoms: C_25  and  C_44
    6  A    between atoms: C_26  and  C_38
    7  A    between atoms: C_26  and  C_45
    8  A    between atoms: C_29  and  C_41
    9  A    between atoms: C_44  and  C_45
                            x       y       z     vdW  Elec       q    Type
                         _______ _______ _______ _____ _____    ______ ____

>  <TORSDO>
F 9

$$$$
=
 OpenBabel11042410463D

 49 56  0  0  0  0  0  0  0  0999 V2000
  189.9470  174.7630  135.0410 S   0  0  0  0  0  0  0  0  0  0  0  0
  184.8120  177.0850  137.8560 N   0  0  0  0  0  0  0  0  0  0  0  0
  189.4490  178.1490  136.8390 C   0  0  0  0  0  1  0  0  0  0  0  0
  181.3280  172.5750  136.8840 C   0  0  0  0  0  0  0  0  0  0  0  0
  179.9360  172.2030  137.1970 C   0  0  0  0  0  3  0  0  0  0  0  0
  183.7040  177.7110  138.5450 C   0  0  0  0  0  0  0  0  0  0  0  0
  186.9250  176.2710  136.7780 C   0  0  0  0  0  0  0  0  0  0  0  0
  189.3570  176.7980  136.2210 C   0  0  0  0  0  0  0  0  0  0  0  0
  182.5300  177.0550  138.6310 C   0  0  0  0  0  3  0  0  0  0  0  0
  188.3710  174.7760  135.5730 C   0  0  0  0  0  0  0  0  0  0  0  0
  181.9380  173.7200  137.2260 C   0  0  0  0  0  0  0  0  0  0  0  0
  179.0490  174.2110  138.4500 C   0  0  0  0  0  3  0  0  0  0  0  0
  183.5160  175.1470  137.3710 C   0  0  0  0  0  0  0  0  0  0  0  0
  182.4500  175.7180  138.0100 C   0  0  0  0  0  0  0  0  0  0  0  0
  185.9060  175.3230  136.6550 C   0  0  0  0  0  0  0  0  0  0  0  0
  180.0830  175.0430  138.4890 C   0  0  0  0  0  3  0  0  0  0  0  0
  187.6390  172.2920  134.6180 Cl  0  0  0  0  0  0  0  0  0  0  0  0
  183.2010  173.9630  136.9090 O   0  0  0  0  0  0  0  0  0  0  0  0
  178.9880  172.8770  137.8450 C   0  0  0  0  0  3  0  0  0  0  0  0
  188.1860  175.9940  136.2230 C   0  0  0  0  0  0  0  0  0  0  0  0
  186.1050  174.0980  135.9960 C   0  0  0  0  0  3  0  0  0  0  0  0
  181.4150  174.8130  137.9280 C   0  0  0  0  0  0  0  0  0  0  0  0
  187.3630  173.8150  135.4430 C   0  0  0  0  0  0  0  0  0  0  0  0
  186.4390  177.7680  137.6720 S   0  0  0  0  0  0  0  0  0  0  0  0
  184.6830  175.7840  137.2780 C   0  0  0  0  0  0  0  0  0  0  0  0
  190.4380  176.2550  135.5970 N   0  0  0  0  0  0  0  0  0  0  0  0
  181.2070  170.8130  135.1510 C   0  0  0  0  0  1  0  0  0  0  0  0
  182.1080  171.5440  136.1300 C   0  0  0  0  0  2  0  0  0  0  0  0
  183.8440  179.0720  139.1480 C   0  0  0  0  0  2  0  0  0  0  0  0
  183.9550  178.9890  140.6650 C   0  0  0  0  0  2  0  0  0  0  0  0
  185.3740  179.2750  141.1360 C   0  0  0  0  0  2  0  0  0  0  0  0
  187.1110  177.7930  142.3030 N   0  0  0  0  0  2  0  0  0  0  0  0
  184.9250  177.9620  143.0610 O   0  0  0  0  0  0  0  0  0  0  0  0
  187.9980  178.6750  140.3250 O   0  0  0  0  0  0  0  0  0  0  0  0
  188.1890  178.0170  141.3820 C   0  0  0  0  0  0  0  0  0  0  0  0
  185.7780  178.3100  142.2040 C   0  0  0  0  0  0  0  0  0  0  0  0
  190.3920  177.5000  140.7260 O   0  0  0  0  0  0  0  0  0  0  0  0
  189.5350  177.4690  141.6510 C   0  0  0  0  0  0  0  0  0  0  0  0
  189.9490  175.6400  143.1250 O   0  0  0  0  0  0  0  0  0  0  0  0
  189.9160  176.8890  142.9610 C   0  0  0  0  0  0  0  0  0  0  0  0
  191.6880  178.0850  144.3470 C   0  0  0  0  0  2  0  0  0  0  0  0
  190.2180  177.7790  144.1300 C   0  0  0  0  0  0  0  0  0  0  0  0
  190.7570  179.1560  143.7990 C   0  0  0  0  0  2  0  0  0  0  0  0
  190.0020  177.2890  146.5850 C   0  0  0  0  0  3  0  0  0  0  0  0
  188.0130  177.8780  145.3350 C   0  0  0  0  0  3  0  0  0  0  0  0
  187.2430  177.7370  146.4930 C   0  0  0  0  0  3  0  0  0  0  0  0
  189.3970  177.6650  145.3780 C   0  0  0  0  0  0  0  0  0  0  0  0
  187.8520  177.3760  147.6970 C   0  0  0  0  0  3  0  0  0  0  0  0
  189.2310  177.1490  147.7430 C   0  0  0  0  0  3  0  0  0  0  0  0
  1 10  1  0  0  0  0
  1 26  1  0  0  0  0
  2  6  1  0  0  0  0
  4  5  1  0  0  0  0
  4 11  2  0  0  0  0
  5 19  2  0  0  0  0
  6  9  2  0  0  0  0
  6 29  1  0  0  0  0
  7 24  1  0  0  0  0
  8 20  1  0  0  0  0
  8  3  1  0  0  0  0
 10 20  1  0  0  0  0
 11 22  1  0  0  0  0
 12 16  2  0  0  0  0
 13 14  1  0  0  0  0
 14  9  1  0  0  0  0
 15  7  1  0  0  0  0
 15 25  1  0  0  0  0
 17 23  1  0  0  0  0
 18 11  1  0  0  0  0
 18 13  1  0  0  0  0
 19 12  1  0  0  0  0
 20  7  2  0  0  0  0
 21 15  2  0  0  0  0
 22 14  2  0  0  0  0
 22 16  1  0  0  0  0
 23 10  2  0  0  0  0
 23 21  1  0  0  0  0
 24  2  1  0  0  0  0
 25 13  2  0  0  0  0
 25  2  1  0  0  0  0
 26  8  2  0  0  0  0
 27 28  1  0  0  0  0
 28  4  1  0  0  0  0
 29 30  1  0  0  0  0
 30 31  1  0  0  0  0
 31 36  1  0  0  0  0
 34 35  2  0  0  0  0
 35 38  1  0  0  0  0
 35 32  1  0  0  0  0
 36 32  1  0  0  0  0
 36 33  2  0  0  0  0
 37 38  2  0  0  0  0
 38 40  1  0  0  0  0
 40 39  2  0  0  0  0
 40 42  1  0  0  0  0
 42 41  1  0  0  0  0
 42 47  1  0  0  0  0
 43 42  1  0  0  0  0
 43 41  1  0  0  0  0
 44 49  1  0  0  0  0
 45 47  1  0  0  0  0
 45 46  2  0  0  0  0
 46 48  1  0  0  0  0
 47 44  2  0  0  0  0
 48 49  2  0  0  0  0
M  END
>  <MODEL>
6

>  <REMARK>
 VINA RESULT:      -8.4      3.368      8.702
  Name = 
  9 active torsions:
  status: ('A' for Active; 'I' for Inactive)
    1  A    between atoms: C_2  and  C_29
    2  A    between atoms: C_2  and  C_48
    3  A    between atoms: C_6  and  C_32
    4  A    between atoms: C_9  and  C_48
    5  A    between atoms: C_25  and  C_44
    6  A    between atoms: C_26  and  C_38
    7  A    between atoms: C_26  and  C_45
    8  A    between atoms: C_29  and  C_41
    9  A    between atoms: C_44  and  C_45
                            x       y       z     vdW  Elec       q    Type
                         _______ _______ _______ _____ _____    ______ ____

>  <TORSDO>
F 9

$$$$
=
 OpenBabel11042410463D

 49 56  0  0  0  0  0  0  0  0999 V2000
  188.3460  177.5030  147.9780 S   0  0  0  0  0  0  0  0  0  0  0  0
  187.9400  178.1170  141.7220 N   0  0  0  0  0  0  0  0  0  0  0  0
  191.1360  177.3420  145.3070 C   0  0  0  0  0  1  0  0  0  0  0  0
  182.2340  179.0030  141.4310 C   0  0  0  0  0  0  0  0  0  0  0  0
  181.2380  179.2680  140.3770 C   0  0  0  0  0  3  0  0  0  0  0  0
  187.9710  178.2590  140.2820 C   0  0  0  0  0  0  0  0  0  0  0  0
  188.2370  177.8650  144.1990 C   0  0  0  0  0  0  0  0  0  0  0  0
  189.8830  177.4530  146.1030 C   0  0  0  0  0  0  0  0  0  0  0  0
  186.8210  178.4950  139.6210 C   0  0  0  0  0  3  0  0  0  0  0  0
  187.5970  177.7440  146.5130 C   0  0  0  0  0  0  0  0  0  0  0  0
  183.5510  178.8230  141.2500 C   0  0  0  0  0  0  0  0  0  0  0  0
  182.6040  179.2550  138.2500 C   0  0  0  0  0  3  0  0  0  0  0  0
  185.5850  178.4660  141.7830 C   0  0  0  0  0  0  0  0  0  0  0  0
  185.5840  178.5980  140.4220 C   0  0  0  0  0  0  0  0  0  0  0  0
  186.8950  178.0830  143.8790 C   0  0  0  0  0  0  0  0  0  0  0  0
  183.8420  179.0230  138.6690 C   0  0  0  0  0  3  0  0  0  0  0  0
  185.0200  178.0290  147.4590 Cl  0  0  0  0  0  0  0  0  0  0  0  0
  184.3750  178.6010  142.2630 O   0  0  0  0  0  0  0  0  0  0  0  0
  181.3860  179.3730  139.0580 C   0  0  0  0  0  3  0  0  0  0  0  0
  188.5980  177.6890  145.5460 C   0  0  0  0  0  0  0  0  0  0  0  0
  185.8940  178.1360  144.8630 C   0  0  0  0  0  3  0  0  0  0  0  0
  184.2770  178.8290  140.0530 C   0  0  0  0  0  0  0  0  0  0  0  0
  186.2490  177.9650  146.2100 C   0  0  0  0  0  0  0  0  0  0  0  0
  189.3460  177.8430  142.7690 S   0  0  0  0  0  0  0  0  0  0  0  0
  186.7160  178.2330  142.4500 C   0  0  0  0  0  0  0  0  0  0  0  0
  189.9190  177.3230  147.4580 N   0  0  0  0  0  0  0  0  0  0  0  0
  180.3600  179.6880  142.8940 C   0  0  0  0  0  1  0  0  0  0  0  0
  181.6890  178.9580  142.8240 C   0  0  0  0  0  2  0  0  0  0  0  0
  189.2540  178.1370  139.5250 C   0  0  0  0  0  2  0  0  0  0  0  0
  189.7060  176.6840  139.4440 C   0  0  0  0  0  2  0  0  0  0  0  0
  191.0230  176.5530  138.6910 C   0  0  0  0  0  2  0  0  0  0  0  0
  192.1230  174.9730  136.9970 N   0  0  0  0  0  2  0  0  0  0  0  0
  189.9210  174.7100  137.6780 O   0  0  0  0  0  0  0  0  0  0  0  0
  193.5590  176.7530  137.4950 O   0  0  0  0  0  0  0  0  0  0  0  0
  193.3850  175.6500  136.9110 C   0  0  0  0  0  0  0  0  0  0  0  0
  190.9830  175.3790  137.7650 C   0  0  0  0  0  0  0  0  0  0  0  0
  194.2550  174.6530  134.9610 O   0  0  0  0  0  0  0  0  0  0  0  0
  194.4970  175.0730  136.1260 C   0  0  0  0  0  0  0  0  0  0  0  0
  196.7810  175.7500  136.2410 O   0  0  0  0  0  0  0  0  0  0  0  0
  195.8790  174.9720  136.6510 C   0  0  0  0  0  0  0  0  0  0  0  0
  197.3590  174.2680  138.6020 C   0  0  0  0  0  2  0  0  0  0  0  0
  196.2410  173.9060  137.6430 C   0  0  0  0  0  0  0  0  0  0  0  0
  195.9200  174.2070  139.0940 C   0  0  0  0  0  2  0  0  0  0  0  0
  196.8600  172.0410  136.0760 C   0  0  0  0  0  3  0  0  0  0  0  0
  195.4310  171.5480  137.9680 C   0  0  0  0  0  3  0  0  0  0  0  0
  195.3570  170.2120  137.5650 C   0  0  0  0  0  3  0  0  0  0  0  0
  196.1910  172.4670  137.2330 C   0  0  0  0  0  0  0  0  0  0  0  0
  196.0370  169.7900  136.4190 C   0  0  0  0  0  3  0  0  0  0  0  0
  196.7860  170.7050  135.6740 C   0  0  0  0  0  3  0  0  0  0  0  0
  2 25  1  0  0  0  0
  2 24  1  0  0  0  0
  3  8  1  0  0  0  0
  4 28  1  0  0  0  0
  5  4  1  0  0  0  0
  6  2  1  0  0  0  0
  7 20  1  0  0  0  0
  8 26  2  0  0  0  0
  9  6  2  0  0  0  0
  9 14  1  0  0  0  0
 10  1  1  0  0  0  0
 11  4  2  0  0  0  0
 11 18  1  0  0  0  0
 12 16  2  0  0  0  0
 12 19  1  0  0  0  0
 13 18  1  0  0  0  0
 13 25  2  0  0  0  0
 14 13  1  0  0  0  0
 15  7  2  0  0  0  0
 15 21  1  0  0  0  0
 16 22  1  0  0  0  0
 19  5  2  0  0  0  0
 20  8  1  0  0  0  0
 20 10  2  0  0  0  0
 21 23  2  0  0  0  0
 22 14  2  0  0  0  0
 22 11  1  0  0  0  0
 23 10  1  0  0  0  0
 23 17  1  0  0  0  0
 24  7  1  0  0  0  0
 25 15  1  0  0  0  0
 26  1  1  0  0  0  0
 28 27  1  0  0  0  0
 29  6  1  0  0  0  0
 30 29  1  0  0  0  0
 31 30  1  0  0  0  0
 32 36  1  0  0  0  0
 33 36  2  0  0  0  0
 35 32  1  0  0  0  0
 35 34  2  0  0  0  0
 36 31  1  0  0  0  0
 37 38  2  0  0  0  0
 38 40  1  0  0  0  0
 38 35  1  0  0  0  0
 39 40  2  0  0  0  0
 40 42  1  0  0  0  0
 41 43  1  0  0  0  0
 42 41  1  0  0  0  0
 42 43  1  0  0  0  0
 44 47  1  0  0  0  0
 46 45  1  0  0  0  0
 47 42  1  0  0  0  0
 47 45  2  0  0  0  0
 48 46  2  0  0  0  0
 49 44  2  0  0  0  0
 49 48  1  0  0  0  0
M  END
>  <MODEL>
7

>  <REMARK>
 VINA RESULT:      -8.4      3.689      7.084
  Name = 
  9 active torsions:
  status: ('A' for Active; 'I' for Inactive)
    1  A    between atoms: C_2  and  C_29
    2  A    between atoms: C_2  and  C_48
    3  A    between atoms: C_6  and  C_32
    4  A    between atoms: C_9  and  C_48
    5  A    between atoms: C_25  and  C_44
    6  A    between atoms: C_26  and  C_38
    7  A    between atoms: C_26  and  C_45
    8  A    between atoms: C_29  and  C_41
    9  A    between atoms: C_44  and  C_45
                            x       y       z     vdW  Elec       q    Type
                         _______ _______ _______ _____ _____    ______ ____

>  <TORSDO>
F 9

$$$$
=
 OpenBabel11042410463D

 49 56  0  0  0  0  0  0  0  0999 V2000
  188.4160  177.4610  147.8670 S   0  0  0  0  0  0  0  0  0  0  0  0
  187.7900  178.1030  141.6320 N   0  0  0  0  0  0  0  0  0  0  0  0
  191.1240  177.4150  145.1080 C   0  0  0  0  0  1  0  0  0  0  0  0
  182.0500  178.7930  141.5280 C   0  0  0  0  0  0  0  0  0  0  0  0
  181.0130  179.0300  140.5080 C   0  0  0  0  0  3  0  0  0  0  0  0
  187.7710  178.2560  140.1930 C   0  0  0  0  0  0  0  0  0  0  0  0
  188.1750  177.8450  144.0970 C   0  0  0  0  0  0  0  0  0  0  0  0
  189.8940  177.4770  145.9440 C   0  0  0  0  0  0  0  0  0  0  0  0
  186.5920  178.4560  139.5700 C   0  0  0  0  0  3  0  0  0  0  0  0
  187.6130  177.6870  146.4280 C   0  0  0  0  0  0  0  0  0  0  0  0
  183.3670  178.6600  141.3040 C   0  0  0  0  0  0  0  0  0  0  0  0
  182.3110  179.0790  138.3390 C   0  0  0  0  0  3  0  0  0  0  0  0
  185.4280  178.3700  141.7700 C   0  0  0  0  0  0  0  0  0  0  0  0
  185.3790  178.5110  140.4110 C   0  0  0  0  0  0  0  0  0  0  0  0
  186.8160  178.0180  143.8200 C   0  0  0  0  0  0  0  0  0  0  0  0
  183.5680  178.8870  138.7170 C   0  0  0  0  0  3  0  0  0  0  0  0
  185.0590  177.8750  147.4580 Cl  0  0  0  0  0  0  0  0  0  0  0  0
  184.2290  178.4600  142.2890 O   0  0  0  0  0  0  0  0  0  0  0  0
  181.1150  179.1490  139.1860 C   0  0  0  0  0  3  0  0  0  0  0  0
  188.5840  177.6730  145.4300 C   0  0  0  0  0  0  0  0  0  0  0  0
  185.8460  178.0300  144.8360 C   0  0  0  0  0  3  0  0  0  0  0  0
  184.0540  178.6990  140.0850 C   0  0  0  0  0  0  0  0  0  0  0  0
  186.2500  177.8620  146.1700 C   0  0  0  0  0  0  0  0  0  0  0  0
  189.2370  177.8710  142.6310 S   0  0  0  0  0  0  0  0  0  0  0  0
  186.5860  178.1720  142.3990 C   0  0  0  0  0  0  0  0  0  0  0  0
  189.9770  177.3390  147.2960 N   0  0  0  0  0  0  0  0  0  0  0  0
  180.0410  178.5790  142.9560 C   0  0  0  0  0  1  0  0  0  0  0  0
  181.5520  178.7190  142.9370 C   0  0  0  0  0  2  0  0  0  0  0  0
  189.0330  178.1840  139.3950 C   0  0  0  0  0  2  0  0  0  0  0  0
  188.7370  178.2040  137.9010 C   0  0  0  0  0  2  0  0  0  0  0  0
  188.8650  176.8150  137.2890 C   0  0  0  0  0  2  0  0  0  0  0  0
  191.0470  176.1010  136.1470 N   0  0  0  0  0  2  0  0  0  0  0  0
  189.5120  177.4980  135.1100 O   0  0  0  0  0  0  0  0  0  0  0  0
  191.0130  175.3540  138.3650 O   0  0  0  0  0  0  0  0  0  0  0  0
  191.5920  175.3560  137.2460 C   0  0  0  0  0  0  0  0  0  0  0  0
  189.8160  176.8360  136.1360 C   0  0  0  0  0  0  0  0  0  0  0  0
  192.7700  173.3580  136.8330 O   0  0  0  0  0  0  0  0  0  0  0  0
  192.8470  174.5910  137.0880 C   0  0  0  0  0  0  0  0  0  0  0  0
  194.6000  175.6190  138.3360 O   0  0  0  0  0  0  0  0  0  0  0  0
  194.1850  175.2130  137.2180 C   0  0  0  0  0  0  0  0  0  0  0  0
  194.3050  175.5600  134.6970 C   0  0  0  0  0  2  0  0  0  0  0  0
  195.0510  175.4180  136.0100 C   0  0  0  0  0  0  0  0  0  0  0  0
  194.9540  176.7750  135.3410 C   0  0  0  0  0  2  0  0  0  0  0  0
  196.6720  173.6650  136.7920 C   0  0  0  0  0  3  0  0  0  0  0  0
  197.3440  175.1610  135.0100 C   0  0  0  0  0  3  0  0  0  0  0  0
  198.5910  174.5340  134.9520 C   0  0  0  0  0  3  0  0  0  0  0  0
  196.3740  174.7230  135.9220 C   0  0  0  0  0  0  0  0  0  0  0  0
  198.8790  173.4710  135.8130 C   0  0  0  0  0  3  0  0  0  0  0  0
  197.9200  173.0380  136.7340 C   0  0  0  0  0  3  0  0  0  0  0  0
  2 25  1  0  0  0  0
  2 24  1  0  0  0  0
  3  8  1  0  0  0  0
  4 28  1  0  0  0  0
  5  4  1  0  0  0  0
  6  2  1  0  0  0  0
  7 20  1  0  0  0  0
  8 26  2  0  0  0  0
  9  6  2  0  0  0  0
  9 14  1  0  0  0  0
 10  1  1  0  0  0  0
 11  4  2  0  0  0  0
 11 18  1  0  0  0  0
 12 16  2  0  0  0  0
 12 19  1  0  0  0  0
 13 18  1  0  0  0  0
 13 25  2  0  0  0  0
 14 13  1  0  0  0  0
 15  7  2  0  0  0  0
 15 21  1  0  0  0  0
 16 22  1  0  0  0  0
 19  5  2  0  0  0  0
 20  8  1  0  0  0  0
 20 10  2  0  0  0  0
 21 23  2  0  0  0  0
 22 14  2  0  0  0  0
 22 11  1  0  0  0  0
 23 10  1  0  0  0  0
 23 17  1  0  0  0  0
 24  7  1  0  0  0  0
 25 15  1  0  0  0  0
 26  1  1  0  0  0  0
 28 27  1  0  0  0  0
 29  6  1  0  0  0  0
 30 29  1  0  0  0  0
 31 30  1  0  0  0  0
 32 35  1  0  0  0  0
 33 36  2  0  0  0  0
 35 34  2  0  0  0  0
 36 32  1  0  0  0  0
 36 31  1  0  0  0  0
 37 38  2  0  0  0  0
 38 40  1  0  0  0  0
 38 35  1  0  0  0  0
 40 39  2  0  0  0  0
 41 43  1  0  0  0  0
 41 42  1  0  0  0  0
 42 40  1  0  0  0  0
 43 42  1  0  0  0  0
 45 47  1  0  0  0  0
 46 45  2  0  0  0  0
 46 48  1  0  0  0  0
 47 42  1  0  0  0  0
 47 44  2  0  0  0  0
 48 49  2  0  0  0  0
 49 44  1  0  0  0  0
M  END
>  <MODEL>
8

>  <REMARK>
 VINA RESULT:      -8.3      3.474      6.979
  Name = 
  9 active torsions:
  status: ('A' for Active; 'I' for Inactive)
    1  A    between atoms: C_2  and  C_29
    2  A    between atoms: C_2  and  C_48
    3  A    between atoms: C_6  and  C_32
    4  A    between atoms: C_9  and  C_48
    5  A    between atoms: C_25  and  C_44
    6  A    between atoms: C_26  and  C_38
    7  A    between atoms: C_26  and  C_45
    8  A    between atoms: C_29  and  C_41
    9  A    between atoms: C_44  and  C_45
                            x       y       z     vdW  Elec       q    Type
                         _______ _______ _______ _____ _____    ______ ____

>  <TORSDO>
F 9

$$$$
=
 OpenBabel11042410463D

 49 56  0  0  0  0  0  0  0  0999 V2000
  188.3970  177.7450  147.0990 S   0  0  0  0  0  0  0  0  0  0  0  0
  186.4090  178.2420  141.1420 N   0  0  0  0  0  0  0  0  0  0  0  0
  190.4250  177.5960  143.8110 C   0  0  0  0  0  1  0  0  0  0  0  0
  180.7940  179.0040  142.2950 C   0  0  0  0  0  0  0  0  0  0  0  0
  179.5580  179.2300  141.5230 C   0  0  0  0  0  3  0  0  0  0  0  0
  186.0720  178.3590  139.7400 C   0  0  0  0  0  0  0  0  0  0  0  0
  187.3290  178.0390  143.4660 C   0  0  0  0  0  0  0  0  0  0  0  0
  189.4120  177.6950  144.8960 C   0  0  0  0  0  0  0  0  0  0  0  0
  184.7860  178.5600  139.3890 C   0  0  0  0  0  3  0  0  0  0  0  0
  187.2970  177.9460  145.8680 C   0  0  0  0  0  0  0  0  0  0  0  0
  182.0270  178.8490  141.7880 C   0  0  0  0  0  0  0  0  0  0  0  0
  180.3420  179.2090  139.1200 C   0  0  0  0  0  3  0  0  0  0  0  0
  184.1380  178.5430  141.7930 C   0  0  0  0  0  0  0  0  0  0  0  0
  183.7900  178.6510  140.4750 C   0  0  0  0  0  0  0  0  0  0  0  0
  185.9440  178.2240  143.4940 C   0  0  0  0  0  0  0  0  0  0  0  0
  181.6510  179.0090  139.2150 C   0  0  0  0  0  3  0  0  0  0  0  0
  185.0360  178.1930  147.4320 Cl  0  0  0  0  0  0  0  0  0  0  0  0
  183.0850  178.6620  142.5620 O   0  0  0  0  0  0  0  0  0  0  0  0
  179.3660  179.3160  140.2080 C   0  0  0  0  0  3  0  0  0  0  0  0
  188.0220  177.8940  144.6800 C   0  0  0  0  0  0  0  0  0  0  0  0
  185.2230  178.2730  144.6980 C   0  0  0  0  0  3  0  0  0  0  0  0
  182.4270  178.8480  140.4460 C   0  0  0  0  0  0  0  0  0  0  0  0
  185.9110  178.1330  145.9140 C   0  0  0  0  0  0  0  0  0  0  0  0
  188.0390  178.0160  141.8020 S   0  0  0  0  0  0  0  0  0  0  0  0
  185.4050  178.3460  142.1550 C   0  0  0  0  0  0  0  0  0  0  0  0
  189.7920  177.5890  146.1990 N   0  0  0  0  0  0  0  0  0  0  0  0
  179.1750  179.2560  144.1480 C   0  0  0  0  0  1  0  0  0  0  0  0
  180.6200  178.9720  143.7800 C   0  0  0  0  0  2  0  0  0  0  0  0
  187.1240  178.2510  138.6840 C   0  0  0  0  0  2  0  0  0  0  0  0
  186.5030  178.1980  137.2950 C   0  0  0  0  0  2  0  0  0  0  0  0
  187.5440  177.8760  136.2320 C   0  0  0  0  0  2  0  0  0  0  0  0
  188.8830  175.7110  136.5380 N   0  0  0  0  0  2  0  0  0  0  0  0
  186.7700  175.7290  135.5790 O   0  0  0  0  0  0  0  0  0  0  0  0
  190.1930  177.5610  137.1190 O   0  0  0  0  0  0  0  0  0  0  0  0
  190.0750  176.3080  137.0700 C   0  0  0  0  0  0  0  0  0  0  0  0
  187.7080  176.3970  136.0880 C   0  0  0  0  0  0  0  0  0  0  0  0
  190.9220  174.3020  137.9700 O   0  0  0  0  0  0  0  0  0  0  0  0
  191.1860  175.4650  137.5570 C   0  0  0  0  0  0  0  0  0  0  0  0
  192.9580  176.8390  138.3720 O   0  0  0  0  0  0  0  0  0  0  0  0
  192.5930  175.9300  137.5790 C   0  0  0  0  0  0  0  0  0  0  0  0
  193.2590  175.5340  135.1520 C   0  0  0  0  0  2  0  0  0  0  0  0
  193.5980  175.3630  136.6200 C   0  0  0  0  0  0  0  0  0  0  0  0
  194.3630  176.3690  135.7830 C   0  0  0  0  0  2  0  0  0  0  0  0
  193.9820  172.8970  136.3260 C   0  0  0  0  0  3  0  0  0  0  0  0
  195.2950  174.0930  137.9740 C   0  0  0  0  0  3  0  0  0  0  0  0
  195.9420  172.9040  138.3210 C   0  0  0  0  0  3  0  0  0  0  0  0
  194.3200  174.0980  136.9670 C   0  0  0  0  0  0  0  0  0  0  0  0
  195.6120  171.7120  137.6690 C   0  0  0  0  0  3  0  0  0  0  0  0
  194.6310  171.7090  136.6740 C   0  0  0  0  0  3  0  0  0  0  0  0
  2 24  1  0  0  0  0
  2 25  1  0  0  0  0
  3  8  1  0  0  0  0
  4 28  1  0  0  0  0
  5  4  1  0  0  0  0
  6  2  1  0  0  0  0
  7 15  2  0  0  0  0
  7 20  1  0  0  0  0
  8 26  2  0  0  0  0
  9  6  2  0  0  0  0
  9 14  1  0  0  0  0
 10 23  1  0  0  0  0
 10  1  1  0  0  0  0
 11  4  2  0  0  0  0
 11 18  1  0  0  0  0
 12 16  2  0  0  0  0
 12 19  1  0  0  0  0
 13 25  2  0  0  0  0
 13 18  1  0  0  0  0
 14 13  1  0  0  0  0
 15 21  1  0  0  0  0
 16 22  1  0  0  0  0
 19  5  2  0  0  0  0
 20  8  1  0  0  0  0
 20 10  2  0  0  0  0
 21 23  2  0  0  0  0
 22 14  2  0  0  0  0
 22 11  1  0  0  0  0
 23 17  1  0  0  0  0
 24  7  1  0  0  0  0
 25 15  1  0  0  0  0
 26  1  1  0  0  0  0
 28 27  1  0  0  0  0
 29  6  1  0  0  0  0
 30 29  1  0  0  0  0
 31 30  1  0  0  0  0
 32 35  1  0  0  0  0
 33 36  2  0  0  0  0
 35 34  2  0  0  0  0
 35 38  1  0  0  0  0
 36 31  1  0  0  0  0
 36 32  1  0  0  0  0
 38 40  1  0  0  0  0
 38 37  2  0  0  0  0
 40 39  2  0  0  0  0
 41 43  1  0  0  0  0
 41 42  1  0  0  0  0
 42 47  1  0  0  0  0
 42 40  1  0  0  0  0
 43 42  1  0  0  0  0
 44 49  2  0  0  0  0
 44 47  1  0  0  0  0
 45 46  1  0  0  0  0
 47 45  2  0  0  0  0
 48 46  2  0  0  0  0
 49 48  1  0  0  0  0
M  END
>  <MODEL>
9

>  <REMARK>
 VINA RESULT:      -8.1      2.691      6.083
  Name = 
  9 active torsions:
  status: ('A' for Active; 'I' for Inactive)
    1  A    between atoms: C_2  and  C_29
    2  A    between atoms: C_2  and  C_48
    3  A    between atoms: C_6  and  C_32
    4  A    between atoms: C_9  and  C_48
    5  A    between atoms: C_25  and  C_44
    6  A    between atoms: C_26  and  C_38
    7  A    between atoms: C_26  and  C_45
    8  A    between atoms: C_29  and  C_41
    9  A    between atoms: C_44  and  C_45
                            x       y       z     vdW  Elec       q    Type
                         _______ _______ _______ _____ _____    ______ ____

>  <TORSDO>
F 9

$$$$
