=
 OpenBabel11042410083D

 62 65  0  0  1  0  0  0  0  0999 V2000
  181.8490  179.3080  143.6010 C   0  0  0  0  0  0  0  0  0  0  0  0
  181.9210  178.1510  144.1020 O   0  0  0  0  0  0  0  0  0  0  0  0
  183.0350  180.1020  143.4930 N   0  0  0  0  0  2  0  0  0  0  0  0
  187.0790  177.2620  143.6980 N   0  0  0  0  0  2  0  0  0  0  0  0
  185.3460  177.9300  145.1900 N   0  0  0  0  0  0  0  0  0  0  0  0
  184.1890  178.7950  145.2610 C   0  0  0  0  0  2  0  0  0  0  0  0
  185.8710  177.9660  144.0120 C   0  0  0  0  0  0  0  0  0  0  0  0
  184.3310  179.6950  144.0510 C   0  0  1  0  0  3  0  0  0  0  0  0
  185.2290  178.9170  143.0700 C   0  0  2  0  0  3  0  0  0  0  0  0
  183.6580  177.7310  139.7450 C   0  0  0  0  0  1  0  0  0  0  0  0
  184.3940  178.5850  140.7190 C   0  0  0  0  0  0  0  0  0  0  0  0
  184.9810  179.6320  140.3200 O   0  0  0  0  0  0  0  0  0  0  0  0
  184.4500  178.1750  142.0900 N   0  0  0  0  0  2  0  0  0  0  0  0
  187.9660  176.8090  144.7630 C   0  0  0  0  0  2  0  0  0  0  0  0
  189.4410  177.0950  144.4620 C   0  0  1  0  0  3  0  0  0  0  0  0
  189.5120  178.2680  143.6160 N   0  0  0  0  0  0  0  0  0  0  0  0
  189.7670  178.2320  142.3510 C   0  0  0  0  0  3  0  0  0  0  0  0
  189.9890  176.9580  141.5790 C   0  0  0  0  0  2  0  0  0  0  0  0
  187.0070  177.7070  136.2190 C   0  0  0  0  0  3  0  0  0  0  0  0
  189.2230  176.6420  135.9660 C   0  0  0  0  0  2  0  0  0  0  0  0
  189.9070  177.1810  140.1380 N   0  0  0  0  0  0  0  0  0  0  0  0
  188.6090  177.6290  139.5960 C   0  0  0  0  0  2  0  0  0  0  0  0
  190.7930  176.7110  137.9330 C   0  0  0  0  0  3  0  0  0  0  0  0
  188.0380  177.3830  135.4210 C   0  0  0  0  0  3  0  0  0  0  0  0
  189.5300  177.2480  137.3270 C   0  0  2  0  0  3  0  0  0  0  0  0
  188.3460  176.9530  138.2570 C   0  0  2  0  0  3  0  0  0  0  0  0
  186.9700  177.2990  137.6750 C   0  0  0  0  0  2  0  0  0  0  0  0
  190.9500  176.7070  139.2640 C   0  0  0  0  0  3  0  0  0  0  0  0
  190.1900  177.3450  145.6960 N   0  0  0  0  0  2  0  0  0  0  0  0
  191.5920  177.0440  145.3980 C   0  0  0  0  0  2  0  0  0  0  0  0
  191.9420  175.6840  145.9620 C   0  0  0  0  0  2  0  0  0  0  0  0
  192.2610  175.7960  147.4540 C   0  0  0  0  0  1  0  0  0  0  0  0
  180.5330  179.7750  143.0150 C   0  0  2  0  0  3  0  0  0  0  0  0
  178.9310  179.1640  144.8360 C   0  0  0  0  0  1  0  0  0  0  0  0
  179.3630  178.8780  143.3980 C   0  0  0  0  0  2  0  0  0  0  0  0
  180.6180  179.8430  141.5010 C   0  0  0  0  0  2  0  0  0  0  0  0
  179.8240  181.3380  139.6290 C   0  0  0  0  0  0  0  0  0  0  0  0
  179.9350  181.0290  141.0150 N   0  0  0  0  0  2  0  0  0  0  0  0
  179.4490  182.4930  139.2870 O   0  0  0  0  0  0  0  0  0  0  0  0
  181.5580  180.3640  137.8310 S   0  0  0  0  0  0  0  0  0  0  0  0
  180.1140  180.3330  138.5990 C   0  0  0  0  0  0  0  0  0  0  0  0
  179.1020  179.3550  138.1640 C   0  0  0  0  0  3  0  0  0  0  0  0
  179.2140  178.0700  138.4060 C   0  0  0  0  0  0  0  0  0  0  0  0
  179.3730  176.8010  138.6350 C   0  0  0  0  0  0  0  0  0  0  0  0
  179.6180  175.9120  137.5840 O   0  0  0  0  0  0  0  0  0  0  0  0
  180.8570  175.8370  137.0100 O   0  0  0  0  0  0  0  0  0  0  0  0
  181.4190  172.2110  136.9730 C   0  0  0  0  0  0  0  0  0  0  0  0
  180.8340  173.5010  137.1650 N   0  0  0  0  0  0  0  0  0  0  0  0
  180.6920  171.1740  137.0560 O   0  0  0  0  0  0  0  0  0  0  0  0
  182.8760  172.0700  136.6370 C   0  0  0  0  0  2  0  0  0  0  0  0
  182.8120  174.5320  136.2700 C   0  0  0  0  0  3  0  0  0  0  0  0
  181.4680  174.5950  136.8470 C   0  0  0  0  0  0  0  0  0  0  0  0
  183.4600  173.3770  136.1160 C   0  0  0  0  0  0  0  0  0  0  0  0
  184.7120  173.4080  135.4960 O   0  0  0  0  0  0  0  0  0  0  0  0
  185.9820  173.3090  137.4910 C   0  0  0  0  0  1  0  0  0  0  0  0
  185.8970  173.9140  136.1010 C   0  0  1  0  0  3  0  0  0  0  0  0
  187.1120  173.4660  135.2680 C   0  0  0  0  0  3  0  0  0  0  0  0
  188.2250  173.2750  136.1040 O   0  0  0  0  0  1  0  0  0  0  0  0
  186.8010  172.2780  134.5990 O   0  0  0  0  0  1  0  0  0  0  0  0
  179.3320  176.2700  140.0380 C   0  0  0  0  0  2  0  0  0  0  0  0
  180.4670  175.4800  140.2600 O   0  0  0  0  0  0  0  0  0  0  0  0
  179.9910  174.2690  140.5380 O   0  0  0  0  0  1  0  0  0  0  0  0
  1  2  2  0  0  0  0
  3  1  1  0  0  0  0
  4  7  1  0  0  0  0
  4 14  1  0  0  0  0
  5  6  1  0  0  0  0
  7  5  2  0  0  0  0
  8  3  1  6  0  0  0
  8  6  1  0  0  0  0
  9 13  1  6  0  0  0
  9  7  1  0  0  0  0
  9  8  1  0  0  0  0
 10 11  1  0  0  0  0
 11 13  1  0  0  0  0
 12 11  2  0  0  0  0
 15 14  1  1  0  0  0
 15 29  1  0  0  0  0
 16 15  1  0  0  0  0
 17 16  2  0  0  0  0
 18 17  1  0  0  0  0
 19 27  1  0  0  0  0
 21 18  1  0  0  0  0
 22 21  1  0  0  0  0
 23 28  2  0  0  0  0
 24 20  1  0  0  0  0
 24 19  2  0  0  0  0
 25 20  1  6  0  0  0
 25 23  1  0  0  0  0
 25 26  1  0  0  0  0
 26 27  1  6  0  0  0
 26 22  1  0  0  0  0
 28 21  1  0  0  0  0
 30 29  1  0  0  0  0
 30 31  1  0  0  0  0
 31 32  1  0  0  0  0
 33 36  1  6  0  0  0
 33 35  1  0  0  0  0
 33  1  1  0  0  0  0
 35 34  1  0  0  0  0
 37 38  1  0  0  0  0
 38 36  1  0  0  0  0
 39 37  2  0  0  0  0
 40 41  2  0  0  0  0
 41 37  1  0  0  0  0
 42 43  2  0  0  0  0
 42 41  1  0  0  0  0
 43 44  2  0  0  0  0
 44 60  1  0  0  0  0
 45 44  1  0  0  0  0
 46 45  1  0  0  0  0
 47 49  2  0  0  0  0
 47 48  1  0  0  0  0
 50 47  1  0  0  0  0
 51 52  1  0  0  0  0
 52 46  1  0  0  0  0
 52 48  2  0  0  0  0
 53 51  2  0  0  0  0
 53 50  1  0  0  0  0
 54 56  1  0  0  0  0
 54 53  1  0  0  0  0
 56 55  1  1  0  0  0
 57 56  1  0  0  0  0
 57 58  1  0  0  0  0
 59 57  1  0  0  0  0
 60 61  1  0  0  0  0
 61 62  1  0  0  0  0
M  END
>  <MODEL>
1

>  <REMARK>
 VINA RESULT:      -6.6      0.000      0.000
  Name = 
  24 active torsions:
  status: ('A' for Active; 'I' for Inactive)
    1  A    between atoms: C_1  and  C_9
    2  A    between atoms: C_1  and  N_35
    3  A    between atoms: C_1  and  N_61
    4  A    between atoms: C_4  and  O_34
    5  A    between atoms: C_4  and  C_58
    6  A    between atoms: N_5  and  C_9
    7  A    between atoms: C_6  and  C_10
    8  A    between atoms: C_6  and  C_27
    9  A    between atoms: C_6  and  C_59
   10  A    between atoms: C_8  and  C_24
   11  A    between atoms: C_10  and  N_45
   12  A    between atoms: C_14  and  C_39
   13  A    between atoms: O_15  and  O_46
   14  A    between atoms: O_15  and  C_58
   15  A    between atoms: C_18  and  C_52
   16  A    between atoms: O_21  and  C_52
   17  A    between atoms: O_21  and  C_56
   18  A    between atoms: C_24  and  N_35
   19  A    between atoms: C_25  and  N_40
   20  A    between atoms: N_26  and  C_33
   21  A    between atoms: C_30  and  C_39
   22  A    between atoms: C_33  and  C_62
   23  A    between atoms: N_41  and  C_48
   24  A    between atoms: O_46  and  C_55
                            x       y       z     vdW  Elec       q    Type
                         _______ _______ _______ _____ _____    ______ ____

>  <TORSDO>
F 24

$$$$
=
 OpenBabel11042410083D

 62 65  0  0  1  0  0  0  0  0999 V2000
  189.0560  174.4340  135.5540 C   0  0  0  0  0  0  0  0  0  0  0  0
  189.7090  174.8370  136.5580 O   0  0  0  0  0  0  0  0  0  0  0  0
  187.7650  174.9910  135.2860 N   0  0  0  0  0  2  0  0  0  0  0  0
  183.8900  176.6240  137.8890 N   0  0  0  0  0  2  0  0  0  0  0  0
  185.3570  177.4920  136.2240 N   0  0  0  0  0  0  0  0  0  0  0  0
  186.5410  177.1430  135.4680 C   0  0  0  0  0  2  0  0  0  0  0  0
  184.9890  176.5110  136.9750 C   0  0  0  0  0  0  0  0  0  0  0  0
  187.0880  175.9280  136.1900 C   0  0  1  0  0  3  0  0  0  0  0  0
  185.8860  175.3290  136.9440 C   0  0  2  0  0  3  0  0  0  0  0  0
  183.9920  172.0870  136.0290 C   0  0  0  0  0  1  0  0  0  0  0  0
  184.7150  173.1020  136.8450 C   0  0  0  0  0  0  0  0  0  0  0  0
  184.8170  172.9480  138.0960 O   0  0  0  0  0  0  0  0  0  0  0  0
  185.2500  174.2580  136.1900 N   0  0  0  0  0  2  0  0  0  0  0  0
  183.4010  177.9380  138.2930 C   0  0  0  0  0  2  0  0  0  0  0  0
  181.8890  177.9540  138.5350 C   0  0  1  0  0  3  0  0  0  0  0  0
  181.6270  177.3230  139.8120 N   0  0  0  0  0  0  0  0  0  0  0  0
  182.1470  177.7080  140.9290 C   0  0  0  0  0  3  0  0  0  0  0  0
  183.0730  178.8890  141.0560 C   0  0  0  0  0  2  0  0  0  0  0  0
  187.1530  178.0300  145.6150 C   0  0  0  0  0  3  0  0  0  0  0  0
  184.8210  178.2150  146.4120 C   0  0  0  0  0  2  0  0  0  0  0  0
  183.5730  179.0370  142.4200 N   0  0  0  0  0  0  0  0  0  0  0  0
  185.0080  178.7740  142.6450 C   0  0  0  0  0  2  0  0  0  0  0  0
  183.0890  179.0650  144.7940 C   0  0  0  0  0  3  0  0  0  0  0  0
  186.3040  178.2620  146.6310 C   0  0  0  0  0  3  0  0  0  0  0  0
  184.5520  178.8970  145.0790 C   0  0  2  0  0  3  0  0  0  0  0  0
  185.1990  178.0530  143.9730 C   0  0  2  0  0  3  0  0  0  0  0  0
  186.6600  177.6620  144.2330 C   0  0  0  0  0  2  0  0  0  0  0  0
  182.6570  179.1450  143.5270 C   0  0  0  0  0  3  0  0  0  0  0  0
  181.3750  179.3250  138.5600 N   0  0  0  0  0  2  0  0  0  0  0  0
  180.9960  179.6520  137.1830 C   0  0  0  0  0  2  0  0  0  0  0  0
  180.8400  181.1500  137.0500 C   0  0  0  0  0  2  0  0  0  0  0  0
  181.1340  181.8330  138.3870 C   0  0  0  0  0  1  0  0  0  0  0  0
  189.7110  173.4640  134.5930 C   0  0  2  0  0  3  0  0  0  0  0  0
  187.9770  172.0270  135.6830 C   0  0  0  0  0  1  0  0  0  0  0  0
  189.0490  172.0920  134.5950 C   0  0  0  0  0  2  0  0  0  0  0  0
  191.1820  173.2940  134.9280 C   0  0  0  0  0  2  0  0  0  0  0  0
  192.8940  171.4400  134.8730 C   0  0  0  0  0  0  0  0  0  0  0  0
  191.5420  171.8880  134.9000 N   0  0  0  0  0  2  0  0  0  0  0  0
  193.1340  170.2340  134.5950 O   0  0  0  0  0  0  0  0  0  0  0  0
  195.4630  171.7300  135.5800 S   0  0  0  0  0  0  0  0  0  0  0  0
  194.0030  172.3500  135.1850 C   0  0  0  0  0  0  0  0  0  0  0  0
  193.8110  173.8090  135.2530 C   0  0  0  0  0  3  0  0  0  0  0  0
  193.6760  174.4500  136.3900 C   0  0  0  0  0  0  0  0  0  0  0  0
  193.5140  175.0480  137.5310 C   0  0  0  0  0  0  0  0  0  0  0  0
  192.2800  175.6100  137.8740 O   0  0  0  0  0  0  0  0  0  0  0  0
  192.2150  176.6920  138.7070 O   0  0  0  0  0  0  0  0  0  0  0  0
  188.8240  177.9440  139.3440 C   0  0  0  0  0  0  0  0  0  0  0  0
  190.0790  177.6510  138.7240 N   0  0  0  0  0  0  0  0  0  0  0  0
  187.8560  178.3540  138.6350 O   0  0  0  0  0  0  0  0  0  0  0  0
  188.6290  177.7360  140.8180 C   0  0  0  0  0  2  0  0  0  0  0  0
  190.8060  176.5310  140.7230 C   0  0  0  0  0  3  0  0  0  0  0  0
  191.0170  176.9960  139.3500 C   0  0  0  0  0  0  0  0  0  0  0  0
  189.6940  176.8160  141.4010 C   0  0  0  0  0  0  0  0  0  0  0  0
  189.5530  176.2730  142.6820 O   0  0  0  0  0  0  0  0  0  0  0  0
  191.5730  175.8260  143.8310 C   0  0  0  0  0  1  0  0  0  0  0  0
  190.3150  176.6760  143.8140 C   0  0  1  0  0  3  0  0  0  0  0  0
  190.6980  178.1590  143.6540 C   0  0  0  0  0  3  0  0  0  0  0  0
  190.2340  178.8970  144.7570 O   0  0  0  0  0  1  0  0  0  0  0  0
  192.0870  178.2690  143.5490 O   0  0  0  0  0  1  0  0  0  0  0  0
  194.6400  175.1160  138.5220 C   0  0  0  0  0  2  0  0  0  0  0  0
  195.8580  175.0800  137.8310 O   0  0  0  0  0  0  0  0  0  0  0  0
  196.7320  174.5900  138.7040 O   0  0  0  0  0  1  0  0  0  0  0  0
  1  2  2  0  0  0  0
  3  1  1  0  0  0  0
  4 14  1  0  0  0  0
  5  7  2  0  0  0  0
  6  8  1  0  0  0  0
  6  5  1  0  0  0  0
  7  4  1  0  0  0  0
  8  3  1  6  0  0  0
  8  9  1  0  0  0  0
  9 13  1  6  0  0  0
  9  7  1  0  0  0  0
 10 11  1  0  0  0  0
 11 12  2  0  0  0  0
 13 11  1  0  0  0  0
 15 14  1  1  0  0  0
 15 29  1  0  0  0  0
 15 16  1  0  0  0  0
 16 17  2  0  0  0  0
 17 18  1  0  0  0  0
 18 21  1  0  0  0  0
 19 24  2  0  0  0  0
 20 24  1  0  0  0  0
 21 22  1  0  0  0  0
 21 28  1  0  0  0  0
 25 23  1  6  0  0  0
 25 20  1  0  0  0  0
 26 22  1  6  0  0  0
 26 27  1  0  0  0  0
 26 25  1  0  0  0  0
 27 19  1  0  0  0  0
 28 23  2  0  0  0  0
 30 29  1  0  0  0  0
 31 30  1  0  0  0  0
 31 32  1  0  0  0  0
 33 35  1  1  0  0  0
 33 36  1  0  0  0  0
 33  1  1  0  0  0  0
 35 34  1  0  0  0  0
 37 38  1  0  0  0  0
 37 41  1  0  0  0  0
 38 36  1  0  0  0  0
 39 37  2  0  0  0  0
 41 42  1  0  0  0  0
 41 40  2  0  0  0  0
 42 43  2  0  0  0  0
 43 44  2  0  0  0  0
 44 45  1  0  0  0  0
 44 60  1  0  0  0  0
 45 46  1  0  0  0  0
 46 52  1  0  0  0  0
 47 50  1  0  0  0  0
 48 47  1  0  0  0  0
 48 52  2  0  0  0  0
 49 47  2  0  0  0  0
 50 53  1  0  0  0  0
 51 53  2  0  0  0  0
 52 51  1  0  0  0  0
 53 54  1  0  0  0  0
 54 56  1  0  0  0  0
 56 55  1  6  0  0  0
 57 56  1  0  0  0  0
 57 58  1  0  0  0  0
 59 57  1  0  0  0  0
 61 60  1  0  0  0  0
 61 62  1  0  0  0  0
M  END
>  <MODEL>
2

>  <REMARK>
 VINA RESULT:      -5.9      4.263     11.511
  Name = 
  24 active torsions:
  status: ('A' for Active; 'I' for Inactive)
    1  A    between atoms: C_1  and  C_9
    2  A    between atoms: C_1  and  N_35
    3  A    between atoms: C_1  and  N_61
    4  A    between atoms: C_4  and  O_34
    5  A    between atoms: C_4  and  C_58
    6  A    between atoms: N_5  and  C_9
    7  A    between atoms: C_6  and  C_10
    8  A    between atoms: C_6  and  C_27
    9  A    between atoms: C_6  and  C_59
   10  A    between atoms: C_8  and  C_24
   11  A    between atoms: C_10  and  N_45
   12  A    between atoms: C_14  and  C_39
   13  A    between atoms: O_15  and  O_46
   14  A    between atoms: O_15  and  C_58
   15  A    between atoms: C_18  and  C_52
   16  A    between atoms: O_21  and  C_52
   17  A    between atoms: O_21  and  C_56
   18  A    between atoms: C_24  and  N_35
   19  A    between atoms: C_25  and  N_40
   20  A    between atoms: N_26  and  C_33
   21  A    between atoms: C_30  and  C_39
   22  A    between atoms: C_33  and  C_62
   23  A    between atoms: N_41  and  C_48
   24  A    between atoms: O_46  and  C_55
                            x       y       z     vdW  Elec       q    Type
                         _______ _______ _______ _____ _____    ______ ____

>  <TORSDO>
F 24

$$$$
=
 OpenBabel11042410083D

 62 65  0  0  1  0  0  0  0  0999 V2000
  188.6290  174.1020  135.4320 C   0  0  0  0  0  0  0  0  0  0  0  0
  189.1190  174.4480  136.5430 O   0  0  0  0  0  0  0  0  0  0  0  0
  187.4630  174.7700  134.9390 N   0  0  0  0  0  2  0  0  0  0  0  0
  183.4760  176.4460  137.3390 N   0  0  0  0  0  2  0  0  0  0  0  0
  184.8740  177.1900  135.5590 N   0  0  0  0  0  0  0  0  0  0  0  0
  186.0810  176.8310  134.8460 C   0  0  0  0  0  2  0  0  0  0  0  0
  184.5800  176.2930  136.4380 C   0  0  0  0  0  0  0  0  0  0  0  0
  186.7170  175.7680  135.7170 C   0  0  1  0  0  3  0  0  0  0  0  0
  185.5630  175.1870  136.5560 C   0  0  2  0  0  3  0  0  0  0  0  0
  184.0230  171.6720  136.1000 C   0  0  0  0  0  1  0  0  0  0  0  0
  184.6750  172.8400  136.7560 C   0  0  0  0  0  0  0  0  0  0  0  0
  184.8930  172.8210  138.0020 O   0  0  0  0  0  0  0  0  0  0  0  0
  185.0090  173.9810  135.9580 N   0  0  0  0  0  2  0  0  0  0  0  0
  182.8900  177.7620  137.5690 C   0  0  0  0  0  2  0  0  0  0  0  0
  181.5030  177.6830  138.2140 C   0  0  1  0  0  3  0  0  0  0  0  0
  181.6010  176.8650  139.4050 N   0  0  0  0  0  0  0  0  0  0  0  0
  181.9480  177.3140  140.5640 C   0  0  0  0  0  3  0  0  0  0  0  0
  182.2630  178.7610  140.8400 C   0  0  0  0  0  2  0  0  0  0  0  0
  187.2850  177.9970  144.3580 C   0  0  0  0  0  3  0  0  0  0  0  0
  185.1870  178.1150  145.6590 C   0  0  0  0  0  2  0  0  0  0  0  0
  183.0530  178.9170  142.0570 N   0  0  0  0  0  0  0  0  0  0  0  0
  184.5080  178.6930  141.9530 C   0  0  0  0  0  2  0  0  0  0  0  0
  183.1150  178.9240  144.4800 C   0  0  0  0  0  3  0  0  0  0  0  0
  186.6790  178.2020  145.5400 C   0  0  0  0  0  3  0  0  0  0  0  0
  184.6080  178.7950  144.4280 C   0  0  2  0  0  3  0  0  0  0  0  0
  185.0120  177.9720  143.1970 C   0  0  2  0  0  3  0  0  0  0  0  0
  186.5030  177.6210  143.1190 C   0  0  0  0  0  2  0  0  0  0  0  0
  182.4070  178.9960  143.3430 C   0  0  0  0  0  3  0  0  0  0  0  0
  181.0190  179.0160  138.5830 N   0  0  0  0  0  2  0  0  0  0  0  0
  181.2970  179.8900  137.4410 C   0  0  0  0  0  2  0  0  0  0  0  0
  180.0080  180.1680  136.7000 C   0  0  0  0  0  2  0  0  0  0  0  0
  180.1460  179.7680  135.2290 C   0  0  0  0  0  1  0  0  0  0  0  0
  189.3600  173.0740  134.5940 C   0  0  2  0  0  3  0  0  0  0  0  0
  187.8900  171.5250  135.8990 C   0  0  0  0  0  1  0  0  0  0  0  0
  188.6790  171.7110  134.6020 C   0  0  0  0  0  2  0  0  0  0  0  0
  190.7870  172.9060  135.0820 C   0  0  0  0  0  2  0  0  0  0  0  0
  192.4900  171.0430  135.0890 C   0  0  0  0  0  0  0  0  0  0  0  0
  191.1400  171.4980  135.1200 N   0  0  0  0  0  2  0  0  0  0  0  0
  192.7190  169.8230  134.8680 O   0  0  0  0  0  0  0  0  0  0  0  0
  195.0770  171.3540  135.7150 S   0  0  0  0  0  0  0  0  0  0  0  0
  193.6080  171.9620  135.3310 C   0  0  0  0  0  0  0  0  0  0  0  0
  193.4230  173.4230  135.3380 C   0  0  0  0  0  3  0  0  0  0  0  0
  193.6230  174.1530  136.4100 C   0  0  0  0  0  0  0  0  0  0  0  0
  193.7990  174.8420  137.4980 C   0  0  0  0  0  0  0  0  0  0  0  0
  192.7140  175.4390  138.1480 O   0  0  0  0  0  0  0  0  0  0  0  0
  192.8660  176.6280  138.8040 O   0  0  0  0  0  0  0  0  0  0  0  0
  191.3740  177.3870  142.0700 C   0  0  0  0  0  0  0  0  0  0  0  0
  192.2810  176.9770  141.0440 N   0  0  0  0  0  0  0  0  0  0  0  0
  191.8060  177.5920  143.2450 O   0  0  0  0  0  0  0  0  0  0  0  0
  189.9210  177.6140  141.7650 C   0  0  0  0  0  2  0  0  0  0  0  0
  190.6150  177.4520  139.3790 C   0  0  0  0  0  3  0  0  0  0  0  0
  191.9460  176.9970  139.7850 C   0  0  0  0  0  0  0  0  0  0  0  0
  189.6830  177.7900  140.2700 C   0  0  0  0  0  0  0  0  0  0  0  0
  188.4640  178.2750  139.7880 O   0  0  0  0  0  0  0  0  0  0  0  0
  186.3920  178.1770  138.6490 C   0  0  0  0  0  1  0  0  0  0  0  0
  187.8800  177.8940  138.5480 C   0  0  1  0  0  3  0  0  0  0  0  0
  188.4930  178.7500  137.4250 C   0  0  0  0  0  3  0  0  0  0  0  0
  189.1760  177.9300  136.5120 O   0  0  0  0  0  1  0  0  0  0  0  0
  187.4760  179.4550  136.7740 O   0  0  0  0  0  1  0  0  0  0  0  0
  195.1680  174.9790  138.0970 C   0  0  0  0  0  2  0  0  0  0  0  0
  196.0950  174.3270  137.2730 O   0  0  0  0  0  0  0  0  0  0  0  0
  196.8530  175.3000  136.7760 O   0  0  0  0  0  1  0  0  0  0  0  0
  1  2  2  0  0  0  0
  3  1  1  0  0  0  0
  4 14  1  0  0  0  0
  5  7  2  0  0  0  0
  6  5  1  0  0  0  0
  6  8  1  0  0  0  0
  7  9  1  0  0  0  0
  7  4  1  0  0  0  0
  8  3  1  6  0  0  0
  8  9  1  0  0  0  0
  9 13  1  6  0  0  0
 10 11  1  0  0  0  0
 11 12  2  0  0  0  0
 13 11  1  0  0  0  0
 15 14  1  1  0  0  0
 15 29  1  0  0  0  0
 15 16  1  0  0  0  0
 16 17  2  0  0  0  0
 17 18  1  0  0  0  0
 18 21  1  0  0  0  0
 19 24  2  0  0  0  0
 21 28  1  0  0  0  0
 22 21  1  0  0  0  0
 24 20  1  0  0  0  0
 25 23  1  1  0  0  0
 25 20  1  0  0  0  0
 26 22  1  6  0  0  0
 26 25  1  0  0  0  0
 27 26  1  0  0  0  0
 27 19  1  0  0  0  0
 28 23  2  0  0  0  0
 30 29  1  0  0  0  0
 31 30  1  0  0  0  0
 32 31  1  0  0  0  0
 33 35  1  1  0  0  0
 33 36  1  0  0  0  0
 33  1  1  0  0  0  0
 35 34  1  0  0  0  0
 36 38  1  0  0  0  0
 37 38  1  0  0  0  0
 37 41  1  0  0  0  0
 39 37  2  0  0  0  0
 41 42  1  0  0  0  0
 41 40  2  0  0  0  0
 42 43  2  0  0  0  0
 43 44  2  0  0  0  0
 44 60  1  0  0  0  0
 44 45  1  0  0  0  0
 45 46  1  0  0  0  0
 46 52  1  0  0  0  0
 47 49  2  0  0  0  0
 48 47  1  0  0  0  0
 50 47  1  0  0  0  0
 51 52  1  0  0  0  0
 51 53  2  0  0  0  0
 52 48  2  0  0  0  0
 53 50  1  0  0  0  0
 54 53  1  0  0  0  0
 56 55  1  1  0  0  0
 56 54  1  0  0  0  0
 57 56  1  0  0  0  0
 58 57  1  0  0  0  0
 59 57  1  0  0  0  0
 61 60  1  0  0  0  0
 62 61  1  0  0  0  0
M  END
>  <MODEL>
3

>  <REMARK>
 VINA RESULT:      -5.6      4.219     11.514
  Name = 
  24 active torsions:
  status: ('A' for Active; 'I' for Inactive)
    1  A    between atoms: C_1  and  C_9
    2  A    between atoms: C_1  and  N_35
    3  A    between atoms: C_1  and  N_61
    4  A    between atoms: C_4  and  O_34
    5  A    between atoms: C_4  and  C_58
    6  A    between atoms: N_5  and  C_9
    7  A    between atoms: C_6  and  C_10
    8  A    between atoms: C_6  and  C_27
    9  A    between atoms: C_6  and  C_59
   10  A    between atoms: C_8  and  C_24
   11  A    between atoms: C_10  and  N_45
   12  A    between atoms: C_14  and  C_39
   13  A    between atoms: O_15  and  O_46
   14  A    between atoms: O_15  and  C_58
   15  A    between atoms: C_18  and  C_52
   16  A    between atoms: O_21  and  C_52
   17  A    between atoms: O_21  and  C_56
   18  A    between atoms: C_24  and  N_35
   19  A    between atoms: C_25  and  N_40
   20  A    between atoms: N_26  and  C_33
   21  A    between atoms: C_30  and  C_39
   22  A    between atoms: C_33  and  C_62
   23  A    between atoms: N_41  and  C_48
   24  A    between atoms: O_46  and  C_55
                            x       y       z     vdW  Elec       q    Type
                         _______ _______ _______ _____ _____    ______ ____

>  <TORSDO>
F 24

$$$$
=
 OpenBabel11042410083D

 62 65  0  0  1  0  0  0  0  0999 V2000
  190.2840  176.7920  143.2790 C   0  0  0  0  0  0  0  0  0  0  0  0
  190.1840  175.5730  142.9630 O   0  0  0  0  0  0  0  0  0  0  0  0
  189.6180  177.7810  142.4860 N   0  0  0  0  0  2  0  0  0  0  0  0
  189.3610  177.1230  137.5910 N   0  0  0  0  0  2  0  0  0  0  0  0
  188.2570  178.4590  139.2270 N   0  0  0  0  0  0  0  0  0  0  0  0
  188.1960  178.6720  140.6560 C   0  0  0  0  0  2  0  0  0  0  0  0
  189.1550  177.5790  138.9340 C   0  0  0  0  0  0  0  0  0  0  0  0
  188.9160  177.4710  141.2350 C   0  0  1  0  0  3  0  0  0  0  0  0
  189.8280  176.9610  140.1030 C   0  0  2  0  0  3  0  0  0  0  0  0
  193.6230  177.5020  139.6200 C   0  0  0  0  0  1  0  0  0  0  0  0
  192.2800  176.8620  139.5420 C   0  0  0  0  0  0  0  0  0  0  0  0
  192.1230  175.8070  138.8630 O   0  0  0  0  0  0  0  0  0  0  0  0
  191.1810  177.4850  140.2170 N   0  0  0  0  0  2  0  0  0  0  0  0
  188.3320  177.3270  136.5770 C   0  0  0  0  0  2  0  0  0  0  0  0
  187.5030  176.0650  136.3200 C   0  0  1  0  0  3  0  0  0  0  0  0
  186.3090  176.4460  135.5940 N   0  0  0  0  0  0  0  0  0  0  0  0
  185.1490  175.9130  135.7800 C   0  0  0  0  0  3  0  0  0  0  0  0
  184.8750  174.8430  136.8040 C   0  0  0  0  0  2  0  0  0  0  0  0
  178.9310  173.4390  137.7410 C   0  0  0  0  0  3  0  0  0  0  0  0
  180.2500  171.5560  136.8350 C   0  0  0  0  0  2  0  0  0  0  0  0
  183.6300  174.1340  136.5230 N   0  0  0  0  0  0  0  0  0  0  0  0
  182.3880  174.7030  137.0820 C   0  0  0  0  0  2  0  0  0  0  0  0
  182.5390  172.0580  135.9150 C   0  0  0  0  0  3  0  0  0  0  0  0
  178.9510  172.2510  137.1130 C   0  0  0  0  0  3  0  0  0  0  0  0
  181.2310  172.6250  136.3800 C   0  0  2  0  0  3  0  0  0  0  0  0
  181.4730  173.5810  137.5560 C   0  0  2  0  0  3  0  0  0  0  0  0
  180.1990  174.0980  138.2370 C   0  0  0  0  0  2  0  0  0  0  0  0
  183.6540  172.8000  135.9790 C   0  0  0  0  0  3  0  0  0  0  0  0
  188.2590  175.0930  135.5270 N   0  0  0  0  0  2  0  0  0  0  0  0
  188.3380  173.8720  136.3330 C   0  0  0  0  0  2  0  0  0  0  0  0
  189.7900  173.5430  136.6000 C   0  0  0  0  0  2  0  0  0  0  0  0
  190.6960  174.3530  135.6700 C   0  0  0  0  0  1  0  0  0  0  0  0
  191.0020  177.1630  144.5600 C   0  0  2  0  0  3  0  0  0  0  0  0
  192.1080  174.9270  144.3670 C   0  0  0  0  0  1  0  0  0  0  0  0
  191.5020  175.9480  145.3310 C   0  0  0  0  0  2  0  0  0  0  0  0
  190.0920  177.9720  145.4660 C   0  0  0  0  0  2  0  0  0  0  0  0
  188.3030  177.1140  147.0260 C   0  0  0  0  0  0  0  0  0  0  0  0
  189.6590  177.1630  146.5910 N   0  0  0  0  0  2  0  0  0  0  0  0
  188.0380  176.6030  148.1480 O   0  0  0  0  0  0  0  0  0  0  0  0
  186.1670  178.7170  146.8010 S   0  0  0  0  0  0  0  0  0  0  0  0
  187.2150  177.6250  146.1840 C   0  0  0  0  0  0  0  0  0  0  0  0
  186.9780  177.1050  144.8260 C   0  0  0  0  0  3  0  0  0  0  0  0
  186.1800  177.7030  143.9720 C   0  0  0  0  0  0  0  0  0  0  0  0
  185.3590  178.3030  143.1640 C   0  0  0  0  0  0  0  0  0  0  0  0
  184.1440  177.7090  142.8090 O   0  0  0  0  0  0  0  0  0  0  0  0
  183.6320  177.8700  141.5530 O   0  0  0  0  0  0  0  0  0  0  0  0
  180.4670  179.5990  142.2340 C   0  0  0  0  0  0  0  0  0  0  0  0
  181.7630  179.0120  142.3800 N   0  0  0  0  0  0  0  0  0  0  0  0
  180.0350  180.3940  143.1230 O   0  0  0  0  0  0  0  0  0  0  0  0
  179.6260  179.3140  141.0230 C   0  0  0  0  0  2  0  0  0  0  0  0
  181.6970  178.2970  140.0860 C   0  0  0  0  0  3  0  0  0  0  0  0
  182.3520  178.3980  141.3920 C   0  0  0  0  0  0  0  0  0  0  0  0
  180.4630  178.7560  139.8780 C   0  0  0  0  0  0  0  0  0  0  0  0
  179.9450  178.6740  138.5830 O   0  0  0  0  0  0  0  0  0  0  0  0
  181.6960  180.0000  137.7020 C   0  0  0  0  0  1  0  0  0  0  0  0
  180.2420  179.5930  137.5380 C   0  0  1  0  0  3  0  0  0  0  0  0
  180.0530  178.8860  136.1840 C   0  0  0  0  0  3  0  0  0  0  0  0
  181.0710  179.2710  135.2940 O   0  0  0  0  0  1  0  0  0  0  0  0
  180.0790  177.5020  136.3770 O   0  0  0  0  0  1  0  0  0  0  0  0
  185.6850  179.6650  142.6220 C   0  0  0  0  0  2  0  0  0  0  0  0
  184.7570  180.5880  143.1210 O   0  0  0  0  0  0  0  0  0  0  0  0
  184.2690  180.0220  144.2210 O   0  0  0  0  0  1  0  0  0  0  0  0
  1 33  1  0  0  0  0
  2  1  2  0  0  0  0
  3  1  1  0  0  0  0
  4  7  1  0  0  0  0
  5  6  1  0  0  0  0
  6  8  1  0  0  0  0
  7  5  2  0  0  0  0
  7  9  1  0  0  0  0
  8  3  1  1  0  0  0
  9 13  1  1  0  0  0
  9  8  1  0  0  0  0
 11 10  1  0  0  0  0
 11 13  1  0  0  0  0
 12 11  2  0  0  0  0
 14  4  1  0  0  0  0
 15 14  1  6  0  0  0
 16 17  2  0  0  0  0
 16 15  1  0  0  0  0
 17 18  1  0  0  0  0
 19 27  1  0  0  0  0
 20 24  1  0  0  0  0
 21 18  1  0  0  0  0
 21 22  1  0  0  0  0
 23 28  2  0  0  0  0
 24 19  2  0  0  0  0
 25 23  1  1  0  0  0
 25 20  1  0  0  0  0
 25 26  1  0  0  0  0
 26 22  1  6  0  0  0
 26 27  1  0  0  0  0
 28 21  1  0  0  0  0
 29 15  1  0  0  0  0
 29 30  1  0  0  0  0
 30 31  1  0  0  0  0
 32 31  1  0  0  0  0
 33 35  1  1  0  0  0
 33 36  1  0  0  0  0
 34 35  1  0  0  0  0
 36 38  1  0  0  0  0
 37 39  2  0  0  0  0
 38 37  1  0  0  0  0
 41 40  2  0  0  0  0
 41 37  1  0  0  0  0
 42 41  1  0  0  0  0
 43 42  2  0  0  0  0
 44 43  2  0  0  0  0
 45 44  1  0  0  0  0
 46 45  1  0  0  0  0
 47 48  1  0  0  0  0
 47 49  2  0  0  0  0
 50 47  1  0  0  0  0
 51 52  1  0  0  0  0
 52 46  1  0  0  0  0
 52 48  2  0  0  0  0
 53 51  2  0  0  0  0
 53 50  1  0  0  0  0
 54 53  1  0  0  0  0
 56 55  1  1  0  0  0
 56 54  1  0  0  0  0
 57 59  1  0  0  0  0
 57 56  1  0  0  0  0
 58 57  1  0  0  0  0
 60 61  1  0  0  0  0
 60 44  1  0  0  0  0
 61 62  1  0  0  0  0
M  END
>  <MODEL>
4

>  <REMARK>
 VINA RESULT:      -5.0      2.894      8.969
  Name = 
  24 active torsions:
  status: ('A' for Active; 'I' for Inactive)
    1  A    between atoms: C_1  and  C_9
    2  A    between atoms: C_1  and  N_35
    3  A    between atoms: C_1  and  N_61
    4  A    between atoms: C_4  and  O_34
    5  A    between atoms: C_4  and  C_58
    6  A    between atoms: N_5  and  C_9
    7  A    between atoms: C_6  and  C_10
    8  A    between atoms: C_6  and  C_27
    9  A    between atoms: C_6  and  C_59
   10  A    between atoms: C_8  and  C_24
   11  A    between atoms: C_10  and  N_45
   12  A    between atoms: C_14  and  C_39
   13  A    between atoms: O_15  and  O_46
   14  A    between atoms: O_15  and  C_58
   15  A    between atoms: C_18  and  C_52
   16  A    between atoms: O_21  and  C_52
   17  A    between atoms: O_21  and  C_56
   18  A    between atoms: C_24  and  N_35
   19  A    between atoms: C_25  and  N_40
   20  A    between atoms: N_26  and  C_33
   21  A    between atoms: C_30  and  C_39
   22  A    between atoms: C_33  and  C_62
   23  A    between atoms: N_41  and  C_48
   24  A    between atoms: O_46  and  C_55
                            x       y       z     vdW  Elec       q    Type
                         _______ _______ _______ _____ _____    ______ ____

>  <TORSDO>
F 24

$$$$
=
 OpenBabel11042410083D

 62 65  0  0  1  0  0  0  0  0999 V2000
  184.4240  178.2920  140.9290 C   0  0  0  0  0  0  0  0  0  0  0  0
  183.7280  177.7480  141.8320 O   0  0  0  0  0  0  0  0  0  0  0  0
  183.9350  178.3170  139.5840 N   0  0  0  0  0  2  0  0  0  0  0  0
  181.0120  176.1150  136.2570 N   0  0  0  0  0  2  0  0  0  0  0  0
  180.8380  177.9250  137.7970 N   0  0  0  0  0  0  0  0  0  0  0  0
  181.5800  178.5900  138.8460 C   0  0  0  0  0  2  0  0  0  0  0  0
  181.5430  176.9840  137.2650 C   0  0  0  0  0  0  0  0  0  0  0  0
  182.7090  177.6300  139.1590 C   0  0  1  0  0  3  0  0  0  0  0  0
  182.8700  176.7670  137.8930 C   0  0  2  0  0  3  0  0  0  0  0  0
  185.2400  177.2520  134.8800 C   0  0  0  0  0  1  0  0  0  0  0  0
  184.2330  176.6270  135.7800 C   0  0  0  0  0  0  0  0  0  0  0  0
  183.6560  175.5560  135.4330 O   0  0  0  0  0  0  0  0  0  0  0  0
  183.9120  177.2790  137.0140 N   0  0  0  0  0  2  0  0  0  0  0  0
  179.5700  175.9960  136.0720 C   0  0  0  0  0  2  0  0  0  0  0  0
  179.0070  174.7000  136.6630 C   0  0  1  0  0  3  0  0  0  0  0  0
  179.1990  173.6380  135.6970 N   0  0  0  0  0  0  0  0  0  0  0  0
  180.1310  172.7490  135.7760 C   0  0  0  0  0  3  0  0  0  0  0  0
  181.1240  172.6760  136.9060 C   0  0  0  0  0  2  0  0  0  0  0  0
  187.2880  172.2450  136.9010 C   0  0  0  0  0  3  0  0  0  0  0  0
  186.2690  171.7240  134.7110 C   0  0  0  0  0  2  0  0  0  0  0  0
  182.4050  172.1330  136.4640 N   0  0  0  0  0  0  0  0  0  0  0  0
  183.5760  172.3720  137.3310 C   0  0  0  0  0  2  0  0  0  0  0  0
  183.7800  171.3470  134.6310 C   0  0  0  0  0  3  0  0  0  0  0  0
  187.4030  171.6730  135.6900 C   0  0  0  0  0  3  0  0  0  0  0  0
  184.9930  171.4790  135.5030 C   0  0  2  0  0  3  0  0  0  0  0  0
  184.8040  172.6520  136.4740 C   0  0  2  0  0  3  0  0  0  0  0  0
  186.0440  173.0030  137.3080 C   0  0  0  0  0  2  0  0  0  0  0  0
  182.5680  171.6480  135.1170 C   0  0  0  0  0  3  0  0  0  0  0  0
  179.6950  174.3490  137.9080 N   0  0  0  0  0  2  0  0  0  0  0  0
  178.9320  174.9700  138.9940 C   0  0  0  0  0  2  0  0  0  0  0  0
  179.7450  174.9210  140.2670 C   0  0  0  0  0  2  0  0  0  0  0  0
  179.4200  173.6500  141.0550 C   0  0  0  0  0  1  0  0  0  0  0  0
  185.6990  179.0110  141.3170 C   0  0  2  0  0  3  0  0  0  0  0  0
  188.1830  179.1660  141.0660 C   0  0  0  0  0  1  0  0  0  0  0  0
  186.8960  178.5890  140.4750 C   0  0  0  0  0  2  0  0  0  0  0  0
  186.0240  178.7670  142.7790 C   0  0  0  0  0  2  0  0  0  0  0  0
  184.7850  178.8650  144.9760 C   0  0  0  0  0  0  0  0  0  0  0  0
  184.9530  179.2700  143.6210 N   0  0  0  0  0  2  0  0  0  0  0  0
  183.7040  179.1350  145.5660 O   0  0  0  0  0  0  0  0  0  0  0  0
  186.2140  178.6080  147.2290 S   0  0  0  0  0  0  0  0  0  0  0  0
  185.8530  178.1620  145.6980 C   0  0  0  0  0  0  0  0  0  0  0  0
  186.6800  177.1320  145.0470 C   0  0  0  0  0  3  0  0  0  0  0  0
  187.9880  177.2170  144.9790 C   0  0  0  0  0  0  0  0  0  0  0  0
  189.2770  177.3500  144.9010 C   0  0  0  0  0  0  0  0  0  0  0  0
  189.8990  177.5800  143.6690 O   0  0  0  0  0  0  0  0  0  0  0  0
  190.7890  176.6770  143.1600 O   0  0  0  0  0  0  0  0  0  0  0  0
  192.9750  177.1440  140.2490 C   0  0  0  0  0  0  0  0  0  0  0  0
  192.4860  177.0430  141.5890 N   0  0  0  0  0  0  0  0  0  0  0  0
  194.2250  177.1230  140.0350 O   0  0  0  0  0  0  0  0  0  0  0  0
  192.0250  177.2380  139.0900 C   0  0  0  0  0  2  0  0  0  0  0  0
  190.2710  176.6330  140.7510 C   0  0  0  0  0  3  0  0  0  0  0  0
  191.2290  176.8080  141.8440 C   0  0  0  0  0  0  0  0  0  0  0  0
  190.6250  176.7760  139.4730 C   0  0  0  0  0  0  0  0  0  0  0  0
  189.6580  176.5250  138.4960 O   0  0  0  0  0  0  0  0  0  0  0  0
  190.0870  174.4390  137.4630 C   0  0  0  0  0  1  0  0  0  0  0  0
  189.9280  175.9310  137.2310 C   0  0  1  0  0  3  0  0  0  0  0  0
  188.7300  176.1830  136.2970 C   0  0  0  0  0  3  0  0  0  0  0  0
  187.5320  176.1480  137.0300 O   0  0  0  0  0  1  0  0  0  0  0  0
  188.8820  177.4270  135.6770 O   0  0  0  0  0  1  0  0  0  0  0  0
  190.1230  177.2940  146.1400 C   0  0  0  0  0  2  0  0  0  0  0  0
  191.3830  177.8390  145.8570 O   0  0  0  0  0  0  0  0  0  0  0  0
  192.2460  176.8660  146.1370 O   0  0  0  0  0  1  0  0  0  0  0  0
  1 33  1  0  0  0  0
  1  2  2  0  0  0  0
  3  1  1  0  0  0  0
  4  7  1  0  0  0  0
  5  6  1  0  0  0  0
  6  8  1  0  0  0  0
  7  5  2  0  0  0  0
  7  9  1  0  0  0  0
  8  3  1  6  0  0  0
  9 13  1  6  0  0  0
  9  8  1  0  0  0  0
 10 11  1  0  0  0  0
 11 13  1  0  0  0  0
 12 11  2  0  0  0  0
 14  4  1  0  0  0  0
 15 14  1  6  0  0  0
 15 29  1  0  0  0  0
 16 17  2  0  0  0  0
 16 15  1  0  0  0  0
 17 18  1  0  0  0  0
 19 27  1  0  0  0  0
 20 25  1  0  0  0  0
 20 24  1  0  0  0  0
 21 18  1  0  0  0  0
 21 22  1  0  0  0  0
 23 28  2  0  0  0  0
 24 19  2  0  0  0  0
 25 23  1  6  0  0  0
 25 26  1  0  0  0  0
 26 27  1  1  0  0  0
 26 22  1  0  0  0  0
 28 21  1  0  0  0  0
 29 30  1  0  0  0  0
 30 31  1  0  0  0  0
 31 32  1  0  0  0  0
 33 35  1  6  0  0  0
 33 36  1  0  0  0  0
 35 34  1  0  0  0  0
 36 38  1  0  0  0  0
 37 39  2  0  0  0  0
 37 41  1  0  0  0  0
 38 37  1  0  0  0  0
 41 40  2  0  0  0  0
 42 41  1  0  0  0  0
 43 42  2  0  0  0  0
 44 43  2  0  0  0  0
 44 60  1  0  0  0  0
 45 44  1  0  0  0  0
 46 45  1  0  0  0  0
 47 48  1  0  0  0  0
 48 52  2  0  0  0  0
 49 47  2  0  0  0  0
 50 53  1  0  0  0  0
 50 47  1  0  0  0  0
 51 52  1  0  0  0  0
 52 46  1  0  0  0  0
 53 51  2  0  0  0  0
 54 53  1  0  0  0  0
 56 55  1  1  0  0  0
 56 54  1  0  0  0  0
 57 58  1  0  0  0  0
 57 56  1  0  0  0  0
 59 57  1  0  0  0  0
 61 62  1  0  0  0  0
 61 60  1  0  0  0  0
M  END
>  <MODEL>
5

>  <REMARK>
 VINA RESULT:      -5.0      3.388      9.412
  Name = 
  24 active torsions:
  status: ('A' for Active; 'I' for Inactive)
    1  A    between atoms: C_1  and  C_9
    2  A    between atoms: C_1  and  N_35
    3  A    between atoms: C_1  and  N_61
    4  A    between atoms: C_4  and  O_34
    5  A    between atoms: C_4  and  C_58
    6  A    between atoms: N_5  and  C_9
    7  A    between atoms: C_6  and  C_10
    8  A    between atoms: C_6  and  C_27
    9  A    between atoms: C_6  and  C_59
   10  A    between atoms: C_8  and  C_24
   11  A    between atoms: C_10  and  N_45
   12  A    between atoms: C_14  and  C_39
   13  A    between atoms: O_15  and  O_46
   14  A    between atoms: O_15  and  C_58
   15  A    between atoms: C_18  and  C_52
   16  A    between atoms: O_21  and  C_52
   17  A    between atoms: O_21  and  C_56
   18  A    between atoms: C_24  and  N_35
   19  A    between atoms: C_25  and  N_40
   20  A    between atoms: N_26  and  C_33
   21  A    between atoms: C_30  and  C_39
   22  A    between atoms: C_33  and  C_62
   23  A    between atoms: N_41  and  C_48
   24  A    between atoms: O_46  and  C_55
                            x       y       z     vdW  Elec       q    Type
                         _______ _______ _______ _____ _____    ______ ____

>  <TORSDO>
F 24

$$$$
=
 OpenBabel11042410083D

 62 65  0  0  1  0  0  0  0  0999 V2000
  186.3620  178.0920  139.4170 C   0  0  0  0  0  0  0  0  0  0  0  0
  186.0500  177.9230  138.2040 O   0  0  0  0  0  0  0  0  0  0  0  0
  187.6870  177.7740  139.8520 N   0  0  0  0  0  2  0  0  0  0  0  0
  192.2820  176.3730  138.6740 N   0  0  0  0  0  2  0  0  0  0  0  0
  190.5410  177.6500  137.6660 N   0  0  0  0  0  0  0  0  0  0  0  0
  189.1660  178.0490  137.8770 C   0  0  0  0  0  2  0  0  0  0  0  0
  190.9750  176.9610  138.6670 C   0  0  0  0  0  0  0  0  0  0  0  0
  188.6880  177.1370  138.9880 C   0  0  1  0  0  3  0  0  0  0  0  0
  189.9660  176.6850  139.7200 C   0  0  2  0  0  3  0  0  0  0  0  0
  190.7890  177.8170  143.3220 C   0  0  0  0  0  1  0  0  0  0  0  0
  190.4100  176.9320  142.1860 C   0  0  0  0  0  0  0  0  0  0  0  0
  190.2720  175.6890  142.3750 O   0  0  0  0  0  0  0  0  0  0  0  0
  190.2450  177.5100  140.8860 N   0  0  0  0  0  2  0  0  0  0  0  0
  193.0150  176.1920  137.4260 C   0  0  0  0  0  2  0  0  0  0  0  0
  192.9160  174.7610  136.8880 C   0  0  1  0  0  3  0  0  0  0  0  0
  192.7830  174.8250  135.4480 N   0  0  0  0  0  0  0  0  0  0  0  0
  191.6530  174.8960  134.8280 C   0  0  0  0  0  3  0  0  0  0  0  0
  190.3200  174.9560  135.5260 C   0  0  0  0  0  2  0  0  0  0  0  0
  185.0590  171.7150  135.5350 C   0  0  0  0  0  3  0  0  0  0  0  0
  187.0770  170.3060  135.3070 C   0  0  0  0  0  2  0  0  0  0  0  0
  189.4660  173.8330  135.1540 N   0  0  0  0  0  0  0  0  0  0  0  0
  188.0100  174.0020  135.3300 C   0  0  0  0  0  2  0  0  0  0  0  0
  189.2560  171.4490  134.7740 C   0  0  0  0  0  3  0  0  0  0  0  0
  185.6010  170.5380  135.1770 C   0  0  0  0  0  3  0  0  0  0  0  0
  187.7640  171.5830  134.8480 C   0  0  2  0  0  3  0  0  0  0  0  0
  187.3950  172.7010  135.8310 C   0  0  2  0  0  3  0  0  0  0  0  0
  185.8950  172.8280  136.1280 C   0  0  0  0  0  2  0  0  0  0  0  0
  190.0350  172.5320  134.9060 C   0  0  0  0  0  3  0  0  0  0  0  0
  194.1130  173.9890  137.2280 N   0  0  0  0  0  2  0  0  0  0  0  0
  194.9710  174.8780  138.0150 C   0  0  0  0  0  2  0  0  0  0  0  0
  196.0220  174.0560  138.7280 C   0  0  0  0  0  2  0  0  0  0  0  0
  196.6550  174.8700  139.8580 C   0  0  0  0  0  1  0  0  0  0  0  0
  185.3620  178.7430  140.3490 C   0  0  2  0  0  3  0  0  0  0  0  0
  183.7150  179.6420  138.6940 C   0  0  0  0  0  1  0  0  0  0  0  0
  184.7430  180.0070  139.7650 C   0  0  0  0  0  2  0  0  0  0  0  0
  186.0160  179.0900  141.6740 C   0  0  0  0  0  2  0  0  0  0  0  0
  185.9950  177.8300  143.8600 C   0  0  0  0  0  0  0  0  0  0  0  0
  186.2300  177.8860  142.4570 N   0  0  0  0  0  2  0  0  0  0  0  0
  186.4370  176.8480  144.5160 O   0  0  0  0  0  0  0  0  0  0  0  0
  185.4130  179.0800  146.1590 S   0  0  0  0  0  0  0  0  0  0  0  0
  185.2310  178.8780  144.5470 C   0  0  0  0  0  0  0  0  0  0  0  0
  184.2250  179.6910  143.8410 C   0  0  0  0  0  3  0  0  0  0  0  0
  183.0770  179.1990  143.4380 C   0  0  0  0  0  0  0  0  0  0  0  0
  181.9650  178.6700  143.0260 C   0  0  0  0  0  0  0  0  0  0  0  0
  181.7170  178.5040  141.6590 O   0  0  0  0  0  0  0  0  0  0  0  0
  180.9430  179.4020  140.9790 O   0  0  0  0  0  0  0  0  0  0  0  0
  179.4960  179.7270  137.6210 C   0  0  0  0  0  0  0  0  0  0  0  0
  179.9380  180.0060  138.9530 N   0  0  0  0  0  0  0  0  0  0  0  0
  179.2010  180.6850  136.8450 O   0  0  0  0  0  0  0  0  0  0  0  0
  179.4140  178.3140  137.1210 C   0  0  0  0  0  2  0  0  0  0  0  0
  180.6770  177.7310  139.1860 C   0  0  0  0  0  3  0  0  0  0  0  0
  180.4880  179.0900  139.6990 C   0  0  0  0  0  0  0  0  0  0  0  0
  180.2370  177.3640  137.9820 C   0  0  0  0  0  0  0  0  0  0  0  0
  180.5210  176.0650  137.5510 O   0  0  0  0  0  0  0  0  0  0  0  0
  180.3520  173.8050  138.2310 C   0  0  0  0  0  1  0  0  0  0  0  0
  181.1710  175.0790  138.3450 C   0  0  1  0  0  3  0  0  0  0  0  0
  182.5830  174.8370  137.7820 C   0  0  0  0  0  3  0  0  0  0  0  0
  182.5060  174.4900  136.4220 O   0  0  0  0  0  1  0  0  0  0  0  0
  183.3490  175.9950  137.9430 O   0  0  0  0  0  1  0  0  0  0  0  0
  180.9380  178.1940  144.0110 C   0  0  0  0  0  2  0  0  0  0  0  0
  180.0250  179.2290  144.2560 O   0  0  0  0  0  0  0  0  0  0  0  0
  178.9350  178.6210  144.7130 O   0  0  0  0  0  1  0  0  0  0  0  0
  1  3  1  0  0  0  0
  1 33  1  0  0  0  0
  2  1  2  0  0  0  0
  5  6  1  0  0  0  0
  5  7  2  0  0  0  0
  6  8  1  0  0  0  0
  7  4  1  0  0  0  0
  7  9  1  0  0  0  0
  8  9  1  0  0  0  0
  8  3  1  1  0  0  0
  9 13  1  1  0  0  0
 11 12  2  0  0  0  0
 11 10  1  0  0  0  0
 13 11  1  0  0  0  0
 14  4  1  0  0  0  0
 15 29  1  0  0  0  0
 15 14  1  6  0  0  0
 16 15  1  0  0  0  0
 17 16  2  0  0  0  0
 17 18  1  0  0  0  0
 19 27  1  0  0  0  0
 21 22  1  0  0  0  0
 21 18  1  0  0  0  0
 23 28  2  0  0  0  0
 24 20  1  0  0  0  0
 24 19  2  0  0  0  0
 25 23  1  1  0  0  0
 25 20  1  0  0  0  0
 25 26  1  0  0  0  0
 26 22  1  6  0  0  0
 26 27  1  0  0  0  0
 28 21  1  0  0  0  0
 29 30  1  0  0  0  0
 30 31  1  0  0  0  0
 31 32  1  0  0  0  0
 33 35  1  6  0  0  0
 33 36  1  0  0  0  0
 34 35  1  0  0  0  0
 36 38  1  0  0  0  0
 37 39  2  0  0  0  0
 37 41  1  0  0  0  0
 38 37  1  0  0  0  0
 41 40  2  0  0  0  0
 42 41  1  0  0  0  0
 43 42  2  0  0  0  0
 44 43  2  0  0  0  0
 44 60  1  0  0  0  0
 45 44  1  0  0  0  0
 46 45  1  0  0  0  0
 47 48  1  0  0  0  0
 48 52  2  0  0  0  0
 49 47  2  0  0  0  0
 50 47  1  0  0  0  0
 50 53  1  0  0  0  0
 51 52  1  0  0  0  0
 52 46  1  0  0  0  0
 53 51  2  0  0  0  0
 54 53  1  0  0  0  0
 54 56  1  0  0  0  0
 56 55  1  6  0  0  0
 57 59  1  0  0  0  0
 57 56  1  0  0  0  0
 58 57  1  0  0  0  0
 60 61  1  0  0  0  0
 61 62  1  0  0  0  0
M  END
>  <MODEL>
6

>  <REMARK>
 VINA RESULT:      -4.7      3.043      7.038
  Name = 
  24 active torsions:
  status: ('A' for Active; 'I' for Inactive)
    1  A    between atoms: C_1  and  C_9
    2  A    between atoms: C_1  and  N_35
    3  A    between atoms: C_1  and  N_61
    4  A    between atoms: C_4  and  O_34
    5  A    between atoms: C_4  and  C_58
    6  A    between atoms: N_5  and  C_9
    7  A    between atoms: C_6  and  C_10
    8  A    between atoms: C_6  and  C_27
    9  A    between atoms: C_6  and  C_59
   10  A    between atoms: C_8  and  C_24
   11  A    between atoms: C_10  and  N_45
   12  A    between atoms: C_14  and  C_39
   13  A    between atoms: O_15  and  O_46
   14  A    between atoms: O_15  and  C_58
   15  A    between atoms: C_18  and  C_52
   16  A    between atoms: O_21  and  C_52
   17  A    between atoms: O_21  and  C_56
   18  A    between atoms: C_24  and  N_35
   19  A    between atoms: C_25  and  N_40
   20  A    between atoms: N_26  and  C_33
   21  A    between atoms: C_30  and  C_39
   22  A    between atoms: C_33  and  C_62
   23  A    between atoms: N_41  and  C_48
   24  A    between atoms: O_46  and  C_55
                            x       y       z     vdW  Elec       q    Type
                         _______ _______ _______ _____ _____    ______ ____

>  <TORSDO>
F 24

$$$$
=
 OpenBabel11042410083D

 62 65  0  0  1  0  0  0  0  0999 V2000
  189.3280  176.7260  136.5050 C   0  0  0  0  0  0  0  0  0  0  0  0
  188.9720  177.6810  135.7590 O   0  0  0  0  0  0  0  0  0  0  0  0
  188.3340  175.8540  137.0530 N   0  0  0  0  0  2  0  0  0  0  0  0
  183.8160  174.6900  135.4120 N   0  0  0  0  0  2  0  0  0  0  0  0
  185.2900  176.5570  135.2700 N   0  0  0  0  0  0  0  0  0  0  0  0
  186.5670  177.0270  135.7620 C   0  0  0  0  0  2  0  0  0  0  0  0
  185.0530  175.3600  135.6880 C   0  0  0  0  0  0  0  0  0  0  0  0
  186.8910  176.0790  136.8990 C   0  0  1  0  0  3  0  0  0  0  0  0
  186.0760  174.8040  136.6080 C   0  0  2  0  0  3  0  0  0  0  0  0
  187.4850  171.4250  135.3730 C   0  0  0  0  0  1  0  0  0  0  0  0
  186.7190  172.4060  136.1910 C   0  0  0  0  0  0  0  0  0  0  0  0
  185.9340  171.9970  137.0950 O   0  0  0  0  0  0  0  0  0  0  0  0
  186.8650  173.8020  135.9070 N   0  0  0  0  0  2  0  0  0  0  0  0
  182.6420  175.4520  135.0000 C   0  0  0  0  0  2  0  0  0  0  0  0
  181.5550  175.4870  136.0790 C   0  0  1  0  0  3  0  0  0  0  0  0
  180.4660  176.3120  135.5990 N   0  0  0  0  0  0  0  0  0  0  0  0
  180.3760  177.5830  135.8050 C   0  0  0  0  0  3  0  0  0  0  0  0
  181.4150  178.3850  136.5440 C   0  0  0  0  0  2  0  0  0  0  0  0
  180.1820  184.3130  137.7760 C   0  0  0  0  0  3  0  0  0  0  0  0
  179.8360  183.7140  135.4040 C   0  0  0  0  0  2  0  0  0  0  0  0
  181.3280  179.8060  136.2210 N   0  0  0  0  0  0  0  0  0  0  0  0
  181.2390  180.7520  137.3500 C   0  0  0  0  0  2  0  0  0  0  0  0
  180.7570  181.5130  134.5990 C   0  0  0  0  0  3  0  0  0  0  0  0
  180.0540  184.7140  136.4990 C   0  0  0  0  0  3  0  0  0  0  0  0
  180.7490  182.5340  135.6980 C   0  0  2  0  0  3  0  0  0  0  0  0
  180.2780  181.8820  137.0040 C   0  0  2  0  0  3  0  0  0  0  0  0
  180.0610  182.8570  138.1680 C   0  0  0  0  0  2  0  0  0  0  0  0
  181.0500  180.2340  134.8740 C   0  0  0  0  0  3  0  0  0  0  0  0
  181.0520  174.1410  136.3610 N   0  0  0  0  0  2  0  0  0  0  0  0
  179.8210  174.3110  137.1360 C   0  0  0  0  0  2  0  0  0  0  0  0
  179.3250  172.9570  137.5910 C   0  0  0  0  0  2  0  0  0  0  0  0
  179.8430  171.8620  136.6550 C   0  0  0  0  0  1  0  0  0  0  0  0
  190.8050  176.4560  136.6990 C   0  0  2  0  0  3  0  0  0  0  0  0
  190.3760  174.3220  135.4650 C   0  0  0  0  0  1  0  0  0  0  0  0
  191.1530  174.9760  136.6080 C   0  0  0  0  0  2  0  0  0  0  0  0
  191.2720  176.9830  138.0440 C   0  0  0  0  0  2  0  0  0  0  0  0
  190.3460  176.4390  140.3280 C   0  0  0  0  0  0  0  0  0  0  0  0
  190.9360  176.0390  139.0950 N   0  0  0  0  0  2  0  0  0  0  0  0
  190.3150  175.6200  141.2860 O   0  0  0  0  0  0  0  0  0  0  0  0
  188.8840  178.4210  139.2690 S   0  0  0  0  0  0  0  0  0  0  0  0
  189.7560  177.7730  140.4910 C   0  0  0  0  0  0  0  0  0  0  0  0
  190.0120  178.5910  141.6890 C   0  0  0  0  0  3  0  0  0  0  0  0
  189.7960  178.1470  142.9050 C   0  0  0  0  0  0  0  0  0  0  0  0
  189.5410  177.6860  144.0930 C   0  0  0  0  0  0  0  0  0  0  0  0
  188.4940  178.2160  144.8540 O   0  0  0  0  0  0  0  0  0  0  0  0
  187.3130  177.5410  144.9780 O   0  0  0  0  0  0  0  0  0  0  0  0
  183.9020  178.8520  144.6360 C   0  0  0  0  0  0  0  0  0  0  0  0
  185.0950  178.2690  145.1650 N   0  0  0  0  0  0  0  0  0  0  0  0
  182.9950  179.2520  145.4270 O   0  0  0  0  0  0  0  0  0  0  0  0
  183.7260  179.0310  143.1550 C   0  0  0  0  0  2  0  0  0  0  0  0
  186.1460  178.4620  143.0120 C   0  0  0  0  0  3  0  0  0  0  0  0
  186.1510  178.0760  144.4240 C   0  0  0  0  0  0  0  0  0  0  0  0
  185.0570  178.9510  142.4180 C   0  0  0  0  0  0  0  0  0  0  0  0
  185.1650  179.3530  141.0840 O   0  0  0  0  0  0  0  0  0  0  0  0
  184.7710  179.5780  138.7610 C   0  0  0  0  0  1  0  0  0  0  0  0
  184.2200  179.0360  140.0690 C   0  0  1  0  0  3  0  0  0  0  0  0
  184.0820  177.5060  139.9760 C   0  0  0  0  0  3  0  0  0  0  0  0
  182.9970  177.0720  140.7570 O   0  0  0  0  0  1  0  0  0  0  0  0
  183.8950  177.1380  138.6410 O   0  0  0  0  0  1  0  0  0  0  0  0
  190.3430  176.5490  144.6560 C   0  0  0  0  0  2  0  0  0  0  0  0
  191.6580  176.9810  144.8720 O   0  0  0  0  0  0  0  0  0  0  0  0
  192.1300  176.1760  145.8190 O   0  0  0  0  0  1  0  0  0  0  0  0
  1 33  1  0  0  0  0
  1  3  1  0  0  0  0
  2  1  2  0  0  0  0
  4  7  1  0  0  0  0
  5  7  2  0  0  0  0
  5  6  1  0  0  0  0
  6  8  1  0  0  0  0
  7  9  1  0  0  0  0
  8  3  1  6  0  0  0
  9 13  1  6  0  0  0
  9  8  1  0  0  0  0
 10 11  1  0  0  0  0
 11 12  2  0  0  0  0
 13 11  1  0  0  0  0
 14  4  1  0  0  0  0
 15 14  1  6  0  0  0
 15 29  1  0  0  0  0
 16 17  2  0  0  0  0
 16 15  1  0  0  0  0
 17 18  1  0  0  0  0
 19 27  1  0  0  0  0
 20 25  1  0  0  0  0
 20 24  1  0  0  0  0
 21 18  1  0  0  0  0
 21 22  1  0  0  0  0
 23 28  2  0  0  0  0
 24 19  2  0  0  0  0
 25 23  1  6  0  0  0
 25 26  1  0  0  0  0
 26 22  1  1  0  0  0
 26 27  1  0  0  0  0
 28 21  1  0  0  0  0
 29 30  1  0  0  0  0
 30 31  1  0  0  0  0
 32 31  1  0  0  0  0
 33 35  1  1  0  0  0
 33 36  1  0  0  0  0
 34 35  1  0  0  0  0
 36 38  1  0  0  0  0
 37 41  1  0  0  0  0
 37 39  2  0  0  0  0
 38 37  1  0  0  0  0
 40 41  2  0  0  0  0
 41 42  1  0  0  0  0
 42 43  2  0  0  0  0
 43 44  2  0  0  0  0
 44 60  1  0  0  0  0
 44 45  1  0  0  0  0
 45 46  1  0  0  0  0
 47 48  1  0  0  0  0
 47 49  2  0  0  0  0
 50 47  1  0  0  0  0
 51 52  1  0  0  0  0
 52 46  1  0  0  0  0
 52 48  2  0  0  0  0
 53 51  2  0  0  0  0
 53 50  1  0  0  0  0
 54 53  1  0  0  0  0
 56 55  1  6  0  0  0
 56 54  1  0  0  0  0
 57 56  1  0  0  0  0
 57 58  1  0  0  0  0
 59 57  1  0  0  0  0
 60 61  1  0  0  0  0
 61 62  1  0  0  0  0
M  END
>  <MODEL>
7

>  <REMARK>
 VINA RESULT:      -4.5      3.374     10.746
  Name = 
  24 active torsions:
  status: ('A' for Active; 'I' for Inactive)
    1  A    between atoms: C_1  and  C_9
    2  A    between atoms: C_1  and  N_35
    3  A    between atoms: C_1  and  N_61
    4  A    between atoms: C_4  and  O_34
    5  A    between atoms: C_4  and  C_58
    6  A    between atoms: N_5  and  C_9
    7  A    between atoms: C_6  and  C_10
    8  A    between atoms: C_6  and  C_27
    9  A    between atoms: C_6  and  C_59
   10  A    between atoms: C_8  and  C_24
   11  A    between atoms: C_10  and  N_45
   12  A    between atoms: C_14  and  C_39
   13  A    between atoms: O_15  and  O_46
   14  A    between atoms: O_15  and  C_58
   15  A    between atoms: C_18  and  C_52
   16  A    between atoms: O_21  and  C_52
   17  A    between atoms: O_21  and  C_56
   18  A    between atoms: C_24  and  N_35
   19  A    between atoms: C_25  and  N_40
   20  A    between atoms: N_26  and  C_33
   21  A    between atoms: C_30  and  C_39
   22  A    between atoms: C_33  and  C_62
   23  A    between atoms: N_41  and  C_48
   24  A    between atoms: O_46  and  C_55
                            x       y       z     vdW  Elec       q    Type
                         _______ _______ _______ _____ _____    ______ ____

>  <TORSDO>
F 24

$$$$
=
 OpenBabel11042410083D

 62 65  0  0  1  0  0  0  0  0999 V2000
  188.4110  178.1480  144.6500 C   0  0  0  0  0  0  0  0  0  0  0  0
  189.4440  178.7200  145.1000 O   0  0  0  0  0  0  0  0  0  0  0  0
  188.4990  177.3870  143.4410 N   0  0  0  0  0  2  0  0  0  0  0  0
  190.9150  177.2810  139.1270 N   0  0  0  0  0  2  0  0  0  0  0  0
  190.8090  175.9410  141.0940 N   0  0  0  0  0  0  0  0  0  0  0  0
  190.2150  175.9160  142.4130 C   0  0  0  0  0  2  0  0  0  0  0  0
  190.4110  176.9750  140.4330 C   0  0  0  0  0  0  0  0  0  0  0  0
  189.7090  177.3300  142.6110 C   0  0  1  0  0  3  0  0  0  0  0  0
  189.5330  177.9010  141.1910 C   0  0  2  0  0  3  0  0  0  0  0  0
  186.3620  178.0710  138.9900 C   0  0  0  0  0  1  0  0  0  0  0  0
  187.7500  178.3250  139.4640 C   0  0  0  0  0  0  0  0  0  0  0  0
  188.5480  178.9960  138.7480 O   0  0  0  0  0  0  0  0  0  0  0  0
  188.1630  177.7660  140.7160 N   0  0  0  0  0  2  0  0  0  0  0  0
  192.1590  176.6810  138.6580 C   0  0  0  0  0  2  0  0  0  0  0  0
  191.9840  175.9180  137.3420 C   0  0  1  0  0  3  0  0  0  0  0  0
  191.8560  174.5080  137.6480 N   0  0  0  0  0  0  0  0  0  0  0  0
  192.2080  173.5590  136.8480 C   0  0  0  0  0  3  0  0  0  0  0  0
  192.8360  173.7930  135.4980 C   0  0  0  0  0  2  0  0  0  0  0  0
  198.5940  171.6380  136.1100 C   0  0  0  0  0  3  0  0  0  0  0  0
  198.2900  173.9010  137.0560 C   0  0  0  0  0  2  0  0  0  0  0  0
  194.2860  173.9240  135.5950 N   0  0  0  0  0  0  0  0  0  0  0  0
  195.0920  172.7090  135.3590 C   0  0  0  0  0  2  0  0  0  0  0  0
  196.1860  175.1500  136.4660 C   0  0  0  0  0  3  0  0  0  0  0  0
  199.1470  172.7890  136.5280 C   0  0  0  0  0  3  0  0  0  0  0  0
  197.0670  173.9770  136.1550 C   0  0  2  0  0  3  0  0  0  0  0  0
  196.2710  172.6760  136.3210 C   0  0  2  0  0  3  0  0  0  0  0  0
  197.1040  171.3930  136.1990 C   0  0  0  0  0  2  0  0  0  0  0  0
  194.8780  175.1030  136.1750 C   0  0  0  0  0  3  0  0  0  0  0  0
  190.7860  176.3670  136.6300 N   0  0  0  0  0  2  0  0  0  0  0  0
  189.7730  175.3270  136.8240 C   0  0  0  0  0  2  0  0  0  0  0  0
  188.3980  175.9240  136.6220 C   0  0  0  0  0  2  0  0  0  0  0  0
  188.2880  176.5360  135.2230 C   0  0  0  0  0  1  0  0  0  0  0  0
  187.1380  178.1810  145.4690 C   0  0  2  0  0  3  0  0  0  0  0  0
  186.9010  178.6770  147.9100 C   0  0  0  0  0  1  0  0  0  0  0  0
  187.3250  177.6320  146.8770 C   0  0  0  0  0  2  0  0  0  0  0  0
  186.0410  177.3890  144.7810 C   0  0  0  0  0  2  0  0  0  0  0  0
  184.9020  178.5620  142.8580 C   0  0  0  0  0  0  0  0  0  0  0  0
  185.9590  177.7610  143.3800 N   0  0  0  0  0  2  0  0  0  0  0  0
  184.7500  178.6350  141.6080 O   0  0  0  0  0  0  0  0  0  0  0  0
  184.6320  180.4760  144.7160 S   0  0  0  0  0  0  0  0  0  0  0  0
  184.0090  179.3160  143.7460 C   0  0  0  0  0  0  0  0  0  0  0  0
  182.5780  178.9890  143.8640 C   0  0  0  0  0  3  0  0  0  0  0  0
  181.8070  178.8100  142.8170 C   0  0  0  0  0  0  0  0  0  0  0  0
  181.0660  178.6720  141.7590 C   0  0  0  0  0  0  0  0  0  0  0  0
  180.0740  179.6080  141.4540 O   0  0  0  0  0  0  0  0  0  0  0  0
  180.4090  180.8690  141.0460 O   0  0  0  0  0  0  0  0  0  0  0  0
  179.8660  182.6900  137.9060 C   0  0  0  0  0  0  0  0  0  0  0  0
  179.8760  182.3200  139.2870 N   0  0  0  0  0  0  0  0  0  0  0  0
  179.6050  183.8880  137.5800 O   0  0  0  0  0  0  0  0  0  0  0  0
  180.1960  181.6860  136.8390 C   0  0  0  0  0  2  0  0  0  0  0  0
  180.9570  180.2480  138.7240 C   0  0  0  0  0  3  0  0  0  0  0  0
  180.3780  181.1850  139.6880 C   0  0  0  0  0  0  0  0  0  0  0  0
  180.9310  180.4800  137.4110 C   0  0  0  0  0  0  0  0  0  0  0  0
  181.5670  179.5610  136.5730 O   0  0  0  0  0  0  0  0  0  0  0  0
  180.1740  177.7180  136.0590 C   0  0  0  0  0  1  0  0  0  0  0  0
  181.4750  178.1480  136.7130 C   0  0  1  0  0  3  0  0  0  0  0  0
  182.6610  177.4970  135.9770 C   0  0  0  0  0  3  0  0  0  0  0  0
  183.2820  176.5490  136.8090 O   0  0  0  0  0  1  0  0  0  0  0  0
  182.2000  176.8850  134.8080 O   0  0  0  0  0  1  0  0  0  0  0  0
  181.2870  177.5200  140.8210 C   0  0  0  0  0  2  0  0  0  0  0  0
  180.0450  176.9970  140.4400 O   0  0  0  0  0  0  0  0  0  0  0  0
  179.4150  176.7440  141.5830 O   0  0  0  0  0  1  0  0  0  0  0  0
  1  2  2  0  0  0  0
  1 33  1  0  0  0  0
  3  1  1  0  0  0  0
  4  7  1  0  0  0  0
  5  6  1  0  0  0  0
  6  8  1  0  0  0  0
  7  5  2  0  0  0  0
  7  9  1  0  0  0  0
  8  3  1  6  0  0  0
  9 13  1  6  0  0  0
  9  8  1  0  0  0  0
 10 11  1  0  0  0  0
 11 13  1  0  0  0  0
 12 11  2  0  0  0  0
 14  4  1  0  0  0  0
 15 16  1  0  0  0  0
 15 14  1  1  0  0  0
 17 16  2  0  0  0  0
 18 21  1  0  0  0  0
 18 17  1  0  0  0  0
 19 27  1  0  0  0  0
 19 24  2  0  0  0  0
 21 28  1  0  0  0  0
 22 21  1  0  0  0  0
 24 20  1  0  0  0  0
 25 26  1  0  0  0  0
 25 23  1  1  0  0  0
 25 20  1  0  0  0  0
 26 22  1  6  0  0  0
 27 26  1  0  0  0  0
 28 23  2  0  0  0  0
 29 30  1  0  0  0  0
 29 15  1  0  0  0  0
 31 30  1  0  0  0  0
 32 31  1  0  0  0  0
 33 36  1  6  0  0  0
 33 35  1  0  0  0  0
 35 34  1  0  0  0  0
 37 38  1  0  0  0  0
 37 41  1  0  0  0  0
 38 36  1  0  0  0  0
 39 37  2  0  0  0  0
 41 42  1  0  0  0  0
 41 40  2  0  0  0  0
 43 42  2  0  0  0  0
 44 43  2  0  0  0  0
 45 44  1  0  0  0  0
 46 45  1  0  0  0  0
 47 48  1  0  0  0  0
 48 52  2  0  0  0  0
 49 47  2  0  0  0  0
 50 53  1  0  0  0  0
 50 47  1  0  0  0  0
 51 52  1  0  0  0  0
 52 46  1  0  0  0  0
 53 51  2  0  0  0  0
 54 56  1  0  0  0  0
 54 53  1  0  0  0  0
 56 55  1  6  0  0  0
 57 56  1  0  0  0  0
 57 58  1  0  0  0  0
 59 57  1  0  0  0  0
 60 44  1  0  0  0  0
 61 60  1  0  0  0  0
 61 62  1  0  0  0  0
M  END
>  <MODEL>
8

>  <REMARK>
 VINA RESULT:      -4.1      3.828      7.588
  Name = 
  24 active torsions:
  status: ('A' for Active; 'I' for Inactive)
    1  A    between atoms: C_1  and  C_9
    2  A    between atoms: C_1  and  N_35
    3  A    between atoms: C_1  and  N_61
    4  A    between atoms: C_4  and  O_34
    5  A    between atoms: C_4  and  C_58
    6  A    between atoms: N_5  and  C_9
    7  A    between atoms: C_6  and  C_10
    8  A    between atoms: C_6  and  C_27
    9  A    between atoms: C_6  and  C_59
   10  A    between atoms: C_8  and  C_24
   11  A    between atoms: C_10  and  N_45
   12  A    between atoms: C_14  and  C_39
   13  A    between atoms: O_15  and  O_46
   14  A    between atoms: O_15  and  C_58
   15  A    between atoms: C_18  and  C_52
   16  A    between atoms: O_21  and  C_52
   17  A    between atoms: O_21  and  C_56
   18  A    between atoms: C_24  and  N_35
   19  A    between atoms: C_25  and  N_40
   20  A    between atoms: N_26  and  C_33
   21  A    between atoms: C_30  and  C_39
   22  A    between atoms: C_33  and  C_62
   23  A    between atoms: N_41  and  C_48
   24  A    between atoms: O_46  and  C_55
                            x       y       z     vdW  Elec       q    Type
                         _______ _______ _______ _____ _____    ______ ____

>  <TORSDO>
F 24

$$$$
