=
 OpenBabel11032420083D

 28 29  0  0  1  0  0  0  0  0999 V2000
  184.3380  178.3350  141.9610 C   0  0  0  0  0  3  0  0  0  0  0  0
  185.2810  178.4840  142.9900 C   0  0  0  0  0  0  0  0  0  0  0  0
  182.5630  178.9850  143.4700 C   0  0  0  0  0  3  0  0  0  0  0  0
  184.8550  178.8870  144.2670 C   0  0  0  0  0  0  0  0  0  0  0  0
  183.4950  179.1360  144.4990 C   0  0  0  0  0  3  0  0  0  0  0  0
  182.9830  178.5810  142.2000 C   0  0  0  0  0  0  0  0  0  0  0  0
  186.6690  178.2320  142.7500 N   0  0  0  0  0  2  0  0  0  0  0  0
  187.3630  178.6840  141.5530 C   0  0  0  0  0  2  0  0  0  0  0  0
  188.7140  176.7180  142.1990 C   0  0  0  0  0  1  0  0  0  0  0  0
  189.1360  177.8270  140.0330 C   0  0  0  0  0  1  0  0  0  0  0  0
  188.7390  178.0500  141.4790 C   0  0  0  0  0  3  0  0  0  0  0  0
  185.8090  179.0420  145.3210 N   0  0  0  0  0  2  0  0  0  0  0  0
  186.1250  177.9880  146.1900 N   0  0  0  0  0  2  0  0  0  0  0  0
  189.6350  176.9550  145.7170 N   0  0  0  0  0  0  0  0  0  0  0  0
  189.2930  177.3220  148.0520 C   0  0  0  0  0  3  0  0  0  0  0  0
  187.9650  177.6620  147.7960 C   0  0  0  0  0  3  0  0  0  0  0  0
  187.4800  177.6440  146.4830 C   0  0  0  0  0  0  0  0  0  0  0  0
  188.3420  177.2840  145.4470 C   0  0  0  0  0  3  0  0  0  0  0  0
  190.1300  176.9640  146.9860 C   0  0  0  0  0  0  0  0  0  0  0  0
  192.1490  175.8550  146.4190 O   0  0  0  0  0  0  0  0  0  0  0  0
  192.1930  177.0850  148.3490 O   0  0  0  0  0  1  0  0  0  0  0  0
  191.5330  176.6020  147.2250 C   0  0  0  0  0  0  0  0  0  0  0  0
  181.9930  178.4350  141.0960 C   0  0  0  0  0  2  0  0  0  0  0  0
  182.6920  178.1480  139.7730 C   0  0  1  0  0  3  0  0  0  0  0  0
  181.9610  177.2160  139.0340 O   0  0  0  0  0  1  0  0  0  0  0  0
  184.0600  180.1460  139.0760 N   0  0  0  0  0  1  0  0  0  0  0  0
  181.9050  179.8340  138.2700 O   0  0  0  0  0  0  0  0  0  0  0  0
  182.8470  179.4090  138.9910 C   0  0  0  0  0  0  0  0  0  0  0  0
  1  6  2  0  0  0  0
  1  2  1  0  0  0  0
  2  4  2  0  0  0  0
  3  5  2  0  0  0  0
  4  5  1  0  0  0  0
  4 12  1  0  0  0  0
  6  3  1  0  0  0  0
  7  2  1  0  0  0  0
  8  7  1  0  0  0  0
 10 11  1  0  0  0  0
 11  8  1  0  0  0  0
 11  9  1  0  0  0  0
 12 13  1  0  0  0  0
 13 17  1  0  0  0  0
 14 19  1  0  0  0  0
 16 15  1  0  0  0  0
 17 16  2  0  0  0  0
 18 14  2  0  0  0  0
 18 17  1  0  0  0  0
 19 22  1  0  0  0  0
 19 15  2  0  0  0  0
 20 22  2  0  0  0  0
 22 21  1  0  0  0  0
 23  6  1  0  0  0  0
 24 25  1  6  0  0  0
 24 23  1  0  0  0  0
 27 28  2  0  0  0  0
 28 26  1  0  0  0  0
 28 24  1  0  0  0  0
M  END
>  <MODEL>
1

>  <REMARK>
 VINA RESULT:      -7.7      0.000      0.000
  Name = 
  10 active torsions:
  status: ('A' for Active; 'I' for Inactive)
    1  A    between atoms: N_2  and  C_15
    2  A    between atoms: N_2  and  N_23
    3  A    between atoms: C_7  and  N_11
    4  A    between atoms: C_8  and  N_11
    5  A    between atoms: C_8  and  C_14
    6  A    between atoms: C_18  and  C_25
    7  A    between atoms: C_18  and  C_26
    8  A    between atoms: CA_19  and  C_22
    9  A    between atoms: N_23  and  C_24
   10  A    between atoms: C_26  and  C_28
                            x       y       z     vdW  Elec       q    Type
                         _______ _______ _______ _____ _____    ______ ____

>  <TORSDO>
F 10

$$$$
=
 OpenBabel11032420083D

 28 29  0  0  1  0  0  0  0  0999 V2000
  184.2420  178.3650  141.9200 C   0  0  0  0  0  3  0  0  0  0  0  0
  185.1650  178.5170  142.9670 C   0  0  0  0  0  0  0  0  0  0  0  0
  182.4320  178.9740  143.4060 C   0  0  0  0  0  3  0  0  0  0  0  0
  184.7120  178.9000  144.2400 C   0  0  0  0  0  0  0  0  0  0  0  0
  183.3450  179.1270  144.4520 C   0  0  0  0  0  3  0  0  0  0  0  0
  182.8790  178.5890  142.1390 C   0  0  0  0  0  0  0  0  0  0  0  0
  186.5610  178.2880  142.7470 N   0  0  0  0  0  2  0  0  0  0  0  0
  187.2450  178.6720  141.5200 C   0  0  0  0  0  2  0  0  0  0  0  0
  188.8080  177.8470  139.7920 C   0  0  0  0  0  1  0  0  0  0  0  0
  189.5670  178.0250  142.1350 C   0  0  0  0  0  1  0  0  0  0  0  0
  188.3850  177.7110  141.2400 C   0  0  0  0  0  3  0  0  0  0  0  0
  185.6460  179.0580  145.3110 N   0  0  0  0  0  2  0  0  0  0  0  0
  185.9890  177.9900  146.1530 N   0  0  0  0  0  2  0  0  0  0  0  0
  189.4750  176.8960  145.6510 N   0  0  0  0  0  0  0  0  0  0  0  0
  189.2190  177.4730  147.9540 C   0  0  0  0  0  3  0  0  0  0  0  0
  187.8830  177.7980  147.7160 C   0  0  0  0  0  3  0  0  0  0  0  0
  187.3520  177.6660  146.4290 C   0  0  0  0  0  0  0  0  0  0  0  0
  188.1750  177.2090  145.3990 C   0  0  0  0  0  3  0  0  0  0  0  0
  190.0150  177.0160  146.8960 C   0  0  0  0  0  0  0  0  0  0  0  0
  192.0280  177.0560  148.1530 O   0  0  0  0  0  1  0  0  0  0  0  0
  192.1060  175.9000  146.1790 O   0  0  0  0  0  0  0  0  0  0  0  0
  191.4250  176.6670  147.1170 C   0  0  0  0  0  0  0  0  0  0  0  0
  181.9100  178.4410  141.0170 C   0  0  0  0  0  2  0  0  0  0  0  0
  180.4780  178.5990  141.5110 C   0  0  1  0  0  3  0  0  0  0  0  0
  179.9380  179.8010  141.0490 O   0  0  0  0  0  1  0  0  0  0  0  0
  179.3590  177.3120  139.6560 N   0  0  0  0  0  1  0  0  0  0  0  0
  179.1780  176.6230  141.8660 O   0  0  0  0  0  0  0  0  0  0  0  0
  179.6450  177.4550  141.0420 C   0  0  0  0  0  0  0  0  0  0  0  0
  1  6  2  0  0  0  0
  1  2  1  0  0  0  0
  2  4  2  0  0  0  0
  3  5  2  0  0  0  0
  4  5  1  0  0  0  0
  4 12  1  0  0  0  0
  6  3  1  0  0  0  0
  7  2  1  0  0  0  0
  8  7  1  0  0  0  0
  9 11  1  0  0  0  0
 11  8  1  0  0  0  0
 11 10  1  0  0  0  0
 12 13  1  0  0  0  0
 13 17  1  0  0  0  0
 14 19  1  0  0  0  0
 16 15  1  0  0  0  0
 17 16  2  0  0  0  0
 18 14  2  0  0  0  0
 18 17  1  0  0  0  0
 19 22  1  0  0  0  0
 19 15  2  0  0  0  0
 21 22  2  0  0  0  0
 22 20  1  0  0  0  0
 23 24  1  0  0  0  0
 23  6  1  0  0  0  0
 24 25  1  6  0  0  0
 26 28  1  0  0  0  0
 28 24  1  0  0  0  0
 28 27  2  0  0  0  0
M  END
>  <MODEL>
2

>  <REMARK>
 VINA RESULT:      -7.7      1.573      2.116
  Name = 
  10 active torsions:
  status: ('A' for Active; 'I' for Inactive)
    1  A    between atoms: N_2  and  C_15
    2  A    between atoms: N_2  and  N_23
    3  A    between atoms: C_7  and  N_11
    4  A    between atoms: C_8  and  N_11
    5  A    between atoms: C_8  and  C_14
    6  A    between atoms: C_18  and  C_25
    7  A    between atoms: C_18  and  C_26
    8  A    between atoms: CA_19  and  C_22
    9  A    between atoms: N_23  and  C_24
   10  A    between atoms: C_26  and  C_28
                            x       y       z     vdW  Elec       q    Type
                         _______ _______ _______ _____ _____    ______ ____

>  <TORSDO>
F 10

$$$$
=
 OpenBabel11032420083D

 28 29  0  0  1  0  0  0  0  0999 V2000
  188.6850  177.3090  145.7540 C   0  0  0  0  0  3  0  0  0  0  0  0
  187.3850  177.5130  145.2670 C   0  0  0  0  0  0  0  0  0  0  0  0
  188.0060  178.0900  147.9410 C   0  0  0  0  0  3  0  0  0  0  0  0
  186.3920  178.0100  146.1280 C   0  0  0  0  0  0  0  0  0  0  0  0
  186.7100  178.2950  147.4630 C   0  0  0  0  0  3  0  0  0  0  0  0
  188.9960  177.6000  147.0860 C   0  0  0  0  0  0  0  0  0  0  0  0
  187.0620  177.2180  143.9040 N   0  0  0  0  0  2  0  0  0  0  0  0
  187.9160  176.4110  143.0420 C   0  0  0  0  0  2  0  0  0  0  0  0
  187.6610  178.4740  141.7050 C   0  0  0  0  0  1  0  0  0  0  0  0
  189.9070  177.7820  142.4610 C   0  0  0  0  0  1  0  0  0  0  0  0
  188.5580  177.2860  141.9820 C   0  0  0  0  0  3  0  0  0  0  0  0
  185.0650  178.2200  145.6390 N   0  0  0  0  0  2  0  0  0  0  0  0
  184.7660  179.2530  144.7390 N   0  0  0  0  0  2  0  0  0  0  0  0
  181.5970  179.0640  142.8600 N   0  0  0  0  0  0  0  0  0  0  0  0
  183.3680  178.5140  141.3550 C   0  0  0  0  0  3  0  0  0  0  0  0
  184.2900  178.6930  142.3870 C   0  0  0  0  0  3  0  0  0  0  0  0
  183.8470  179.0610  143.6630 C   0  0  0  0  0  0  0  0  0  0  0  0
  182.4810  179.2440  143.8790 C   0  0  0  0  0  3  0  0  0  0  0  0
  182.0040  178.7060  141.6100 C   0  0  0  0  0  0  0  0  0  0  0  0
  180.3800  179.5120  140.0790 O   0  0  0  0  0  1  0  0  0  0  0  0
  180.7610  177.2550  140.0350 O   0  0  0  0  0  0  0  0  0  0  0  0
  181.0110  178.5250  140.5430 C   0  0  0  0  0  0  0  0  0  0  0  0
  190.3760  177.3630  147.5980 C   0  0  0  0  0  2  0  0  0  0  0  0
  191.2410  176.6930  146.5390 C   0  0  1  0  0  3  0  0  0  0  0  0
  191.8670  177.6560  145.7450 O   0  0  0  0  0  1  0  0  0  0  0  0
  192.7960  176.1910  148.4570 N   0  0  0  0  0  1  0  0  0  0  0  0
  192.6790  174.7820  146.6150 O   0  0  0  0  0  0  0  0  0  0  0  0
  192.2670  175.8260  147.1890 C   0  0  0  0  0  0  0  0  0  0  0  0
  1  6  1  0  0  0  0
  2  1  2  0  0  0  0
  2  4  1  0  0  0  0
  4  5  2  0  0  0  0
  5  3  1  0  0  0  0
  6 23  1  0  0  0  0
  6  3  2  0  0  0  0
  7  2  1  0  0  0  0
  8  7  1  0  0  0  0
  9 11  1  0  0  0  0
 11 10  1  0  0  0  0
 11  8  1  0  0  0  0
 12  4  1  0  0  0  0
 13 12  1  0  0  0  0
 14 18  1  0  0  0  0
 15 19  1  0  0  0  0
 15 16  2  0  0  0  0
 16 17  1  0  0  0  0
 17 18  2  0  0  0  0
 17 13  1  0  0  0  0
 19 14  2  0  0  0  0
 20 22  1  0  0  0  0
 21 22  2  0  0  0  0
 22 19  1  0  0  0  0
 24 25  1  1  0  0  0
 24 28  1  0  0  0  0
 24 23  1  0  0  0  0
 27 28  2  0  0  0  0
 28 26  1  0  0  0  0
M  END
>  <MODEL>
3

>  <REMARK>
 VINA RESULT:      -7.5      1.676      8.587
  Name = 
  10 active torsions:
  status: ('A' for Active; 'I' for Inactive)
    1  A    between atoms: N_2  and  C_15
    2  A    between atoms: N_2  and  N_23
    3  A    between atoms: C_7  and  N_11
    4  A    between atoms: C_8  and  N_11
    5  A    between atoms: C_8  and  C_14
    6  A    between atoms: C_18  and  C_25
    7  A    between atoms: C_18  and  C_26
    8  A    between atoms: CA_19  and  C_22
    9  A    between atoms: N_23  and  C_24
   10  A    between atoms: C_26  and  C_28
                            x       y       z     vdW  Elec       q    Type
                         _______ _______ _______ _____ _____    ______ ____

>  <TORSDO>
F 10

$$$$
=
 OpenBabel11032420083D

 28 29  0  0  1  0  0  0  0  0999 V2000
  192.3980  177.0230  139.7470 C   0  0  0  0  0  3  0  0  0  0  0  0
  191.3860  177.4220  140.6330 C   0  0  0  0  0  0  0  0  0  0  0  0
  190.7640  176.7240  137.9890 C   0  0  0  0  0  3  0  0  0  0  0  0
  190.0540  177.4700  140.1880 C   0  0  0  0  0  0  0  0  0  0  0  0
  189.7510  177.1200  138.8650 C   0  0  0  0  0  3  0  0  0  0  0  0
  192.0890  176.6710  138.4300 C   0  0  0  0  0  0  0  0  0  0  0  0
  191.6990  177.7820  141.9830 N   0  0  0  0  0  2  0  0  0  0  0  0
  191.6880  176.8280  143.0830 C   0  0  0  0  0  2  0  0  0  0  0  0
  191.6320  176.9220  145.5520 C   0  0  0  0  0  1  0  0  0  0  0  0
  191.0700  178.9390  144.2430 C   0  0  0  0  0  1  0  0  0  0  0  0
  190.9780  177.4270  144.2820 C   0  0  0  0  0  3  0  0  0  0  0  0
  189.0180  177.8770  141.0850 N   0  0  0  0  0  0  0  0  0  0  0  0
  188.3380  176.9530  141.8930 N   0  0  0  0  0  0  0  0  0  0  0  0
  185.4610  178.5740  143.5360 N   0  0  0  0  0  0  0  0  0  0  0  0
  186.7240  177.4520  145.2240 C   0  0  0  0  0  3  0  0  0  0  0  0
  187.6270  177.0210  144.2510 C   0  0  0  0  0  3  0  0  0  0  0  0
  187.4330  177.3780  142.9110 C   0  0  0  0  0  0  0  0  0  0  0  0
  186.3300  178.1630  142.5730 C   0  0  0  0  0  3  0  0  0  0  0  0
  185.6290  178.2400  144.8460 C   0  0  0  0  0  0  0  0  0  0  0  0
  183.5440  179.1670  145.4960 O   0  0  0  0  0  0  0  0  0  0  0  0
  184.9780  178.6430  147.2010 O   0  0  0  0  0  1  0  0  0  0  0  0
  184.6620  178.7070  145.8490 C   0  0  0  0  0  0  0  0  0  0  0  0
  193.1740  176.2650  137.4920 C   0  0  0  0  0  2  0  0  0  0  0  0
  193.6700  174.8610  137.8100 C   0  0  1  0  0  3  0  0  0  0  0  0
  193.4160  174.0040  136.7380 O   0  0  0  0  0  1  0  0  0  0  0  0
  196.0660  174.8850  137.0300 N   0  0  0  0  0  1  0  0  0  0  0  0
  195.5470  174.9000  139.2930 O   0  0  0  0  0  0  0  0  0  0  0  0
  195.1330  174.8890  138.1030 C   0  0  0  0  0  0  0  0  0  0  0  0
  1  2  1  0  0  0  0
  2  7  1  0  0  0  0
  3  6  1  0  0  0  0
  3  5  2  0  0  0  0
  4  2  2  0  0  0  0
  4 12  1  0  0  0  0
  5  4  1  0  0  0  0
  6  1  2  0  0  0  0
  7  8  1  0  0  0  0
  8 11  1  0  0  0  0
 10 11  1  0  0  0  0
 11  9  1  0  0  0  0
 12 13  2  0  0  0  0
 13 17  1  0  0  0  0
 14 19  1  0  0  0  0
 16 15  1  0  0  0  0
 17 16  2  0  0  0  0
 18 17  1  0  0  0  0
 18 14  2  0  0  0  0
 19 15  2  0  0  0  0
 19 22  1  0  0  0  0
 20 22  2  0  0  0  0
 22 21  1  0  0  0  0
 23 24  1  0  0  0  0
 23  6  1  0  0  0  0
 24 25  1  6  0  0  0
 24 28  1  0  0  0  0
 26 28  1  0  0  0  0
 28 27  2  0  0  0  0
M  END
>  <MODEL>
4

>  <REMARK>
 VINA RESULT:      -7.5      4.686      8.203
  Name = 
  10 active torsions:
  status: ('A' for Active; 'I' for Inactive)
    1  A    between atoms: N_2  and  C_15
    2  A    between atoms: N_2  and  N_23
    3  A    between atoms: C_7  and  N_11
    4  A    between atoms: C_8  and  N_11
    5  A    between atoms: C_8  and  C_14
    6  A    between atoms: C_18  and  C_25
    7  A    between atoms: C_18  and  C_26
    8  A    between atoms: CA_19  and  C_22
    9  A    between atoms: N_23  and  C_24
   10  A    between atoms: C_26  and  C_28
                            x       y       z     vdW  Elec       q    Type
                         _______ _______ _______ _____ _____    ______ ____

>  <TORSDO>
F 10

$$$$
=
 OpenBabel11032420083D

 28 29  0  0  1  0  0  0  0  0999 V2000
  187.9850  177.6640  143.8800 C   0  0  0  0  0  3  0  0  0  0  0  0
  188.6430  177.8760  142.6580 C   0  0  0  0  0  0  0  0  0  0  0  0
  185.8660  178.2160  142.8520 C   0  0  0  0  0  3  0  0  0  0  0  0
  187.9010  178.2600  141.5290 C   0  0  0  0  0  0  0  0  0  0  0  0
  186.5130  178.4280  141.6330 C   0  0  0  0  0  3  0  0  0  0  0  0
  186.6010  177.8380  143.9780 C   0  0  0  0  0  0  0  0  0  0  0  0
  190.0600  177.7000  142.5530 N   0  0  0  0  0  2  0  0  0  0  0  0
  191.0020  178.2470  143.5190 C   0  0  0  0  0  2  0  0  0  0  0  0
  191.1280  177.0740  145.6910 C   0  0  0  0  0  1  0  0  0  0  0  0
  191.4100  175.7950  143.5980 C   0  0  0  0  0  1  0  0  0  0  0  0
  191.6770  177.1220  144.2810 C   0  0  0  0  0  3  0  0  0  0  0  0
  188.5640  178.4760  140.2800 N   0  0  0  0  0  2  0  0  0  0  0  0
  188.5210  177.5270  139.2490 N   0  0  0  0  0  2  0  0  0  0  0  0
  192.0330  176.5790  138.6420 N   0  0  0  0  0  0  0  0  0  0  0  0
  190.8680  176.4180  136.5640 C   0  0  0  0  0  3  0  0  0  0  0  0
  189.6940  176.8250  137.2000 C   0  0  0  0  0  3  0  0  0  0  0  0
  189.7050  177.1090  138.5700 C   0  0  0  0  0  0  0  0  0  0  0  0
  190.8990  176.9770  139.2800 C   0  0  0  0  0  3  0  0  0  0  0  0
  192.0480  176.2980  137.3090 C   0  0  0  0  0  0  0  0  0  0  0  0
  193.4180  174.7030  136.2090 O   0  0  0  0  0  0  0  0  0  0  0  0
  194.3610  176.7590  136.5580 O   0  0  0  0  0  1  0  0  0  0  0  0
  193.2980  175.8710  136.6660 C   0  0  0  0  0  0  0  0  0  0  0  0
  185.9100  177.5940  145.2770 C   0  0  0  0  0  2  0  0  0  0  0  0
  185.4420  178.9040  145.8970 C   0  0  1  0  0  3  0  0  0  0  0  0
  184.0610  178.8740  146.1030 O   0  0  0  0  0  1  0  0  0  0  0  0
  187.1100  178.1990  147.6490 N   0  0  0  0  0  1  0  0  0  0  0  0
  185.8780  180.1520  147.8910 O   0  0  0  0  0  0  0  0  0  0  0  0
  186.1450  179.1380  147.1910 C   0  0  0  0  0  0  0  0  0  0  0  0
  1  6  1  0  0  0  0
  2  1  2  0  0  0  0
  3  6  2  0  0  0  0
  4  5  2  0  0  0  0
  4  2  1  0  0  0  0
  5  3  1  0  0  0  0
  6 23  1  0  0  0  0
  7  2  1  0  0  0  0
  7  8  1  0  0  0  0
  8 11  1  0  0  0  0
 10 11  1  0  0  0  0
 11  9  1  0  0  0  0
 12  4  1  0  0  0  0
 13 12  1  0  0  0  0
 14 18  1  0  0  0  0
 15 16  2  0  0  0  0
 15 19  1  0  0  0  0
 16 17  1  0  0  0  0
 17 13  1  0  0  0  0
 17 18  2  0  0  0  0
 19 14  2  0  0  0  0
 20 22  2  0  0  0  0
 21 22  1  0  0  0  0
 22 19  1  0  0  0  0
 23 24  1  0  0  0  0
 24 25  1  1  0  0  0
 24 28  1  0  0  0  0
 28 26  1  0  0  0  0
 28 27  2  0  0  0  0
M  END
>  <MODEL>
5

>  <REMARK>
 VINA RESULT:      -7.4      4.395      7.464
  Name = 
  10 active torsions:
  status: ('A' for Active; 'I' for Inactive)
    1  A    between atoms: N_2  and  C_15
    2  A    between atoms: N_2  and  N_23
    3  A    between atoms: C_7  and  N_11
    4  A    between atoms: C_8  and  N_11
    5  A    between atoms: C_8  and  C_14
    6  A    between atoms: C_18  and  C_25
    7  A    between atoms: C_18  and  C_26
    8  A    between atoms: CA_19  and  C_22
    9  A    between atoms: N_23  and  C_24
   10  A    between atoms: C_26  and  C_28
                            x       y       z     vdW  Elec       q    Type
                         _______ _______ _______ _____ _____    ______ ____

>  <TORSDO>
F 10

$$$$
=
 OpenBabel11032420083D

 28 29  0  0  1  0  0  0  0  0999 V2000
  183.5140  178.9350  140.3300 C   0  0  0  0  0  3  0  0  0  0  0  0
  184.9150  178.9090  140.4170 C   0  0  0  0  0  0  0  0  0  0  0  0
  183.3450  178.7640  142.7370 C   0  0  0  0  0  3  0  0  0  0  0  0
  185.5290  178.8100  141.6760 C   0  0  0  0  0  0  0  0  0  0  0  0
  184.7380  178.7390  142.8320 C   0  0  0  0  0  3  0  0  0  0  0  0
  182.7310  178.8580  141.4850 C   0  0  0  0  0  0  0  0  0  0  0  0
  185.7200  178.9870  139.2360 N   0  0  0  0  0  2  0  0  0  0  0  0
  185.5810  178.0650  138.1170 C   0  0  0  0  0  2  0  0  0  0  0  0
  187.9770  177.4700  138.2340 C   0  0  0  0  0  1  0  0  0  0  0  0
  186.7230  177.0750  136.1430 C   0  0  0  0  0  1  0  0  0  0  0  0
  186.8790  177.9980  137.3350 C   0  0  0  0  0  3  0  0  0  0  0  0
  186.9560  178.7850  141.7730 N   0  0  0  0  0  2  0  0  0  0  0  0
  187.6420  177.6570  142.2440 N   0  0  0  0  0  2  0  0  0  0  0  0
  190.0510  177.6100  145.0370 N   0  0  0  0  0  0  0  0  0  0  0  0
  187.8580  177.4370  145.9660 C   0  0  0  0  0  3  0  0  0  0  0  0
  187.3180  177.4880  144.6800 C   0  0  0  0  0  3  0  0  0  0  0  0
  188.1640  177.6020  143.5720 C   0  0  0  0  0  0  0  0  0  0  0  0
  189.5430  177.6630  143.7760 C   0  0  0  0  0  3  0  0  0  0  0  0
  189.2470  177.5000  146.1310 C   0  0  0  0  0  0  0  0  0  0  0  0
  189.2450  177.9500  148.4610 O   0  0  0  0  0  1  0  0  0  0  0  0
  191.0800  176.8420  147.6610 O   0  0  0  0  0  0  0  0  0  0  0  0
  189.8440  177.4490  147.4730 C   0  0  0  0  0  0  0  0  0  0  0  0
  181.2440  178.9030  141.3820 C   0  0  0  0  0  2  0  0  0  0  0  0
  180.6250  179.4130  142.6770 C   0  0  1  0  0  3  0  0  0  0  0  0
  180.0430  180.6650  142.4720 O   0  0  0  0  0  1  0  0  0  0  0  0
  178.9390  178.6920  144.4040 N   0  0  0  0  0  1  0  0  0  0  0  0
  179.3240  177.4130  142.5060 O   0  0  0  0  0  0  0  0  0  0  0  0
  179.5990  178.4490  143.1680 C   0  0  0  0  0  0  0  0  0  0  0  0
  1  2  2  0  0  0  0
  1  6  1  0  0  0  0
  2  4  1  0  0  0  0
  3  5  1  0  0  0  0
  4 12  1  0  0  0  0
  4  5  2  0  0  0  0
  6  3  2  0  0  0  0
  7  2  1  0  0  0  0
  8  7  1  0  0  0  0
 10 11  1  0  0  0  0
 11  8  1  0  0  0  0
 11  9  1  0  0  0  0
 12 13  1  0  0  0  0
 13 17  1  0  0  0  0
 14 19  1  0  0  0  0
 15 19  2  0  0  0  0
 16 15  1  0  0  0  0
 17 18  1  0  0  0  0
 17 16  2  0  0  0  0
 18 14  2  0  0  0  0
 19 22  1  0  0  0  0
 22 21  2  0  0  0  0
 22 20  1  0  0  0  0
 23  6  1  0  0  0  0
 23 24  1  0  0  0  0
 24 25  1  6  0  0  0
 24 28  1  0  0  0  0
 27 28  2  0  0  0  0
 28 26  1  0  0  0  0
M  END
>  <MODEL>
6

>  <REMARK>
 VINA RESULT:      -7.3      2.609      3.576
  Name = 
  10 active torsions:
  status: ('A' for Active; 'I' for Inactive)
    1  A    between atoms: N_2  and  C_15
    2  A    between atoms: N_2  and  N_23
    3  A    between atoms: C_7  and  N_11
    4  A    between atoms: C_8  and  N_11
    5  A    between atoms: C_8  and  C_14
    6  A    between atoms: C_18  and  C_25
    7  A    between atoms: C_18  and  C_26
    8  A    between atoms: CA_19  and  C_22
    9  A    between atoms: N_23  and  C_24
   10  A    between atoms: C_26  and  C_28
                            x       y       z     vdW  Elec       q    Type
                         _______ _______ _______ _____ _____    ______ ____

>  <TORSDO>
F 10

$$$$
=
 OpenBabel11032420083D

 28 29  0  0  1  0  0  0  0  0999 V2000
  190.0440  177.5800  140.6620 C   0  0  0  0  0  3  0  0  0  0  0  0
  189.1450  177.9860  141.6610 C   0  0  0  0  0  0  0  0  0  0  0  0
  188.3210  177.8380  138.9840 C   0  0  0  0  0  3  0  0  0  0  0  0
  187.8260  178.3190  141.3130 C   0  0  0  0  0  0  0  0  0  0  0  0
  187.4210  178.2430  139.9730 C   0  0  0  0  0  3  0  0  0  0  0  0
  189.6320  177.5030  139.3280 C   0  0  0  0  0  0  0  0  0  0  0  0
  189.5620  178.0660  143.0280 N   0  0  0  0  0  2  0  0  0  0  0  0
  189.2120  177.0640  144.0250 C   0  0  0  0  0  2  0  0  0  0  0  0
  187.6000  177.4880  145.8510 C   0  0  0  0  0  1  0  0  0  0  0  0
  189.9840  177.1350  146.3890 C   0  0  0  0  0  1  0  0  0  0  0  0
  189.0190  177.7230  145.3780 C   0  0  0  0  0  3  0  0  0  0  0  0
  186.9050  178.7340  142.3250 N   0  0  0  0  0  2  0  0  0  0  0  0
  185.9030  177.8780  142.8060 N   0  0  0  0  0  2  0  0  0  0  0  0
  182.4920  178.6150  141.6110 N   0  0  0  0  0  0  0  0  0  0  0  0
  182.5480  179.0420  143.9600 C   0  0  0  0  0  3  0  0  0  0  0  0
  183.8920  178.6680  143.9880 C   0  0  0  0  0  3  0  0  0  0  0  0
  184.5290  178.2660  142.8090 C   0  0  0  0  0  0  0  0  0  0  0  0
  183.8020  178.2460  141.6190 C   0  0  0  0  0  3  0  0  0  0  0  0
  181.8500  179.0100  142.7460 C   0  0  0  0  0  0  0  0  0  0  0  0
  180.0820  180.5830  142.9260 O   0  0  0  0  0  1  0  0  0  0  0  0
  179.4680  178.4510  142.3620 O   0  0  0  0  0  0  0  0  0  0  0  0
  180.4340  179.3970  142.6870 C   0  0  0  0  0  0  0  0  0  0  0  0
  190.6000  177.0870  138.2730 C   0  0  0  0  0  2  0  0  0  0  0  0
  191.6350  176.1220  138.8350 C   0  0  1  0  0  3  0  0  0  0  0  0
  191.5390  174.8840  138.1950 O   0  0  0  0  0  1  0  0  0  0  0  0
  193.7330  177.1390  139.7900 N   0  0  0  0  0  1  0  0  0  0  0  0
  193.5180  176.7680  137.5080 O   0  0  0  0  0  0  0  0  0  0  0  0
  193.0060  176.6810  138.6570 C   0  0  0  0  0  0  0  0  0  0  0  0
  1  2  1  0  0  0  0
  2  7  1  0  0  0  0
  3  6  1  0  0  0  0
  3  5  2  0  0  0  0
  4  2  2  0  0  0  0
  4 12  1  0  0  0  0
  5  4  1  0  0  0  0
  6  1  2  0  0  0  0
  7  8  1  0  0  0  0
  8 11  1  0  0  0  0
 11  9  1  0  0  0  0
 11 10  1  0  0  0  0
 12 13  1  0  0  0  0
 13 17  1  0  0  0  0
 14 18  2  0  0  0  0
 14 19  1  0  0  0  0
 15 16  1  0  0  0  0
 17 16  2  0  0  0  0
 18 17  1  0  0  0  0
 19 15  2  0  0  0  0
 21 22  2  0  0  0  0
 22 19  1  0  0  0  0
 22 20  1  0  0  0  0
 23 24  1  0  0  0  0
 23  6  1  0  0  0  0
 24 25  1  6  0  0  0
 27 28  2  0  0  0  0
 28 24  1  0  0  0  0
 28 26  1  0  0  0  0
M  END
>  <MODEL>
7

>  <REMARK>
 VINA RESULT:      -7.3      3.395      8.025
  Name = 
  10 active torsions:
  status: ('A' for Active; 'I' for Inactive)
    1  A    between atoms: N_2  and  C_15
    2  A    between atoms: N_2  and  N_23
    3  A    between atoms: C_7  and  N_11
    4  A    between atoms: C_8  and  N_11
    5  A    between atoms: C_8  and  C_14
    6  A    between atoms: C_18  and  C_25
    7  A    between atoms: C_18  and  C_26
    8  A    between atoms: CA_19  and  C_22
    9  A    between atoms: N_23  and  C_24
   10  A    between atoms: C_26  and  C_28
                            x       y       z     vdW  Elec       q    Type
                         _______ _______ _______ _____ _____    ______ ____

>  <TORSDO>
F 10

$$$$
=
 OpenBabel11032420083D

 28 29  0  0  1  0  0  0  0  0999 V2000
  188.8220  177.2450  145.1660 C   0  0  0  0  0  3  0  0  0  0  0  0
  190.0850  177.1940  144.5560 C   0  0  0  0  0  0  0  0  0  0  0  0
  187.7520  177.0370  143.0070 C   0  0  0  0  0  3  0  0  0  0  0  0
  190.1750  177.0640  143.1600 C   0  0  0  0  0  0  0  0  0  0  0  0
  189.0040  176.9850  142.3920 C   0  0  0  0  0  3  0  0  0  0  0  0
  187.6590  177.1710  144.3950 C   0  0  0  0  0  0  0  0  0  0  0  0
  191.2790  177.2710  145.3420 N   0  0  0  0  0  2  0  0  0  0  0  0
  191.9050  176.1060  145.9510 C   0  0  0  0  0  2  0  0  0  0  0  0
  192.7990  175.7020  148.2200 C   0  0  0  0  0  1  0  0  0  0  0  0
  191.0150  177.3780  147.8950 C   0  0  0  0  0  1  0  0  0  0  0  0
  191.5550  176.0410  147.4260 C   0  0  0  0  0  3  0  0  0  0  0  0
  191.4580  177.0100  142.5300 N   0  0  0  0  0  2  0  0  0  0  0  0
  191.7610  177.7940  141.4080 N   0  0  0  0  0  2  0  0  0  0  0  0
  193.6050  176.5460  138.4670 N   0  0  0  0  0  0  0  0  0  0  0  0
  191.2810  176.1400  138.0940 C   0  0  0  0  0  3  0  0  0  0  0  0
  190.9900  176.7130  139.3330 C   0  0  0  0  0  3  0  0  0  0  0  0
  192.0270  177.2030  140.1360 C   0  0  0  0  0  0  0  0  0  0  0  0
  193.3410  177.1070  139.6780 C   0  0  0  0  0  3  0  0  0  0  0  0
  192.6130  176.0630  137.6680 C   0  0  0  0  0  0  0  0  0  0  0  0
  192.9240  174.2150  136.2120 O   0  0  0  0  0  1  0  0  0  0  0  0
  193.2980  176.2790  135.2980 O   0  0  0  0  0  0  0  0  0  0  0  0
  192.9490  175.4640  136.3680 C   0  0  0  0  0  0  0  0  0  0  0  0
  186.3230  177.2100  145.0550 C   0  0  0  0  0  2  0  0  0  0  0  0
  185.5290  178.4290  144.6060 C   0  0  1  0  0  3  0  0  0  0  0  0
  184.8480  178.1510  143.4190 O   0  0  0  0  0  1  0  0  0  0  0  0
  183.2470  179.2350  145.3050 N   0  0  0  0  0  1  0  0  0  0  0  0
  184.9030  178.8280  146.8800 O   0  0  0  0  0  0  0  0  0  0  0  0
  184.5610  178.8300  145.6670 C   0  0  0  0  0  0  0  0  0  0  0  0
  2  1  1  0  0  0  0
  2  7  1  0  0  0  0
  3  6  1  0  0  0  0
  4  2  2  0  0  0  0
  5  3  2  0  0  0  0
  5  4  1  0  0  0  0
  6 23  1  0  0  0  0
  6  1  2  0  0  0  0
  7  8  1  0  0  0  0
  8 11  1  0  0  0  0
 11 10  1  0  0  0  0
 11  9  1  0  0  0  0
 12  4  1  0  0  0  0
 13 12  1  0  0  0  0
 14 18  1  0  0  0  0
 15 16  2  0  0  0  0
 16 17  1  0  0  0  0
 17 13  1  0  0  0  0
 18 17  2  0  0  0  0
 19 15  1  0  0  0  0
 19 14  2  0  0  0  0
 20 22  1  0  0  0  0
 21 22  2  0  0  0  0
 22 19  1  0  0  0  0
 24 25  1  6  0  0  0
 24 23  1  0  0  0  0
 24 28  1  0  0  0  0
 26 28  1  0  0  0  0
 28 27  2  0  0  0  0
M  END
>  <MODEL>
8

>  <REMARK>
 VINA RESULT:      -7.2      4.459      7.719
  Name = 
  10 active torsions:
  status: ('A' for Active; 'I' for Inactive)
    1  A    between atoms: N_2  and  C_15
    2  A    between atoms: N_2  and  N_23
    3  A    between atoms: C_7  and  N_11
    4  A    between atoms: C_8  and  N_11
    5  A    between atoms: C_8  and  C_14
    6  A    between atoms: C_18  and  C_25
    7  A    between atoms: C_18  and  C_26
    8  A    between atoms: CA_19  and  C_22
    9  A    between atoms: N_23  and  C_24
   10  A    between atoms: C_26  and  C_28
                            x       y       z     vdW  Elec       q    Type
                         _______ _______ _______ _____ _____    ______ ____

>  <TORSDO>
F 10

$$$$
=
 OpenBabel11032420083D

 28 29  0  0  1  0  0  0  0  0999 V2000
  187.0540  177.4920  144.1840 C   0  0  0  0  0  3  0  0  0  0  0  0
  186.8330  177.9070  142.8610 C   0  0  0  0  0  0  0  0  0  0  0  0
  189.4450  177.5990  143.8370 C   0  0  0  0  0  3  0  0  0  0  0  0
  187.9320  178.1690  142.0250 C   0  0  0  0  0  0  0  0  0  0  0  0
  189.2350  178.0130  142.5200 C   0  0  0  0  0  3  0  0  0  0  0  0
  188.3550  177.3340  144.6700 C   0  0  0  0  0  0  0  0  0  0  0  0
  185.5030  178.0690  142.3600 N   0  0  0  0  0  2  0  0  0  0  0  0
  184.6050  179.1220  142.8140 C   0  0  0  0  0  2  0  0  0  0  0  0
  183.7770  178.9970  145.1400 C   0  0  0  0  0  1  0  0  0  0  0  0
  182.1630  179.0020  143.2710 C   0  0  0  0  0  1  0  0  0  0  0  0
  183.5360  178.5380  143.7170 C   0  0  0  0  0  3  0  0  0  0  0  0
  187.7160  178.5940  140.6770 N   0  0  0  0  0  2  0  0  0  0  0  0
  188.7540  178.6110  139.7350 N   0  0  0  0  0  2  0  0  0  0  0  0
  190.6470  175.7150  138.4540 N   0  0  0  0  0  0  0  0  0  0  0  0
  188.5600  175.7890  137.2960 C   0  0  0  0  0  3  0  0  0  0  0  0
  188.2050  176.9250  138.0250 C   0  0  0  0  0  3  0  0  0  0  0  0
  189.0890  177.4500  138.9740 C   0  0  0  0  0  0  0  0  0  0  0  0
  190.3180  176.8220  139.1750 C   0  0  0  0  0  3  0  0  0  0  0  0
  189.8040  175.1860  137.5250 C   0  0  0  0  0  0  0  0  0  0  0  0
  191.3660  173.5160  136.8900 O   0  0  0  0  0  1  0  0  0  0  0  0
  189.2970  173.3650  135.9250 O   0  0  0  0  0  0  0  0  0  0  0  0
  190.2040  173.9880  136.7740 C   0  0  0  0  0  0  0  0  0  0  0  0
  188.5770  176.9080  146.0810 C   0  0  0  0  0  2  0  0  0  0  0  0
  189.7490  177.6610  146.6980 C   0  0  1  0  0  3  0  0  0  0  0  0
  189.3900  178.1730  147.9460 O   0  0  0  0  0  1  0  0  0  0  0  0
  192.0440  176.9110  145.9790 N   0  0  0  0  0  1  0  0  0  0  0  0
  190.9230  175.8360  147.7040 O   0  0  0  0  0  0  0  0  0  0  0  0
  190.9230  176.7530  146.8390 C   0  0  0  0  0  0  0  0  0  0  0  0
  1  6  1  0  0  0  0
  2  1  2  0  0  0  0
  3  6  2  0  0  0  0
  4  5  2  0  0  0  0
  4  2  1  0  0  0  0
  5  3  1  0  0  0  0
  6 23  1  0  0  0  0
  7  8  1  0  0  0  0
  7  2  1  0  0  0  0
  8 11  1  0  0  0  0
 10 11  1  0  0  0  0
 11  9  1  0  0  0  0
 12  4  1  0  0  0  0
 13 12  1  0  0  0  0
 14 18  1  0  0  0  0
 15 19  1  0  0  0  0
 15 16  2  0  0  0  0
 16 17  1  0  0  0  0
 17 18  2  0  0  0  0
 17 13  1  0  0  0  0
 19 14  2  0  0  0  0
 21 22  2  0  0  0  0
 22 20  1  0  0  0  0
 22 19  1  0  0  0  0
 23 24  1  0  0  0  0
 24 28  1  0  0  0  0
 24 25  1  1  0  0  0
 26 28  1  0  0  0  0
 28 27  2  0  0  0  0
M  END
>  <MODEL>
9

>  <REMARK>
 VINA RESULT:      -7.2      3.454      8.396
  Name = 
  10 active torsions:
  status: ('A' for Active; 'I' for Inactive)
    1  A    between atoms: N_2  and  C_15
    2  A    between atoms: N_2  and  N_23
    3  A    between atoms: C_7  and  N_11
    4  A    between atoms: C_8  and  N_11
    5  A    between atoms: C_8  and  C_14
    6  A    between atoms: C_18  and  C_25
    7  A    between atoms: C_18  and  C_26
    8  A    between atoms: CA_19  and  C_22
    9  A    between atoms: N_23  and  C_24
   10  A    between atoms: C_26  and  C_28
                            x       y       z     vdW  Elec       q    Type
                         _______ _______ _______ _____ _____    ______ ____

>  <TORSDO>
F 10

$$$$
