=
 OpenBabel11032419343D

 31 35  0  0  1  0  0  0  0  0999 V2000
  186.5470  178.3310  142.2360 C   0  0  0  0  0  3  0  0  0  0  0  0
  189.1580  177.4810  141.5440 C   0  0  0  0  0  0  0  0  0  0  0  0
  186.5180  178.3250  146.9430 C   0  0  0  0  0  2  0  0  0  0  0  0
  187.4080  177.7930  143.1870 C   0  0  0  0  0  0  0  0  0  0  0  0
  187.1960  177.5820  144.6140 C   0  0  2  0  0  3  0  0  0  0  0  0
  188.3020  178.0300  140.5590 C   0  0  0  0  0  0  0  0  0  0  0  0
  190.5270  176.9880  141.1980 C   0  0  0  0  0  1  0  0  0  0  0  0
  190.6590  177.3980  144.4760 C   0  0  0  0  0  3  0  0  0  0  0  0
  186.0450  178.0150  145.5020 C   0  0  2  0  0  3  0  0  0  0  0  0
  189.3490  176.7770  144.0560 C   0  0  2  0  0  3  0  0  0  0  0  0
  188.6910  177.3960  142.8600 C   0  0  0  0  0  0  0  0  0  0  0  0
  188.3030  177.0360  145.0980 C   0  0  1  0  0  3  0  0  0  0  0  0
  188.6420  177.1550  146.5120 C   0  0  0  0  0  0  0  0  0  0  0  0
  186.9950  178.4540  140.9060 C   0  0  0  0  0  0  0  0  0  0  0  0
  190.9270  177.6520  145.7700 C   0  0  0  0  0  3  0  0  0  0  0  0
  187.5170  177.2870  147.4840 C   0  0  0  0  0  2  0  0  0  0  0  0
  189.9020  177.4690  146.8330 C   0  0  0  0  0  3  0  0  0  0  0  0
  188.7560  178.1380  139.1340 C   0  0  0  0  0  2  0  0  0  0  0  0
  188.3190  176.9140  138.3510 C   0  0  0  0  0  1  0  0  0  0  0  0
  185.3240  179.2330  144.9380 C   0  0  0  0  0  2  0  0  0  0  0  0
  183.8200  179.0200  144.9310 C   0  0  0  0  0  2  0  0  0  0  0  0
  183.3170  179.0810  143.5660 N   0  0  0  0  0  2  0  0  0  0  0  0
  180.2520  178.7770  141.5790 C   0  0  0  0  0  2  0  0  0  0  0  0
  181.9410  178.8840  143.2350 C   0  0  0  0  0  0  0  0  0  0  0  0
  181.5510  178.9600  141.9340 N   0  0  0  0  0  0  0  0  0  0  0  0
  180.9890  178.6140  144.2250 C   0  0  0  0  0  2  0  0  0  0  0  0
  179.6630  178.4300  143.8410 C   0  0  0  0  0  3  0  0  0  0  0  0
  179.3170  178.5150  142.5300 N   0  0  0  0  0  0  0  0  0  0  0  0
  186.1600  178.9910  139.9180 O   0  0  0  0  0  0  0  0  0  0  0  0
  184.7450  179.0100  140.0340 C   0  0  0  0  0  2  0  0  0  0  0  0
  184.2040  180.0600  139.1880 N   0  0  0  0  0  1  0  0  0  0  0  0
  1  4  1  0  0  0  0
  2 11  1  0  0  0  0
  3 16  1  0  0  0  0
  5  4  1  1  0  0  0
  5 12  1  0  0  0  0
  5  9  1  0  0  0  0
  6 14  1  0  0  0  0
  6  2  2  0  0  0  0
  7  2  1  0  0  0  0
  8 15  2  0  0  0  0
  9 20  1  6  0  0  0
  9  3  1  0  0  0  0
 10  8  1  1  0  0  0
 10 12  1  0  0  0  0
 11  4  2  0  0  0  0
 11 10  1  0  0  0  0
 12 13  1  1  0  0  0
 13 17  2  0  0  0  0
 13 16  1  0  0  0  0
 14  1  2  0  0  0  0
 15 17  1  0  0  0  0
 18  6  1  0  0  0  0
 19 18  1  0  0  0  0
 21 20  1  0  0  0  0
 22 21  1  0  0  0  0
 23 25  1  0  0  0  0
 23 28  1  0  0  0  0
 24 22  1  0  0  0  0
 24 26  1  0  0  0  0
 25 24  2  0  0  0  0
 27 26  1  0  0  0  0
 28 27  2  0  0  0  0
 29 30  1  0  0  0  0
 29 14  1  0  0  0  0
 31 30  1  0  0  0  0
M  END
>  <MODEL>
1

>  <REMARK>
 VINA RESULT:     -10.4      0.000      0.000
  Name = 
  6 active torsions:
  status: ('A' for Active; 'I' for Inactive)
    1  A    between atoms: N_2  and  C_27
    2  A    between atoms: C_3  and  C_13
    3  A    between atoms: C_6  and  O_30
    4  A    between atoms: C_16  and  C_25
    5  A    between atoms: C_24  and  O_30
    6  A    between atoms: C_25  and  C_27
                            x       y       z     vdW  Elec       q    Type
                         _______ _______ _______ _____ _____    ______ ____

>  <TORSDO>
F 6

$$$$
=
 OpenBabel11032419343D

 31 35  0  0  1  0  0  0  0  0999 V2000
  187.1320  177.8250  142.8290 C   0  0  0  0  0  3  0  0  0  0  0  0
  185.7840  178.2810  145.2770 C   0  0  0  0  0  0  0  0  0  0  0  0
  191.4080  176.3240  144.1050 C   0  0  0  0  0  2  0  0  0  0  0  0
  187.8160  177.8340  144.0400 C   0  0  0  0  0  0  0  0  0  0  0  0
  189.2340  177.6150  144.3060 C   0  0  2  0  0  3  0  0  0  0  0  0
  185.0650  178.2710  144.0570 C   0  0  0  0  0  0  0  0  0  0  0  0
  185.1030  178.5580  146.5790 C   0  0  0  0  0  1  0  0  0  0  0  0
  187.9290  177.0990  147.4800 C   0  0  0  0  0  3  0  0  0  0  0  0
  190.3430  177.1730  143.3700 C   0  0  2  0  0  3  0  0  0  0  0  0
  188.1570  178.0830  146.3590 C   0  0  2  0  0  3  0  0  0  0  0  0
  187.1610  178.0340  145.2400 C   0  0  0  0  0  0  0  0  0  0  0  0
  189.4090  177.7300  145.6150 C   0  0  1  0  0  3  0  0  0  0  0  0
  190.5420  177.0950  146.2780 C   0  0  0  0  0  0  0  0  0  0  0  0
  185.7410  178.0430  142.8320 C   0  0  0  0  0  0  0  0  0  0  0  0
  188.9480  176.3910  148.0040 C   0  0  0  0  0  3  0  0  0  0  0  0
  191.7890  176.8980  145.4810 C   0  0  0  0  0  2  0  0  0  0  0  0
  190.3150  176.4350  147.4190 C   0  0  0  0  0  3  0  0  0  0  0  0
  183.5890  178.5330  144.0440 C   0  0  0  0  0  2  0  0  0  0  0  0
  183.3220  180.0150  143.8610 C   0  0  0  0  0  1  0  0  0  0  0  0
  189.8000  176.3820  142.1860 C   0  0  0  0  0  2  0  0  0  0  0  0
  190.5020  176.7810  140.8980 C   0  0  0  0  0  2  0  0  0  0  0  0
  189.7640  177.8510  140.2430 N   0  0  0  0  0  2  0  0  0  0  0  0
  188.6340  179.0170  136.9570 C   0  0  0  0  0  2  0  0  0  0  0  0
  189.5550  177.9000  138.8300 C   0  0  0  0  0  0  0  0  0  0  0  0
  188.8520  178.9340  138.2960 N   0  0  0  0  0  0  0  0  0  0  0  0
  190.0620  176.9040  137.9880 C   0  0  0  0  0  2  0  0  0  0  0  0
  189.8270  177.0060  136.6190 C   0  0  0  0  0  3  0  0  0  0  0  0
  189.1190  178.0560  136.1280 N   0  0  0  0  0  0  0  0  0  0  0  0
  185.0150  178.0410  141.6350 O   0  0  0  0  0  0  0  0  0  0  0  0
  185.5210  178.5920  140.4270 C   0  0  0  0  0  2  0  0  0  0  0  0
  184.6600  179.6770  139.9920 N   0  0  0  0  0  1  0  0  0  0  0  0
  1 14  2  0  0  0  0
  1  4  1  0  0  0  0
  2  7  1  0  0  0  0
  3 16  1  0  0  0  0
  4 11  2  0  0  0  0
  5  4  1  1  0  0  0
  5 12  1  0  0  0  0
  6  2  2  0  0  0  0
  8 15  2  0  0  0  0
  9 20  1  6  0  0  0
  9  3  1  0  0  0  0
  9  5  1  0  0  0  0
 10  8  1  1  0  0  0
 11  2  1  0  0  0  0
 11 10  1  0  0  0  0
 12 13  1  1  0  0  0
 12 10  1  0  0  0  0
 13 17  2  0  0  0  0
 14  6  1  0  0  0  0
 16 13  1  0  0  0  0
 17 15  1  0  0  0  0
 18  6  1  0  0  0  0
 19 18  1  0  0  0  0
 21 20  1  0  0  0  0
 22 21  1  0  0  0  0
 23 25  1  0  0  0  0
 24 22  1  0  0  0  0
 25 24  2  0  0  0  0
 26 24  1  0  0  0  0
 27 26  1  0  0  0  0
 28 27  2  0  0  0  0
 28 23  1  0  0  0  0
 29 14  1  0  0  0  0
 30 29  1  0  0  0  0
 31 30  1  0  0  0  0
M  END
>  <MODEL>
2

>  <REMARK>
 VINA RESULT:     -10.2      2.169      6.192
  Name = 
  6 active torsions:
  status: ('A' for Active; 'I' for Inactive)
    1  A    between atoms: N_2  and  C_27
    2  A    between atoms: C_3  and  C_13
    3  A    between atoms: C_6  and  O_30
    4  A    between atoms: C_16  and  C_25
    5  A    between atoms: C_24  and  O_30
    6  A    between atoms: C_25  and  C_27
                            x       y       z     vdW  Elec       q    Type
                         _______ _______ _______ _____ _____    ______ ____

>  <TORSDO>
F 6

$$$$
=
 OpenBabel11032419343D

 31 35  0  0  1  0  0  0  0  0999 V2000
  189.4340  177.4760  143.4230 C   0  0  0  0  0  3  0  0  0  0  0  0
  189.1300  177.1950  146.2250 C   0  0  0  0  0  0  0  0  0  0  0  0
  185.2250  178.9630  141.9270 C   0  0  0  0  0  2  0  0  0  0  0  0
  188.1800  177.5260  144.0220 C   0  0  0  0  0  0  0  0  0  0  0  0
  186.8700  177.7310  143.4150 C   0  0  2  0  0  3  0  0  0  0  0  0
  190.4180  177.1470  145.6380 C   0  0  0  0  0  0  0  0  0  0  0  0
  188.9370  177.0100  147.6950 C   0  0  0  0  0  1  0  0  0  0  0  0
  186.1300  178.4630  146.7260 C   0  0  0  0  0  3  0  0  0  0  0  0
  186.5050  178.0930  141.9880 C   0  0  2  0  0  3  0  0  0  0  0  0
  186.5680  177.4090  145.7380 C   0  0  2  0  0  3  0  0  0  0  0  0
  188.0260  177.4110  145.3910 C   0  0  0  0  0  0  0  0  0  0  0  0
  185.9740  177.6910  144.3920 C   0  0  1  0  0  3  0  0  0  0  0  0
  184.6770  178.3420  144.2470 C   0  0  0  0  0  0  0  0  0  0  0  0
  190.5680  177.2870  144.2360 C   0  0  0  0  0  0  0  0  0  0  0  0
  185.0080  179.1790  146.5280 C   0  0  0  0  0  3  0  0  0  0  0  0
  184.1150  178.4650  142.8690 C   0  0  0  0  0  2  0  0  0  0  0  0
  184.2210  179.0720  145.2700 C   0  0  0  0  0  3  0  0  0  0  0  0
  191.6300  176.9140  146.4890 C   0  0  0  0  0  2  0  0  0  0  0  0
  191.9950  175.4420  146.4890 C   0  0  0  0  0  1  0  0  0  0  0  0
  187.6420  178.8230  141.2820 C   0  0  0  0  0  2  0  0  0  0  0  0
  187.8850  178.2420  139.9000 C   0  0  0  0  0  2  0  0  0  0  0  0
  188.9470  177.2480  139.9600 N   0  0  0  0  0  2  0  0  0  0  0  0
  191.3430  175.4210  137.8740 C   0  0  0  0  0  3  0  0  0  0  0  0
  189.6620  176.8020  138.8060 C   0  0  0  0  0  0  0  0  0  0  0  0
  190.6420  175.8710  138.9470 N   0  0  0  0  0  0  0  0  0  0  0  0
  189.3690  177.3070  137.5330 C   0  0  0  0  0  3  0  0  0  0  0  0
  190.0990  176.8340  136.4460 C   0  0  0  0  0  3  0  0  0  0  0  0
  191.0710  175.9030  136.6330 N   0  0  0  0  0  0  0  0  0  0  0  0
  191.8500  177.2320  143.6730 O   0  0  0  0  0  0  0  0  0  0  0  0
  192.1000  176.6970  142.3810 C   0  0  0  0  0  2  0  0  0  0  0  0
  192.1900  177.7800  141.4180 N   0  0  0  0  0  1  0  0  0  0  0  0
  1  4  2  0  0  0  0
  1 14  1  0  0  0  0
  2  7  1  0  0  0  0
  3  9  1  0  0  0  0
  3 16  1  0  0  0  0
  4 11  1  0  0  0  0
  5  4  1  1  0  0  0
  5 12  1  0  0  0  0
  6  2  1  0  0  0  0
  6 18  1  0  0  0  0
  9 20  1  1  0  0  0
  9  5  1  0  0  0  0
 10  8  1  1  0  0  0
 11 10  1  0  0  0  0
 11  2  2  0  0  0  0
 12 13  1  1  0  0  0
 12 10  1  0  0  0  0
 13 17  2  0  0  0  0
 14  6  2  0  0  0  0
 15  8  2  0  0  0  0
 16 13  1  0  0  0  0
 17 15  1  0  0  0  0
 19 18  1  0  0  0  0
 21 22  1  0  0  0  0
 21 20  1  0  0  0  0
 23 25  1  0  0  0  0
 24 25  2  0  0  0  0
 24 22  1  0  0  0  0
 26 24  1  0  0  0  0
 27 28  1  0  0  0  0
 27 26  2  0  0  0  0
 28 23  2  0  0  0  0
 29 14  1  0  0  0  0
 30 29  1  0  0  0  0
 31 30  1  0  0  0  0
M  END
>  <MODEL>
3

>  <REMARK>
 VINA RESULT:     -10.0      3.463      7.179
  Name = 
  6 active torsions:
  status: ('A' for Active; 'I' for Inactive)
    1  A    between atoms: N_2  and  C_27
    2  A    between atoms: C_3  and  C_13
    3  A    between atoms: C_6  and  O_30
    4  A    between atoms: C_16  and  C_25
    5  A    between atoms: C_24  and  O_30
    6  A    between atoms: C_25  and  C_27
                            x       y       z     vdW  Elec       q    Type
                         _______ _______ _______ _____ _____    ______ ____

>  <TORSDO>
F 6

$$$$
=
 OpenBabel11032419343D

 31 35  0  0  1  0  0  0  0  0999 V2000
  188.3380  177.6510  142.3120 C   0  0  0  0  0  3  0  0  0  0  0  0
  189.3150  177.1670  144.9260 C   0  0  0  0  0  0  0  0  0  0  0  0
  183.9420  179.2020  142.9700 C   0  0  0  0  0  2  0  0  0  0  0  0
  187.4870  177.6460  143.4130 C   0  0  0  0  0  0  0  0  0  0  0  0
  186.0490  177.8820  143.4730 C   0  0  2  0  0  3  0  0  0  0  0  0
  190.2020  177.1730  143.8230 C   0  0  0  0  0  0  0  0  0  0  0  0
  189.7980  176.8760  146.3110 C   0  0  0  0  0  1  0  0  0  0  0  0
  186.8900  178.3690  146.8050 C   0  0  0  0  0  3  0  0  0  0  0  0
  185.0920  178.3420  142.3900 C   0  0  2  0  0  3  0  0  0  0  0  0
  186.8130  177.3920  145.6570 C   0  0  2  0  0  3  0  0  0  0  0  0
  187.9610  177.4320  144.6940 C   0  0  0  0  0  0  0  0  0  0  0  0
  185.6860  177.7640  144.7430 C   0  0  1  0  0  3  0  0  0  0  0  0
  184.4770  178.4120  145.2400 C   0  0  0  0  0  0  0  0  0  0  0  0
  189.7110  177.4140  142.5150 C   0  0  0  0  0  0  0  0  0  0  0  0
  185.8150  179.0880  147.1820 C   0  0  0  0  0  3  0  0  0  0  0  0
  183.3600  178.6280  144.2730 C   0  0  0  0  0  2  0  0  0  0  0  0
  184.5460  179.0640  146.4060 C   0  0  0  0  0  3  0  0  0  0  0  0
  191.6610  176.8910  144.0200 C   0  0  0  0  0  2  0  0  0  0  0  0
  191.9100  175.3950  144.0210 C   0  0  0  0  0  1  0  0  0  0  0  0
  185.8090  179.1300  141.3010 C   0  0  0  0  0  2  0  0  0  0  0  0
  185.3400  178.7010  139.9210 C   0  0  0  0  0  2  0  0  0  0  0  0
  184.5330  179.7550  139.3220 N   0  0  0  0  0  2  0  0  0  0  0  0
  181.0810  180.6500  138.4780 C   0  0  0  0  0  3  0  0  0  0  0  0
  183.1130  179.6670  139.1910 C   0  0  0  0  0  0  0  0  0  0  0  0
  182.4320  180.6970  138.6220 N   0  0  0  0  0  0  0  0  0  0  0  0
  182.4130  178.5410  139.6380 C   0  0  0  0  0  3  0  0  0  0  0  0
  181.0290  178.5120  139.4820 C   0  0  0  0  0  3  0  0  0  0  0  0
  180.3880  179.5640  138.9080 N   0  0  0  0  0  0  0  0  0  0  0  0
  190.6030  177.4110  141.4340 O   0  0  0  0  0  0  0  0  0  0  0  0
  190.1710  177.4000  140.0810 C   0  0  0  0  0  2  0  0  0  0  0  0
  190.6450  176.1900  139.4320 N   0  0  0  0  0  1  0  0  0  0  0  0
  1 14  2  0  0  0  0
  1  4  1  0  0  0  0
  2  7  1  0  0  0  0
  3 16  1  0  0  0  0
  4 11  2  0  0  0  0
  5  4  1  1  0  0  0
  5 12  1  0  0  0  0
  6 18  1  0  0  0  0
  6  2  2  0  0  0  0
  8 15  2  0  0  0  0
  9 20  1  6  0  0  0
  9  3  1  0  0  0  0
  9  5  1  0  0  0  0
 10  8  1  1  0  0  0
 11  2  1  0  0  0  0
 11 10  1  0  0  0  0
 12 13  1  1  0  0  0
 12 10  1  0  0  0  0
 13 17  2  0  0  0  0
 14  6  1  0  0  0  0
 16 13  1  0  0  0  0
 17 15  1  0  0  0  0
 18 19  1  0  0  0  0
 21 20  1  0  0  0  0
 22 21  1  0  0  0  0
 23 25  1  0  0  0  0
 23 28  2  0  0  0  0
 24 22  1  0  0  0  0
 24 26  1  0  0  0  0
 25 24  2  0  0  0  0
 27 26  2  0  0  0  0
 28 27  1  0  0  0  0
 29 14  1  0  0  0  0
 30 29  1  0  0  0  0
 31 30  1  0  0  0  0
M  END
>  <MODEL>
4

>  <REMARK>
 VINA RESULT:     -10.0      2.241      4.468
  Name = 
  6 active torsions:
  status: ('A' for Active; 'I' for Inactive)
    1  A    between atoms: N_2  and  C_27
    2  A    between atoms: C_3  and  C_13
    3  A    between atoms: C_6  and  O_30
    4  A    between atoms: C_16  and  C_25
    5  A    between atoms: C_24  and  O_30
    6  A    between atoms: C_25  and  C_27
                            x       y       z     vdW  Elec       q    Type
                         _______ _______ _______ _____ _____    ______ ____

>  <TORSDO>
F 6

$$$$
=
 OpenBabel11032419343D

 31 35  0  0  1  0  0  0  0  0999 V2000
  189.4010  177.6380  143.4740 C   0  0  0  0  0  3  0  0  0  0  0  0
  189.0310  177.2510  146.2550 C   0  0  0  0  0  0  0  0  0  0  0  0
  185.1860  179.0390  141.9130 C   0  0  0  0  0  2  0  0  0  0  0  0
  188.1300  177.6260  144.0390 C   0  0  0  0  0  0  0  0  0  0  0  0
  186.8300  177.8100  143.4030 C   0  0  2  0  0  3  0  0  0  0  0  0
  190.3350  177.2640  145.7030 C   0  0  0  0  0  0  0  0  0  0  0  0
  188.8060  177.0100  147.7130 C   0  0  0  0  0  1  0  0  0  0  0  0
  185.9790  178.4040  146.7150 C   0  0  0  0  0  3  0  0  0  0  0  0
  186.4910  178.2090  141.9800 C   0  0  2  0  0  3  0  0  0  0  0  0
  186.4780  177.4000  145.7050 C   0  0  2  0  0  3  0  0  0  0  0  0
  187.9440  177.4600  145.3990 C   0  0  0  0  0  0  0  0  0  0  0  0
  185.9110  177.7080  144.3530 C   0  0  1  0  0  3  0  0  0  0  0  0
  184.5980  178.3220  144.1950 C   0  0  0  0  0  0  0  0  0  0  0  0
  190.5190  177.4570  144.3100 C   0  0  0  0  0  0  0  0  0  0  0  0
  184.8400  179.0910  146.5110 C   0  0  0  0  0  3  0  0  0  0  0  0
  184.0690  178.4740  142.8060 C   0  0  0  0  0  2  0  0  0  0  0  0
  184.0910  179.0020  145.2280 C   0  0  0  0  0  3  0  0  0  0  0  0
  191.5320  177.0420  146.5780 C   0  0  0  0  0  2  0  0  0  0  0  0
  192.0140  175.6090  146.4520 C   0  0  0  0  0  1  0  0  0  0  0  0
  187.6220  178.9990  141.3310 C   0  0  0  0  0  2  0  0  0  0  0  0
  188.2080  178.2390  140.1520 C   0  0  0  0  0  2  0  0  0  0  0  0
  187.3060  178.3210  139.0120 N   0  0  0  0  0  2  0  0  0  0  0  0
  187.1640  177.8700  135.3780 C   0  0  0  0  0  3  0  0  0  0  0  0
  187.7170  178.0350  137.6740 C   0  0  0  0  0  0  0  0  0  0  0  0
  186.8120  178.1320  136.6640 N   0  0  0  0  0  0  0  0  0  0  0  0
  189.0340  177.6590  137.3850 C   0  0  0  0  0  3  0  0  0  0  0  0
  189.3750  177.3940  136.0610 C   0  0  0  0  0  3  0  0  0  0  0  0
  188.4380  177.5030  135.0830 N   0  0  0  0  0  0  0  0  0  0  0  0
  191.8150  177.4620  143.7810 O   0  0  0  0  0  0  0  0  0  0  0  0
  192.1690  176.7510  142.6030 C   0  0  0  0  0  2  0  0  0  0  0  0
  192.0300  177.6240  141.4520 N   0  0  0  0  0  1  0  0  0  0  0  0
  1  4  2  0  0  0  0
  1 14  1  0  0  0  0
  2  7  1  0  0  0  0
  3  9  1  0  0  0  0
  3 16  1  0  0  0  0
  4 11  1  0  0  0  0
  5  4  1  1  0  0  0
  5 12  1  0  0  0  0
  6  2  1  0  0  0  0
  6 18  1  0  0  0  0
  9 20  1  1  0  0  0
  9  5  1  0  0  0  0
 10  8  1  1  0  0  0
 11 10  1  0  0  0  0
 11  2  2  0  0  0  0
 12 13  1  1  0  0  0
 12 10  1  0  0  0  0
 13 17  2  0  0  0  0
 14  6  2  0  0  0  0
 15  8  2  0  0  0  0
 16 13  1  0  0  0  0
 17 15  1  0  0  0  0
 19 18  1  0  0  0  0
 21 20  1  0  0  0  0
 22 21  1  0  0  0  0
 23 25  1  0  0  0  0
 24 22  1  0  0  0  0
 25 24  2  0  0  0  0
 26 24  1  0  0  0  0
 27 26  2  0  0  0  0
 28 23  2  0  0  0  0
 28 27  1  0  0  0  0
 29 14  1  0  0  0  0
 30 29  1  0  0  0  0
 31 30  1  0  0  0  0
M  END
>  <MODEL>
5

>  <REMARK>
 VINA RESULT:      -9.8      3.093      6.756
  Name = 
  6 active torsions:
  status: ('A' for Active; 'I' for Inactive)
    1  A    between atoms: N_2  and  C_27
    2  A    between atoms: C_3  and  C_13
    3  A    between atoms: C_6  and  O_30
    4  A    between atoms: C_16  and  C_25
    5  A    between atoms: C_24  and  O_30
    6  A    between atoms: C_25  and  C_27
                            x       y       z     vdW  Elec       q    Type
                         _______ _______ _______ _____ _____    ______ ____

>  <TORSDO>
F 6

$$$$
=
 OpenBabel11032419343D

 31 35  0  0  1  0  0  0  0  0999 V2000
  187.4820  178.1900  141.4550 C   0  0  0  0  0  3  0  0  0  0  0  0
  189.9580  177.2150  142.4260 C   0  0  0  0  0  0  0  0  0  0  0  0
  184.8700  178.8190  145.3210 C   0  0  0  0  0  2  0  0  0  0  0  0
  187.6270  177.7730  142.7740 C   0  0  0  0  0  0  0  0  0  0  0  0
  186.6490  177.7590  143.8550 C   0  0  2  0  0  3  0  0  0  0  0  0
  189.8360  177.6390  141.0800 C   0  0  0  0  0  0  0  0  0  0  0  0
  191.2420  176.6600  142.9530 C   0  0  0  0  0  1  0  0  0  0  0  0
  189.5860  177.5070  145.6870 C   0  0  0  0  0  3  0  0  0  0  0  0
  185.2420  178.3250  143.9020 C   0  0  2  0  0  3  0  0  0  0  0  0
  188.6740  176.8550  144.6760 C   0  0  2  0  0  3  0  0  0  0  0  0
  188.8390  177.3160  143.2600 C   0  0  0  0  0  0  0  0  0  0  0  0
  187.2550  177.2670  144.9270 C   0  0  1  0  0  3  0  0  0  0  0  0
  186.7700  177.5710  146.2680 C   0  0  0  0  0  0  0  0  0  0  0  0
  188.5960  178.1260  140.5960 C   0  0  0  0  0  0  0  0  0  0  0  0
  189.1190  177.9290  146.8760 C   0  0  0  0  0  3  0  0  0  0  0  0
  185.3120  177.8490  146.4300 C   0  0  0  0  0  2  0  0  0  0  0  0
  187.6670  177.9070  147.2020 C   0  0  0  0  0  3  0  0  0  0  0  0
  191.0050  177.5470  140.1470 C   0  0  0  0  0  2  0  0  0  0  0  0
  190.8560  176.3410  139.2390 C   0  0  0  0  0  1  0  0  0  0  0  0
  185.0600  179.4660  142.9090 C   0  0  0  0  0  2  0  0  0  0  0  0
  183.8200  179.2530  142.0570 C   0  0  0  0  0  2  0  0  0  0  0  0
  184.1770  179.2840  140.6460 N   0  0  0  0  0  2  0  0  0  0  0  0
  183.8080  177.4210  137.5110 C   0  0  0  0  0  3  0  0  0  0  0  0
  183.7860  178.2660  139.7220 C   0  0  0  0  0  0  0  0  0  0  0  0
  184.1590  178.3700  138.4190 N   0  0  0  0  0  0  0  0  0  0  0  0
  183.0290  177.1640  140.1370 C   0  0  0  0  0  3  0  0  0  0  0  0
  182.6780  176.2030  139.1910 C   0  0  0  0  0  3  0  0  0  0  0  0
  183.0720  176.3480  137.8980 N   0  0  0  0  0  0  0  0  0  0  0  0
  188.4920  178.5370  139.2610 O   0  0  0  0  0  0  0  0  0  0  0  0
  187.6010  177.9300  138.3360 C   0  0  0  0  0  2  0  0  0  0  0  0
  187.3840  178.8260  137.2140 N   0  0  0  0  0  1  0  0  0  0  0  0
  1  4  1  0  0  0  0
  2  7  1  0  0  0  0
  2 11  1  0  0  0  0
  3 16  1  0  0  0  0
  4 11  2  0  0  0  0
  5  4  1  1  0  0  0
  5  9  1  0  0  0  0
  5 12  1  0  0  0  0
  6  2  2  0  0  0  0
  8 15  2  0  0  0  0
  9 20  1  6  0  0  0
  9  3  1  0  0  0  0
 10 12  1  0  0  0  0
 10  8  1  1  0  0  0
 11 10  1  0  0  0  0
 12 13  1  1  0  0  0
 13 16  1  0  0  0  0
 13 17  2  0  0  0  0
 14  6  1  0  0  0  0
 14  1  2  0  0  0  0
 15 17  1  0  0  0  0
 18  6  1  0  0  0  0
 19 18  1  0  0  0  0
 21 20  1  0  0  0  0
 22 21  1  0  0  0  0
 23 28  2  0  0  0  0
 23 25  1  0  0  0  0
 24 26  1  0  0  0  0
 24 22  1  0  0  0  0
 25 24  2  0  0  0  0
 27 26  2  0  0  0  0
 28 27  1  0  0  0  0
 29 14  1  0  0  0  0
 30 29  1  0  0  0  0
 31 30  1  0  0  0  0
M  END
>  <MODEL>
6

>  <REMARK>
 VINA RESULT:      -9.8      2.032      3.017
  Name = 
  6 active torsions:
  status: ('A' for Active; 'I' for Inactive)
    1  A    between atoms: N_2  and  C_27
    2  A    between atoms: C_3  and  C_13
    3  A    between atoms: C_6  and  O_30
    4  A    between atoms: C_16  and  C_25
    5  A    between atoms: C_24  and  O_30
    6  A    between atoms: C_25  and  C_27
                            x       y       z     vdW  Elec       q    Type
                         _______ _______ _______ _____ _____    ______ ____

>  <TORSDO>
F 6

$$$$
=
 OpenBabel11032419343D

 31 35  0  0  1  0  0  0  0  0999 V2000
  188.2950  177.6620  142.3270 C   0  0  0  0  0  3  0  0  0  0  0  0
  189.3870  177.1070  144.8800 C   0  0  0  0  0  0  0  0  0  0  0  0
  183.9480  179.2290  143.2250 C   0  0  0  0  0  2  0  0  0  0  0  0
  187.4950  177.6360  143.4650 C   0  0  0  0  0  0  0  0  0  0  0  0
  186.0640  177.8820  143.5980 C   0  0  2  0  0  3  0  0  0  0  0  0
  190.2220  177.1330  143.7360 C   0  0  0  0  0  0  0  0  0  0  0  0
  189.9310  176.7790  146.2330 C   0  0  0  0  0  1  0  0  0  0  0  0
  187.0630  178.2810  146.8980 C   0  0  0  0  0  3  0  0  0  0  0  0
  185.0610  178.3750  142.5720 C   0  0  2  0  0  3  0  0  0  0  0  0
  186.9240  177.3330  145.7310 C   0  0  2  0  0  3  0  0  0  0  0  0
  188.0260  177.3880  144.7170 C   0  0  0  0  0  0  0  0  0  0  0  0
  185.7590  177.7360  144.8800 C   0  0  1  0  0  3  0  0  0  0  0  0
  184.5810  178.3800  145.4480 C   0  0  0  0  0  0  0  0  0  0  0  0
  189.6740  177.4100  142.4590 C   0  0  0  0  0  0  0  0  0  0  0  0
  186.0130  178.9980  147.3410 C   0  0  0  0  0  3  0  0  0  0  0  0
  183.4220  178.6280  144.5400 C   0  0  0  0  0  2  0  0  0  0  0  0
  184.7090  179.0030  146.6250 C   0  0  0  0  0  3  0  0  0  0  0  0
  191.6860  176.8350  143.8590 C   0  0  0  0  0  2  0  0  0  0  0  0
  191.9090  175.3390  143.9680 C   0  0  0  0  0  1  0  0  0  0  0  0
  185.7340  179.1840  141.4700 C   0  0  0  0  0  2  0  0  0  0  0  0
  185.1770  178.8130  140.1060 C   0  0  0  0  0  2  0  0  0  0  0  0
  186.2680  178.6280  139.1590 N   0  0  0  0  0  2  0  0  0  0  0  0
  187.0610  177.1970  135.8800 C   0  0  0  0  0  3  0  0  0  0  0  0
  186.1060  177.9580  137.9080 C   0  0  0  0  0  0  0  0  0  0  0  0
  187.1750  177.8280  137.0780 N   0  0  0  0  0  0  0  0  0  0  0  0
  184.8660  177.4340  137.5220 C   0  0  0  0  0  3  0  0  0  0  0  0
  184.7700  176.7910  136.2900 C   0  0  0  0  0  3  0  0  0  0  0  0
  185.8650  176.6840  135.4920 N   0  0  0  0  0  0  0  0  0  0  0  0
  190.5140  177.4260  141.3380 O   0  0  0  0  0  0  0  0  0  0  0  0
  190.0320  177.2510  140.0130 C   0  0  0  0  0  2  0  0  0  0  0  0
  190.5560  176.0110  139.4680 N   0  0  0  0  0  1  0  0  0  0  0  0
  1 14  2  0  0  0  0
  1  4  1  0  0  0  0
  2  7  1  0  0  0  0
  3 16  1  0  0  0  0
  4 11  2  0  0  0  0
  5  4  1  1  0  0  0
  5 12  1  0  0  0  0
  6 18  1  0  0  0  0
  6  2  2  0  0  0  0
  8 15  2  0  0  0  0
  9 20  1  6  0  0  0
  9  3  1  0  0  0  0
  9  5  1  0  0  0  0
 10  8  1  1  0  0  0
 11  2  1  0  0  0  0
 11 10  1  0  0  0  0
 12 13  1  1  0  0  0
 12 10  1  0  0  0  0
 13 17  2  0  0  0  0
 14  6  1  0  0  0  0
 16 13  1  0  0  0  0
 17 15  1  0  0  0  0
 18 19  1  0  0  0  0
 21 20  1  0  0  0  0
 22 21  1  0  0  0  0
 23 25  1  0  0  0  0
 24 22  1  0  0  0  0
 25 24  2  0  0  0  0
 26 24  1  0  0  0  0
 27 26  2  0  0  0  0
 28 23  2  0  0  0  0
 28 27  1  0  0  0  0
 29 14  1  0  0  0  0
 30 29  1  0  0  0  0
 31 30  1  0  0  0  0
M  END
>  <MODEL>
7

>  <REMARK>
 VINA RESULT:      -9.7      2.671      5.468
  Name = 
  6 active torsions:
  status: ('A' for Active; 'I' for Inactive)
    1  A    between atoms: N_2  and  C_27
    2  A    between atoms: C_3  and  C_13
    3  A    between atoms: C_6  and  O_30
    4  A    between atoms: C_16  and  C_25
    5  A    between atoms: C_24  and  O_30
    6  A    between atoms: C_25  and  C_27
                            x       y       z     vdW  Elec       q    Type
                         _______ _______ _______ _____ _____    ______ ____

>  <TORSDO>
F 6

$$$$
=
 OpenBabel11032419343D

 31 35  0  0  1  0  0  0  0  0999 V2000
  186.9620  177.8780  142.8390 C   0  0  0  0  0  3  0  0  0  0  0  0
  185.6750  178.3250  145.3220 C   0  0  0  0  0  0  0  0  0  0  0  0
  191.2650  176.3640  144.0040 C   0  0  0  0  0  2  0  0  0  0  0  0
  187.6760  177.8810  144.0330 C   0  0  0  0  0  0  0  0  0  0  0  0
  189.0990  177.6580  144.2630 C   0  0  2  0  0  3  0  0  0  0  0  0
  184.9260  178.3220  144.1200 C   0  0  0  0  0  0  0  0  0  0  0  0
  185.0270  178.5980  146.6410 C   0  0  0  0  0  1  0  0  0  0  0  0
  187.8720  177.1290  147.4670 C   0  0  0  0  0  3  0  0  0  0  0  0
  190.1840  177.2190  143.2980 C   0  0  2  0  0  3  0  0  0  0  0  0
  188.0740  178.1180  146.3440 C   0  0  2  0  0  3  0  0  0  0  0  0
  187.0500  178.0770  145.2500 C   0  0  0  0  0  0  0  0  0  0  0  0
  189.3070  177.7670  145.5680 C   0  0  1  0  0  3  0  0  0  0  0  0
  190.4540  177.1260  146.2010 C   0  0  0  0  0  0  0  0  0  0  0  0
  185.5720  178.0990  142.8780 C   0  0  0  0  0  0  0  0  0  0  0  0
  188.9010  176.4180  147.9620 C   0  0  0  0  0  3  0  0  0  0  0  0
  191.6810  176.9310  145.3720 C   0  0  0  0  0  2  0  0  0  0  0  0
  190.2540  176.4620  147.3440 C   0  0  0  0  0  3  0  0  0  0  0  0
  183.4510  178.5870  144.1440 C   0  0  0  0  0  2  0  0  0  0  0  0
  183.1820  180.0690  143.9630 C   0  0  0  0  0  1  0  0  0  0  0  0
  189.6110  176.4340  142.1240 C   0  0  0  0  0  2  0  0  0  0  0  0
  189.7570  177.2120  140.8270 C   0  0  0  0  0  2  0  0  0  0  0  0
  191.1390  177.1560  140.3710 N   0  0  0  0  0  2  0  0  0  0  0  0
  193.2060  176.3640  137.4500 C   0  0  0  0  0  3  0  0  0  0  0  0
  191.5050  176.7600  139.0470 C   0  0  0  0  0  0  0  0  0  0  0  0
  192.8190  176.7360  138.6980 N   0  0  0  0  0  0  0  0  0  0  0  0
  190.5350  176.3960  138.1060 C   0  0  0  0  0  3  0  0  0  0  0  0
  190.9520  176.0180  136.8320 C   0  0  0  0  0  3  0  0  0  0  0  0
  192.2760  176.0090  136.5260 N   0  0  0  0  0  0  0  0  0  0  0  0
  184.8160  178.1040  141.6990 O   0  0  0  0  0  0  0  0  0  0  0  0
  184.8960  179.1480  140.7380 C   0  0  0  0  0  2  0  0  0  0  0  0
  185.0570  178.5750  139.4140 N   0  0  0  0  0  1  0  0  0  0  0  0
  1 14  2  0  0  0  0
  1  4  1  0  0  0  0
  2  7  1  0  0  0  0
  3 16  1  0  0  0  0
  4 11  2  0  0  0  0
  5  4  1  1  0  0  0
  5 12  1  0  0  0  0
  6 18  1  0  0  0  0
  6  2  2  0  0  0  0
  8 15  2  0  0  0  0
  9 20  1  6  0  0  0
  9  3  1  0  0  0  0
  9  5  1  0  0  0  0
 10  8  1  1  0  0  0
 11  2  1  0  0  0  0
 11 10  1  0  0  0  0
 12 13  1  1  0  0  0
 12 10  1  0  0  0  0
 13 17  2  0  0  0  0
 14  6  1  0  0  0  0
 16 13  1  0  0  0  0
 17 15  1  0  0  0  0
 19 18  1  0  0  0  0
 21 20  1  0  0  0  0
 22 21  1  0  0  0  0
 23 25  1  0  0  0  0
 24 22  1  0  0  0  0
 25 24  2  0  0  0  0
 26 24  1  0  0  0  0
 27 26  2  0  0  0  0
 28 27  1  0  0  0  0
 28 23  2  0  0  0  0
 29 14  1  0  0  0  0
 30 29  1  0  0  0  0
 31 30  1  0  0  0  0
M  END
>  <MODEL>
8

>  <REMARK>
 VINA RESULT:      -9.5      3.164      7.011
  Name = 
  6 active torsions:
  status: ('A' for Active; 'I' for Inactive)
    1  A    between atoms: N_2  and  C_27
    2  A    between atoms: C_3  and  C_13
    3  A    between atoms: C_6  and  O_30
    4  A    between atoms: C_16  and  C_25
    5  A    between atoms: C_24  and  O_30
    6  A    between atoms: C_25  and  C_27
                            x       y       z     vdW  Elec       q    Type
                         _______ _______ _______ _____ _____    ______ ____

>  <TORSDO>
F 6

$$$$
=
 OpenBabel11032419343D

 31 35  0  0  1  0  0  0  0  0999 V2000
  187.4920  178.0710  141.7020 C   0  0  0  0  0  3  0  0  0  0  0  0
  189.9460  177.1670  142.7870 C   0  0  0  0  0  0  0  0  0  0  0  0
  184.7660  178.8570  145.4590 C   0  0  0  0  0  2  0  0  0  0  0  0
  187.6030  177.7170  143.0430 C   0  0  0  0  0  0  0  0  0  0  0  0
  186.5940  177.7460  144.0960 C   0  0  2  0  0  3  0  0  0  0  0  0
  189.8590  177.5250  141.4200 C   0  0  0  0  0  0  0  0  0  0  0  0
  191.2190  176.6490  143.3760 C   0  0  0  0  0  1  0  0  0  0  0  0
  189.4800  177.6080  146.0190 C   0  0  0  0  0  3  0  0  0  0  0  0
  185.1820  178.2990  144.0760 C   0  0  2  0  0  3  0  0  0  0  0  0
  188.6020  176.9000  145.0150 C   0  0  2  0  0  3  0  0  0  0  0  0
  188.8030  177.2960  143.5840 C   0  0  0  0  0  0  0  0  0  0  0  0
  187.1740  177.3100  145.2060 C   0  0  1  0  0  3  0  0  0  0  0  0
  186.6480  177.6720  146.5180 C   0  0  0  0  0  0  0  0  0  0  0  0
  188.6290  177.9770  140.8780 C   0  0  0  0  0  0  0  0  0  0  0  0
  188.9760  178.0820  147.1740 C   0  0  0  0  0  3  0  0  0  0  0  0
  185.1840  177.9440  146.6250 C   0  0  0  0  0  2  0  0  0  0  0  0
  187.5160  178.0610  147.4590 C   0  0  0  0  0  3  0  0  0  0  0  0
  191.0550  177.4000  140.5250 C   0  0  0  0  0  2  0  0  0  0  0  0
  190.7530  176.4580  139.3760 C   0  0  0  0  0  1  0  0  0  0  0  0
  185.0180  179.3910  143.0250 C   0  0  0  0  0  2  0  0  0  0  0  0
  184.0470  178.9590  141.9390 C   0  0  0  0  0  2  0  0  0  0  0  0
  182.7020  178.8650  142.4880 N   0  0  0  0  0  2  0  0  0  0  0  0
  179.1910  178.4420  141.5230 C   0  0  0  0  0  2  0  0  0  0  0  0
  181.5410  178.6890  141.6730 C   0  0  0  0  0  0  0  0  0  0  0  0
  180.3190  178.6080  142.2630 N   0  0  0  0  0  0  0  0  0  0  0  0
  181.6410  178.6000  140.2800 C   0  0  0  0  0  2  0  0  0  0  0  0
  180.4740  178.4300  139.5380 C   0  0  0  0  0  3  0  0  0  0  0  0
  179.2730  178.3540  140.1690 N   0  0  0  0  0  0  0  0  0  0  0  0
  188.5610  178.3230  139.5230 O   0  0  0  0  0  0  0  0  0  0  0  0
  187.4340  178.0270  138.7090 C   0  0  0  0  0  2  0  0  0  0  0  0
  187.5270  178.7710  137.4660 N   0  0  0  0  0  1  0  0  0  0  0  0
  1  4  1  0  0  0  0
  2  7  1  0  0  0  0
  2 11  1  0  0  0  0
  3 16  1  0  0  0  0
  4 11  2  0  0  0  0
  5  4  1  1  0  0  0
  5 12  1  0  0  0  0
  6  2  2  0  0  0  0
  8 15  2  0  0  0  0
  9 20  1  6  0  0  0
  9  5  1  0  0  0  0
  9  3  1  0  0  0  0
 10 12  1  0  0  0  0
 10  8  1  1  0  0  0
 11 10  1  0  0  0  0
 12 13  1  1  0  0  0
 13 16  1  0  0  0  0
 13 17  2  0  0  0  0
 14  6  1  0  0  0  0
 14  1  2  0  0  0  0
 15 17  1  0  0  0  0
 18  6  1  0  0  0  0
 19 18  1  0  0  0  0
 21 22  1  0  0  0  0
 21 20  1  0  0  0  0
 23 25  1  0  0  0  0
 24 25  2  0  0  0  0
 24 22  1  0  0  0  0
 26 24  1  0  0  0  0
 27 28  2  0  0  0  0
 27 26  1  0  0  0  0
 28 23  1  0  0  0  0
 29 14  1  0  0  0  0
 30 29  1  0  0  0  0
 31 30  1  0  0  0  0
M  END
>  <MODEL>
9

>  <REMARK>
 VINA RESULT:      -9.4      1.510      2.289
  Name = 
  6 active torsions:
  status: ('A' for Active; 'I' for Inactive)
    1  A    between atoms: N_2  and  C_27
    2  A    between atoms: C_3  and  C_13
    3  A    between atoms: C_6  and  O_30
    4  A    between atoms: C_16  and  C_25
    5  A    between atoms: C_24  and  O_30
    6  A    between atoms: C_25  and  C_27
                            x       y       z     vdW  Elec       q    Type
                         _______ _______ _______ _____ _____    ______ ____

>  <TORSDO>
F 6

$$$$
