=
 OpenBabel11042412553D

 43 46  0  0  1  0  0  0  0  0999 V2000
  186.0770  178.1090  139.6730 N   0  0  0  0  0  0  0  0  0  0  0  0
  187.3320  175.0290  136.8000 C   0  0  0  0  0  2  0  0  0  0  0  0
  179.5600  178.7500  138.5980 N   0  0  0  0  0  0  0  0  0  0  0  0
  180.0620  177.6480  138.0390 N   0  0  0  0  0  0  0  0  0  0  0  0
  189.1790  179.0660  137.4650 F   0  0  0  0  0  0  0  0  0  0  0  0
  188.2210  177.4470  138.6860 C   0  0  0  0  0  2  0  0  0  0  0  0
  182.9980  179.4150  138.8850 C   0  0  0  0  0  3  0  0  0  0  0  0
  184.0330  178.5650  138.4440 C   0  0  0  0  0  0  0  0  0  0  0  0
  187.5450  176.2430  135.9130 C   0  0  0  0  0  2  0  0  0  0  0  0
  182.3880  176.9230  137.6440 C   0  0  0  0  0  3  0  0  0  0  0  0
  184.5990  174.8600  136.7950 S   0  0  0  0  0  0  0  0  0  0  0  0
  180.5320  179.5650  138.9930 N   0  0  0  0  0  0  0  0  0  0  0  0
  181.4000  177.7920  138.0900 C   0  0  0  0  0  0  0  0  0  0  0  0
  188.7140  177.0850  136.4050 C   0  0  1  0  0  3  0  0  0  0  0  0
  180.3270  180.8480  139.6420 C   0  0  0  0  0  1  0  0  0  0  0  0
  183.6630  174.8720  135.6200 O   0  0  0  0  0  0  0  0  0  0  0  0
  184.0310  173.9960  137.8850 O   0  0  0  0  0  0  0  0  0  0  0  0
  187.5170  178.3450  139.6940 C   0  0  0  0  0  2  0  0  0  0  0  0
  186.1740  174.2000  136.2610 C   0  0  2  0  0  3  0  0  0  0  0  0
  184.8040  176.4740  137.3920 N   0  0  0  0  0  2  0  0  0  0  0  0
  183.7330  177.3190  137.8220 C   0  0  0  0  0  0  0  0  0  0  0  0
  181.6940  178.9800  138.6810 C   0  0  0  0  0  0  0  0  0  0  0  0
  185.4490  178.9830  138.6830 C   0  0  0  0  0  2  0  0  0  0  0  0
  189.3310  177.7540  135.1840 C   0  0  0  0  0  1  0  0  0  0  0  0
  188.2500  178.0830  137.3750 N   0  0  0  0  0  0  0  0  0  0  0  0
  185.5520  178.3590  140.9370 O   0  0  0  0  0  0  0  0  0  0  0  0
  186.3010  178.7440  142.0640 C   0  0  0  0  0  3  0  0  0  0  0  0
  186.5490  177.9340  143.0890 C   0  0  0  0  0  3  0  0  0  0  0  0
  188.1010  177.0740  146.1580 C   0  0  0  0  0  2  0  0  0  0  0  0
  188.8180  178.0200  144.0670 C   0  0  0  0  0  2  0  0  0  0  0  0
  187.3560  178.3950  144.2550 C   0  0  2  0  0  3  0  0  0  0  0  0
  189.0960  176.8930  145.0370 C   0  0  1  0  0  3  0  0  0  0  0  0
  190.5090  176.9960  145.5690 C   0  0  0  0  0  1  0  0  0  0  0  0
  186.8750  177.6820  145.5110 C   0  0  2  0  0  3  0  0  0  0  0  0
  186.2170  178.6550  146.4780 C   0  0  0  0  0  2  0  0  0  0  0  0
  183.9410  179.0670  145.8700 O   0  0  0  0  0  1  0  0  0  0  0  0
  184.7550  178.3020  146.7050 C   0  0  0  0  0  2  0  0  0  0  0  0
  186.2990  172.8490  136.6900 O   0  0  0  0  0  0  0  0  0  0  0  0
  185.9830  171.7670  135.8650 C   0  0  0  0  0  0  0  0  0  0  0  0
  186.8470  171.2850  135.0810 O   0  0  0  0  0  0  0  0  0  0  0  0
  184.6680  171.2150  135.9130 N   0  0  0  0  0  2  0  0  0  0  0  0
  182.8630  169.6720  135.4370 C   0  0  0  0  0  1  0  0  0  0  0  0
  184.2730  170.0910  135.0830 C   0  0  0  0  0  2  0  0  0  0  0  0
  1 18  1  0  0  0  0
  1 26  1  0  0  0  0
  3 12  1  0  0  0  0
  4 13  1  0  0  0  0
  4  3  2  0  0  0  0
  6 18  1  0  0  0  0
  8 23  1  0  0  0  0
  8  7  2  0  0  0  0
  9 14  1  0  0  0  0
  9  2  1  0  0  0  0
 10 21  2  0  0  0  0
 10 13  1  0  0  0  0
 11 20  1  0  0  0  0
 11 17  2  0  0  0  0
 12 15  1  0  0  0  0
 13 22  2  0  0  0  0
 14 24  1  6  0  0  0
 14 25  1  0  0  0  0
 16 11  2  0  0  0  0
 19 38  1  1  0  0  0
 19 11  1  0  0  0  0
 19  2  1  0  0  0  0
 20 21  1  0  0  0  0
 21  8  1  0  0  0  0
 22  7  1  0  0  0  0
 22 12  1  0  0  0  0
 23  1  1  0  0  0  0
 25  5  1  0  0  0  0
 25  6  1  0  0  0  0
 26 27  1  0  0  0  0
 27 28  2  0  0  0  0
 30 31  1  0  0  0  0
 30 32  1  0  0  0  0
 31 28  1  6  0  0  0
 31 34  1  0  0  0  0
 32 33  1  1  0  0  0
 32 29  1  0  0  0  0
 34 29  1  0  0  0  0
 34 35  1  1  0  0  0
 35 37  1  0  0  0  0
 36 37  1  0  0  0  0
 39 41  1  0  0  0  0
 39 38  1  0  0  0  0
 40 39  2  0  0  0  0
 43 42  1  0  0  0  0
 43 41  1  0  0  0  0
M  END
>  <MODEL>
1

>  <REMARK>
 VINA RESULT:      -7.3      0.000      0.000
  Name = 
  8 active torsions:
  status: ('A' for Active; 'I' for Inactive)
    1  A    between atoms: N_1  and  O_5
    2  A    between atoms: O_5  and  C_38
    3  A    between atoms: C_18  and  O_30
    4  A    between atoms: C_19  and  C_40
    5  A    between atoms: C_29  and  C_33
    6  A    between atoms: C_29  and  C_43
    7  A    between atoms: O_30  and  C_31
    8  A    between atoms: C_32  and  N_42
                            x       y       z     vdW  Elec       q    Type
                         _______ _______ _______ _____ _____    ______ ____

>  <TORSDO>
F 8

$$$$
=
 OpenBabel11042412553D

 43 46  0  0  1  0  0  0  0  0999 V2000
  185.8930  178.1690  139.7870 N   0  0  0  0  0  0  0  0  0  0  0  0
  187.1000  175.1670  136.8130 C   0  0  0  0  0  2  0  0  0  0  0  0
  179.3670  178.8720  138.8060 N   0  0  0  0  0  0  0  0  0  0  0  0
  179.8580  177.7840  138.2100 N   0  0  0  0  0  0  0  0  0  0  0  0
  188.9750  179.1740  137.5740 F   0  0  0  0  0  0  0  0  0  0  0  0
  188.0220  177.5250  138.7580 C   0  0  0  0  0  2  0  0  0  0  0  0
  182.8120  179.5120  139.0730 C   0  0  0  0  0  3  0  0  0  0  0  0
  183.8380  178.6700  138.5960 C   0  0  0  0  0  0  0  0  0  0  0  0
  187.3090  176.4050  135.9600 C   0  0  0  0  0  2  0  0  0  0  0  0
  182.1750  177.0590  137.7670 C   0  0  0  0  0  3  0  0  0  0  0  0
  184.3660  175.0120  136.8340 S   0  0  0  0  0  0  0  0  0  0  0  0
  180.3480  179.6710  139.2120 N   0  0  0  0  0  0  0  0  0  0  0  0
  181.1970  177.9200  138.2500 C   0  0  0  0  0  0  0  0  0  0  0  0
  188.4880  177.2270  136.4620 C   0  0  1  0  0  3  0  0  0  0  0  0
  180.1570  180.9350  139.9000 C   0  0  0  0  0  1  0  0  0  0  0  0
  183.4170  175.0620  135.6710 O   0  0  0  0  0  0  0  0  0  0  0  0
  183.8060  174.1190  137.9060 O   0  0  0  0  0  0  0  0  0  0  0  0
  187.3340  178.3970  139.8000 C   0  0  0  0  0  2  0  0  0  0  0  0
  185.9320  174.3590  136.2640 C   0  0  2  0  0  3  0  0  0  0  0  0
  184.5860  176.6060  137.4760 N   0  0  0  0  0  2  0  0  0  0  0  0
  183.5240  177.4440  137.9410 C   0  0  0  0  0  0  0  0  0  0  0  0
  181.5030  179.0900  138.8710 C   0  0  0  0  0  0  0  0  0  0  0  0
  185.2590  179.0740  138.8300 C   0  0  0  0  0  2  0  0  0  0  0  0
  189.0950  177.9270  135.2540 C   0  0  0  0  0  1  0  0  0  0  0  0
  188.0400  178.1980  137.4660 N   0  0  0  0  0  0  0  0  0  0  0  0
  185.3830  178.3850  141.0640 O   0  0  0  0  0  0  0  0  0  0  0  0
  186.1420  178.7710  142.1850 C   0  0  0  0  0  3  0  0  0  0  0  0
  186.4930  177.9320  143.1550 C   0  0  0  0  0  3  0  0  0  0  0  0
  188.0920  177.0710  146.1990 C   0  0  0  0  0  2  0  0  0  0  0  0
  188.7700  178.0480  144.1100 C   0  0  0  0  0  2  0  0  0  0  0  0
  187.3040  178.3960  144.3160 C   0  0  2  0  0  3  0  0  0  0  0  0
  189.0780  176.9170  145.0660 C   0  0  1  0  0  3  0  0  0  0  0  0
  190.4950  177.0400  145.5840 C   0  0  0  0  0  1  0  0  0  0  0  0
  186.8480  177.6630  145.5700 C   0  0  2  0  0  3  0  0  0  0  0  0
  186.1850  178.6150  146.5540 C   0  0  0  0  0  2  0  0  0  0  0  0
  183.9830  179.0620  145.7320 O   0  0  0  0  0  1  0  0  0  0  0  0
  184.6960  178.3280  146.6790 C   0  0  0  0  0  2  0  0  0  0  0  0
  186.0540  172.9950  136.6530 O   0  0  0  0  0  0  0  0  0  0  0  0
  187.2350  172.2700  136.4820 C   0  0  0  0  0  0  0  0  0  0  0  0
  187.9450  171.9550  137.4770 O   0  0  0  0  0  0  0  0  0  0  0  0
  187.6360  171.8930  135.1650 N   0  0  0  0  0  2  0  0  0  0  0  0
  189.9860  172.0920  134.6150 C   0  0  0  0  0  1  0  0  0  0  0  0
  188.8510  171.1380  134.9160 C   0  0  0  0  0  2  0  0  0  0  0  0
  1 18  1  0  0  0  0
  1 26  1  0  0  0  0
  3 12  1  0  0  0  0
  4 13  1  0  0  0  0
  4  3  2  0  0  0  0
  6 18  1  0  0  0  0
  8 23  1  0  0  0  0
  8  7  2  0  0  0  0
  9 14  1  0  0  0  0
  9  2  1  0  0  0  0
 10 21  2  0  0  0  0
 10 13  1  0  0  0  0
 11 20  1  0  0  0  0
 11 17  2  0  0  0  0
 12 15  1  0  0  0  0
 13 22  2  0  0  0  0
 14 24  1  6  0  0  0
 14 25  1  0  0  0  0
 16 11  2  0  0  0  0
 19 38  1  1  0  0  0
 19  2  1  0  0  0  0
 19 11  1  0  0  0  0
 20 21  1  0  0  0  0
 21  8  1  0  0  0  0
 22  7  1  0  0  0  0
 22 12  1  0  0  0  0
 23  1  1  0  0  0  0
 25  5  1  0  0  0  0
 25  6  1  0  0  0  0
 26 27  1  0  0  0  0
 27 28  2  0  0  0  0
 30 31  1  0  0  0  0
 30 32  1  0  0  0  0
 31 28  1  6  0  0  0
 31 34  1  0  0  0  0
 32 33  1  1  0  0  0
 32 29  1  0  0  0  0
 34 29  1  0  0  0  0
 34 35  1  1  0  0  0
 35 37  1  0  0  0  0
 36 37  1  0  0  0  0
 39 38  1  0  0  0  0
 39 40  2  0  0  0  0
 41 39  1  0  0  0  0
 42 43  1  0  0  0  0
 43 41  1  0  0  0  0
M  END
>  <MODEL>
2

>  <REMARK>
 VINA RESULT:      -7.2      1.207      1.532
  Name = 
  8 active torsions:
  status: ('A' for Active; 'I' for Inactive)
    1  A    between atoms: N_1  and  O_5
    2  A    between atoms: O_5  and  C_38
    3  A    between atoms: C_18  and  O_30
    4  A    between atoms: C_19  and  C_40
    5  A    between atoms: C_29  and  C_33
    6  A    between atoms: C_29  and  C_43
    7  A    between atoms: O_30  and  C_31
    8  A    between atoms: C_32  and  N_42
                            x       y       z     vdW  Elec       q    Type
                         _______ _______ _______ _____ _____    ______ ____

>  <TORSDO>
F 8

$$$$
=
 OpenBabel11042412553D

 43 46  0  0  1  0  0  0  0  0999 V2000
  186.0160  178.3570  139.8070 N   0  0  0  0  0  0  0  0  0  0  0  0
  187.1990  175.1850  137.0050 C   0  0  0  0  0  2  0  0  0  0  0  0
  179.4730  178.9630  138.8790 N   0  0  0  0  0  0  0  0  0  0  0  0
  179.9620  177.8440  138.3430 N   0  0  0  0  0  0  0  0  0  0  0  0
  189.0600  179.2410  137.4910 F   0  0  0  0  0  0  0  0  0  0  0  0
  188.1340  177.6630  138.7880 C   0  0  0  0  0  2  0  0  0  0  0  0
  182.9170  179.6370  139.0560 C   0  0  0  0  0  3  0  0  0  0  0  0
  183.9410  178.7730  138.6160 C   0  0  0  0  0  0  0  0  0  0  0  0
  187.3880  176.3690  136.0750 C   0  0  0  0  0  2  0  0  0  0  0  0
  182.2770  177.1060  137.9130 C   0  0  0  0  0  3  0  0  0  0  0  0
  184.4670  175.0160  137.0760 S   0  0  0  0  0  0  0  0  0  0  0  0
  180.4540  179.7910  139.2210 N   0  0  0  0  0  0  0  0  0  0  0  0
  181.3000  177.9890  138.3560 C   0  0  0  0  0  0  0  0  0  0  0  0
  188.5690  177.2260  136.5080 C   0  0  1  0  0  3  0  0  0  0  0  0
  180.2650  181.0950  139.8330 C   0  0  0  0  0  1  0  0  0  0  0  0
  183.5010  174.9900  135.9250 O   0  0  0  0  0  0  0  0  0  0  0  0
  183.9270  174.1880  138.2080 O   0  0  0  0  0  0  0  0  0  0  0  0
  187.4550  178.5930  139.7840 C   0  0  0  0  0  2  0  0  0  0  0  0
  186.0290  174.3380  136.5240 C   0  0  2  0  0  3  0  0  0  0  0  0
  184.6860  176.6480  137.6150 N   0  0  0  0  0  2  0  0  0  0  0  0
  183.6250  177.5070  138.0430 C   0  0  0  0  0  0  0  0  0  0  0  0
  181.6080  179.1960  138.8990 C   0  0  0  0  0  0  0  0  0  0  0  0
  185.3620  179.1980  138.8050 C   0  0  0  0  0  2  0  0  0  0  0  0
  189.1550  177.8540  135.2510 C   0  0  0  0  0  1  0  0  0  0  0  0
  188.1290  178.2550  137.4570 N   0  0  0  0  0  0  0  0  0  0  0  0
  185.5220  178.6490  141.0750 O   0  0  0  0  0  0  0  0  0  0  0  0
  185.9150  178.0070  142.2650 C   0  0  0  0  0  3  0  0  0  0  0  0
  187.1850  177.7800  142.5880 C   0  0  0  0  0  3  0  0  0  0  0  0
  188.5750  178.0920  145.8340 C   0  0  0  0  0  2  0  0  0  0  0  0
  186.4760  177.3600  144.9190 C   0  0  0  0  0  2  0  0  0  0  0  0
  187.5430  177.1010  143.8660 C   0  0  2  0  0  3  0  0  0  0  0  0
  187.0850  178.3230  145.9140 C   0  0  1  0  0  3  0  0  0  0  0  0
  186.5830  178.0230  147.3100 C   0  0  0  0  0  1  0  0  0  0  0  0
  188.8420  177.6890  144.3990 C   0  0  2  0  0  3  0  0  0  0  0  0
  189.9670  176.6650  144.3590 C   0  0  0  0  0  2  0  0  0  0  0  0
  191.9250  175.9500  145.5310 O   0  0  0  0  0  1  0  0  0  0  0  0
  191.0910  177.0450  145.3100 C   0  0  0  0  0  2  0  0  0  0  0  0
  186.1650  173.0020  136.9940 O   0  0  0  0  0  0  0  0  0  0  0  0
  185.9490  171.8920  136.1740 C   0  0  0  0  0  0  0  0  0  0  0  0
  186.9170  171.3210  135.5990 O   0  0  0  0  0  0  0  0  0  0  0  0
  184.6170  171.4130  135.9880 N   0  0  0  0  0  2  0  0  0  0  0  0
  182.9810  169.6840  135.5420 C   0  0  0  0  0  1  0  0  0  0  0  0
  184.3230  170.2640  135.1490 C   0  0  0  0  0  2  0  0  0  0  0  0
  1 26  1  0  0  0  0
  3 12  1  0  0  0  0
  4 13  1  0  0  0  0
  4  3  2  0  0  0  0
  6 18  1  0  0  0  0
  8 23  1  0  0  0  0
  8  7  2  0  0  0  0
  9 14  1  0  0  0  0
  9  2  1  0  0  0  0
 10 21  2  0  0  0  0
 10 13  1  0  0  0  0
 11 20  1  0  0  0  0
 11 17  2  0  0  0  0
 12 15  1  0  0  0  0
 13 22  2  0  0  0  0
 14 24  1  6  0  0  0
 14 25  1  0  0  0  0
 16 11  2  0  0  0  0
 18  1  1  0  0  0  0
 19 38  1  1  0  0  0
 19  2  1  0  0  0  0
 19 11  1  0  0  0  0
 20 21  1  0  0  0  0
 21  8  1  0  0  0  0
 22  7  1  0  0  0  0
 22 12  1  0  0  0  0
 23  1  1  0  0  0  0
 25  5  1  0  0  0  0
 25  6  1  0  0  0  0
 26 27  1  0  0  0  0
 27 28  2  0  0  0  0
 29 32  1  0  0  0  0
 30 32  1  0  0  0  0
 31 28  1  6  0  0  0
 31 34  1  0  0  0  0
 31 30  1  0  0  0  0
 32 33  1  1  0  0  0
 34 35  1  1  0  0  0
 34 29  1  0  0  0  0
 35 37  1  0  0  0  0
 37 36  1  0  0  0  0
 39 38  1  0  0  0  0
 40 39  2  0  0  0  0
 41 39  1  0  0  0  0
 43 42  1  0  0  0  0
 43 41  1  0  0  0  0
M  END
>  <MODEL>
3

>  <REMARK>
 VINA RESULT:      -7.1      1.360      2.078
  Name = 
  8 active torsions:
  status: ('A' for Active; 'I' for Inactive)
    1  A    between atoms: N_1  and  O_5
    2  A    between atoms: O_5  and  C_38
    3  A    between atoms: C_18  and  O_30
    4  A    between atoms: C_19  and  C_40
    5  A    between atoms: C_29  and  C_33
    6  A    between atoms: C_29  and  C_43
    7  A    between atoms: O_30  and  C_31
    8  A    between atoms: C_32  and  N_42
                            x       y       z     vdW  Elec       q    Type
                         _______ _______ _______ _____ _____    ______ ____

>  <TORSDO>
F 8

$$$$
=
 OpenBabel11042412553D

 43 46  0  0  1  0  0  0  0  0999 V2000
  187.7970  177.0240  141.3230 N   0  0  0  0  0  0  0  0  0  0  0  0
  185.6280  177.2150  137.5060 C   0  0  0  0  0  2  0  0  0  0  0  0
  183.3550  179.0890  145.8010 N   0  0  0  0  0  0  0  0  0  0  0  0
  182.7950  178.7860  144.6290 N   0  0  0  0  0  0  0  0  0  0  0  0
  189.6670  178.9340  138.4480 F   0  0  0  0  0  0  0  0  0  0  0  0
  188.4650  177.1130  138.9670 C   0  0  0  0  0  2  0  0  0  0  0  0
  186.2200  178.8330  143.7820 C   0  0  0  0  0  3  0  0  0  0  0  0
  186.2240  178.5230  142.4070 C   0  0  0  0  0  0  0  0  0  0  0  0
  186.1960  178.6230  137.4960 C   0  0  0  0  0  2  0  0  0  0  0  0
  183.7720  178.3510  142.4050 C   0  0  0  0  0  3  0  0  0  0  0  0
  183.6610  177.4650  139.3940 S   0  0  0  0  0  0  0  0  0  0  0  0
  184.6770  179.1570  145.6880 N   0  0  0  0  0  0  0  0  0  0  0  0
  183.8140  178.6630  143.7590 C   0  0  0  0  0  0  0  0  0  0  0  0
  187.7060  178.6060  137.3020 C   0  0  1  0  0  3  0  0  0  0  0  0
  185.5890  179.4640  146.7760 C   0  0  0  0  0  1  0  0  0  0  0  0
  182.5850  178.5090  139.4910 O   0  0  0  0  0  0  0  0  0  0  0  0
  183.1490  176.1580  139.9300 O   0  0  0  0  0  0  0  0  0  0  0  0
  188.9320  176.9670  140.4090 C   0  0  0  0  0  2  0  0  0  0  0  0
  184.1160  177.2750  137.6730 C   0  0  2  0  0  3  0  0  0  0  0  0
  185.0390  177.9620  140.3200 N   0  0  0  0  0  2  0  0  0  0  0  0
  185.0030  178.2830  141.7140 C   0  0  0  0  0  0  0  0  0  0  0  0
  184.9830  178.8930  144.4130 C   0  0  0  0  0  0  0  0  0  0  0  0
  187.5400  178.4120  141.7050 C   0  0  0  0  0  2  0  0  0  0  0  0
  188.0790  179.8890  136.5710 C   0  0  0  0  0  1  0  0  0  0  0  0
  188.3840  178.5210  138.6000 N   0  0  0  0  0  0  0  0  0  0  0  0
  188.0770  176.2590  142.4520 O   0  0  0  0  0  0  0  0  0  0  0  0
  188.6210  176.7540  143.6520 C   0  0  0  0  0  3  0  0  0  0  0  0
  189.9250  176.7770  143.9090 C   0  0  0  0  0  3  0  0  0  0  0  0
  190.3070  176.2990  147.4010 C   0  0  0  0  0  2  0  0  0  0  0  0
  191.7810  176.6780  145.5400 C   0  0  0  0  0  2  0  0  0  0  0  0
  190.4450  177.3200  145.1970 C   0  0  2  0  0  3  0  0  0  0  0  0
  191.5160  175.7370  146.6940 C   0  0  1  0  0  3  0  0  0  0  0  0
  192.7050  175.7080  147.6300 C   0  0  0  0  0  1  0  0  0  0  0  0
  189.4810  176.9600  146.3180 C   0  0  2  0  0  3  0  0  0  0  0  0
  188.8030  178.2010  146.8810 C   0  0  0  0  0  2  0  0  0  0  0  0
  187.7980  177.7730  149.0090 O   0  0  0  0  0  1  0  0  0  0  0  0
  188.9470  178.2680  148.3940 C   0  0  0  0  0  2  0  0  0  0  0  0
  183.5180  176.0960  137.1470 O   0  0  0  0  0  0  0  0  0  0  0  0
  184.2690  174.9840  136.7580 C   0  0  0  0  0  0  0  0  0  0  0  0
  184.7090  174.8870  135.5790 O   0  0  0  0  0  0  0  0  0  0  0  0
  184.5290  173.9530  137.7100 N   0  0  0  0  0  2  0  0  0  0  0  0
  186.7760  173.1170  137.3650 C   0  0  0  0  0  1  0  0  0  0  0  0
  185.3030  172.7710  137.3720 C   0  0  0  0  0  2  0  0  0  0  0  0
  1 23  1  0  0  0  0
  1 26  1  0  0  0  0
  2 19  1  0  0  0  0
  4  3  2  0  0  0  0
  5 25  1  0  0  0  0
  6 18  1  0  0  0  0
  7 22  1  0  0  0  0
  8  7  2  0  0  0  0
  9  2  1  0  0  0  0
 10 13  1  0  0  0  0
 11 16  2  0  0  0  0
 11 17  2  0  0  0  0
 11 20  1  0  0  0  0
 12  3  1  0  0  0  0
 12 15  1  0  0  0  0
 13 22  2  0  0  0  0
 13  4  1  0  0  0  0
 14 24  1  1  0  0  0
 14  9  1  0  0  0  0
 14 25  1  0  0  0  0
 18  1  1  0  0  0  0
 19 38  1  1  0  0  0
 19 11  1  0  0  0  0
 20 21  1  0  0  0  0
 21 10  2  0  0  0  0
 21  8  1  0  0  0  0
 22 12  1  0  0  0  0
 23  8  1  0  0  0  0
 25  6  1  0  0  0  0
 26 27  1  0  0  0  0
 27 28  2  0  0  0  0
 30 32  1  0  0  0  0
 31 28  1  6  0  0  0
 31 30  1  0  0  0  0
 31 34  1  0  0  0  0
 32 29  1  0  0  0  0
 32 33  1  1  0  0  0
 34 35  1  1  0  0  0
 34 29  1  0  0  0  0
 35 37  1  0  0  0  0
 37 36  1  0  0  0  0
 39 38  1  0  0  0  0
 39 41  1  0  0  0  0
 40 39  2  0  0  0  0
 42 43  1  0  0  0  0
 43 41  1  0  0  0  0
M  END
>  <MODEL>
4

>  <REMARK>
 VINA RESULT:      -7.0      2.789      4.418
  Name = 
  8 active torsions:
  status: ('A' for Active; 'I' for Inactive)
    1  A    between atoms: N_1  and  O_5
    2  A    between atoms: O_5  and  C_38
    3  A    between atoms: C_18  and  O_30
    4  A    between atoms: C_19  and  C_40
    5  A    between atoms: C_29  and  C_33
    6  A    between atoms: C_29  and  C_43
    7  A    between atoms: O_30  and  C_31
    8  A    between atoms: C_32  and  N_42
                            x       y       z     vdW  Elec       q    Type
                         _______ _______ _______ _____ _____    ______ ____

>  <TORSDO>
F 8

$$$$
=
 OpenBabel11042412553D

 43 46  0  0  1  0  0  0  0  0999 V2000
  185.5200  178.2620  139.8850 N   0  0  0  0  0  0  0  0  0  0  0  0
  185.9310  175.6020  136.4110 C   0  0  0  0  0  2  0  0  0  0  0  0
  178.9810  178.4580  140.9960 N   0  0  0  0  0  0  0  0  0  0  0  0
  179.3290  177.4650  140.1780 N   0  0  0  0  0  0  0  0  0  0  0  0
  187.7000  179.6930  136.9500 F   0  0  0  0  0  0  0  0  0  0  0  0
  187.2620  177.8850  138.2030 C   0  0  0  0  0  2  0  0  0  0  0  0
  182.2930  179.3770  140.2680 C   0  0  0  0  0  3  0  0  0  0  0  0
  183.1710  178.6660  139.4250 C   0  0  0  0  0  0  0  0  0  0  0  0
  185.7890  176.9130  135.6570 C   0  0  0  0  0  2  0  0  0  0  0  0
  181.4360  176.9800  138.9880 C   0  0  0  0  0  3  0  0  0  0  0  0
  183.3530  175.2060  137.2430 S   0  0  0  0  0  0  0  0  0  0  0  0
  179.9880  179.3090  141.1620 N   0  0  0  0  0  0  0  0  0  0  0  0
  180.6040  177.7140  139.8240 C   0  0  0  0  0  0  0  0  0  0  0  0
  187.0130  177.7960  135.8560 C   0  0  1  0  0  3  0  0  0  0  0  0
  179.9420  180.4990  141.9940 C   0  0  0  0  0  1  0  0  0  0  0  0
  182.0890  175.2570  136.4320 O   0  0  0  0  0  0  0  0  0  0  0  0
  183.2060  174.1920  138.3430 O   0  0  0  0  0  0  0  0  0  0  0  0
  186.8780  178.6150  139.4820 C   0  0  0  0  0  2  0  0  0  0  0  0
  184.7020  174.7370  136.1650 C   0  0  2  0  0  3  0  0  0  0  0  0
  183.6620  176.7630  137.9380 N   0  0  0  0  0  2  0  0  0  0  0  0
  182.7460  177.4680  138.7810 C   0  0  0  0  0  0  0  0  0  0  0  0
  181.0140  178.8580  140.4320 C   0  0  0  0  0  0  0  0  0  0  0  0
  184.5670  179.1760  139.2560 C   0  0  0  0  0  2  0  0  0  0  0  0
  187.1730  178.6330  134.5940 C   0  0  0  0  0  1  0  0  0  0  0  0
  186.8390  178.6490  137.0360 N   0  0  0  0  0  0  0  0  0  0  0  0
  185.4180  178.3390  141.2710 O   0  0  0  0  0  0  0  0  0  0  0  0
  186.1660  177.5720  142.1830 C   0  0  0  0  0  3  0  0  0  0  0  0
  186.6310  178.0510  143.3330 C   0  0  0  0  0  3  0  0  0  0  0  0
  189.2030  177.8690  145.7650 C   0  0  0  0  0  2  0  0  0  0  0  0
  186.8680  177.3070  145.6790 C   0  0  0  0  0  2  0  0  0  0  0  0
  187.4130  177.1880  144.2640 C   0  0  2  0  0  3  0  0  0  0  0  0
  187.8850  178.1070  146.4620 C   0  0  1  0  0  3  0  0  0  0  0  0
  187.9510  177.6140  147.8910 C   0  0  0  0  0  1  0  0  0  0  0  0
  188.8550  177.6740  144.3050 C   0  0  2  0  0  3  0  0  0  0  0  0
  189.7980  176.6510  143.6890 C   0  0  0  0  0  2  0  0  0  0  0  0
  189.5930  176.7550  141.3070 O   0  0  0  0  0  1  0  0  0  0  0  0
  190.3850  177.1600  142.3810 C   0  0  0  0  0  2  0  0  0  0  0  0
  185.0220  173.3650  136.3660 O   0  0  0  0  0  0  0  0  0  0  0  0
  186.2920  172.9420  136.7660 C   0  0  0  0  0  0  0  0  0  0  0  0
  186.5170  172.6350  137.9700 O   0  0  0  0  0  0  0  0  0  0  0  0
  187.3370  172.8660  135.7970 N   0  0  0  0  0  2  0  0  0  0  0  0
  189.4570  173.6040  136.7060 C   0  0  0  0  0  1  0  0  0  0  0  0
  188.6790  172.4330  136.1450 C   0  0  0  0  0  2  0  0  0  0  0  0
  1 26  1  0  0  0  0
  3 12  1  0  0  0  0
  4  3  2  0  0  0  0
  5 25  1  0  0  0  0
  6 18  1  0  0  0  0
  7 22  1  0  0  0  0
  8  7  2  0  0  0  0
  9 14  1  0  0  0  0
  9  2  1  0  0  0  0
 10 13  1  0  0  0  0
 11 20  1  0  0  0  0
 11 17  2  0  0  0  0
 12 15  1  0  0  0  0
 13  4  1  0  0  0  0
 13 22  2  0  0  0  0
 14 24  1  6  0  0  0
 14 25  1  0  0  0  0
 16 11  2  0  0  0  0
 18  1  1  0  0  0  0
 19 38  1  1  0  0  0
 19  2  1  0  0  0  0
 19 11  1  0  0  0  0
 20 21  1  0  0  0  0
 21 10  2  0  0  0  0
 21  8  1  0  0  0  0
 22 12  1  0  0  0  0
 23  8  1  0  0  0  0
 23  1  1  0  0  0  0
 25  6  1  0  0  0  0
 26 27  1  0  0  0  0
 27 28  2  0  0  0  0
 29 32  1  0  0  0  0
 30 32  1  0  0  0  0
 31 28  1  6  0  0  0
 31 34  1  0  0  0  0
 31 30  1  0  0  0  0
 32 33  1  1  0  0  0
 34 35  1  1  0  0  0
 34 29  1  0  0  0  0
 36 37  1  0  0  0  0
 37 35  1  0  0  0  0
 38 39  1  0  0  0  0
 39 40  2  0  0  0  0
 41 43  1  0  0  0  0
 41 39  1  0  0  0  0
 43 42  1  0  0  0  0
M  END
>  <MODEL>
5

>  <REMARK>
 VINA RESULT:      -6.6      1.968      2.864
  Name = 
  8 active torsions:
  status: ('A' for Active; 'I' for Inactive)
    1  A    between atoms: N_1  and  O_5
    2  A    between atoms: O_5  and  C_38
    3  A    between atoms: C_18  and  O_30
    4  A    between atoms: C_19  and  C_40
    5  A    between atoms: C_29  and  C_33
    6  A    between atoms: C_29  and  C_43
    7  A    between atoms: O_30  and  C_31
    8  A    between atoms: C_32  and  N_42
                            x       y       z     vdW  Elec       q    Type
                         _______ _______ _______ _____ _____    ______ ____

>  <TORSDO>
F 8

$$$$
=
 OpenBabel11042412553D

 43 46  0  0  1  0  0  0  0  0999 V2000
  185.1570  179.0940  138.9640 N   0  0  0  0  0  0  0  0  0  0  0  0
  189.0790  177.1320  138.6730 C   0  0  0  0  0  2  0  0  0  0  0  0
  183.7850  178.9870  145.4570 N   0  0  0  0  0  0  0  0  0  0  0  0
  185.0650  178.7150  145.2020 N   0  0  0  0  0  0  0  0  0  0  0  0
  185.3750  176.2120  136.3080 F   0  0  0  0  0  0  0  0  0  0  0  0
  186.4090  178.0120  137.1570 C   0  0  0  0  0  2  0  0  0  0  0  0
  183.6380  178.4750  141.9830 C   0  0  0  0  0  3  0  0  0  0  0  0
  184.7340  178.1470  141.1600 C   0  0  0  0  0  0  0  0  0  0  0  0
  188.2120  175.8950  138.5220 C   0  0  0  0  0  2  0  0  0  0  0  0
  186.2420  178.1760  143.1010 C   0  0  0  0  0  3  0  0  0  0  0  0
  188.7930  177.6380  141.3480 S   0  0  0  0  0  0  0  0  0  0  0  0
  183.0620  178.9440  144.3430 N   0  0  0  0  0  0  0  0  0  0  0  0
  185.1340  178.4950  143.8750 C   0  0  0  0  0  0  0  0  0  0  0  0
  187.4690  175.9010  137.1930 C   0  0  1  0  0  3  0  0  0  0  0  0
  181.6330  179.1950  144.2690 C   0  0  0  0  0  1  0  0  0  0  0  0
  188.9560  176.6910  142.5030 O   0  0  0  0  0  0  0  0  0  0  0  0
  189.2130  179.0200  141.7650 O   0  0  0  0  0  0  0  0  0  0  0  0
  185.1630  178.8010  137.5350 C   0  0  0  0  0  2  0  0  0  0  0  0
  189.8250  177.0750  139.9990 C   0  0  2  0  0  3  0  0  0  0  0  0
  187.1330  177.6710  140.8530 N   0  0  0  0  0  2  0  0  0  0  0  0
  186.0380  177.9950  141.7140 C   0  0  0  0  0  0  0  0  0  0  0  0
  183.8930  178.6350  143.3400 C   0  0  0  0  0  0  0  0  0  0  0  0
  184.5040  178.0050  139.6890 C   0  0  0  0  0  2  0  0  0  0  0  0
  187.2790  174.4490  136.7770 C   0  0  0  0  0  1  0  0  0  0  0  0
  186.1790  176.5840  137.3350 N   0  0  0  0  0  0  0  0  0  0  0  0
  184.4810  180.2910  139.1840 O   0  0  0  0  0  0  0  0  0  0  0  0
  183.2650  180.6580  138.5780 C   0  0  0  0  0  3  0  0  0  0  0  0
  182.0750  180.3830  139.1030 C   0  0  0  0  0  3  0  0  0  0  0  0
  180.5270  181.3760  136.0730 C   0  0  0  0  0  2  0  0  0  0  0  0
  180.1970  179.6240  137.6850 C   0  0  0  0  0  2  0  0  0  0  0  0
  180.8180  180.8020  138.4190 C   0  0  2  0  0  3  0  0  0  0  0  0
  180.4190  179.8770  136.2100 C   0  0  1  0  0  3  0  0  0  0  0  0
  179.2450  179.3600  135.4070 C   0  0  0  0  0  1  0  0  0  0  0  0
  181.1470  181.8540  137.3690 C   0  0  2  0  0  3  0  0  0  0  0  0
  180.5620  183.2080  137.7440 C   0  0  0  0  0  2  0  0  0  0  0  0
  182.4700  184.6440  137.6060 O   0  0  0  0  0  1  0  0  0  0  0  0
  181.2560  184.3340  136.9940 C   0  0  0  0  0  2  0  0  0  0  0  0
  191.0030  177.8700  139.9320 O   0  0  0  0  0  0  0  0  0  0  0  0
  192.2370  177.3500  139.5340 C   0  0  0  0  0  0  0  0  0  0  0  0
  193.2780  177.5780  140.2100 O   0  0  0  0  0  0  0  0  0  0  0  0
  192.3080  176.5580  138.3480 N   0  0  0  0  0  2  0  0  0  0  0  0
  193.3510  174.5240  137.5480 C   0  0  0  0  0  1  0  0  0  0  0  0
  193.5580  175.9860  137.8790 C   0  0  0  0  0  2  0  0  0  0  0  0
  1 26  1  0  0  0  0
  1 23  1  0  0  0  0
  2 19  1  0  0  0  0
  4  3  2  0  0  0  0
  5 25  1  0  0  0  0
  6 25  1  0  0  0  0
  6 18  1  0  0  0  0
  7 22  1  0  0  0  0
  8 21  1  0  0  0  0
  8  7  2  0  0  0  0
  9  2  1  0  0  0  0
 10 13  1  0  0  0  0
 11 17  2  0  0  0  0
 11 16  2  0  0  0  0
 12  3  1  0  0  0  0
 13  4  1  0  0  0  0
 14 24  1  1  0  0  0
 14 25  1  0  0  0  0
 14  9  1  0  0  0  0
 15 12  1  0  0  0  0
 18  1  1  0  0  0  0
 19 38  1  6  0  0  0
 19 11  1  0  0  0  0
 20 11  1  0  0  0  0
 20 21  1  0  0  0  0
 21 10  2  0  0  0  0
 22 13  2  0  0  0  0
 22 12  1  0  0  0  0
 23  8  1  0  0  0  0
 27 28  2  0  0  0  0
 27 26  1  0  0  0  0
 29 32  1  0  0  0  0
 29 34  1  0  0  0  0
 30 31  1  0  0  0  0
 31 28  1  6  0  0  0
 32 33  1  6  0  0  0
 32 30  1  0  0  0  0
 34 35  1  1  0  0  0
 34 31  1  0  0  0  0
 37 36  1  0  0  0  0
 37 35  1  0  0  0  0
 39 38  1  0  0  0  0
 39 40  2  0  0  0  0
 41 39  1  0  0  0  0
 42 43  1  0  0  0  0
 43 41  1  0  0  0  0
M  END
>  <MODEL>
6

>  <REMARK>
 VINA RESULT:      -6.4      4.018      7.852
  Name = 
  8 active torsions:
  status: ('A' for Active; 'I' for Inactive)
    1  A    between atoms: N_1  and  O_5
    2  A    between atoms: O_5  and  C_38
    3  A    between atoms: C_18  and  O_30
    4  A    between atoms: C_19  and  C_40
    5  A    between atoms: C_29  and  C_33
    6  A    between atoms: C_29  and  C_43
    7  A    between atoms: O_30  and  C_31
    8  A    between atoms: C_32  and  N_42
                            x       y       z     vdW  Elec       q    Type
                         _______ _______ _______ _____ _____    ______ ____

>  <TORSDO>
F 8

$$$$
=
 OpenBabel11042412553D

 43 46  0  0  1  0  0  0  0  0999 V2000
  189.6440  176.6380  139.9870 N   0  0  0  0  0  0  0  0  0  0  0  0
  191.5800  174.2380  136.8560 C   0  0  0  0  0  2  0  0  0  0  0  0
  183.6320  177.9640  137.5090 N   0  0  0  0  0  0  0  0  0  0  0  0
  184.2550  176.9920  136.8420 N   0  0  0  0  0  0  0  0  0  0  0  0
  193.2180  177.8680  138.9280 F   0  0  0  0  0  0  0  0  0  0  0  0
  191.9650  176.0790  139.4360 C   0  0  0  0  0  2  0  0  0  0  0  0
  186.8830  178.3030  138.7990 C   0  0  0  0  0  3  0  0  0  0  0  0
  187.9910  177.5100  138.4370 C   0  0  0  0  0  0  0  0  0  0  0  0
  192.0230  175.6080  136.3760 C   0  0  0  0  0  2  0  0  0  0  0  0
  186.5980  176.2200  136.8750 C   0  0  0  0  0  3  0  0  0  0  0  0
  188.9410  174.2650  136.1280 S   0  0  0  0  0  0  0  0  0  0  0  0
  184.4730  178.5950  138.3210 N   0  0  0  0  0  0  0  0  0  0  0  0
  185.5350  177.0270  137.2590 C   0  0  0  0  0  0  0  0  0  0  0  0
  193.0310  176.2280  137.3340 C   0  0  1  0  0  3  0  0  0  0  0  0
  184.1160  179.7010  139.1910 C   0  0  0  0  0  1  0  0  0  0  0  0
  188.3410  174.6170  134.7960 O   0  0  0  0  0  0  0  0  0  0  0  0
  188.1040  173.2110  136.7960 O   0  0  0  0  0  0  0  0  0  0  0  0
  191.0300  176.7620  140.4250 C   0  0  0  0  0  2  0  0  0  0  0  0
  190.5960  173.6400  135.8590 C   0  0  2  0  0  3  0  0  0  0  0  0
  188.9940  175.6750  137.1330 N   0  0  0  0  0  2  0  0  0  0  0  0
  187.8540  176.4690  137.4740 C   0  0  0  0  0  0  0  0  0  0  0  0
  185.6730  178.0200  138.1760 C   0  0  0  0  0  0  0  0  0  0  0  0
  189.2990  177.7610  139.1160 C   0  0  0  0  0  2  0  0  0  0  0  0
  193.9470  177.1200  136.5070 C   0  0  0  0  0  1  0  0  0  0  0  0
  192.3380  177.0010  138.3710 N   0  0  0  0  0  0  0  0  0  0  0  0
  188.8100  176.6210  141.1020 O   0  0  0  0  0  0  0  0  0  0  0  0
  189.0640  177.2900  142.3140 C   0  0  0  0  0  3  0  0  0  0  0  0
  188.2330  177.2620  143.3520 C   0  0  0  0  0  3  0  0  0  0  0  0
  188.5220  177.1000  146.8810 C   0  0  0  0  0  2  0  0  0  0  0  0
  189.9790  177.6670  145.0560 C   0  0  0  0  0  2  0  0  0  0  0  0
  188.5580  177.9850  144.6150 C   0  0  2  0  0  3  0  0  0  0  0  0
  189.8580  176.7660  146.2640 C   0  0  1  0  0  3  0  0  0  0  0  0
  190.9750  177.0520  147.2450 C   0  0  0  0  0  1  0  0  0  0  0  0
  187.6330  177.4990  145.7220 C   0  0  2  0  0  3  0  0  0  0  0  0
  186.6800  178.5990  146.1650 C   0  0  0  0  0  2  0  0  0  0  0  0
  184.3270  179.0230  146.0740 O   0  0  0  0  0  1  0  0  0  0  0  0
  185.4210  178.6130  145.3120 C   0  0  0  0  0  2  0  0  0  0  0  0
  190.5960  172.2210  135.9630 O   0  0  0  0  0  0  0  0  0  0  0  0
  191.5420  171.4220  135.3160 C   0  0  0  0  0  0  0  0  0  0  0  0
  191.1810  170.4190  134.6400 O   0  0  0  0  0  0  0  0  0  0  0  0
  192.9260  171.7490  135.4330 N   0  0  0  0  0  2  0  0  0  0  0  0
  195.3220  171.4880  135.1890 C   0  0  0  0  0  1  0  0  0  0  0  0
  193.9610  170.9620  134.7860 C   0  0  0  0  0  2  0  0  0  0  0  0
  1 18  1  0  0  0  0
  1 26  1  0  0  0  0
  3 12  1  0  0  0  0
  4 13  1  0  0  0  0
  4  3  2  0  0  0  0
  6 18  1  0  0  0  0
  8  7  1  0  0  0  0
  8 23  1  0  0  0  0
  9  2  1  0  0  0  0
  9 14  1  0  0  0  0
 10 13  2  0  0  0  0
 10 21  1  0  0  0  0
 11 17  2  0  0  0  0
 11 20  1  0  0  0  0
 12 15  1  0  0  0  0
 13 22  1  0  0  0  0
 14 24  1  6  0  0  0
 14 25  1  0  0  0  0
 16 11  2  0  0  0  0
 19 38  1  1  0  0  0
 19 11  1  0  0  0  0
 19  2  1  0  0  0  0
 20 21  1  0  0  0  0
 21  8  2  0  0  0  0
 22 12  1  0  0  0  0
 22  7  2  0  0  0  0
 23  1  1  0  0  0  0
 25  5  1  0  0  0  0
 25  6  1  0  0  0  0
 26 27  1  0  0  0  0
 27 28  2  0  0  0  0
 30 32  1  0  0  0  0
 31 28  1  6  0  0  0
 31 30  1  0  0  0  0
 31 34  1  0  0  0  0
 32 29  1  0  0  0  0
 32 33  1  1  0  0  0
 34 35  1  1  0  0  0
 34 29  1  0  0  0  0
 37 36  1  0  0  0  0
 37 35  1  0  0  0  0
 39 41  1  0  0  0  0
 39 38  1  0  0  0  0
 40 39  2  0  0  0  0
 43 42  1  0  0  0  0
 43 41  1  0  0  0  0
M  END
>  <MODEL>
7

>  <REMARK>
 VINA RESULT:      -6.3      3.501      4.557
  Name = 
  8 active torsions:
  status: ('A' for Active; 'I' for Inactive)
    1  A    between atoms: N_1  and  O_5
    2  A    between atoms: O_5  and  C_38
    3  A    between atoms: C_18  and  O_30
    4  A    between atoms: C_19  and  C_40
    5  A    between atoms: C_29  and  C_33
    6  A    between atoms: C_29  and  C_43
    7  A    between atoms: O_30  and  C_31
    8  A    between atoms: C_32  and  N_42
                            x       y       z     vdW  Elec       q    Type
                         _______ _______ _______ _____ _____    ______ ____

>  <TORSDO>
F 8

$$$$
=
 OpenBabel11042412553D

 43 46  0  0  1  0  0  0  0  0999 V2000
  189.1080  176.8420  136.5240 N   0  0  0  0  0  0  0  0  0  0  0  0
  192.7240  174.8860  134.9720 C   0  0  0  0  0  2  0  0  0  0  0  0
  190.5800  178.1500  142.8620 N   0  0  0  0  0  0  0  0  0  0  0  0
  191.6590  177.8360  142.1420 N   0  0  0  0  0  0  0  0  0  0  0  0
  188.4830  173.4500  134.6500 F   0  0  0  0  0  0  0  0  0  0  0  0
  189.5940  175.3980  134.6050 C   0  0  0  0  0  2  0  0  0  0  0  0
  189.0520  176.8890  139.9590 C   0  0  0  0  0  3  0  0  0  0  0  0
  189.7330  176.3960  138.8280 C   0  0  0  0  0  0  0  0  0  0  0  0
  192.0000  173.6410  135.4520 C   0  0  0  0  0  2  0  0  0  0  0  0
  191.9010  176.8570  139.8900 C   0  0  0  0  0  3  0  0  0  0  0  0
  193.5300  175.9630  137.3570 S   0  0  0  0  0  0  0  0  0  0  0  0
  189.4680  177.8600  142.1960 N   0  0  0  0  0  0  0  0  0  0  0  0
  191.1900  177.3310  140.9850 C   0  0  0  0  0  0  0  0  0  0  0  0
  190.7750  173.3520  134.5950 C   0  0  1  0  0  3  0  0  0  0  0  0
  188.1210  178.0810  142.6930 C   0  0  0  0  0  1  0  0  0  0  0  0
  194.2510  175.2920  138.4910 O   0  0  0  0  0  0  0  0  0  0  0  0
  193.9470  177.4050  137.2750 O   0  0  0  0  0  0  0  0  0  0  0  0
  188.5470  176.2430  135.3180 C   0  0  0  0  0  2  0  0  0  0  0  0
  193.9560  175.1240  135.8350 C   0  0  2  0  0  3  0  0  0  0  0  0
  191.8200  175.8780  137.6230 N   0  0  0  0  0  2  0  0  0  0  0  0
  191.1570  176.3760  138.7890 C   0  0  0  0  0  0  0  0  0  0  0  0
  189.8320  177.3440  141.0170 C   0  0  0  0  0  0  0  0  0  0  0  0
  188.9260  175.9340  137.6560 C   0  0  0  0  0  2  0  0  0  0  0  0
  190.5720  171.8430  134.5930 C   0  0  0  0  0  1  0  0  0  0  0  0
  189.6000  174.0420  135.1400 N   0  0  0  0  0  0  0  0  0  0  0  0
  188.4710  178.0550  136.7730 O   0  0  0  0  0  0  0  0  0  0  0  0
  187.0770  178.2370  136.8500 C   0  0  0  0  0  3  0  0  0  0  0  0
  186.4020  178.2390  137.9960 C   0  0  0  0  0  3  0  0  0  0  0  0
  183.2470  177.0280  139.0650 C   0  0  0  0  0  2  0  0  0  0  0  0
  184.4960  179.0630  139.3390 C   0  0  0  0  0  2  0  0  0  0  0  0
  184.9250  178.4430  138.0170 C   0  0  2  0  0  3  0  0  0  0  0  0
  183.7910  177.9710  140.1110 C   0  0  1  0  0  3  0  0  0  0  0  0
  182.6590  178.5550  140.9290 C   0  0  0  0  0  1  0  0  0  0  0  0
  184.2310  177.0920  137.9170 C   0  0  2  0  0  3  0  0  0  0  0  0
  183.4840  176.9550  136.5980 C   0  0  0  0  0  2  0  0  0  0  0  0
  185.2080  175.3310  136.2550 O   0  0  0  0  0  1  0  0  0  0  0  0
  183.9340  175.7160  135.8380 C   0  0  0  0  0  2  0  0  0  0  0  0
  194.9150  175.8920  135.1160 O   0  0  0  0  0  0  0  0  0  0  0  0
  196.2820  175.8400  135.4000 C   0  0  0  0  0  0  0  0  0  0  0  0
  196.9210  176.8940  135.6740 O   0  0  0  0  0  0  0  0  0  0  0  0
  196.9510  174.5800  135.3720 N   0  0  0  0  0  2  0  0  0  0  0  0
  198.5560  173.9170  137.0600 C   0  0  0  0  0  1  0  0  0  0  0  0
  198.3700  174.4550  135.6580 C   0  0  0  0  0  2  0  0  0  0  0  0
  1 26  1  0  0  0  0
  1 23  1  0  0  0  0
  2  9  1  0  0  0  0
  2 19  1  0  0  0  0
  4  3  2  0  0  0  0
  5 25  1  0  0  0  0
  6 25  1  0  0  0  0
  6 18  1  0  0  0  0
  7 22  1  0  0  0  0
  8  7  2  0  0  0  0
 10 13  1  0  0  0  0
 11 20  1  0  0  0  0
 11 16  2  0  0  0  0
 12 15  1  0  0  0  0
 12  3  1  0  0  0  0
 13 22  2  0  0  0  0
 13  4  1  0  0  0  0
 14 24  1  1  0  0  0
 14 25  1  0  0  0  0
 14  9  1  0  0  0  0
 17 11  2  0  0  0  0
 18  1  1  0  0  0  0
 19 38  1  6  0  0  0
 19 11  1  0  0  0  0
 20 21  1  0  0  0  0
 21  8  1  0  0  0  0
 21 10  2  0  0  0  0
 22 12  1  0  0  0  0
 23  8  1  0  0  0  0
 26 27  1  0  0  0  0
 27 28  2  0  0  0  0
 29 32  1  0  0  0  0
 30 32  1  0  0  0  0
 31 28  1  1  0  0  0
 31 30  1  0  0  0  0
 32 33  1  6  0  0  0
 34 35  1  6  0  0  0
 34 31  1  0  0  0  0
 34 29  1  0  0  0  0
 37 36  1  0  0  0  0
 37 35  1  0  0  0  0
 38 39  1  0  0  0  0
 39 40  2  0  0  0  0
 41 39  1  0  0  0  0
 41 43  1  0  0  0  0
 43 42  1  0  0  0  0
M  END
>  <MODEL>
8

>  <REMARK>
 VINA RESULT:      -6.0      5.266      8.821
  Name = 
  8 active torsions:
  status: ('A' for Active; 'I' for Inactive)
    1  A    between atoms: N_1  and  O_5
    2  A    between atoms: O_5  and  C_38
    3  A    between atoms: C_18  and  O_30
    4  A    between atoms: C_19  and  C_40
    5  A    between atoms: C_29  and  C_33
    6  A    between atoms: C_29  and  C_43
    7  A    between atoms: O_30  and  C_31
    8  A    between atoms: C_32  and  N_42
                            x       y       z     vdW  Elec       q    Type
                         _______ _______ _______ _____ _____    ______ ____

>  <TORSDO>
F 8

$$$$
=
 OpenBabel11042412553D

 43 46  0  0  1  0  0  0  0  0999 V2000
  186.7260  175.7670  137.7000 N   0  0  0  0  0  0  0  0  0  0  0  0
  185.2490  177.9660  141.2070 C   0  0  0  0  0  2  0  0  0  0  0  0
  193.3080  176.5750  137.9520 N   0  0  0  0  0  0  0  0  0  0  0  0
  192.7100  176.9090  139.0960 N   0  0  0  0  0  0  0  0  0  0  0  0
  183.8240  178.3060  136.9630 F   0  0  0  0  0  0  0  0  0  0  0  0
  184.5600  176.7080  138.3540 C   0  0  0  0  0  2  0  0  0  0  0  0
  189.9530  176.6410  136.9090 C   0  0  0  0  0  3  0  0  0  0  0  0
  188.8490  176.9450  137.7310 C   0  0  0  0  0  0  0  0  0  0  0  0
  185.1990  179.1060  140.2070 C   0  0  0  0  0  2  0  0  0  0  0  0
  190.3350  177.2700  139.6620 C   0  0  0  0  0  3  0  0  0  0  0  0
  187.9460  177.7750  141.6370 S   0  0  0  0  0  0  0  0  0  0  0  0
  192.4170  176.4260  136.9780 N   0  0  0  0  0  0  0  0  0  0  0  0
  191.3950  176.9680  138.8150 C   0  0  0  0  0  0  0  0  0  0  0  0
  184.1110  178.8800  139.1660 C   0  0  1  0  0  3  0  0  0  0  0  0
  192.7350  176.0620  135.6090 C   0  0  0  0  0  1  0  0  0  0  0  0
  188.9190  178.8680  141.9790 O   0  0  0  0  0  0  0  0  0  0  0  0
  188.3800  176.4910  142.2870 O   0  0  0  0  0  0  0  0  0  0  0  0
  185.3210  175.8810  137.3270 C   0  0  0  0  0  2  0  0  0  0  0  0
  186.3290  178.2420  142.2440 C   0  0  2  0  0  3  0  0  0  0  0  0
  187.8950  177.5570  139.9190 N   0  0  0  0  0  2  0  0  0  0  0  0
  189.0360  177.2610  139.1080 C   0  0  0  0  0  0  0  0  0  0  0  0
  191.2100  176.6690  137.5020 C   0  0  0  0  0  0  0  0  0  0  0  0
  187.4790  176.8860  137.1340 C   0  0  0  0  0  2  0  0  0  0  0  0
  183.6120  180.2510  138.7310 C   0  0  0  0  0  1  0  0  0  0  0  0
  184.6450  178.1250  138.0270 N   0  0  0  0  0  0  0  0  0  0  0  0
  187.2310  174.5590  137.2260 O   0  0  0  0  0  0  0  0  0  0  0  0
  186.6080  173.7430  136.2640 C   0  0  0  0  0  3  0  0  0  0  0  0
  185.6850  172.8330  136.5640 C   0  0  0  0  0  3  0  0  0  0  0  0
  184.1410  169.7550  135.7230 C   0  0  0  0  0  2  0  0  0  0  0  0
  183.5380  172.0790  135.5990 C   0  0  0  0  0  2  0  0  0  0  0  0
  185.0540  172.0000  135.5010 C   0  0  2  0  0  3  0  0  0  0  0  0
  183.0760  170.7420  136.1350 C   0  0  1  0  0  3  0  0  0  0  0  0
  181.7450  170.3630  135.5230 C   0  0  0  0  0  1  0  0  0  0  0  0
  185.4350  170.5420  135.7150 C   0  0  2  0  0  3  0  0  0  0  0  0
  186.3310  170.0380  134.5940 C   0  0  0  0  0  2  0  0  0  0  0  0
  188.4550  170.9570  135.2000 O   0  0  0  0  0  1  0  0  0  0  0  0
  187.7410  169.7640  135.0960 C   0  0  0  0  0  2  0  0  0  0  0  0
  186.0450  177.5360  143.4470 O   0  0  0  0  0  0  0  0  0  0  0  0
  186.5290  177.9470  144.6900 C   0  0  0  0  0  0  0  0  0  0  0  0
  185.9300  178.8430  145.3480 O   0  0  0  0  0  0  0  0  0  0  0  0
  187.7150  177.3470  145.2090 N   0  0  0  0  0  2  0  0  0  0  0  0
  189.3980  176.7830  146.8570 C   0  0  0  0  0  1  0  0  0  0  0  0
  188.2710  177.7270  146.4960 C   0  0  0  0  0  2  0  0  0  0  0  0
  2 19  1  0  0  0  0
  3  4  2  0  0  0  0
  5 25  1  0  0  0  0
  7 22  2  0  0  0  0
  7  8  1  0  0  0  0
  8 21  2  0  0  0  0
  9  2  1  0  0  0  0
 11 16  2  0  0  0  0
 11 19  1  0  0  0  0
 11 17  2  0  0  0  0
 12 22  1  0  0  0  0
 12  3  1  0  0  0  0
 13  4  1  0  0  0  0
 13 10  2  0  0  0  0
 14 24  1  6  0  0  0
 14  9  1  0  0  0  0
 15 12  1  0  0  0  0
 18  1  1  0  0  0  0
 18  6  1  0  0  0  0
 19 38  1  1  0  0  0
 20 11  1  0  0  0  0
 21 10  1  0  0  0  0
 21 20  1  0  0  0  0
 22 13  1  0  0  0  0
 23  1  1  0  0  0  0
 23  8  1  0  0  0  0
 25  6  1  0  0  0  0
 25 14  1  0  0  0  0
 26  1  1  0  0  0  0
 27 28  2  0  0  0  0
 27 26  1  0  0  0  0
 29 32  1  0  0  0  0
 30 32  1  0  0  0  0
 31 30  1  0  0  0  0
 31 34  1  0  0  0  0
 31 28  1  1  0  0  0
 32 33  1  6  0  0  0
 34 35  1  6  0  0  0
 34 29  1  0  0  0  0
 35 37  1  0  0  0  0
 37 36  1  0  0  0  0
 38 39  1  0  0  0  0
 39 41  1  0  0  0  0
 39 40  2  0  0  0  0
 41 43  1  0  0  0  0
 43 42  1  0  0  0  0
M  END
>  <MODEL>
9

>  <REMARK>
 VINA RESULT:      -5.9      2.734      9.917
  Name = 
  8 active torsions:
  status: ('A' for Active; 'I' for Inactive)
    1  A    between atoms: N_1  and  O_5
    2  A    between atoms: O_5  and  C_38
    3  A    between atoms: C_18  and  O_30
    4  A    between atoms: C_19  and  C_40
    5  A    between atoms: C_29  and  C_33
    6  A    between atoms: C_29  and  C_43
    7  A    between atoms: O_30  and  C_31
    8  A    between atoms: C_32  and  N_42
                            x       y       z     vdW  Elec       q    Type
                         _______ _______ _______ _____ _____    ______ ____

>  <TORSDO>
F 8

$$$$
