=
 OpenBabel11042410243D

 29 31  0  0  0  0  0  0  0  0999 V2000
  183.1040  179.0020  144.7430 C   0  0  0  0  0  3  0  0  0  0  0  0
  184.4450  178.9950  144.3270 C   0  0  0  0  0  0  0  0  0  0  0  0
  182.3730  178.6550  142.4580 C   0  0  0  0  0  0  0  0  0  0  0  0
  182.0760  178.8330  143.8150 C   0  0  0  0  0  3  0  0  0  0  0  0
  184.7490  178.8190  142.9690 C   0  0  0  0  0  0  0  0  0  0  0  0
  183.7080  178.6500  142.0410 C   0  0  0  0  0  3  0  0  0  0  0  0
  181.3380  178.4800  141.4870 N   0  0  0  0  0  2  0  0  0  0  0  0
  181.6080  178.1800  140.0900 C   0  0  0  0  0  2  0  0  0  0  0  0
  182.4940  176.0110  139.6850 O   0  0  0  0  0  0  0  0  0  0  0  0
  181.4640  176.7180  139.8580 C   0  0  0  0  0  0  0  0  0  0  0  0
  179.9940  174.7730  139.5400 C   0  0  0  0  0  1  0  0  0  0  0  0
  180.1900  176.1540  139.7990 O   0  0  0  0  0  0  0  0  0  0  0  0
  186.0880  178.8140  142.5650 O   0  0  0  0  0  0  0  0  0  0  0  0
  186.4810  178.8490  141.1990 C   0  0  0  0  0  2  0  0  0  0  0  0
  187.8920  178.3090  141.0570 C   0  0  0  0  0  2  0  0  0  0  0  0
  189.6080  177.8230  139.5570 C   0  0  0  0  0  1  0  0  0  0  0  0
  188.4090  178.6210  139.7360 N   0  0  0  0  0  2  0  0  0  0  0  0
  185.4900  179.1630  145.2420 O   0  0  0  0  0  0  0  0  0  0  0  0
  185.7130  178.2740  146.3280 C   0  0  0  0  0  2  0  0  0  0  0  0
  187.7820  177.5060  145.1480 C   0  0  0  0  0  3  0  0  0  0  0  0
  192.0280  176.6800  147.1520 O   0  0  0  0  0  0  0  0  0  0  0  0
  189.2110  177.5000  147.5720 C   0  0  0  0  0  3  0  0  0  0  0  0
  187.1400  177.8580  146.3460 C   0  0  0  0  0  0  0  0  0  0  0  0
  189.1310  177.1470  145.1790 C   0  0  0  0  0  0  0  0  0  0  0  0
  191.6360  176.3750  144.5110 S   0  0  0  0  0  0  0  0  0  0  0  0
  187.8570  177.8620  147.5530 C   0  0  0  0  0  3  0  0  0  0  0  0
  189.9160  176.7520  143.9720 C   0  0  0  0  0  2  0  0  0  0  0  0
  191.2050  176.7510  146.2020 C   0  0  0  0  0  0  0  0  0  0  0  0
  189.8270  177.1440  146.3700 C   0  0  0  0  0  0  0  0  0  0  0  0
  2  1  1  0  0  0  0
  2 18  1  0  0  0  0
  3  4  1  0  0  0  0
  4  1  2  0  0  0  0
  5  2  2  0  0  0  0
  6  3  2  0  0  0  0
  6  5  1  0  0  0  0
  7  3  1  0  0  0  0
  8  7  1  0  0  0  0
  9 10  2  0  0  0  0
 10  8  1  0  0  0  0
 11 12  1  0  0  0  0
 12 10  1  0  0  0  0
 13  5  1  0  0  0  0
 14 13  1  0  0  0  0
 15 14  1  0  0  0  0
 16 17  1  0  0  0  0
 17 15  1  0  0  0  0
 18 19  1  0  0  0  0
 19 23  1  0  0  0  0
 20 24  2  0  0  0  0
 20 23  1  0  0  0  0
 23 26  2  0  0  0  0
 24 29  1  0  0  0  0
 25 28  1  0  0  0  0
 26 22  1  0  0  0  0
 27 25  1  0  0  0  0
 27 24  1  0  0  0  0
 28 29  1  0  0  0  0
 28 21  2  0  0  0  0
 29 22  2  0  0  0  0
M  END
>  <MODEL>
1

>  <REMARK>
 VINA RESULT:      -7.8      0.000      0.000
  Name = 
  11 active torsions:
  status: ('A' for Active; 'I' for Inactive)
    1  A    between atoms: C_2  and  O_26
    2  A    between atoms: C_4  and  N_17
    3  A    between atoms: C_9  and  C_16
    4  A    between atoms: C_9  and  O_25
    5  A    between atoms: C_10  and  C_23
    6  A    between atoms: C_16  and  N_17
    7  A    between atoms: O_18  and  C_19
    8  A    between atoms: O_18  and  C_22
    9  A    between atoms: C_22  and  C_29
   10  A    between atoms: C_23  and  O_26
   11  A    between atoms: N_28  and  C_29
                            x       y       z     vdW  Elec       q    Type
                         _______ _______ _______ _____ _____    ______ ____

>  <TORSDO>
F 11

$$$$
=
 OpenBabel11042410243D

 29 31  0  0  0  0  0  0  0  0999 V2000
  183.0860  179.1990  144.4950 C   0  0  0  0  0  3  0  0  0  0  0  0
  184.4200  178.9450  144.1430 C   0  0  0  0  0  0  0  0  0  0  0  0
  182.3650  178.6310  142.2510 C   0  0  0  0  0  0  0  0  0  0  0  0
  182.0650  179.0430  143.5560 C   0  0  0  0  0  3  0  0  0  0  0  0
  184.7270  178.5340  142.8370 C   0  0  0  0  0  0  0  0  0  0  0  0
  183.6940  178.3790  141.8980 C   0  0  0  0  0  3  0  0  0  0  0  0
  181.3390  178.4630  141.2700 N   0  0  0  0  0  2  0  0  0  0  0  0
  181.4010  179.0700  139.9510 C   0  0  0  0  0  2  0  0  0  0  0  0
  179.9250  180.6370  140.9610 O   0  0  0  0  0  0  0  0  0  0  0  0
  180.5670  180.3020  139.9280 C   0  0  0  0  0  0  0  0  0  0  0  0
  181.5160  181.9240  138.3440 C   0  0  0  0  0  1  0  0  0  0  0  0
  180.4770  181.0490  138.7540 O   0  0  0  0  0  0  0  0  0  0  0  0
  186.0600  178.2830  142.4970 O   0  0  0  0  0  0  0  0  0  0  0  0
  186.6430  178.7320  141.2800 C   0  0  0  0  0  2  0  0  0  0  0  0
  188.1530  178.6170  141.3620 C   0  0  0  0  0  2  0  0  0  0  0  0
  189.1610  178.3110  139.2830 C   0  0  0  0  0  1  0  0  0  0  0  0
  188.6220  177.6050  140.4300 N   0  0  0  0  0  2  0  0  0  0  0  0
  185.4570  179.0950  145.0700 O   0  0  0  0  0  0  0  0  0  0  0  0
  185.5920  178.2660  146.2170 C   0  0  0  0  0  2  0  0  0  0  0  0
  187.7760  177.5170  145.2510 C   0  0  0  0  0  3  0  0  0  0  0  0
  191.8120  176.7500  147.6680 O   0  0  0  0  0  0  0  0  0  0  0  0
  188.9590  177.5380  147.8040 C   0  0  0  0  0  3  0  0  0  0  0  0
  187.0150  177.8670  146.3770 C   0  0  0  0  0  0  0  0  0  0  0  0
  189.1190  177.1750  145.4170 C   0  0  0  0  0  0  0  0  0  0  0  0
  191.6870  176.4300  145.0030 S   0  0  0  0  0  0  0  0  0  0  0  0
  187.6090  177.8840  147.6500 C   0  0  0  0  0  3  0  0  0  0  0  0
  190.0240  176.7850  144.2950 C   0  0  0  0  0  2  0  0  0  0  0  0
  191.0860  176.8070  146.6420 C   0  0  0  0  0  0  0  0  0  0  0  0
  189.6940  177.1850  146.6700 C   0  0  0  0  0  0  0  0  0  0  0  0
  2  1  1  0  0  0  0
  2 18  1  0  0  0  0
  3  4  1  0  0  0  0
  4  1  2  0  0  0  0
  5  2  2  0  0  0  0
  6  3  2  0  0  0  0
  6  5  1  0  0  0  0
  7  3  1  0  0  0  0
  8  7  1  0  0  0  0
 10  8  1  0  0  0  0
 10  9  2  0  0  0  0
 11 12  1  0  0  0  0
 12 10  1  0  0  0  0
 13  5  1  0  0  0  0
 14 15  1  0  0  0  0
 14 13  1  0  0  0  0
 16 17  1  0  0  0  0
 17 15  1  0  0  0  0
 18 19  1  0  0  0  0
 19 23  1  0  0  0  0
 20 24  2  0  0  0  0
 20 23  1  0  0  0  0
 23 26  2  0  0  0  0
 24 29  1  0  0  0  0
 25 28  1  0  0  0  0
 26 22  1  0  0  0  0
 27 25  1  0  0  0  0
 27 24  1  0  0  0  0
 28 29  1  0  0  0  0
 28 21  2  0  0  0  0
 29 22  2  0  0  0  0
M  END
>  <MODEL>
2

>  <REMARK>
 VINA RESULT:      -7.7      1.649      2.107
  Name = 
  11 active torsions:
  status: ('A' for Active; 'I' for Inactive)
    1  A    between atoms: C_2  and  O_26
    2  A    between atoms: C_4  and  N_17
    3  A    between atoms: C_9  and  C_16
    4  A    between atoms: C_9  and  O_25
    5  A    between atoms: C_10  and  C_23
    6  A    between atoms: C_16  and  N_17
    7  A    between atoms: O_18  and  C_19
    8  A    between atoms: O_18  and  C_22
    9  A    between atoms: C_22  and  C_29
   10  A    between atoms: C_23  and  O_26
   11  A    between atoms: N_28  and  C_29
                            x       y       z     vdW  Elec       q    Type
                         _______ _______ _______ _____ _____    ______ ____

>  <TORSDO>
F 11

$$$$
=
 OpenBabel11042410243D

 29 31  0  0  0  0  0  0  0  0999 V2000
  186.6420  178.5040  147.2550 C   0  0  0  0  0  3  0  0  0  0  0  0
  186.4880  178.5240  145.8600 C   0  0  0  0  0  0  0  0  0  0  0  0
  188.6560  177.1740  147.0340 C   0  0  0  0  0  0  0  0  0  0  0  0
  187.7190  177.8350  147.8380 C   0  0  0  0  0  3  0  0  0  0  0  0
  187.4230  177.8620  145.0500 C   0  0  0  0  0  0  0  0  0  0  0  0
  188.5040  177.1900  145.6450 C   0  0  0  0  0  3  0  0  0  0  0  0
  189.7680  176.4810  147.6060 N   0  0  0  0  0  2  0  0  0  0  0  0
  191.1340  176.9700  147.5170 C   0  0  0  0  0  2  0  0  0  0  0  0
  192.4900  175.2300  146.6280 O   0  0  0  0  0  0  0  0  0  0  0  0
  191.8370  176.2850  146.3990 C   0  0  0  0  0  0  0  0  0  0  0  0
  191.5810  176.0390  143.9660 C   0  0  0  0  0  1  0  0  0  0  0  0
  191.7940  176.8370  145.1200 O   0  0  0  0  0  0  0  0  0  0  0  0
  187.2600  177.8870  143.6610 O   0  0  0  0  0  0  0  0  0  0  0  0
  187.8410  176.9170  142.7990 C   0  0  0  0  0  2  0  0  0  0  0  0
  188.7470  177.6020  141.7930 C   0  0  0  0  0  2  0  0  0  0  0  0
  188.2220  178.2790  139.6260 C   0  0  0  0  0  1  0  0  0  0  0  0
  187.9870  178.5750  141.0270 N   0  0  0  0  0  2  0  0  0  0  0  0
  185.4160  179.1900  145.2580 O   0  0  0  0  0  0  0  0  0  0  0  0
  184.0620  178.7970  145.4420 C   0  0  0  0  0  2  0  0  0  0  0  0
  184.0970  178.7410  142.9410 C   0  0  0  0  0  3  0  0  0  0  0  0
  180.2930  178.7220  140.0680 O   0  0  0  0  0  0  0  0  0  0  0  0
  181.2850  178.7960  142.8590 C   0  0  0  0  0  3  0  0  0  0  0  0
  183.3590  178.8020  144.1320 C   0  0  0  0  0  0  0  0  0  0  0  0
  183.4190  178.7150  141.7210 C   0  0  0  0  0  0  0  0  0  0  0  0
  182.7940  178.6360  139.0890 S   0  0  0  0  0  0  0  0  0  0  0  0
  181.9550  178.8220  144.0910 C   0  0  0  0  0  3  0  0  0  0  0  0
  184.0970  178.6530  140.3910 C   0  0  0  0  0  2  0  0  0  0  0  0
  181.5220  178.7080  140.3400 C   0  0  0  0  0  0  0  0  0  0  0  0
  182.0410  178.7450  141.6850 C   0  0  0  0  0  0  0  0  0  0  0  0
  1  4  1  0  0  0  0
  2  1  2  0  0  0  0
  3  7  1  0  0  0  0
  3  4  2  0  0  0  0
  5  6  2  0  0  0  0
  5  2  1  0  0  0  0
  6  3  1  0  0  0  0
  8  7  1  0  0  0  0
 10  9  2  0  0  0  0
 10  8  1  0  0  0  0
 11 12  1  0  0  0  0
 12 10  1  0  0  0  0
 13  5  1  0  0  0  0
 14 13  1  0  0  0  0
 15 14  1  0  0  0  0
 16 17  1  0  0  0  0
 17 15  1  0  0  0  0
 18 19  1  0  0  0  0
 18  2  1  0  0  0  0
 20 23  1  0  0  0  0
 21 28  2  0  0  0  0
 22 26  1  0  0  0  0
 23 19  1  0  0  0  0
 24 20  2  0  0  0  0
 25 28  1  0  0  0  0
 25 27  1  0  0  0  0
 26 23  2  0  0  0  0
 27 24  1  0  0  0  0
 28 29  1  0  0  0  0
 29 24  1  0  0  0  0
 29 22  2  0  0  0  0
M  END
>  <MODEL>
3

>  <REMARK>
 VINA RESULT:      -7.5      2.812      8.053
  Name = 
  11 active torsions:
  status: ('A' for Active; 'I' for Inactive)
    1  A    between atoms: C_2  and  O_26
    2  A    between atoms: C_4  and  N_17
    3  A    between atoms: C_9  and  C_16
    4  A    between atoms: C_9  and  O_25
    5  A    between atoms: C_10  and  C_23
    6  A    between atoms: C_16  and  N_17
    7  A    between atoms: O_18  and  C_19
    8  A    between atoms: O_18  and  C_22
    9  A    between atoms: C_22  and  C_29
   10  A    between atoms: C_23  and  O_26
   11  A    between atoms: N_28  and  C_29
                            x       y       z     vdW  Elec       q    Type
                         _______ _______ _______ _____ _____    ______ ____

>  <TORSDO>
F 11

$$$$
=
 OpenBabel11042410243D

 29 31  0  0  0  0  0  0  0  0999 V2000
  188.9430  178.2860  138.3720 C   0  0  0  0  0  3  0  0  0  0  0  0
  189.1460  178.0110  139.7340 C   0  0  0  0  0  0  0  0  0  0  0  0
  190.7710  176.8090  137.7800 C   0  0  0  0  0  0  0  0  0  0  0  0
  189.7500  177.6890  137.4020 C   0  0  0  0  0  3  0  0  0  0  0  0
  190.1690  177.1310  140.1180 C   0  0  0  0  0  0  0  0  0  0  0  0
  190.9760  176.5340  139.1350 C   0  0  0  0  0  3  0  0  0  0  0  0
  191.6110  176.1850  136.8060 N   0  0  0  0  0  2  0  0  0  0  0  0
  192.5610  175.1360  137.1390 C   0  0  0  0  0  2  0  0  0  0  0  0
  194.2320  176.7120  136.5260 O   0  0  0  0  0  0  0  0  0  0  0  0
  193.9290  175.7130  137.2330 C   0  0  0  0  0  0  0  0  0  0  0  0
  194.9060  173.7170  138.2850 C   0  0  0  0  0  1  0  0  0  0  0  0
  194.8690  175.1200  138.0750 O   0  0  0  0  0  0  0  0  0  0  0  0
  190.3630  176.8630  141.4770 O   0  0  0  0  0  0  0  0  0  0  0  0
  191.4430  177.4070  142.2240 C   0  0  0  0  0  2  0  0  0  0  0  0
  191.4090  176.8690  143.6410 C   0  0  0  0  0  2  0  0  0  0  0  0
  191.1430  179.1560  144.0000 C   0  0  0  0  0  1  0  0  0  0  0  0
  191.6810  177.9410  144.5830 N   0  0  0  0  0  2  0  0  0  0  0  0
  188.3480  178.5990  140.7200 O   0  0  0  0  0  0  0  0  0  0  0  0
  186.9780  178.2670  140.9020 C   0  0  0  0  0  2  0  0  0  0  0  0
  187.6400  177.8370  143.2760 C   0  0  0  0  0  3  0  0  0  0  0  0
  184.9160  178.5120  147.1300 O   0  0  0  0  0  0  0  0  0  0  0  0
  185.1030  178.6570  144.1760 C   0  0  0  0  0  3  0  0  0  0  0  0
  186.6610  178.2370  142.3550 C   0  0  0  0  0  0  0  0  0  0  0  0
  187.3350  177.8440  144.6390 C   0  0  0  0  0  0  0  0  0  0  0  0
  187.4430  177.6190  147.3330 S   0  0  0  0  0  0  0  0  0  0  0  0
  185.3980  178.6540  142.8050 C   0  0  0  0  0  3  0  0  0  0  0  0
  188.2940  177.4390  145.7100 C   0  0  0  0  0  2  0  0  0  0  0  0
  185.9630  178.1890  146.5110 C   0  0  0  0  0  0  0  0  0  0  0  0
  186.0900  178.2450  145.0750 C   0  0  0  0  0  0  0  0  0  0  0  0
  1  2  1  0  0  0  0
  2  5  2  0  0  0  0
  2 18  1  0  0  0  0
  3  6  2  0  0  0  0
  4  3  1  0  0  0  0
  4  1  2  0  0  0  0
  5 13  1  0  0  0  0
  6  5  1  0  0  0  0
  7  8  1  0  0  0  0
  7  3  1  0  0  0  0
  8 10  1  0  0  0  0
  9 10  2  0  0  0  0
 10 12  1  0  0  0  0
 12 11  1  0  0  0  0
 13 14  1  0  0  0  0
 14 15  1  0  0  0  0
 15 17  1  0  0  0  0
 16 17  1  0  0  0  0
 18 19  1  0  0  0  0
 19 23  1  0  0  0  0
 20 24  1  0  0  0  0
 22 29  1  0  0  0  0
 23 26  1  0  0  0  0
 23 20  2  0  0  0  0
 24 29  2  0  0  0  0
 24 27  1  0  0  0  0
 26 22  2  0  0  0  0
 27 25  1  0  0  0  0
 28 21  2  0  0  0  0
 28 25  1  0  0  0  0
 29 28  1  0  0  0  0
M  END
>  <MODEL>
4

>  <REMARK>
 VINA RESULT:      -7.4      4.108      8.001
  Name = 
  11 active torsions:
  status: ('A' for Active; 'I' for Inactive)
    1  A    between atoms: C_2  and  O_26
    2  A    between atoms: C_4  and  N_17
    3  A    between atoms: C_9  and  C_16
    4  A    between atoms: C_9  and  O_25
    5  A    between atoms: C_10  and  C_23
    6  A    between atoms: C_16  and  N_17
    7  A    between atoms: O_18  and  C_19
    8  A    between atoms: O_18  and  C_22
    9  A    between atoms: C_22  and  C_29
   10  A    between atoms: C_23  and  O_26
   11  A    between atoms: N_28  and  C_29
                            x       y       z     vdW  Elec       q    Type
                         _______ _______ _______ _____ _____    ______ ____

>  <TORSDO>
F 11

$$$$
=
 OpenBabel11042410243D

 29 31  0  0  0  0  0  0  0  0999 V2000
  189.9090  177.4390  140.8800 C   0  0  0  0  0  3  0  0  0  0  0  0
  188.6850  178.0440  140.5580 C   0  0  0  0  0  0  0  0  0  0  0  0
  190.3280  176.9910  138.5350 C   0  0  0  0  0  0  0  0  0  0  0  0
  190.7260  176.9160  139.8760 C   0  0  0  0  0  3  0  0  0  0  0  0
  188.2810  178.1200  139.2170 C   0  0  0  0  0  0  0  0  0  0  0  0
  189.1080  177.5920  138.2120 C   0  0  0  0  0  3  0  0  0  0  0  0
  191.1460  176.4640  137.4880 N   0  0  0  0  0  2  0  0  0  0  0  0
  191.9080  175.2320  137.6250 C   0  0  0  0  0  2  0  0  0  0  0  0
  193.7470  176.7320  137.7610 O   0  0  0  0  0  0  0  0  0  0  0  0
  193.3630  175.5420  137.6060 C   0  0  0  0  0  0  0  0  0  0  0  0
  195.0910  173.9970  138.4260 C   0  0  0  0  0  1  0  0  0  0  0  0
  194.2800  174.5160  137.3830 O   0  0  0  0  0  0  0  0  0  0  0  0
  187.0590  178.7250  138.9060 O   0  0  0  0  0  0  0  0  0  0  0  0
  186.0710  178.0980  138.0990 C   0  0  0  0  0  2  0  0  0  0  0  0
  184.6890  178.5340  138.5480 C   0  0  0  0  0  2  0  0  0  0  0  0
  183.9450  178.9760  140.7120 C   0  0  0  0  0  1  0  0  0  0  0  0
  184.8020  179.4720  139.6520 N   0  0  0  0  0  2  0  0  0  0  0  0
  187.8530  178.5730  141.5500 O   0  0  0  0  0  0  0  0  0  0  0  0
  186.9110  177.7870  142.2660 C   0  0  0  0  0  2  0  0  0  0  0  0
  188.6950  177.4140  143.9800 C   0  0  0  0  0  3  0  0  0  0  0  0
  188.1130  177.4570  148.7120 O   0  0  0  0  0  0  0  0  0  0  0  0
  186.8230  177.7240  146.0570 C   0  0  0  0  0  3  0  0  0  0  0  0
  187.3460  177.6540  143.6820 C   0  0  0  0  0  0  0  0  0  0  0  0
  189.0910  177.3230  145.3160 C   0  0  0  0  0  0  0  0  0  0  0  0
  190.5220  177.0400  147.5960 S   0  0  0  0  0  0  0  0  0  0  0  0
  186.4130  177.8170  144.7200 C   0  0  0  0  0  3  0  0  0  0  0  0
  190.4960  177.0690  145.7540 C   0  0  0  0  0  2  0  0  0  0  0  0
  188.7640  177.3520  147.6400 C   0  0  0  0  0  0  0  0  0  0  0  0
  188.1700  177.4740  146.3310 C   0  0  0  0  0  0  0  0  0  0  0  0
  2  1  1  0  0  0  0
  2 18  1  0  0  0  0
  3  4  1  0  0  0  0
  4  1  2  0  0  0  0
  5  2  2  0  0  0  0
  6  3  2  0  0  0  0
  6  5  1  0  0  0  0
  7  8  1  0  0  0  0
  7  3  1  0  0  0  0
 10  8  1  0  0  0  0
 10  9  2  0  0  0  0
 12 10  1  0  0  0  0
 12 11  1  0  0  0  0
 13  5  1  0  0  0  0
 14 15  1  0  0  0  0
 14 13  1  0  0  0  0
 15 17  1  0  0  0  0
 17 16  1  0  0  0  0
 18 19  1  0  0  0  0
 19 23  1  0  0  0  0
 20 24  1  0  0  0  0
 22 29  1  0  0  0  0
 23 20  2  0  0  0  0
 23 26  1  0  0  0  0
 24 27  1  0  0  0  0
 24 29  2  0  0  0  0
 25 28  1  0  0  0  0
 26 22  2  0  0  0  0
 27 25  1  0  0  0  0
 28 21  2  0  0  0  0
 29 28  1  0  0  0  0
M  END
>  <MODEL>
5

>  <REMARK>
 VINA RESULT:      -7.3      3.715      7.183
  Name = 
  11 active torsions:
  status: ('A' for Active; 'I' for Inactive)
    1  A    between atoms: C_2  and  O_26
    2  A    between atoms: C_4  and  N_17
    3  A    between atoms: C_9  and  C_16
    4  A    between atoms: C_9  and  O_25
    5  A    between atoms: C_10  and  C_23
    6  A    between atoms: C_16  and  N_17
    7  A    between atoms: O_18  and  C_19
    8  A    between atoms: O_18  and  C_22
    9  A    between atoms: C_22  and  C_29
   10  A    between atoms: C_23  and  O_26
   11  A    between atoms: N_28  and  C_29
                            x       y       z     vdW  Elec       q    Type
                         _______ _______ _______ _____ _____    ______ ____

>  <TORSDO>
F 11

$$$$
=
 OpenBabel11042410243D

 29 31  0  0  0  0  0  0  0  0999 V2000
  187.0850  178.6180  141.1650 C   0  0  0  0  0  3  0  0  0  0  0  0
  185.7410  178.9800  141.3450 C   0  0  0  0  0  0  0  0  0  0  0  0
  186.6930  178.2560  138.8010 C   0  0  0  0  0  0  0  0  0  0  0  0
  187.5580  178.2590  139.9020 C   0  0  0  0  0  3  0  0  0  0  0  0
  184.8690  178.9770  140.2450 C   0  0  0  0  0  0  0  0  0  0  0  0
  185.3530  178.6140  138.9770 C   0  0  0  0  0  3  0  0  0  0  0  0
  187.1520  177.8920  137.4970 N   0  0  0  0  0  2  0  0  0  0  0  0
  188.2740  178.5470  136.8430 C   0  0  0  0  0  2  0  0  0  0  0  0
  189.5980  176.9770  135.6450 O   0  0  0  0  0  0  0  0  0  0  0  0
  189.4100  177.5940  136.7290 C   0  0  0  0  0  0  0  0  0  0  0  0
  190.4590  176.0650  138.3440 C   0  0  0  0  0  1  0  0  0  0  0  0
  190.2320  177.3690  137.8330 O   0  0  0  0  0  0  0  0  0  0  0  0
  183.5320  179.3400  140.4340 O   0  0  0  0  0  0  0  0  0  0  0  0
  182.4550  178.6820  139.7800 C   0  0  0  0  0  2  0  0  0  0  0  0
  181.1830  178.8510  140.5890 C   0  0  0  0  0  2  0  0  0  0  0  0
  180.4480  179.7470  142.6100 C   0  0  0  0  0  1  0  0  0  0  0  0
  181.5080  178.9670  142.0000 N   0  0  0  0  0  2  0  0  0  0  0  0
  185.2480  179.3430  142.6020 O   0  0  0  0  0  0  0  0  0  0  0  0
  184.7000  178.4030  143.5160 C   0  0  0  0  0  2  0  0  0  0  0  0
  186.8850  177.7070  144.5170 C   0  0  0  0  0  3  0  0  0  0  0  0
  188.1820  178.2030  149.0780 O   0  0  0  0  0  0  0  0  0  0  0  0
  186.0590  178.6110  147.0500 C   0  0  0  0  0  3  0  0  0  0  0  0
  185.6060  178.2580  144.6860 C   0  0  0  0  0  0  0  0  0  0  0  0
  187.7340  177.6080  145.6210 C   0  0  0  0  0  0  0  0  0  0  0  0
  189.8360  177.1240  147.2550 S   0  0  0  0  0  0  0  0  0  0  0  0
  185.1980  178.7160  145.9500 C   0  0  0  0  0  3  0  0  0  0  0  0
  189.1140  177.0380  145.5630 C   0  0  0  0  0  2  0  0  0  0  0  0
  188.3350  177.8690  147.8740 C   0  0  0  0  0  0  0  0  0  0  0  0
  187.3240  178.0500  146.8610 C   0  0  0  0  0  0  0  0  0  0  0  0
  1  2  1  0  0  0  0
  2 18  1  0  0  0  0
  3  6  2  0  0  0  0
  3  4  1  0  0  0  0
  4  1  2  0  0  0  0
  5 13  1  0  0  0  0
  5  2  2  0  0  0  0
  6  5  1  0  0  0  0
  7  3  1  0  0  0  0
  8  7  1  0  0  0  0
  9 10  2  0  0  0  0
 10  8  1  0  0  0  0
 10 12  1  0  0  0  0
 12 11  1  0  0  0  0
 14 13  1  0  0  0  0
 14 15  1  0  0  0  0
 15 17  1  0  0  0  0
 17 16  1  0  0  0  0
 18 19  1  0  0  0  0
 19 23  1  0  0  0  0
 20 23  2  0  0  0  0
 20 24  1  0  0  0  0
 23 26  1  0  0  0  0
 24 29  2  0  0  0  0
 25 28  1  0  0  0  0
 26 22  2  0  0  0  0
 27 24  1  0  0  0  0
 27 25  1  0  0  0  0
 28 21  2  0  0  0  0
 29 22  1  0  0  0  0
 29 28  1  0  0  0  0
M  END
>  <MODEL>
6

>  <REMARK>
 VINA RESULT:      -7.1      2.703      5.659
  Name = 
  11 active torsions:
  status: ('A' for Active; 'I' for Inactive)
    1  A    between atoms: C_2  and  O_26
    2  A    between atoms: C_4  and  N_17
    3  A    between atoms: C_9  and  C_16
    4  A    between atoms: C_9  and  O_25
    5  A    between atoms: C_10  and  C_23
    6  A    between atoms: C_16  and  N_17
    7  A    between atoms: O_18  and  C_19
    8  A    between atoms: O_18  and  C_22
    9  A    between atoms: C_22  and  C_29
   10  A    between atoms: C_23  and  O_26
   11  A    between atoms: N_28  and  C_29
                            x       y       z     vdW  Elec       q    Type
                         _______ _______ _______ _____ _____    ______ ____

>  <TORSDO>
F 11

$$$$
=
 OpenBabel11042410243D

 29 31  0  0  0  0  0  0  0  0999 V2000
  191.8920  177.3710  141.1230 C   0  0  0  0  0  3  0  0  0  0  0  0
  190.5390  177.3480  140.7480 C   0  0  0  0  0  0  0  0  0  0  0  0
  192.5550  176.9220  138.8360 C   0  0  0  0  0  0  0  0  0  0  0  0
  192.8930  177.1600  140.1740 C   0  0  0  0  0  3  0  0  0  0  0  0
  190.1950  177.1070  139.4090 C   0  0  0  0  0  0  0  0  0  0  0  0
  191.2090  176.8960  138.4600 C   0  0  0  0  0  3  0  0  0  0  0  0
  193.5610  176.7030  137.8440 N   0  0  0  0  0  2  0  0  0  0  0  0
  193.6370  175.4850  137.0520 C   0  0  0  0  0  2  0  0  0  0  0  0
  195.2950  174.9150  138.6570 O   0  0  0  0  0  0  0  0  0  0  0  0
  194.7360  174.6250  137.5650 C   0  0  0  0  0  0  0  0  0  0  0  0
  196.0830  173.6630  135.7470 C   0  0  0  0  0  1  0  0  0  0  0  0
  195.1570  173.5280  136.8130 O   0  0  0  0  0  0  0  0  0  0  0  0
  188.8450  177.0860  139.0460 O   0  0  0  0  0  0  0  0  0  0  0  0
  188.3150  177.8920  138.0020 C   0  0  0  0  0  2  0  0  0  0  0  0
  186.7990  177.8680  138.0540 C   0  0  0  0  0  2  0  0  0  0  0  0
  184.8830  178.6350  139.1360 C   0  0  0  0  0  1  0  0  0  0  0  0
  186.3320  178.6270  139.2020 N   0  0  0  0  0  2  0  0  0  0  0  0
  189.5220  177.5570  141.6850 O   0  0  0  0  0  0  0  0  0  0  0  0
  189.2860  176.6770  142.7760 C   0  0  0  0  0  2  0  0  0  0  0  0
  186.9720  177.6150  142.9450 C   0  0  0  0  0  3  0  0  0  0  0  0
  184.6270  178.6290  146.9700 O   0  0  0  0  0  0  0  0  0  0  0  0
  187.1350  177.6200  145.7530 C   0  0  0  0  0  3  0  0  0  0  0  0
  188.1430  177.1800  143.5830 C   0  0  0  0  0  0  0  0  0  0  0  0
  185.8980  178.0550  143.7200 C   0  0  0  0  0  0  0  0  0  0  0  0
  183.5060  179.0050  144.5570 S   0  0  0  0  0  0  0  0  0  0  0  0
  188.2200  177.1760  144.9860 C   0  0  0  0  0  3  0  0  0  0  0  0
  184.6050  178.5420  143.1530 C   0  0  0  0  0  2  0  0  0  0  0  0
  184.7770  178.5420  145.7230 C   0  0  0  0  0  0  0  0  0  0  0  0
  185.9830  178.0580  145.0960 C   0  0  0  0  0  0  0  0  0  0  0  0
  2  1  1  0  0  0  0
  2 18  1  0  0  0  0
  3  4  1  0  0  0  0
  4  1  2  0  0  0  0
  5  2  2  0  0  0  0
  6  3  2  0  0  0  0
  6  5  1  0  0  0  0
  7  3  1  0  0  0  0
  8 10  1  0  0  0  0
  8  7  1  0  0  0  0
 10  9  2  0  0  0  0
 11 12  1  0  0  0  0
 12 10  1  0  0  0  0
 13  5  1  0  0  0  0
 14 15  1  0  0  0  0
 14 13  1  0  0  0  0
 15 17  1  0  0  0  0
 16 17  1  0  0  0  0
 18 19  1  0  0  0  0
 19 23  1  0  0  0  0
 20 23  2  0  0  0  0
 20 24  1  0  0  0  0
 23 26  1  0  0  0  0
 24 29  2  0  0  0  0
 25 28  1  0  0  0  0
 26 22  2  0  0  0  0
 27 24  1  0  0  0  0
 27 25  1  0  0  0  0
 28 21  2  0  0  0  0
 29 28  1  0  0  0  0
 29 22  1  0  0  0  0
M  END
>  <MODEL>
7

>  <REMARK>
 VINA RESULT:      -7.0      4.478      8.535
  Name = 
  11 active torsions:
  status: ('A' for Active; 'I' for Inactive)
    1  A    between atoms: C_2  and  O_26
    2  A    between atoms: C_4  and  N_17
    3  A    between atoms: C_9  and  C_16
    4  A    between atoms: C_9  and  O_25
    5  A    between atoms: C_10  and  C_23
    6  A    between atoms: C_16  and  N_17
    7  A    between atoms: O_18  and  C_19
    8  A    between atoms: O_18  and  C_22
    9  A    between atoms: C_22  and  C_29
   10  A    between atoms: C_23  and  O_26
   11  A    between atoms: N_28  and  C_29
                            x       y       z     vdW  Elec       q    Type
                         _______ _______ _______ _____ _____    ______ ____

>  <TORSDO>
F 11

$$$$
=
 OpenBabel11042410243D

 29 31  0  0  0  0  0  0  0  0999 V2000
  190.2380  177.2190  140.4100 C   0  0  0  0  0  3  0  0  0  0  0  0
  189.0030  177.8690  140.2620 C   0  0  0  0  0  0  0  0  0  0  0  0
  190.3340  176.8140  138.0220 C   0  0  0  0  0  0  0  0  0  0  0  0
  190.9000  176.6950  139.2980 C   0  0  0  0  0  3  0  0  0  0  0  0
  188.4310  177.9890  138.9860 C   0  0  0  0  0  0  0  0  0  0  0  0
  189.1030  177.4590  137.8720 C   0  0  0  0  0  3  0  0  0  0  0  0
  190.9910  176.2860  136.8670 N   0  0  0  0  0  2  0  0  0  0  0  0
  192.3860  175.8760  136.8700 C   0  0  0  0  0  2  0  0  0  0  0  0
  191.4810  173.6770  136.8480 O   0  0  0  0  0  0  0  0  0  0  0  0
  192.4740  174.4100  137.1070 C   0  0  0  0  0  0  0  0  0  0  0  0
  194.4890  173.0180  136.8900 C   0  0  0  0  0  1  0  0  0  0  0  0
  193.6420  173.8700  137.6450 O   0  0  0  0  0  0  0  0  0  0  0  0
  187.2010  178.6390  138.8490 O   0  0  0  0  0  0  0  0  0  0  0  0
  186.1210  178.0950  138.1010 C   0  0  0  0  0  2  0  0  0  0  0  0
  184.8030  178.5640  138.6870 C   0  0  0  0  0  2  0  0  0  0  0  0
  184.2330  178.8590  140.9270 C   0  0  0  0  0  1  0  0  0  0  0  0
  185.0500  179.3940  139.8540 N   0  0  0  0  0  2  0  0  0  0  0  0
  188.3250  178.4000  141.3640 O   0  0  0  0  0  0  0  0  0  0  0  0
  187.4910  177.6170  142.2060 C   0  0  0  0  0  2  0  0  0  0  0  0
  187.2200  177.8420  144.6840 C   0  0  0  0  0  3  0  0  0  0  0  0
  190.6250  177.2190  147.9610 O   0  0  0  0  0  0  0  0  0  0  0  0
  189.9360  177.2260  145.0780 C   0  0  0  0  0  3  0  0  0  0  0  0
  188.0530  177.5940  143.5830 C   0  0  0  0  0  0  0  0  0  0  0  0
  187.7580  177.7860  145.9710 C   0  0  0  0  0  0  0  0  0  0  0  0
  188.1050  177.8440  148.6530 S   0  0  0  0  0  0  0  0  0  0  0  0
  189.4070  177.2800  143.7810 C   0  0  0  0  0  3  0  0  0  0  0  0
  186.9700  178.0330  147.2150 C   0  0  0  0  0  2  0  0  0  0  0  0
  189.4610  177.4710  147.5530 C   0  0  0  0  0  0  0  0  0  0  0  0
  189.0910  177.4860  146.1590 C   0  0  0  0  0  0  0  0  0  0  0  0
  2  1  1  0  0  0  0
  2 18  1  0  0  0  0
  3  4  1  0  0  0  0
  4  1  2  0  0  0  0
  5  2  2  0  0  0  0
  6  3  2  0  0  0  0
  6  5  1  0  0  0  0
  7  8  1  0  0  0  0
  7  3  1  0  0  0  0
  8 10  1  0  0  0  0
  9 10  2  0  0  0  0
 10 12  1  0  0  0  0
 11 12  1  0  0  0  0
 13  5  1  0  0  0  0
 14 15  1  0  0  0  0
 14 13  1  0  0  0  0
 15 17  1  0  0  0  0
 17 16  1  0  0  0  0
 18 19  1  0  0  0  0
 19 23  1  0  0  0  0
 20 24  1  0  0  0  0
 22 29  1  0  0  0  0
 23 26  1  0  0  0  0
 23 20  2  0  0  0  0
 24 29  2  0  0  0  0
 24 27  1  0  0  0  0
 26 22  2  0  0  0  0
 27 25  1  0  0  0  0
 28 21  2  0  0  0  0
 28 25  1  0  0  0  0
 29 28  1  0  0  0  0
M  END
>  <MODEL>
8

>  <REMARK>
 VINA RESULT:      -7.0      3.806      7.181
  Name = 
  11 active torsions:
  status: ('A' for Active; 'I' for Inactive)
    1  A    between atoms: C_2  and  O_26
    2  A    between atoms: C_4  and  N_17
    3  A    between atoms: C_9  and  C_16
    4  A    between atoms: C_9  and  O_25
    5  A    between atoms: C_10  and  C_23
    6  A    between atoms: C_16  and  N_17
    7  A    between atoms: O_18  and  C_19
    8  A    between atoms: O_18  and  C_22
    9  A    between atoms: C_22  and  C_29
   10  A    between atoms: C_23  and  O_26
   11  A    between atoms: N_28  and  C_29
                            x       y       z     vdW  Elec       q    Type
                         _______ _______ _______ _____ _____    ______ ____

>  <TORSDO>
F 11

$$$$
=
 OpenBabel11042410243D

 29 31  0  0  0  0  0  0  0  0999 V2000
  190.0380  177.0030  139.3870 C   0  0  0  0  0  3  0  0  0  0  0  0
  190.3170  177.3580  140.7160 C   0  0  0  0  0  0  0  0  0  0  0  0
  192.4100  176.9150  138.8920 C   0  0  0  0  0  0  0  0  0  0  0  0
  191.0780  176.7830  138.4810 C   0  0  0  0  0  3  0  0  0  0  0  0
  191.6500  177.4940  141.1320 C   0  0  0  0  0  0  0  0  0  0  0  0
  192.6890  177.2710  140.2150 C   0  0  0  0  0  3  0  0  0  0  0  0
  193.4920  176.6950  137.9840 N   0  0  0  0  0  2  0  0  0  0  0  0
  193.7150  175.4240  137.3150 C   0  0  0  0  0  2  0  0  0  0  0  0
  195.7230  174.2310  136.8680 O   0  0  0  0  0  0  0  0  0  0  0  0
  195.0420  174.8790  137.7080 C   0  0  0  0  0  0  0  0  0  0  0  0
  196.7240  174.5020  139.4620 C   0  0  0  0  0  1  0  0  0  0  0  0
  195.5010  175.0630  139.0120 O   0  0  0  0  0  0  0  0  0  0  0  0
  191.9170  177.8480  142.4590 O   0  0  0  0  0  0  0  0  0  0  0  0
  191.6830  176.9700  143.5530 C   0  0  0  0  0  2  0  0  0  0  0  0
  191.3260  177.7740  144.7880 C   0  0  0  0  0  2  0  0  0  0  0  0
  190.7230  176.7510  146.7930 C   0  0  0  0  0  1  0  0  0  0  0  0
  191.8600  177.1230  145.9720 N   0  0  0  0  0  2  0  0  0  0  0  0
  189.2900  177.5830  141.6370 O   0  0  0  0  0  0  0  0  0  0  0  0
  188.6840  176.5370  142.3870 C   0  0  0  0  0  2  0  0  0  0  0  0
  186.5110  177.7210  142.7590 C   0  0  0  0  0  3  0  0  0  0  0  0
  184.5190  178.6970  146.9800 O   0  0  0  0  0  0  0  0  0  0  0  0
  186.8210  177.4990  145.5470 C   0  0  0  0  0  3  0  0  0  0  0  0
  187.6540  177.1080  143.2950 C   0  0  0  0  0  0  0  0  0  0  0  0
  185.5390  178.2230  143.6270 C   0  0  0  0  0  0  0  0  0  0  0  0
  183.3250  179.3780  144.6700 S   0  0  0  0  0  0  0  0  0  0  0  0
  187.8040  176.9910  144.6860 C   0  0  0  0  0  3  0  0  0  0  0  0
  184.2850  178.8960  143.1740 C   0  0  0  0  0  2  0  0  0  0  0  0
  184.5910  178.6860  145.7230 C   0  0  0  0  0  0  0  0  0  0  0  0
  185.6960  178.1140  144.9930 C   0  0  0  0  0  0  0  0  0  0  0  0
  1  2  1  0  0  0  0
  2  5  2  0  0  0  0
  2 18  1  0  0  0  0
  3  6  2  0  0  0  0
  4  3  1  0  0  0  0
  4  1  2  0  0  0  0
  5 13  1  0  0  0  0
  6  5  1  0  0  0  0
  7  3  1  0  0  0  0
  8 10  1  0  0  0  0
  8  7  1  0  0  0  0
  9 10  2  0  0  0  0
 10 12  1  0  0  0  0
 12 11  1  0  0  0  0
 13 14  1  0  0  0  0
 14 15  1  0  0  0  0
 15 17  1  0  0  0  0
 17 16  1  0  0  0  0
 18 19  1  0  0  0  0
 19 23  1  0  0  0  0
 20 23  2  0  0  0  0
 20 24  1  0  0  0  0
 23 26  1  0  0  0  0
 24 29  2  0  0  0  0
 25 28  1  0  0  0  0
 26 22  2  0  0  0  0
 27 24  1  0  0  0  0
 27 25  1  0  0  0  0
 28 21  2  0  0  0  0
 29 22  1  0  0  0  0
 29 28  1  0  0  0  0
M  END
>  <MODEL>
9

>  <REMARK>
 VINA RESULT:      -7.0      4.548      8.862
  Name = 
  11 active torsions:
  status: ('A' for Active; 'I' for Inactive)
    1  A    between atoms: C_2  and  O_26
    2  A    between atoms: C_4  and  N_17
    3  A    between atoms: C_9  and  C_16
    4  A    between atoms: C_9  and  O_25
    5  A    between atoms: C_10  and  C_23
    6  A    between atoms: C_16  and  N_17
    7  A    between atoms: O_18  and  C_19
    8  A    between atoms: O_18  and  C_22
    9  A    between atoms: C_22  and  C_29
   10  A    between atoms: C_23  and  O_26
   11  A    between atoms: N_28  and  C_29
                            x       y       z     vdW  Elec       q    Type
                         _______ _______ _______ _____ _____    ______ ____

>  <TORSDO>
F 11

$$$$
