=
 OpenBabel11032419153D

 30 31  0  0  1  0  0  0  0  0999 V2000
  188.6830  176.6530  148.6630 O   0  0  0  0  0  0  0  0  0  0  0  0
  188.0460  178.1720  146.9980 N   0  0  0  0  0  0  0  0  0  0  0  0
  190.4280  177.1020  145.5580 C   0  0  2  0  0  3  0  0  0  0  0  0
  189.3390  175.6900  143.1290 O   0  0  0  0  0  1  0  0  0  0  0  0
  185.1380  179.0320  146.2360 C   0  0  0  0  0  2  0  0  0  0  0  0
  187.6020  177.2710  142.7900 C   0  0  0  0  0  2  0  0  0  0  0  0
  186.1350  176.9780  143.1040 C   0  0  0  0  0  2  0  0  0  0  0  0
  189.7690  176.4620  146.6510 O   0  0  0  0  0  0  0  0  0  0  0  0
  186.2350  179.7590  147.0290 C   0  0  0  0  0  2  0  0  0  0  0  0
  188.5640  176.6410  143.8010 C   0  0  2  0  0  3  0  0  0  0  0  0
  187.1430  178.7690  147.7040 C   0  0  0  0  0  3  0  0  0  0  0  0
  185.5350  178.0890  143.9260 C   0  0  0  0  0  0  0  0  0  0  0  0
  189.4710  177.6970  144.4900 C   0  0  2  0  0  3  0  0  0  0  0  0
  185.7290  178.0500  145.2550 C   0  0  0  0  0  3  0  0  0  0  0  0
  188.8560  177.1000  147.4940 C   0  0  0  0  0  0  0  0  0  0  0  0
  183.2360  178.9920  143.8730 C   0  0  0  0  0  3  0  0  0  0  0  0
  183.0600  178.7260  141.6180 C   0  0  0  0  0  3  0  0  0  0  0  0
  184.6130  179.1180  143.3100 C   0  0  2  0  0  3  0  0  0  0  0  0
  184.3460  178.9060  141.8530 C   0  0  0  0  0  0  0  0  0  0  0  0
  185.3710  178.9970  140.7740 C   0  0  0  0  0  1  0  0  0  0  0  0
  182.3610  178.7780  142.8970 C   0  0  0  0  0  3  0  0  0  0  0  0
  190.1560  178.5740  143.5140 N   0  0  0  0  0  0  0  0  0  0  0  0
  190.6830  179.7200  144.2540 C   0  0  0  0  0  2  0  0  0  0  0  0
  192.1990  179.6230  144.3460 C   0  0  0  0  0  1  0  0  0  0  0  0
  191.0430  177.8870  141.6260 C   0  0  0  0  0  1  0  0  0  0  0  0
  191.2510  177.9320  143.0130 O   0  0  0  0  0  0  0  0  0  0  0  0
  191.4860  176.1720  144.9630 C   0  0  0  0  0  2  0  0  0  0  0  0
  191.8010  175.0180  145.9000 C   0  0  0  0  0  3  0  0  0  0  0  0
  192.6270  175.4980  147.0820 C   0  0  0  0  0  1  0  0  0  0  0  0
  192.5770  173.9540  145.1470 C   0  0  0  0  0  1  0  0  0  0  0  0
  2 15  1  0  0  0  0
  2 11  2  0  0  0  0
  3 27  1  6  0  0  0
  3  8  1  0  0  0  0
  5  9  1  0  0  0  0
  6  7  1  0  0  0  0
  6 10  1  0  0  0  0
  7 12  1  0  0  0  0
  8 15  1  0  0  0  0
  9 11  1  0  0  0  0
 10  4  1  6  0  0  0
 10 13  1  0  0  0  0
 12 14  2  0  0  0  0
 13 22  1  6  0  0  0
 13  3  1  0  0  0  0
 14  5  1  0  0  0  0
 15  1  2  0  0  0  0
 17 19  2  0  0  0  0
 17 21  1  0  0  0  0
 18 16  1  0  0  0  0
 18 12  1  1  0  0  0
 19 18  1  0  0  0  0
 20 19  1  0  0  0  0
 21 16  2  0  0  0  0
 22 23  1  0  0  0  0
 23 24  1  0  0  0  0
 25 26  1  0  0  0  0
 26 22  1  0  0  0  0
 27 28  1  0  0  0  0
 28 29  1  0  0  0  0
 30 28  1  0  0  0  0
M  END
>  <MODEL>
1

>  <REMARK>
 VINA RESULT:      -6.0      0.000      0.000
  Name = 
  6 active torsions:
  status: ('A' for Active; 'I' for Inactive)
    1  A    between atoms: C_2  and  N_10
    2  A    between atoms: C_6  and  C_25
    3  A    between atoms: C_8  and  C_21
    4  A    between atoms: N_10  and  O_17
    5  A    between atoms: N_10  and  C_27
    6  A    between atoms: C_22  and  C_25
                            x       y       z     vdW  Elec       q    Type
                         _______ _______ _______ _____ _____    ______ ____

>  <TORSDO>
F 6

$$$$
=
 OpenBabel11032419153D

 30 31  0  0  1  0  0  0  0  0999 V2000
  184.2090  180.4830  138.9390 O   0  0  0  0  0  0  0  0  0  0  0  0
  184.9870  178.5770  140.0550 N   0  0  0  0  0  0  0  0  0  0  0  0
  186.5630  178.1510  137.5590 C   0  0  2  0  0  3  0  0  0  0  0  0
  189.4510  178.4420  138.3650 O   0  0  0  0  0  1  0  0  0  0  0  0
  185.4790  178.2520  143.1250 C   0  0  0  0  0  2  0  0  0  0  0  0
  189.1320  177.4130  140.4790 C   0  0  0  0  0  2  0  0  0  0  0  0
  189.1190  178.1930  141.7940 C   0  0  0  0  0  2  0  0  0  0  0  0
  185.9690  179.3870  137.9580 O   0  0  0  0  0  0  0  0  0  0  0  0
  184.3480  177.7410  142.2200 C   0  0  0  0  0  2  0  0  0  0  0  0
  188.4720  178.1760  139.3270 C   0  0  2  0  0  3  0  0  0  0  0  0
  184.1590  178.6560  141.0430 C   0  0  0  0  0  3  0  0  0  0  0  0
  187.9180  177.8190  142.6220 C   0  0  0  0  0  0  0  0  0  0  0  0
  187.2890  177.3880  138.7000 C   0  0  2  0  0  3  0  0  0  0  0  0
  186.7580  178.4430  142.3490 C   0  0  0  0  0  3  0  0  0  0  0  0
  185.0010  179.5000  138.9590 C   0  0  0  0  0  0  0  0  0  0  0  0
  187.7040  177.6380  145.0760 C   0  0  0  0  0  3  0  0  0  0  0  0
  189.8220  176.8360  145.3170 C   0  0  0  0  0  3  0  0  0  0  0  0
  188.0370  176.9040  143.8200 C   0  0  2  0  0  3  0  0  0  0  0  0
  189.4360  176.4590  144.1120 C   0  0  0  0  0  0  0  0  0  0  0  0
  190.2650  175.6020  143.2170 C   0  0  0  0  0  1  0  0  0  0  0  0
  188.7250  177.5830  145.9230 C   0  0  0  0  0  3  0  0  0  0  0  0
  187.6650  176.0050  138.3320 N   0  0  0  0  0  0  0  0  0  0  0  0
  186.4650  175.3510  137.8100 C   0  0  0  0  0  2  0  0  0  0  0  0
  186.8500  174.0820  137.0660 C   0  0  0  0  0  1  0  0  0  0  0  0
  189.6680  175.3240  137.7420 C   0  0  0  0  0  1  0  0  0  0  0  0
  188.5450  176.0320  137.2890 O   0  0  0  0  0  0  0  0  0  0  0  0
  187.4420  178.3640  136.3260 C   0  0  0  0  0  2  0  0  0  0  0  0
  186.7520  177.8790  135.0620 C   0  0  0  0  0  3  0  0  0  0  0  0
  185.2760  177.6300  135.3190 C   0  0  0  0  0  1  0  0  0  0  0  0
  187.4030  176.5910  134.5940 C   0  0  0  0  0  1  0  0  0  0  0  0
  1 15  2  0  0  0  0
  2 11  2  0  0  0  0
  3 27  1  6  0  0  0
  3  8  1  0  0  0  0
  3 13  1  0  0  0  0
  6  7  1  0  0  0  0
  7 12  1  0  0  0  0
  8 15  1  0  0  0  0
  9  5  1  0  0  0  0
 10  4  1  6  0  0  0
 10  6  1  0  0  0  0
 11  9  1  0  0  0  0
 13 22  1  6  0  0  0
 13 10  1  0  0  0  0
 14 12  2  0  0  0  0
 14  5  1  0  0  0  0
 15  2  1  0  0  0  0
 16 21  2  0  0  0  0
 17 21  1  0  0  0  0
 18 12  1  6  0  0  0
 18 19  1  0  0  0  0
 18 16  1  0  0  0  0
 19 17  2  0  0  0  0
 20 19  1  0  0  0  0
 23 22  1  0  0  0  0
 24 23  1  0  0  0  0
 26 25  1  0  0  0  0
 26 22  1  0  0  0  0
 28 29  1  0  0  0  0
 28 27  1  0  0  0  0
 30 28  1  0  0  0  0
M  END
>  <MODEL>
2

>  <REMARK>
 VINA RESULT:      -5.7      4.279      7.747
  Name = 
  6 active torsions:
  status: ('A' for Active; 'I' for Inactive)
    1  A    between atoms: C_2  and  N_10
    2  A    between atoms: C_6  and  C_25
    3  A    between atoms: C_8  and  C_21
    4  A    between atoms: N_10  and  O_17
    5  A    between atoms: N_10  and  C_27
    6  A    between atoms: C_22  and  C_25
                            x       y       z     vdW  Elec       q    Type
                         _______ _______ _______ _____ _____    ______ ____

>  <TORSDO>
F 6

$$$$
=
 OpenBabel11032419153D

 30 31  0  0  1  0  0  0  0  0999 V2000
  184.4340  179.8200  139.5730 O   0  0  0  0  0  0  0  0  0  0  0  0
  186.0100  178.1630  139.0680 N   0  0  0  0  0  0  0  0  0  0  0  0
  183.7280  176.8790  137.6390 C   0  0  2  0  0  3  0  0  0  0  0  0
  184.4750  176.9140  134.7210 O   0  0  0  0  0  1  0  0  0  0  0  0
  189.0680  178.5560  138.5530 C   0  0  0  0  0  2  0  0  0  0  0  0
  186.7770  176.5180  135.1410 C   0  0  0  0  0  2  0  0  0  0  0  0
  187.8490  177.5990  135.0000 C   0  0  0  0  0  2  0  0  0  0  0  0
  183.7910  178.2520  138.0260 O   0  0  0  0  0  0  0  0  0  0  0  0
  188.3070  178.0130  139.7720 C   0  0  0  0  0  2  0  0  0  0  0  0
  185.4590  177.0560  135.7050 C   0  0  2  0  0  3  0  0  0  0  0  0
  186.9330  178.6170  139.8490 C   0  0  0  0  0  3  0  0  0  0  0  0
  188.7270  177.6380  136.2230 C   0  0  0  0  0  0  0  0  0  0  0  0
  185.0360  176.3280  137.0100 C   0  0  2  0  0  3  0  0  0  0  0  0
  188.2880  178.3440  137.2800 C   0  0  0  0  0  3  0  0  0  0  0  0
  184.7160  178.7640  138.9400 C   0  0  0  0  0  0  0  0  0  0  0  0
  190.6090  176.8770  134.8150 C   0  0  0  0  0  3  0  0  0  0  0  0
  190.6640  174.8230  135.7970 C   0  0  0  0  0  3  0  0  0  0  0  0
  190.1210  177.0500  136.2150 C   0  0  2  0  0  3  0  0  0  0  0  0
  190.1940  175.6430  136.7190 C   0  0  0  0  0  0  0  0  0  0  0  0
  189.8870  175.2170  138.1140 C   0  0  0  0  0  1  0  0  0  0  0  0
  190.9230  175.6060  134.5940 C   0  0  0  0  0  3  0  0  0  0  0  0
  185.0380  174.8560  136.8600 N   0  0  0  0  0  0  0  0  0  0  0  0
  186.3610  174.3780  137.2630 C   0  0  0  0  0  2  0  0  0  0  0  0
  186.7970  173.2390  136.3540 C   0  0  0  0  0  1  0  0  0  0  0  0
  183.5920  173.2170  137.0780 C   0  0  0  0  0  1  0  0  0  0  0  0
  184.1660  174.3040  137.7540 O   0  0  0  0  0  0  0  0  0  0  0  0
  182.4940  176.6330  136.7700 C   0  0  0  0  0  2  0  0  0  0  0  0
  181.4900  177.7660  136.8970 C   0  0  0  0  0  3  0  0  0  0  0  0
  180.2120  177.2780  137.5570 C   0  0  0  0  0  1  0  0  0  0  0  0
  181.1660  178.3090  135.5180 C   0  0  0  0  0  1  0  0  0  0  0  0
  2 11  2  0  0  0  0
  3 27  1  6  0  0  0
  3  8  1  0  0  0  0
  5  9  1  0  0  0  0
  6 10  1  0  0  0  0
  7  6  1  0  0  0  0
  7 12  1  0  0  0  0
  8 15  1  0  0  0  0
  9 11  1  0  0  0  0
 10  4  1  6  0  0  0
 10 13  1  0  0  0  0
 12 14  2  0  0  0  0
 13 22  1  6  0  0  0
 13  3  1  0  0  0  0
 14  5  1  0  0  0  0
 15  2  1  0  0  0  0
 15  1  2  0  0  0  0
 16 18  1  0  0  0  0
 17 19  2  0  0  0  0
 18 12  1  6  0  0  0
 18 19  1  0  0  0  0
 19 20  1  0  0  0  0
 21 16  2  0  0  0  0
 21 17  1  0  0  0  0
 22 23  1  0  0  0  0
 22 26  1  0  0  0  0
 24 23  1  0  0  0  0
 25 26  1  0  0  0  0
 27 28  1  0  0  0  0
 28 29  1  0  0  0  0
 30 28  1  0  0  0  0
M  END
>  <MODEL>
3

>  <REMARK>
 VINA RESULT:      -5.6      6.316     10.231
  Name = 
  6 active torsions:
  status: ('A' for Active; 'I' for Inactive)
    1  A    between atoms: C_2  and  N_10
    2  A    between atoms: C_6  and  C_25
    3  A    between atoms: C_8  and  C_21
    4  A    between atoms: N_10  and  O_17
    5  A    between atoms: N_10  and  C_27
    6  A    between atoms: C_22  and  C_25
                            x       y       z     vdW  Elec       q    Type
                         _______ _______ _______ _____ _____    ______ ____

>  <TORSDO>
F 6

$$$$
=
 OpenBabel11032419153D

 30 31  0  0  1  0  0  0  0  0999 V2000
  188.6310  172.2470  135.0310 O   0  0  0  0  0  0  0  0  0  0  0  0
  187.6300  173.4960  136.7410 N   0  0  0  0  0  0  0  0  0  0  0  0
  190.0720  175.1900  136.4970 C   0  0  2  0  0  3  0  0  0  0  0  0
  189.1080  177.8630  135.4960 O   0  0  0  0  0  1  0  0  0  0  0  0
  184.5740  173.9830  137.1860 C   0  0  0  0  0  2  0  0  0  0  0  0
  187.0980  177.7890  136.7540 C   0  0  0  0  0  2  0  0  0  0  0  0
  185.7290  177.5280  136.1260 C   0  0  0  0  0  2  0  0  0  0  0  0
  189.6070  174.2670  135.5120 O   0  0  0  0  0  0  0  0  0  0  0  0
  185.5690  173.0610  137.9070 C   0  0  0  0  0  2  0  0  0  0  0  0
  188.2180  176.9730  136.1040 C   0  0  2  0  0  3  0  0  0  0  0  0
  186.6790  172.6540  136.9790 C   0  0  0  0  0  3  0  0  0  0  0  0
  184.9910  176.4570  136.8860 C   0  0  0  0  0  0  0  0  0  0  0  0
  188.9600  176.0710  137.1280 C   0  0  2  0  0  3  0  0  0  0  0  0
  185.2700  175.1770  136.5830 C   0  0  0  0  0  3  0  0  0  0  0  0
  188.6480  173.2800  135.7570 C   0  0  0  0  0  0  0  0  0  0  0  0
  182.5630  176.8570  137.1040 C   0  0  0  0  0  3  0  0  0  0  0  0
  182.8680  178.8890  138.0860 C   0  0  0  0  0  3  0  0  0  0  0  0
  183.8630  176.7970  137.8350 C   0  0  2  0  0  3  0  0  0  0  0  0
  183.9360  178.1790  138.4020 C   0  0  0  0  0  0  0  0  0  0  0  0
  185.0130  178.6770  139.3050 C   0  0  0  0  0  1  0  0  0  0  0  0
  182.0040  178.0510  137.2630 C   0  0  0  0  0  3  0  0  0  0  0  0
  189.4150  176.8250  138.3160 N   0  0  0  0  0  0  0  0  0  0  0  0
  188.2390  177.0850  139.1450 C   0  0  0  0  0  2  0  0  0  0  0  0
  188.4880  178.2980  140.0290 C   0  0  0  0  0  1  0  0  0  0  0  0
  191.2580  176.8790  139.5110 C   0  0  0  0  0  1  0  0  0  0  0  0
  190.2260  176.0330  139.0770 O   0  0  0  0  0  0  0  0  0  0  0  0
  191.2420  176.0050  135.9430 C   0  0  0  0  0  2  0  0  0  0  0  0
  192.5690  175.3090  136.1870 C   0  0  0  0  0  3  0  0  0  0  0  0
  192.4090  174.1910  137.2040 C   0  0  0  0  0  1  0  0  0  0  0  0
  193.5790  176.3150  136.7050 C   0  0  0  0  0  1  0  0  0  0  0  0
  1 15  2  0  0  0  0
  2 11  2  0  0  0  0
  3 27  1  6  0  0  0
  3 13  1  0  0  0  0
  5  9  1  0  0  0  0
  7  6  1  0  0  0  0
  7 12  1  0  0  0  0
  8 15  1  0  0  0  0
  8  3  1  0  0  0  0
 10  4  1  1  0  0  0
 10  6  1  0  0  0  0
 10 13  1  0  0  0  0
 11  9  1  0  0  0  0
 13 22  1  1  0  0  0
 14 12  2  0  0  0  0
 14  5  1  0  0  0  0
 15  2  1  0  0  0  0
 16 21  2  0  0  0  0
 16 18  1  0  0  0  0
 17 19  2  0  0  0  0
 18 12  1  6  0  0  0
 18 19  1  0  0  0  0
 19 20  1  0  0  0  0
 21 17  1  0  0  0  0
 22 26  1  0  0  0  0
 22 23  1  0  0  0  0
 23 24  1  0  0  0  0
 26 25  1  0  0  0  0
 27 28  1  0  0  0  0
 28 30  1  0  0  0  0
 28 29  1  0  0  0  0
M  END
>  <MODEL>
4

>  <REMARK>
 VINA RESULT:      -5.6      5.769      8.407
  Name = 
  6 active torsions:
  status: ('A' for Active; 'I' for Inactive)
    1  A    between atoms: C_2  and  N_10
    2  A    between atoms: C_6  and  C_25
    3  A    between atoms: C_8  and  C_21
    4  A    between atoms: N_10  and  O_17
    5  A    between atoms: N_10  and  C_27
    6  A    between atoms: C_22  and  C_25
                            x       y       z     vdW  Elec       q    Type
                         _______ _______ _______ _____ _____    ______ ____

>  <TORSDO>
F 6

$$$$
=
 OpenBabel11032419153D

 30 31  0  0  1  0  0  0  0  0999 V2000
  188.6110  172.0940  136.1810 O   0  0  0  0  0  0  0  0  0  0  0  0
  186.9860  173.5490  137.0350 N   0  0  0  0  0  0  0  0  0  0  0  0
  189.1620  175.5790  136.8450 C   0  0  2  0  0  3  0  0  0  0  0  0
  188.2460  177.5580  134.7670 O   0  0  0  0  0  1  0  0  0  0  0  0
  183.9080  173.4730  136.4920 C   0  0  0  0  0  2  0  0  0  0  0  0
  185.9670  177.4300  135.4180 C   0  0  0  0  0  2  0  0  0  0  0  0
  184.9030  176.7040  134.5950 C   0  0  0  0  0  2  0  0  0  0  0  0
  189.1410  174.3260  136.1590 O   0  0  0  0  0  0  0  0  0  0  0  0
  184.7330  173.0460  137.7160 C   0  0  0  0  0  2  0  0  0  0  0  0
  187.3230  176.7190  135.4000 C   0  0  2  0  0  3  0  0  0  0  0  0
  186.1170  172.6310  137.3020 C   0  0  0  0  0  3  0  0  0  0  0  0
  184.0990  175.7750  135.4660 C   0  0  0  0  0  0  0  0  0  0  0  0
  187.8120  176.3450  136.8260 C   0  0  2  0  0  3  0  0  0  0  0  0
  184.6090  174.5550  135.7090 C   0  0  0  0  0  3  0  0  0  0  0  0
  188.2790  173.2750  136.4800 C   0  0  0  0  0  0  0  0  0  0  0  0
  182.0880  177.1300  134.9950 C   0  0  0  0  0  3  0  0  0  0  0  0
  182.0810  178.0550  137.0760 C   0  0  0  0  0  3  0  0  0  0  0  0
  182.7000  176.1290  135.9180 C   0  0  2  0  0  3  0  0  0  0  0  0
  182.6460  176.8690  137.2170 C   0  0  0  0  0  0  0  0  0  0  0  0
  183.0660  176.3140  138.5360 C   0  0  0  0  0  1  0  0  0  0  0  0
  181.7320  178.2170  135.6690 C   0  0  0  0  0  3  0  0  0  0  0  0
  187.7820  177.4990  137.7520 N   0  0  0  0  0  0  0  0  0  0  0  0
  186.5420  177.4060  138.5240 C   0  0  0  0  0  2  0  0  0  0  0  0
  185.7960  178.7300  138.4630 C   0  0  0  0  0  1  0  0  0  0  0  0
  189.2350  178.6880  138.8910 C   0  0  0  0  0  1  0  0  0  0  0  0
  188.7880  177.3780  138.6670 O   0  0  0  0  0  0  0  0  0  0  0  0
  190.3400  176.4250  136.3590 C   0  0  0  0  0  2  0  0  0  0  0  0
  191.6690  175.8210  136.7780 C   0  0  0  0  0  3  0  0  0  0  0  0
  192.1880  176.4910  138.0390 C   0  0  0  0  0  1  0  0  0  0  0  0
  192.6810  176.0030  135.6630 C   0  0  0  0  0  1  0  0  0  0  0  0
  1 15  2  0  0  0  0
  2 11  2  0  0  0  0
  3 27  1  6  0  0  0
  5  9  1  0  0  0  0
  7  6  1  0  0  0  0
  7 12  1  0  0  0  0
  8 15  1  0  0  0  0
  8  3  1  0  0  0  0
 10  4  1  1  0  0  0
 10  6  1  0  0  0  0
 10 13  1  0  0  0  0
 11  9  1  0  0  0  0
 12 14  2  0  0  0  0
 13  3  1  0  0  0  0
 13 22  1  1  0  0  0
 14  5  1  0  0  0  0
 15  2  1  0  0  0  0
 16 21  2  0  0  0  0
 16 18  1  0  0  0  0
 17 19  2  0  0  0  0
 18 12  1  6  0  0  0
 18 19  1  0  0  0  0
 19 20  1  0  0  0  0
 21 17  1  0  0  0  0
 22 23  1  0  0  0  0
 22 26  1  0  0  0  0
 24 23  1  0  0  0  0
 26 25  1  0  0  0  0
 27 28  1  0  0  0  0
 28 29  1  0  0  0  0
 30 28  1  0  0  0  0
M  END
>  <MODEL>
5

>  <REMARK>
 VINA RESULT:      -5.5      6.627      8.905
  Name = 
  6 active torsions:
  status: ('A' for Active; 'I' for Inactive)
    1  A    between atoms: C_2  and  N_10
    2  A    between atoms: C_6  and  C_25
    3  A    between atoms: C_8  and  C_21
    4  A    between atoms: N_10  and  O_17
    5  A    between atoms: N_10  and  C_27
    6  A    between atoms: C_22  and  C_25
                            x       y       z     vdW  Elec       q    Type
                         _______ _______ _______ _____ _____    ______ ____

>  <TORSDO>
F 6

$$$$
=
 OpenBabel11032419153D

 30 31  0  0  1  0  0  0  0  0999 V2000
  184.8670  175.0960  137.4990 O   0  0  0  0  0  0  0  0  0  0  0  0
  183.5530  176.9850  137.9400 N   0  0  0  0  0  0  0  0  0  0  0  0
  181.4540  175.4770  136.4520 C   0  0  2  0  0  3  0  0  0  0  0  0
  179.3000  174.8800  138.4710 O   0  0  0  0  0  1  0  0  0  0  0  0
  183.6590  178.8100  140.4760 C   0  0  0  0  0  2  0  0  0  0  0  0
  179.5580  176.9520  139.5980 C   0  0  0  0  0  2  0  0  0  0  0  0
  180.2260  177.0800  140.9670 C   0  0  0  0  0  2  0  0  0  0  0  0
  182.6300  174.9050  137.0250 O   0  0  0  0  0  0  0  0  0  0  0  0
  184.1860  179.0250  139.0480 C   0  0  0  0  0  2  0  0  0  0  0  0
  180.2250  175.9020  138.7050 C   0  0  2  0  0  3  0  0  0  0  0  0
  184.5170  177.7090  138.4030 C   0  0  0  0  0  3  0  0  0  0  0  0
  181.2600  178.1750  140.9530 C   0  0  0  0  0  0  0  0  0  0  0  0
  180.7280  176.5020  137.3640 C   0  0  2  0  0  3  0  0  0  0  0  0
  182.4840  177.8650  140.4900 C   0  0  0  0  0  3  0  0  0  0  0  0
  183.7330  175.6490  137.4520 C   0  0  0  0  0  0  0  0  0  0  0  0
  180.3750  179.3570  142.9330 C   0  0  0  0  0  3  0  0  0  0  0  0
  178.9310  180.6020  141.6870 C   0  0  0  0  0  3  0  0  0  0  0  0
  180.9930  179.5230  141.5850 C   0  0  2  0  0  3  0  0  0  0  0  0
  179.9440  180.3280  140.8860 C   0  0  0  0  0  0  0  0  0  0  0  0
  180.0580  180.8610  139.4980 C   0  0  0  0  0  1  0  0  0  0  0  0
  179.2060  179.9850  142.9790 C   0  0  0  0  0  3  0  0  0  0  0  0
  179.6760  177.2690  136.6600 N   0  0  0  0  0  0  0  0  0  0  0  0
  180.3480  178.2480  135.8060 C   0  0  0  0  0  2  0  0  0  0  0  0
  181.2060  179.1720  136.6570 C   0  0  0  0  0  1  0  0  0  0  0  0
  178.9330  177.1530  134.5960 C   0  0  0  0  0  1  0  0  0  0  0  0
  179.0040  176.4450  135.8050 O   0  0  0  0  0  0  0  0  0  0  0  0
  180.5300  174.3740  135.9350 C   0  0  0  0  0  2  0  0  0  0  0  0
  181.2040  173.0130  135.9910 C   0  0  0  0  0  3  0  0  0  0  0  0
  181.3760  172.4420  134.5940 C   0  0  0  0  0  1  0  0  0  0  0  0
  180.3560  172.0650  136.8180 C   0  0  0  0  0  1  0  0  0  0  0  0
  2 11  2  0  0  0  0
  3 27  1  1  0  0  0
  3  8  1  0  0  0  0
  3 13  1  0  0  0  0
  5 14  1  0  0  0  0
  6  7  1  0  0  0  0
  8 15  1  0  0  0  0
  9  5  1  0  0  0  0
 10  4  1  6  0  0  0
 10  6  1  0  0  0  0
 11  9  1  0  0  0  0
 12  7  1  0  0  0  0
 13 22  1  6  0  0  0
 13 10  1  0  0  0  0
 14 12  2  0  0  0  0
 15  1  2  0  0  0  0
 15  2  1  0  0  0  0
 16 21  2  0  0  0  0
 17 21  1  0  0  0  0
 18 12  1  6  0  0  0
 18 16  1  0  0  0  0
 19 18  1  0  0  0  0
 19 17  2  0  0  0  0
 20 19  1  0  0  0  0
 23 24  1  0  0  0  0
 23 22  1  0  0  0  0
 25 26  1  0  0  0  0
 26 22  1  0  0  0  0
 27 28  1  0  0  0  0
 28 30  1  0  0  0  0
 29 28  1  0  0  0  0
M  END
>  <MODEL>
6

>  <REMARK>
 VINA RESULT:      -5.2      7.601     10.605
  Name = 
  6 active torsions:
  status: ('A' for Active; 'I' for Inactive)
    1  A    between atoms: C_2  and  N_10
    2  A    between atoms: C_6  and  C_25
    3  A    between atoms: C_8  and  C_21
    4  A    between atoms: N_10  and  O_17
    5  A    between atoms: N_10  and  C_27
    6  A    between atoms: C_22  and  C_25
                            x       y       z     vdW  Elec       q    Type
                         _______ _______ _______ _____ _____    ______ ____

>  <TORSDO>
F 6

$$$$
=
 OpenBabel11032419153D

 30 31  0  0  1  0  0  0  0  0999 V2000
  185.4320  180.0770  142.4450 O   0  0  0  0  0  0  0  0  0  0  0  0
  186.4420  178.1850  141.5040 N   0  0  0  0  0  0  0  0  0  0  0  0
  184.5690  178.7040  139.2420 C   0  0  2  0  0  3  0  0  0  0  0  0
  186.3130  179.4320  136.8960 O   0  0  0  0  0  1  0  0  0  0  0  0
  189.4180  177.2790  141.8150 C   0  0  0  0  0  2  0  0  0  0  0  0
  188.0250  177.8990  137.4880 C   0  0  0  0  0  2  0  0  0  0  0  0
  189.3640  178.3330  138.0860 C   0  0  0  0  0  2  0  0  0  0  0  0
  184.9320  179.6520  140.2470 O   0  0  0  0  0  0  0  0  0  0  0  0
  188.1260  176.7530  142.4580 C   0  0  0  0  0  2  0  0  0  0  0  0
  186.8490  178.7420  137.9880 C   0  0  2  0  0  3  0  0  0  0  0  0
  187.1030  177.8490  142.5620 C   0  0  0  0  0  3  0  0  0  0  0  0
  189.6850  177.5230  139.3140 C   0  0  0  0  0  0  0  0  0  0  0  0
  185.7570  177.8790  138.6780 C   0  0  2  0  0  3  0  0  0  0  0  0
  189.1440  177.9210  140.4780 C   0  0  0  0  0  3  0  0  0  0  0  0
  185.5640  179.3150  141.4460 C   0  0  0  0  0  0  0  0  0  0  0  0
  192.0890  176.9550  139.3830 C   0  0  0  0  0  3  0  0  0  0  0  0
  191.9840  175.7770  137.4370 C   0  0  0  0  0  3  0  0  0  0  0  0
  190.7050  176.4060  139.2800 C   0  0  2  0  0  3  0  0  0  0  0  0
  190.7790  175.6870  137.9700 C   0  0  0  0  0  0  0  0  0  0  0  0
  189.6810  174.8710  137.3780 C   0  0  0  0  0  1  0  0  0  0  0  0
  192.8080  176.5810  138.3310 C   0  0  0  0  0  3  0  0  0  0  0  0
  185.3300  176.7360  137.8410 N   0  0  0  0  0  0  0  0  0  0  0  0
  184.0340  176.2850  138.3480 C   0  0  0  0  0  2  0  0  0  0  0  0
  183.8090  174.8290  137.9690 C   0  0  0  0  0  1  0  0  0  0  0  0
  185.6130  176.1580  135.7410 C   0  0  0  0  0  1  0  0  0  0  0  0
  185.0920  177.1650  136.5680 O   0  0  0  0  0  0  0  0  0  0  0  0
  183.7400  179.3840  138.1520 C   0  0  0  0  0  2  0  0  0  0  0  0
  182.3070  179.6090  138.6030 C   0  0  0  0  0  3  0  0  0  0  0  0
  181.3540  178.7200  137.8230 C   0  0  0  0  0  1  0  0  0  0  0  0
  181.9300  181.0620  138.3820 C   0  0  0  0  0  1  0  0  0  0  0  0
  2 11  2  0  0  0  0
  3 27  1  6  0  0  0
  3  8  1  0  0  0  0
  5  9  1  0  0  0  0
  6 10  1  0  0  0  0
  6  7  1  0  0  0  0
  7 12  1  0  0  0  0
  8 15  1  0  0  0  0
  9 11  1  0  0  0  0
 10  4  1  6  0  0  0
 10 13  1  0  0  0  0
 12 14  2  0  0  0  0
 13 22  1  6  0  0  0
 13  3  1  0  0  0  0
 14  5  1  0  0  0  0
 15  2  1  0  0  0  0
 15  1  2  0  0  0  0
 17 19  2  0  0  0  0
 17 21  1  0  0  0  0
 18 12  1  6  0  0  0
 18 16  1  0  0  0  0
 19 18  1  0  0  0  0
 20 19  1  0  0  0  0
 21 16  2  0  0  0  0
 22 23  1  0  0  0  0
 24 23  1  0  0  0  0
 25 26  1  0  0  0  0
 26 22  1  0  0  0  0
 27 28  1  0  0  0  0
 29 28  1  0  0  0  0
 30 28  1  0  0  0  0
M  END
>  <MODEL>
7

>  <REMARK>
 VINA RESULT:      -5.2      4.407      8.855
  Name = 
  6 active torsions:
  status: ('A' for Active; 'I' for Inactive)
    1  A    between atoms: C_2  and  N_10
    2  A    between atoms: C_6  and  C_25
    3  A    between atoms: C_8  and  C_21
    4  A    between atoms: N_10  and  O_17
    5  A    between atoms: N_10  and  C_27
    6  A    between atoms: C_22  and  C_25
                            x       y       z     vdW  Elec       q    Type
                         _______ _______ _______ _____ _____    ______ ____

>  <TORSDO>
F 6

$$$$
=
 OpenBabel11032419153D

 30 31  0  0  1  0  0  0  0  0999 V2000
  184.8900  179.9520  139.4770 O   0  0  0  0  0  0  0  0  0  0  0  0
  186.2600  178.0530  139.5330 N   0  0  0  0  0  0  0  0  0  0  0  0
  184.6400  177.2080  137.1760 C   0  0  2  0  0  3  0  0  0  0  0  0
  186.5560  177.1560  134.8520 O   0  0  0  0  0  1  0  0  0  0  0  0
  189.2670  177.9150  140.3800 C   0  0  0  0  0  2  0  0  0  0  0  0
  188.3700  176.3590  136.1580 C   0  0  0  0  0  2  0  0  0  0  0  0
  189.5500  177.2380  136.5740 C   0  0  0  0  0  2  0  0  0  0  0  0
  184.7390  178.5430  137.6730 O   0  0  0  0  0  0  0  0  0  0  0  0
  187.9850  177.4950  141.1160 C   0  0  0  0  0  2  0  0  0  0  0  0
  187.0360  177.1100  136.1650 C   0  0  2  0  0  3  0  0  0  0  0  0
  186.8190  178.3280  140.6650 C   0  0  0  0  0  3  0  0  0  0  0  0
  189.8170  177.1050  138.0500 C   0  0  0  0  0  0  0  0  0  0  0  0
  185.9920  176.4470  137.1050 C   0  0  2  0  0  3  0  0  0  0  0  0
  189.0820  177.8610  138.8840 C   0  0  0  0  0  3  0  0  0  0  0  0
  185.2510  178.8730  138.9300 C   0  0  0  0  0  0  0  0  0  0  0  0
  192.2050  177.1210  138.6840 C   0  0  0  0  0  3  0  0  0  0  0  0
  192.7040  175.3870  137.2940 C   0  0  0  0  0  3  0  0  0  0  0  0
  190.9750  176.2830  138.5730 C   0  0  2  0  0  3  0  0  0  0  0  0
  191.4390  175.2160  137.6340 C   0  0  0  0  0  0  0  0  0  0  0  0
  190.6300  174.0370  137.2110 C   0  0  0  0  0  1  0  0  0  0  0  0
  193.1840  176.5930  137.9580 C   0  0  0  0  0  3  0  0  0  0  0  0
  185.8340  175.0000  136.8420 N   0  0  0  0  0  0  0  0  0  0  0  0
  187.0200  174.3280  137.3730 C   0  0  0  0  0  2  0  0  0  0  0  0
  187.2040  172.9840  136.6850 C   0  0  0  0  0  1  0  0  0  0  0  0
  184.0890  173.6760  136.6850 C   0  0  0  0  0  1  0  0  0  0  0  0
  184.7870  174.5130  137.5680 O   0  0  0  0  0  0  0  0  0  0  0  0
  183.8730  177.1940  135.8530 C   0  0  0  0  0  2  0  0  0  0  0  0
  182.3890  176.9550  136.0740 C   0  0  0  0  0  3  0  0  0  0  0  0
  181.5770  178.1440  135.5900 C   0  0  0  0  0  1  0  0  0  0  0  0
  182.1270  176.7380  137.5520 C   0  0  0  0  0  1  0  0  0  0  0  0
  2 11  2  0  0  0  0
  3 27  1  6  0  0  0
  3  8  1  0  0  0  0
  5  9  1  0  0  0  0
  6 10  1  0  0  0  0
  6  7  1  0  0  0  0
  7 12  1  0  0  0  0
  8 15  1  0  0  0  0
 10  4  1  6  0  0  0
 10 13  1  0  0  0  0
 11  9  1  0  0  0  0
 12 14  2  0  0  0  0
 13 22  1  6  0  0  0
 13  3  1  0  0  0  0
 14  5  1  0  0  0  0
 15  1  2  0  0  0  0
 15  2  1  0  0  0  0
 17 19  2  0  0  0  0
 17 21  1  0  0  0  0
 18 12  1  6  0  0  0
 18 16  1  0  0  0  0
 19 18  1  0  0  0  0
 20 19  1  0  0  0  0
 21 16  2  0  0  0  0
 22 23  1  0  0  0  0
 22 26  1  0  0  0  0
 24 23  1  0  0  0  0
 25 26  1  0  0  0  0
 27 28  1  0  0  0  0
 28 30  1  0  0  0  0
 29 28  1  0  0  0  0
M  END
>  <MODEL>
8

>  <REMARK>
 VINA RESULT:      -5.1      5.689      9.767
  Name = 
  6 active torsions:
  status: ('A' for Active; 'I' for Inactive)
    1  A    between atoms: C_2  and  N_10
    2  A    between atoms: C_6  and  C_25
    3  A    between atoms: C_8  and  C_21
    4  A    between atoms: N_10  and  O_17
    5  A    between atoms: N_10  and  C_27
    6  A    between atoms: C_22  and  C_25
                            x       y       z     vdW  Elec       q    Type
                         _______ _______ _______ _____ _____    ______ ____

>  <TORSDO>
F 6

$$$$
=
 OpenBabel11032419153D

 30 31  0  0  1  0  0  0  0  0999 V2000
  187.2220  179.0120  139.9530 O   0  0  0  0  0  0  0  0  0  0  0  0
  188.4820  177.1210  139.3820 N   0  0  0  0  0  0  0  0  0  0  0  0
  186.2070  176.5580  137.5370 C   0  0  2  0  0  3  0  0  0  0  0  0
  187.3440  176.7830  134.7570 O   0  0  0  0  0  1  0  0  0  0  0  0
  191.5970  176.8880  139.2700 C   0  0  0  0  0  2  0  0  0  0  0  0
  189.4350  175.8400  135.3620 C   0  0  0  0  0  2  0  0  0  0  0  0
  190.7140  176.6650  135.5020 C   0  0  0  0  0  2  0  0  0  0  0  0
  186.4940  177.8250  138.1290 O   0  0  0  0  0  0  0  0  0  0  0  0
  190.5790  176.3820  140.3030 C   0  0  0  0  0  2  0  0  0  0  0  0
  188.1900  176.5830  135.8520 C   0  0  2  0  0  3  0  0  0  0  0  0
  189.3600  177.2620  140.3190 C   0  0  0  0  0  3  0  0  0  0  0  0
  191.4030  176.3600  136.8060 C   0  0  0  0  0  0  0  0  0  0  0  0
  187.4500  175.8120  136.9800 C   0  0  2  0  0  3  0  0  0  0  0  0
  190.9750  177.0110  137.9020 C   0  0  0  0  0  3  0  0  0  0  0  0
  187.3680  178.0050  139.2040 C   0  0  0  0  0  0  0  0  0  0  0  0
  193.8250  176.2160  136.3360 C   0  0  0  0  0  3  0  0  0  0  0  0
  193.5840  174.3390  135.0690 C   0  0  0  0  0  3  0  0  0  0  0  0
  192.6350  175.4830  136.8630 C   0  0  2  0  0  3  0  0  0  0  0  0
  192.5910  174.3070  135.9390 C   0  0  0  0  0  0  0  0  0  0  0  0
  191.6280  173.1740  136.0420 C   0  0  0  0  0  1  0  0  0  0  0  0
  194.3600  175.5470  135.3210 C   0  0  0  0  0  3  0  0  0  0  0  0
  187.1720  174.4060  136.6140 N   0  0  0  0  0  0  0  0  0  0  0  0
  188.2380  173.5860  137.1910 C   0  0  0  0  0  2  0  0  0  0  0  0
  188.2610  172.2220  136.5190 C   0  0  0  0  0  1  0  0  0  0  0  0
  185.2960  173.3320  136.2240 C   0  0  0  0  0  1  0  0  0  0  0  0
  186.0250  173.9910  137.2250 O   0  0  0  0  0  0  0  0  0  0  0  0
  185.0820  176.6990  136.5110 C   0  0  0  0  0  2  0  0  0  0  0  0
  183.7840  177.1390  137.1670 C   0  0  0  0  0  3  0  0  0  0  0  0
  183.2330  176.0380  138.0560 C   0  0  0  0  0  1  0  0  0  0  0  0
  182.7650  177.4730  136.0940 C   0  0  0  0  0  1  0  0  0  0  0  0
  2 11  2  0  0  0  0
  3 27  1  6  0  0  0
  3  8  1  0  0  0  0
  5  9  1  0  0  0  0
  6  7  1  0  0  0  0
  6 10  1  0  0  0  0
  7 12  1  0  0  0  0
  8 15  1  0  0  0  0
  9 11  1  0  0  0  0
 10  4  1  6  0  0  0
 10 13  1  0  0  0  0
 12 14  2  0  0  0  0
 13 22  1  6  0  0  0
 13  3  1  0  0  0  0
 14  5  1  0  0  0  0
 15  2  1  0  0  0  0
 15  1  2  0  0  0  0
 16 18  1  0  0  0  0
 17 21  1  0  0  0  0
 17 19  2  0  0  0  0
 18 12  1  6  0  0  0
 19 20  1  0  0  0  0
 19 18  1  0  0  0  0
 21 16  2  0  0  0  0
 22 23  1  0  0  0  0
 22 26  1  0  0  0  0
 24 23  1  0  0  0  0
 25 26  1  0  0  0  0
 27 28  1  0  0  0  0
 28 29  1  0  0  0  0
 30 28  1  0  0  0  0
M  END
>  <MODEL>
9

>  <REMARK>
 VINA RESULT:      -5.0      5.950     10.172
  Name = 
  6 active torsions:
  status: ('A' for Active; 'I' for Inactive)
    1  A    between atoms: C_2  and  N_10
    2  A    between atoms: C_6  and  C_25
    3  A    between atoms: C_8  and  C_21
    4  A    between atoms: N_10  and  O_17
    5  A    between atoms: N_10  and  C_27
    6  A    between atoms: C_22  and  C_25
                            x       y       z     vdW  Elec       q    Type
                         _______ _______ _______ _____ _____    ______ ____

>  <TORSDO>
F 6

$$$$
