=
 OpenBabel11042410053D

 29 32  0  0  1  0  0  0  0  0999 V2000
  189.0460  177.0710  147.1060 C   0  0  0  0  0  3  0  0  0  0  0  0
  189.5290  177.9560  138.7360 N   0  0  0  0  0  2  0  0  0  0  0  0
  188.2720  178.6880  140.7290 C   0  0  0  0  0  2  0  0  0  0  0  0
  190.0140  177.3380  143.5680 C   0  0  0  0  0  0  0  0  0  0  0  0
  190.4930  177.6610  141.3590 C   0  0  1  0  0  3  0  0  0  0  0  0
  191.4030  176.8070  146.9460 C   0  0  0  0  0  3  0  0  0  0  0  0
  190.1180  177.1660  144.9430 C   0  0  0  0  0  0  0  0  0  0  0  0
  189.9330  176.5980  139.0990 C   0  0  2  0  0  3  0  0  0  0  0  0
  191.0400  177.3510  142.6420 O   0  0  0  0  0  0  0  0  0  0  0  0
  187.6810  177.4330  145.0910 C   0  0  0  0  0  0  0  0  0  0  0  0
  190.2610  176.8670  147.6820 N   0  0  0  0  0  0  0  0  0  0  0  0
  187.6020  177.5640  143.6790 C   0  0  0  0  0  0  0  0  0  0  0  0
  191.3540  176.9570  145.5590 C   0  0  0  0  0  3  0  0  0  0  0  0
  188.9370  177.2280  145.7180 C   0  0  0  0  0  0  0  0  0  0  0  0
  190.8310  176.5680  140.3460 C   0  0  0  0  0  2  0  0  0  0  0  0
  186.2080  177.4740  146.0690 Cl  0  0  0  0  0  0  0  0  0  0  0  0
  189.0420  177.7700  141.5600 N   0  0  0  0  0  0  0  0  0  0  0  0
  188.8140  177.5540  142.9520 C   0  0  0  0  0  0  0  0  0  0  0  0
  188.1970  178.1720  139.2910 C   0  0  0  0  0  2  0  0  0  0  0  0
  186.2710  177.6370  143.0430 C   0  0  0  0  0  3  0  0  0  0  0  0
  185.5180  178.7290  143.0360 C   0  0  0  0  0  2  0  0  0  0  0  0
  190.5970  175.8950  137.9210 C   0  0  0  0  0  2  0  0  0  0  0  0
  192.0130  176.4020  137.6780 C   0  0  0  0  0  2  0  0  0  0  0  0
  192.9770  175.2340  137.5870 C   0  0  0  0  0  2  0  0  0  0  0  0
  194.1770  175.5550  138.2250 O   0  0  0  0  0  0  0  0  0  0  0  0
  195.4410  173.2290  139.0660 O   0  0  0  0  0  1  0  0  0  0  0  0
  195.2640  174.3280  137.7910 P   0  0  0  0  0  0  0  0  0  0  0  0
  194.7590  173.6010  136.5640 O   0  0  0  0  0  0  0  0  0  0  0  0
  196.7680  175.0190  137.4450 O   0  0  0  0  0  1  0  0  0  0  0  0
  1 11  1  0  0  0  0
  2  8  1  0  0  0  0
  2 19  1  0  0  0  0
  3 17  1  0  0  0  0
  4  7  1  0  0  0  0
  5 15  1  6  0  0  0
  5 17  1  0  0  0  0
  5  9  1  0  0  0  0
  6 11  2  0  0  0  0
  7 13  2  0  0  0  0
  7 14  1  0  0  0  0
  8 22  1  6  0  0  0
  8 15  1  0  0  0  0
  9  4  1  0  0  0  0
 10 14  1  0  0  0  0
 10 16  1  0  0  0  0
 12 10  2  0  0  0  0
 13  6  1  0  0  0  0
 14  1  2  0  0  0  0
 17 18  1  0  0  0  0
 18  4  2  0  0  0  0
 18 12  1  0  0  0  0
 19  3  1  0  0  0  0
 20 12  1  0  0  0  0
 21 20  2  0  0  0  0
 23 22  1  0  0  0  0
 24 23  1  0  0  0  0
 24 25  1  0  0  0  0
 27 25  1  0  0  0  0
 27 26  1  0  0  0  0
 28 27  2  0  0  0  0
 29 27  1  0  0  0  0
M  END
>  <MODEL>
1

>  <REMARK>
 VINA RESULT:      -8.6      0.000      0.000
  Name = 
  6 active torsions:
  status: ('A' for Active; 'I' for Inactive)
    1  A    between atoms: O_2  and  P_16
    2  A    between atoms: O_2  and  C_26
    3  A    between atoms: C_9  and  C_25
    4  A    between atoms: C_13  and  C_21
    5  A    between atoms: C_22  and  C_25
    6  A    between atoms: C_22  and  C_26
                            x       y       z     vdW  Elec       q    Type
                         _______ _______ _______ _____ _____    ______ ____

>  <TORSDO>
F 6

$$$$
=
 OpenBabel11042410053D

 29 32  0  0  1  0  0  0  0  0999 V2000
  186.2770  178.3820  147.0390 C   0  0  0  0  0  3  0  0  0  0  0  0
  189.6860  176.9340  139.4650 N   0  0  0  0  0  2  0  0  0  0  0  0
  189.8320  176.3090  141.8480 C   0  0  0  0  0  2  0  0  0  0  0  0
  187.0490  177.8970  143.4760 C   0  0  0  0  0  0  0  0  0  0  0  0
  187.6340  177.4340  141.3170 C   0  0  1  0  0  3  0  0  0  0  0  0
  184.2830  178.6960  145.7840 C   0  0  0  0  0  3  0  0  0  0  0  0
  186.3280  178.1660  144.6330 C   0  0  0  0  0  0  0  0  0  0  0  0
  189.2360  178.3240  139.5310 C   0  0  2  0  0  3  0  0  0  0  0  0
  186.5720  177.8460  142.1800 O   0  0  0  0  0  0  0  0  0  0  0  0
  188.4000  177.8460  145.9140 C   0  0  0  0  0  0  0  0  0  0  0  0
  184.9470  178.6570  146.9710 N   0  0  0  0  0  0  0  0  0  0  0  0
  189.1170  177.6160  144.7110 C   0  0  0  0  0  0  0  0  0  0  0  0
  184.9610  178.4500  144.5900 C   0  0  0  0  0  3  0  0  0  0  0  0
  187.0100  178.1260  145.8720 C   0  0  0  0  0  0  0  0  0  0  0  0
  187.8650  178.4640  140.2120 C   0  0  0  0  0  2  0  0  0  0  0  0
  189.2450  177.8340  147.4670 Cl  0  0  0  0  0  0  0  0  0  0  0  0
  188.8170  177.3020  142.1770 N   0  0  0  0  0  0  0  0  0  0  0  0
  188.3840  177.6070  143.5030 C   0  0  0  0  0  0  0  0  0  0  0  0
  190.5950  176.7220  140.5880 C   0  0  0  0  0  2  0  0  0  0  0  0
  190.5850  177.4640  144.7740 C   0  0  0  0  0  3  0  0  0  0  0  0
  191.4390  178.4100  144.4040 C   0  0  0  0  0  2  0  0  0  0  0  0
  189.2350  178.9610  138.1470 C   0  0  0  0  0  2  0  0  0  0  0  0
  189.5510  177.9500  137.0530 C   0  0  0  0  0  2  0  0  0  0  0  0
  188.3390  177.7480  136.1630 C   0  0  0  0  0  2  0  0  0  0  0  0
  187.2590  178.4860  136.6530 O   0  0  0  0  0  0  0  0  0  0  0  0
  186.6620  175.8440  137.2700 O   0  0  0  0  0  1  0  0  0  0  0  0
  186.0130  177.3610  136.8940 P   0  0  0  0  0  0  0  0  0  0  0  0
  185.1150  177.8190  138.0220 O   0  0  0  0  0  1  0  0  0  0  0  0
  185.0990  177.2350  135.4770 O   0  0  0  0  0  0  0  0  0  0  0  0
  2  8  1  0  0  0  0
  2 19  1  0  0  0  0
  3 17  1  0  0  0  0
  4 18  2  0  0  0  0
  4  7  1  0  0  0  0
  5 15  1  6  0  0  0
  5 17  1  0  0  0  0
  5  9  1  0  0  0  0
  6 11  2  0  0  0  0
  7 14  1  0  0  0  0
  8 22  1  6  0  0  0
  8 15  1  0  0  0  0
  9  4  1  0  0  0  0
 10 16  1  0  0  0  0
 11  1  1  0  0  0  0
 12 20  1  0  0  0  0
 12 10  2  0  0  0  0
 13  7  2  0  0  0  0
 13  6  1  0  0  0  0
 14 10  1  0  0  0  0
 14  1  2  0  0  0  0
 17 18  1  0  0  0  0
 18 12  1  0  0  0  0
 19  3  1  0  0  0  0
 21 20  2  0  0  0  0
 23 22  1  0  0  0  0
 24 25  1  0  0  0  0
 24 23  1  0  0  0  0
 25 27  1  0  0  0  0
 27 26  1  0  0  0  0
 27 28  1  0  0  0  0
 29 27  2  0  0  0  0
M  END
>  <MODEL>
2

>  <REMARK>
 VINA RESULT:      -8.5      4.300      5.448
  Name = 
  6 active torsions:
  status: ('A' for Active; 'I' for Inactive)
    1  A    between atoms: O_2  and  P_16
    2  A    between atoms: O_2  and  C_26
    3  A    between atoms: C_9  and  C_25
    4  A    between atoms: C_13  and  C_21
    5  A    between atoms: C_22  and  C_25
    6  A    between atoms: C_22  and  C_26
                            x       y       z     vdW  Elec       q    Type
                         _______ _______ _______ _____ _____    ______ ____

>  <TORSDO>
F 6

$$$$
=
 OpenBabel11042410053D

 29 32  0  0  1  0  0  0  0  0999 V2000
  189.3080  176.9700  146.9430 C   0  0  0  0  0  3  0  0  0  0  0  0
  189.2020  177.9440  138.5690 N   0  0  0  0  0  2  0  0  0  0  0  0
  188.1040  178.6730  140.6550 C   0  0  0  0  0  2  0  0  0  0  0  0
  190.0220  177.2620  143.3480 C   0  0  0  0  0  0  0  0  0  0  0  0
  190.3470  177.6040  141.1130 C   0  0  1  0  0  3  0  0  0  0  0  0
  191.6420  176.6700  146.6100 C   0  0  0  0  0  3  0  0  0  0  0  0
  190.2230  177.0720  144.7090 C   0  0  0  0  0  0  0  0  0  0  0  0
  189.6080  176.5760  138.8880 C   0  0  2  0  0  3  0  0  0  0  0  0
  190.9790  177.2700  142.3500 O   0  0  0  0  0  0  0  0  0  0  0  0
  187.8070  177.3770  145.0350 C   0  0  0  0  0  0  0  0  0  0  0  0
  190.5580  176.7400  147.4280 N   0  0  0  0  0  0  0  0  0  0  0  0
  187.6290  177.5260  143.6340 C   0  0  0  0  0  0  0  0  0  0  0  0
  191.4960  176.8370  145.2330 C   0  0  0  0  0  3  0  0  0  0  0  0
  189.1010  177.1450  145.5680 C   0  0  0  0  0  0  0  0  0  0  0  0
  190.5930  176.5170  140.0670 C   0  0  0  0  0  2  0  0  0  0  0  0
  186.4100  177.4300  146.1180 Cl  0  0  0  0  0  0  0  0  0  0  0  0
  188.9160  177.7330  141.4190 N   0  0  0  0  0  0  0  0  0  0  0  0
  188.7860  177.5050  142.8220 C   0  0  0  0  0  0  0  0  0  0  0  0
  187.9170  178.1750  139.2210 C   0  0  0  0  0  2  0  0  0  0  0  0
  186.2570  177.6270  143.0970 C   0  0  0  0  0  3  0  0  0  0  0  0
  185.5340  178.7380  143.1330 C   0  0  0  0  0  2  0  0  0  0  0  0
  190.1740  175.8760  137.6580 C   0  0  0  0  0  2  0  0  0  0  0  0
  189.1300  175.7190  136.5610 C   0  0  0  0  0  2  0  0  0  0  0  0
  188.1220  174.6540  136.9480 C   0  0  0  0  0  2  0  0  0  0  0  0
  186.8890  175.2440  137.2330 O   0  0  0  0  0  0  0  0  0  0  0  0
  185.8610  173.3930  135.4350 O   0  0  0  0  0  0  0  0  0  0  0  0
  185.7360  174.0230  137.0010 P   0  0  0  0  0  0  0  0  0  0  0  0
  185.9480  172.9150  138.0100 O   0  0  0  0  0  1  0  0  0  0  0  0
  184.1900  174.6740  137.2120 O   0  0  0  0  0  1  0  0  0  0  0  0
  1 11  1  0  0  0  0
  2  8  1  0  0  0  0
  2 19  1  0  0  0  0
  3 17  1  0  0  0  0
  4  7  1  0  0  0  0
  5 15  1  6  0  0  0
  5 17  1  0  0  0  0
  5  9  1  0  0  0  0
  6 11  2  0  0  0  0
  7 13  2  0  0  0  0
  7 14  1  0  0  0  0
  8 22  1  6  0  0  0
  8 15  1  0  0  0  0
  9  4  1  0  0  0  0
 10 14  1  0  0  0  0
 10 16  1  0  0  0  0
 12 10  2  0  0  0  0
 13  6  1  0  0  0  0
 14  1  2  0  0  0  0
 17 18  1  0  0  0  0
 18  4  2  0  0  0  0
 18 12  1  0  0  0  0
 19  3  1  0  0  0  0
 20 21  2  0  0  0  0
 20 12  1  0  0  0  0
 23 24  1  0  0  0  0
 23 22  1  0  0  0  0
 24 25  1  0  0  0  0
 26 27  2  0  0  0  0
 27 29  1  0  0  0  0
 27 25  1  0  0  0  0
 27 28  1  0  0  0  0
M  END
>  <MODEL>
3

>  <REMARK>
 VINA RESULT:      -8.1      3.658      4.257
  Name = 
  6 active torsions:
  status: ('A' for Active; 'I' for Inactive)
    1  A    between atoms: O_2  and  P_16
    2  A    between atoms: O_2  and  C_26
    3  A    between atoms: C_9  and  C_25
    4  A    between atoms: C_13  and  C_21
    5  A    between atoms: C_22  and  C_25
    6  A    between atoms: C_22  and  C_26
                            x       y       z     vdW  Elec       q    Type
                         _______ _______ _______ _____ _____    ______ ____

>  <TORSDO>
F 6

$$$$
=
 OpenBabel11042410053D

 29 32  0  0  1  0  0  0  0  0999 V2000
  186.7070  178.3190  147.5310 C   0  0  0  0  0  3  0  0  0  0  0  0
  190.0170  176.7160  139.9450 N   0  0  0  0  0  2  0  0  0  0  0  0
  190.2330  176.1860  142.3450 C   0  0  0  0  0  2  0  0  0  0  0  0
  187.4250  177.7300  143.9730 C   0  0  0  0  0  0  0  0  0  0  0  0
  187.9840  177.2090  141.8200 C   0  0  1  0  0  3  0  0  0  0  0  0
  184.6770  178.5120  146.3080 C   0  0  0  0  0  3  0  0  0  0  0  0
  186.7180  178.0160  145.1340 C   0  0  0  0  0  0  0  0  0  0  0  0
  189.5150  178.0890  139.9690 C   0  0  2  0  0  3  0  0  0  0  0  0
  186.9240  177.6140  142.6900 O   0  0  0  0  0  0  0  0  0  0  0  0
  188.8250  177.8200  146.3820 C   0  0  0  0  0  0  0  0  0  0  0  0
  185.3660  178.5420  147.4810 N   0  0  0  0  0  0  0  0  0  0  0  0
  189.5260  177.5720  145.1730 C   0  0  0  0  0  0  0  0  0  0  0  0
  185.3410  178.2470  145.1100 C   0  0  0  0  0  3  0  0  0  0  0  0
  187.4250  178.0470  146.3590 C   0  0  0  0  0  0  0  0  0  0  0  0
  188.1540  178.2040  140.6730 C   0  0  0  0  0  2  0  0  0  0  0  0
  189.7000  177.8970  147.9160 Cl  0  0  0  0  0  0  0  0  0  0  0  0
  189.1880  177.1520  142.6590 N   0  0  0  0  0  0  0  0  0  0  0  0
  188.7700  177.4910  143.9810 C   0  0  0  0  0  0  0  0  0  0  0  0
  190.9540  176.5790  141.0550 C   0  0  0  0  0  2  0  0  0  0  0  0
  191.0000  177.4770  145.2100 C   0  0  0  0  0  3  0  0  0  0  0  0
  191.6580  176.3860  145.5790 C   0  0  0  0  0  2  0  0  0  0  0  0
  189.4630  178.6740  138.5630 C   0  0  0  0  0  2  0  0  0  0  0  0
  188.1740  178.3050  137.8390 C   0  0  0  0  0  2  0  0  0  0  0  0
  188.4170  177.1320  136.9090 C   0  0  0  0  0  2  0  0  0  0  0  0
  189.7790  177.0260  136.6180 O   0  0  0  0  0  0  0  0  0  0  0  0
  188.6960  174.8280  135.3100 O   0  0  0  0  0  0  0  0  0  0  0  0
  190.0260  175.4060  136.1830 P   0  0  0  0  0  0  0  0  0  0  0  0
  191.2760  175.2830  135.3400 O   0  0  0  0  0  1  0  0  0  0  0  0
  190.2110  174.4790  137.5850 O   0  0  0  0  0  1  0  0  0  0  0  0
  2  8  1  0  0  0  0
  2 19  1  0  0  0  0
  3 17  1  0  0  0  0
  4 18  2  0  0  0  0
  4  7  1  0  0  0  0
  5 15  1  6  0  0  0
  5 17  1  0  0  0  0
  5  9  1  0  0  0  0
  6 11  2  0  0  0  0
  7 14  1  0  0  0  0
  8 22  1  6  0  0  0
  8 15  1  0  0  0  0
  9  4  1  0  0  0  0
 10 16  1  0  0  0  0
 11  1  1  0  0  0  0
 12 20  1  0  0  0  0
 12 10  2  0  0  0  0
 13  7  2  0  0  0  0
 13  6  1  0  0  0  0
 14 10  1  0  0  0  0
 14  1  2  0  0  0  0
 17 18  1  0  0  0  0
 18 12  1  0  0  0  0
 19  3  1  0  0  0  0
 20 21  2  0  0  0  0
 23 22  1  0  0  0  0
 24 23  1  0  0  0  0
 25 24  1  0  0  0  0
 26 27  2  0  0  0  0
 27 25  1  0  0  0  0
 27 29  1  0  0  0  0
 28 27  1  0  0  0  0
M  END
>  <MODEL>
4

>  <REMARK>
 VINA RESULT:      -8.1      2.967      4.329
  Name = 
  6 active torsions:
  status: ('A' for Active; 'I' for Inactive)
    1  A    between atoms: O_2  and  P_16
    2  A    between atoms: O_2  and  C_26
    3  A    between atoms: C_9  and  C_25
    4  A    between atoms: C_13  and  C_21
    5  A    between atoms: C_22  and  C_25
    6  A    between atoms: C_22  and  C_26
                            x       y       z     vdW  Elec       q    Type
                         _______ _______ _______ _____ _____    ______ ____

>  <TORSDO>
F 6

$$$$
=
 OpenBabel11042410053D

 29 32  0  0  1  0  0  0  0  0999 V2000
  190.4250  177.2170  144.1320 C   0  0  0  0  0  3  0  0  0  0  0  0
  182.4820  179.3350  142.2590 N   0  0  0  0  0  2  0  0  0  0  0  0
  184.2030  179.4900  144.0200 C   0  0  0  0  0  2  0  0  0  0  0  0
  187.2280  178.1770  142.5890 C   0  0  0  0  0  0  0  0  0  0  0  0
  185.2170  178.9000  141.7820 C   0  0  1  0  0  3  0  0  0  0  0  0
  190.7690  177.5030  141.7980 C   0  0  0  0  0  3  0  0  0  0  0  0
  188.5700  177.8440  142.7150 C   0  0  0  0  0  0  0  0  0  0  0  0
  182.8050  178.0630  141.6140 C   0  0  2  0  0  3  0  0  0  0  0  0
  186.5570  178.5440  141.4370 O   0  0  0  0  0  0  0  0  0  0  0  0
  188.1970  177.5450  145.1250 C   0  0  0  0  0  0  0  0  0  0  0  0
  191.2360  177.2080  143.0400 N   0  0  0  0  0  0  0  0  0  0  0  0
  186.8200  177.8490  144.9570 C   0  0  0  0  0  0  0  0  0  0  0  0
  189.4250  177.8290  141.6110 C   0  0  0  0  0  3  0  0  0  0  0  0
  189.0660  177.5370  144.0040 C   0  0  0  0  0  0  0  0  0  0  0  0
  184.2120  178.0590  140.9970 C   0  0  0  0  0  2  0  0  0  0  0  0
  188.8240  177.1260  146.7240 Cl  0  0  0  0  0  0  0  0  0  0  0  0
  185.1000  178.6580  143.2260 N   0  0  0  0  0  0  0  0  0  0  0  0
  186.3820  178.2070  143.6610 C   0  0  0  0  0  0  0  0  0  0  0  0
  182.7450  179.1740  143.6860 C   0  0  0  0  0  2  0  0  0  0  0  0
  185.9140  177.7150  146.1150 C   0  0  0  0  0  3  0  0  0  0  0  0
  185.6980  178.6820  146.9960 C   0  0  0  0  0  2  0  0  0  0  0  0
  181.7460  177.6930  140.5820 C   0  0  0  0  0  2  0  0  0  0  0  0
  180.5270  178.6020  140.6630 C   0  0  0  0  0  2  0  0  0  0  0  0
  180.3560  179.3620  139.3620 C   0  0  0  0  0  2  0  0  0  0  0  0
  180.5030  180.7330  139.5870 O   0  0  0  0  0  0  0  0  0  0  0  0
  181.1640  180.3830  136.9120 O   0  0  0  0  0  0  0  0  0  0  0  0
  181.4500  181.3050  138.3020 P   0  0  0  0  0  0  0  0  0  0  0  0
  181.1190  182.7550  138.0220 O   0  0  0  0  0  1  0  0  0  0  0  0
  183.0830  181.1810  138.7210 O   0  0  0  0  0  1  0  0  0  0  0  0
  2 19  1  0  0  0  0
  4  7  2  0  0  0  0
  4 18  1  0  0  0  0
  5 15  1  6  0  0  0
  5 17  1  0  0  0  0
  6 11  1  0  0  0  0
  7 14  1  0  0  0  0
  8 22  1  6  0  0  0
  8  2  1  0  0  0  0
  9  5  1  0  0  0  0
  9  4  1  0  0  0  0
 10 16  1  0  0  0  0
 11  1  2  0  0  0  0
 12 10  1  0  0  0  0
 12 20  1  0  0  0  0
 13  6  2  0  0  0  0
 13  7  1  0  0  0  0
 14  1  1  0  0  0  0
 14 10  2  0  0  0  0
 15  8  1  0  0  0  0
 17 18  1  0  0  0  0
 17  3  1  0  0  0  0
 18 12  2  0  0  0  0
 19  3  1  0  0  0  0
 20 21  2  0  0  0  0
 22 23  1  0  0  0  0
 24 25  1  0  0  0  0
 24 23  1  0  0  0  0
 26 27  2  0  0  0  0
 27 29  1  0  0  0  0
 27 25  1  0  0  0  0
 28 27  1  0  0  0  0
M  END
>  <MODEL>
5

>  <REMARK>
 VINA RESULT:      -7.6      5.867      8.490
  Name = 
  6 active torsions:
  status: ('A' for Active; 'I' for Inactive)
    1  A    between atoms: O_2  and  P_16
    2  A    between atoms: O_2  and  C_26
    3  A    between atoms: C_9  and  C_25
    4  A    between atoms: C_13  and  C_21
    5  A    between atoms: C_22  and  C_25
    6  A    between atoms: C_22  and  C_26
                            x       y       z     vdW  Elec       q    Type
                         _______ _______ _______ _____ _____    ______ ____

>  <TORSDO>
F 6

$$$$
=
 OpenBabel11042410053D

 29 32  0  0  1  0  0  0  0  0999 V2000
  190.3990  177.1240  141.0240 C   0  0  0  0  0  3  0  0  0  0  0  0
  182.8890  179.5280  144.0090 N   0  0  0  0  0  2  0  0  0  0  0  0
  185.2560  179.2170  144.6370 C   0  0  0  0  0  2  0  0  0  0  0  0
  187.0040  178.4150  141.6000 C   0  0  0  0  0  0  0  0  0  0  0  0
  184.9640  179.2960  142.1280 C   0  0  1  0  0  3  0  0  0  0  0  0
  189.5900  178.0570  138.9920 C   0  0  0  0  0  3  0  0  0  0  0  0
  188.1830  178.0860  140.9440 C   0  0  0  0  0  0  0  0  0  0  0  0
  182.6940  178.4920  142.9950 C   0  0  2  0  0  3  0  0  0  0  0  0
  185.9080  179.0760  141.0780 O   0  0  0  0  0  0  0  0  0  0  0  0
  189.0010  177.1190  143.0490 C   0  0  0  0  0  0  0  0  0  0  0  0
  190.5640  177.4360  139.7100 N   0  0  0  0  0  0  0  0  0  0  0  0
  187.7680  177.4310  143.6800 C   0  0  0  0  0  0  0  0  0  0  0  0
  188.3790  178.3960  139.5970 C   0  0  0  0  0  3  0  0  0  0  0  0
  189.2030  177.4410  141.6830 C   0  0  0  0  0  0  0  0  0  0  0  0
  183.6070  178.6880  141.7750 C   0  0  0  0  0  2  0  0  0  0  0  0
  190.2720  176.2820  143.9500 Cl  0  0  0  0  0  0  0  0  0  0  0  0
  185.5380  178.6580  143.3200 N   0  0  0  0  0  0  0  0  0  0  0  0
  186.8020  178.1280  142.9200 C   0  0  0  0  0  0  0  0  0  0  0  0
  183.7930  178.9800  145.0160 C   0  0  0  0  0  2  0  0  0  0  0  0
  187.5350  176.9610  145.0610 C   0  0  0  0  0  3  0  0  0  0  0  0
  188.0140  177.5720  146.1370 C   0  0  0  0  0  2  0  0  0  0  0  0
  181.2290  178.4050  142.5830 C   0  0  0  0  0  2  0  0  0  0  0  0
  180.9310  179.2530  141.3540 C   0  0  0  0  0  2  0  0  0  0  0  0
  180.4290  178.3760  140.2240 C   0  0  0  0  0  2  0  0  0  0  0  0
  180.3650  177.0450  140.6440 O   0  0  0  0  0  0  0  0  0  0  0  0
  180.3020  174.6150  139.2990 O   0  0  0  0  0  1  0  0  0  0  0  0
  181.0380  176.1370  139.3800 P   0  0  0  0  0  0  0  0  0  0  0  0
  180.8470  176.8610  138.0650 O   0  0  0  0  0  0  0  0  0  0  0  0
  182.6930  175.9350  139.6640 O   0  0  0  0  0  1  0  0  0  0  0  0
  1 14  1  0  0  0  0
  2 19  1  0  0  0  0
  3 19  1  0  0  0  0
  4 18  1  0  0  0  0
  5 15  1  6  0  0  0
  5 17  1  0  0  0  0
  6 13  2  0  0  0  0
  6 11  1  0  0  0  0
  7  4  2  0  0  0  0
  7 14  1  0  0  0  0
  8 22  1  6  0  0  0
  8  2  1  0  0  0  0
  9  4  1  0  0  0  0
  9  5  1  0  0  0  0
 10 12  1  0  0  0  0
 10 16  1  0  0  0  0
 11  1  2  0  0  0  0
 12 20  1  0  0  0  0
 13  7  1  0  0  0  0
 14 10  2  0  0  0  0
 15  8  1  0  0  0  0
 17  3  1  0  0  0  0
 18 17  1  0  0  0  0
 18 12  2  0  0  0  0
 20 21  2  0  0  0  0
 23 22  1  0  0  0  0
 24 25  1  0  0  0  0
 24 23  1  0  0  0  0
 26 27  1  0  0  0  0
 27 29  1  0  0  0  0
 27 25  1  0  0  0  0
 28 27  2  0  0  0  0
M  END
>  <MODEL>
6

>  <REMARK>
 VINA RESULT:      -7.4      5.559      8.653
  Name = 
  6 active torsions:
  status: ('A' for Active; 'I' for Inactive)
    1  A    between atoms: O_2  and  P_16
    2  A    between atoms: O_2  and  C_26
    3  A    between atoms: C_9  and  C_25
    4  A    between atoms: C_13  and  C_21
    5  A    between atoms: C_22  and  C_25
    6  A    between atoms: C_22  and  C_26
                            x       y       z     vdW  Elec       q    Type
                         _______ _______ _______ _____ _____    ______ ____

>  <TORSDO>
F 6

$$$$
=
 OpenBabel11042410053D

 29 32  0  0  1  0  0  0  0  0999 V2000
  190.1900  177.1810  143.4650 C   0  0  0  0  0  3  0  0  0  0  0  0
  182.1300  179.4820  142.5620 N   0  0  0  0  0  2  0  0  0  0  0  0
  184.0470  179.5730  144.1130 C   0  0  0  0  0  2  0  0  0  0  0  0
  186.8560  178.2280  142.3200 C   0  0  0  0  0  0  0  0  0  0  0  0
  184.7810  179.0040  141.7640 C   0  0  1  0  0  3  0  0  0  0  0  0
  190.2660  177.5010  141.1100 C   0  0  0  0  0  3  0  0  0  0  0  0
  188.1970  177.8670  142.2830 C   0  0  0  0  0  0  0  0  0  0  0  0
  182.3480  178.2160  141.8650 C   0  0  2  0  0  3  0  0  0  0  0  0
  186.0640  178.6280  141.2600 O   0  0  0  0  0  0  0  0  0  0  0  0
  188.1000  177.5330  144.7150 C   0  0  0  0  0  0  0  0  0  0  0  0
  190.8680  177.1750  142.2850 N   0  0  0  0  0  0  0  0  0  0  0  0
  186.7200  177.8670  144.7130 C   0  0  0  0  0  0  0  0  0  0  0  0
  188.9170  177.8550  141.0860 C   0  0  0  0  0  3  0  0  0  0  0  0
  188.8330  177.5290  143.5000 C   0  0  0  0  0  0  0  0  0  0  0  0
  183.6740  178.1960  141.0880 C   0  0  0  0  0  2  0  0  0  0  0  0
  188.9000  177.0750  146.2240 Cl  0  0  0  0  0  0  0  0  0  0  0  0
  184.8270  178.7390  143.2080 N   0  0  0  0  0  0  0  0  0  0  0  0
  186.1420  178.2560  143.4830 C   0  0  0  0  0  0  0  0  0  0  0  0
  182.5530  179.2910  143.9460 C   0  0  0  0  0  2  0  0  0  0  0  0
  185.9520  177.7300  145.9670 C   0  0  0  0  0  3  0  0  0  0  0  0
  185.9260  178.6530  146.9190 C   0  0  0  0  0  2  0  0  0  0  0  0
  181.1690  177.8840  140.9580 C   0  0  0  0  0  2  0  0  0  0  0  0
  181.4160  178.3180  139.5200 C   0  0  0  0  0  2  0  0  0  0  0  0
  181.1520  177.1630  138.5730 C   0  0  0  0  0  2  0  0  0  0  0  0
  181.9260  176.0590  138.9400 O   0  0  0  0  0  0  0  0  0  0  0  0
  183.5010  174.2150  137.5850 O   0  0  0  0  0  1  0  0  0  0  0  0
  183.0310  175.8390  137.6730 P   0  0  0  0  0  0  0  0  0  0  0  0
  182.4030  176.2540  136.3610 O   0  0  0  0  0  0  0  0  0  0  0  0
  184.3970  176.7930  137.9590 O   0  0  0  0  0  1  0  0  0  0  0  0
  1 14  1  0  0  0  0
  2 19  1  0  0  0  0
  4 18  1  0  0  0  0
  5 15  1  6  0  0  0
  5 17  1  0  0  0  0
  6 11  1  0  0  0  0
  7  4  2  0  0  0  0
  7 14  1  0  0  0  0
  8 22  1  6  0  0  0
  8  2  1  0  0  0  0
  9  5  1  0  0  0  0
  9  4  1  0  0  0  0
 10 16  1  0  0  0  0
 11  1  2  0  0  0  0
 12 10  1  0  0  0  0
 12 20  1  0  0  0  0
 13  6  2  0  0  0  0
 13  7  1  0  0  0  0
 14 10  2  0  0  0  0
 15  8  1  0  0  0  0
 17 18  1  0  0  0  0
 17  3  1  0  0  0  0
 18 12  2  0  0  0  0
 19  3  1  0  0  0  0
 20 21  2  0  0  0  0
 23 22  1  0  0  0  0
 24 25  1  0  0  0  0
 24 23  1  0  0  0  0
 26 27  1  0  0  0  0
 27 29  1  0  0  0  0
 27 25  1  0  0  0  0
 28 27  2  0  0  0  0
M  END
>  <MODEL>
7

>  <REMARK>
 VINA RESULT:      -7.2      5.265      7.590
  Name = 
  6 active torsions:
  status: ('A' for Active; 'I' for Inactive)
    1  A    between atoms: O_2  and  P_16
    2  A    between atoms: O_2  and  C_26
    3  A    between atoms: C_9  and  C_25
    4  A    between atoms: C_13  and  C_21
    5  A    between atoms: C_22  and  C_25
    6  A    between atoms: C_22  and  C_26
                            x       y       z     vdW  Elec       q    Type
                         _______ _______ _______ _____ _____    ______ ____

>  <TORSDO>
F 6

$$$$
=
 OpenBabel11042410053D

 29 32  0  0  1  0  0  0  0  0999 V2000
  179.6750  178.6520  141.8740 C   0  0  0  0  0  3  0  0  0  0  0  0
  188.0830  178.2990  142.3930 N   0  0  0  0  0  2  0  0  0  0  0  0
  186.2230  179.0020  140.9320 C   0  0  0  0  0  2  0  0  0  0  0  0
  183.2180  178.5880  142.8600 C   0  0  0  0  0  0  0  0  0  0  0  0
  185.4550  178.6680  143.3150 C   0  0  1  0  0  3  0  0  0  0  0  0
  179.8100  178.9550  144.2280 C   0  0  0  0  0  3  0  0  0  0  0  0
  181.8340  178.6660  142.9600 C   0  0  0  0  0  0  0  0  0  0  0  0
  187.5100  177.1580  143.1060 C   0  0  2  0  0  3  0  0  0  0  0  0
  184.1430  178.7090  143.8800 O   0  0  0  0  0  0  0  0  0  0  0  0
  181.7120  178.3430  140.5270 C   0  0  0  0  0  0  0  0  0  0  0  0
  179.0840  178.8470  143.0840 N   0  0  0  0  0  0  0  0  0  0  0  0
  183.1250  178.2270  140.4640 C   0  0  0  0  0  0  0  0  0  0  0  0
  181.2020  178.8680  144.1880 C   0  0  0  0  0  3  0  0  0  0  0  0
  181.0700  178.5560  141.7740 C   0  0  0  0  0  0  0  0  0  0  0  0
  186.2820  177.5470  143.9430 C   0  0  0  0  0  2  0  0  0  0  0  0
  180.7410  178.1730  139.0590 Cl  0  0  0  0  0  0  0  0  0  0  0  0
  185.2620  178.4450  141.8760 N   0  0  0  0  0  0  0  0  0  0  0  0
  183.8510  178.4020  141.6640 C   0  0  0  0  0  0  0  0  0  0  0  0
  187.5590  178.2640  141.0310 C   0  0  0  0  0  2  0  0  0  0  0  0
  183.7540  177.8680  139.1770 C   0  0  0  0  0  3  0  0  0  0  0  0
  184.0900  178.7550  138.2490 C   0  0  0  0  0  2  0  0  0  0  0  0
  188.5650  176.4640  143.9590 C   0  0  0  0  0  2  0  0  0  0  0  0
  189.8720  177.2440  143.9960 C   0  0  0  0  0  2  0  0  0  0  0  0
  190.1810  177.6780  145.4160 C   0  0  0  0  0  2  0  0  0  0  0  0
  191.5370  177.4840  145.6900 O   0  0  0  0  0  0  0  0  0  0  0  0
  192.4250  175.0210  146.6190 O   0  0  0  0  0  0  0  0  0  0  0  0
  191.5850  176.4340  147.0210 P   0  0  0  0  0  0  0  0  0  0  0  0
  192.2670  177.1120  148.1890 O   0  0  0  0  0  1  0  0  0  0  0  0
  190.0040  176.0290  147.4640 O   0  0  0  0  0  1  0  0  0  0  0  0
  1 11  1  0  0  0  0
  2  8  1  0  0  0  0
  3 19  1  0  0  0  0
  3 17  1  0  0  0  0
  4  7  1  0  0  0  0
  4  9  1  0  0  0  0
  5  9  1  0  0  0  0
  5 15  1  1  0  0  0
  7 13  2  0  0  0  0
  8 15  1  0  0  0  0
  8 22  1  1  0  0  0
 10 14  1  0  0  0  0
 11  6  2  0  0  0  0
 12 10  2  0  0  0  0
 12 18  1  0  0  0  0
 13  6  1  0  0  0  0
 14  1  2  0  0  0  0
 14  7  1  0  0  0  0
 16 10  1  0  0  0  0
 17  5  1  0  0  0  0
 18 17  1  0  0  0  0
 18  4  2  0  0  0  0
 19  2  1  0  0  0  0
 20 12  1  0  0  0  0
 21 20  2  0  0  0  0
 22 23  1  0  0  0  0
 23 24  1  0  0  0  0
 24 25  1  0  0  0  0
 25 27  1  0  0  0  0
 26 27  2  0  0  0  0
 27 29  1  0  0  0  0
 27 28  1  0  0  0  0
M  END
>  <MODEL>
8

>  <REMARK>
 VINA RESULT:      -7.2      5.111      7.972
  Name = 
  6 active torsions:
  status: ('A' for Active; 'I' for Inactive)
    1  A    between atoms: O_2  and  P_16
    2  A    between atoms: O_2  and  C_26
    3  A    between atoms: C_9  and  C_25
    4  A    between atoms: C_13  and  C_21
    5  A    between atoms: C_22  and  C_25
    6  A    between atoms: C_22  and  C_26
                            x       y       z     vdW  Elec       q    Type
                         _______ _______ _______ _____ _____    ______ ____

>  <TORSDO>
F 6

$$$$
=
 OpenBabel11042410053D

 29 32  0  0  1  0  0  0  0  0999 V2000
  189.4530  177.2290  146.3430 C   0  0  0  0  0  3  0  0  0  0  0  0
  186.8270  178.5660  138.4440 N   0  0  0  0  0  2  0  0  0  0  0  0
  186.3430  179.1050  140.8030 C   0  0  0  0  0  2  0  0  0  0  0  0
  189.0580  177.7410  142.7230 C   0  0  0  0  0  0  0  0  0  0  0  0
  188.6880  178.2090  140.5180 C   0  0  1  0  0  3  0  0  0  0  0  0
  191.6010  177.1420  145.3300 C   0  0  0  0  0  3  0  0  0  0  0  0
  189.6620  177.5080  143.9520 C   0  0  0  0  0  0  0  0  0  0  0  0
  187.4000  177.2240  138.5390 C   0  0  2  0  0  3  0  0  0  0  0  0
  189.6770  177.8750  141.4940 O   0  0  0  0  0  0  0  0  0  0  0  0
  187.4340  177.5930  144.9830 C   0  0  0  0  0  0  0  0  0  0  0  0
  190.8020  177.0830  146.4290 N   0  0  0  0  0  0  0  0  0  0  0  0
  186.8430  177.7890  143.7070 C   0  0  0  0  0  0  0  0  0  0  0  0
  191.0460  177.3570  144.0680 C   0  0  0  0  0  3  0  0  0  0  0  0
  188.8400  177.4470  145.1020 C   0  0  0  0  0  0  0  0  0  0  0  0
  188.6890  177.1950  139.3750 C   0  0  0  0  0  2  0  0  0  0  0  0
  186.4160  177.4800  146.4250 Cl  0  0  0  0  0  0  0  0  0  0  0  0
  187.4050  178.2040  141.2340 N   0  0  0  0  0  0  0  0  0  0  0  0
  187.7080  177.9020  142.5950 C   0  0  0  0  0  0  0  0  0  0  0  0
  185.7770  178.6580  139.4540 C   0  0  0  0  0  2  0  0  0  0  0  0
  185.3700  177.7990  143.5980 C   0  0  0  0  0  3  0  0  0  0  0  0
  184.6190  178.8570  143.8710 C   0  0  0  0  0  2  0  0  0  0  0  0
  187.6250  176.6300  137.1530 C   0  0  0  0  0  2  0  0  0  0  0  0
  188.0060  175.1570  137.2200 C   0  0  0  0  0  2  0  0  0  0  0  0
  186.7580  174.2940  137.2160 C   0  0  0  0  0  2  0  0  0  0  0  0
  186.8850  173.2750  136.2690 O   0  0  0  0  0  0  0  0  0  0  0  0
  184.4220  173.5240  135.0080 O   0  0  0  0  0  0  0  0  0  0  0  0
  185.3330  172.6120  136.1050 P   0  0  0  0  0  0  0  0  0  0  0  0
  185.4310  171.1840  135.6150 O   0  0  0  0  0  1  0  0  0  0  0  0
  184.5630  172.6290  137.6100 O   0  0  0  0  0  1  0  0  0  0  0  0
  1 11  1  0  0  0  0
  2  8  1  0  0  0  0
  2 19  1  0  0  0  0
  3 17  1  0  0  0  0
  4  7  1  0  0  0  0
  5 15  1  6  0  0  0
  5 17  1  0  0  0  0
  5  9  1  0  0  0  0
  6 11  2  0  0  0  0
  7 13  2  0  0  0  0
  7 14  1  0  0  0  0
  8 22  1  6  0  0  0
  8 15  1  0  0  0  0
  9  4  1  0  0  0  0
 10 14  1  0  0  0  0
 10 16  1  0  0  0  0
 12 10  2  0  0  0  0
 13  6  1  0  0  0  0
 14  1  2  0  0  0  0
 17 18  1  0  0  0  0
 18  4  2  0  0  0  0
 18 12  1  0  0  0  0
 19  3  1  0  0  0  0
 20 12  1  0  0  0  0
 20 21  2  0  0  0  0
 22 23  1  0  0  0  0
 24 23  1  0  0  0  0
 25 24  1  0  0  0  0
 26 27  2  0  0  0  0
 27 25  1  0  0  0  0
 27 29  1  0  0  0  0
 28 27  1  0  0  0  0
M  END
>  <MODEL>
9

>  <REMARK>
 VINA RESULT:      -7.1      4.274      4.837
  Name = 
  6 active torsions:
  status: ('A' for Active; 'I' for Inactive)
    1  A    between atoms: O_2  and  P_16
    2  A    between atoms: O_2  and  C_26
    3  A    between atoms: C_9  and  C_25
    4  A    between atoms: C_13  and  C_21
    5  A    between atoms: C_22  and  C_25
    6  A    between atoms: C_22  and  C_26
                            x       y       z     vdW  Elec       q    Type
                         _______ _______ _______ _____ _____    ______ ____

>  <TORSDO>
F 6

$$$$
