=
 OpenBabel11042413183D

 61 66  0  0  1  0  0  0  0  0999 V2000
  188.9710  175.8530  136.3350 C   0  0  1  0  0  3  0  0  0  0  0  0
  188.6970  173.7880  135.1050 O   0  0  0  0  0  1  0  0  0  0  0  0
  186.4050  174.8800  134.5940 F   0  0  0  0  0  0  0  0  0  0  0  0
  184.9780  178.3750  140.1170 C   0  0  0  0  0  0  0  0  0  0  0  0
  183.9500  174.0740  137.7670 C   0  0  0  0  0  2  0  0  0  0  0  0
  184.4960  174.1390  136.4820 O   0  0  0  0  0  0  0  0  0  0  0  0
  186.7100  174.8680  135.9510 C   0  0  2  0  0  0  0  0  0  0  0  0
  182.9360  175.9990  138.7970 C   0  0  0  0  0  0  0  0  0  0  0  0
  187.1320  177.1640  135.8600 C   0  0  1  0  0  3  0  0  0  0  0  0
  186.0800  177.9440  139.5590 C   0  0  0  0  0  0  0  0  0  0  0  0
  185.8450  173.8120  136.6380 C   0  0  2  0  0  3  0  0  0  0  0  0
  187.1800  177.5120  139.0080 C   0  0  0  0  0  3  0  0  0  0  0  0
  188.4510  176.8190  135.4550 O   0  0  0  0  0  0  0  0  0  0  0  0
  183.6990  178.2310  139.3560 C   0  0  0  0  0  2  0  0  0  0  0  0
  186.4090  176.1270  136.5180 O   0  0  0  0  0  0  0  0  0  0  0  0
  187.9050  178.3330  137.9900 C   0  0  0  0  0  2  0  0  0  0  0  0
  183.0330  176.9410  139.6940 C   0  0  0  0  0  3  0  0  0  0  0  0
  188.1980  174.5410  136.1760 C   0  0  2  0  0  3  0  0  0  0  0  0
  182.8320  175.0600  137.9000 C   0  0  0  0  0  0  0  0  0  0  0  0
  186.0800  172.5500  136.0840 O   0  0  0  0  0  1  0  0  0  0  0  0
  187.1170  178.4530  136.6850 C   0  0  0  0  0  2  0  0  0  0  0  0
  190.3930  175.6630  136.0890 N   0  0  0  0  0  2  0  0  0  0  0  0
  190.9000  175.0850  138.2940 O   0  0  0  0  0  0  0  0  0  0  0  0
  191.3200  175.3430  137.1310 C   0  0  0  0  0  0  0  0  0  0  0  0
  196.8450  175.1610  136.0350 F   0  0  0  0  0  0  0  0  0  0  0  0
  193.3320  176.1770  135.9110 C   0  0  0  0  0  3  0  0  0  0  0  0
  194.7020  176.1280  135.6350 C   0  0  0  0  0  3  0  0  0  0  0  0
  193.5920  174.3760  137.5070 C   0  0  0  0  0  3  0  0  0  0  0  0
  192.7660  175.3000  136.8470 C   0  0  0  0  0  0  0  0  0  0  0  0
  194.9620  174.3300  137.2330 C   0  0  0  0  0  3  0  0  0  0  0  0
  195.5170  175.2040  136.2950 C   0  0  0  0  0  0  0  0  0  0  0  0
  184.0870  179.7770  141.7960 O   0  0  0  0  0  0  0  0  0  0  0  0
  184.9570  178.9120  141.5030 C   0  0  0  0  0  0  0  0  0  0  0  0
  189.2760  177.2050  145.1560 C   0  0  0  0  0  3  0  0  0  0  0  0
  187.2210  178.2610  142.2990 N   0  0  0  0  0  0  0  0  0  0  0  0
  187.7010  177.9030  143.4980 C   0  0  0  0  0  0  0  0  0  0  0  0
  186.7080  177.9190  144.4260 C   0  0  0  0  0  0  0  0  0  0  0  0
  185.9060  178.4940  142.5620 C   0  0  0  0  0  0  0  0  0  0  0  0
  189.0090  177.5480  143.8170 C   0  0  0  0  0  3  0  0  0  0  0  0
  188.2440  177.2250  146.1210 C   0  0  0  0  0  3  0  0  0  0  0  0
  186.9330  177.5870  145.7590 C   0  0  0  0  0  3  0  0  0  0  0  0
  185.5520  178.2910  143.8590 N   0  0  0  0  0  2  0  0  0  0  0  0
  181.5370  174.9390  137.1450 C   0  0  0  0  0  2  0  0  0  0  0  0
  181.3510  176.0230  136.0890 C   0  0  2  0  0  3  0  0  0  0  0  0
  182.9960  176.5990  134.8260 C   0  0  0  0  0  2  0  0  0  0  0  0
  181.9020  175.5510  134.7550 C   0  0  0  0  0  2  0  0  0  0  0  0
  182.4640  177.0550  136.1720 C   0  0  1  0  0  3  0  0  0  0  0  0
  181.9560  178.5020  136.0950 C   0  0  0  0  0  2  0  0  0  0  0  0
  179.9160  179.3690  135.4740 O   0  0  0  0  0  1  0  0  0  0  0  0
  180.5320  178.6110  136.4180 N   0  0  0  0  0  0  0  0  0  0  0  0
  180.3720  179.1540  137.6710 O   0  0  0  0  0  0  0  0  0  0  0  0
  179.7590  180.4270  137.5740 C   0  0  0  0  0  2  0  0  0  0  0  0
  181.7950  181.4660  138.4440 C   0  0  0  0  0  1  0  0  0  0  0  0
  180.2850  181.4350  138.6100 C   0  0  2  0  0  0  0  0  0  0  0  0
  179.9670  181.0280  140.0600 C   0  0  0  0  0  2  0  0  0  0  0  0
  180.9080  180.1150  140.5420 O   0  0  0  0  0  1  0  0  0  0  0  0
  179.7780  182.7780  138.2920 N   0  0  0  0  0  2  0  0  0  0  0  0
  179.5830  184.7650  136.2890 O   0  0  0  0  0  1  0  0  0  0  0  0
  180.5660  183.5280  136.8950 P   0  0  0  0  0  0  0  0  0  0  0  0
  180.8210  182.5140  135.8010 O   0  0  0  0  0  0  0  0  0  0  0  0
  182.0420  184.1910  137.3870 O   0  0  0  0  0  1  0  0  0  0  0  0
  1 22  1  6  0  0  0
  4 33  1  0  0  0  0
  5 19  1  0  0  0  0
  6 11  1  0  0  0  0
  6  5  1  0  0  0  0
  7  3  1  6  0  0  0
  7 18  1  0  0  0  0
  7 15  1  0  0  0  0
  7 11  1  0  0  0  0
  8 17  2  0  0  0  0
  9 15  1  0  0  0  0
  9 21  1  1  0  0  0
 10  4  2  0  0  0  0
 11 20  1  6  0  0  0
 12 10  2  0  0  0  0
 13  9  1  0  0  0  0
 13  1  1  0  0  0  0
 14 17  1  0  0  0  0
 14  4  1  0  0  0  0
 16 12  1  0  0  0  0
 18  2  1  6  0  0  0
 18  1  1  0  0  0  0
 19  8  2  0  0  0  0
 21 16  1  0  0  0  0
 22 24  1  0  0  0  0
 24 23  2  0  0  0  0
 25 31  1  0  0  0  0
 26 29  1  0  0  0  0
 27 26  2  0  0  0  0
 27 31  1  0  0  0  0
 29 24  1  0  0  0  0
 29 28  2  0  0  0  0
 30 28  1  0  0  0  0
 31 30  2  0  0  0  0
 33 32  2  0  0  0  0
 33 38  1  0  0  0  0
 34 40  1  0  0  0  0
 35 38  2  0  0  0  0
 35 36  1  0  0  0  0
 36 39  1  0  0  0  0
 36 37  2  0  0  0  0
 37 41  1  0  0  0  0
 38 42  1  0  0  0  0
 39 34  2  0  0  0  0
 41 40  2  0  0  0  0
 42 37  1  0  0  0  0
 43 19  1  0  0  0  0
 44 47  1  0  0  0  0
 44 43  1  1  0  0  0
 45 47  1  0  0  0  0
 46 45  1  0  0  0  0
 46 44  1  0  0  0  0
 47 48  1  6  0  0  0
 48 50  1  0  0  0  0
 49 50  1  0  0  0  0
 50 51  1  0  0  0  0
 52 51  1  0  0  0  0
 52 54  1  0  0  0  0
 54 53  1  6  0  0  0
 54 55  1  0  0  0  0
 55 56  1  0  0  0  0
 57 54  1  0  0  0  0
 58 59  1  0  0  0  0
 59 61  1  0  0  0  0
 59 57  1  0  0  0  0
 60 59  2  0  0  0  0
M  END
>  <MODEL>
1

>  <REMARK>
 VINA RESULT:      -7.0      0.000      0.000
  Name = 
  14 active torsions:
  status: ('A' for Active; 'I' for Inactive)
    1  A    between atoms: N_1  and  C_2
    2  A    between atoms: C_4  and  C_53
    3  A    between atoms: C_4  and  N_57
    4  A    between atoms: C_9  and  C_49
    5  A    between atoms: C_12  and  C_17
    6  A    between atoms: C_12  and  O_40
    7  A    between atoms: C_14  and  C_55
    8  A    between atoms: C_15  and  C_42
    9  A    between atoms: C_16  and  C_17
   10  A    between atoms: C_17  and  N_30
   11  A    between atoms: N_30  and  P_32
   12  A    between atoms: C_36  and  C_55
   13  A    between atoms: O_40  and  N_57
   14  A    between atoms: C_49  and  C_52
                            x       y       z     vdW  Elec       q    Type
                         _______ _______ _______ _____ _____    ______ ____

>  <TORSDO>
F 14

$$$$
=
 OpenBabel11042413183D

 61 66  0  0  1  0  0  0  0  0999 V2000
  188.9200  177.5130  145.4870 C   0  0  1  0  0  3  0  0  0  0  0  0
  187.3260  178.2140  147.1660 O   0  0  0  0  0  1  0  0  0  0  0  0
  185.7250  176.9260  145.5900 F   0  0  0  0  0  0  0  0  0  0  0  0
  188.2750  177.9190  139.4850 C   0  0  0  0  0  0  0  0  0  0  0  0
  184.6690  179.4930  142.5820 C   0  0  0  0  0  2  0  0  0  0  0  0
  184.6220  178.6220  143.6740 O   0  0  0  0  0  0  0  0  0  0  0  0
  186.5140  177.8550  144.9210 C   0  0  2  0  0  0  0  0  0  0  0  0
  185.0790  178.6870  140.3510 C   0  0  0  0  0  0  0  0  0  0  0  0
  187.7940  176.1130  144.0380 C   0  0  1  0  0  3  0  0  0  0  0  0
  188.7610  177.9330  140.6990 C   0  0  0  0  0  0  0  0  0  0  0  0
  185.6400  179.0480  144.5310 C   0  0  2  0  0  3  0  0  0  0  0  0
  189.2490  177.9520  141.9090 C   0  0  0  0  0  3  0  0  0  0  0  0
  188.5550  176.1780  145.2390 O   0  0  0  0  0  0  0  0  0  0  0  0
  186.8700  177.4440  139.2930 C   0  0  0  0  0  2  0  0  0  0  0  0
  187.0320  177.2790  143.7390 O   0  0  0  0  0  0  0  0  0  0  0  0
  189.7750  176.7070  142.5470 C   0  0  0  0  0  2  0  0  0  0  0  0
  185.9180  178.5890  139.3590 C   0  0  0  0  0  3  0  0  0  0  0  0
  187.6720  178.3370  145.8140 C   0  0  2  0  0  3  0  0  0  0  0  0
  184.2340  178.7810  141.3390 C   0  0  0  0  0  0  0  0  0  0  0  0
  185.0720  179.6310  145.6670 O   0  0  0  0  0  1  0  0  0  0  0  0
  188.6610  175.7030  142.8460 C   0  0  0  0  0  2  0  0  0  0  0  0
  189.8940  177.5740  146.5680 N   0  0  0  0  0  2  0  0  0  0  0  0
  191.3750  176.0590  145.5850 O   0  0  0  0  0  0  0  0  0  0  0  0
  191.0760  176.7660  146.5870 C   0  0  0  0  0  0  0  0  0  0  0  0
  194.4480  176.7820  151.1020 F   0  0  0  0  0  0  0  0  0  0  0  0
  191.9400  177.8530  148.6610 C   0  0  0  0  0  3  0  0  0  0  0  0
  192.7820  177.8590  149.7790 C   0  0  0  0  0  3  0  0  0  0  0  0
  192.8170  175.6900  148.0180 C   0  0  0  0  0  3  0  0  0  0  0  0
  191.9540  176.7690  147.7710 C   0  0  0  0  0  0  0  0  0  0  0  0
  193.6550  175.6950  149.1370 C   0  0  0  0  0  3  0  0  0  0  0  0
  193.6390  176.7810  150.0160 C   0  0  0  0  0  0  0  0  0  0  0  0
  188.8950  179.6520  138.0050 O   0  0  0  0  0  0  0  0  0  0  0  0
  189.0440  178.4410  138.3250 C   0  0  0  0  0  0  0  0  0  0  0  0
  193.1990  175.1420  135.7240 C   0  0  0  0  0  3  0  0  0  0  0  0
  191.1210  177.1070  138.0310 N   0  0  0  0  0  0  0  0  0  0  0  0
  191.6510  176.4580  136.9860 C   0  0  0  0  0  0  0  0  0  0  0  0
  190.8480  176.5840  135.8970 C   0  0  0  0  0  0  0  0  0  0  0  0
  189.9710  177.6170  137.5140 C   0  0  0  0  0  0  0  0  0  0  0  0
  192.8460  175.7430  136.9470 C   0  0  0  0  0  3  0  0  0  0  0  0
  192.3610  175.2700  134.5940 C   0  0  0  0  0  3  0  0  0  0  0  0
  191.1620  176.0030  134.6720 C   0  0  0  0  0  3  0  0  0  0  0  0
  189.7690  177.3190  136.2020 N   0  0  0  0  0  2  0  0  0  0  0  0
  182.8290  178.2930  141.1220 C   0  0  0  0  0  2  0  0  0  0  0  0
  182.0510  179.1240  140.1090 C   0  0  2  0  0  3  0  0  0  0  0  0
  180.1060  178.4830  139.4460 C   0  0  0  0  0  2  0  0  0  0  0  0
  180.6260  179.3330  140.5900 C   0  0  0  0  0  2  0  0  0  0  0  0
  181.5310  178.2500  138.9790 C   0  0  1  0  0  3  0  0  0  0  0  0
  181.7540  178.8620  137.5880 C   0  0  0  0  0  2  0  0  0  0  0  0
  181.3090  177.1000  136.1740 O   0  0  0  0  0  1  0  0  0  0  0  0
  182.3080  177.8950  136.6380 N   0  0  0  0  0  0  0  0  0  0  0  0
  183.2930  177.1490  137.2410 O   0  0  0  0  0  0  0  0  0  0  0  0
  184.4290  177.0720  136.4000 C   0  0  0  0  0  2  0  0  0  0  0  0
  184.0040  175.1470  134.9530 C   0  0  0  0  0  1  0  0  0  0  0  0
  184.8700  175.6290  136.1050 C   0  0  2  0  0  0  0  0  0  0  0  0
  184.6580  174.6790  137.2970 C   0  0  0  0  0  2  0  0  0  0  0  0
  183.4930  173.9240  137.1360 O   0  0  0  0  0  1  0  0  0  0  0  0
  186.2650  175.6250  135.6400 N   0  0  0  0  0  2  0  0  0  0  0  0
  187.3260  173.4630  137.1200 O   0  0  0  0  0  1  0  0  0  0  0  0
  186.9870  174.0100  135.5550 P   0  0  0  0  0  0  0  0  0  0  0  0
  188.2640  174.0240  134.7450 O   0  0  0  0  0  0  0  0  0  0  0  0
  185.8840  172.9530  134.8310 O   0  0  0  0  0  1  0  0  0  0  0  0
  1 18  1  0  0  0  0
  1 22  1  1  0  0  0
  4 10  2  0  0  0  0
  5  6  1  0  0  0  0
  6 11  1  0  0  0  0
  7  3  1  1  0  0  0
  7 18  1  0  0  0  0
  8 19  2  0  0  0  0
  9 21  1  6  0  0  0
  9 13  1  0  0  0  0
 10 12  2  0  0  0  0
 11  7  1  0  0  0  0
 11 20  1  1  0  0  0
 12 16  1  0  0  0  0
 13  1  1  0  0  0  0
 14 17  1  0  0  0  0
 14  4  1  0  0  0  0
 15  9  1  0  0  0  0
 15  7  1  0  0  0  0
 16 21  1  0  0  0  0
 17  8  2  0  0  0  0
 18  2  1  1  0  0  0
 19  5  1  0  0  0  0
 22 24  1  0  0  0  0
 23 24  2  0  0  0  0
 24 29  1  0  0  0  0
 26 27  1  0  0  0  0
 27 31  2  0  0  0  0
 28 30  2  0  0  0  0
 29 28  1  0  0  0  0
 29 26  2  0  0  0  0
 30 31  1  0  0  0  0
 31 25  1  0  0  0  0
 32 33  2  0  0  0  0
 33  4  1  0  0  0  0
 34 39  1  0  0  0  0
 36 35  1  0  0  0  0
 37 42  1  0  0  0  0
 37 36  1  0  0  0  0
 38 35  2  0  0  0  0
 38 33  1  0  0  0  0
 39 36  2  0  0  0  0
 40 41  1  0  0  0  0
 40 34  2  0  0  0  0
 41 37  2  0  0  0  0
 42 38  1  0  0  0  0
 43 19  1  0  0  0  0
 44 46  1  0  0  0  0
 44 43  1  1  0  0  0
 45 46  1  0  0  0  0
 47 48  1  6  0  0  0
 47 45  1  0  0  0  0
 47 44  1  0  0  0  0
 49 50  1  0  0  0  0
 50 51  1  0  0  0  0
 50 48  1  0  0  0  0
 52 51  1  0  0  0  0
 54 53  1  6  0  0  0
 54 52  1  0  0  0  0
 54 55  1  0  0  0  0
 56 55  1  0  0  0  0
 57 54  1  0  0  0  0
 59 57  1  0  0  0  0
 59 58  1  0  0  0  0
 60 59  2  0  0  0  0
 61 59  1  0  0  0  0
M  END
>  <MODEL>
2

>  <REMARK>
 VINA RESULT:      -6.3      4.123      8.835
  Name = 
  14 active torsions:
  status: ('A' for Active; 'I' for Inactive)
    1  A    between atoms: N_1  and  C_2
    2  A    between atoms: C_4  and  C_53
    3  A    between atoms: C_4  and  N_57
    4  A    between atoms: C_9  and  C_49
    5  A    between atoms: C_12  and  C_17
    6  A    between atoms: C_12  and  O_40
    7  A    between atoms: C_14  and  C_55
    8  A    between atoms: C_15  and  C_42
    9  A    between atoms: C_16  and  C_17
   10  A    between atoms: C_17  and  N_30
   11  A    between atoms: N_30  and  P_32
   12  A    between atoms: C_36  and  C_55
   13  A    between atoms: O_40  and  N_57
   14  A    between atoms: C_49  and  C_52
                            x       y       z     vdW  Elec       q    Type
                         _______ _______ _______ _____ _____    ______ ____

>  <TORSDO>
F 14

$$$$
=
 OpenBabel11042413183D

 61 66  0  0  1  0  0  0  0  0999 V2000
  188.8860  177.4780  145.4650 C   0  0  1  0  0  3  0  0  0  0  0  0
  187.2680  178.1880  147.1170 O   0  0  0  0  0  1  0  0  0  0  0  0
  185.6860  176.9100  145.5120 F   0  0  0  0  0  0  0  0  0  0  0  0
  188.3460  177.8910  139.4520 C   0  0  0  0  0  0  0  0  0  0  0  0
  184.6970  179.4840  142.4890 C   0  0  0  0  0  2  0  0  0  0  0  0
  184.6260  178.6130  143.5800 O   0  0  0  0  0  0  0  0  0  0  0  0
  186.4920  177.8350  144.8570 C   0  0  2  0  0  0  0  0  0  0  0  0
  185.1400  178.6770  140.2650 C   0  0  0  0  0  0  0  0  0  0  0  0
  187.7770  176.0860  143.9960 C   0  0  1  0  0  3  0  0  0  0  0  0
  188.8110  177.9020  140.6740 C   0  0  0  0  0  0  0  0  0  0  0  0
  185.6320  179.0330  144.4530 C   0  0  2  0  0  3  0  0  0  0  0  0
  189.2780  177.9180  141.8920 C   0  0  0  0  0  3  0  0  0  0  0  0
  188.5170  176.1450  145.2090 O   0  0  0  0  0  0  0  0  0  0  0  0
  186.9410  177.4250  139.2360 C   0  0  0  0  0  2  0  0  0  0  0  0
  187.0270  177.2560  143.6840 O   0  0  0  0  0  0  0  0  0  0  0  0
  189.7860  176.6690  142.5380 C   0  0  0  0  0  2  0  0  0  0  0  0
  185.9950  178.5750  139.2870 C   0  0  0  0  0  3  0  0  0  0  0  0
  187.6380  178.3100  145.7710 C   0  0  2  0  0  3  0  0  0  0  0  0
  184.2790  178.7760  141.2390 C   0  0  0  0  0  0  0  0  0  0  0  0
  185.0480  179.6190  145.5800 O   0  0  0  0  0  1  0  0  0  0  0  0
  188.6610  175.6710  142.8180 C   0  0  0  0  0  2  0  0  0  0  0  0
  189.8420  177.5330  146.5610 N   0  0  0  0  0  2  0  0  0  0  0  0
  191.4170  176.1590  145.5190 O   0  0  0  0  0  0  0  0  0  0  0  0
  191.0670  176.7920  146.5540 C   0  0  0  0  0  0  0  0  0  0  0  0
  194.3780  176.7420  151.1140 F   0  0  0  0  0  0  0  0  0  0  0  0
  191.9250  177.8620  148.6400 C   0  0  0  0  0  3  0  0  0  0  0  0
  192.7520  177.8520  149.7690 C   0  0  0  0  0  3  0  0  0  0  0  0
  192.7670  175.6820  148.0080 C   0  0  0  0  0  3  0  0  0  0  0  0
  191.9290  176.7780  147.7500 C   0  0  0  0  0  0  0  0  0  0  0  0
  193.5900  175.6710  149.1380 C   0  0  0  0  0  3  0  0  0  0  0  0
  193.5840  176.7560  150.0170 C   0  0  0  0  0  0  0  0  0  0  0  0
  188.9960  179.6200  137.9800 O   0  0  0  0  0  0  0  0  0  0  0  0
  189.1360  178.4090  138.3050 C   0  0  0  0  0  0  0  0  0  0  0  0
  192.3390  175.1110  134.5940 C   0  0  0  0  0  3  0  0  0  0  0  0
  189.7940  177.1850  136.2440 N   0  0  0  0  0  0  0  0  0  0  0  0
  190.8740  176.4650  135.9130 C   0  0  0  0  0  0  0  0  0  0  0  0
  191.7550  176.4350  136.9480 C   0  0  0  0  0  0  0  0  0  0  0  0
  190.0770  177.5820  137.5140 C   0  0  0  0  0  0  0  0  0  0  0  0
  191.1240  175.8120  134.7080 C   0  0  0  0  0  3  0  0  0  0  0  0
  193.2550  175.0840  135.6690 C   0  0  0  0  0  3  0  0  0  0  0  0
  192.9660  175.7540  136.8720 C   0  0  0  0  0  3  0  0  0  0  0  0
  191.2740  177.1370  137.9830 N   0  0  0  0  0  2  0  0  0  0  0  0
  182.8750  178.2960  140.9970 C   0  0  0  0  0  2  0  0  0  0  0  0
  182.3980  178.5200  139.5670 C   0  0  2  0  0  3  0  0  0  0  0  0
  180.5080  179.4800  139.1930 C   0  0  0  0  0  2  0  0  0  0  0  0
  181.9340  179.9560  139.3910 C   0  0  0  0  0  2  0  0  0  0  0  0
  180.9640  178.0470  139.3950 C   0  0  1  0  0  3  0  0  0  0  0  0
  180.7460  177.2210  138.1190 C   0  0  0  0  0  2  0  0  0  0  0  0
  180.3290  175.4280  139.5010 O   0  0  0  0  0  1  0  0  0  0  0  0
  179.9210  176.0360  138.3560 N   0  0  0  0  0  0  0  0  0  0  0  0
  180.0060  175.1780  137.2850 O   0  0  0  0  0  0  0  0  0  0  0  0
  181.1490  175.4830  136.5060 C   0  0  0  0  0  2  0  0  0  0  0  0
  181.2220  173.7550  134.7770 C   0  0  0  0  0  1  0  0  0  0  0  0
  181.9170  174.2350  136.0400 C   0  0  2  0  0  0  0  0  0  0  0  0
  181.8890  173.0920  137.0700 C   0  0  0  0  0  2  0  0  0  0  0  0
  182.8670  172.1350  136.7830 O   0  0  0  0  0  1  0  0  0  0  0  0
  183.2910  174.6110  135.6730 N   0  0  0  0  0  2  0  0  0  0  0  0
  184.0260  177.1570  136.6580 O   0  0  0  0  0  0  0  0  0  0  0  0
  184.1540  175.4930  136.9410 P   0  0  0  0  0  0  0  0  0  0  0  0
  185.6170  175.1060  136.9790 O   0  0  0  0  0  1  0  0  0  0  0  0
  183.4500  175.1350  138.4360 O   0  0  0  0  0  1  0  0  0  0  0  0
  1 18  1  0  0  0  0
  1 22  1  1  0  0  0
  4 10  2  0  0  0  0
  5  6  1  0  0  0  0
  6 11  1  0  0  0  0
  7  3  1  1  0  0  0
  7 18  1  0  0  0  0
  8 19  2  0  0  0  0
  9 21  1  6  0  0  0
  9 13  1  0  0  0  0
 10 12  2  0  0  0  0
 11  7  1  0  0  0  0
 11 20  1  1  0  0  0
 12 16  1  0  0  0  0
 13  1  1  0  0  0  0
 14 17  1  0  0  0  0
 14  4  1  0  0  0  0
 15  9  1  0  0  0  0
 15  7  1  0  0  0  0
 16 21  1  0  0  0  0
 17  8  2  0  0  0  0
 18  2  1  1  0  0  0
 19  5  1  0  0  0  0
 23 24  2  0  0  0  0
 24 22  1  0  0  0  0
 24 29  1  0  0  0  0
 26 27  1  0  0  0  0
 27 31  2  0  0  0  0
 28 30  2  0  0  0  0
 29 28  1  0  0  0  0
 29 26  2  0  0  0  0
 30 31  1  0  0  0  0
 31 25  1  0  0  0  0
 32 33  2  0  0  0  0
 33  4  1  0  0  0  0
 34 39  2  0  0  0  0
 34 40  1  0  0  0  0
 35 38  2  0  0  0  0
 36 35  1  0  0  0  0
 36 37  2  0  0  0  0
 37 42  1  0  0  0  0
 38 42  1  0  0  0  0
 38 33  1  0  0  0  0
 39 36  1  0  0  0  0
 40 41  2  0  0  0  0
 41 37  1  0  0  0  0
 43 19  1  0  0  0  0
 44 43  1  1  0  0  0
 45 46  1  0  0  0  0
 45 47  1  0  0  0  0
 46 44  1  0  0  0  0
 47 48  1  6  0  0  0
 47 44  1  0  0  0  0
 48 50  1  0  0  0  0
 50 49  1  0  0  0  0
 51 50  1  0  0  0  0
 52 51  1  0  0  0  0
 54 53  1  6  0  0  0
 54 52  1  0  0  0  0
 54 55  1  0  0  0  0
 56 55  1  0  0  0  0
 57 54  1  0  0  0  0
 57 59  1  0  0  0  0
 58 59  2  0  0  0  0
 59 60  1  0  0  0  0
 59 61  1  0  0  0  0
M  END
>  <MODEL>
3

>  <REMARK>
 VINA RESULT:      -6.3      4.076      8.617
  Name = 
  14 active torsions:
  status: ('A' for Active; 'I' for Inactive)
    1  A    between atoms: N_1  and  C_2
    2  A    between atoms: C_4  and  C_53
    3  A    between atoms: C_4  and  N_57
    4  A    between atoms: C_9  and  C_49
    5  A    between atoms: C_12  and  C_17
    6  A    between atoms: C_12  and  O_40
    7  A    between atoms: C_14  and  C_55
    8  A    between atoms: C_15  and  C_42
    9  A    between atoms: C_16  and  C_17
   10  A    between atoms: C_17  and  N_30
   11  A    between atoms: N_30  and  P_32
   12  A    between atoms: C_36  and  C_55
   13  A    between atoms: O_40  and  N_57
   14  A    between atoms: C_49  and  C_52
                            x       y       z     vdW  Elec       q    Type
                         _______ _______ _______ _____ _____    ______ ____

>  <TORSDO>
F 14

$$$$
=
 OpenBabel11042413183D

 61 66  0  0  1  0  0  0  0  0999 V2000
  188.8750  177.4720  145.4380 C   0  0  1  0  0  3  0  0  0  0  0  0
  187.2610  178.1830  147.0930 O   0  0  0  0  0  1  0  0  0  0  0  0
  185.6750  176.9080  145.4890 F   0  0  0  0  0  0  0  0  0  0  0  0
  188.3290  177.8900  139.4270 C   0  0  0  0  0  0  0  0  0  0  0  0
  184.6860  179.4860  142.4690 C   0  0  0  0  0  2  0  0  0  0  0  0
  184.6150  178.6140  143.5580 O   0  0  0  0  0  0  0  0  0  0  0  0
  186.4810  177.8330  144.8340 C   0  0  2  0  0  0  0  0  0  0  0  0
  185.1250  178.6800  140.2430 C   0  0  0  0  0  0  0  0  0  0  0  0
  187.7630  176.0820  143.9700 C   0  0  1  0  0  3  0  0  0  0  0  0
  188.7960  177.9000  140.6480 C   0  0  0  0  0  0  0  0  0  0  0  0
  185.6220  179.0320  144.4320 C   0  0  2  0  0  3  0  0  0  0  0  0
  189.2640  177.9140  141.8660 C   0  0  0  0  0  3  0  0  0  0  0  0
  188.5050  176.1400  145.1820 O   0  0  0  0  0  0  0  0  0  0  0  0
  186.9240  177.4260  139.2120 C   0  0  0  0  0  2  0  0  0  0  0  0
  187.0140  177.2540  143.6600 O   0  0  0  0  0  0  0  0  0  0  0  0
  189.7720  176.6640  142.5110 C   0  0  0  0  0  2  0  0  0  0  0  0
  185.9790  178.5770  139.2640 C   0  0  0  0  0  3  0  0  0  0  0  0
  187.6290  178.3050  145.7460 C   0  0  2  0  0  3  0  0  0  0  0  0
  184.2660  178.7790  141.2180 C   0  0  0  0  0  0  0  0  0  0  0  0
  185.0410  179.6180  145.5590 O   0  0  0  0  0  1  0  0  0  0  0  0
  188.6460  175.6670  142.7910 C   0  0  0  0  0  2  0  0  0  0  0  0
  189.8330  177.5250  146.5340 N   0  0  0  0  0  2  0  0  0  0  0  0
  191.4220  176.1820  145.4730 O   0  0  0  0  0  0  0  0  0  0  0  0
  191.0660  176.7990  146.5160 C   0  0  0  0  0  0  0  0  0  0  0  0
  194.3530  176.7260  151.0930 F   0  0  0  0  0  0  0  0  0  0  0  0
  192.7590  175.6800  147.9700 C   0  0  0  0  0  3  0  0  0  0  0  0
  193.5710  175.6600  149.1090 C   0  0  0  0  0  3  0  0  0  0  0  0
  191.9280  177.8630  148.6040 C   0  0  0  0  0  3  0  0  0  0  0  0
  191.9300  176.7800  147.7100 C   0  0  0  0  0  0  0  0  0  0  0  0
  192.7420  177.8440  149.7410 C   0  0  0  0  0  3  0  0  0  0  0  0
  193.5610  176.7420  149.9950 C   0  0  0  0  0  0  0  0  0  0  0  0
  188.9700  179.6160  137.9460 O   0  0  0  0  0  0  0  0  0  0  0  0
  189.1200  178.4080  138.2790 C   0  0  0  0  0  0  0  0  0  0  0  0
  192.3670  175.1250  134.5940 C   0  0  0  0  0  3  0  0  0  0  0  0
  189.8020  177.1920  136.2210 N   0  0  0  0  0  0  0  0  0  0  0  0
  190.8860  176.4740  135.9000 C   0  0  0  0  0  0  0  0  0  0  0  0
  191.7550  176.4400  136.9460 C   0  0  0  0  0  0  0  0  0  0  0  0
  190.0700  177.5840  137.4960 C   0  0  0  0  0  0  0  0  0  0  0  0
  191.1500  175.8250  134.6970 C   0  0  0  0  0  3  0  0  0  0  0  0
  193.2710  175.0940  135.6790 C   0  0  0  0  0  3  0  0  0  0  0  0
  192.9680  175.7610  136.8810 C   0  0  0  0  0  3  0  0  0  0  0  0
  191.2620  177.1380  137.9780 N   0  0  0  0  0  2  0  0  0  0  0  0
  182.8610  178.3000  140.9780 C   0  0  0  0  0  2  0  0  0  0  0  0
  182.0300  179.2650  140.1390 C   0  0  2  0  0  3  0  0  0  0  0  0
  180.0130  178.7580  139.5840 C   0  0  0  0  0  2  0  0  0  0  0  0
  180.6600  179.4550  140.7650 C   0  0  0  0  0  2  0  0  0  0  0  0
  181.3830  178.5430  138.9680 C   0  0  1  0  0  3  0  0  0  0  0  0
  181.5090  179.3050  137.6410 C   0  0  0  0  0  2  0  0  0  0  0  0
  180.6100  177.7630  136.1870 O   0  0  0  0  0  1  0  0  0  0  0  0
  181.7590  178.4120  136.5080 N   0  0  0  0  0  0  0  0  0  0  0  0
  182.7590  177.5210  136.8190 O   0  0  0  0  0  0  0  0  0  0  0  0
  182.6720  176.3810  135.9830 C   0  0  0  0  0  2  0  0  0  0  0  0
  184.1230  175.5250  137.7570 C   0  0  0  0  0  1  0  0  0  0  0  0
  183.7280  175.3110  136.3050 C   0  0  2  0  0  0  0  0  0  0  0  0
  184.9940  175.4340  135.4380 C   0  0  0  0  0  2  0  0  0  0  0  0
  185.9200  176.3010  136.0240 O   0  0  0  0  0  1  0  0  0  0  0  0
  183.1210  173.9740  136.2050 N   0  0  0  0  0  2  0  0  0  0  0  0
  184.9880  172.7260  137.9220 O   0  0  0  0  0  1  0  0  0  0  0  0
  184.2790  172.6470  136.3880 P   0  0  0  0  0  0  0  0  0  0  0  0
  185.3630  172.7180  135.3340 O   0  0  0  0  0  0  0  0  0  0  0  0
  183.4570  171.1770  136.2370 O   0  0  0  0  0  1  0  0  0  0  0  0
  1 18  1  0  0  0  0
  1 22  1  1  0  0  0
  4 10  2  0  0  0  0
  5  6  1  0  0  0  0
  6 11  1  0  0  0  0
  7  3  1  1  0  0  0
  7 18  1  0  0  0  0
  8 19  2  0  0  0  0
  9 21  1  6  0  0  0
  9 13  1  0  0  0  0
 10 12  2  0  0  0  0
 11  7  1  0  0  0  0
 11 20  1  1  0  0  0
 12 16  1  0  0  0  0
 13  1  1  0  0  0  0
 14 17  1  0  0  0  0
 14  4  1  0  0  0  0
 15  9  1  0  0  0  0
 15  7  1  0  0  0  0
 16 21  1  0  0  0  0
 17  8  2  0  0  0  0
 18  2  1  1  0  0  0
 19  5  1  0  0  0  0
 23 24  2  0  0  0  0
 24 22  1  0  0  0  0
 24 29  1  0  0  0  0
 26 27  1  0  0  0  0
 27 31  2  0  0  0  0
 28 30  2  0  0  0  0
 29 26  2  0  0  0  0
 29 28  1  0  0  0  0
 30 31  1  0  0  0  0
 31 25  1  0  0  0  0
 32 33  2  0  0  0  0
 33  4  1  0  0  0  0
 34 39  2  0  0  0  0
 34 40  1  0  0  0  0
 35 38  2  0  0  0  0
 36 35  1  0  0  0  0
 36 37  2  0  0  0  0
 37 42  1  0  0  0  0
 38 42  1  0  0  0  0
 38 33  1  0  0  0  0
 39 36  1  0  0  0  0
 40 41  2  0  0  0  0
 41 37  1  0  0  0  0
 43 19  1  0  0  0  0
 44 46  1  0  0  0  0
 44 43  1  1  0  0  0
 45 46  1  0  0  0  0
 47 48  1  6  0  0  0
 47 45  1  0  0  0  0
 47 44  1  0  0  0  0
 49 50  1  0  0  0  0
 50 51  1  0  0  0  0
 50 48  1  0  0  0  0
 52 54  1  0  0  0  0
 52 51  1  0  0  0  0
 54 53  1  1  0  0  0
 55 56  1  0  0  0  0
 55 54  1  0  0  0  0
 57 54  1  0  0  0  0
 57 59  1  0  0  0  0
 59 58  1  0  0  0  0
 60 59  2  0  0  0  0
 61 59  1  0  0  0  0
M  END
>  <MODEL>
4

>  <REMARK>
 VINA RESULT:      -6.3      4.115      8.804
  Name = 
  14 active torsions:
  status: ('A' for Active; 'I' for Inactive)
    1  A    between atoms: N_1  and  C_2
    2  A    between atoms: C_4  and  C_53
    3  A    between atoms: C_4  and  N_57
    4  A    between atoms: C_9  and  C_49
    5  A    between atoms: C_12  and  C_17
    6  A    between atoms: C_12  and  O_40
    7  A    between atoms: C_14  and  C_55
    8  A    between atoms: C_15  and  C_42
    9  A    between atoms: C_16  and  C_17
   10  A    between atoms: C_17  and  N_30
   11  A    between atoms: N_30  and  P_32
   12  A    between atoms: C_36  and  C_55
   13  A    between atoms: O_40  and  N_57
   14  A    between atoms: C_49  and  C_52
                            x       y       z     vdW  Elec       q    Type
                         _______ _______ _______ _____ _____    ______ ____

>  <TORSDO>
F 14

$$$$
=
 OpenBabel11042413183D

 61 66  0  0  1  0  0  0  0  0999 V2000
  188.7640  177.4890  145.5460 C   0  0  1  0  0  3  0  0  0  0  0  0
  187.1690  178.1670  147.2330 O   0  0  0  0  0  1  0  0  0  0  0  0
  185.5720  176.8880  145.6440 F   0  0  0  0  0  0  0  0  0  0  0  0
  188.1150  177.9530  139.5480 C   0  0  0  0  0  0  0  0  0  0  0  0
  184.5040  179.4810  142.6630 C   0  0  0  0  0  2  0  0  0  0  0  0
  184.4610  178.5990  143.7460 O   0  0  0  0  0  0  0  0  0  0  0  0
  186.3570  177.8280  144.9840 C   0  0  2  0  0  0  0  0  0  0  0  0
  184.9160  178.6990  140.4240 C   0  0  0  0  0  0  0  0  0  0  0  0
  187.6440  176.1000  144.0830 C   0  0  1  0  0  3  0  0  0  0  0  0
  188.6010  177.9570  140.7620 C   0  0  0  0  0  0  0  0  0  0  0  0
  185.4780  179.0210  144.6060 C   0  0  2  0  0  3  0  0  0  0  0  0
  189.0890  177.9660  141.9710 C   0  0  0  0  0  3  0  0  0  0  0  0
  188.4050  176.1560  145.2840 O   0  0  0  0  0  0  0  0  0  0  0  0
  186.7120  177.4750  139.3520 C   0  0  0  0  0  2  0  0  0  0  0  0
  186.8770  177.2650  143.7960 O   0  0  0  0  0  0  0  0  0  0  0  0
  189.6210  176.7170  142.5970 C   0  0  0  0  0  2  0  0  0  0  0  0
  185.7550  178.6150  139.4300 C   0  0  0  0  0  3  0  0  0  0  0  0
  187.5140  178.3060  145.8810 C   0  0  2  0  0  3  0  0  0  0  0  0
  184.0720  178.7800  141.4130 C   0  0  0  0  0  0  0  0  0  0  0  0
  184.9080  179.5900  145.7480 O   0  0  0  0  0  1  0  0  0  0  0  0
  188.5120  175.7050  142.8860 C   0  0  0  0  0  2  0  0  0  0  0  0
  189.7390  177.5440  146.6260 N   0  0  0  0  0  2  0  0  0  0  0  0
  191.3460  176.2710  145.5070 O   0  0  0  0  0  0  0  0  0  0  0  0
  190.9920  176.8530  146.5700 C   0  0  0  0  0  0  0  0  0  0  0  0
  194.3590  176.7660  151.0880 F   0  0  0  0  0  0  0  0  0  0  0  0
  192.7600  175.7620  147.9530 C   0  0  0  0  0  3  0  0  0  0  0  0
  193.5920  175.7380  149.0780 C   0  0  0  0  0  3  0  0  0  0  0  0
  191.8400  177.8790  148.6830 C   0  0  0  0  0  3  0  0  0  0  0  0
  191.8770  176.8310  147.7490 C   0  0  0  0  0  0  0  0  0  0  0  0
  192.6740  177.8560  149.8050 C   0  0  0  0  0  3  0  0  0  0  0  0
  193.5480  176.7850  150.0030 C   0  0  0  0  0  0  0  0  0  0  0  0
  188.6930  179.6920  138.0570 O   0  0  0  0  0  0  0  0  0  0  0  0
  188.8800  178.4900  138.3920 C   0  0  0  0  0  0  0  0  0  0  0  0
  192.2990  175.4840  134.6250 C   0  0  0  0  0  3  0  0  0  0  0  0
  189.7510  177.5740  136.2510 N   0  0  0  0  0  0  0  0  0  0  0  0
  190.7850  176.7770  135.9510 C   0  0  0  0  0  0  0  0  0  0  0  0
  191.4590  176.4340  137.0810 C   0  0  0  0  0  0  0  0  0  0  0  0
  189.8470  177.6910  137.6030 C   0  0  0  0  0  0  0  0  0  0  0  0
  191.1690  176.3210  134.6920 C   0  0  0  0  0  3  0  0  0  0  0  0
  193.0010  175.1320  135.7990 C   0  0  0  0  0  3  0  0  0  0  0  0
  192.5800  175.6110  137.0540 C   0  0  0  0  0  3  0  0  0  0  0  0
  190.8840  177.0010  138.1500 N   0  0  0  0  0  2  0  0  0  0  0  0
  182.6680  178.2880  141.1920 C   0  0  0  0  0  2  0  0  0  0  0  0
  181.6030  179.2850  141.6330 C   0  0  2  0  0  3  0  0  0  0  0  0
  179.7470  178.5870  142.4700 C   0  0  0  0  0  2  0  0  0  0  0  0
  181.1120  178.9400  143.0280 C   0  0  0  0  0  2  0  0  0  0  0  0
  180.2420  178.9050  141.0720 C   0  0  1  0  0  3  0  0  0  0  0  0
  179.4750  180.0970  140.4800 C   0  0  0  0  0  2  0  0  0  0  0  0
  180.0310  181.9680  139.2600 O   0  0  0  0  0  1  0  0  0  0  0  0
  180.1010  180.6110  139.2610 N   0  0  0  0  0  0  0  0  0  0  0  0
  179.4810  180.0840  138.1520 O   0  0  0  0  0  0  0  0  0  0  0  0
  180.3170  180.2180  137.0180 C   0  0  0  0  0  2  0  0  0  0  0  0
  181.1400  179.1560  134.9730 C   0  0  0  0  0  1  0  0  0  0  0  0
  180.7350  178.8680  136.4090 C   0  0  2  0  0  0  0  0  0  0  0  0
  179.5940  177.8370  136.3910 C   0  0  0  0  0  2  0  0  0  0  0  0
  179.0940  177.6650  135.0970 O   0  0  0  0  0  1  0  0  0  0  0  0
  181.9250  178.3600  137.1100 N   0  0  0  0  0  2  0  0  0  0  0  0
  181.5210  175.6730  136.3270 O   0  0  0  0  0  0  0  0  0  0  0  0
  181.7690  176.6850  137.6610 P   0  0  0  0  0  0  0  0  0  0  0  0
  180.6110  176.5310  138.6230 O   0  0  0  0  0  1  0  0  0  0  0  0
  183.1990  176.2270  138.4390 O   0  0  0  0  0  1  0  0  0  0  0  0
  1 18  1  0  0  0  0
  1 22  1  1  0  0  0
  4 10  2  0  0  0  0
  5  6  1  0  0  0  0
  6 11  1  0  0  0  0
  7  3  1  1  0  0  0
  7 18  1  0  0  0  0
  8 19  2  0  0  0  0
  9 21  1  6  0  0  0
  9 13  1  0  0  0  0
 10 12  2  0  0  0  0
 11  7  1  0  0  0  0
 11 20  1  1  0  0  0
 12 16  1  0  0  0  0
 13  1  1  0  0  0  0
 14 17  1  0  0  0  0
 14  4  1  0  0  0  0
 15  9  1  0  0  0  0
 15  7  1  0  0  0  0
 16 21  1  0  0  0  0
 17  8  2  0  0  0  0
 18  2  1  1  0  0  0
 19  5  1  0  0  0  0
 23 24  2  0  0  0  0
 24 22  1  0  0  0  0
 24 29  1  0  0  0  0
 26 27  1  0  0  0  0
 27 31  2  0  0  0  0
 28 30  2  0  0  0  0
 29 26  2  0  0  0  0
 29 28  1  0  0  0  0
 30 31  1  0  0  0  0
 31 25  1  0  0  0  0
 32 33  2  0  0  0  0
 33  4  1  0  0  0  0
 34 39  2  0  0  0  0
 34 40  1  0  0  0  0
 35 38  2  0  0  0  0
 36 35  1  0  0  0  0
 36 37  2  0  0  0  0
 37 42  1  0  0  0  0
 38 42  1  0  0  0  0
 38 33  1  0  0  0  0
 39 36  1  0  0  0  0
 40 41  2  0  0  0  0
 41 37  1  0  0  0  0
 43 19  1  0  0  0  0
 44 43  1  6  0  0  0
 44 46  1  0  0  0  0
 45 46  1  0  0  0  0
 47 48  1  1  0  0  0
 47 44  1  0  0  0  0
 47 45  1  0  0  0  0
 49 50  1  0  0  0  0
 50 48  1  0  0  0  0
 51 50  1  0  0  0  0
 52 51  1  0  0  0  0
 54 53  1  6  0  0  0
 54 52  1  0  0  0  0
 54 57  1  0  0  0  0
 55 54  1  0  0  0  0
 56 55  1  0  0  0  0
 57 59  1  0  0  0  0
 58 59  2  0  0  0  0
 59 61  1  0  0  0  0
 59 60  1  0  0  0  0
M  END
>  <MODEL>
5

>  <REMARK>
 VINA RESULT:      -5.6      3.984      8.377
  Name = 
  14 active torsions:
  status: ('A' for Active; 'I' for Inactive)
    1  A    between atoms: N_1  and  C_2
    2  A    between atoms: C_4  and  C_53
    3  A    between atoms: C_4  and  N_57
    4  A    between atoms: C_9  and  C_49
    5  A    between atoms: C_12  and  C_17
    6  A    between atoms: C_12  and  O_40
    7  A    between atoms: C_14  and  C_55
    8  A    between atoms: C_15  and  C_42
    9  A    between atoms: C_16  and  C_17
   10  A    between atoms: C_17  and  N_30
   11  A    between atoms: N_30  and  P_32
   12  A    between atoms: C_36  and  C_55
   13  A    between atoms: O_40  and  N_57
   14  A    between atoms: C_49  and  C_52
                            x       y       z     vdW  Elec       q    Type
                         _______ _______ _______ _____ _____    ______ ____

>  <TORSDO>
F 14

$$$$
=
 OpenBabel11042413183D

 61 66  0  0  1  0  0  0  0  0999 V2000
  188.5610  177.3560  145.4310 C   0  0  1  0  0  3  0  0  0  0  0  0
  186.9400  178.1640  147.0340 O   0  0  0  0  0  1  0  0  0  0  0  0
  185.3320  176.9920  145.3750 F   0  0  0  0  0  0  0  0  0  0  0  0
  188.2400  177.8140  139.4060 C   0  0  0  0  0  0  0  0  0  0  0  0
  184.6040  179.6300  142.3320 C   0  0  0  0  0  2  0  0  0  0  0  0
  184.4440  178.7630  143.4160 O   0  0  0  0  0  0  0  0  0  0  0  0
  186.2150  177.8660  144.7490 C   0  0  2  0  0  0  0  0  0  0  0  0
  185.0660  178.8010  140.1200 C   0  0  0  0  0  0  0  0  0  0  0  0
  187.4140  176.0400  143.9220 C   0  0  1  0  0  3  0  0  0  0  0  0
  188.6660  177.7930  140.6420 C   0  0  0  0  0  0  0  0  0  0  0  0
  185.4460  179.1160  144.3230 C   0  0  2  0  0  3  0  0  0  0  0  0
  189.0940  177.7770  141.8740 C   0  0  0  0  0  3  0  0  0  0  0  0
  188.1170  176.0500  145.1590 O   0  0  0  0  0  0  0  0  0  0  0  0
  186.8160  177.4380  139.1430 C   0  0  0  0  0  2  0  0  0  0  0  0
  186.7490  177.2560  143.5920 O   0  0  0  0  0  0  0  0  0  0  0  0
  189.5010  176.4970  142.5310 C   0  0  0  0  0  2  0  0  0  0  0  0
  185.9430  178.6460  139.1690 C   0  0  0  0  0  3  0  0  0  0  0  0
  187.3590  178.2650  145.7000 C   0  0  2  0  0  3  0  0  0  0  0  0
  184.1830  178.9520  141.0660 C   0  0  0  0  0  0  0  0  0  0  0  0
  184.8650  179.7360  145.4330 O   0  0  0  0  0  1  0  0  0  0  0  0
  188.3070  175.5720  142.7710 C   0  0  0  0  0  2  0  0  0  0  0  0
  189.4830  177.3480  146.5570 N   0  0  0  0  0  2  0  0  0  0  0  0
  191.3960  177.0760  145.2450 O   0  0  0  0  0  0  0  0  0  0  0  0
  190.8900  177.1350  146.4010 C   0  0  0  0  0  0  0  0  0  0  0  0
  194.2080  176.6200  150.9270 F   0  0  0  0  0  0  0  0  0  0  0  0
  191.7920  178.0120  148.5570 C   0  0  0  0  0  3  0  0  0  0  0  0
  192.6200  177.8860  149.6780 C   0  0  0  0  0  3  0  0  0  0  0  0
  192.5520  175.8570  147.7570 C   0  0  0  0  0  3  0  0  0  0  0  0
  191.7540  177.0000  147.5880 C   0  0  0  0  0  0  0  0  0  0  0  0
  193.3770  175.7310  148.8790 C   0  0  0  0  0  3  0  0  0  0  0  0
  193.4120  176.7460  149.8380 C   0  0  0  0  0  0  0  0  0  0  0  0
  189.0510  179.5030  137.9670 O   0  0  0  0  0  0  0  0  0  0  0  0
  189.0980  178.2830  138.2870 C   0  0  0  0  0  0  0  0  0  0  0  0
  193.1690  174.7640  135.8460 C   0  0  0  0  0  3  0  0  0  0  0  0
  191.1470  176.8950  138.0540 N   0  0  0  0  0  0  0  0  0  0  0  0
  191.6570  176.1780  137.0430 C   0  0  0  0  0  0  0  0  0  0  0  0
  190.8480  176.2600  135.9540 C   0  0  0  0  0  0  0  0  0  0  0  0
  190.0030  177.3980  137.5170 C   0  0  0  0  0  0  0  0  0  0  0  0
  192.8370  175.4390  137.0360 C   0  0  0  0  0  3  0  0  0  0  0  0
  192.3250  174.8470  134.7150 C   0  0  0  0  0  3  0  0  0  0  0  0
  191.1420  175.6070  134.7610 C   0  0  0  0  0  3  0  0  0  0  0  0
  189.7860  177.0320  136.2250 N   0  0  0  0  0  2  0  0  0  0  0  0
  182.7590  178.5620  140.7790 C   0  0  0  0  0  2  0  0  0  0  0  0
  182.5380  178.1060  139.3410 C   0  0  2  0  0  3  0  0  0  0  0  0
  181.3630  176.3490  138.9310 C   0  0  0  0  0  2  0  0  0  0  0  0
  181.0640  177.8260  139.1040 C   0  0  0  0  0  2  0  0  0  0  0  0
  182.8320  176.6220  139.1940 C   0  0  1  0  0  3  0  0  0  0  0  0
  183.6780  176.2910  137.9560 C   0  0  0  0  0  2  0  0  0  0  0  0
  185.2960  174.8640  137.1510 O   0  0  0  0  0  1  0  0  0  0  0  0
  184.2500  174.9450  138.0150 N   0  0  0  0  0  0  0  0  0  0  0  0
  183.2880  174.0080  137.7150 O   0  0  0  0  0  0  0  0  0  0  0  0
  183.2050  173.8290  136.3130 C   0  0  0  0  0  2  0  0  0  0  0  0
  182.3580  171.7040  137.1770 C   0  0  0  0  0  1  0  0  0  0  0  0
  182.8170  172.3980  135.9060 C   0  0  2  0  0  0  0  0  0  0  0  0
  183.9940  171.6000  135.3180 C   0  0  0  0  0  2  0  0  0  0  0  0
  185.1880  172.3200  135.4200 O   0  0  0  0  0  1  0  0  0  0  0  0
  181.6690  172.4410  134.9870 N   0  0  0  0  0  2  0  0  0  0  0  0
  179.6020  173.9100  136.2380 O   0  0  0  0  0  1  0  0  0  0  0  0
  180.0990  172.3520  135.8000 P   0  0  0  0  0  0  0  0  0  0  0  0
  180.1730  171.4870  137.0390 O   0  0  0  0  0  1  0  0  0  0  0  0
  178.9640  171.6940  134.7330 O   0  0  0  0  0  0  0  0  0  0  0  0
  1 18  1  0  0  0  0
  1 22  1  1  0  0  0
  4 10  2  0  0  0  0
  5  6  1  0  0  0  0
  6 11  1  0  0  0  0
  7  3  1  1  0  0  0
  7 18  1  0  0  0  0
  8 19  2  0  0  0  0
  9 21  1  6  0  0  0
  9 13  1  0  0  0  0
 10 12  2  0  0  0  0
 11  7  1  0  0  0  0
 11 20  1  1  0  0  0
 12 16  1  0  0  0  0
 13  1  1  0  0  0  0
 14 17  1  0  0  0  0
 14  4  1  0  0  0  0
 15  9  1  0  0  0  0
 15  7  1  0  0  0  0
 16 21  1  0  0  0  0
 17  8  2  0  0  0  0
 18  2  1  1  0  0  0
 19  5  1  0  0  0  0
 23 24  2  0  0  0  0
 24 22  1  0  0  0  0
 24 29  1  0  0  0  0
 26 27  1  0  0  0  0
 27 31  2  0  0  0  0
 28 30  2  0  0  0  0
 29 28  1  0  0  0  0
 29 26  2  0  0  0  0
 30 31  1  0  0  0  0
 31 25  1  0  0  0  0
 32 33  2  0  0  0  0
 33  4  1  0  0  0  0
 34 39  1  0  0  0  0
 36 35  1  0  0  0  0
 37 42  1  0  0  0  0
 37 36  1  0  0  0  0
 38 35  2  0  0  0  0
 38 33  1  0  0  0  0
 39 36  2  0  0  0  0
 40 41  1  0  0  0  0
 40 34  2  0  0  0  0
 41 37  2  0  0  0  0
 42 38  1  0  0  0  0
 43 19  1  0  0  0  0
 44 43  1  1  0  0  0
 45 46  1  0  0  0  0
 45 47  1  0  0  0  0
 46 44  1  0  0  0  0
 47 48  1  6  0  0  0
 47 44  1  0  0  0  0
 48 50  1  0  0  0  0
 49 50  1  0  0  0  0
 51 50  1  0  0  0  0
 52 51  1  0  0  0  0
 54 52  1  0  0  0  0
 54 53  1  1  0  0  0
 55 56  1  0  0  0  0
 55 54  1  0  0  0  0
 57 59  1  0  0  0  0
 57 54  1  0  0  0  0
 59 58  1  0  0  0  0
 59 60  1  0  0  0  0
 61 59  2  0  0  0  0
M  END
>  <MODEL>
6

>  <REMARK>
 VINA RESULT:      -4.4      4.480      8.982
  Name = 
  14 active torsions:
  status: ('A' for Active; 'I' for Inactive)
    1  A    between atoms: N_1  and  C_2
    2  A    between atoms: C_4  and  C_53
    3  A    between atoms: C_4  and  N_57
    4  A    between atoms: C_9  and  C_49
    5  A    between atoms: C_12  and  C_17
    6  A    between atoms: C_12  and  O_40
    7  A    between atoms: C_14  and  C_55
    8  A    between atoms: C_15  and  C_42
    9  A    between atoms: C_16  and  C_17
   10  A    between atoms: C_17  and  N_30
   11  A    between atoms: N_30  and  P_32
   12  A    between atoms: C_36  and  C_55
   13  A    between atoms: O_40  and  N_57
   14  A    between atoms: C_49  and  C_52
                            x       y       z     vdW  Elec       q    Type
                         _______ _______ _______ _____ _____    ______ ____

>  <TORSDO>
F 14

$$$$
=
 OpenBabel11042413183D

 61 66  0  0  1  0  0  0  0  0999 V2000
  189.7040  176.7600  137.5580 C   0  0  1  0  0  3  0  0  0  0  0  0
  190.9660  177.4820  139.4910 O   0  0  0  0  0  1  0  0  0  0  0  0
  189.0430  176.2320  140.6960 F   0  0  0  0  0  0  0  0  0  0  0  0
  183.7230  177.2110  136.7600 C   0  0  0  0  0  0  0  0  0  0  0  0
  185.8970  178.8340  140.9690 C   0  0  0  0  0  2  0  0  0  0  0  0
  186.9380  177.9580  141.2870 O   0  0  0  0  0  0  0  0  0  0  0  0
  188.5880  177.1500  139.7560 C   0  0  2  0  0  0  0  0  0  0  0  0
  183.8180  178.0330  140.0570 C   0  0  0  0  0  0  0  0  0  0  0  0
  188.0170  175.3900  138.3330 C   0  0  1  0  0  3  0  0  0  0  0  0
  185.0170  177.2100  136.5740 C   0  0  0  0  0  0  0  0  0  0  0  0
  188.0150  178.3610  140.4940 C   0  0  2  0  0  3  0  0  0  0  0  0
  186.3080  177.2130  136.3860 C   0  0  0  0  0  3  0  0  0  0  0  0
  189.3640  175.4330  137.8760 O   0  0  0  0  0  0  0  0  0  0  0  0
  183.2000  176.7630  138.0880 C   0  0  0  0  0  2  0  0  0  0  0  0
  187.5570  176.5710  138.9830 O   0  0  0  0  0  0  0  0  0  0  0  0
  187.0410  175.9550  136.0460 C   0  0  0  0  0  2  0  0  0  0  0  0
  183.0500  177.9250  139.0090 C   0  0  0  0  0  3  0  0  0  0  0  0
  189.7350  177.6060  138.8340 C   0  0  2  0  0  3  0  0  0  0  0  0
  184.5790  178.1370  141.1100 C   0  0  0  0  0  0  0  0  0  0  0  0
  188.9900  178.9480  141.3040 O   0  0  0  0  0  1  0  0  0  0  0  0
  187.0590  174.9700  137.2160 C   0  0  0  0  0  2  0  0  0  0  0  0
  190.9840  176.7980  136.8660 N   0  0  0  0  0  2  0  0  0  0  0  0
  191.7720  174.8070  137.7990 O   0  0  0  0  0  0  0  0  0  0  0  0
  192.0070  175.8200  137.0830 C   0  0  0  0  0  0  0  0  0  0  0  0
  197.0780  176.4710  134.7130 F   0  0  0  0  0  0  0  0  0  0  0  0
  194.3330  175.0220  136.6510 C   0  0  0  0  0  3  0  0  0  0  0  0
  195.5930  175.1870  136.0670 C   0  0  0  0  0  3  0  0  0  0  0  0
  193.6090  177.1160  135.6720 C   0  0  0  0  0  3  0  0  0  0  0  0
  193.3330  175.9870  136.4600 C   0  0  0  0  0  0  0  0  0  0  0  0
  194.8690  177.2780  135.0870 C   0  0  0  0  0  3  0  0  0  0  0  0
  195.8610  176.3150  135.2850 C   0  0  0  0  0  0  0  0  0  0  0  0
  182.7800  177.1780  134.5940 O   0  0  0  0  0  0  0  0  0  0  0  0
  182.7820  177.7250  135.7310 C   0  0  0  0  0  0  0  0  0  0  0  0
  179.1970  182.1130  137.4070 C   0  0  0  0  0  3  0  0  0  0  0  0
  181.5920  179.3340  137.2070 N   0  0  0  0  0  0  0  0  0  0  0  0
  180.7090  180.3130  136.9690 C   0  0  0  0  0  0  0  0  0  0  0  0
  180.4520  180.4010  135.6370 C   0  0  0  0  0  0  0  0  0  0  0  0
  181.8480  178.8530  135.9600 C   0  0  0  0  0  0  0  0  0  0  0  0
  180.1000  181.1520  137.8990 C   0  0  0  0  0  3  0  0  0  0  0  0
  178.9330  182.2060  136.0220 C   0  0  0  0  0  3  0  0  0  0  0  0
  179.5670  181.3380  135.1130 C   0  0  0  0  0  3  0  0  0  0  0  0
  181.1620  179.4820  134.9680 N   0  0  0  0  0  2  0  0  0  0  0  0
  184.0320  177.6760  142.4320 C   0  0  0  0  0  2  0  0  0  0  0  0
  183.7730  178.8170  143.4090 C   0  0  2  0  0  3  0  0  0  0  0  0
  185.3770  180.1280  143.9910 C   0  0  0  0  0  2  0  0  0  0  0  0
  184.3590  180.1090  142.8680 C   0  0  0  0  0  2  0  0  0  0  0  0
  184.8120  178.8230  144.5190 C   0  0  1  0  0  3  0  0  0  0  0  0
  184.2050  179.0170  145.9160 C   0  0  0  0  0  2  0  0  0  0  0  0
  185.6900  179.7430  147.5180 O   0  0  0  0  0  1  0  0  0  0  0  0
  185.1290  178.6280  146.9830 N   0  0  0  0  0  0  0  0  0  0  0  0
  186.0920  177.7790  146.4890 O   0  0  0  0  0  0  0  0  0  0  0  0
  187.3240  178.4650  146.3590 C   0  0  0  0  0  2  0  0  0  0  0  0
  187.7600  176.7520  144.6680 C   0  0  0  0  0  1  0  0  0  0  0  0
  188.4330  177.6050  145.7300 C   0  0  2  0  0  0  0  0  0  0  0  0
  189.1140  176.6660  146.7420 C   0  0  0  0  0  2  0  0  0  0  0  0
  188.6730  176.9280  148.0430 O   0  0  0  0  0  1  0  0  0  0  0  0
  189.4040  178.4750  145.0480 N   0  0  0  0  0  2  0  0  0  0  0  0
  191.8060  178.6210  143.5650 O   0  0  0  0  0  0  0  0  0  0  0  0
  190.9360  177.6750  144.6660 P   0  0  0  0  0  0  0  0  0  0  0  0
  190.7030  176.3040  144.0690 O   0  0  0  0  0  1  0  0  0  0  0  0
  191.8400  177.5130  146.0860 O   0  0  0  0  0  1  0  0  0  0  0  0
  1 22  1  1  0  0  0
  1 13  1  0  0  0  0
  1 18  1  0  0  0  0
  4 14  1  0  0  0  0
  5 19  1  0  0  0  0
  5  6  1  0  0  0  0
  7 11  1  0  0  0  0
  7  3  1  1  0  0  0
  8 19  2  0  0  0  0
  9 21  1  6  0  0  0
  9 15  1  0  0  0  0
 10  4  2  0  0  0  0
 11  6  1  0  0  0  0
 11 20  1  1  0  0  0
 12 10  2  0  0  0  0
 13  9  1  0  0  0  0
 14 17  1  0  0  0  0
 15  7  1  0  0  0  0
 16 12  1  0  0  0  0
 16 21  1  0  0  0  0
 17  8  2  0  0  0  0
 18  2  1  1  0  0  0
 18  7  1  0  0  0  0
 19 43  1  0  0  0  0
 22 24  1  0  0  0  0
 24 23  2  0  0  0  0
 25 31  1  0  0  0  0
 27 26  2  0  0  0  0
 28 29  2  0  0  0  0
 29 26  1  0  0  0  0
 29 24  1  0  0  0  0
 30 31  2  0  0  0  0
 30 28  1  0  0  0  0
 31 27  1  0  0  0  0
 32 33  2  0  0  0  0
 33 38  1  0  0  0  0
 33  4  1  0  0  0  0
 34 39  1  0  0  0  0
 36 35  1  0  0  0  0
 36 39  2  0  0  0  0
 37 36  1  0  0  0  0
 38 35  2  0  0  0  0
 40 34  2  0  0  0  0
 41 37  2  0  0  0  0
 41 40  1  0  0  0  0
 42 37  1  0  0  0  0
 42 38  1  0  0  0  0
 44 43  1  6  0  0  0
 44 47  1  0  0  0  0
 45 47  1  0  0  0  0
 46 44  1  0  0  0  0
 46 45  1  0  0  0  0
 47 48  1  1  0  0  0
 48 50  1  0  0  0  0
 50 49  1  0  0  0  0
 51 50  1  0  0  0  0
 52 51  1  0  0  0  0
 54 53  1  6  0  0  0
 54 52  1  0  0  0  0
 54 55  1  0  0  0  0
 55 56  1  0  0  0  0
 57 54  1  0  0  0  0
 58 59  2  0  0  0  0
 59 57  1  0  0  0  0
 59 61  1  0  0  0  0
 60 59  1  0  0  0  0
M  END
>  <MODEL>
7

>  <REMARK>
 VINA RESULT:      -4.2      3.455      8.393
  Name = 
  14 active torsions:
  status: ('A' for Active; 'I' for Inactive)
    1  A    between atoms: N_1  and  C_2
    2  A    between atoms: C_4  and  C_53
    3  A    between atoms: C_4  and  N_57
    4  A    between atoms: C_9  and  C_49
    5  A    between atoms: C_12  and  C_17
    6  A    between atoms: C_12  and  O_40
    7  A    between atoms: C_14  and  C_55
    8  A    between atoms: C_15  and  C_42
    9  A    between atoms: C_16  and  C_17
   10  A    between atoms: C_17  and  N_30
   11  A    between atoms: N_30  and  P_32
   12  A    between atoms: C_36  and  C_55
   13  A    between atoms: O_40  and  N_57
   14  A    between atoms: C_49  and  C_52
                            x       y       z     vdW  Elec       q    Type
                         _______ _______ _______ _____ _____    ______ ____

>  <TORSDO>
F 14

$$$$
