=
 OpenBabel11042411343D

 36 37  0  0  0  0  0  0  0  0999 V2000
  189.9280  177.1090  140.1310 C   0  0  0  0  0  3  0  0  0  0  0  0
  188.9500  177.6340  139.3830 C   0  0  0  0  0  0  0  0  0  0  0  0
  189.9710  177.3700  137.2220 N   0  0  0  0  0  0  0  0  0  0  0  0
  188.8920  177.2690  137.9430 C   0  0  0  0  0  0  0  0  0  0  0  0
  186.7570  177.8680  136.7390 C   0  0  0  0  0  0  0  0  0  0  0  0
  187.2190  175.5510  137.2900 C   0  0  0  0  0  3  0  0  0  0  0  0
  187.1280  179.2070  136.7050 O   0  0  0  0  0  1  0  0  0  0  0  0
  187.6030  176.8990  137.3120 C   0  0  0  0  0  0  0  0  0  0  0  0
  185.5360  177.4830  136.1750 C   0  0  0  0  0  3  0  0  0  0  0  0
  186.0000  175.1740  136.7230 C   0  0  0  0  0  3  0  0  0  0  0  0
  185.1560  176.1390  136.1700 C   0  0  0  0  0  3  0  0  0  0  0  0
  189.9800  177.1290  135.8650 O   0  0  0  0  0  0  0  0  0  0  0  0
  190.6820  176.0120  135.3480 C   0  0  0  0  0  1  0  0  0  0  0  0
  187.9390  178.5070  140.0200 C   0  0  0  0  0  3  0  0  0  0  0  0
  186.7460  178.0860  140.4250 C   0  0  0  0  0  3  0  0  0  0  0  0
  185.7980  179.0280  141.0840 C   0  0  0  0  0  2  0  0  0  0  0  0
  184.6180  178.2880  141.6970 C   0  0  0  0  0  2  0  0  0  0  0  0
  183.7930  178.9210  145.1690 C   0  0  0  0  0  3  0  0  0  0  0  0
  183.4490  178.8230  143.8310 C   0  0  0  0  0  3  0  0  0  0  0  0
  184.5590  178.5190  143.1340 N   0  0  0  0  0  0  0  0  0  0  0  0
  185.1530  178.6480  145.1810 C   0  0  0  0  0  0  0  0  0  0  0  0
  185.5990  178.4050  143.9360 N   0  0  0  0  0  0  0  0  0  0  0  0
  188.8160  176.5250  147.4880 O   0  0  0  0  0  0  0  0  0  0  0  0
  187.0430  177.6200  146.4640 N   0  0  0  0  0  2  0  0  0  0  0  0
  187.8200  178.2030  148.8300 C   0  0  0  0  0  1  0  0  0  0  0  0
  186.0010  178.6000  146.3770 C   0  0  0  0  0  0  0  0  0  0  0  0
  187.9260  177.4110  147.5730 C   0  0  0  0  0  0  0  0  0  0  0  0
  185.8140  179.4310  147.3070 O   0  0  0  0  0  0  0  0  0  0  0  0
  190.0940  177.3820  141.5890 C   0  0  0  0  0  2  0  0  0  0  0  0
  191.5190  177.0630  141.9990 C   0  0  0  0  0  2  0  0  0  0  0  0
  191.5660  176.6500  143.4320 C   0  0  0  0  0  0  0  0  0  0  0  0
  191.7740  175.4840  143.7270 O   0  0  0  0  0  0  0  0  0  0  0  0
  191.2810  177.8570  144.7240 P   0  0  0  0  0  0  0  0  0  0  0  0
  192.1380  179.2750  144.3820 O   0  0  0  0  0  0  0  0  0  0  0  0
  189.8060  178.1720  144.8050 O   0  0  0  0  0  1  0  0  0  0  0  0
  191.8070  177.2300  146.2040 O   0  0  0  0  0  1  0  0  0  0  0  0
  1 29  1  0  0  0  0
  2 14  1  0  0  0  0
  2  1  2  0  0  0  0
  3  4  2  0  0  0  0
  4  2  1  0  0  0  0
  5  8  1  0  0  0  0
  6  8  2  0  0  0  0
  7  5  1  0  0  0  0
  8  4  1  0  0  0  0
  9  5  2  0  0  0  0
 10  6  1  0  0  0  0
 11  9  1  0  0  0  0
 11 10  2  0  0  0  0
 12  3  1  0  0  0  0
 13 12  1  0  0  0  0
 14 15  2  0  0  0  0
 15 16  1  0  0  0  0
 16 17  1  0  0  0  0
 17 20  1  0  0  0  0
 18 21  1  0  0  0  0
 19 18  2  0  0  0  0
 20 19  1  0  0  0  0
 20 22  1  0  0  0  0
 21 26  1  0  0  0  0
 22 21  2  0  0  0  0
 23 27  2  0  0  0  0
 24 27  1  0  0  0  0
 26 24  1  0  0  0  0
 26 28  2  0  0  0  0
 27 25  1  0  0  0  0
 29 30  1  0  0  0  0
 30 31  1  0  0  0  0
 31 32  2  0  0  0  0
 31 33  1  0  0  0  0
 33 35  1  0  0  0  0
 33 36  1  0  0  0  0
 34 33  2  0  0  0  0
M  END
>  <MODEL>
1

>  <REMARK>
 VINA RESULT:      -7.7      0.000      0.000
  Name = 
  12 active torsions:
  status: ('A' for Active; 'I' for Inactive)
    1  A    between atoms: P_1  and  C_7
    2  A    between atoms: C_2  and  C_5
    3  A    between atoms: C_2  and  C_22
    4  A    between atoms: N_3  and  O_19
    5  A    between atoms: C_4  and  C_30
    6  A    between atoms: C_7  and  C_24
    7  A    between atoms: C_10  and  C_21
    8  A    between atoms: C_10  and  C_30
    9  A    between atoms: C_13  and  C_25
   10  A    between atoms: C_22  and  N_23
   11  A    between atoms: C_24  and  C_26
   12  A    between atoms: C_26  and  C_29
                            x       y       z     vdW  Elec       q    Type
                         _______ _______ _______ _____ _____    ______ ____

>  <TORSDO>
F 12

$$$$
=
 OpenBabel11042411343D

 36 37  0  0  0  0  0  0  0  0999 V2000
  185.2220  178.8690  144.3960 C   0  0  0  0  0  3  0  0  0  0  0  0
  186.2830  178.2190  143.9010 C   0  0  0  0  0  0  0  0  0  0  0  0
  186.9270  177.4670  146.0920 N   0  0  0  0  0  0  0  0  0  0  0  0
  187.2810  177.6700  144.8560 C   0  0  0  0  0  0  0  0  0  0  0  0
  189.0680  176.3370  143.6740 C   0  0  0  0  0  0  0  0  0  0  0  0
  189.6560  178.3980  144.8100 C   0  0  0  0  0  3  0  0  0  0  0  0
  188.1240  175.4100  143.2490 O   0  0  0  0  0  1  0  0  0  0  0  0
  188.6850  177.4580  144.4360 C   0  0  0  0  0  0  0  0  0  0  0  0
  190.4080  176.1590  143.3180 C   0  0  0  0  0  3  0  0  0  0  0  0
  190.9920  178.2150  144.4480 C   0  0  0  0  0  3  0  0  0  0  0  0
  191.3700  177.0940  143.7060 C   0  0  0  0  0  3  0  0  0  0  0  0
  187.8150  177.0380  147.0550 O   0  0  0  0  0  0  0  0  0  0  0  0
  187.9250  177.7410  148.2800 C   0  0  0  0  0  1  0  0  0  0  0  0
  186.3950  178.0240  142.4390 C   0  0  0  0  0  3  0  0  0  0  0  0
  187.2600  178.6730  141.6680 C   0  0  0  0  0  3  0  0  0  0  0  0
  187.3250  178.3950  140.2060 C   0  0  0  0  0  2  0  0  0  0  0  0
  188.7450  178.5360  139.6770 C   0  0  0  0  0  2  0  0  0  0  0  0
  189.0300  175.7640  137.3610 C   0  0  0  0  0  3  0  0  0  0  0  0
  188.3160  176.7960  137.9470 C   0  0  0  0  0  3  0  0  0  0  0  0
  189.1060  177.3830  138.8650 N   0  0  0  0  0  0  0  0  0  0  0  0
  190.2630  175.8130  137.9940 C   0  0  0  0  0  0  0  0  0  0  0  0
  190.2900  176.8030  138.9040 N   0  0  0  0  0  0  0  0  0  0  0  0
  195.0370  175.3730  137.4880 O   0  0  0  0  0  0  0  0  0  0  0  0
  192.7280  175.4730  137.7130 N   0  0  0  0  0  2  0  0  0  0  0  0
  193.9370  173.3320  137.0100 C   0  0  0  0  0  1  0  0  0  0  0  0
  191.4010  174.9330  137.7100 C   0  0  0  0  0  0  0  0  0  0  0  0
  193.9380  174.7660  137.4140 C   0  0  0  0  0  0  0  0  0  0  0  0
  191.2010  173.7090  137.4830 O   0  0  0  0  0  0  0  0  0  0  0  0
  184.1420  179.4580  143.5510 C   0  0  0  0  0  2  0  0  0  0  0  0
  182.7950  178.9760  144.0550 C   0  0  0  0  0  2  0  0  0  0  0  0
  181.8630  178.7530  142.9100 C   0  0  0  0  0  0  0  0  0  0  0  0
  182.3000  178.6590  141.7750 O   0  0  0  0  0  0  0  0  0  0  0  0
  180.0980  178.6580  143.1960 P   0  0  0  0  0  0  0  0  0  0  0  0
  179.2980  178.3320  141.7410 O   0  0  0  0  0  0  0  0  0  0  0  0
  179.8050  177.5540  144.1860 O   0  0  0  0  0  1  0  0  0  0  0  0
  179.5500  180.1330  143.8170 O   0  0  0  0  0  1  0  0  0  0  0  0
  2  1  2  0  0  0  0
  2  4  1  0  0  0  0
  3 12  1  0  0  0  0
  4  3  2  0  0  0  0
  5  8  1  0  0  0  0
  7  5  1  0  0  0  0
  8  6  2  0  0  0  0
  8  4  1  0  0  0  0
  9  5  2  0  0  0  0
  9 11  1  0  0  0  0
 10  6  1  0  0  0  0
 11 10  2  0  0  0  0
 12 13  1  0  0  0  0
 14  2  1  0  0  0  0
 15 14  2  0  0  0  0
 16 15  1  0  0  0  0
 17 16  1  0  0  0  0
 18 19  2  0  0  0  0
 18 21  1  0  0  0  0
 19 20  1  0  0  0  0
 20 22  1  0  0  0  0
 20 17  1  0  0  0  0
 21 22  2  0  0  0  0
 25 27  1  0  0  0  0
 26 24  1  0  0  0  0
 26 21  1  0  0  0  0
 27 23  2  0  0  0  0
 27 24  1  0  0  0  0
 28 26  2  0  0  0  0
 29 30  1  0  0  0  0
 29  1  1  0  0  0  0
 31 33  1  0  0  0  0
 31 30  1  0  0  0  0
 32 31  2  0  0  0  0
 33 36  1  0  0  0  0
 33 35  1  0  0  0  0
 34 33  2  0  0  0  0
M  END
>  <MODEL>
2

>  <REMARK>
 VINA RESULT:      -7.5      3.836      9.377
  Name = 
  12 active torsions:
  status: ('A' for Active; 'I' for Inactive)
    1  A    between atoms: P_1  and  C_7
    2  A    between atoms: C_2  and  C_5
    3  A    between atoms: C_2  and  C_22
    4  A    between atoms: N_3  and  O_19
    5  A    between atoms: C_4  and  C_30
    6  A    between atoms: C_7  and  C_24
    7  A    between atoms: C_10  and  C_21
    8  A    between atoms: C_10  and  C_30
    9  A    between atoms: C_13  and  C_25
   10  A    between atoms: C_22  and  N_23
   11  A    between atoms: C_24  and  C_26
   12  A    between atoms: C_26  and  C_29
                            x       y       z     vdW  Elec       q    Type
                         _______ _______ _______ _____ _____    ______ ____

>  <TORSDO>
F 12

$$$$
=
 OpenBabel11042411343D

 36 37  0  0  0  0  0  0  0  0999 V2000
  184.1530  178.0510  139.0810 C   0  0  0  0  0  3  0  0  0  0  0  0
  183.4430  178.4080  140.1580 C   0  0  0  0  0  0  0  0  0  0  0  0
  181.6110  176.8990  139.7800 N   0  0  0  0  0  0  0  0  0  0  0  0
  181.9950  178.0730  140.1900 C   0  0  0  0  0  0  0  0  0  0  0  0
  180.5340  180.0620  139.6690 C   0  0  0  0  0  0  0  0  0  0  0  0
  180.5010  179.0930  141.8930 C   0  0  0  0  0  3  0  0  0  0  0  0
  180.9700  180.0630  138.3500 O   0  0  0  0  0  1  0  0  0  0  0  0
  180.9960  179.0930  140.5810 C   0  0  0  0  0  0  0  0  0  0  0  0
  179.6080  181.0250  140.0830 C   0  0  0  0  0  3  0  0  0  0  0  0
  179.5750  180.0550  142.2980 C   0  0  0  0  0  3  0  0  0  0  0  0
  179.1310  181.0250  141.3960 C   0  0  0  0  0  3  0  0  0  0  0  0
  180.2820  176.5410  139.7020 O   0  0  0  0  0  0  0  0  0  0  0  0
  179.8780  175.2330  140.0640 C   0  0  0  0  0  1  0  0  0  0  0  0
  184.1280  179.0700  141.2900 C   0  0  0  0  0  3  0  0  0  0  0  0
  184.0560  178.6500  142.5480 C   0  0  0  0  0  3  0  0  0  0  0  0
  184.8010  179.3610  143.6250 C   0  0  0  0  0  2  0  0  0  0  0  0
  184.4620  178.7980  144.9980 C   0  0  0  0  0  2  0  0  0  0  0  0
  187.1080  178.1740  147.3950 C   0  0  0  0  0  3  0  0  0  0  0  0
  185.8340  178.6090  147.0690 C   0  0  0  0  0  3  0  0  0  0  0  0
  185.6760  178.4850  145.7380 N   0  0  0  0  0  0  0  0  0  0  0  0
  187.6490  177.7930  146.1760 C   0  0  0  0  0  0  0  0  0  0  0  0
  186.7640  177.9890  145.1820 N   0  0  0  0  0  0  0  0  0  0  0  0
  191.9670  176.8040  148.0780 O   0  0  0  0  0  0  0  0  0  0  0  0
  189.9220  177.2320  147.0650 N   0  0  0  0  0  2  0  0  0  0  0  0
  191.8980  176.2400  145.7800 C   0  0  0  0  0  1  0  0  0  0  0  0
  188.9890  177.2300  145.9780 C   0  0  0  0  0  0  0  0  0  0  0  0
  191.2760  176.7650  147.0280 C   0  0  0  0  0  0  0  0  0  0  0  0
  189.2990  176.7370  144.8600 O   0  0  0  0  0  0  0  0  0  0  0  0
  185.6140  178.3150  138.9250 C   0  0  0  0  0  2  0  0  0  0  0  0
  186.0810  177.7740  137.5880 C   0  0  0  0  0  2  0  0  0  0  0  0
  187.4310  177.1510  137.7230 C   0  0  0  0  0  0  0  0  0  0  0  0
  187.5670  175.9480  137.5770 O   0  0  0  0  0  0  0  0  0  0  0  0
  188.8480  178.1640  138.1360 P   0  0  0  0  0  0  0  0  0  0  0  0
  188.7050  179.6790  137.3980 O   0  0  0  0  0  0  0  0  0  0  0  0
  188.9210  178.3440  139.6350 O   0  0  0  0  0  1  0  0  0  0  0  0
  190.2580  177.4060  137.5890 O   0  0  0  0  0  1  0  0  0  0  0  0
  1  2  2  0  0  0  0
  2  4  1  0  0  0  0
  2 14  1  0  0  0  0
  3  4  2  0  0  0  0
  4  8  1  0  0  0  0
  5  9  2  0  0  0  0
  5  8  1  0  0  0  0
  6 10  1  0  0  0  0
  7  5  1  0  0  0  0
  8  6  2  0  0  0  0
  9 11  1  0  0  0  0
 11 10  2  0  0  0  0
 12  3  1  0  0  0  0
 12 13  1  0  0  0  0
 14 15  2  0  0  0  0
 15 16  1  0  0  0  0
 16 17  1  0  0  0  0
 17 20  1  0  0  0  0
 19 18  2  0  0  0  0
 20 19  1  0  0  0  0
 21 18  1  0  0  0  0
 22 20  1  0  0  0  0
 22 21  2  0  0  0  0
 25 27  1  0  0  0  0
 26 21  1  0  0  0  0
 26 24  1  0  0  0  0
 27 24  1  0  0  0  0
 27 23  2  0  0  0  0
 28 26  2  0  0  0  0
 29  1  1  0  0  0  0
 30 31  1  0  0  0  0
 30 29  1  0  0  0  0
 31 33  1  0  0  0  0
 32 31  2  0  0  0  0
 33 35  1  0  0  0  0
 34 33  2  0  0  0  0
 36 33  1  0  0  0  0
M  END
>  <MODEL>
3

>  <REMARK>
 VINA RESULT:      -7.5      3.529      6.492
  Name = 
  12 active torsions:
  status: ('A' for Active; 'I' for Inactive)
    1  A    between atoms: P_1  and  C_7
    2  A    between atoms: C_2  and  C_5
    3  A    between atoms: C_2  and  C_22
    4  A    between atoms: N_3  and  O_19
    5  A    between atoms: C_4  and  C_30
    6  A    between atoms: C_7  and  C_24
    7  A    between atoms: C_10  and  C_21
    8  A    between atoms: C_10  and  C_30
    9  A    between atoms: C_13  and  C_25
   10  A    between atoms: C_22  and  N_23
   11  A    between atoms: C_24  and  C_26
   12  A    between atoms: C_26  and  C_29
                            x       y       z     vdW  Elec       q    Type
                         _______ _______ _______ _____ _____    ______ ____

>  <TORSDO>
F 12

$$$$
=
 OpenBabel11042411343D

 36 37  0  0  0  0  0  0  0  0999 V2000
  184.2430  179.0220  138.9230 C   0  0  0  0  0  3  0  0  0  0  0  0
  183.4490  178.8540  139.9880 C   0  0  0  0  0  0  0  0  0  0  0  0
  181.2050  178.9750  140.8420 N   0  0  0  0  0  0  0  0  0  0  0  0
  182.0300  179.2830  139.8830 C   0  0  0  0  0  0  0  0  0  0  0  0
  181.0970  179.2230  137.5390 C   0  0  0  0  0  0  0  0  0  0  0  0
  181.5110  181.3570  138.6170 C   0  0  0  0  0  3  0  0  0  0  0  0
  181.0680  177.8350  137.5640 O   0  0  0  0  0  1  0  0  0  0  0  0
  181.5370  179.9560  138.6590 C   0  0  0  0  0  0  0  0  0  0  0  0
  180.6620  179.8950  136.3930 C   0  0  0  0  0  3  0  0  0  0  0  0
  181.0720  182.0200  137.4700 C   0  0  0  0  0  3  0  0  0  0  0  0
  180.6520  181.2910  136.3560 C   0  0  0  0  0  3  0  0  0  0  0  0
  179.8590  179.2650  140.7810 O   0  0  0  0  0  0  0  0  0  0  0  0
  179.3050  180.2410  141.6460 C   0  0  0  0  0  1  0  0  0  0  0  0
  183.9930  178.2040  141.2010 C   0  0  0  0  0  3  0  0  0  0  0  0
  184.4370  178.8670  142.2610 C   0  0  0  0  0  3  0  0  0  0  0  0
  184.9440  178.1320  143.4550 C   0  0  0  0  0  2  0  0  0  0  0  0
  184.8280  178.9750  144.7160 C   0  0  0  0  0  2  0  0  0  0  0  0
  186.9620  178.2350  147.5500 C   0  0  0  0  0  3  0  0  0  0  0  0
  185.7700  178.6800  147.0040 C   0  0  0  0  0  3  0  0  0  0  0  0
  185.8780  178.6280  145.6630 N   0  0  0  0  0  0  0  0  0  0  0  0
  187.7380  177.9230  146.4430 C   0  0  0  0  0  0  0  0  0  0  0  0
  187.0620  178.1690  145.3060 N   0  0  0  0  0  0  0  0  0  0  0  0
  191.7550  176.8330  144.0110 O   0  0  0  0  0  0  0  0  0  0  0  0
  189.8710  177.3230  145.2770 N   0  0  0  0  0  2  0  0  0  0  0  0
  191.9180  176.1570  146.2740 C   0  0  0  0  0  1  0  0  0  0  0  0
  189.0990  177.3790  146.4830 C   0  0  0  0  0  0  0  0  0  0  0  0
  191.1910  176.7840  145.1340 C   0  0  0  0  0  0  0  0  0  0  0  0
  189.5790  176.9820  147.5790 O   0  0  0  0  0  0  0  0  0  0  0  0
  185.6810  178.6250  138.8900 C   0  0  0  0  0  2  0  0  0  0  0  0
  185.9880  177.9670  137.5570 C   0  0  0  0  0  2  0  0  0  0  0  0
  187.3030  177.2640  137.6170 C   0  0  0  0  0  0  0  0  0  0  0  0
  187.3510  176.0480  137.5330 O   0  0  0  0  0  0  0  0  0  0  0  0
  188.8110  178.2000  137.8490 P   0  0  0  0  0  0  0  0  0  0  0  0
  190.0770  177.4680  136.9990 O   0  0  0  0  0  0  0  0  0  0  0  0
  188.6150  179.6090  137.3380 O   0  0  0  0  0  1  0  0  0  0  0  0
  189.1970  178.2460  139.4950 O   0  0  0  0  0  1  0  0  0  0  0  0
  1  2  2  0  0  0  0
  2 14  1  0  0  0  0
  4  2  1  0  0  0  0
  4  3  2  0  0  0  0
  5  7  1  0  0  0  0
  5  8  1  0  0  0  0
  6  8  2  0  0  0  0
  8  4  1  0  0  0  0
  9  5  2  0  0  0  0
 10  6  1  0  0  0  0
 11  9  1  0  0  0  0
 11 10  2  0  0  0  0
 12  3  1  0  0  0  0
 12 13  1  0  0  0  0
 14 15  2  0  0  0  0
 15 16  1  0  0  0  0
 16 17  1  0  0  0  0
 17 20  1  0  0  0  0
 19 18  2  0  0  0  0
 20 19  1  0  0  0  0
 21 26  1  0  0  0  0
 21 18  1  0  0  0  0
 22 20  1  0  0  0  0
 22 21  2  0  0  0  0
 23 27  2  0  0  0  0
 24 26  1  0  0  0  0
 26 28  2  0  0  0  0
 27 24  1  0  0  0  0
 27 25  1  0  0  0  0
 29  1  1  0  0  0  0
 30 31  1  0  0  0  0
 30 29  1  0  0  0  0
 31 33  1  0  0  0  0
 32 31  2  0  0  0  0
 33 36  1  0  0  0  0
 34 33  2  0  0  0  0
 35 33  1  0  0  0  0
M  END
>  <MODEL>
4

>  <REMARK>
 VINA RESULT:      -7.3      3.662      6.439
  Name = 
  12 active torsions:
  status: ('A' for Active; 'I' for Inactive)
    1  A    between atoms: P_1  and  C_7
    2  A    between atoms: C_2  and  C_5
    3  A    between atoms: C_2  and  C_22
    4  A    between atoms: N_3  and  O_19
    5  A    between atoms: C_4  and  C_30
    6  A    between atoms: C_7  and  C_24
    7  A    between atoms: C_10  and  C_21
    8  A    between atoms: C_10  and  C_30
    9  A    between atoms: C_13  and  C_25
   10  A    between atoms: C_22  and  N_23
   11  A    between atoms: C_24  and  C_26
   12  A    between atoms: C_26  and  C_29
                            x       y       z     vdW  Elec       q    Type
                         _______ _______ _______ _____ _____    ______ ____

>  <TORSDO>
F 12

$$$$
=
 OpenBabel11042411343D

 36 37  0  0  0  0  0  0  0  0999 V2000
  185.2020  178.8220  140.8490 C   0  0  0  0  0  3  0  0  0  0  0  0
  184.1020  178.8070  141.6110 C   0  0  0  0  0  0  0  0  0  0  0  0
  181.7050  178.6170  141.6410 N   0  0  0  0  0  0  0  0  0  0  0  0
  182.8100  178.4380  140.9760 C   0  0  0  0  0  0  0  0  0  0  0  0
  182.6390  178.5150  138.4600 C   0  0  0  0  0  0  0  0  0  0  0  0
  182.9100  176.3820  139.5830 C   0  0  0  0  0  3  0  0  0  0  0  0
  182.5570  179.9020  138.4870 O   0  0  0  0  0  1  0  0  0  0  0  0
  182.7860  177.7770  139.6500 C   0  0  0  0  0  0  0  0  0  0  0  0
  182.5960  177.8530  137.2290 C   0  0  0  0  0  3  0  0  0  0  0  0
  182.8700  175.7290  138.3500 C   0  0  0  0  0  3  0  0  0  0  0  0
  182.7080  176.4620  137.1730 C   0  0  0  0  0  3  0  0  0  0  0  0
  180.4770  178.2250  141.1550 O   0  0  0  0  0  0  0  0  0  0  0  0
  179.5450  179.1980  140.7180 C   0  0  0  0  0  1  0  0  0  0  0  0
  184.2180  179.1030  143.0560 C   0  0  0  0  0  3  0  0  0  0  0  0
  183.9470  178.2270  144.0170 C   0  0  0  0  0  3  0  0  0  0  0  0
  184.1170  178.6010  145.4500 C   0  0  0  0  0  2  0  0  0  0  0  0
  185.3090  179.5270  145.6440 C   0  0  0  0  0  2  0  0  0  0  0  0
  187.5670  177.9100  147.9710 C   0  0  0  0  0  3  0  0  0  0  0  0
  186.4160  178.6240  147.6850 C   0  0  0  0  0  3  0  0  0  0  0  0
  186.3780  178.8430  146.3570 N   0  0  0  0  0  0  0  0  0  0  0  0
  188.1650  177.7350  146.7330 C   0  0  0  0  0  0  0  0  0  0  0  0
  187.4270  178.3080  145.7650 N   0  0  0  0  0  0  0  0  0  0  0  0
  192.5040  176.4290  148.3780 O   0  0  0  0  0  0  0  0  0  0  0  0
  190.4350  176.9970  147.4920 N   0  0  0  0  0  2  0  0  0  0  0  0
  192.1740  175.6800  146.1570 C   0  0  0  0  0  1  0  0  0  0  0  0
  189.4150  177.0080  146.4850 C   0  0  0  0  0  0  0  0  0  0  0  0
  191.7230  176.3770  147.3930 C   0  0  0  0  0  0  0  0  0  0  0  0
  189.5710  176.3890  145.3980 O   0  0  0  0  0  0  0  0  0  0  0  0
  186.5620  179.1610  141.3620 C   0  0  0  0  0  2  0  0  0  0  0  0
  187.5710  178.1830  140.7920 C   0  0  0  0  0  2  0  0  0  0  0  0
  188.2380  177.4260  141.8910 C   0  0  0  0  0  0  0  0  0  0  0  0
  187.5810  176.9980  142.8260 O   0  0  0  0  0  0  0  0  0  0  0  0
  190.0110  177.1740  141.8600 P   0  0  0  0  0  0  0  0  0  0  0  0
  190.3710  175.5780  142.2900 O   0  0  0  0  0  1  0  0  0  0  0  0
  190.5350  177.4470  140.4690 O   0  0  0  0  0  0  0  0  0  0  0  0
  190.7470  178.2290  142.9580 O   0  0  0  0  0  1  0  0  0  0  0  0
  1 29  1  0  0  0  0
  1  2  2  0  0  0  0
  2 14  1  0  0  0  0
  4  2  1  0  0  0  0
  4  3  2  0  0  0  0
  5  7  1  0  0  0  0
  5  8  1  0  0  0  0
  6  8  2  0  0  0  0
  8  4  1  0  0  0  0
  9  5  2  0  0  0  0
 10  6  1  0  0  0  0
 11  9  1  0  0  0  0
 11 10  2  0  0  0  0
 12  3  1  0  0  0  0
 13 12  1  0  0  0  0
 14 15  2  0  0  0  0
 15 16  1  0  0  0  0
 16 17  1  0  0  0  0
 17 20  1  0  0  0  0
 19 18  2  0  0  0  0
 20 19  1  0  0  0  0
 21 18  1  0  0  0  0
 22 20  1  0  0  0  0
 22 21  2  0  0  0  0
 25 27  1  0  0  0  0
 26 21  1  0  0  0  0
 26 24  1  0  0  0  0
 27 24  1  0  0  0  0
 27 23  2  0  0  0  0
 28 26  2  0  0  0  0
 30 29  1  0  0  0  0
 30 31  1  0  0  0  0
 31 32  2  0  0  0  0
 33 31  1  0  0  0  0
 33 34  1  0  0  0  0
 33 36  1  0  0  0  0
 35 33  2  0  0  0  0
M  END
>  <MODEL>
5

>  <REMARK>
 VINA RESULT:      -7.2      3.255      5.313
  Name = 
  12 active torsions:
  status: ('A' for Active; 'I' for Inactive)
    1  A    between atoms: P_1  and  C_7
    2  A    between atoms: C_2  and  C_5
    3  A    between atoms: C_2  and  C_22
    4  A    between atoms: N_3  and  O_19
    5  A    between atoms: C_4  and  C_30
    6  A    between atoms: C_7  and  C_24
    7  A    between atoms: C_10  and  C_21
    8  A    between atoms: C_10  and  C_30
    9  A    between atoms: C_13  and  C_25
   10  A    between atoms: C_22  and  N_23
   11  A    between atoms: C_24  and  C_26
   12  A    between atoms: C_26  and  C_29
                            x       y       z     vdW  Elec       q    Type
                         _______ _______ _______ _____ _____    ______ ____

>  <TORSDO>
F 12

$$$$
=
 OpenBabel11042411343D

 36 37  0  0  0  0  0  0  0  0999 V2000
  187.3270  177.3810  137.4050 C   0  0  0  0  0  3  0  0  0  0  0  0
  185.9950  177.5150  137.4110 C   0  0  0  0  0  0  0  0  0  0  0  0
  184.3140  177.1990  135.7210 N   0  0  0  0  0  0  0  0  0  0  0  0
  185.1960  176.6490  136.5050 C   0  0  0  0  0  0  0  0  0  0  0  0
  184.5590  174.4040  137.4650 C   0  0  0  0  0  0  0  0  0  0  0  0
  186.2330  174.5340  135.7140 C   0  0  0  0  0  3  0  0  0  0  0  0
  183.6190  175.0030  138.2940 O   0  0  0  0  0  1  0  0  0  0  0  0
  185.3240  175.1740  136.5680 C   0  0  0  0  0  0  0  0  0  0  0  0
  184.7270  173.0170  137.5130 C   0  0  0  0  0  3  0  0  0  0  0  0
  186.3920  173.1480  135.7650 C   0  0  0  0  0  3  0  0  0  0  0  0
  185.6440  172.3890  136.6680 C   0  0  0  0  0  3  0  0  0  0  0  0
  183.4780  176.4580  134.9130 O   0  0  0  0  0  0  0  0  0  0  0  0
  182.0790  176.4740  135.1370 C   0  0  0  0  0  1  0  0  0  0  0  0
  185.3680  178.4730  138.3480 C   0  0  0  0  0  3  0  0  0  0  0  0
  184.6210  178.1140  139.3860 C   0  0  0  0  0  3  0  0  0  0  0  0
  184.0490  179.1460  140.2970 C   0  0  0  0  0  2  0  0  0  0  0  0
  183.1650  178.5150  141.3630 C   0  0  0  0  0  2  0  0  0  0  0  0
  184.1650  178.9480  144.8190 C   0  0  0  0  0  3  0  0  0  0  0  0
  183.2650  179.1120  143.7790 C   0  0  0  0  0  3  0  0  0  0  0  0
  183.8080  178.5820  142.6670 N   0  0  0  0  0  0  0  0  0  0  0  0
  185.2350  178.2910  144.2300 C   0  0  0  0  0  0  0  0  0  0  0  0
  184.9980  178.0770  142.9230 N   0  0  0  0  0  0  0  0  0  0  0  0
  187.7010  178.0620  148.3650 O   0  0  0  0  0  0  0  0  0  0  0  0
  186.5980  178.1150  146.3230 N   0  0  0  0  0  2  0  0  0  0  0  0
  188.9650  177.1790  146.5690 C   0  0  0  0  0  1  0  0  0  0  0  0
  186.4540  177.8580  144.9210 C   0  0  0  0  0  0  0  0  0  0  0  0
  187.7360  177.8000  147.1360 C   0  0  0  0  0  0  0  0  0  0  0  0
  187.3530  177.2520  144.2780 O   0  0  0  0  0  0  0  0  0  0  0  0
  188.2440  178.1770  138.2730 C   0  0  0  0  0  2  0  0  0  0  0  0
  189.0520  177.2350  139.1450 C   0  0  0  0  0  2  0  0  0  0  0  0
  188.9220  177.6180  140.5810 C   0  0  0  0  0  0  0  0  0  0  0  0
  187.9110  178.1770  140.9760 O   0  0  0  0  0  0  0  0  0  0  0  0
  190.2620  177.2900  141.7220 P   0  0  0  0  0  0  0  0  0  0  0  0
  190.1470  175.7050  142.3010 O   0  0  0  0  0  1  0  0  0  0  0  0
  191.5840  177.4700  141.0130 O   0  0  0  0  0  0  0  0  0  0  0  0
  190.1680  178.3680  143.0220 O   0  0  0  0  0  1  0  0  0  0  0  0
  1  2  2  0  0  0  0
  1 29  1  0  0  0  0
  2 14  1  0  0  0  0
  3  4  2  0  0  0  0
  4  8  1  0  0  0  0
  4  2  1  0  0  0  0
  5  9  1  0  0  0  0
  5  7  1  0  0  0  0
  6 10  2  0  0  0  0
  6  8  1  0  0  0  0
  8  5  2  0  0  0  0
 10 11  1  0  0  0  0
 11  9  2  0  0  0  0
 12 13  1  0  0  0  0
 12  3  1  0  0  0  0
 14 15  2  0  0  0  0
 15 16  1  0  0  0  0
 16 17  1  0  0  0  0
 17 20  1  0  0  0  0
 19 18  2  0  0  0  0
 20 22  1  0  0  0  0
 20 19  1  0  0  0  0
 21 18  1  0  0  0  0
 21 26  1  0  0  0  0
 22 21  2  0  0  0  0
 24 27  1  0  0  0  0
 25 27  1  0  0  0  0
 26 24  1  0  0  0  0
 27 23  2  0  0  0  0
 28 26  2  0  0  0  0
 29 30  1  0  0  0  0
 30 31  1  0  0  0  0
 31 32  2  0  0  0  0
 31 33  1  0  0  0  0
 33 34  1  0  0  0  0
 33 36  1  0  0  0  0
 35 33  2  0  0  0  0
M  END
>  <MODEL>
6

>  <REMARK>
 VINA RESULT:      -7.2      2.440      3.710
  Name = 
  12 active torsions:
  status: ('A' for Active; 'I' for Inactive)
    1  A    between atoms: P_1  and  C_7
    2  A    between atoms: C_2  and  C_5
    3  A    between atoms: C_2  and  C_22
    4  A    between atoms: N_3  and  O_19
    5  A    between atoms: C_4  and  C_30
    6  A    between atoms: C_7  and  C_24
    7  A    between atoms: C_10  and  C_21
    8  A    between atoms: C_10  and  C_30
    9  A    between atoms: C_13  and  C_25
   10  A    between atoms: C_22  and  N_23
   11  A    between atoms: C_24  and  C_26
   12  A    between atoms: C_26  and  C_29
                            x       y       z     vdW  Elec       q    Type
                         _______ _______ _______ _____ _____    ______ ____

>  <TORSDO>
F 12

$$$$
=
 OpenBabel11042411343D

 36 37  0  0  0  0  0  0  0  0999 V2000
  187.8130  177.9270  140.1490 C   0  0  0  0  0  3  0  0  0  0  0  0
  189.0900  177.6980  139.8200 C   0  0  0  0  0  0  0  0  0  0  0  0
  190.6410  177.1290  138.0740 N   0  0  0  0  0  0  0  0  0  0  0  0
  189.4040  177.3590  138.4070 C   0  0  0  0  0  0  0  0  0  0  0  0
  187.6980  176.2130  136.9440 C   0  0  0  0  0  0  0  0  0  0  0  0
  187.9780  178.6190  136.8100 C   0  0  0  0  0  3  0  0  0  0  0  0
  188.0060  174.9830  137.5130 O   0  0  0  0  0  1  0  0  0  0  0  0
  188.3440  177.3880  137.3740 C   0  0  0  0  0  0  0  0  0  0  0  0
  186.7190  176.2790  135.9480 C   0  0  0  0  0  3  0  0  0  0  0  0
  186.9970  178.6770  135.8180 C   0  0  0  0  0  3  0  0  0  0  0  0
  186.3710  177.5070  135.3830 C   0  0  0  0  0  3  0  0  0  0  0  0
  191.0240  176.8890  136.7710 O   0  0  0  0  0  0  0  0  0  0  0  0
  191.3860  175.5800  136.3690 C   0  0  0  0  0  1  0  0  0  0  0  0
  190.1400  177.8400  140.8530 C   0  0  0  0  0  3  0  0  0  0  0  0
  190.5780  176.8390  141.6080 C   0  0  0  0  0  3  0  0  0  0  0  0
  191.6610  177.0650  142.6070 C   0  0  0  0  0  2  0  0  0  0  0  0
  191.6830  175.9650  143.6590 C   0  0  0  0  0  2  0  0  0  0  0  0
  190.5450  176.9930  146.9420 C   0  0  0  0  0  3  0  0  0  0  0  0
  191.5270  176.5370  146.0780 C   0  0  0  0  0  3  0  0  0  0  0  0
  190.9760  176.3880  144.8590 N   0  0  0  0  0  0  0  0  0  0  0  0
  189.4200  177.0990  146.1380 C   0  0  0  0  0  0  0  0  0  0  0  0
  189.7020  176.7280  144.8760 N   0  0  0  0  0  0  0  0  0  0  0  0
  185.1350  178.9250  144.8950 O   0  0  0  0  0  0  0  0  0  0  0  0
  187.1640  178.0440  145.6020 N   0  0  0  0  0  2  0  0  0  0  0  0
  185.3340  178.7410  147.2470 C   0  0  0  0  0  1  0  0  0  0  0  0
  188.1020  177.5710  146.5750 C   0  0  0  0  0  0  0  0  0  0  0  0
  185.8590  178.5770  145.8630 C   0  0  0  0  0  0  0  0  0  0  0  0
  187.8050  177.5410  147.8000 O   0  0  0  0  0  0  0  0  0  0  0  0
  187.3620  178.2880  141.5250 C   0  0  0  0  0  2  0  0  0  0  0  0
  186.2480  179.3130  141.4340 C   0  0  0  0  0  2  0  0  0  0  0  0
  184.9360  178.6360  141.2160 C   0  0  0  0  0  0  0  0  0  0  0  0
  184.4940  177.8730  142.0590 O   0  0  0  0  0  0  0  0  0  0  0  0
  184.0250  178.9140  139.7000 P   0  0  0  0  0  0  0  0  0  0  0  0
  184.4430  177.7390  138.5560 O   0  0  0  0  0  0  0  0  0  0  0  0
  182.5420  178.8340  139.9800 O   0  0  0  0  0  1  0  0  0  0  0  0
  184.4030  180.4460  139.0910 O   0  0  0  0  0  1  0  0  0  0  0  0
  1 29  1  0  0  0  0
  2  1  2  0  0  0  0
  2 14  1  0  0  0  0
  3  4  2  0  0  0  0
  4  2  1  0  0  0  0
  5  8  1  0  0  0  0
  5  7  1  0  0  0  0
  6  8  2  0  0  0  0
  8  4  1  0  0  0  0
  9  5  2  0  0  0  0
 10  6  1  0  0  0  0
 11 10  2  0  0  0  0
 11  9  1  0  0  0  0
 12  3  1  0  0  0  0
 13 12  1  0  0  0  0
 14 15  2  0  0  0  0
 15 16  1  0  0  0  0
 16 17  1  0  0  0  0
 17 20  1  0  0  0  0
 19 18  2  0  0  0  0
 20 22  1  0  0  0  0
 20 19  1  0  0  0  0
 21 26  1  0  0  0  0
 21 18  1  0  0  0  0
 22 21  2  0  0  0  0
 23 27  2  0  0  0  0
 24 27  1  0  0  0  0
 24 26  1  0  0  0  0
 26 28  2  0  0  0  0
 27 25  1  0  0  0  0
 30 29  1  0  0  0  0
 31 30  1  0  0  0  0
 31 32  2  0  0  0  0
 33 35  1  0  0  0  0
 33 31  1  0  0  0  0
 34 33  2  0  0  0  0
 36 33  1  0  0  0  0
M  END
>  <MODEL>
7

>  <REMARK>
 VINA RESULT:      -7.1      2.706      5.239
  Name = 
  12 active torsions:
  status: ('A' for Active; 'I' for Inactive)
    1  A    between atoms: P_1  and  C_7
    2  A    between atoms: C_2  and  C_5
    3  A    between atoms: C_2  and  C_22
    4  A    between atoms: N_3  and  O_19
    5  A    between atoms: C_4  and  C_30
    6  A    between atoms: C_7  and  C_24
    7  A    between atoms: C_10  and  C_21
    8  A    between atoms: C_10  and  C_30
    9  A    between atoms: C_13  and  C_25
   10  A    between atoms: C_22  and  N_23
   11  A    between atoms: C_24  and  C_26
   12  A    between atoms: C_26  and  C_29
                            x       y       z     vdW  Elec       q    Type
                         _______ _______ _______ _____ _____    ______ ____

>  <TORSDO>
F 12

$$$$
=
 OpenBabel11042411343D

 36 37  0  0  0  0  0  0  0  0999 V2000
  189.5140  177.2760  139.9320 C   0  0  0  0  0  3  0  0  0  0  0  0
  188.4720  177.7790  139.2600 C   0  0  0  0  0  0  0  0  0  0  0  0
  187.4610  178.0730  137.0980 N   0  0  0  0  0  0  0  0  0  0  0  0
  188.3180  177.4170  137.8260 C   0  0  0  0  0  0  0  0  0  0  0  0
  188.4600  174.9810  137.1840 C   0  0  0  0  0  0  0  0  0  0  0  0
  190.3570  176.4420  136.7940 C   0  0  0  0  0  3  0  0  0  0  0  0
  187.1500  174.7750  137.5970 O   0  0  0  0  0  1  0  0  0  0  0  0
  189.0480  176.2590  137.2610 C   0  0  0  0  0  0  0  0  0  0  0  0
  189.1910  173.9070  136.6670 C   0  0  0  0  0  3  0  0  0  0  0  0
  191.0780  175.3650  136.2760 C   0  0  0  0  0  3  0  0  0  0  0  0
  190.4980  174.0970  136.2170 C   0  0  0  0  0  3  0  0  0  0  0  0
  187.2020  177.7450  135.7840 O   0  0  0  0  0  0  0  0  0  0  0  0
  185.8960  177.3560  135.3960 C   0  0  0  0  0  1  0  0  0  0  0  0
  187.4900  178.6250  139.9730 C   0  0  0  0  0  3  0  0  0  0  0  0
  186.3100  178.1910  140.4020 C   0  0  0  0  0  3  0  0  0  0  0  0
  185.3910  179.1050  141.1370 C   0  0  0  0  0  2  0  0  0  0  0  0
  184.2450  178.3390  141.7820 C   0  0  0  0  0  2  0  0  0  0  0  0
  183.6320  178.7160  145.3340 C   0  0  0  0  0  3  0  0  0  0  0  0
  183.1970  178.6410  144.0210 C   0  0  0  0  0  3  0  0  0  0  0  0
  184.2750  178.4950  143.2290 N   0  0  0  0  0  0  0  0  0  0  0  0
  185.0100  178.5950  145.2320 C   0  0  0  0  0  0  0  0  0  0  0  0
  185.3810  178.4610  143.9460 N   0  0  0  0  0  0  0  0  0  0  0  0
  188.8000  176.5020  147.3530 O   0  0  0  0  0  0  0  0  0  0  0  0
  186.9750  177.5870  146.4150 N   0  0  0  0  0  2  0  0  0  0  0  0
  187.9500  178.2700  148.6790 C   0  0  0  0  0  1  0  0  0  0  0  0
  185.9490  178.5870  146.3580 C   0  0  0  0  0  0  0  0  0  0  0  0
  187.9390  177.4120  147.4600 C   0  0  0  0  0  0  0  0  0  0  0  0
  185.8550  179.4680  147.2550 O   0  0  0  0  0  0  0  0  0  0  0  0
  189.7790  177.5480  141.3760 C   0  0  0  0  0  2  0  0  0  0  0  0
  191.1390  176.9910  141.7490 C   0  0  0  0  0  2  0  0  0  0  0  0
  191.1500  176.5650  143.1790 C   0  0  0  0  0  0  0  0  0  0  0  0
  191.1490  175.3790  143.4650 O   0  0  0  0  0  0  0  0  0  0  0  0
  191.1290  177.7940  144.4810 P   0  0  0  0  0  0  0  0  0  0  0  0
  192.0460  179.1370  144.0160 O   0  0  0  0  0  0  0  0  0  0  0  0
  189.7050  178.2270  144.7440 O   0  0  0  0  0  1  0  0  0  0  0  0
  191.7870  177.1300  145.8910 O   0  0  0  0  0  1  0  0  0  0  0  0
  1 29  1  0  0  0  0
  2  1  2  0  0  0  0
  2 14  1  0  0  0  0
  3  4  2  0  0  0  0
  4  2  1  0  0  0  0
  5  8  1  0  0  0  0
  5  7  1  0  0  0  0
  6  8  2  0  0  0  0
  8  4  1  0  0  0  0
  9  5  2  0  0  0  0
 10  6  1  0  0  0  0
 11 10  2  0  0  0  0
 11  9  1  0  0  0  0
 12  3  1  0  0  0  0
 13 12  1  0  0  0  0
 14 15  2  0  0  0  0
 15 16  1  0  0  0  0
 16 17  1  0  0  0  0
 17 20  1  0  0  0  0
 19 18  2  0  0  0  0
 20 22  1  0  0  0  0
 20 19  1  0  0  0  0
 21 18  1  0  0  0  0
 21 26  1  0  0  0  0
 22 21  2  0  0  0  0
 23 27  2  0  0  0  0
 24 27  1  0  0  0  0
 26 24  1  0  0  0  0
 26 28  2  0  0  0  0
 27 25  1  0  0  0  0
 29 30  1  0  0  0  0
 30 31  1  0  0  0  0
 31 32  2  0  0  0  0
 31 33  1  0  0  0  0
 33 35  1  0  0  0  0
 33 36  1  0  0  0  0
 34 33  2  0  0  0  0
M  END
>  <MODEL>
8

>  <REMARK>
 VINA RESULT:      -7.1      1.170      2.196
  Name = 
  12 active torsions:
  status: ('A' for Active; 'I' for Inactive)
    1  A    between atoms: P_1  and  C_7
    2  A    between atoms: C_2  and  C_5
    3  A    between atoms: C_2  and  C_22
    4  A    between atoms: N_3  and  O_19
    5  A    between atoms: C_4  and  C_30
    6  A    between atoms: C_7  and  C_24
    7  A    between atoms: C_10  and  C_21
    8  A    between atoms: C_10  and  C_30
    9  A    between atoms: C_13  and  C_25
   10  A    between atoms: C_22  and  N_23
   11  A    between atoms: C_24  and  C_26
   12  A    between atoms: C_26  and  C_29
                            x       y       z     vdW  Elec       q    Type
                         _______ _______ _______ _____ _____    ______ ____

>  <TORSDO>
F 12

$$$$
=
 OpenBabel11042411343D

 36 37  0  0  0  0  0  0  0  0999 V2000
  189.5180  177.8460  140.1650 C   0  0  0  0  0  3  0  0  0  0  0  0
  188.7750  177.8310  141.2780 C   0  0  0  0  0  0  0  0  0  0  0  0
  190.0580  176.0270  142.2160 N   0  0  0  0  0  0  0  0  0  0  0  0
  189.2520  177.0250  142.4330 C   0  0  0  0  0  0  0  0  0  0  0  0
  189.4620  178.0510  144.7290 C   0  0  0  0  0  0  0  0  0  0  0  0
  187.4900  176.7540  144.1650 C   0  0  0  0  0  3  0  0  0  0  0  0
  190.6760  178.6290  144.3820 O   0  0  0  0  0  1  0  0  0  0  0  0
  188.7340  177.2860  143.7960 C   0  0  0  0  0  0  0  0  0  0  0  0
  188.9510  178.2550  146.0150 C   0  0  0  0  0  3  0  0  0  0  0  0
  186.9860  176.9650  145.4490 C   0  0  0  0  0  3  0  0  0  0  0  0
  187.7170  177.7100  146.3760 C   0  0  0  0  0  3  0  0  0  0  0  0
  190.4800  175.1840  143.2220 O   0  0  0  0  0  0  0  0  0  0  0  0
  191.7120  175.4240  143.8780 C   0  0  0  0  0  1  0  0  0  0  0  0
  187.5440  178.6500  141.3390 C   0  0  0  0  0  3  0  0  0  0  0  0
  186.3300  178.1870  141.0640 C   0  0  0  0  0  3  0  0  0  0  0  0
  185.1390  179.0760  141.1760 C   0  0  0  0  0  2  0  0  0  0  0  0
  183.8860  178.2830  141.5170 C   0  0  0  0  0  2  0  0  0  0  0  0
  180.6680  179.3680  140.2520 C   0  0  0  0  0  3  0  0  0  0  0  0
  181.4560  178.7260  141.1930 C   0  0  0  0  0  3  0  0  0  0  0  0
  182.7380  178.8020  140.7880 N   0  0  0  0  0  0  0  0  0  0  0  0
  181.5790  179.8130  139.3060 C   0  0  0  0  0  0  0  0  0  0  0  0
  182.8300  179.4590  139.6490 N   0  0  0  0  0  0  0  0  0  0  0  0
  180.8360  184.1470  137.3280 O   0  0  0  0  0  0  0  0  0  0  0  0
  181.1770  182.0130  138.1780 N   0  0  0  0  0  2  0  0  0  0  0  0
  180.4400  182.4150  135.7620 C   0  0  0  0  0  1  0  0  0  0  0  0
  181.2490  180.5840  138.1020 C   0  0  0  0  0  0  0  0  0  0  0  0
  180.8260  182.9070  137.1150 C   0  0  0  0  0  0  0  0  0  0  0  0
  181.0470  179.9820  137.0120 O   0  0  0  0  0  0  0  0  0  0  0  0
  189.1620  178.6210  138.9410 C   0  0  0  0  0  2  0  0  0  0  0  0
  188.7030  177.6630  137.8580 C   0  0  0  0  0  2  0  0  0  0  0  0
  187.4890  178.1970  137.1740 C   0  0  0  0  0  0  0  0  0  0  0  0
  187.4320  179.3750  136.8600 O   0  0  0  0  0  0  0  0  0  0  0  0
  186.0980  177.1190  136.8440 P   0  0  0  0  0  0  0  0  0  0  0  0
  184.8170  177.5020  137.8790 O   0  0  0  0  0  1  0  0  0  0  0  0
  185.6520  177.2940  135.4100 O   0  0  0  0  0  0  0  0  0  0  0  0
  186.5610  175.5120  137.0980 O   0  0  0  0  0  1  0  0  0  0  0  0
  1  2  2  0  0  0  0
  2 14  1  0  0  0  0
  2  4  1  0  0  0  0
  3  4  2  0  0  0  0
  3 12  1  0  0  0  0
  4  8  1  0  0  0  0
  5  9  1  0  0  0  0
  6 10  2  0  0  0  0
  7  5  1  0  0  0  0
  8  6  1  0  0  0  0
  8  5  2  0  0  0  0
  9 11  2  0  0  0  0
 10 11  1  0  0  0  0
 12 13  1  0  0  0  0
 15 16  1  0  0  0  0
 15 14  2  0  0  0  0
 16 17  1  0  0  0  0
 18 19  2  0  0  0  0
 20 19  1  0  0  0  0
 20 17  1  0  0  0  0
 21 22  2  0  0  0  0
 21 18  1  0  0  0  0
 22 20  1  0  0  0  0
 25 27  1  0  0  0  0
 26 24  1  0  0  0  0
 26 21  1  0  0  0  0
 27 23  2  0  0  0  0
 27 24  1  0  0  0  0
 28 26  2  0  0  0  0
 29  1  1  0  0  0  0
 30 29  1  0  0  0  0
 31 30  1  0  0  0  0
 32 31  2  0  0  0  0
 33 36  1  0  0  0  0
 33 31  1  0  0  0  0
 33 34  1  0  0  0  0
 35 33  2  0  0  0  0
M  END
>  <MODEL>
9

>  <REMARK>
 VINA RESULT:      -7.0      3.915      8.236
  Name = 
  12 active torsions:
  status: ('A' for Active; 'I' for Inactive)
    1  A    between atoms: P_1  and  C_7
    2  A    between atoms: C_2  and  C_5
    3  A    between atoms: C_2  and  C_22
    4  A    between atoms: N_3  and  O_19
    5  A    between atoms: C_4  and  C_30
    6  A    between atoms: C_7  and  C_24
    7  A    between atoms: C_10  and  C_21
    8  A    between atoms: C_10  and  C_30
    9  A    between atoms: C_13  and  C_25
   10  A    between atoms: C_22  and  N_23
   11  A    between atoms: C_24  and  C_26
   12  A    between atoms: C_26  and  C_29
                            x       y       z     vdW  Elec       q    Type
                         _______ _______ _______ _____ _____    ______ ____

>  <TORSDO>
F 12

$$$$
