=
 OpenBabel11042412383D

 43 45  0  0  1  0  0  0  0  0999 V2000
  189.3420  177.8660  140.5520 N   0  0  0  0  0  0  0  0  0  0  0  0
  188.8950  179.2010  138.7030 O   0  0  0  0  0  0  0  0  0  0  0  0
  189.4310  178.1590  139.1490 C   0  0  0  0  0  0  0  0  0  0  0  0
  190.6460  175.6970  143.1810 C   0  0  0  0  0  2  0  0  0  0  0  0
  189.5430  176.0650  142.2110 C   0  0  0  0  0  2  0  0  0  0  0  0
  190.2530  176.8990  141.1790 C   0  0  2  0  0  3  0  0  0  0  0  0
  191.6500  176.7620  143.1550 N   0  0  0  0  0  0  0  0  0  0  0  0
  191.4000  177.5410  141.9400 C   0  0  0  0  0  2  0  0  0  0  0  0
  191.3810  177.6420  144.2850 C   0  0  0  0  0  2  0  0  0  0  0  0
  191.4550  176.8810  145.5930 C   0  0  0  0  0  2  0  0  0  0  0  0
  190.1240  176.9460  146.3210 C   0  0  1  0  0  3  0  0  0  0  0  0
  190.3360  177.3160  147.7080 N   0  0  0  0  0  1  0  0  0  0  0  0
  189.2420  177.9740  145.6520 C   0  0  0  0  0  1  0  0  0  0  0  0
  188.4030  178.6510  141.3650 C   0  0  0  0  0  2  0  0  0  0  0  0
  186.9660  178.2730  141.0300 C   0  0  0  0  0  2  0  0  0  0  0  0
  186.0220  179.0700  141.8900 C   0  0  0  0  0  2  0  0  0  0  0  0
  185.2880  178.1790  142.7800 N   0  0  0  0  0  0  0  0  0  0  0  0
  185.8890  178.2000  144.1200 C   0  0  0  0  0  2  0  0  0  0  0  0
  185.1150  179.0600  145.1220 C   0  0  0  0  0  2  0  0  0  0  0  0
  185.1390  178.4020  146.4850 C   0  0  0  0  0  1  0  0  0  0  0  0
  183.9060  178.6510  142.8530 C   0  0  0  0  0  2  0  0  0  0  0  0
  183.2420  178.4490  141.5640 C   0  0  0  0  0  0  0  0  0  0  0  0
  182.6900  178.2700  140.5070 C   0  0  0  0  0  0  0  0  0  0  0  0
  182.0440  178.0640  139.2840 N   0  0  0  0  0  2  0  0  0  0  0  0
  182.2580  178.9760  138.1640 C   0  0  1  0  0  3  0  0  0  0  0  0
  181.0770  179.1030  137.3840 O   0  0  0  0  0  0  0  0  0  0  0  0
  184.1170  180.3860  139.0850 O   0  0  0  0  0  1  0  0  0  0  0  0
  180.1450  179.8980  138.0880 C   0  0  0  0  0  2  0  0  0  0  0  0
  179.8020  182.0990  138.9540 O   0  0  0  0  0  1  0  0  0  0  0  0
  182.8100  180.3050  138.6320 C   0  0  0  0  0  0  0  0  0  0  0  0
  182.0380  181.3910  138.6550 C   0  0  0  0  0  3  0  0  0  0  0  0
  180.6360  181.3430  138.1320 C   0  0  1  0  0  3  0  0  0  0  0  0
  190.0600  177.2160  138.1660 C   0  0  0  0  0  2  0  0  0  0  0  0
  189.1220  176.7450  137.0520 C   0  0  0  0  0  2  0  0  0  0  0  0
  185.4670  177.5870  137.7910 O   0  0  0  0  0  0  0  0  0  0  0  0
  186.8060  174.8300  135.8980 C   0  0  2  0  0  3  0  0  0  0  0  0
  187.7760  176.3140  137.4820 N   0  0  0  0  0  0  0  0  0  0  0  0
  188.6420  174.2250  137.1470 F   0  0  0  0  0  0  0  0  0  0  0  0
  185.8810  176.0130  135.6680 C   0  0  0  0  0  2  0  0  0  0  0  0
  185.9890  173.5490  135.8810 C   0  0  0  0  0  1  0  0  0  0  0  0
  186.5020  177.2220  136.7610 S   0  0  0  0  0  0  0  0  0  0  0  0
  187.5000  174.9540  137.1930 N   0  0  0  0  0  0  0  0  0  0  0  0
  186.9930  178.4490  136.0520 O   0  0  0  0  0  0  0  0  0  0  0  0
  1 14  1  0  0  0  0
  2  3  2  0  0  0  0
  3  1  1  0  0  0  0
  5  4  1  0  0  0  0
  6  1  1  1  0  0  0
  6  8  1  0  0  0  0
  6  5  1  0  0  0  0
  7  4  1  0  0  0  0
  7  9  1  0  0  0  0
  8  7  1  0  0  0  0
  9 10  1  0  0  0  0
 10 11  1  0  0  0  0
 11 13  1  6  0  0  0
 11 12  1  0  0  0  0
 15 14  1  0  0  0  0
 15 16  1  0  0  0  0
 16 17  1  0  0  0  0
 17 21  1  0  0  0  0
 17 18  1  0  0  0  0
 18 19  1  0  0  0  0
 19 20  1  0  0  0  0
 22 21  1  0  0  0  0
 23 22  3  0  0  0  0
 24 23  1  0  0  0  0
 25 30  1  0  0  0  0
 25 24  1  1  0  0  0
 26 28  1  0  0  0  0
 26 25  1  0  0  0  0
 28 32  1  0  0  0  0
 30 31  2  0  0  0  0
 30 27  1  0  0  0  0
 32 31  1  0  0  0  0
 32 29  1  1  0  0  0
 33  3  1  0  0  0  0
 34 37  1  0  0  0  0
 34 33  1  0  0  0  0
 36 40  1  1  0  0  0
 36 42  1  0  0  0  0
 38 42  1  0  0  0  0
 39 36  1  0  0  0  0
 39 41  1  0  0  0  0
 41 37  1  0  0  0  0
 41 35  2  0  0  0  0
 42 37  1  0  0  0  0
 43 41  2  0  0  0  0
M  END
>  <MODEL>
1

>  <REMARK>
 VINA RESULT:      -7.3      0.000      0.000
  Name = 
  17 active torsions:
  status: ('A' for Active; 'I' for Inactive)
    1  A    between atoms: C_1  and  C_10
    2  A    between atoms: C_2  and  C_24
    3  A    between atoms: C_2  and  C_32
    4  A    between atoms: C_3  and  N_40
    5  A    between atoms: C_5  and  C_26
    6  A    between atoms: C_5  and  N_30
    7  A    between atoms: C_6  and  C_36
    8  A    between atoms: C_6  and  N_38
    9  A    between atoms: C_7  and  N_8
   10  A    between atoms: C_7  and  C_26
   11  A    between atoms: N_8  and  C_27
   12  A    between atoms: C_10  and  N_30
   13  A    between atoms: C_14  and  C_36
   14  A    between atoms: C_15  and  N_40
   15  A    between atoms: C_19  and  C_22
   16  A    between atoms: N_21  and  C_24
   17  A    between atoms: C_22  and  N_30
                            x       y       z     vdW  Elec       q    Type
                         _______ _______ _______ _____ _____    ______ ____

>  <TORSDO>
F 17

$$$$
=
 OpenBabel11042412383D

 43 45  0  0  1  0  0  0  0  0999 V2000
  189.0140  177.6730  140.9520 N   0  0  0  0  0  0  0  0  0  0  0  0
  187.8810  178.5670  139.1300 O   0  0  0  0  0  0  0  0  0  0  0  0
  188.6470  177.6740  139.5640 C   0  0  0  0  0  0  0  0  0  0  0  0
  191.0580  175.7770  143.3060 C   0  0  0  0  0  2  0  0  0  0  0  0
  189.7940  175.9190  142.4860 C   0  0  0  0  0  2  0  0  0  0  0  0
  190.1790  176.9130  141.4230 C   0  0  2  0  0  3  0  0  0  0  0  0
  191.8010  177.0350  143.2200 N   0  0  0  0  0  0  0  0  0  0  0  0
  191.2460  177.7700  142.0810 C   0  0  0  0  0  2  0  0  0  0  0  0
  191.4890  177.8080  144.4150 C   0  0  0  0  0  2  0  0  0  0  0  0
  191.4980  176.9250  145.6470 C   0  0  0  0  0  2  0  0  0  0  0  0
  190.1400  176.9520  146.3290 C   0  0  1  0  0  3  0  0  0  0  0  0
  190.3000  177.2680  147.7360 N   0  0  0  0  0  1  0  0  0  0  0  0
  189.2750  178.0000  145.6690 C   0  0  0  0  0  1  0  0  0  0  0  0
  188.2710  178.5540  141.8650 C   0  0  0  0  0  2  0  0  0  0  0  0
  187.1450  177.7860  142.5430 C   0  0  0  0  0  2  0  0  0  0  0  0
  185.8840  178.6070  142.5110 C   0  0  0  0  0  2  0  0  0  0  0  0
  184.9680  178.1560  143.5510 N   0  0  0  0  0  0  0  0  0  0  0  0
  185.6830  178.0210  144.8270 C   0  0  0  0  0  2  0  0  0  0  0  0
  185.0180  178.7780  145.9800 C   0  0  0  0  0  2  0  0  0  0  0  0
  185.9560  178.8210  147.1690 C   0  0  0  0  0  1  0  0  0  0  0  0
  183.9070  179.1520  143.6840 C   0  0  0  0  0  2  0  0  0  0  0  0
  182.8400  178.8760  142.7190 C   0  0  0  0  0  0  0  0  0  0  0  0
  181.9630  178.6350  141.9280 C   0  0  0  0  0  0  0  0  0  0  0  0
  180.9400  178.3540  141.0160 N   0  0  0  0  0  2  0  0  0  0  0  0
  181.2450  178.0790  139.6140 C   0  0  1  0  0  3  0  0  0  0  0  0
  181.2300  179.2780  138.8510 O   0  0  0  0  0  0  0  0  0  0  0  0
  182.5750  175.9650  139.8520 O   0  0  0  0  0  1  0  0  0  0  0  0
  182.3920  180.0240  139.1450 C   0  0  0  0  0  2  0  0  0  0  0  0
  184.7770  179.9610  138.9880 O   0  0  0  0  0  1  0  0  0  0  0  0
  182.5330  177.2970  139.4730 C   0  0  0  0  0  0  0  0  0  0  0  0
  183.6410  177.8890  139.0270 C   0  0  0  0  0  3  0  0  0  0  0  0
  183.6160  179.3130  138.5700 C   0  0  1  0  0  3  0  0  0  0  0  0
  189.0640  176.5860  138.6190 C   0  0  0  0  0  2  0  0  0  0  0  0
  190.4370  176.7990  137.9770 C   0  0  0  0  0  2  0  0  0  0  0  0
  190.8180  173.3030  136.4750 O   0  0  0  0  0  0  0  0  0  0  0  0
  193.1610  176.0400  136.4370 C   0  0  2  0  0  3  0  0  0  0  0  0
  191.2470  175.5800  137.7710 N   0  0  0  0  0  0  0  0  0  0  0  0
  192.9360  176.9060  138.5570 F   0  0  0  0  0  0  0  0  0  0  0  0
  192.4070  175.1860  135.4310 C   0  0  0  0  0  2  0  0  0  0  0  0
  194.6360  175.6790  136.3880 C   0  0  0  0  0  1  0  0  0  0  0  0
  190.9310  174.7900  136.2730 S   0  0  0  0  0  0  0  0  0  0  0  0
  192.6450  175.8200  137.8000 N   0  0  0  0  0  0  0  0  0  0  0  0
  189.7090  175.3220  135.5840 O   0  0  0  0  0  0  0  0  0  0  0  0
  1 14  1  0  0  0  0
  2  3  2  0  0  0  0
  3  1  1  0  0  0  0
  5  4  1  0  0  0  0
  6  1  1  1  0  0  0
  6  8  1  0  0  0  0
  6  5  1  0  0  0  0
  7  4  1  0  0  0  0
  7  9  1  0  0  0  0
  8  7  1  0  0  0  0
  9 10  1  0  0  0  0
 10 11  1  0  0  0  0
 11 13  1  6  0  0  0
 11 12  1  0  0  0  0
 14 15  1  0  0  0  0
 16 15  1  0  0  0  0
 16 17  1  0  0  0  0
 17 21  1  0  0  0  0
 17 18  1  0  0  0  0
 18 19  1  0  0  0  0
 19 20  1  0  0  0  0
 22 21  1  0  0  0  0
 23 22  3  0  0  0  0
 24 23  1  0  0  0  0
 25 24  1  1  0  0  0
 26 28  1  0  0  0  0
 26 25  1  0  0  0  0
 30 25  1  0  0  0  0
 30 27  1  0  0  0  0
 31 30  2  0  0  0  0
 32 29  1  1  0  0  0
 32 31  1  0  0  0  0
 32 28  1  0  0  0  0
 33  3  1  0  0  0  0
 34 33  1  0  0  0  0
 36 40  1  1  0  0  0
 36 42  1  0  0  0  0
 37 42  1  0  0  0  0
 37 34  1  0  0  0  0
 39 41  1  0  0  0  0
 39 36  1  0  0  0  0
 41 35  2  0  0  0  0
 41 37  1  0  0  0  0
 42 38  1  0  0  0  0
 43 41  2  0  0  0  0
M  END
>  <MODEL>
2

>  <REMARK>
 VINA RESULT:      -7.1      2.423      3.239
  Name = 
  17 active torsions:
  status: ('A' for Active; 'I' for Inactive)
    1  A    between atoms: C_1  and  C_10
    2  A    between atoms: C_2  and  C_24
    3  A    between atoms: C_2  and  C_32
    4  A    between atoms: C_3  and  N_40
    5  A    between atoms: C_5  and  C_26
    6  A    between atoms: C_5  and  N_30
    7  A    between atoms: C_6  and  C_36
    8  A    between atoms: C_6  and  N_38
    9  A    between atoms: C_7  and  N_8
   10  A    between atoms: C_7  and  C_26
   11  A    between atoms: N_8  and  C_27
   12  A    between atoms: C_10  and  N_30
   13  A    between atoms: C_14  and  C_36
   14  A    between atoms: C_15  and  N_40
   15  A    between atoms: C_19  and  C_22
   16  A    between atoms: N_21  and  C_24
   17  A    between atoms: C_22  and  N_30
                            x       y       z     vdW  Elec       q    Type
                         _______ _______ _______ _____ _____    ______ ____

>  <TORSDO>
F 17

$$$$
=
 OpenBabel11042412383D

 43 45  0  0  1  0  0  0  0  0999 V2000
  189.3810  177.9120  140.6870 N   0  0  0  0  0  0  0  0  0  0  0  0
  188.9630  179.1800  138.7850 O   0  0  0  0  0  0  0  0  0  0  0  0
  189.4990  178.1600  139.2780 C   0  0  0  0  0  0  0  0  0  0  0  0
  190.5560  175.7110  143.3500 C   0  0  0  0  0  2  0  0  0  0  0  0
  189.5340  176.0540  142.2870 C   0  0  0  0  0  2  0  0  0  0  0  0
  190.2870  176.9760  141.3660 C   0  0  2  0  0  3  0  0  0  0  0  0
  191.4850  176.8360  143.4680 N   0  0  0  0  0  0  0  0  0  0  0  0
  191.3070  177.6530  142.2660 C   0  0  0  0  0  2  0  0  0  0  0  0
  191.0460  177.6460  144.5990 C   0  0  0  0  0  2  0  0  0  0  0  0
  191.2290  176.8970  145.9030 C   0  0  0  0  0  2  0  0  0  0  0  0
  189.9480  176.9320  146.7190 C   0  0  1  0  0  3  0  0  0  0  0  0
  190.1760  177.6370  147.9670 N   0  0  0  0  0  1  0  0  0  0  0  0
  188.8740  177.6400  145.9270 C   0  0  0  0  0  1  0  0  0  0  0  0
  188.4170  178.7150  141.4520 C   0  0  0  0  0  2  0  0  0  0  0  0
  186.9940  178.2570  141.1590 C   0  0  0  0  0  2  0  0  0  0  0  0
  186.0270  179.0570  141.9890 C   0  0  0  0  0  2  0  0  0  0  0  0
  185.1950  178.1630  142.7850 N   0  0  0  0  0  0  0  0  0  0  0  0
  185.7510  178.0300  144.1370 C   0  0  0  0  0  2  0  0  0  0  0  0
  185.2120  179.0700  145.1230 C   0  0  0  0  0  2  0  0  0  0  0  0
  184.9990  178.4270  146.4770 C   0  0  0  0  0  1  0  0  0  0  0  0
  183.8530  178.7380  142.8580 C   0  0  0  0  0  2  0  0  0  0  0  0
  183.1450  178.5140  141.5970 C   0  0  0  0  0  0  0  0  0  0  0  0
  182.5700  178.3190  140.5550 C   0  0  0  0  0  0  0  0  0  0  0  0
  181.9000  178.0870  139.3490 N   0  0  0  0  0  2  0  0  0  0  0  0
  182.2650  176.9590  138.4970 C   0  0  1  0  0  3  0  0  0  0  0  0
  182.2810  175.7490  139.2430 O   0  0  0  0  0  0  0  0  0  0  0  0
  181.5380  177.8330  136.2610 O   0  0  0  0  0  1  0  0  0  0  0  0
  180.9500  175.3540  139.5050 C   0  0  0  0  0  2  0  0  0  0  0  0
  178.9320  174.6580  138.4290 O   0  0  0  0  0  1  0  0  0  0  0  0
  181.3880  176.8900  137.2660 C   0  0  0  0  0  0  0  0  0  0  0  0
  180.4420  175.9580  137.1570 C   0  0  0  0  0  3  0  0  0  0  0  0
  180.2860  174.9020  138.2060 C   0  0  1  0  0  3  0  0  0  0  0  0
  190.1580  177.1910  138.3410 C   0  0  0  0  0  2  0  0  0  0  0  0
  189.2830  176.7510  137.1660 C   0  0  0  0  0  2  0  0  0  0  0  0
  185.6180  177.6890  137.7180 O   0  0  0  0  0  0  0  0  0  0  0  0
  186.9810  174.9430  135.8260 C   0  0  2  0  0  3  0  0  0  0  0  0
  187.9010  176.3520  137.5060 N   0  0  0  0  0  0  0  0  0  0  0  0
  188.7210  174.2460  137.1610 F   0  0  0  0  0  0  0  0  0  0  0  0
  186.1060  176.1610  135.5780 C   0  0  0  0  0  2  0  0  0  0  0  0
  186.1270  173.6900  135.7260 C   0  0  0  0  0  1  0  0  0  0  0  0
  186.6990  177.3190  136.7390 S   0  0  0  0  0  0  0  0  0  0  0  0
  187.6010  175.0090  137.1620 N   0  0  0  0  0  0  0  0  0  0  0  0
  187.2680  178.5490  136.0950 O   0  0  0  0  0  0  0  0  0  0  0  0
  1 14  1  0  0  0  0
  2  3  2  0  0  0  0
  3  1  1  0  0  0  0
  4  7  1  0  0  0  0
  5  4  1  0  0  0  0
  6  1  1  1  0  0  0
  6  8  1  0  0  0  0
  6  5  1  0  0  0  0
  7  9  1  0  0  0  0
  8  7  1  0  0  0  0
  9 10  1  0  0  0  0
 10 11  1  0  0  0  0
 11 13  1  6  0  0  0
 11 12  1  0  0  0  0
 15 14  1  0  0  0  0
 15 16  1  0  0  0  0
 16 17  1  0  0  0  0
 17 21  1  0  0  0  0
 17 18  1  0  0  0  0
 18 19  1  0  0  0  0
 19 20  1  0  0  0  0
 22 21  1  0  0  0  0
 23 22  3  0  0  0  0
 24 23  1  0  0  0  0
 25 26  1  0  0  0  0
 25 24  1  1  0  0  0
 26 28  1  0  0  0  0
 27 30  1  0  0  0  0
 30 25  1  0  0  0  0
 31 30  2  0  0  0  0
 31 32  1  0  0  0  0
 32 29  1  1  0  0  0
 32 28  1  0  0  0  0
 33  3  1  0  0  0  0
 34 37  1  0  0  0  0
 34 33  1  0  0  0  0
 36 40  1  1  0  0  0
 36 42  1  0  0  0  0
 38 42  1  0  0  0  0
 39 36  1  0  0  0  0
 39 41  1  0  0  0  0
 41 37  1  0  0  0  0
 41 35  2  0  0  0  0
 42 37  1  0  0  0  0
 43 41  2  0  0  0  0
M  END
>  <MODEL>
3

>  <REMARK>
 VINA RESULT:      -6.9      1.547      2.235
  Name = 
  17 active torsions:
  status: ('A' for Active; 'I' for Inactive)
    1  A    between atoms: C_1  and  C_10
    2  A    between atoms: C_2  and  C_24
    3  A    between atoms: C_2  and  C_32
    4  A    between atoms: C_3  and  N_40
    5  A    between atoms: C_5  and  C_26
    6  A    between atoms: C_5  and  N_30
    7  A    between atoms: C_6  and  C_36
    8  A    between atoms: C_6  and  N_38
    9  A    between atoms: C_7  and  N_8
   10  A    between atoms: C_7  and  C_26
   11  A    between atoms: N_8  and  C_27
   12  A    between atoms: C_10  and  N_30
   13  A    between atoms: C_14  and  C_36
   14  A    between atoms: C_15  and  N_40
   15  A    between atoms: C_19  and  C_22
   16  A    between atoms: N_21  and  C_24
   17  A    between atoms: C_22  and  N_30
                            x       y       z     vdW  Elec       q    Type
                         _______ _______ _______ _____ _____    ______ ____

>  <TORSDO>
F 17

$$$$
=
 OpenBabel11042412383D

 43 45  0  0  1  0  0  0  0  0999 V2000
  188.8730  177.6680  140.9320 N   0  0  0  0  0  0  0  0  0  0  0  0
  187.8790  178.6700  139.0860 O   0  0  0  0  0  0  0  0  0  0  0  0
  188.5520  177.7110  139.5330 C   0  0  0  0  0  0  0  0  0  0  0  0
  190.7770  175.7460  143.3810 C   0  0  0  0  0  2  0  0  0  0  0  0
  189.5010  175.9780  142.6020 C   0  0  0  0  0  2  0  0  0  0  0  0
  189.9540  176.8070  141.4300 C   0  0  2  0  0  3  0  0  0  0  0  0
  191.6700  176.8810  143.1400 N   0  0  0  0  0  0  0  0  0  0  0  0
  191.1560  177.5730  141.9560 C   0  0  0  0  0  2  0  0  0  0  0  0
  191.5240  177.7980  144.2630 C   0  0  0  0  0  2  0  0  0  0  0  0
  191.2430  177.0410  145.5460 C   0  0  0  0  0  2  0  0  0  0  0  0
  190.0960  177.6880  146.3030 C   0  0  1  0  0  3  0  0  0  0  0  0
  189.0670  178.1140  145.3740 N   0  0  0  0  0  1  0  0  0  0  0  0
  189.5180  176.6890  147.2770 C   0  0  0  0  0  1  0  0  0  0  0  0
  188.1790  178.6000  141.8300 C   0  0  0  0  0  2  0  0  0  0  0  0
  186.8870  177.9790  142.3450 C   0  0  0  0  0  2  0  0  0  0  0  0
  185.7280  178.8780  142.0110 C   0  0  0  0  0  2  0  0  0  0  0  0
  184.6080  178.5990  142.9010 N   0  0  0  0  0  0  0  0  0  0  0  0
  184.6530  179.4950  144.0630 C   0  0  0  0  0  2  0  0  0  0  0  0
  184.2590  178.8120  145.3750 C   0  0  0  0  0  2  0  0  0  0  0  0
  185.5050  178.3880  146.1240 C   0  0  0  0  0  1  0  0  0  0  0  0
  183.3700  178.8210  142.1550 C   0  0  0  0  0  2  0  0  0  0  0  0
  183.4250  178.1120  140.8760 C   0  0  0  0  0  0  0  0  0  0  0  0
  183.4710  177.5150  139.8290 C   0  0  0  0  0  0  0  0  0  0  0  0
  183.5170  176.8220  138.6150 N   0  0  0  0  0  2  0  0  0  0  0  0
  184.2220  177.3790  137.4640 C   0  0  1  0  0  3  0  0  0  0  0  0
  185.5460  176.8680  137.3890 O   0  0  0  0  0  0  0  0  0  0  0  0
  182.2810  177.9230  135.9700 O   0  0  0  0  0  1  0  0  0  0  0  0
  185.4970  175.5290  136.9400 C   0  0  0  0  0  2  0  0  0  0  0  0
  184.8770  174.1790  135.0680 O   0  0  0  0  0  1  0  0  0  0  0  0
  183.4340  177.1840  136.1860 C   0  0  0  0  0  0  0  0  0  0  0  0
  183.8130  176.2780  135.2860 C   0  0  0  0  0  3  0  0  0  0  0  0
  185.0760  175.4970  135.4720 C   0  0  1  0  0  3  0  0  0  0  0  0
  188.9060  176.6000  138.5890 C   0  0  0  0  0  2  0  0  0  0  0  0
  190.2520  176.7750  137.8820 C   0  0  0  0  0  2  0  0  0  0  0  0
  190.6990  173.2560  136.4560 O   0  0  0  0  0  0  0  0  0  0  0  0
  193.0500  175.9860  136.4990 C   0  0  2  0  0  3  0  0  0  0  0  0
  191.0680  175.5520  137.7380 N   0  0  0  0  0  0  0  0  0  0  0  0
  192.7170  176.8850  138.5910 F   0  0  0  0  0  0  0  0  0  0  0  0
  192.3470  175.1180  135.4690 C   0  0  0  0  0  2  0  0  0  0  0  0
  194.5240  175.6210  136.5340 C   0  0  0  0  0  1  0  0  0  0  0  0
  190.8280  174.7390  136.2380 S   0  0  0  0  0  0  0  0  0  0  0  0
  192.4630  175.7880  137.8360 N   0  0  0  0  0  0  0  0  0  0  0  0
  189.6450  175.2630  135.4770 O   0  0  0  0  0  0  0  0  0  0  0  0
  1 14  1  0  0  0  0
  2  3  2  0  0  0  0
  3  1  1  0  0  0  0
  5  4  1  0  0  0  0
  6  1  1  1  0  0  0
  6  8  1  0  0  0  0
  6  5  1  0  0  0  0
  7  4  1  0  0  0  0
  7  9  1  0  0  0  0
  8  7  1  0  0  0  0
  9 10  1  0  0  0  0
 10 11  1  0  0  0  0
 11 13  1  1  0  0  0
 12 11  1  0  0  0  0
 14 15  1  0  0  0  0
 16 15  1  0  0  0  0
 16 17  1  0  0  0  0
 17 18  1  0  0  0  0
 18 19  1  0  0  0  0
 19 20  1  0  0  0  0
 21 17  1  0  0  0  0
 22 21  1  0  0  0  0
 23 22  3  0  0  0  0
 24 23  1  0  0  0  0
 25 24  1  1  0  0  0
 26 25  1  0  0  0  0
 27 30  1  0  0  0  0
 28 26  1  0  0  0  0
 30 25  1  0  0  0  0
 31 32  1  0  0  0  0
 31 30  2  0  0  0  0
 32 29  1  1  0  0  0
 32 28  1  0  0  0  0
 33  3  1  0  0  0  0
 34 33  1  0  0  0  0
 36 40  1  1  0  0  0
 36 42  1  0  0  0  0
 37 42  1  0  0  0  0
 37 34  1  0  0  0  0
 39 41  1  0  0  0  0
 39 36  1  0  0  0  0
 41 35  2  0  0  0  0
 41 37  1  0  0  0  0
 42 38  1  0  0  0  0
 43 41  2  0  0  0  0
M  END
>  <MODEL>
4

>  <REMARK>
 VINA RESULT:      -6.8      2.510      3.948
  Name = 
  17 active torsions:
  status: ('A' for Active; 'I' for Inactive)
    1  A    between atoms: C_1  and  C_10
    2  A    between atoms: C_2  and  C_24
    3  A    between atoms: C_2  and  C_32
    4  A    between atoms: C_3  and  N_40
    5  A    between atoms: C_5  and  C_26
    6  A    between atoms: C_5  and  N_30
    7  A    between atoms: C_6  and  C_36
    8  A    between atoms: C_6  and  N_38
    9  A    between atoms: C_7  and  N_8
   10  A    between atoms: C_7  and  C_26
   11  A    between atoms: N_8  and  C_27
   12  A    between atoms: C_10  and  N_30
   13  A    between atoms: C_14  and  C_36
   14  A    between atoms: C_15  and  N_40
   15  A    between atoms: C_19  and  C_22
   16  A    between atoms: N_21  and  C_24
   17  A    between atoms: C_22  and  N_30
                            x       y       z     vdW  Elec       q    Type
                         _______ _______ _______ _____ _____    ______ ____

>  <TORSDO>
F 17

$$$$
=
 OpenBabel11042412383D

 43 45  0  0  1  0  0  0  0  0999 V2000
  189.2580  177.6860  140.8350 N   0  0  0  0  0  0  0  0  0  0  0  0
  188.4040  178.6670  138.9090 O   0  0  0  0  0  0  0  0  0  0  0  0
  189.0650  177.7280  139.4130 C   0  0  0  0  0  0  0  0  0  0  0  0
  190.9650  175.7690  143.4280 C   0  0  0  0  0  2  0  0  0  0  0  0
  189.7740  175.9690  142.5150 C   0  0  0  0  0  2  0  0  0  0  0  0
  190.3160  176.8580  141.4280 C   0  0  2  0  0  3  0  0  0  0  0  0
  191.8230  176.9500  143.3230 N   0  0  0  0  0  0  0  0  0  0  0  0
  191.4120  177.6580  142.1100 C   0  0  0  0  0  2  0  0  0  0  0  0
  191.5070  177.8190  144.4490 C   0  0  0  0  0  2  0  0  0  0  0  0
  191.0060  177.0130  145.6310 C   0  0  0  0  0  2  0  0  0  0  0  0
  189.8120  177.6990  146.2720 C   0  0  1  0  0  3  0  0  0  0  0  0
  188.8090  177.9890  145.2650 N   0  0  0  0  0  1  0  0  0  0  0  0
  189.2240  176.7890  147.3250 C   0  0  0  0  0  1  0  0  0  0  0  0
  188.4540  178.5900  141.6690 C   0  0  0  0  0  2  0  0  0  0  0  0
  187.0760  177.9930  141.9230 C   0  0  0  0  0  2  0  0  0  0  0  0
  186.0160  178.9840  141.5210 C   0  0  0  0  0  2  0  0  0  0  0  0
  184.7620  178.6730  142.1950 N   0  0  0  0  0  0  0  0  0  0  0  0
  184.6290  179.4880  143.4090 C   0  0  0  0  0  2  0  0  0  0  0  0
  184.2790  178.6710  144.6560 C   0  0  0  0  0  2  0  0  0  0  0  0
  185.3410  178.8770  145.7150 C   0  0  0  0  0  1  0  0  0  0  0  0
  183.6660  178.9760  141.2760 C   0  0  0  0  0  2  0  0  0  0  0  0
  183.3190  177.7810  140.5040 C   0  0  0  0  0  0  0  0  0  0  0  0
  183.0180  176.8000  139.8700 C   0  0  0  0  0  0  0  0  0  0  0  0
  182.6680  175.6670  139.1300 N   0  0  0  0  0  2  0  0  0  0  0  0
  181.4470  175.6450  138.3300 C   0  0  1  0  0  3  0  0  0  0  0  0
  181.6970  175.0970  137.0430 O   0  0  0  0  0  0  0  0  0  0  0  0
  179.7210  175.5760  140.1490 O   0  0  0  0  0  1  0  0  0  0  0  0
  181.8580  173.6990  137.1620 C   0  0  0  0  0  2  0  0  0  0  0  0
  180.6970  171.7030  137.7800 O   0  0  0  0  0  1  0  0  0  0  0  0
  180.3180  174.9550  139.0640 C   0  0  0  0  0  0  0  0  0  0  0  0
  179.9200  173.7350  138.7040 C   0  0  0  0  0  3  0  0  0  0  0  0
  180.5160  173.0580  137.5100 C   0  0  1  0  0  3  0  0  0  0  0  0
  189.5400  176.6350  138.5020 C   0  0  0  0  0  2  0  0  0  0  0  0
  189.5980  177.0240  137.0230 C   0  0  0  0  0  2  0  0  0  0  0  0
  189.1080  173.7020  135.1940 O   0  0  0  0  0  0  0  0  0  0  0  0
  186.6940  175.6330  137.0450 C   0  0  2  0  0  3  0  0  0  0  0  0
  188.8080  176.1780  136.1030 N   0  0  0  0  0  0  0  0  0  0  0  0
  187.2190  177.7890  136.4320 F   0  0  0  0  0  0  0  0  0  0  0  0
  187.3100  174.2450  137.0990 C   0  0  0  0  0  2  0  0  0  0  0  0
  185.2430  175.5160  136.6090 C   0  0  0  0  0  1  0  0  0  0  0  0
  188.9130  174.4950  136.4580 S   0  0  0  0  0  0  0  0  0  0  0  0
  187.4250  176.4910  136.0960 N   0  0  0  0  0  0  0  0  0  0  0  0
  189.9920  174.1780  137.4500 O   0  0  0  0  0  0  0  0  0  0  0  0
  1 14  1  0  0  0  0
  2  3  2  0  0  0  0
  3  1  1  0  0  0  0
  5  4  1  0  0  0  0
  6  1  1  1  0  0  0
  6  8  1  0  0  0  0
  6  5  1  0  0  0  0
  7  4  1  0  0  0  0
  7  9  1  0  0  0  0
  8  7  1  0  0  0  0
  9 10  1  0  0  0  0
 10 11  1  0  0  0  0
 11 13  1  1  0  0  0
 12 11  1  0  0  0  0
 14 15  1  0  0  0  0
 16 15  1  0  0  0  0
 16 17  1  0  0  0  0
 17 18  1  0  0  0  0
 18 19  1  0  0  0  0
 19 20  1  0  0  0  0
 21 17  1  0  0  0  0
 22 21  1  0  0  0  0
 23 22  3  0  0  0  0
 24 23  1  0  0  0  0
 25 30  1  0  0  0  0
 25 24  1  1  0  0  0
 26 28  1  0  0  0  0
 26 25  1  0  0  0  0
 28 32  1  0  0  0  0
 30 27  1  0  0  0  0
 31 30  2  0  0  0  0
 32 29  1  1  0  0  0
 32 31  1  0  0  0  0
 33  3  1  0  0  0  0
 34 33  1  0  0  0  0
 35 41  2  0  0  0  0
 36 40  1  6  0  0  0
 36 39  1  0  0  0  0
 37 41  1  0  0  0  0
 37 34  1  0  0  0  0
 41 39  1  0  0  0  0
 41 43  2  0  0  0  0
 42 37  1  0  0  0  0
 42 38  1  0  0  0  0
 42 36  1  0  0  0  0
M  END
>  <MODEL>
5

>  <REMARK>
 VINA RESULT:      -6.6      2.775      3.552
  Name = 
  17 active torsions:
  status: ('A' for Active; 'I' for Inactive)
    1  A    between atoms: C_1  and  C_10
    2  A    between atoms: C_2  and  C_24
    3  A    between atoms: C_2  and  C_32
    4  A    between atoms: C_3  and  N_40
    5  A    between atoms: C_5  and  C_26
    6  A    between atoms: C_5  and  N_30
    7  A    between atoms: C_6  and  C_36
    8  A    between atoms: C_6  and  N_38
    9  A    between atoms: C_7  and  N_8
   10  A    between atoms: C_7  and  C_26
   11  A    between atoms: N_8  and  C_27
   12  A    between atoms: C_10  and  N_30
   13  A    between atoms: C_14  and  C_36
   14  A    between atoms: C_15  and  N_40
   15  A    between atoms: C_19  and  C_22
   16  A    between atoms: N_21  and  C_24
   17  A    between atoms: C_22  and  N_30
                            x       y       z     vdW  Elec       q    Type
                         _______ _______ _______ _____ _____    ______ ____

>  <TORSDO>
F 17

$$$$
=
 OpenBabel11042412383D

 43 45  0  0  1  0  0  0  0  0999 V2000
  183.6230  178.8590  140.7710 N   0  0  0  0  0  0  0  0  0  0  0  0
  185.6200  179.7060  141.6050 O   0  0  0  0  0  0  0  0  0  0  0  0
  184.6160  178.9810  141.8000 C   0  0  0  0  0  0  0  0  0  0  0  0
  180.3500  177.3970  140.0910 C   0  0  0  0  0  2  0  0  0  0  0  0
  181.8590  177.2820  140.1090 C   0  0  0  0  0  2  0  0  0  0  0  0
  182.2770  178.3560  141.0770 C   0  0  2  0  0  3  0  0  0  0  0  0
  179.9950  178.7860  140.3860 N   0  0  0  0  0  0  0  0  0  0  0  0
  181.1880  179.4080  140.9630 C   0  0  0  0  0  2  0  0  0  0  0  0
  179.7450  179.4510  139.1130 C   0  0  0  0  0  2  0  0  0  0  0  0
  179.9710  180.9440  139.2290 C   0  0  0  0  0  2  0  0  0  0  0  0
  180.3090  181.5370  137.8720 C   0  0  1  0  0  3  0  0  0  0  0  0
  181.4400  182.4370  137.9930 N   0  0  0  0  0  1  0  0  0  0  0  0
  180.6510  180.4200  136.9140 C   0  0  0  0  0  1  0  0  0  0  0  0
  183.9480  179.3710  139.4320 C   0  0  0  0  0  2  0  0  0  0  0  0
  184.9730  178.4700  138.7540 C   0  0  0  0  0  2  0  0  0  0  0  0
  184.3430  177.7970  137.5640 C   0  0  0  0  0  2  0  0  0  0  0  0
  184.8130  176.4220  137.4630 N   0  0  0  0  0  0  0  0  0  0  0  0
  183.6690  175.5030  137.3940 C   0  0  0  0  0  2  0  0  0  0  0  0
  184.0560  174.0340  137.5800 C   0  0  0  0  0  2  0  0  0  0  0  0
  182.9650  173.1440  137.0210 C   0  0  0  0  0  1  0  0  0  0  0  0
  185.6120  176.3050  136.2450 C   0  0  0  0  0  2  0  0  0  0  0  0
  187.0260  176.1430  136.5900 C   0  0  0  0  0  0  0  0  0  0  0  0
  188.1930  176.0050  136.8600 C   0  0  0  0  0  0  0  0  0  0  0  0
  189.5480  175.8500  137.1710 N   0  0  0  0  0  2  0  0  0  0  0  0
  190.3870  177.0130  137.4500 C   0  0  1  0  0  3  0  0  0  0  0  0
  189.7110  177.9300  138.2990 O   0  0  0  0  0  0  0  0  0  0  0  0
  192.6630  176.0100  137.1220 O   0  0  0  0  0  1  0  0  0  0  0  0
  189.6860  177.4070  139.6120 C   0  0  0  0  0  2  0  0  0  0  0  0
  191.1050  176.7780  141.4290 O   0  0  0  0  0  1  0  0  0  0  0  0
  191.7440  176.6000  137.9760 C   0  0  0  0  0  0  0  0  0  0  0  0
  192.0510  176.7580  139.2630 C   0  0  0  0  0  3  0  0  0  0  0  0
  191.0960  177.4310  140.1990 C   0  0  1  0  0  3  0  0  0  0  0  0
  184.5560  178.1940  143.0760 C   0  0  0  0  0  2  0  0  0  0  0  0
  185.7250  178.4450  144.0310 C   0  0  0  0  0  2  0  0  0  0  0  0
  188.2800  175.7300  143.1840 O   0  0  0  0  0  0  0  0  0  0  0  0
  188.0660  177.7810  146.1390 C   0  0  2  0  0  3  0  0  0  0  0  0
  186.4970  177.2520  144.4320 N   0  0  0  0  0  0  0  0  0  0  0  0
  185.7990  177.8460  146.5270 F   0  0  0  0  0  0  0  0  0  0  0  0
  189.0590  177.5140  145.0190 C   0  0  0  0  0  2  0  0  0  0  0  0
  188.5990  177.1820  147.4290 C   0  0  0  0  0  1  0  0  0  0  0  0
  188.0340  177.1370  143.6600 S   0  0  0  0  0  0  0  0  0  0  0  0
  186.7550  177.1870  145.8250 N   0  0  0  0  0  0  0  0  0  0  0  0
  188.1870  178.1090  142.5280 O   0  0  0  0  0  0  0  0  0  0  0  0
  1  3  1  0  0  0  0
  2  3  2  0  0  0  0
  3 33  1  0  0  0  0
  4  5  1  0  0  0  0
  4  7  1  0  0  0  0
  5  6  1  0  0  0  0
  6  1  1  6  0  0  0
  7  8  1  0  0  0  0
  8  6  1  0  0  0  0
  9 10  1  0  0  0  0
  9  7  1  0  0  0  0
 11 13  1  6  0  0  0
 11 12  1  0  0  0  0
 11 10  1  0  0  0  0
 14  1  1  0  0  0  0
 15 14  1  0  0  0  0
 16 15  1  0  0  0  0
 17 16  1  0  0  0  0
 18 17  1  0  0  0  0
 18 19  1  0  0  0  0
 20 19  1  0  0  0  0
 21 22  1  0  0  0  0
 21 17  1  0  0  0  0
 22 23  3  0  0  0  0
 23 24  1  0  0  0  0
 25 24  1  1  0  0  0
 25 30  1  0  0  0  0
 25 26  1  0  0  0  0
 26 28  1  0  0  0  0
 27 30  1  0  0  0  0
 28 32  1  0  0  0  0
 30 31  2  0  0  0  0
 31 32  1  0  0  0  0
 32 29  1  1  0  0  0
 33 34  1  0  0  0  0
 34 37  1  0  0  0  0
 35 41  2  0  0  0  0
 36 40  1  1  0  0  0
 37 42  1  0  0  0  0
 39 36  1  0  0  0  0
 41 37  1  0  0  0  0
 41 39  1  0  0  0  0
 42 36  1  0  0  0  0
 42 38  1  0  0  0  0
 43 41  2  0  0  0  0
M  END
>  <MODEL>
6

>  <REMARK>
 VINA RESULT:      -6.5      3.257      9.352
  Name = 
  17 active torsions:
  status: ('A' for Active; 'I' for Inactive)
    1  A    between atoms: C_1  and  C_10
    2  A    between atoms: C_2  and  C_24
    3  A    between atoms: C_2  and  C_32
    4  A    between atoms: C_3  and  N_40
    5  A    between atoms: C_5  and  C_26
    6  A    between atoms: C_5  and  N_30
    7  A    between atoms: C_6  and  C_36
    8  A    between atoms: C_6  and  N_38
    9  A    between atoms: C_7  and  N_8
   10  A    between atoms: C_7  and  C_26
   11  A    between atoms: N_8  and  C_27
   12  A    between atoms: C_10  and  N_30
   13  A    between atoms: C_14  and  C_36
   14  A    between atoms: C_15  and  N_40
   15  A    between atoms: C_19  and  C_22
   16  A    between atoms: N_21  and  C_24
   17  A    between atoms: C_22  and  N_30
                            x       y       z     vdW  Elec       q    Type
                         _______ _______ _______ _____ _____    ______ ____

>  <TORSDO>
F 17

$$$$
=
 OpenBabel11042412383D

 43 45  0  0  1  0  0  0  0  0999 V2000
  189.2510  177.8420  140.7140 N   0  0  0  0  0  0  0  0  0  0  0  0
  189.0140  179.1860  138.8330 O   0  0  0  0  0  0  0  0  0  0  0  0
  189.4290  178.1050  139.3140 C   0  0  0  0  0  0  0  0  0  0  0  0
  190.3390  175.7190  143.4750 C   0  0  0  0  0  2  0  0  0  0  0  0
  189.2600  176.1690  142.5130 C   0  0  0  0  0  2  0  0  0  0  0  0
  190.0380  176.8030  141.3920 C   0  0  2  0  0  3  0  0  0  0  0  0
  191.4850  176.6170  143.3260 N   0  0  0  0  0  0  0  0  0  0  0  0
  191.2990  177.3250  142.0580 C   0  0  0  0  0  2  0  0  0  0  0  0
  191.3990  177.6140  144.3850 C   0  0  0  0  0  2  0  0  0  0  0  0
  190.1290  177.4370  145.1920 C   0  0  0  0  0  2  0  0  0  0  0  0
  190.4510  177.3350  146.6730 C   0  0  1  0  0  3  0  0  0  0  0  0
  189.3110  176.7980  147.3920 N   0  0  0  0  0  1  0  0  0  0  0  0
  191.6420  176.4240  146.8600 C   0  0  0  0  0  1  0  0  0  0  0  0
  188.3560  178.7240  141.4760 C   0  0  0  0  0  2  0  0  0  0  0  0
  186.9090  178.5050  141.0530 C   0  0  0  0  0  2  0  0  0  0  0  0
  185.9960  179.2910  141.9560 C   0  0  0  0  0  2  0  0  0  0  0  0
  185.1900  178.3830  142.7620 N   0  0  0  0  0  0  0  0  0  0  0  0
  184.6840  179.0810  143.9510 C   0  0  0  0  0  2  0  0  0  0  0  0
  184.9590  178.3350  145.2590 C   0  0  0  0  0  2  0  0  0  0  0  0
  186.4530  178.2440  145.4900 C   0  0  0  0  0  1  0  0  0  0  0  0
  184.0680  177.9260  141.9440 C   0  0  0  0  0  2  0  0  0  0  0  0
  182.8570  178.6680  142.2990 C   0  0  0  0  0  0  0  0  0  0  0  0
  181.8520  179.2670  142.5910 C   0  0  0  0  0  0  0  0  0  0  0  0
  180.6860  179.9590  142.9350 N   0  0  0  0  0  2  0  0  0  0  0  0
  179.4510  179.7610  142.1830 C   0  0  1  0  0  3  0  0  0  0  0  0
  179.1860  180.8780  141.3450 O   0  0  0  0  0  0  0  0  0  0  0  0
  179.3500  177.2550  142.1400 O   0  0  0  0  0  1  0  0  0  0  0  0
  180.0730  180.8470  140.2460 C   0  0  0  0  0  2  0  0  0  0  0  0
  180.6690  179.5530  138.3250 O   0  0  0  0  0  1  0  0  0  0  0  0
  179.4640  178.4440  141.4370 C   0  0  0  0  0  0  0  0  0  0  0  0
  179.6260  178.4140  140.1150 C   0  0  0  0  0  3  0  0  0  0  0  0
  179.7080  179.6830  139.3260 C   0  0  1  0  0  3  0  0  0  0  0  0
  190.0080  177.0930  138.3700 C   0  0  0  0  0  2  0  0  0  0  0  0
  189.0920  176.7190  137.2030 C   0  0  0  0  0  2  0  0  0  0  0  0
  185.4780  177.7890  137.8470 O   0  0  0  0  0  0  0  0  0  0  0  0
  186.6940  175.0320  135.8730 C   0  0  2  0  0  3  0  0  0  0  0  0
  187.7020  176.3670  137.5620 N   0  0  0  0  0  0  0  0  0  0  0  0
  188.4310  174.2380  137.1580 F   0  0  0  0  0  0  0  0  0  0  0  0
  185.8650  176.2880  135.6670 C   0  0  0  0  0  2  0  0  0  0  0  0
  185.7900  173.8160  135.7630 C   0  0  0  0  0  1  0  0  0  0  0  0
  186.5250  177.3980  136.8390 S   0  0  0  0  0  0  0  0  0  0  0  0
  187.3420  175.0450  137.1970 N   0  0  0  0  0  0  0  0  0  0  0  0
  187.1310  178.6170  136.2090 O   0  0  0  0  0  0  0  0  0  0  0  0
  1 14  1  0  0  0  0
  2  3  2  0  0  0  0
  3  1  1  0  0  0  0
  5  4  1  0  0  0  0
  6  1  1  1  0  0  0
  6  8  1  0  0  0  0
  6  5  1  0  0  0  0
  7  4  1  0  0  0  0
  7  9  1  0  0  0  0
  8  7  1  0  0  0  0
  9 10  1  0  0  0  0
 10 11  1  0  0  0  0
 11 13  1  6  0  0  0
 11 12  1  0  0  0  0
 15 14  1  0  0  0  0
 15 16  1  0  0  0  0
 16 17  1  0  0  0  0
 17 18  1  0  0  0  0
 18 19  1  0  0  0  0
 19 20  1  0  0  0  0
 21 22  1  0  0  0  0
 21 17  1  0  0  0  0
 22 23  3  0  0  0  0
 23 24  1  0  0  0  0
 25 24  1  6  0  0  0
 26 25  1  0  0  0  0
 28 26  1  0  0  0  0
 30 27  1  0  0  0  0
 30 25  1  0  0  0  0
 31 30  2  0  0  0  0
 32 29  1  6  0  0  0
 32 31  1  0  0  0  0
 32 28  1  0  0  0  0
 33  3  1  0  0  0  0
 34 37  1  0  0  0  0
 34 33  1  0  0  0  0
 36 40  1  1  0  0  0
 36 42  1  0  0  0  0
 38 42  1  0  0  0  0
 39 36  1  0  0  0  0
 39 41  1  0  0  0  0
 41 37  1  0  0  0  0
 41 35  2  0  0  0  0
 42 37  1  0  0  0  0
 43 41  2  0  0  0  0
M  END
>  <MODEL>
7

>  <REMARK>
 VINA RESULT:      -6.5      1.622      2.125
  Name = 
  17 active torsions:
  status: ('A' for Active; 'I' for Inactive)
    1  A    between atoms: C_1  and  C_10
    2  A    between atoms: C_2  and  C_24
    3  A    between atoms: C_2  and  C_32
    4  A    between atoms: C_3  and  N_40
    5  A    between atoms: C_5  and  C_26
    6  A    between atoms: C_5  and  N_30
    7  A    between atoms: C_6  and  C_36
    8  A    between atoms: C_6  and  N_38
    9  A    between atoms: C_7  and  N_8
   10  A    between atoms: C_7  and  C_26
   11  A    between atoms: N_8  and  C_27
   12  A    between atoms: C_10  and  N_30
   13  A    between atoms: C_14  and  C_36
   14  A    between atoms: C_15  and  N_40
   15  A    between atoms: C_19  and  C_22
   16  A    between atoms: N_21  and  C_24
   17  A    between atoms: C_22  and  N_30
                            x       y       z     vdW  Elec       q    Type
                         _______ _______ _______ _____ _____    ______ ____

>  <TORSDO>
F 17

$$$$
=
 OpenBabel11042412383D

 43 45  0  0  1  0  0  0  0  0999 V2000
  189.6190  177.4690  140.9990 N   0  0  0  0  0  0  0  0  0  0  0  0
  188.8720  178.1980  138.9230 O   0  0  0  0  0  0  0  0  0  0  0  0
  189.5430  177.3600  139.5700 C   0  0  0  0  0  0  0  0  0  0  0  0
  191.1280  175.7120  143.8190 C   0  0  0  0  0  2  0  0  0  0  0  0
  190.0910  175.7780  142.7180 C   0  0  0  0  0  2  0  0  0  0  0  0
  190.6730  176.7760  141.7530 C   0  0  2  0  0  3  0  0  0  0  0  0
  191.8090  177.0060  143.8810 N   0  0  0  0  0  0  0  0  0  0  0  0
  191.5090  177.6960  142.6250 C   0  0  0  0  0  2  0  0  0  0  0  0
  191.1840  177.7770  144.9490 C   0  0  0  0  0  2  0  0  0  0  0  0
  191.0860  176.9590  146.2200 C   0  0  0  0  0  2  0  0  0  0  0  0
  189.6770  177.0210  146.7840 C   0  0  1  0  0  3  0  0  0  0  0  0
  189.6820  177.7270  148.0510 N   0  0  0  0  0  1  0  0  0  0  0  0
  188.7820  177.7440  145.8050 C   0  0  0  0  0  1  0  0  0  0  0  0
  188.6950  178.3930  141.6720 C   0  0  0  0  0  2  0  0  0  0  0  0
  187.2550  177.9390  141.4760 C   0  0  0  0  0  2  0  0  0  0  0  0
  186.3250  178.9020  142.1640 C   0  0  0  0  0  2  0  0  0  0  0  0
  185.3110  178.1690  142.9110 N   0  0  0  0  0  0  0  0  0  0  0  0
  185.7240  178.0260  144.3130 C   0  0  0  0  0  2  0  0  0  0  0  0
  185.0510  179.0290  145.2520 C   0  0  0  0  0  2  0  0  0  0  0  0
  184.9510  178.4390  146.6430 C   0  0  0  0  0  1  0  0  0  0  0  0
  184.0620  178.9250  142.8400 C   0  0  0  0  0  2  0  0  0  0  0  0
  183.3300  178.5680  141.6240 C   0  0  0  0  0  0  0  0  0  0  0  0
  182.7160  178.2720  140.6290 C   0  0  0  0  0  0  0  0  0  0  0  0
  182.0000  177.9350  139.4760 N   0  0  0  0  0  2  0  0  0  0  0  0
  180.6080  178.3460  139.3140 C   0  0  1  0  0  3  0  0  0  0  0  0
  179.7260  177.3000  139.6970 O   0  0  0  0  0  0  0  0  0  0  0  0
  180.8500  180.8340  139.5230 O   0  0  0  0  0  1  0  0  0  0  0  0
  179.7200  177.1970  141.1050 C   0  0  0  0  0  2  0  0  0  0  0  0
  179.1500  178.3970  143.0920 O   0  0  0  0  0  1  0  0  0  0  0  0
  180.3320  179.6520  140.0270 C   0  0  0  0  0  0  0  0  0  0  0  0
  179.6310  179.6710  141.1610 C   0  0  0  0  0  3  0  0  0  0  0  0
  179.0240  178.4170  141.7050 C   0  0  1  0  0  3  0  0  0  0  0  0
  190.1580  176.2190  138.8140 C   0  0  0  0  0  2  0  0  0  0  0  0
  191.3860  176.5980  137.9830 C   0  0  0  0  0  2  0  0  0  0  0  0
  191.1700  174.2090  135.0060 O   0  0  0  0  0  0  0  0  0  0  0  0
  193.9470  176.2470  136.0650 C   0  0  2  0  0  3  0  0  0  0  0  0
  191.9770  175.5120  137.1740 N   0  0  0  0  0  0  0  0  0  0  0  0
  193.8640  176.0350  138.3550 F   0  0  0  0  0  0  0  0  0  0  0  0
  193.0630  176.0930  134.8380 C   0  0  0  0  0  2  0  0  0  0  0  0
  195.3390  175.7300  135.7420 C   0  0  0  0  0  1  0  0  0  0  0  0
  191.5370  175.5790  135.5100 S   0  0  0  0  0  0  0  0  0  0  0  0
  193.3940  175.4930  137.2040 N   0  0  0  0  0  0  0  0  0  0  0  0
  190.4270  176.5530  135.2420 O   0  0  0  0  0  0  0  0  0  0  0  0
  1 14  1  0  0  0  0
  2  3  2  0  0  0  0
  3  1  1  0  0  0  0
  4  7  1  0  0  0  0
  5  4  1  0  0  0  0
  6  1  1  1  0  0  0
  6  8  1  0  0  0  0
  6  5  1  0  0  0  0
  7  9  1  0  0  0  0
  8  7  1  0  0  0  0
  9 10  1  0  0  0  0
 10 11  1  0  0  0  0
 11 13  1  6  0  0  0
 11 12  1  0  0  0  0
 15 14  1  0  0  0  0
 15 16  1  0  0  0  0
 16 17  1  0  0  0  0
 17 18  1  0  0  0  0
 18 19  1  0  0  0  0
 19 20  1  0  0  0  0
 21 17  1  0  0  0  0
 22 21  1  0  0  0  0
 23 22  3  0  0  0  0
 24 23  1  0  0  0  0
 25 24  1  1  0  0  0
 25 26  1  0  0  0  0
 25 30  1  0  0  0  0
 26 28  1  0  0  0  0
 27 30  1  0  0  0  0
 28 32  1  0  0  0  0
 30 31  2  0  0  0  0
 31 32  1  0  0  0  0
 32 29  1  1  0  0  0
 33  3  1  0  0  0  0
 34 33  1  0  0  0  0
 35 41  2  0  0  0  0
 36 40  1  6  0  0  0
 36 42  1  0  0  0  0
 37 42  1  0  0  0  0
 37 34  1  0  0  0  0
 39 41  1  0  0  0  0
 39 36  1  0  0  0  0
 41 37  1  0  0  0  0
 42 38  1  0  0  0  0
 43 41  2  0  0  0  0
M  END
>  <MODEL>
8

>  <REMARK>
 VINA RESULT:      -6.5      2.821      3.470
  Name = 
  17 active torsions:
  status: ('A' for Active; 'I' for Inactive)
    1  A    between atoms: C_1  and  C_10
    2  A    between atoms: C_2  and  C_24
    3  A    between atoms: C_2  and  C_32
    4  A    between atoms: C_3  and  N_40
    5  A    between atoms: C_5  and  C_26
    6  A    between atoms: C_5  and  N_30
    7  A    between atoms: C_6  and  C_36
    8  A    between atoms: C_6  and  N_38
    9  A    between atoms: C_7  and  N_8
   10  A    between atoms: C_7  and  C_26
   11  A    between atoms: N_8  and  C_27
   12  A    between atoms: C_10  and  N_30
   13  A    between atoms: C_14  and  C_36
   14  A    between atoms: C_15  and  N_40
   15  A    between atoms: C_19  and  C_22
   16  A    between atoms: N_21  and  C_24
   17  A    between atoms: C_22  and  N_30
                            x       y       z     vdW  Elec       q    Type
                         _______ _______ _______ _____ _____    ______ ____

>  <TORSDO>
F 17

$$$$
=
 OpenBabel11042412383D

 43 45  0  0  1  0  0  0  0  0999 V2000
  189.0960  177.8600  141.2960 N   0  0  0  0  0  0  0  0  0  0  0  0
  188.0830  178.6200  139.3480 O   0  0  0  0  0  0  0  0  0  0  0  0
  188.8810  177.8120  139.8770 C   0  0  0  0  0  0  0  0  0  0  0  0
  190.9900  175.9820  143.7870 C   0  0  0  0  0  2  0  0  0  0  0  0
  189.8840  176.0470  142.7550 C   0  0  0  0  0  2  0  0  0  0  0  0
  190.2740  177.2240  141.9020 C   0  0  2  0  0  3  0  0  0  0  0  0
  191.5080  177.3370  143.9840 N   0  0  0  0  0  0  0  0  0  0  0  0
  191.0450  178.1310  142.8450 C   0  0  0  0  0  2  0  0  0  0  0  0
  190.8630  177.8820  145.1720 C   0  0  0  0  0  2  0  0  0  0  0  0
  190.0130  176.8310  145.8560 C   0  0  0  0  0  2  0  0  0  0  0  0
  190.2800  176.8240  147.3520 C   0  0  1  0  0  3  0  0  0  0  0  0
  191.6840  177.0880  147.6040 N   0  0  0  0  0  1  0  0  0  0  0  0
  189.4380  177.8900  148.0110 C   0  0  0  0  0  1  0  0  0  0  0  0
  188.1770  178.6690  142.1080 C   0  0  0  0  0  2  0  0  0  0  0  0
  186.8310  177.9690  142.2430 C   0  0  0  0  0  2  0  0  0  0  0  0
  185.7590  178.9880  142.5180 C   0  0  0  0  0  2  0  0  0  0  0  0
  184.9420  178.5610  143.6470 N   0  0  0  0  0  0  0  0  0  0  0  0
  185.1940  179.4270  144.8060 C   0  0  0  0  0  2  0  0  0  0  0  0
  185.4590  178.6510  146.0990 C   0  0  0  0  0  2  0  0  0  0  0  0
  186.4330  177.5240  145.8290 C   0  0  0  0  0  1  0  0  0  0  0  0
  183.5380  178.6600  143.2540 C   0  0  0  0  0  2  0  0  0  0  0  0
  183.3730  178.2020  141.8740 C   0  0  0  0  0  0  0  0  0  0  0  0
  183.2470  177.8330  140.7320 C   0  0  0  0  0  0  0  0  0  0  0  0
  183.1080  177.4000  139.4090 N   0  0  0  0  0  2  0  0  0  0  0  0
  182.9480  178.3630  138.3230 C   0  0  1  0  0  3  0  0  0  0  0  0
  181.6680  178.2330  137.7190 O   0  0  0  0  0  0  0  0  0  0  0  0
  184.5590  180.1400  139.0590 O   0  0  0  0  0  1  0  0  0  0  0  0
  180.6950  178.7770  138.5860 C   0  0  0  0  0  2  0  0  0  0  0  0
  179.9980  180.8220  139.6100 O   0  0  0  0  0  1  0  0  0  0  0  0
  183.2510  179.7720  138.7840 C   0  0  0  0  0  0  0  0  0  0  0  0
  182.2680  180.6510  138.9720 C   0  0  0  0  0  3  0  0  0  0  0  0
  180.8520  180.2960  138.6430 C   0  0  1  0  0  3  0  0  0  0  0  0
  189.5030  176.7630  139.0030 C   0  0  0  0  0  2  0  0  0  0  0  0
  190.1620  177.3080  137.7330 C   0  0  0  0  0  2  0  0  0  0  0  0
  191.1020  174.3380  135.5160 O   0  0  0  0  0  0  0  0  0  0  0  0
  187.8270  175.4370  136.5430 C   0  0  2  0  0  3  0  0  0  0  0  0
  189.9470  176.5140  136.5050 N   0  0  0  0  0  0  0  0  0  0  0  0
  188.0110  177.7260  136.3940 F   0  0  0  0  0  0  0  0  0  0  0  0
  188.6940  174.1950  136.6750 C   0  0  0  0  0  2  0  0  0  0  0  0
  186.6770  175.1410  135.5950 C   0  0  0  0  0  1  0  0  0  0  0  0
  190.3140  174.8420  136.6960 S   0  0  0  0  0  0  0  0  0  0  0  0
  188.6140  176.5690  136.0230 N   0  0  0  0  0  0  0  0  0  0  0  0
  191.0400  174.5500  137.9760 O   0  0  0  0  0  0  0  0  0  0  0  0
  1 14  1  0  0  0  0
  2  3  2  0  0  0  0
  3  1  1  0  0  0  0
  4  7  1  0  0  0  0
  5  4  1  0  0  0  0
  6  1  1  1  0  0  0
  6  5  1  0  0  0  0
  6  8  1  0  0  0  0
  7  9  1  0  0  0  0
  8  7  1  0  0  0  0
  9 10  1  0  0  0  0
 10 11  1  0  0  0  0
 11 12  1  0  0  0  0
 11 13  1  1  0  0  0
 14 15  1  0  0  0  0
 15 16  1  0  0  0  0
 16 17  1  0  0  0  0
 17 18  1  0  0  0  0
 18 19  1  0  0  0  0
 20 19  1  0  0  0  0
 21 17  1  0  0  0  0
 22 21  1  0  0  0  0
 23 22  3  0  0  0  0
 24 23  1  0  0  0  0
 25 30  1  0  0  0  0
 25 24  1  1  0  0  0
 26 25  1  0  0  0  0
 26 28  1  0  0  0  0
 28 32  1  0  0  0  0
 30 31  2  0  0  0  0
 30 27  1  0  0  0  0
 32 31  1  0  0  0  0
 32 29  1  1  0  0  0
 33  3  1  0  0  0  0
 34 33  1  0  0  0  0
 35 41  2  0  0  0  0
 36 40  1  6  0  0  0
 36 39  1  0  0  0  0
 37 41  1  0  0  0  0
 37 34  1  0  0  0  0
 39 41  1  0  0  0  0
 41 43  2  0  0  0  0
 42 38  1  0  0  0  0
 42 37  1  0  0  0  0
 42 36  1  0  0  0  0
M  END
>  <MODEL>
9

>  <REMARK>
 VINA RESULT:      -6.5      1.832      2.090
  Name = 
  17 active torsions:
  status: ('A' for Active; 'I' for Inactive)
    1  A    between atoms: C_1  and  C_10
    2  A    between atoms: C_2  and  C_24
    3  A    between atoms: C_2  and  C_32
    4  A    between atoms: C_3  and  N_40
    5  A    between atoms: C_5  and  C_26
    6  A    between atoms: C_5  and  N_30
    7  A    between atoms: C_6  and  C_36
    8  A    between atoms: C_6  and  N_38
    9  A    between atoms: C_7  and  N_8
   10  A    between atoms: C_7  and  C_26
   11  A    between atoms: N_8  and  C_27
   12  A    between atoms: C_10  and  N_30
   13  A    between atoms: C_14  and  C_36
   14  A    between atoms: C_15  and  N_40
   15  A    between atoms: C_19  and  C_22
   16  A    between atoms: N_21  and  C_24
   17  A    between atoms: C_22  and  N_30
                            x       y       z     vdW  Elec       q    Type
                         _______ _______ _______ _____ _____    ______ ____

>  <TORSDO>
F 17

$$$$
