=
 OpenBabel11032421273D

 34 36  0  0  1  0  0  0  0  0999 V2000
  187.4020  176.9540  143.7390 Cl  0  0  0  0  0  0  0  0  0  0  0  0
  191.5290  176.8910  147.4450 Cl  0  0  0  0  0  0  0  0  0  0  0  0
  189.8750  177.2230  146.9510 C   0  0  0  0  0  0  0  0  0  0  0  0
  187.1560  177.6540  146.3940 C   0  0  0  0  0  0  0  0  0  0  0  0
  187.6530  177.8600  147.6800 C   0  0  0  0  0  3  0  0  0  0  0  0
  189.0000  177.6410  147.9570 C   0  0  0  0  0  3  0  0  0  0  0  0
  189.3890  177.0210  145.6320 C   0  0  0  0  0  0  0  0  0  0  0  0
  188.0200  177.2220  145.3700 C   0  0  0  0  0  0  0  0  0  0  0  0
  190.2020  176.6140  144.5620 O   0  0  0  0  0  0  0  0  0  0  0  0
  191.1220  177.4510  143.8790 C   0  0  0  0  0  2  0  0  0  0  0  0
  191.3630  176.9060  142.4890 C   0  0  0  0  0  2  0  0  0  0  0  0
  190.1150  176.6290  141.8660 O   0  0  0  0  0  0  0  0  0  0  0  0
  190.2340  177.1100  137.8320 S   0  0  0  0  0  0  0  0  0  0  0  0
  188.0610  178.0410  139.1610 C   0  0  0  0  0  3  0  0  0  0  0  0
  188.4220  177.1420  138.0190 C   0  0  1  0  0  3  0  0  0  0  0  0
  188.2330  178.8370  141.4530 C   0  0  0  0  0  1  0  0  0  0  0  0
  189.8100  177.0160  140.5550 C   0  0  0  0  0  0  0  0  0  0  0  0
  190.4900  176.5160  139.5130 C   0  0  0  0  0  3  0  0  0  0  0  0
  188.6930  177.9650  140.3370 C   0  0  0  0  0  0  0  0  0  0  0  0
  187.6080  179.0920  136.8150 N   0  0  0  0  0  1  0  0  0  0  0  0
  187.7680  177.6500  136.7480 C   0  0  0  0  0  2  0  0  0  0  0  0
  185.7020  177.8730  146.1420 C   0  0  0  0  0  2  0  0  0  0  0  0
  185.4510  179.3180  145.7440 C   0  0  0  0  0  2  0  0  0  0  0  0
  184.8400  179.3830  144.3560 C   0  0  0  0  0  2  0  0  0  0  0  0
  182.5520  179.1080  143.2260 C   0  0  1  0  0  3  0  0  0  0  0  0
  182.7340  178.2410  144.3220 O   0  0  0  0  0  0  0  0  0  0  0  0
  183.3200  179.5130  144.4460 C   0  0  1  0  0  3  0  0  0  0  0  0
  183.1530  179.1980  140.7600 N   0  0  0  0  0  2  0  0  0  0  0  0
  184.2730  177.7780  142.2400 O   0  0  0  0  0  0  0  0  0  0  0  0
  183.3750  178.6430  142.0590 C   0  0  0  0  0  0  0  0  0  0  0  0
  183.9270  178.7950  139.5950 C   0  0  2  0  0  3  0  0  0  0  0  0
  184.9760  179.6940  139.3880 O   0  0  0  0  0  1  0  0  0  0  0  0
  183.0470  178.7580  138.3880 C   0  0  0  0  0  3  0  0  0  0  0  0
  182.0210  178.0960  138.3830 O   0  0  0  0  0  0  0  0  0  0  0  0
  1  8  1  0  0  0  0
  3  2  1  0  0  0  0
  3  6  1  0  0  0  0
  4  5  1  0  0  0  0
  5  6  2  0  0  0  0
  7  3  2  0  0  0  0
  8  7  1  0  0  0  0
  8  4  2  0  0  0  0
  9  7  1  0  0  0  0
 10  9  1  0  0  0  0
 11 10  1  0  0  0  0
 12 11  1  0  0  0  0
 13 15  1  0  0  0  0
 13 18  1  0  0  0  0
 14 19  2  0  0  0  0
 15 21  1  6  0  0  0
 15 14  1  0  0  0  0
 17 12  1  0  0  0  0
 18 17  2  0  0  0  0
 19 17  1  0  0  0  0
 19 16  1  0  0  0  0
 21 20  1  0  0  0  0
 22  4  1  0  0  0  0
 23 22  1  0  0  0  0
 24 23  1  0  0  0  0
 25 30  1  6  0  0  0
 25 26  1  0  0  0  0
 25 27  1  0  0  0  0
 26 27  1  0  0  0  0
 27 24  1  6  0  0  0
 28 30  1  0  0  0  0
 30 29  2  0  0  0  0
 31 32  1  6  0  0  0
 31 28  1  0  0  0  0
 33 31  1  0  0  0  0
 34 33  2  0  0  0  0
M  END
>  <MODEL>
1

>  <REMARK>
 VINA RESULT:      -7.8      0.000      0.000
  Name = 
  13 active torsions:
  status: ('A' for Active; 'I' for Inactive)
    1  A    between atoms: C_3  and  C_19
    2  A    between atoms: C_5  and  C_11
    3  A    between atoms: C_5  and  C_22
    4  A    between atoms: C_7  and  N_9
    5  A    between atoms: C_7  and  C_17
    6  A    between atoms: C_8  and  O_12
    7  A    between atoms: C_8  and  C_28
    8  A    between atoms: C_11  and  C_20
    9  A    between atoms: O_12  and  C_32
   10  A    between atoms: C_14  and  C_26
   11  A    between atoms: C_20  and  C_23
   12  A    between atoms: O_21  and  C_25
   13  A    between atoms: O_21  and  C_28
                            x       y       z     vdW  Elec       q    Type
                         _______ _______ _______ _____ _____    ______ ____

>  <TORSDO>
F 13

$$$$
=
 OpenBabel11032421273D

 34 36  0  0  1  0  0  0  0  0999 V2000
  186.0990  178.8850  141.3610 Cl  0  0  0  0  0  0  0  0  0  0  0  0
  181.2220  178.3640  143.9500 Cl  0  0  0  0  0  0  0  0  0  0  0  0
  182.2170  178.7180  142.5460 C   0  0  0  0  0  0  0  0  0  0  0  0
  183.6330  179.1450  140.1580 C   0  0  0  0  0  0  0  0  0  0  0  0
  182.2390  179.1600  140.1620 C   0  0  0  0  0  3  0  0  0  0  0  0
  181.5380  178.9430  141.3460 C   0  0  0  0  0  3  0  0  0  0  0  0
  183.6370  178.7130  142.5620 C   0  0  0  0  0  0  0  0  0  0  0  0
  184.3340  178.9090  141.3550 C   0  0  0  0  0  0  0  0  0  0  0  0
  184.3960  178.5070  143.7260 O   0  0  0  0  0  0  0  0  0  0  0  0
  184.4630  179.4070  144.8190 C   0  0  0  0  0  2  0  0  0  0  0  0
  184.8360  178.6500  146.0740 C   0  0  0  0  0  2  0  0  0  0  0  0
  185.8380  177.6890  145.7660 O   0  0  0  0  0  0  0  0  0  0  0  0
  189.0040  178.2060  148.2610 S   0  0  0  0  0  0  0  0  0  0  0  0
  189.4690  177.1050  145.8260 C   0  0  0  0  0  3  0  0  0  0  0  0
  189.6980  176.8360  147.2810 C   0  0  1  0  0  3  0  0  0  0  0  0
  188.0980  177.6830  143.9010 C   0  0  0  0  0  1  0  0  0  0  0  0
  187.1370  177.7430  146.2850 C   0  0  0  0  0  0  0  0  0  0  0  0
  187.3500  177.9710  147.5900 C   0  0  0  0  0  3  0  0  0  0  0  0
  188.2780  177.5060  145.3690 C   0  0  0  0  0  0  0  0  0  0  0  0
  191.9130  176.6970  146.2840 N   0  0  0  0  0  1  0  0  0  0  0  0
  191.1860  176.6990  147.5420 C   0  0  0  0  0  2  0  0  0  0  0  0
  184.3490  179.3560  138.8660 C   0  0  0  0  0  2  0  0  0  0  0  0
  184.6630  178.0180  138.2170 C   0  0  0  0  0  2  0  0  0  0  0  0
  186.1550  177.8920  137.9660 C   0  0  0  0  0  2  0  0  0  0  0  0
  187.8630  178.0120  136.0550 C   0  0  1  0  0  3  0  0  0  0  0  0
  187.3120  176.7250  136.2220 O   0  0  0  0  0  0  0  0  0  0  0  0
  186.4390  177.8010  136.4670 C   0  0  1  0  0  3  0  0  0  0  0  0
  189.5420  177.2390  137.7970 N   0  0  0  0  0  2  0  0  0  0  0  0
  189.0220  179.5000  137.5190 O   0  0  0  0  0  0  0  0  0  0  0  0
  188.8290  178.3060  137.1660 C   0  0  0  0  0  0  0  0  0  0  0  0
  190.5000  177.4630  138.8690 C   0  0  2  0  0  3  0  0  0  0  0  0
  191.6400  176.6830  138.6580 O   0  0  0  0  0  1  0  0  0  0  0  0
  189.8830  177.1140  140.1840 C   0  0  0  0  0  3  0  0  0  0  0  0
  190.4260  177.4270  141.2310 O   0  0  0  0  0  0  0  0  0  0  0  0
  3  7  1  0  0  0  0
  3  2  1  0  0  0  0
  4  5  2  0  0  0  0
  4  8  1  0  0  0  0
  5  6  1  0  0  0  0
  6  3  2  0  0  0  0
  7  9  1  0  0  0  0
  8  1  1  0  0  0  0
  8  7  2  0  0  0  0
  9 10  1  0  0  0  0
 10 11  1  0  0  0  0
 12 11  1  0  0  0  0
 12 17  1  0  0  0  0
 14 15  1  0  0  0  0
 15 21  1  6  0  0  0
 15 13  1  0  0  0  0
 16 19  1  0  0  0  0
 17 18  2  0  0  0  0
 18 13  1  0  0  0  0
 19 14  2  0  0  0  0
 19 17  1  0  0  0  0
 20 21  1  0  0  0  0
 22  4  1  0  0  0  0
 23 22  1  0  0  0  0
 24 23  1  0  0  0  0
 25 26  1  0  0  0  0
 25 27  1  0  0  0  0
 25 30  1  1  0  0  0
 26 27  1  0  0  0  0
 27 24  1  1  0  0  0
 28 31  1  0  0  0  0
 30 29  2  0  0  0  0
 30 28  1  0  0  0  0
 31 32  1  6  0  0  0
 31 33  1  0  0  0  0
 33 34  2  0  0  0  0
M  END
>  <MODEL>
2

>  <REMARK>
 VINA RESULT:      -7.8      3.378      7.943
  Name = 
  13 active torsions:
  status: ('A' for Active; 'I' for Inactive)
    1  A    between atoms: C_3  and  C_19
    2  A    between atoms: C_5  and  C_11
    3  A    between atoms: C_5  and  C_22
    4  A    between atoms: C_7  and  N_9
    5  A    between atoms: C_7  and  C_17
    6  A    between atoms: C_8  and  O_12
    7  A    between atoms: C_8  and  C_28
    8  A    between atoms: C_11  and  C_20
    9  A    between atoms: O_12  and  C_32
   10  A    between atoms: C_14  and  C_26
   11  A    between atoms: C_20  and  C_23
   12  A    between atoms: O_21  and  C_25
   13  A    between atoms: O_21  and  C_28
                            x       y       z     vdW  Elec       q    Type
                         _______ _______ _______ _____ _____    ______ ____

>  <TORSDO>
F 13

$$$$
=
 OpenBabel11032421273D

 34 36  0  0  1  0  0  0  0  0999 V2000
  186.6150  178.2110  142.5150 Cl  0  0  0  0  0  0  0  0  0  0  0  0
  181.1690  178.6810  141.5730 Cl  0  0  0  0  0  0  0  0  0  0  0  0
  182.5780  178.6520  142.6240 C   0  0  0  0  0  0  0  0  0  0  0  0
  184.7240  178.8110  144.4280 C   0  0  0  0  0  0  0  0  0  0  0  0
  183.4200  179.0420  144.8630 C   0  0  0  0  0  3  0  0  0  0  0  0
  182.3570  178.9680  143.9660 C   0  0  0  0  0  3  0  0  0  0  0  0
  183.8990  178.4000  142.1660 C   0  0  0  0  0  0  0  0  0  0  0  0
  184.9680  178.5020  143.0770 C   0  0  0  0  0  0  0  0  0  0  0  0
  184.2070  178.0640  140.8380 O   0  0  0  0  0  0  0  0  0  0  0  0
  184.4960  179.0000  139.8120 C   0  0  0  0  0  2  0  0  0  0  0  0
  185.0640  178.2740  138.6130 C   0  0  0  0  0  2  0  0  0  0  0  0
  186.2740  178.9040  138.2090 O   0  0  0  0  0  0  0  0  0  0  0  0
  189.9670  177.3850  138.9690 S   0  0  0  0  0  0  0  0  0  0  0  0
  188.6950  176.5720  136.7150 C   0  0  0  0  0  3  0  0  0  0  0  0
  189.3560  176.0130  137.9380 C   0  0  1  0  0  3  0  0  0  0  0  0
  187.1430  178.0370  135.5480 C   0  0  0  0  0  1  0  0  0  0  0  0
  187.4900  178.2200  138.0890 C   0  0  0  0  0  0  0  0  0  0  0  0
  188.3280  178.1150  139.1310 C   0  0  0  0  0  3  0  0  0  0  0  0
  187.8200  177.5800  136.7940 C   0  0  0  0  0  0  0  0  0  0  0  0
  190.0240  173.7520  137.3410 N   0  0  0  0  0  1  0  0  0  0  0  0
  190.5030  175.1110  137.5240 C   0  0  0  0  0  2  0  0  0  0  0  0
  185.8390  178.9250  145.4130 C   0  0  0  0  0  2  0  0  0  0  0  0
  186.1910  177.5540  145.9680 C   0  0  0  0  0  2  0  0  0  0  0  0
  187.6930  177.3380  145.9240 C   0  0  0  0  0  2  0  0  0  0  0  0
  189.7290  177.0050  147.4490 C   0  0  1  0  0  3  0  0  0  0  0  0
  189.0190  178.1900  147.7290 O   0  0  0  0  0  0  0  0  0  0  0  0
  188.2390  177.0900  147.3290 C   0  0  1  0  0  3  0  0  0  0  0  0
  190.2710  178.2870  145.3250 N   0  0  0  0  0  2  0  0  0  0  0  0
  191.3600  176.2890  145.8590 O   0  0  0  0  0  0  0  0  0  0  0  0
  190.4990  177.1550  146.1690 C   0  0  0  0  0  0  0  0  0  0  0  0
  190.9960  178.4930  144.0800 C   0  0  2  0  0  3  0  0  0  0  0  0
  191.2420  179.8550  143.8930 O   0  0  0  0  0  1  0  0  0  0  0  0
  190.1980  177.9610  142.9330 C   0  0  0  0  0  3  0  0  0  0  0  0
  190.3510  176.8130  142.5460 O   0  0  0  0  0  0  0  0  0  0  0  0
  1  8  1  0  0  0  0
  2  3  1  0  0  0  0
  3  6  1  0  0  0  0
  4  5  1  0  0  0  0
  4 22  1  0  0  0  0
  6  5  2  0  0  0  0
  7  3  2  0  0  0  0
  7  8  1  0  0  0  0
  8  4  2  0  0  0  0
  9  7  1  0  0  0  0
 10  9  1  0  0  0  0
 11 10  1  0  0  0  0
 12 11  1  0  0  0  0
 13 18  1  0  0  0  0
 14 19  2  0  0  0  0
 14 15  1  0  0  0  0
 15 21  1  6  0  0  0
 15 13  1  0  0  0  0
 16 19  1  0  0  0  0
 17 12  1  0  0  0  0
 17 18  2  0  0  0  0
 19 17  1  0  0  0  0
 20 21  1  0  0  0  0
 22 23  1  0  0  0  0
 24 23  1  0  0  0  0
 25 30  1  6  0  0  0
 25 26  1  0  0  0  0
 27 24  1  6  0  0  0
 27 25  1  0  0  0  0
 27 26  1  0  0  0  0
 28 30  1  0  0  0  0
 29 30  2  0  0  0  0
 31 32  1  6  0  0  0
 31 28  1  0  0  0  0
 33 31  1  0  0  0  0
 34 33  2  0  0  0  0
M  END
>  <MODEL>
3

>  <REMARK>
 VINA RESULT:      -7.7      2.612      6.420
  Name = 
  13 active torsions:
  status: ('A' for Active; 'I' for Inactive)
    1  A    between atoms: C_3  and  C_19
    2  A    between atoms: C_5  and  C_11
    3  A    between atoms: C_5  and  C_22
    4  A    between atoms: C_7  and  N_9
    5  A    between atoms: C_7  and  C_17
    6  A    between atoms: C_8  and  O_12
    7  A    between atoms: C_8  and  C_28
    8  A    between atoms: C_11  and  C_20
    9  A    between atoms: O_12  and  C_32
   10  A    between atoms: C_14  and  C_26
   11  A    between atoms: C_20  and  C_23
   12  A    between atoms: O_21  and  C_25
   13  A    between atoms: O_21  and  C_28
                            x       y       z     vdW  Elec       q    Type
                         _______ _______ _______ _____ _____    ______ ____

>  <TORSDO>
F 13

$$$$
=
 OpenBabel11032421273D

 34 36  0  0  1  0  0  0  0  0999 V2000
  186.7980  177.0600  143.6490 Cl  0  0  0  0  0  0  0  0  0  0  0  0
  188.1800  178.2420  148.8890 Cl  0  0  0  0  0  0  0  0  0  0  0  0
  188.5430  177.6750  147.2660 C   0  0  0  0  0  0  0  0  0  0  0  0
  189.3460  176.9070  144.6870 C   0  0  0  0  0  0  0  0  0  0  0  0
  190.2830  177.0150  145.7130 C   0  0  0  0  0  3  0  0  0  0  0  0
  189.8850  177.4010  146.9900 C   0  0  0  0  0  3  0  0  0  0  0  0
  187.5730  177.5570  146.2350 C   0  0  0  0  0  0  0  0  0  0  0  0
  187.9920  177.1900  144.9420 C   0  0  0  0  0  0  0  0  0  0  0  0
  186.2040  177.8010  146.4300 O   0  0  0  0  0  0  0  0  0  0  0  0
  185.5510  179.0260  146.1400 C   0  0  0  0  0  2  0  0  0  0  0  0
  184.1340  178.7480  145.6900 C   0  0  0  0  0  2  0  0  0  0  0  0
  184.0030  179.0740  144.3120 O   0  0  0  0  0  0  0  0  0  0  0  0
  180.1060  178.4950  143.3110 S   0  0  0  0  0  0  0  0  0  0  0  0
  181.8980  178.8400  141.3050 C   0  0  0  0  0  3  0  0  0  0  0  0
  180.6030  179.3990  141.8100 C   0  0  1  0  0  3  0  0  0  0  0  0
  184.2110  178.1280  141.5460 C   0  0  0  0  0  1  0  0  0  0  0  0
  182.8250  178.8630  143.5830 C   0  0  0  0  0  0  0  0  0  0  0  0
  181.6260  178.9190  144.1810 C   0  0  0  0  0  3  0  0  0  0  0  0
  182.9280  178.6120  142.1260 C   0  0  0  0  0  0  0  0  0  0  0  0
  179.9730  179.9350  139.5220 N   0  0  0  0  0  1  0  0  0  0  0  0
  179.5410  179.2630  140.7350 C   0  0  0  0  0  2  0  0  0  0  0  0
  189.8150  176.5170  143.3250 C   0  0  0  0  0  2  0  0  0  0  0  0
  189.9640  177.7500  142.4480 C   0  0  0  0  0  2  0  0  0  0  0  0
  189.3200  177.5130  141.0940 C   0  0  0  0  0  2  0  0  0  0  0  0
  190.0810  176.9860  138.7000 C   0  0  1  0  0  3  0  0  0  0  0  0
  191.0450  177.7010  139.4410 O   0  0  0  0  0  0  0  0  0  0  0  0
  190.2820  176.7690  140.1680 C   0  0  1  0  0  3  0  0  0  0  0  0
  187.6670  177.3410  137.9940 N   0  0  0  0  0  2  0  0  0  0  0  0
  189.1240  179.1400  138.3180 O   0  0  0  0  0  0  0  0  0  0  0  0
  188.9460  177.8920  138.3220 C   0  0  0  0  0  0  0  0  0  0  0  0
  186.5270  178.1700  137.6330 C   0  0  2  0  0  3  0  0  0  0  0  0
  185.9840  178.7570  138.7780 O   0  0  0  0  0  1  0  0  0  0  0  0
  185.4900  177.3390  136.9490 C   0  0  0  0  0  3  0  0  0  0  0  0
  184.3610  177.2510  137.4050 O   0  0  0  0  0  0  0  0  0  0  0  0
  1  8  1  0  0  0  0
  3  2  1  0  0  0  0
  4  8  2  0  0  0  0
  4  5  1  0  0  0  0
  5  6  2  0  0  0  0
  6  3  1  0  0  0  0
  7  9  1  0  0  0  0
  7  3  2  0  0  0  0
  8  7  1  0  0  0  0
 10  9  1  0  0  0  0
 11 10  1  0  0  0  0
 12 11  1  0  0  0  0
 13 18  1  0  0  0  0
 14 15  1  0  0  0  0
 14 19  2  0  0  0  0
 15 21  1  6  0  0  0
 15 13  1  0  0  0  0
 16 19  1  0  0  0  0
 17 18  2  0  0  0  0
 17 12  1  0  0  0  0
 19 17  1  0  0  0  0
 20 21  1  0  0  0  0
 22  4  1  0  0  0  0
 23 22  1  0  0  0  0
 24 23  1  0  0  0  0
 25 30  1  1  0  0  0
 25 26  1  0  0  0  0
 25 27  1  0  0  0  0
 26 27  1  0  0  0  0
 27 24  1  1  0  0  0
 28 30  1  0  0  0  0
 29 30  2  0  0  0  0
 31 28  1  0  0  0  0
 31 32  1  1  0  0  0
 33 34  2  0  0  0  0
 33 31  1  0  0  0  0
M  END
>  <MODEL>
4

>  <REMARK>
 VINA RESULT:      -7.6      2.823      6.282
  Name = 
  13 active torsions:
  status: ('A' for Active; 'I' for Inactive)
    1  A    between atoms: C_3  and  C_19
    2  A    between atoms: C_5  and  C_11
    3  A    between atoms: C_5  and  C_22
    4  A    between atoms: C_7  and  N_9
    5  A    between atoms: C_7  and  C_17
    6  A    between atoms: C_8  and  O_12
    7  A    between atoms: C_8  and  C_28
    8  A    between atoms: C_11  and  C_20
    9  A    between atoms: O_12  and  C_32
   10  A    between atoms: C_14  and  C_26
   11  A    between atoms: C_20  and  C_23
   12  A    between atoms: O_21  and  C_25
   13  A    between atoms: O_21  and  C_28
                            x       y       z     vdW  Elec       q    Type
                         _______ _______ _______ _____ _____    ______ ____

>  <TORSDO>
F 13

$$$$
=
 OpenBabel11032421273D

 34 36  0  0  1  0  0  0  0  0999 V2000
  186.1370  177.8210  142.6840 Cl  0  0  0  0  0  0  0  0  0  0  0  0
  188.5940  176.9070  147.5720 Cl  0  0  0  0  0  0  0  0  0  0  0  0
  187.3920  177.6750  146.5450 C   0  0  0  0  0  0  0  0  0  0  0  0
  185.2980  178.8580  145.0960 C   0  0  0  0  0  0  0  0  0  0  0  0
  185.3940  179.0450  146.4730 C   0  0  0  0  0  3  0  0  0  0  0  0
  186.4300  178.4540  147.1920 C   0  0  0  0  0  3  0  0  0  0  0  0
  187.3170  177.4850  145.1390 C   0  0  0  0  0  0  0  0  0  0  0  0
  186.2520  178.0670  144.4270 C   0  0  0  0  0  0  0  0  0  0  0  0
  188.2490  176.7280  144.4100 O   0  0  0  0  0  0  0  0  0  0  0  0
  189.6320  177.0250  144.3080 C   0  0  0  0  0  2  0  0  0  0  0  0
  189.8420  178.0970  143.2620 C   0  0  0  0  0  2  0  0  0  0  0  0
  189.4530  177.5980  141.9890 O   0  0  0  0  0  0  0  0  0  0  0  0
  192.8140  177.3970  139.7120 S   0  0  0  0  0  0  0  0  0  0  0  0
  190.4190  177.0990  138.4750 C   0  0  0  0  0  3  0  0  0  0  0  0
  191.7370  176.4040  138.6300 C   0  0  1  0  0  3  0  0  0  0  0  0
  188.4230  178.2060  139.3140 C   0  0  0  0  0  1  0  0  0  0  0  0
  190.3270  177.5180  140.8970 C   0  0  0  0  0  0  0  0  0  0  0  0
  191.6450  177.3420  141.0810 C   0  0  0  0  0  3  0  0  0  0  0  0
  189.7640  177.5950  139.5290 C   0  0  0  0  0  0  0  0  0  0  0  0
  193.7910  176.5560  137.3340 N   0  0  0  0  0  1  0  0  0  0  0  0
  192.3780  176.2260  137.2660 C   0  0  0  0  0  2  0  0  0  0  0  0
  184.1590  179.4860  144.3640 C   0  0  0  0  0  2  0  0  0  0  0  0
  182.8820  178.6990  144.6080 C   0  0  0  0  0  2  0  0  0  0  0  0
  181.8580  179.0100  143.5300 C   0  0  0  0  0  2  0  0  0  0  0  0
  179.3230  179.1080  143.1490 C   0  0  1  0  0  3  0  0  0  0  0  0
  179.8500  177.8070  143.0210 O   0  0  0  0  0  0  0  0  0  0  0  0
  180.4560  178.6190  143.9960 C   0  0  1  0  0  3  0  0  0  0  0  0
  180.1390  179.3040  140.7520 N   0  0  0  0  0  2  0  0  0  0  0  0
  179.6190  181.1940  142.0250 O   0  0  0  0  0  0  0  0  0  0  0  0
  179.7050  179.9390  141.9590 C   0  0  0  0  0  0  0  0  0  0  0  0
  180.5110  180.0560  139.5630 C   0  0  2  0  0  3  0  0  0  0  0  0
  179.3920  180.2350  138.7460 O   0  0  0  0  0  1  0  0  0  0  0  0
  181.5760  179.3250  138.8110 C   0  0  0  0  0  3  0  0  0  0  0  0
  182.6140  179.8850  138.4980 O   0  0  0  0  0  0  0  0  0  0  0  0
  1  8  1  0  0  0  0
  3  6  1  0  0  0  0
  3  2  1  0  0  0  0
  4  5  1  0  0  0  0
  5  6  2  0  0  0  0
  7  3  2  0  0  0  0
  8  4  2  0  0  0  0
  8  7  1  0  0  0  0
  9  7  1  0  0  0  0
 10  9  1  0  0  0  0
 11 10  1  0  0  0  0
 12 11  1  0  0  0  0
 13 18  1  0  0  0  0
 14 15  1  0  0  0  0
 14 19  2  0  0  0  0
 15 21  1  6  0  0  0
 15 13  1  0  0  0  0
 16 19  1  0  0  0  0
 17 18  2  0  0  0  0
 17 12  1  0  0  0  0
 19 17  1  0  0  0  0
 21 20  1  0  0  0  0
 22 23  1  0  0  0  0
 22  4  1  0  0  0  0
 24 23  1  0  0  0  0
 25 30  1  6  0  0  0
 25 27  1  0  0  0  0
 26 25  1  0  0  0  0
 26 27  1  0  0  0  0
 27 24  1  6  0  0  0
 28 30  1  0  0  0  0
 30 29  2  0  0  0  0
 31 32  1  6  0  0  0
 31 28  1  0  0  0  0
 33 31  1  0  0  0  0
 34 33  2  0  0  0  0
M  END
>  <MODEL>
5

>  <REMARK>
 VINA RESULT:      -7.6      2.420      3.149
  Name = 
  13 active torsions:
  status: ('A' for Active; 'I' for Inactive)
    1  A    between atoms: C_3  and  C_19
    2  A    between atoms: C_5  and  C_11
    3  A    between atoms: C_5  and  C_22
    4  A    between atoms: C_7  and  N_9
    5  A    between atoms: C_7  and  C_17
    6  A    between atoms: C_8  and  O_12
    7  A    between atoms: C_8  and  C_28
    8  A    between atoms: C_11  and  C_20
    9  A    between atoms: O_12  and  C_32
   10  A    between atoms: C_14  and  C_26
   11  A    between atoms: C_20  and  C_23
   12  A    between atoms: O_21  and  C_25
   13  A    between atoms: O_21  and  C_28
                            x       y       z     vdW  Elec       q    Type
                         _______ _______ _______ _____ _____    ______ ____

>  <TORSDO>
F 13

$$$$
=
 OpenBabel11032421273D

 34 36  0  0  1  0  0  0  0  0999 V2000
  188.5140  177.6150  142.9540 Cl  0  0  0  0  0  0  0  0  0  0  0  0
  188.8960  178.1150  148.4650 Cl  0  0  0  0  0  0  0  0  0  0  0  0
  189.4690  177.5520  146.9020 C   0  0  0  0  0  0  0  0  0  0  0  0
  190.6270  176.7230  144.4820 C   0  0  0  0  0  0  0  0  0  0  0  0
  191.2960  176.5200  145.6880 C   0  0  0  0  0  3  0  0  0  0  0  0
  190.7230  176.9370  146.8870 C   0  0  0  0  0  3  0  0  0  0  0  0
  188.7670  177.7530  145.6840 C   0  0  0  0  0  0  0  0  0  0  0  0
  189.3680  177.3510  144.4760 C   0  0  0  0  0  0  0  0  0  0  0  0
  187.4990  178.3510  145.6120 O   0  0  0  0  0  0  0  0  0  0  0  0
  186.2710  177.6760  145.8320 C   0  0  0  0  0  2  0  0  0  0  0  0
  185.1770  178.6890  146.0850 C   0  0  0  0  0  2  0  0  0  0  0  0
  184.8110  179.3070  144.8580 O   0  0  0  0  0  0  0  0  0  0  0  0
  180.9800  178.3720  143.8750 S   0  0  0  0  0  0  0  0  0  0  0  0
  182.7640  178.7150  141.8610 C   0  0  0  0  0  3  0  0  0  0  0  0
  181.4250  179.2070  142.3190 C   0  0  1  0  0  3  0  0  0  0  0  0
  185.1200  178.1950  142.1650 C   0  0  0  0  0  1  0  0  0  0  0  0
  183.6610  178.9600  144.1380 C   0  0  0  0  0  0  0  0  0  0  0  0
  182.4540  178.9660  144.7230 C   0  0  0  0  0  3  0  0  0  0  0  0
  183.7980  178.6200  142.7030 C   0  0  0  0  0  0  0  0  0  0  0  0
  179.5010  177.8580  141.6900 N   0  0  0  0  0  1  0  0  0  0  0  0
  180.3880  178.9200  141.2490 C   0  0  0  0  0  2  0  0  0  0  0  0
  191.2840  176.2870  143.2150 C   0  0  0  0  0  2  0  0  0  0  0  0
  191.6870  177.4990  142.3900 C   0  0  0  0  0  2  0  0  0  0  0  0
  191.7800  177.1280  140.9210 C   0  0  0  0  0  2  0  0  0  0  0  0
  190.3790  177.1580  138.7720 C   0  0  1  0  0  3  0  0  0  0  0  0
  189.6610  176.6910  139.8920 O   0  0  0  0  0  0  0  0  0  0  0  0
  190.5980  177.7090  140.1470 C   0  0  1  0  0  3  0  0  0  0  0  0
  192.6680  176.5060  137.8850 N   0  0  0  0  0  2  0  0  0  0  0  0
  191.0320  174.9020  138.3450 O   0  0  0  0  0  0  0  0  0  0  0  0
  191.3610  176.1180  138.3190 C   0  0  0  0  0  0  0  0  0  0  0  0
  193.6660  175.5420  137.4470 C   0  0  2  0  0  3  0  0  0  0  0  0
  194.6450  175.3920  138.4320 O   0  0  0  0  0  1  0  0  0  0  0  0
  194.2950  176.0050  136.1730 C   0  0  0  0  0  3  0  0  0  0  0  0
  194.7200  177.1440  136.0650 O   0  0  0  0  0  0  0  0  0  0  0  0
  1  8  1  0  0  0  0
  3  2  1  0  0  0  0
  4  5  1  0  0  0  0
  5  6  2  0  0  0  0
  6  3  1  0  0  0  0
  7  3  2  0  0  0  0
  8  4  2  0  0  0  0
  8  7  1  0  0  0  0
  9  7  1  0  0  0  0
  9 10  1  0  0  0  0
 10 11  1  0  0  0  0
 12 11  1  0  0  0  0
 13 18  1  0  0  0  0
 14 15  1  0  0  0  0
 14 19  2  0  0  0  0
 15 21  1  6  0  0  0
 15 13  1  0  0  0  0
 16 19  1  0  0  0  0
 17 18  2  0  0  0  0
 17 12  1  0  0  0  0
 19 17  1  0  0  0  0
 21 20  1  0  0  0  0
 22  4  1  0  0  0  0
 23 22  1  0  0  0  0
 24 23  1  0  0  0  0
 25 30  1  1  0  0  0
 25 26  1  0  0  0  0
 25 27  1  0  0  0  0
 26 27  1  0  0  0  0
 27 24  1  1  0  0  0
 28 30  1  0  0  0  0
 30 29  2  0  0  0  0
 31 28  1  0  0  0  0
 31 32  1  1  0  0  0
 33 31  1  0  0  0  0
 34 33  2  0  0  0  0
M  END
>  <MODEL>
6

>  <REMARK>
 VINA RESULT:      -7.5      3.376      7.600
  Name = 
  13 active torsions:
  status: ('A' for Active; 'I' for Inactive)
    1  A    between atoms: C_3  and  C_19
    2  A    between atoms: C_5  and  C_11
    3  A    between atoms: C_5  and  C_22
    4  A    between atoms: C_7  and  N_9
    5  A    between atoms: C_7  and  C_17
    6  A    between atoms: C_8  and  O_12
    7  A    between atoms: C_8  and  C_28
    8  A    between atoms: C_11  and  C_20
    9  A    between atoms: O_12  and  C_32
   10  A    between atoms: C_14  and  C_26
   11  A    between atoms: C_20  and  C_23
   12  A    between atoms: O_21  and  C_25
   13  A    between atoms: O_21  and  C_28
                            x       y       z     vdW  Elec       q    Type
                         _______ _______ _______ _____ _____    ______ ____

>  <TORSDO>
F 13

$$$$
=
 OpenBabel11032421273D

 34 36  0  0  1  0  0  0  0  0999 V2000
  185.7680  178.7470  141.5880 Cl  0  0  0  0  0  0  0  0  0  0  0  0
  180.7360  178.3180  143.8820 Cl  0  0  0  0  0  0  0  0  0  0  0  0
  181.8210  178.6870  142.5500 C   0  0  0  0  0  0  0  0  0  0  0  0
  183.3850  179.1530  140.2650 C   0  0  0  0  0  0  0  0  0  0  0  0
  181.9950  179.2240  140.1930 C   0  0  0  0  0  3  0  0  0  0  0  0
  181.2200  178.9870  141.3250 C   0  0  0  0  0  3  0  0  0  0  0  0
  183.2370  178.6250  142.6450 C   0  0  0  0  0  0  0  0  0  0  0  0
  184.0090  178.8420  141.4870 C   0  0  0  0  0  0  0  0  0  0  0  0
  183.9210  178.3420  143.8380 O   0  0  0  0  0  0  0  0  0  0  0  0
  184.2540  179.3020  144.8270 C   0  0  0  0  0  2  0  0  0  0  0  0
  184.7880  178.5980  146.0550 C   0  0  0  0  0  2  0  0  0  0  0  0
  186.1290  179.0080  146.2900 O   0  0  0  0  0  0  0  0  0  0  0  0
  188.8040  176.7310  144.2450 S   0  0  0  0  0  0  0  0  0  0  0  0
  189.4330  177.4680  146.7790 C   0  0  0  0  0  3  0  0  0  0  0  0
  189.9870  177.5160  145.3880 C   0  0  1  0  0  3  0  0  0  0  0  0
  187.7050  177.8160  148.4540 C   0  0  0  0  0  1  0  0  0  0  0  0
  187.2400  178.2220  145.9580 C   0  0  0  0  0  0  0  0  0  0  0  0
  187.4810  177.8710  144.6860 C   0  0  0  0  0  3  0  0  0  0  0  0
  188.1680  177.8140  147.0390 C   0  0  0  0  0  0  0  0  0  0  0  0
  191.9030  176.7530  146.6790 N   0  0  0  0  0  1  0  0  0  0  0  0
  191.3200  176.7910  145.3490 C   0  0  0  0  0  2  0  0  0  0  0  0
  184.1800  179.3870  139.0240 C   0  0  0  0  0  2  0  0  0  0  0  0
  184.3980  178.0760  138.2860 C   0  0  0  0  0  2  0  0  0  0  0  0
  185.8760  177.8650  138.0120 C   0  0  0  0  0  2  0  0  0  0  0  0
  187.4860  176.7560  136.3500 C   0  0  1  0  0  3  0  0  0  0  0  0
  186.7960  175.8260  137.1530 O   0  0  0  0  0  0  0  0  0  0  0  0
  186.0700  176.9740  136.7860 C   0  0  1  0  0  3  0  0  0  0  0  0
  189.1040  176.8150  138.3080 N   0  0  0  0  0  2  0  0  0  0  0  0
  188.9270  178.6030  136.8130 O   0  0  0  0  0  0  0  0  0  0  0  0
  188.5370  177.4570  137.1620 C   0  0  0  0  0  0  0  0  0  0  0  0
  190.1340  177.4400  139.1250 C   0  0  2  0  0  3  0  0  0  0  0  0
  191.3550  176.7910  138.9280 O   0  0  0  0  0  1  0  0  0  0  0  0
  189.7500  177.3690  140.5670 C   0  0  0  0  0  3  0  0  0  0  0  0
  189.0150  178.2110  141.0600 O   0  0  0  0  0  0  0  0  0  0  0  0
  3  7  1  0  0  0  0
  3  2  1  0  0  0  0
  4  8  1  0  0  0  0
  5  4  2  0  0  0  0
  5  6  1  0  0  0  0
  6  3  2  0  0  0  0
  7  9  1  0  0  0  0
  8  1  1  0  0  0  0
  8  7  2  0  0  0  0
  9 10  1  0  0  0  0
 10 11  1  0  0  0  0
 11 12  1  0  0  0  0
 13 18  1  0  0  0  0
 13 15  1  0  0  0  0
 14 19  2  0  0  0  0
 15 21  1  1  0  0  0
 15 14  1  0  0  0  0
 17 12  1  0  0  0  0
 17 19  1  0  0  0  0
 18 17  2  0  0  0  0
 19 16  1  0  0  0  0
 21 20  1  0  0  0  0
 22  4  1  0  0  0  0
 23 22  1  0  0  0  0
 24 23  1  0  0  0  0
 25 27  1  0  0  0  0
 25 26  1  0  0  0  0
 25 30  1  1  0  0  0
 27 26  1  0  0  0  0
 27 24  1  1  0  0  0
 28 31  1  0  0  0  0
 29 30  2  0  0  0  0
 30 28  1  0  0  0  0
 31 32  1  1  0  0  0
 31 33  1  0  0  0  0
 33 34  2  0  0  0  0
M  END
>  <MODEL>
7

>  <REMARK>
 VINA RESULT:      -7.4      3.171      7.717
  Name = 
  13 active torsions:
  status: ('A' for Active; 'I' for Inactive)
    1  A    between atoms: C_3  and  C_19
    2  A    between atoms: C_5  and  C_11
    3  A    between atoms: C_5  and  C_22
    4  A    between atoms: C_7  and  N_9
    5  A    between atoms: C_7  and  C_17
    6  A    between atoms: C_8  and  O_12
    7  A    between atoms: C_8  and  C_28
    8  A    between atoms: C_11  and  C_20
    9  A    between atoms: O_12  and  C_32
   10  A    between atoms: C_14  and  C_26
   11  A    between atoms: C_20  and  C_23
   12  A    between atoms: O_21  and  C_25
   13  A    between atoms: O_21  and  C_28
                            x       y       z     vdW  Elec       q    Type
                         _______ _______ _______ _____ _____    ______ ____

>  <TORSDO>
F 13

$$$$
=
 OpenBabel11032421273D

 34 36  0  0  1  0  0  0  0  0999 V2000
  190.5420  179.3980  144.1400 Cl  0  0  0  0  0  0  0  0  0  0  0  0
  192.3280  175.0130  147.0300 Cl  0  0  0  0  0  0  0  0  0  0  0  0
  191.8600  175.8190  145.5400 C   0  0  0  0  0  0  0  0  0  0  0  0
  191.3190  176.9900  143.0450 C   0  0  0  0  0  0  0  0  0  0  0  0
  191.7830  175.6780  143.1210 C   0  0  0  0  0  3  0  0  0  0  0  0
  192.0560  175.1000  144.3580 C   0  0  0  0  0  3  0  0  0  0  0  0
  191.3740  177.1520  145.4820 C   0  0  0  0  0  0  0  0  0  0  0  0
  191.1260  177.7340  144.2240 C   0  0  0  0  0  0  0  0  0  0  0  0
  191.1380  177.9400  146.6210 O   0  0  0  0  0  0  0  0  0  0  0  0
  190.3960  177.5220  147.7540 C   0  0  0  0  0  2  0  0  0  0  0  0
  189.0780  176.9320  147.3040 C   0  0  0  0  0  2  0  0  0  0  0  0
  188.5940  177.6560  146.1800 O   0  0  0  0  0  0  0  0  0  0  0  0
  184.6010  178.2840  146.6020 S   0  0  0  0  0  0  0  0  0  0  0  0
  185.6160  178.1870  144.0880 C   0  0  0  0  0  3  0  0  0  0  0  0
  184.7920  179.0730  144.9710 C   0  0  1  0  0  3  0  0  0  0  0  0
  187.5600  176.8220  143.5680 C   0  0  0  0  0  1  0  0  0  0  0  0
  187.2310  177.8320  145.9090 C   0  0  0  0  0  0  0  0  0  0  0  0
  186.3790  178.2060  146.8760 C   0  0  0  0  0  3  0  0  0  0  0  0
  186.7520  177.6310  144.5220 C   0  0  0  0  0  0  0  0  0  0  0  0
  183.4900  178.9760  142.9190 N   0  0  0  0  0  1  0  0  0  0  0  0
  183.4350  179.3030  144.3330 C   0  0  0  0  0  2  0  0  0  0  0  0
  191.0630  177.5850  141.7010 C   0  0  0  0  0  2  0  0  0  0  0  0
  190.1170  176.6990  140.9070 C   0  0  0  0  0  2  0  0  0  0  0  0
  189.1140  177.5470  140.1470 C   0  0  0  0  0  2  0  0  0  0  0  0
  188.8750  178.1750  137.6700 C   0  0  1  0  0  3  0  0  0  0  0  0
  189.0660  179.2940  138.5070 O   0  0  0  0  0  0  0  0  0  0  0  0
  189.7520  178.1250  138.8830 C   0  0  1  0  0  3  0  0  0  0  0  0
  186.4090  178.5170  138.1760 N   0  0  0  0  0  2  0  0  0  0  0  0
  187.2730  176.4050  137.6710 O   0  0  0  0  0  0  0  0  0  0  0  0
  187.4850  177.6350  137.8430 C   0  0  0  0  0  0  0  0  0  0  0  0
  185.0400  178.0530  138.3430 C   0  0  2  0  0  3  0  0  0  0  0  0
  184.5000  177.7090  137.1020 O   0  0  0  0  0  1  0  0  0  0  0  0
  184.2140  179.1250  138.9760 C   0  0  0  0  0  3  0  0  0  0  0  0
  184.6330  179.7500  139.9370 O   0  0  0  0  0  0  0  0  0  0  0  0
  1  8  1  0  0  0  0
  3  2  1  0  0  0  0
  4  5  2  0  0  0  0
  4  8  1  0  0  0  0
  5  6  1  0  0  0  0
  6  3  2  0  0  0  0
  7  3  1  0  0  0  0
  7  9  1  0  0  0  0
  8  7  2  0  0  0  0
  9 10  1  0  0  0  0
 11 10  1  0  0  0  0
 12 11  1  0  0  0  0
 13 18  1  0  0  0  0
 14 19  2  0  0  0  0
 14 15  1  0  0  0  0
 15 21  1  6  0  0  0
 15 13  1  0  0  0  0
 16 19  1  0  0  0  0
 17 12  1  0  0  0  0
 17 18  2  0  0  0  0
 19 17  1  0  0  0  0
 20 21  1  0  0  0  0
 22  4  1  0  0  0  0
 23 22  1  0  0  0  0
 24 23  1  0  0  0  0
 25 30  1  1  0  0  0
 25 26  1  0  0  0  0
 25 27  1  0  0  0  0
 26 27  1  0  0  0  0
 27 24  1  1  0  0  0
 28 31  1  0  0  0  0
 29 30  2  0  0  0  0
 30 28  1  0  0  0  0
 31 32  1  6  0  0  0
 31 33  1  0  0  0  0
 33 34  2  0  0  0  0
M  END
>  <MODEL>
8

>  <REMARK>
 VINA RESULT:      -7.3      2.662      5.862
  Name = 
  13 active torsions:
  status: ('A' for Active; 'I' for Inactive)
    1  A    between atoms: C_3  and  C_19
    2  A    between atoms: C_5  and  C_11
    3  A    between atoms: C_5  and  C_22
    4  A    between atoms: C_7  and  N_9
    5  A    between atoms: C_7  and  C_17
    6  A    between atoms: C_8  and  O_12
    7  A    between atoms: C_8  and  C_28
    8  A    between atoms: C_11  and  C_20
    9  A    between atoms: O_12  and  C_32
   10  A    between atoms: C_14  and  C_26
   11  A    between atoms: C_20  and  C_23
   12  A    between atoms: O_21  and  C_25
   13  A    between atoms: O_21  and  C_28
                            x       y       z     vdW  Elec       q    Type
                         _______ _______ _______ _____ _____    ______ ____

>  <TORSDO>
F 13

$$$$
=
 OpenBabel11032421273D

 34 36  0  0  1  0  0  0  0  0999 V2000
  187.8970  176.4780  143.3190 Cl  0  0  0  0  0  0  0  0  0  0  0  0
  189.0020  178.1610  148.4880 Cl  0  0  0  0  0  0  0  0  0  0  0  0
  189.4560  177.4690  146.9380 C   0  0  0  0  0  0  0  0  0  0  0  0
  190.4000  176.5100  144.4730 C   0  0  0  0  0  0  0  0  0  0  0  0
  191.2860  176.7410  145.5240 C   0  0  0  0  0  3  0  0  0  0  0  0
  190.8180  177.2210  146.7440 C   0  0  0  0  0  3  0  0  0  0  0  0
  188.5380  177.2260  145.8820 C   0  0  0  0  0  0  0  0  0  0  0  0
  189.0270  176.7640  144.6450 C   0  0  0  0  0  0  0  0  0  0  0  0
  187.1540  177.4350  145.9960 O   0  0  0  0  0  0  0  0  0  0  0  0
  186.5540  178.5920  146.5560 C   0  0  0  0  0  2  0  0  0  0  0  0
  185.3970  179.0310  145.6860 C   0  0  0  0  0  2  0  0  0  0  0  0
  185.1690  178.0570  144.6760 O   0  0  0  0  0  0  0  0  0  0  0  0
  185.1380  179.0040  140.7230 S   0  0  0  0  0  0  0  0  0  0  0  0
  182.7620  178.5040  141.9310 C   0  0  0  0  0  3  0  0  0  0  0  0
  183.5770  178.0660  140.7530 C   0  0  1  0  0  3  0  0  0  0  0  0
  182.4200  178.9950  144.2880 C   0  0  0  0  0  1  0  0  0  0  0  0
  184.7460  178.3810  143.3800 C   0  0  0  0  0  0  0  0  0  0  0  0
  185.6190  178.4350  142.3630 C   0  0  0  0  0  3  0  0  0  0  0  0
  183.3040  178.6290  143.1470 C   0  0  0  0  0  0  0  0  0  0  0  0
  182.6800  177.0710  138.7220 N   0  0  0  0  0  1  0  0  0  0  0  0
  182.7910  178.3070  139.4770 C   0  0  0  0  0  2  0  0  0  0  0  0
  190.9430  176.0200  143.1720 C   0  0  0  0  0  2  0  0  0  0  0  0
  191.0420  177.1680  142.1800 C   0  0  0  0  0  2  0  0  0  0  0  0
  190.3050  176.8210  140.8990 C   0  0  0  0  0  2  0  0  0  0  0  0
  189.3630  178.0680  138.8630 C   0  0  1  0  0  3  0  0  0  0  0  0
  188.3650  177.6630  139.7720 O   0  0  0  0  0  0  0  0  0  0  0  0
  189.5900  178.0520  140.3430 C   0  0  1  0  0  3  0  0  0  0  0  0
  191.2860  176.7540  137.8480 N   0  0  0  0  0  2  0  0  0  0  0  0
  189.0810  175.9870  137.7270 O   0  0  0  0  0  0  0  0  0  0  0  0
  189.8850  176.8790  138.1080 C   0  0  0  0  0  0  0  0  0  0  0  0
  191.8500  175.6190  137.1330 C   0  0  2  0  0  3  0  0  0  0  0  0
  191.8490  174.4900  137.9570 O   0  0  0  0  0  1  0  0  0  0  0  0
  193.2470  175.9310  136.7050 C   0  0  0  0  0  3  0  0  0  0  0  0
  194.1390  176.0580  137.5290 O   0  0  0  0  0  0  0  0  0  0  0  0
  1  8  1  0  0  0  0
  3  2  1  0  0  0  0
  4  8  2  0  0  0  0
  4  5  1  0  0  0  0
  5  6  2  0  0  0  0
  6  3  1  0  0  0  0
  7  9  1  0  0  0  0
  7  3  2  0  0  0  0
  8  7  1  0  0  0  0
  9 10  1  0  0  0  0
 11 10  1  0  0  0  0
 12 11  1  0  0  0  0
 13 15  1  0  0  0  0
 13 18  1  0  0  0  0
 14 19  2  0  0  0  0
 15 21  1  6  0  0  0
 15 14  1  0  0  0  0
 17 12  1  0  0  0  0
 18 17  2  0  0  0  0
 19 17  1  0  0  0  0
 19 16  1  0  0  0  0
 20 21  1  0  0  0  0
 22  4  1  0  0  0  0
 23 22  1  0  0  0  0
 24 23  1  0  0  0  0
 25 30  1  6  0  0  0
 25 26  1  0  0  0  0
 25 27  1  0  0  0  0
 26 27  1  0  0  0  0
 27 24  1  6  0  0  0
 28 30  1  0  0  0  0
 29 30  2  0  0  0  0
 31 28  1  0  0  0  0
 31 32  1  1  0  0  0
 33 31  1  0  0  0  0
 33 34  2  0  0  0  0
M  END
>  <MODEL>
9

>  <REMARK>
 VINA RESULT:      -7.3      2.619      6.470
  Name = 
  13 active torsions:
  status: ('A' for Active; 'I' for Inactive)
    1  A    between atoms: C_3  and  C_19
    2  A    between atoms: C_5  and  C_11
    3  A    between atoms: C_5  and  C_22
    4  A    between atoms: C_7  and  N_9
    5  A    between atoms: C_7  and  C_17
    6  A    between atoms: C_8  and  O_12
    7  A    between atoms: C_8  and  C_28
    8  A    between atoms: C_11  and  C_20
    9  A    between atoms: O_12  and  C_32
   10  A    between atoms: C_14  and  C_26
   11  A    between atoms: C_20  and  C_23
   12  A    between atoms: O_21  and  C_25
   13  A    between atoms: O_21  and  C_28
                            x       y       z     vdW  Elec       q    Type
                         _______ _______ _______ _____ _____    ______ ____

>  <TORSDO>
F 13

$$$$
