=
 OpenBabel11042410213D

 37 39  0  0  1  0  0  0  0  0999 V2000
  187.9580  177.4350  142.5410 C   0  0  0  0  0  2  0  0  0  0  0  0
  190.8210  177.3110  142.3200 C   0  0  0  0  0  0  0  0  0  0  0  0
  188.8230  177.8770  143.7190 C   0  0  0  0  0  2  0  0  0  0  0  0
  188.6500  177.6790  141.2210 C   0  0  0  0  0  0  0  0  0  0  0  0
  192.0650  177.0050  142.1510 N   0  0  0  0  0  2  0  0  0  0  0  0
  189.9840  177.5680  141.1370 C   0  0  0  0  0  3  0  0  0  0  0  0
  190.1780  177.1690  143.6800 C   0  0  2  0  0  3  0  0  0  0  0  0
  187.9710  178.2550  137.4990 C   0  0  1  0  0  3  0  0  0  0  0  0
  185.6150  178.6290  137.9500 N   0  0  0  0  0  0  0  0  0  0  0  0
  187.8450  177.9380  140.0020 C   0  0  0  0  0  0  0  0  0  0  0  0
  185.6280  178.8980  139.2240 C   0  0  0  0  0  0  0  0  0  0  0  0
  186.6740  178.5040  140.1380 N   0  0  0  0  0  0  0  0  0  0  0  0
  186.5610  177.8350  137.1880 C   0  0  0  0  0  2  0  0  0  0  0  0
  188.4070  177.4530  138.6960 C   0  0  0  0  0  2  0  0  0  0  0  0
  184.5480  179.6580  139.7520 N   0  0  0  0  0  1  0  0  0  0  0  0
  189.0780  177.9450  136.0760 S   0  0  0  0  0  0  0  0  0  0  0  0
  190.1420  174.1070  137.1440 C   0  0  0  0  0  2  0  0  0  0  0  0
  189.0110  173.9280  136.2960 O   0  0  0  0  0  0  0  0  0  0  0  0
  189.3060  176.2140  136.4040 N   0  0  0  0  0  0  0  0  0  0  0  0
  190.3740  175.6340  137.2070 C   0  0  2  0  0  3  0  0  0  0  0  0
  187.5100  175.3000  135.0560 C   0  0  0  0  0  2  0  0  0  0  0  0
  188.5420  175.1500  135.8760 C   0  0  0  0  0  0  0  0  0  0  0  0
  191.7540  176.0120  136.6680 C   0  0  0  0  0  2  0  0  0  0  0  0
  193.7970  175.3030  137.8740 C   0  0  0  0  0  1  0  0  0  0  0  0
  192.7350  176.3760  137.7720 C   0  0  0  0  0  2  0  0  0  0  0  0
  191.0570  177.6930  144.7800 C   0  0  0  0  0  0  0  0  0  0  0  0
  191.7070  178.7160  144.6210 O   0  0  0  0  0  0  0  0  0  0  0  0
  191.1660  176.9370  146.0650 C   0  0  0  0  0  2  0  0  0  0  0  0
  189.2450  177.9080  147.1500 N   0  0  0  0  0  0  0  0  0  0  0  0
  189.8370  176.8470  146.7410 C   0  0  0  0  0  3  0  0  0  0  0  0
  187.9700  177.8140  147.8070 C   0  0  0  0  0  2  0  0  0  0  0  0
  186.9060  177.8250  146.8160 N   0  0  0  0  0  2  0  0  0  0  0  0
  185.9510  179.8150  147.5770 O   0  0  0  0  0  0  0  0  0  0  0  0
  185.9280  178.8680  146.7450 C   0  0  0  0  0  0  0  0  0  0  0  0
  185.2620  178.7750  144.2650 C   0  0  0  0  0  1  0  0  0  0  0  0
  184.8910  178.8360  145.7050 C   0  0  0  0  0  0  0  0  0  0  0  0
  183.6740  178.8600  146.0250 O   0  0  0  0  0  0  0  0  0  0  0  0
  1  3  1  0  0  0  0
  2  7  1  0  0  0  0
  4  1  1  0  0  0  0
  5  2  2  0  0  0  0
  6  4  2  0  0  0  0
  6  2  1  0  0  0  0
  7  3  1  0  0  0  0
  7 26  1  1  0  0  0
  8 16  1  6  0  0  0
  8 14  1  0  0  0  0
  9 11  2  0  0  0  0
 10 12  2  0  0  0  0
 10  4  1  0  0  0  0
 11 15  1  0  0  0  0
 11 12  1  0  0  0  0
 13  8  1  0  0  0  0
 13  9  1  0  0  0  0
 14 10  1  0  0  0  0
 16 19  1  0  0  0  0
 17 20  1  0  0  0  0
 18 17  1  0  0  0  0
 19 20  1  0  0  0  0
 20 23  1  6  0  0  0
 21 22  2  0  0  0  0
 22 18  1  0  0  0  0
 22 19  1  0  0  0  0
 23 25  1  0  0  0  0
 25 24  1  0  0  0  0
 26 28  1  0  0  0  0
 27 26  2  0  0  0  0
 28 30  1  0  0  0  0
 29 31  1  0  0  0  0
 30 29  2  0  0  0  0
 32 31  1  0  0  0  0
 34 32  1  0  0  0  0
 34 33  2  0  0  0  0
 35 36  1  0  0  0  0
 36 37  2  0  0  0  0
 36 34  1  0  0  0  0
M  END
>  <MODEL>
1

>  <REMARK>
 VINA RESULT:      -8.2      0.000      0.000
  Name = 
  11 active torsions:
  status: ('A' for Active; 'I' for Inactive)
    1  A    between atoms: C_2  and  C_7
    2  A    between atoms: C_2  and  C_33
    3  A    between atoms: C_3  and  S_37
    4  A    between atoms: N_6  and  C_16
    5  A    between atoms: C_7  and  C_24
    6  A    between atoms: C_8  and  C_27
    7  A    between atoms: C_10  and  C_25
    8  A    between atoms: C_12  and  C_28
    9  A    between atoms: C_16  and  N_18
   10  A    between atoms: N_26  and  S_37
   11  A    between atoms: C_27  and  C_31
                            x       y       z     vdW  Elec       q    Type
                         _______ _______ _______ _____ _____    ______ ____

>  <TORSDO>
F 11

$$$$
=
 OpenBabel11042410213D

 37 39  0  0  1  0  0  0  0  0999 V2000
  186.3450  177.8810  143.7150 C   0  0  0  0  0  2  0  0  0  0  0  0
  185.9590  178.9030  146.3740 C   0  0  0  0  0  0  0  0  0  0  0  0
  187.0930  177.2420  144.8820 C   0  0  0  0  0  2  0  0  0  0  0  0
  185.0110  178.4420  144.1500 C   0  0  0  0  0  0  0  0  0  0  0  0
  185.8460  179.5940  147.4600 N   0  0  0  0  0  2  0  0  0  0  0  0
  184.8730  178.9550  145.3820 C   0  0  0  0  0  3  0  0  0  0  0  0
  187.2740  178.2510  146.0160 C   0  0  2  0  0  3  0  0  0  0  0  0
  183.3000  179.0060  140.7740 C   0  0  1  0  0  3  0  0  0  0  0  0
  181.1210  178.6240  141.7750 N   0  0  0  0  0  0  0  0  0  0  0  0
  183.8910  178.5180  143.1810 C   0  0  0  0  0  0  0  0  0  0  0  0
  181.3730  178.8090  143.0390 C   0  0  0  0  0  0  0  0  0  0  0  0
  182.6800  178.6950  143.6420 N   0  0  0  0  0  0  0  0  0  0  0  0
  182.0310  178.2000  140.7270 C   0  0  0  0  0  2  0  0  0  0  0  0
  184.2240  178.3040  141.7320 C   0  0  0  0  0  2  0  0  0  0  0  0
  180.2900  179.1760  143.8840 N   0  0  0  0  0  1  0  0  0  0  0  0
  184.0620  179.1280  139.1160 S   0  0  0  0  0  0  0  0  0  0  0  0
  180.7150  178.2600  136.8700 C   0  0  0  0  0  2  0  0  0  0  0  0
  180.5650  179.6400  137.1930 O   0  0  0  0  0  0  0  0  0  0  0  0
  182.5370  179.0110  138.2130 N   0  0  0  0  0  0  0  0  0  0  0  0
  182.0470  177.8260  137.5220 C   0  0  2  0  0  3  0  0  0  0  0  0
  181.7710  181.3030  138.3980 C   0  0  0  0  0  2  0  0  0  0  0  0
  181.6240  180.0590  137.9640 C   0  0  0  0  0  0  0  0  0  0  0  0
  183.0450  177.3290  136.4750 C   0  0  0  0  0  2  0  0  0  0  0  0
  183.1050  175.5240  138.1700 C   0  0  0  0  0  1  0  0  0  0  0  0
  183.6210  175.9630  136.8170 C   0  0  0  0  0  2  0  0  0  0  0  0
  187.9140  177.5800  147.1980 C   0  0  0  0  0  0  0  0  0  0  0  0
  187.2620  176.8410  147.9210 O   0  0  0  0  0  0  0  0  0  0  0  0
  189.3510  177.8460  147.5140 C   0  0  0  0  0  2  0  0  0  0  0  0
  190.6840  177.5040  145.5350 N   0  0  0  0  0  0  0  0  0  0  0  0
  190.2450  177.0280  146.6410 C   0  0  0  0  0  3  0  0  0  0  0  0
  191.5390  176.7100  144.6960 C   0  0  0  0  0  2  0  0  0  0  0  0
  191.3640  177.1020  143.3060 N   0  0  0  0  0  2  0  0  0  0  0  0
  189.5810  175.6470  142.9150 O   0  0  0  0  0  0  0  0  0  0  0  0
  190.3510  176.5380  142.4670 C   0  0  0  0  0  0  0  0  0  0  0  0
  188.9080  177.5210  140.5810 C   0  0  0  0  0  1  0  0  0  0  0  0
  190.2090  176.9940  141.0780 C   0  0  0  0  0  0  0  0  0  0  0  0
  191.1910  176.9420  140.2920 O   0  0  0  0  0  0  0  0  0  0  0  0
  1  4  1  0  0  0  0
  1  3  1  0  0  0  0
  2  5  2  0  0  0  0
  3  7  1  0  0  0  0
  4  6  2  0  0  0  0
  6  2  1  0  0  0  0
  7  2  1  0  0  0  0
  7 26  1  1  0  0  0
  8 16  1  6  0  0  0
  8 14  1  0  0  0  0
  9 11  2  0  0  0  0
 10 12  2  0  0  0  0
 10  4  1  0  0  0  0
 11 12  1  0  0  0  0
 11 15  1  0  0  0  0
 13  8  1  0  0  0  0
 13  9  1  0  0  0  0
 14 10  1  0  0  0  0
 17 18  1  0  0  0  0
 17 20  1  0  0  0  0
 18 22  1  0  0  0  0
 19 16  1  0  0  0  0
 20 23  1  6  0  0  0
 20 19  1  0  0  0  0
 22 19  1  0  0  0  0
 22 21  2  0  0  0  0
 23 25  1  0  0  0  0
 25 24  1  0  0  0  0
 26 28  1  0  0  0  0
 26 27  2  0  0  0  0
 29 30  2  0  0  0  0
 30 28  1  0  0  0  0
 31 29  1  0  0  0  0
 32 31  1  0  0  0  0
 34 33  2  0  0  0  0
 34 32  1  0  0  0  0
 35 36  1  0  0  0  0
 36 34  1  0  0  0  0
 37 36  2  0  0  0  0
M  END
>  <MODEL>
2

>  <REMARK>
 VINA RESULT:      -8.1      3.531      6.694
  Name = 
  11 active torsions:
  status: ('A' for Active; 'I' for Inactive)
    1  A    between atoms: C_2  and  C_7
    2  A    between atoms: C_2  and  C_33
    3  A    between atoms: C_3  and  S_37
    4  A    between atoms: N_6  and  C_16
    5  A    between atoms: C_7  and  C_24
    6  A    between atoms: C_8  and  C_27
    7  A    between atoms: C_10  and  C_25
    8  A    between atoms: C_12  and  C_28
    9  A    between atoms: C_16  and  N_18
   10  A    between atoms: N_26  and  S_37
   11  A    between atoms: C_27  and  C_31
                            x       y       z     vdW  Elec       q    Type
                         _______ _______ _______ _____ _____    ______ ____

>  <TORSDO>
F 11

$$$$
=
 OpenBabel11042410213D

 37 39  0  0  1  0  0  0  0  0999 V2000
  188.6080  178.1770  142.3760 C   0  0  0  0  0  2  0  0  0  0  0  0
  190.7010  176.3270  143.0530 C   0  0  0  0  0  0  0  0  0  0  0  0
  189.5720  178.5150  143.5110 C   0  0  0  0  0  2  0  0  0  0  0  0
  189.2710  177.3270  141.3180 C   0  0  0  0  0  0  0  0  0  0  0  0
  191.4450  175.3210  143.3730 N   0  0  0  0  0  2  0  0  0  0  0  0
  190.2120  176.4380  141.6690 C   0  0  0  0  0  3  0  0  0  0  0  0
  190.1430  177.2350  144.1230 C   0  0  2  0  0  3  0  0  0  0  0  0
  186.8160  177.9150  138.4420 C   0  0  1  0  0  3  0  0  0  0  0  0
  188.4890  177.2200  136.8240 N   0  0  0  0  0  0  0  0  0  0  0  0
  188.8060  177.4050  139.9110 C   0  0  0  0  0  0  0  0  0  0  0  0
  189.3250  176.5600  137.5740 C   0  0  0  0  0  0  0  0  0  0  0  0
  189.4590  176.7290  139.0020 N   0  0  0  0  0  0  0  0  0  0  0  0
  187.5890  178.2920  137.2070 C   0  0  0  0  0  2  0  0  0  0  0  0
  187.6560  178.3260  139.6210 C   0  0  0  0  0  2  0  0  0  0  0  0
  190.1480  175.5830  136.9490 N   0  0  0  0  0  1  0  0  0  0  0  0
  185.1920  178.7550  138.4820 S   0  0  0  0  0  0  0  0  0  0  0  0
  183.1870  175.1820  138.0260 C   0  0  0  0  0  2  0  0  0  0  0  0
  182.6690  175.7150  139.2410 O   0  0  0  0  0  0  0  0  0  0  0  0
  184.2250  177.2670  138.5370 N   0  0  0  0  0  0  0  0  0  0  0  0
  184.2140  176.2220  137.5230 C   0  0  2  0  0  3  0  0  0  0  0  0
  182.9780  177.6620  140.5780 C   0  0  0  0  0  2  0  0  0  0  0  0
  183.2740  176.9180  139.5200 C   0  0  0  0  0  0  0  0  0  0  0  0
  183.8240  176.7720  136.1500 C   0  0  0  0  0  2  0  0  0  0  0  0
  185.7890  175.3650  135.6120 C   0  0  0  0  0  1  0  0  0  0  0  0
  184.8040  176.3710  135.0580 C   0  0  0  0  0  2  0  0  0  0  0  0
  191.1700  177.5830  145.1640 C   0  0  0  0  0  0  0  0  0  0  0  0
  192.0500  178.3950  144.9200 O   0  0  0  0  0  0  0  0  0  0  0  0
  191.1360  176.9040  146.4950 C   0  0  0  0  0  2  0  0  0  0  0  0
  189.1110  177.8650  147.3810 N   0  0  0  0  0  0  0  0  0  0  0  0
  189.7360  176.8110  147.0070 C   0  0  0  0  0  3  0  0  0  0  0  0
  187.7660  177.7690  147.8800 C   0  0  0  0  0  2  0  0  0  0  0  0
  186.8280  177.7810  146.7690 N   0  0  0  0  0  2  0  0  0  0  0  0
  185.7060  179.7000  147.4820 O   0  0  0  0  0  0  0  0  0  0  0  0
  185.8230  178.7880  146.6190 C   0  0  0  0  0  0  0  0  0  0  0  0
  185.4010  178.2850  144.1340 C   0  0  0  0  0  1  0  0  0  0  0  0
  184.9200  178.7610  145.4600 C   0  0  0  0  0  0  0  0  0  0  0  0
  183.7270  179.1430  145.5800 O   0  0  0  0  0  0  0  0  0  0  0  0
  1  3  1  0  0  0  0
  2  5  2  0  0  0  0
  2  7  1  0  0  0  0
  3  7  1  0  0  0  0
  4  6  2  0  0  0  0
  4  1  1  0  0  0  0
  6  2  1  0  0  0  0
  7 26  1  1  0  0  0
  8 16  1  6  0  0  0
  8 14  1  0  0  0  0
  9 13  1  0  0  0  0
  9 11  2  0  0  0  0
 10  4  1  0  0  0  0
 11 12  1  0  0  0  0
 12 10  2  0  0  0  0
 13  8  1  0  0  0  0
 14 10  1  0  0  0  0
 15 11  1  0  0  0  0
 16 19  1  0  0  0  0
 17 18  1  0  0  0  0
 18 22  1  0  0  0  0
 19 22  1  0  0  0  0
 20 23  1  6  0  0  0
 20 17  1  0  0  0  0
 20 19  1  0  0  0  0
 22 21  2  0  0  0  0
 25 24  1  0  0  0  0
 25 23  1  0  0  0  0
 26 28  1  0  0  0  0
 27 26  2  0  0  0  0
 28 30  1  0  0  0  0
 29 31  1  0  0  0  0
 30 29  2  0  0  0  0
 32 31  1  0  0  0  0
 34 32  1  0  0  0  0
 34 33  2  0  0  0  0
 35 36  1  0  0  0  0
 36 37  2  0  0  0  0
 36 34  1  0  0  0  0
M  END
>  <MODEL>
3

>  <REMARK>
 VINA RESULT:      -8.1      2.170      4.088
  Name = 
  11 active torsions:
  status: ('A' for Active; 'I' for Inactive)
    1  A    between atoms: C_2  and  C_7
    2  A    between atoms: C_2  and  C_33
    3  A    between atoms: C_3  and  S_37
    4  A    between atoms: N_6  and  C_16
    5  A    between atoms: C_7  and  C_24
    6  A    between atoms: C_8  and  C_27
    7  A    between atoms: C_10  and  C_25
    8  A    between atoms: C_12  and  C_28
    9  A    between atoms: C_16  and  N_18
   10  A    between atoms: N_26  and  S_37
   11  A    between atoms: C_27  and  C_31
                            x       y       z     vdW  Elec       q    Type
                         _______ _______ _______ _____ _____    ______ ____

>  <TORSDO>
F 11

$$$$
=
 OpenBabel11042410213D

 37 39  0  0  1  0  0  0  0  0999 V2000
  188.5320  177.3060  141.9870 C   0  0  0  0  0  2  0  0  0  0  0  0
  190.8060  176.3150  143.4390 C   0  0  0  0  0  0  0  0  0  0  0  0
  188.8850  177.9180  143.3400 C   0  0  0  0  0  2  0  0  0  0  0  0
  189.7620  176.8070  141.2660 C   0  0  0  0  0  0  0  0  0  0  0  0
  191.7140  175.6360  144.0580 N   0  0  0  0  0  2  0  0  0  0  0  0
  190.7890  176.3060  141.9680 C   0  0  0  0  0  3  0  0  0  0  0  0
  189.6430  176.9070  144.2010 C   0  0  2  0  0  3  0  0  0  0  0  0
  188.4900  177.3910  137.7040 C   0  0  1  0  0  3  0  0  0  0  0  0
  190.4280  176.2520  136.7870 N   0  0  0  0  0  0  0  0  0  0  0  0
  189.7860  176.7750  139.7830 C   0  0  0  0  0  0  0  0  0  0  0  0
  190.8490  175.5740  137.8160 C   0  0  0  0  0  0  0  0  0  0  0  0
  190.5560  175.8980  139.1910 N   0  0  0  0  0  0  0  0  0  0  0  0
  189.6670  177.4880  136.7730 C   0  0  0  0  0  2  0  0  0  0  0  0
  188.9770  177.8160  139.0640 C   0  0  0  0  0  2  0  0  0  0  0  0
  191.6320  174.4120  137.5680 N   0  0  0  0  0  1  0  0  0  0  0  0
  187.1200  178.4660  137.1450 S   0  0  0  0  0  0  0  0  0  0  0  0
  184.5080  175.2770  137.2360 C   0  0  0  0  0  2  0  0  0  0  0  0
  183.8300  176.2990  137.9610 O   0  0  0  0  0  0  0  0  0  0  0  0
  185.8440  177.2490  137.3550 N   0  0  0  0  0  0  0  0  0  0  0  0
  185.8510  175.9040  136.7970 C   0  0  2  0  0  3  0  0  0  0  0  0
  184.2320  178.5550  138.6100 C   0  0  0  0  0  2  0  0  0  0  0  0
  184.6100  177.4300  138.0190 C   0  0  0  0  0  0  0  0  0  0  0  0
  185.9840  175.9260  135.2730 C   0  0  0  0  0  2  0  0  0  0  0  0
  187.6850  174.1660  135.6450 C   0  0  0  0  0  1  0  0  0  0  0  0
  187.3110  175.3590  134.7930 C   0  0  0  0  0  2  0  0  0  0  0  0
  190.0770  177.5560  145.4850 C   0  0  0  0  0  0  0  0  0  0  0  0
  191.0060  178.3500  145.4960 O   0  0  0  0  0  0  0  0  0  0  0  0
  189.3920  177.1990  146.7650 C   0  0  0  0  0  2  0  0  0  0  0  0
  187.2360  178.2740  146.6920 N   0  0  0  0  0  0  0  0  0  0  0  0
  187.9090  177.1880  146.5860 C   0  0  0  0  0  3  0  0  0  0  0  0
  185.8080  178.2560  146.5270 C   0  0  0  0  0  2  0  0  0  0  0  0
  185.4760  178.3080  145.1120 N   0  0  0  0  0  2  0  0  0  0  0  0
  183.3540  179.2210  145.4420 O   0  0  0  0  0  0  0  0  0  0  0  0
  184.2290  178.8170  144.6300 C   0  0  0  0  0  0  0  0  0  0  0  0
  185.0740  179.0570  142.2150 C   0  0  0  0  0  1  0  0  0  0  0  0
  183.9630  178.8670  143.1860 C   0  0  0  0  0  0  0  0  0  0  0  0
  182.7850  178.7490  142.7570 O   0  0  0  0  0  0  0  0  0  0  0  0
  1  3  1  0  0  0  0
  2  5  2  0  0  0  0
  2  7  1  0  0  0  0
  3  7  1  0  0  0  0
  4  6  2  0  0  0  0
  4  1  1  0  0  0  0
  6  2  1  0  0  0  0
  7 26  1  1  0  0  0
  8 16  1  6  0  0  0
  8 14  1  0  0  0  0
  9 11  2  0  0  0  0
 10  4  1  0  0  0  0
 11 12  1  0  0  0  0
 12 10  2  0  0  0  0
 13  9  1  0  0  0  0
 13  8  1  0  0  0  0
 14 10  1  0  0  0  0
 15 11  1  0  0  0  0
 16 19  1  0  0  0  0
 17 18  1  0  0  0  0
 18 22  1  0  0  0  0
 19 22  1  0  0  0  0
 20 23  1  6  0  0  0
 20 17  1  0  0  0  0
 20 19  1  0  0  0  0
 22 21  2  0  0  0  0
 25 23  1  0  0  0  0
 25 24  1  0  0  0  0
 26 27  2  0  0  0  0
 26 28  1  0  0  0  0
 30 29  2  0  0  0  0
 30 28  1  0  0  0  0
 31 29  1  0  0  0  0
 32 31  1  0  0  0  0
 34 32  1  0  0  0  0
 34 33  2  0  0  0  0
 35 36  1  0  0  0  0
 36 34  1  0  0  0  0
 37 36  2  0  0  0  0
M  END
>  <MODEL>
4

>  <REMARK>
 VINA RESULT:      -7.9      1.949      3.893
  Name = 
  11 active torsions:
  status: ('A' for Active; 'I' for Inactive)
    1  A    between atoms: C_2  and  C_7
    2  A    between atoms: C_2  and  C_33
    3  A    between atoms: C_3  and  S_37
    4  A    between atoms: N_6  and  C_16
    5  A    between atoms: C_7  and  C_24
    6  A    between atoms: C_8  and  C_27
    7  A    between atoms: C_10  and  C_25
    8  A    between atoms: C_12  and  C_28
    9  A    between atoms: C_16  and  N_18
   10  A    between atoms: N_26  and  S_37
   11  A    between atoms: C_27  and  C_31
                            x       y       z     vdW  Elec       q    Type
                         _______ _______ _______ _____ _____    ______ ____

>  <TORSDO>
F 11

$$$$
=
 OpenBabel11042410213D

 37 39  0  0  1  0  0  0  0  0999 V2000
  185.1530  178.3920  142.9360 C   0  0  0  0  0  2  0  0  0  0  0  0
  185.2590  178.8460  145.7730 C   0  0  0  0  0  0  0  0  0  0  0  0
  186.2400  177.7130  143.7660 C   0  0  0  0  0  2  0  0  0  0  0  0
  183.8920  178.6060  143.7410 C   0  0  0  0  0  0  0  0  0  0  0  0
  185.3060  179.3030  146.9800 N   0  0  0  0  0  2  0  0  0  0  0  0
  183.9750  178.8620  145.0550 C   0  0  0  0  0  3  0  0  0  0  0  0
  186.5340  178.5270  145.0270 C   0  0  2  0  0  3  0  0  0  0  0  0
  181.3990  179.2800  140.9170 C   0  0  1  0  0  3  0  0  0  0  0  0
  179.5600  178.5290  142.3140 N   0  0  0  0  0  0  0  0  0  0  0  0
  182.5760  178.6350  143.0570 C   0  0  0  0  0  0  0  0  0  0  0  0
  180.0780  178.6180  143.5050 C   0  0  0  0  0  0  0  0  0  0  0  0
  181.4930  178.6110  143.7900 N   0  0  0  0  0  0  0  0  0  0  0  0
  180.2410  178.3290  141.0480 C   0  0  0  0  0  2  0  0  0  0  0  0
  182.5850  178.6090  141.5550 C   0  0  0  0  0  2  0  0  0  0  0  0
  179.1880  178.7600  144.6060 N   0  0  0  0  0  1  0  0  0  0  0  0
  181.7400  179.6610  139.1610 S   0  0  0  0  0  0  0  0  0  0  0  0
  183.1690  175.8940  138.2880 C   0  0  0  0  0  2  0  0  0  0  0  0
  181.8700  175.9140  137.7030 O   0  0  0  0  0  0  0  0  0  0  0  0
  182.1020  177.9890  138.6850 N   0  0  0  0  0  0  0  0  0  0  0  0
  183.3550  177.2870  138.9290 C   0  0  2  0  0  3  0  0  0  0  0  0
  180.0620  177.4490  137.4930 C   0  0  0  0  0  2  0  0  0  0  0  0
  181.2690  177.1280  137.9370 C   0  0  0  0  0  0  0  0  0  0  0  0
  184.5450  178.0290  138.3170 C   0  0  0  0  0  2  0  0  0  0  0  0
  186.6060  177.5790  137.0200 C   0  0  0  0  0  1  0  0  0  0  0  0
  185.1180  177.3150  137.1020 C   0  0  0  0  0  2  0  0  0  0  0  0
  187.5260  177.7940  145.8860 C   0  0  0  0  0  0  0  0  0  0  0  0
  187.1510  176.9420  146.6770 O   0  0  0  0  0  0  0  0  0  0  0  0
  188.9780  178.1360  145.7970 C   0  0  0  0  0  2  0  0  0  0  0  0
  190.3300  176.5930  144.5310 N   0  0  0  0  0  0  0  0  0  0  0  0
  189.5670  177.6230  144.5240 C   0  0  0  0  0  3  0  0  0  0  0  0
  190.9000  176.1090  143.3040 C   0  0  0  0  0  2  0  0  0  0  0  0
  190.0470  176.4810  142.1860 N   0  0  0  0  0  2  0  0  0  0  0  0
  191.7500  177.5300  140.9820 O   0  0  0  0  0  0  0  0  0  0  0  0
  190.5390  177.1850  141.0410 C   0  0  0  0  0  0  0  0  0  0  0  0
  188.3820  178.2820  140.1740 C   0  0  0  0  0  1  0  0  0  0  0  0
  189.6330  177.5110  139.9320 C   0  0  0  0  0  0  0  0  0  0  0  0
  189.9090  177.1390  138.7610 O   0  0  0  0  0  0  0  0  0  0  0  0
  1  4  1  0  0  0  0
  1  3  1  0  0  0  0
  2  5  2  0  0  0  0
  3  7  1  0  0  0  0
  4  6  2  0  0  0  0
  6  2  1  0  0  0  0
  7  2  1  0  0  0  0
  7 26  1  1  0  0  0
  8 16  1  6  0  0  0
  8 13  1  0  0  0  0
  8 14  1  0  0  0  0
  9 11  2  0  0  0  0
 10  4  1  0  0  0  0
 10 12  2  0  0  0  0
 11 12  1  0  0  0  0
 11 15  1  0  0  0  0
 13  9  1  0  0  0  0
 14 10  1  0  0  0  0
 17 20  1  0  0  0  0
 18 22  1  0  0  0  0
 18 17  1  0  0  0  0
 19 20  1  0  0  0  0
 19 16  1  0  0  0  0
 20 23  1  6  0  0  0
 21 22  2  0  0  0  0
 22 19  1  0  0  0  0
 24 25  1  0  0  0  0
 25 23  1  0  0  0  0
 26 27  2  0  0  0  0
 28 26  1  0  0  0  0
 30 29  2  0  0  0  0
 30 28  1  0  0  0  0
 31 29  1  0  0  0  0
 32 31  1  0  0  0  0
 33 34  2  0  0  0  0
 34 32  1  0  0  0  0
 36 35  1  0  0  0  0
 36 34  1  0  0  0  0
 37 36  2  0  0  0  0
M  END
>  <MODEL>
5

>  <REMARK>
 VINA RESULT:      -7.8      3.756      6.710
  Name = 
  11 active torsions:
  status: ('A' for Active; 'I' for Inactive)
    1  A    between atoms: C_2  and  C_7
    2  A    between atoms: C_2  and  C_33
    3  A    between atoms: C_3  and  S_37
    4  A    between atoms: N_6  and  C_16
    5  A    between atoms: C_7  and  C_24
    6  A    between atoms: C_8  and  C_27
    7  A    between atoms: C_10  and  C_25
    8  A    between atoms: C_12  and  C_28
    9  A    between atoms: C_16  and  N_18
   10  A    between atoms: N_26  and  S_37
   11  A    between atoms: C_27  and  C_31
                            x       y       z     vdW  Elec       q    Type
                         _______ _______ _______ _____ _____    ______ ____

>  <TORSDO>
F 11

$$$$
=
 OpenBabel11042410213D

 37 39  0  0  1  0  0  0  0  0999 V2000
  188.8040  177.8840  141.1490 C   0  0  0  0  0  2  0  0  0  0  0  0
  190.8770  176.6370  142.7010 C   0  0  0  0  0  0  0  0  0  0  0  0
  189.3730  178.6100  142.3650 C   0  0  0  0  0  2  0  0  0  0  0  0
  189.8380  176.9950  140.4990 C   0  0  0  0  0  0  0  0  0  0  0  0
  191.6430  175.8740  143.4090 N   0  0  0  0  0  2  0  0  0  0  0  0
  190.7660  176.3890  141.2550 C   0  0  0  0  0  3  0  0  0  0  0  0
  189.9320  177.6050  143.3730 C   0  0  2  0  0  3  0  0  0  0  0  0
  188.4370  177.1710  136.9430 C   0  0  1  0  0  3  0  0  0  0  0  0
  190.1220  175.6050  136.1630 N   0  0  0  0  0  0  0  0  0  0  0  0
  189.7610  176.7140  139.0450 C   0  0  0  0  0  0  0  0  0  0  0  0
  190.5030  175.0500  137.2770 C   0  0  0  0  0  0  0  0  0  0  0  0
  190.3520  175.6410  138.5860 N   0  0  0  0  0  0  0  0  0  0  0  0
  189.5520  176.9250  135.9640 C   0  0  0  0  0  2  0  0  0  0  0  0
  189.0690  177.7340  138.1870 C   0  0  0  0  0  2  0  0  0  0  0  0
  191.0880  173.7550  137.2060 N   0  0  0  0  0  1  0  0  0  0  0  0
  187.2080  178.3390  136.2570 S   0  0  0  0  0  0  0  0  0  0  0  0
  183.8230  176.7900  138.0310 C   0  0  0  0  0  2  0  0  0  0  0  0
  184.2640  175.7510  137.1620 O   0  0  0  0  0  0  0  0  0  0  0  0
  185.7820  177.4600  136.8460 N   0  0  0  0  0  0  0  0  0  0  0  0
  184.8450  177.9360  137.8550 C   0  0  2  0  0  3  0  0  0  0  0  0
  186.0460  175.3820  135.6260 C   0  0  0  0  0  2  0  0  0  0  0  0
  185.3940  176.1500  136.4890 C   0  0  0  0  0  0  0  0  0  0  0  0
  185.5520  178.2620  139.1720 C   0  0  0  0  0  2  0  0  0  0  0  0
  185.4260  179.2970  141.4180 C   0  0  0  0  0  1  0  0  0  0  0  0
  184.6440  178.9750  140.1630 C   0  0  0  0  0  2  0  0  0  0  0  0
  190.5840  178.3360  144.5130 C   0  0  0  0  0  0  0  0  0  0  0  0
  191.0430  179.4570  144.3500 O   0  0  0  0  0  0  0  0  0  0  0  0
  190.7040  177.6720  145.8470 C   0  0  0  0  0  2  0  0  0  0  0  0
  189.2150  177.9680  147.7190 N   0  0  0  0  0  0  0  0  0  0  0  0
  189.3700  177.5710  146.5100 C   0  0  0  0  0  3  0  0  0  0  0  0
  187.9300  177.8610  148.3550 C   0  0  0  0  0  2  0  0  0  0  0  0
  186.8900  177.7500  147.3450 N   0  0  0  0  0  2  0  0  0  0  0  0
  186.0630  179.9070  147.6780 O   0  0  0  0  0  0  0  0  0  0  0  0
  185.9900  178.8210  147.0430 C   0  0  0  0  0  0  0  0  0  0  0  0
  185.3420  178.0950  144.6640 C   0  0  0  0  0  1  0  0  0  0  0  0
  184.9760  178.6570  145.9930 C   0  0  0  0  0  0  0  0  0  0  0  0
  183.7820  178.9930  146.2100 O   0  0  0  0  0  0  0  0  0  0  0  0
  1  3  1  0  0  0  0
  2  7  1  0  0  0  0
  2  5  2  0  0  0  0
  3  7  1  0  0  0  0
  4  1  1  0  0  0  0
  4  6  2  0  0  0  0
  6  2  1  0  0  0  0
  7 26  1  1  0  0  0
  8 16  1  6  0  0  0
  8 14  1  0  0  0  0
  9 11  2  0  0  0  0
 10  4  1  0  0  0  0
 11 12  1  0  0  0  0
 12 10  2  0  0  0  0
 13  9  1  0  0  0  0
 13  8  1  0  0  0  0
 14 10  1  0  0  0  0
 15 11  1  0  0  0  0
 16 19  1  0  0  0  0
 18 17  1  0  0  0  0
 19 20  1  0  0  0  0
 20 17  1  0  0  0  0
 20 23  1  1  0  0  0
 21 22  2  0  0  0  0
 22 19  1  0  0  0  0
 22 18  1  0  0  0  0
 23 25  1  0  0  0  0
 25 24  1  0  0  0  0
 26 28  1  0  0  0  0
 27 26  2  0  0  0  0
 28 30  1  0  0  0  0
 29 31  1  0  0  0  0
 30 29  2  0  0  0  0
 32 31  1  0  0  0  0
 34 32  1  0  0  0  0
 34 33  2  0  0  0  0
 35 36  1  0  0  0  0
 36 37  2  0  0  0  0
 36 34  1  0  0  0  0
M  END
>  <MODEL>
6

>  <REMARK>
 VINA RESULT:      -7.7      1.752      3.997
  Name = 
  11 active torsions:
  status: ('A' for Active; 'I' for Inactive)
    1  A    between atoms: C_2  and  C_7
    2  A    between atoms: C_2  and  C_33
    3  A    between atoms: C_3  and  S_37
    4  A    between atoms: N_6  and  C_16
    5  A    between atoms: C_7  and  C_24
    6  A    between atoms: C_8  and  C_27
    7  A    between atoms: C_10  and  C_25
    8  A    between atoms: C_12  and  C_28
    9  A    between atoms: C_16  and  N_18
   10  A    between atoms: N_26  and  S_37
   11  A    between atoms: C_27  and  C_31
                            x       y       z     vdW  Elec       q    Type
                         _______ _______ _______ _____ _____    ______ ____

>  <TORSDO>
F 11

$$$$
=
 OpenBabel11042410213D

 37 39  0  0  1  0  0  0  0  0999 V2000
  184.5710  178.6050  142.5070 C   0  0  0  0  0  2  0  0  0  0  0  0
  185.0090  178.6890  145.3470 C   0  0  0  0  0  0  0  0  0  0  0  0
  185.7990  177.9190  143.0990 C   0  0  0  0  0  2  0  0  0  0  0  0
  183.4120  178.6030  143.4770 C   0  0  0  0  0  0  0  0  0  0  0  0
  185.1790  178.9860  146.5930 N   0  0  0  0  0  2  0  0  0  0  0  0
  183.6450  178.6900  144.7950 C   0  0  0  0  0  3  0  0  0  0  0  0
  186.1960  178.5810  144.4190 C   0  0  2  0  0  3  0  0  0  0  0  0
  180.6160  178.7090  140.8660 C   0  0  1  0  0  3  0  0  0  0  0  0
  178.9330  178.7250  142.6170 N   0  0  0  0  0  0  0  0  0  0  0  0
  182.0200  178.6100  142.9640 C   0  0  0  0  0  0  0  0  0  0  0  0
  179.6280  179.1100  143.6490 C   0  0  0  0  0  0  0  0  0  0  0  0
  181.0610  178.9830  143.7710 N   0  0  0  0  0  0  0  0  0  0  0  0
  179.3950  178.0330  141.4280 C   0  0  0  0  0  2  0  0  0  0  0  0
  181.8050  178.1060  141.5650 C   0  0  0  0  0  2  0  0  0  0  0  0
  178.9310  179.7260  144.7250 N   0  0  0  0  0  1  0  0  0  0  0  0
  180.7330  178.4560  139.0590 S   0  0  0  0  0  0  0  0  0  0  0  0
  181.2010  182.4070  137.9780 C   0  0  0  0  0  2  0  0  0  0  0  0
  182.5200  181.9820  138.3130 O   0  0  0  0  0  0  0  0  0  0  0  0
  181.1970  180.1270  138.6770 N   0  0  0  0  0  0  0  0  0  0  0  0
  180.3030  181.1680  138.1890 C   0  0  2  0  0  3  0  0  0  0  0  0
  183.5870  179.9890  139.0610 C   0  0  0  0  0  2  0  0  0  0  0  0
  182.5020  180.6660  138.7100 C   0  0  0  0  0  0  0  0  0  0  0  0
  179.6100  180.7530  136.8900 C   0  0  0  0  0  2  0  0  0  0  0  0
  180.6030  180.1340  134.7070 C   0  0  0  0  0  1  0  0  0  0  0  0
  180.3200  181.2810  135.6530 C   0  0  0  0  0  2  0  0  0  0  0  0
  187.3380  177.8290  145.0430 C   0  0  0  0  0  0  0  0  0  0  0  0
  187.7660  178.1500  146.1410 O   0  0  0  0  0  0  0  0  0  0  0  0
  187.9780  176.7020  144.2980 C   0  0  0  0  0  2  0  0  0  0  0  0
  189.1700  176.8930  142.2120 N   0  0  0  0  0  0  0  0  0  0  0  0
  189.1070  177.1980  143.4550 C   0  0  0  0  0  3  0  0  0  0  0  0
  190.2630  177.3670  141.4070 C   0  0  0  0  0  2  0  0  0  0  0  0
  189.8630  177.4030  140.0090 N   0  0  0  0  0  2  0  0  0  0  0  0
  188.1120  178.9090  140.3450 O   0  0  0  0  0  0  0  0  0  0  0  0
  188.7800  178.2090  139.5370 C   0  0  0  0  0  0  0  0  0  0  0  0
  189.4130  177.7350  137.0910 C   0  0  0  0  0  1  0  0  0  0  0  0
  188.4400  178.2230  138.1080 C   0  0  0  0  0  0  0  0  0  0  0  0
  187.3180  178.6500  137.7290 O   0  0  0  0  0  0  0  0  0  0  0  0
  1  3  1  0  0  0  0
  1  4  1  0  0  0  0
  2  5  2  0  0  0  0
  3  7  1  0  0  0  0
  4  6  2  0  0  0  0
  6  2  1  0  0  0  0
  7 26  1  1  0  0  0
  7  2  1  0  0  0  0
  8 16  1  6  0  0  0
  8 13  1  0  0  0  0
  8 14  1  0  0  0  0
  9 11  2  0  0  0  0
 10  4  1  0  0  0  0
 10 12  2  0  0  0  0
 11 12  1  0  0  0  0
 11 15  1  0  0  0  0
 13  9  1  0  0  0  0
 14 10  1  0  0  0  0
 17 20  1  0  0  0  0
 17 18  1  0  0  0  0
 18 22  1  0  0  0  0
 19 22  1  0  0  0  0
 19 16  1  0  0  0  0
 20 23  1  6  0  0  0
 20 19  1  0  0  0  0
 22 21  2  0  0  0  0
 24 25  1  0  0  0  0
 25 23  1  0  0  0  0
 26 27  2  0  0  0  0
 28 26  1  0  0  0  0
 29 30  2  0  0  0  0
 30 28  1  0  0  0  0
 31 29  1  0  0  0  0
 32 31  1  0  0  0  0
 34 32  1  0  0  0  0
 34 33  2  0  0  0  0
 35 36  1  0  0  0  0
 36 34  1  0  0  0  0
 37 36  2  0  0  0  0
M  END
>  <MODEL>
7

>  <REMARK>
 VINA RESULT:      -7.4      4.537      8.172
  Name = 
  11 active torsions:
  status: ('A' for Active; 'I' for Inactive)
    1  A    between atoms: C_2  and  C_7
    2  A    between atoms: C_2  and  C_33
    3  A    between atoms: C_3  and  S_37
    4  A    between atoms: N_6  and  C_16
    5  A    between atoms: C_7  and  C_24
    6  A    between atoms: C_8  and  C_27
    7  A    between atoms: C_10  and  C_25
    8  A    between atoms: C_12  and  C_28
    9  A    between atoms: C_16  and  N_18
   10  A    between atoms: N_26  and  S_37
   11  A    between atoms: C_27  and  C_31
                            x       y       z     vdW  Elec       q    Type
                         _______ _______ _______ _____ _____    ______ ____

>  <TORSDO>
F 11

$$$$
=
 OpenBabel11042410213D

 37 39  0  0  1  0  0  0  0  0999 V2000
  187.0650  177.9430  142.8070 C   0  0  0  0  0  2  0  0  0  0  0  0
  185.3120  178.7660  144.9310 C   0  0  0  0  0  0  0  0  0  0  0  0
  187.2330  177.3370  144.1980 C   0  0  0  0  0  2  0  0  0  0  0  0
  185.6270  178.3140  142.5330 C   0  0  0  0  0  0  0  0  0  0  0  0
  184.5990  179.3780  145.8180 N   0  0  0  0  0  2  0  0  0  0  0  0
  184.8450  178.7400  143.5360 C   0  0  0  0  0  3  0  0  0  0  0  0
  186.7100  178.2980  145.2660 C   0  0  2  0  0  3  0  0  0  0  0  0
  183.2310  177.5060  139.6610 C   0  0  1  0  0  3  0  0  0  0  0  0
  184.7310  178.5560  138.0660 N   0  0  0  0  0  0  0  0  0  0  0  0
  185.1150  178.3060  141.1410 C   0  0  0  0  0  0  0  0  0  0  0  0
  185.8540  178.5690  138.7260 C   0  0  0  0  0  0  0  0  0  0  0  0
  185.9630  178.5000  140.1640 N   0  0  0  0  0  0  0  0  0  0  0  0
  183.3780  178.5520  138.5900 C   0  0  0  0  0  2  0  0  0  0  0  0
  183.6320  178.1540  140.9580 C   0  0  0  0  0  2  0  0  0  0  0  0
  187.0620  178.6280  137.9780 N   0  0  0  0  0  1  0  0  0  0  0  0
  181.5100  176.8940  139.7490 S   0  0  0  0  0  0  0  0  0  0  0  0
  179.8510  180.6410  140.2080 C   0  0  0  0  0  2  0  0  0  0  0  0
  179.5800  180.3080  138.8490 O   0  0  0  0  0  0  0  0  0  0  0  0
  180.7490  178.4970  139.6740 N   0  0  0  0  0  0  0  0  0  0  0  0
  180.6110  179.4260  140.7870 C   0  0  2  0  0  3  0  0  0  0  0  0
  179.9860  178.4830  137.3730 C   0  0  0  0  0  2  0  0  0  0  0  0
  180.1010  179.0690  138.5570 C   0  0  0  0  0  0  0  0  0  0  0  0
  179.8500  178.7970  141.9550 C   0  0  0  0  0  2  0  0  0  0  0  0
  181.2810  178.6270  143.9690 C   0  0  0  0  0  1  0  0  0  0  0  0
  180.1960  179.4360  143.2910 C   0  0  0  0  0  2  0  0  0  0  0  0
  186.7810  177.6460  146.6170 C   0  0  0  0  0  0  0  0  0  0  0  0
  185.8540  176.9640  147.0270 O   0  0  0  0  0  0  0  0  0  0  0  0
  187.9810  177.8620  147.4820 C   0  0  0  0  0  2  0  0  0  0  0  0
  190.3440  177.5030  147.1690 N   0  0  0  0  0  0  0  0  0  0  0  0
  189.1490  177.0830  146.9730 C   0  0  0  0  0  3  0  0  0  0  0  0
  191.4640  176.7530  146.6700 C   0  0  0  0  0  2  0  0  0  0  0  0
  191.2510  176.4270  145.2690 N   0  0  0  0  0  2  0  0  0  0  0  0
  191.8290  178.5480  144.4840 O   0  0  0  0  0  0  0  0  0  0  0  0
  191.4650  177.3720  144.2150 C   0  0  0  0  0  0  0  0  0  0  0  0
  190.1880  176.0030  142.4530 C   0  0  0  0  0  1  0  0  0  0  0  0
  191.2560  176.9740  142.8160 C   0  0  0  0  0  0  0  0  0  0  0  0
  191.9850  177.4540  141.9080 O   0  0  0  0  0  0  0  0  0  0  0  0
  1  3  1  0  0  0  0
  2  7  1  0  0  0  0
  2  5  2  0  0  0  0
  3  7  1  0  0  0  0
  4  1  1  0  0  0  0
  4  6  2  0  0  0  0
  6  2  1  0  0  0  0
  7 26  1  1  0  0  0
  8 16  1  1  0  0  0
  8 14  1  0  0  0  0
  9 13  1  0  0  0  0
  9 11  2  0  0  0  0
 10  4  1  0  0  0  0
 11 12  1  0  0  0  0
 12 10  2  0  0  0  0
 13  8  1  0  0  0  0
 14 10  1  0  0  0  0
 15 11  1  0  0  0  0
 17 20  1  0  0  0  0
 18 17  1  0  0  0  0
 19 16  1  0  0  0  0
 19 20  1  0  0  0  0
 20 23  1  1  0  0  0
 21 22  2  0  0  0  0
 22 18  1  0  0  0  0
 22 19  1  0  0  0  0
 23 25  1  0  0  0  0
 25 24  1  0  0  0  0
 26 27  2  0  0  0  0
 26 28  1  0  0  0  0
 30 29  2  0  0  0  0
 30 28  1  0  0  0  0
 31 29  1  0  0  0  0
 32 31  1  0  0  0  0
 34 33  2  0  0  0  0
 34 32  1  0  0  0  0
 35 36  1  0  0  0  0
 36 34  1  0  0  0  0
 37 36  2  0  0  0  0
M  END
>  <MODEL>
8

>  <REMARK>
 VINA RESULT:      -7.3      3.496      7.296
  Name = 
  11 active torsions:
  status: ('A' for Active; 'I' for Inactive)
    1  A    between atoms: C_2  and  C_7
    2  A    between atoms: C_2  and  C_33
    3  A    between atoms: C_3  and  S_37
    4  A    between atoms: N_6  and  C_16
    5  A    between atoms: C_7  and  C_24
    6  A    between atoms: C_8  and  C_27
    7  A    between atoms: C_10  and  C_25
    8  A    between atoms: C_12  and  C_28
    9  A    between atoms: C_16  and  N_18
   10  A    between atoms: N_26  and  S_37
   11  A    between atoms: C_27  and  C_31
                            x       y       z     vdW  Elec       q    Type
                         _______ _______ _______ _____ _____    ______ ____

>  <TORSDO>
F 11

$$$$
=
 OpenBabel11042410213D

 37 39  0  0  1  0  0  0  0  0999 V2000
  187.3610  178.4670  141.5890 C   0  0  0  0  0  2  0  0  0  0  0  0
  184.7480  179.1020  140.5730 C   0  0  0  0  0  0  0  0  0  0  0  0
  186.1370  178.2570  142.4770 C   0  0  0  0  0  2  0  0  0  0  0  0
  187.0250  178.2820  140.1280 C   0  0  0  0  0  0  0  0  0  0  0  0
  183.6800  179.6200  140.0610 N   0  0  0  0  0  2  0  0  0  0  0  0
  185.8120  178.6300  139.6730 C   0  0  0  0  0  3  0  0  0  0  0  0
  185.0060  179.1980  142.0580 C   0  0  2  0  0  3  0  0  0  0  0  0
  188.4590  176.5540  137.0290 C   0  0  1  0  0  3  0  0  0  0  0  0
  190.7230  177.0380  137.7630 N   0  0  0  0  0  0  0  0  0  0  0  0
  188.0690  177.8130  139.1840 C   0  0  0  0  0  0  0  0  0  0  0  0
  190.5450  177.2770  139.0310 C   0  0  0  0  0  0  0  0  0  0  0  0
  189.2940  177.6840  139.6240 N   0  0  0  0  0  0  0  0  0  0  0  0
  189.7740  177.1930  136.6760 C   0  0  0  0  0  2  0  0  0  0  0  0
  187.6520  177.5950  137.7570 C   0  0  0  0  0  2  0  0  0  0  0  0
  191.6560  177.0990  139.9010 N   0  0  0  0  0  1  0  0  0  0  0  0
  187.5790  175.9890  135.5290 S   0  0  0  0  0  0  0  0  0  0  0  0
  184.9450  173.3760  137.3260 C   0  0  0  0  0  2  0  0  0  0  0  0
  186.2200  172.7710  137.5250 O   0  0  0  0  0  0  0  0  0  0  0  0
  186.6650  174.6980  136.3360 N   0  0  0  0  0  0  0  0  0  0  0  0
  185.2240  174.6850  136.5530 C   0  0  2  0  0  3  0  0  0  0  0  0
  188.4920  173.2490  136.9970 C   0  0  0  0  0  2  0  0  0  0  0  0
  187.2000  173.5460  136.9520 C   0  0  0  0  0  0  0  0  0  0  0  0
  184.7620  175.9090  137.3450 C   0  0  0  0  0  2  0  0  0  0  0  0
  182.9530  176.1450  139.0200 C   0  0  0  0  0  1  0  0  0  0  0  0
  183.2550  175.9380  137.5510 C   0  0  0  0  0  2  0  0  0  0  0  0
  183.7750  178.9060  142.8690 C   0  0  0  0  0  0  0  0  0  0  0  0
  182.8630  178.2440  142.3950 O   0  0  0  0  0  0  0  0  0  0  0  0
  183.6490  179.4600  144.2510 C   0  0  0  0  0  2  0  0  0  0  0  0
  185.1550  179.3650  146.1310 N   0  0  0  0  0  0  0  0  0  0  0  0
  184.5460  178.7310  145.1980 C   0  0  0  0  0  3  0  0  0  0  0  0
  186.0230  178.6600  147.0340 C   0  0  0  0  0  2  0  0  0  0  0  0
  187.2300  178.2490  146.3340 N   0  0  0  0  0  2  0  0  0  0  0  0
  188.1060  177.0550  148.1390 O   0  0  0  0  0  0  0  0  0  0  0  0
  188.2340  177.4300  146.9420 C   0  0  0  0  0  0  0  0  0  0  0  0
  190.7280  176.8160  146.8530 C   0  0  0  0  0  1  0  0  0  0  0  0
  189.4200  177.0270  146.1750 C   0  0  0  0  0  0  0  0  0  0  0  0
  189.3380  176.8550  144.9300 O   0  0  0  0  0  0  0  0  0  0  0  0
  1  3  1  0  0  0  0
  2  7  1  0  0  0  0
  4  1  1  0  0  0  0
  5  2  2  0  0  0  0
  6  4  2  0  0  0  0
  6  2  1  0  0  0  0
  7  3  1  0  0  0  0
  7 26  1  1  0  0  0
  8 16  1  6  0  0  0
  8 14  1  0  0  0  0
  9 11  2  0  0  0  0
 10 12  2  0  0  0  0
 10  4  1  0  0  0  0
 11 12  1  0  0  0  0
 11 15  1  0  0  0  0
 13  8  1  0  0  0  0
 13  9  1  0  0  0  0
 14 10  1  0  0  0  0
 16 19  1  0  0  0  0
 17 18  1  0  0  0  0
 19 20  1  0  0  0  0
 19 22  1  0  0  0  0
 20 17  1  0  0  0  0
 20 23  1  1  0  0  0
 22 21  2  0  0  0  0
 22 18  1  0  0  0  0
 23 25  1  0  0  0  0
 25 24  1  0  0  0  0
 26 28  1  0  0  0  0
 27 26  2  0  0  0  0
 28 30  1  0  0  0  0
 29 31  1  0  0  0  0
 30 29  2  0  0  0  0
 32 34  1  0  0  0  0
 32 31  1  0  0  0  0
 34 33  2  0  0  0  0
 36 35  1  0  0  0  0
 36 34  1  0  0  0  0
 37 36  2  0  0  0  0
M  END
>  <MODEL>
9

>  <REMARK>
 VINA RESULT:      -7.3      2.285      5.391
  Name = 
  11 active torsions:
  status: ('A' for Active; 'I' for Inactive)
    1  A    between atoms: C_2  and  C_7
    2  A    between atoms: C_2  and  C_33
    3  A    between atoms: C_3  and  S_37
    4  A    between atoms: N_6  and  C_16
    5  A    between atoms: C_7  and  C_24
    6  A    between atoms: C_8  and  C_27
    7  A    between atoms: C_10  and  C_25
    8  A    between atoms: C_12  and  C_28
    9  A    between atoms: C_16  and  N_18
   10  A    between atoms: N_26  and  S_37
   11  A    between atoms: C_27  and  C_31
                            x       y       z     vdW  Elec       q    Type
                         _______ _______ _______ _____ _____    ______ ____

>  <TORSDO>
F 11

$$$$
