=
 OpenBabel11032419093D

 42 49  0  0  1  0  0  0  0  0999 V2000
  181.8740  174.1640  136.9680 C   0  0  0  0  0  0  0  0  0  0  0  0
  184.4680  178.4660  144.3470 C   0  0  0  0  0  0  0  0  0  0  0  0
  181.8700  178.4960  139.8780 S   0  0  0  0  0  0  0  0  0  0  0  0
  185.3940  178.2540  143.4010 C   0  0  0  0  0  0  0  0  0  0  0  0
  183.2300  178.7310  143.6470 C   0  0  0  0  0  0  0  0  0  0  0  0
  182.5490  175.4740  136.7730 C   0  0  0  0  0  2  0  0  0  0  0  0
  182.2810  178.8660  141.5820 C   0  0  0  0  0  0  0  0  0  0  0  0
  181.0510  174.2300  138.0380 C   0  0  0  0  0  0  0  0  0  0  0  0
  178.9320  171.6450  136.6140 C   0  0  0  0  0  1  0  0  0  0  0  0
  181.1950  175.5490  138.5980 C   0  0  0  0  0  0  0  0  0  0  0  0
  183.5210  178.6660  142.2810 C   0  0  0  0  0  0  0  0  0  0  0  0
  179.9080  178.7890  142.1840 C   0  0  0  0  0  2  0  0  0  0  0  0
  179.7880  177.5770  141.3670 N   0  0  0  0  0  0  0  0  0  0  0  0
  181.3480  179.0020  142.5280 C   0  0  0  0  0  0  0  0  0  0  0  0
  184.7880  178.3690  142.0380 C   0  0  0  0  0  3  0  0  0  0  0  0
  182.0290  176.2600  137.9020 N   0  0  0  0  0  0  0  0  0  0  0  0
  180.5750  177.3120  140.3610 C   0  0  0  0  0  0  0  0  0  0  0  0
  180.4470  176.0370  139.7190 N   0  0  0  0  0  2  0  0  0  0  0  0
  181.2620  173.0430  135.8770 S   0  0  0  0  0  0  0  0  0  0  0  0
  179.9950  172.6330  136.9350 C   0  0  0  0  0  0  0  0  0  0  0  0
  179.9670  173.4180  138.0400 N   0  0  0  0  0  0  0  0  0  0  0  0
  181.9380  178.9040  143.8900 C   0  0  0  0  0  3  0  0  0  0  0  0
  187.4870  177.2030  142.5980 C   0  0  1  0  0  3  0  0  0  0  0  0
  186.9940  176.5420  143.7380 O   0  0  0  0  0  0  0  0  0  0  0  0
  186.8290  177.9400  143.7040 C   0  0  2  0  0  3  0  0  0  0  0  0
  188.9900  177.3430  142.7190 C   0  0  2  0  0  3  0  0  0  0  0  0
  189.6400  176.7400  141.4890 C   0  0  2  0  0  3  0  0  0  0  0  0
  189.6160  175.9670  142.7900 C   0  0  0  0  0  2  0  0  0  0  0  0
  191.0110  177.3630  141.2990 C   0  0  0  0  0  2  0  0  0  0  0  0
  191.4110  177.3290  139.8360 C   0  0  0  0  0  2  0  0  0  0  0  0
  190.6090  176.2800  139.0870 C   0  0  0  0  0  1  0  0  0  0  0  0
  184.6890  178.4270  145.7250 O   0  0  0  0  0  0  0  0  0  0  0  0
  189.5260  178.0880  149.0180 C   0  0  0  0  0  2  0  0  0  0  0  0
  185.7530  179.1020  146.3140 C   0  0  0  0  0  3  0  0  0  0  0  0
  188.0160  178.2440  148.9360 C   0  0  0  0  0  2  0  0  0  0  0  0
  187.5970  177.7750  147.5890 C   0  0  0  0  0  0  0  0  0  0  0  0
  190.0660  177.9950  147.5990 C   0  0  2  0  0  3  0  0  0  0  0  0
  186.6720  178.4390  146.9530 C   0  0  0  0  0  0  0  0  0  0  0  0
  188.8910  176.9920  146.6520 S   0  0  0  0  0  0  0  0  0  0  0  0
  191.3170  177.3780  147.6060 O   0  0  0  0  0  0  0  0  0  0  0  0
  192.3220  175.4570  146.6330 C   0  0  0  0  0  1  0  0  0  0  0  0
  191.3320  176.5880  146.4560 C   0  0  0  0  0  2  0  0  0  0  0  0
  1  8  2  0  0  0  0
  2 32  1  0  0  0  0
  3 17  1  0  0  0  0
  3  7  1  0  0  0  0
  4  2  2  0  0  0  0
  5 22  2  0  0  0  0
  5  2  1  0  0  0  0
  6  1  1  0  0  0  0
  6 16  1  0  0  0  0
  7 11  1  0  0  0  0
  7 14  2  0  0  0  0
  8 21  1  0  0  0  0
  8 10  1  0  0  0  0
  9 20  1  0  0  0  0
 10 18  1  0  0  0  0
 11  5  1  0  0  0  0
 12 14  1  0  0  0  0
 13 12  1  0  0  0  0
 14 22  1  0  0  0  0
 15 11  2  0  0  0  0
 15  4  1  0  0  0  0
 16 10  2  0  0  0  0
 17 13  2  0  0  0  0
 18 17  1  0  0  0  0
 19 20  1  0  0  0  0
 19  1  1  0  0  0  0
 20 21  2  0  0  0  0
 23 26  1  0  0  0  0
 23 25  1  0  0  0  0
 23 24  1  1  0  0  0
 25  4  1  6  0  0  0
 25 24  1  0  0  0  0
 26 28  1  1  0  0  0
 27 29  1  1  0  0  0
 27 26  1  0  0  0  0
 27 28  1  0  0  0  0
 30 29  1  0  0  0  0
 31 30  1  0  0  0  0
 32 34  1  0  0  0  0
 34 38  2  0  0  0  0
 35 33  1  0  0  0  0
 36 35  1  0  0  0  0
 37 40  1  1  0  0  0
 37 33  1  0  0  0  0
 38 36  2  0  0  0  0
 39 36  1  0  0  0  0
 39 37  1  0  0  0  0
 42 41  1  0  0  0  0
 42 40  1  0  0  0  0
M  END
>  <MODEL>
1

>  <REMARK>
 VINA RESULT:      -9.1      0.000      0.000
  Name = 
  8 active torsions:
  status: ('A' for Active; 'I' for Inactive)
    1  A    between atoms: C_2  and  O_13
    2  A    between atoms: C_5  and  C_6
    3  A    between atoms: C_7  and  O_13
    4  A    between atoms: C_10  and  O_12
    5  A    between atoms: C_11  and  C_30
    6  A    between atoms: O_12  and  C_41
    7  A    between atoms: C_20  and  C_24
    8  A    between atoms: C_20  and  C_31
                            x       y       z     vdW  Elec       q    Type
                         _______ _______ _______ _____ _____    ______ ____

>  <TORSDO>
F 8

$$$$
=
 OpenBabel11032419093D

 42 49  0  0  1  0  0  0  0  0999 V2000
  195.0550  172.5120  137.9280 C   0  0  0  0  0  0  0  0  0  0  0  0
  188.5140  177.2030  141.7890 C   0  0  0  0  0  0  0  0  0  0  0  0
  192.5660  177.0530  138.5820 S   0  0  0  0  0  0  0  0  0  0  0  0
  189.5570  176.8540  142.5570 C   0  0  0  0  0  0  0  0  0  0  0  0
  189.0570  177.4950  140.4810 C   0  0  0  0  0  0  0  0  0  0  0  0
  195.4560  173.7540  138.6400 C   0  0  0  0  0  2  0  0  0  0  0  0
  190.9750  177.5290  139.2540 C   0  0  0  0  0  0  0  0  0  0  0  0
  193.8910  172.7190  137.2720 C   0  0  0  0  0  0  0  0  0  0  0  0
  194.7740  170.1780  134.8300 C   0  0  0  0  0  1  0  0  0  0  0  0
  193.4750  174.0650  137.5680 C   0  0  0  0  0  0  0  0  0  0  0  0
  190.4380  177.3010  140.5690 C   0  0  0  0  0  0  0  0  0  0  0  0
  190.0460  177.6600  136.9920 C   0  0  0  0  0  2  0  0  0  0  0  0
  190.7280  176.3980  136.6890 N   0  0  0  0  0  0  0  0  0  0  0  0
  189.9240  177.8020  138.4760 C   0  0  0  0  0  0  0  0  0  0  0  0
  190.8280  176.9010  141.7690 C   0  0  0  0  0  3  0  0  0  0  0  0
  194.3390  174.6610  138.3320 N   0  0  0  0  0  0  0  0  0  0  0  0
  191.8060  176.0010  137.3070 C   0  0  0  0  0  0  0  0  0  0  0  0
  192.3090  174.6910  137.0170 N   0  0  0  0  0  2  0  0  0  0  0  0
  195.9470  171.3530  137.1040 S   0  0  0  0  0  0  0  0  0  0  0  0
  194.6920  171.1140  135.9820 C   0  0  0  0  0  0  0  0  0  0  0  0
  193.6670  171.9850  136.1560 N   0  0  0  0  0  0  0  0  0  0  0  0
  188.6540  177.7730  139.2480 C   0  0  0  0  0  3  0  0  0  0  0  0
  189.4400  177.6480  144.8990 C   0  0  1  0  0  3  0  0  0  0  0  0
  190.5910  176.8680  144.6850 O   0  0  0  0  0  0  0  0  0  0  0  0
  189.4280  176.4690  144.0010 C   0  0  2  0  0  3  0  0  0  0  0  0
  188.8300  177.2770  146.2340 C   0  0  2  0  0  3  0  0  0  0  0  0
  188.0260  178.4530  146.7520 C   0  0  2  0  0  3  0  0  0  0  0  0
  189.4040  178.1700  147.3110 C   0  0  0  0  0  2  0  0  0  0  0  0
  186.9750  177.9450  147.7210 C   0  0  0  0  0  2  0  0  0  0  0  0
  185.5820  178.2150  147.1830 C   0  0  0  0  0  2  0  0  0  0  0  0
  185.6480  179.0940  145.9480 C   0  0  0  0  0  1  0  0  0  0  0  0
  187.1820  177.2590  142.2040 O   0  0  0  0  0  0  0  0  0  0  0  0
  183.0540  179.8310  138.9340 C   0  0  0  0  0  2  0  0  0  0  0  0
  186.3950  178.3850  141.9860 C   0  0  0  0  0  3  0  0  0  0  0  0
  184.5240  179.5290  139.1710 C   0  0  0  0  0  2  0  0  0  0  0  0
  184.5930  178.3750  140.1060 C   0  0  0  0  0  0  0  0  0  0  0  0
  182.2570  179.2060  140.0690 C   0  0  2  0  0  3  0  0  0  0  0  0
  185.4970  178.3800  141.0450 C   0  0  0  0  0  0  0  0  0  0  0  0
  183.0220  177.6030  140.4300 S   0  0  0  0  0  0  0  0  0  0  0  0
  180.9320  179.0190  139.6730 O   0  0  0  0  0  0  0  0  0  0  0  0
  180.1870  179.8010  141.7890 C   0  0  0  0  0  1  0  0  0  0  0  0
  180.2250  180.0480  140.2960 C   0  0  0  0  0  2  0  0  0  0  0  0
  1  6  1  0  0  0  0
  2 32  1  0  0  0  0
  2  4  1  0  0  0  0
  3  7  1  0  0  0  0
  5 11  1  0  0  0  0
  5  2  2  0  0  0  0
  7 11  2  0  0  0  0
  8 10  1  0  0  0  0
  8  1  2  0  0  0  0
  9 20  1  0  0  0  0
 10 16  2  0  0  0  0
 11 15  1  0  0  0  0
 12 14  1  0  0  0  0
 13 12  1  0  0  0  0
 13 17  2  0  0  0  0
 14 22  2  0  0  0  0
 14  7  1  0  0  0  0
 15  4  2  0  0  0  0
 16  6  1  0  0  0  0
 17  3  1  0  0  0  0
 18 17  1  0  0  0  0
 18 10  1  0  0  0  0
 19  1  1  0  0  0  0
 20 21  2  0  0  0  0
 20 19  1  0  0  0  0
 21  8  1  0  0  0  0
 22  5  1  0  0  0  0
 23 24  1  1  0  0  0
 23 26  1  0  0  0  0
 25  4  1  6  0  0  0
 25 24  1  0  0  0  0
 25 23  1  0  0  0  0
 26 27  1  0  0  0  0
 26 28  1  1  0  0  0
 27 28  1  0  0  0  0
 27 29  1  1  0  0  0
 30 29  1  0  0  0  0
 31 30  1  0  0  0  0
 33 35  1  0  0  0  0
 33 37  1  0  0  0  0
 34 32  1  0  0  0  0
 35 36  1  0  0  0  0
 36 39  1  0  0  0  0
 36 38  2  0  0  0  0
 37 40  1  6  0  0  0
 37 39  1  0  0  0  0
 38 34  2  0  0  0  0
 40 42  1  0  0  0  0
 42 41  1  0  0  0  0
M  END
>  <MODEL>
2

>  <REMARK>
 VINA RESULT:      -8.0      5.170     10.087
  Name = 
  8 active torsions:
  status: ('A' for Active; 'I' for Inactive)
    1  A    between atoms: C_2  and  O_13
    2  A    between atoms: C_5  and  C_6
    3  A    between atoms: C_7  and  O_13
    4  A    between atoms: C_10  and  O_12
    5  A    between atoms: C_11  and  C_30
    6  A    between atoms: O_12  and  C_41
    7  A    between atoms: C_20  and  C_24
    8  A    between atoms: C_20  and  C_31
                            x       y       z     vdW  Elec       q    Type
                         _______ _______ _______ _____ _____    ______ ____

>  <TORSDO>
F 8

$$$$
=
 OpenBabel11032419093D

 42 49  0  0  1  0  0  0  0  0999 V2000
  182.8430  172.1500  135.6660 C   0  0  0  0  0  0  0  0  0  0  0  0
  190.3970  176.1070  138.3030 C   0  0  0  0  0  0  0  0  0  0  0  0
  186.0630  176.2540  135.4910 S   0  0  0  0  0  0  0  0  0  0  0  0
  190.5070  175.0890  137.4370 C   0  0  0  0  0  0  0  0  0  0  0  0
  189.1940  176.8210  137.9370 C   0  0  0  0  0  0  0  0  0  0  0  0
  183.7500  172.6370  134.5940 C   0  0  0  0  0  2  0  0  0  0  0  0
  187.4260  176.8260  136.5020 C   0  0  0  0  0  0  0  0  0  0  0  0
  182.8230  173.0400  136.6840 C   0  0  0  0  0  0  0  0  0  0  0  0
  179.4720  171.9710  137.5990 C   0  0  0  0  0  1  0  0  0  0  0  0
  183.7370  174.0960  136.3370 C   0  0  0  0  0  0  0  0  0  0  0  0
  188.6570  176.1570  136.8310 C   0  0  0  0  0  0  0  0  0  0  0  0
  185.9350  178.3930  137.6490 C   0  0  0  0  0  2  0  0  0  0  0  0
  184.9420  177.3180  137.7280 N   0  0  0  0  0  0  0  0  0  0  0  0
  187.2840  177.7920  137.4130 C   0  0  0  0  0  0  0  0  0  0  0  0
  189.3650  175.0990  136.4700 C   0  0  0  0  0  3  0  0  0  0  0  0
  184.2660  173.8890  135.1700 N   0  0  0  0  0  0  0  0  0  0  0  0
  184.8930  176.3250  136.8830 C   0  0  0  0  0  0  0  0  0  0  0  0
  183.9620  175.2650  137.1360 N   0  0  0  0  0  2  0  0  0  0  0  0
  181.3680  171.3500  135.6110 S   0  0  0  0  0  0  0  0  0  0  0  0
  180.8240  172.1540  137.0070 C   0  0  0  0  0  0  0  0  0  0  0  0
  181.6960  173.1020  137.4340 N   0  0  0  0  0  0  0  0  0  0  0  0
  188.4190  177.8040  138.3740 C   0  0  0  0  0  3  0  0  0  0  0  0
  192.9140  174.6830  137.0290 C   0  0  1  0  0  3  0  0  0  0  0  0
  192.1170  173.9150  136.1610 O   0  0  0  0  0  0  0  0  0  0  0  0
  191.6270  174.0930  137.4690 C   0  0  2  0  0  3  0  0  0  0  0  0
  194.0610  173.8320  137.5310 C   0  0  2  0  0  3  0  0  0  0  0  0
  195.1530  174.7410  138.0600 C   0  0  2  0  0  3  0  0  0  0  0  0
  195.2910  174.1060  136.6940 C   0  0  0  0  0  2  0  0  0  0  0  0
  195.9960  173.9720  139.0610 C   0  0  0  0  0  2  0  0  0  0  0  0
  196.6660  174.9240  140.0340 C   0  0  0  0  0  2  0  0  0  0  0  0
  198.0960  175.2020  139.6080 C   0  0  0  0  0  1  0  0  0  0  0  0
  191.2870  176.3890  139.3420 O   0  0  0  0  0  0  0  0  0  0  0  0
  189.0340  177.4390  144.6490 C   0  0  0  0  0  2  0  0  0  0  0  0
  190.9920  177.3310  140.3220 C   0  0  0  0  0  3  0  0  0  0  0  0
  188.8200  177.2850  143.1530 C   0  0  0  0  0  2  0  0  0  0  0  0
  190.0040  176.5700  142.6090 C   0  0  0  0  0  0  0  0  0  0  0  0
  190.5180  177.2670  144.9310 C   0  0  2  0  0  3  0  0  0  0  0  0
  190.4960  176.9500  141.4630 C   0  0  0  0  0  0  0  0  0  0  0  0
  191.1100  175.9380  143.8510 S   0  0  0  0  0  0  0  0  0  0  0  0
  190.7110  176.9130  146.2670 O   0  0  0  0  0  0  0  0  0  0  0  0
  192.3230  175.8770  147.6720 C   0  0  0  0  0  1  0  0  0  0  0  0
  191.8240  176.0720  146.2570 C   0  0  0  0  0  2  0  0  0  0  0  0
  1  8  2  0  0  0  0
  2 32  1  0  0  0  0
  3  7  1  0  0  0  0
  3 17  1  0  0  0  0
  4  2  2  0  0  0  0
  5  2  1  0  0  0  0
  5 22  2  0  0  0  0
  6 16  1  0  0  0  0
  6  1  1  0  0  0  0
  7 11  1  0  0  0  0
  7 14  2  0  0  0  0
  8 21  1  0  0  0  0
 10  8  1  0  0  0  0
 10 18  1  0  0  0  0
 11  5  1  0  0  0  0
 12 13  1  0  0  0  0
 14 12  1  0  0  0  0
 14 22  1  0  0  0  0
 15 11  2  0  0  0  0
 15  4  1  0  0  0  0
 16 10  2  0  0  0  0
 17 18  1  0  0  0  0
 17 13  2  0  0  0  0
 19  1  1  0  0  0  0
 19 20  1  0  0  0  0
 20 21  2  0  0  0  0
 20  9  1  0  0  0  0
 23 24  1  6  0  0  0
 23 25  1  0  0  0  0
 23 26  1  0  0  0  0
 24 25  1  0  0  0  0
 25  4  1  6  0  0  0
 26 28  1  6  0  0  0
 26 27  1  0  0  0  0
 27 29  1  1  0  0  0
 28 27  1  0  0  0  0
 29 30  1  0  0  0  0
 31 30  1  0  0  0  0
 32 34  1  0  0  0  0
 33 37  1  0  0  0  0
 34 38  2  0  0  0  0
 35 33  1  0  0  0  0
 36 35  1  0  0  0  0
 36 39  1  0  0  0  0
 37 40  1  1  0  0  0
 38 36  2  0  0  0  0
 39 37  1  0  0  0  0
 42 40  1  0  0  0  0
 42 41  1  0  0  0  0
M  END
>  <MODEL>
3

>  <REMARK>
 VINA RESULT:      -7.7      3.873      6.290
  Name = 
  8 active torsions:
  status: ('A' for Active; 'I' for Inactive)
    1  A    between atoms: C_2  and  O_13
    2  A    between atoms: C_5  and  C_6
    3  A    between atoms: C_7  and  O_13
    4  A    between atoms: C_10  and  O_12
    5  A    between atoms: C_11  and  C_30
    6  A    between atoms: O_12  and  C_41
    7  A    between atoms: C_20  and  C_24
    8  A    between atoms: C_20  and  C_31
                            x       y       z     vdW  Elec       q    Type
                         _______ _______ _______ _____ _____    ______ ____

>  <TORSDO>
F 8

$$$$
=
 OpenBabel11032419093D

 42 49  0  0  1  0  0  0  0  0999 V2000
  185.6890  178.2360  143.6150 C   0  0  0  0  0  0  0  0  0  0  0  0
  189.1360  173.8770  136.6290 C   0  0  0  0  0  0  0  0  0  0  0  0
  188.7900  178.2150  139.4170 S   0  0  0  0  0  0  0  0  0  0  0  0
  187.8480  174.2420  136.5510 C   0  0  0  0  0  0  0  0  0  0  0  0
  189.8150  174.9400  137.3350 C   0  0  0  0  0  0  0  0  0  0  0  0
  185.5400  178.8830  142.2850 C   0  0  0  0  0  2  0  0  0  0  0  0
  189.5050  176.9350  138.3890 C   0  0  0  0  0  0  0  0  0  0  0  0
  186.9100  177.6630  143.7080 C   0  0  0  0  0  0  0  0  0  0  0  0
  186.8560  178.0550  147.3200 C   0  0  0  0  0  1  0  0  0  0  0  0
  187.5700  177.8740  142.4460 C   0  0  0  0  0  0  0  0  0  0  0  0
  188.8480  175.9050  137.6310 C   0  0  0  0  0  0  0  0  0  0  0  0
  191.6200  177.1180  139.6100 C   0  0  0  0  0  2  0  0  0  0  0  0
  190.8440  177.1620  140.8540 N   0  0  0  0  0  0  0  0  0  0  0  0
  190.7710  176.5310  138.5290 C   0  0  0  0  0  0  0  0  0  0  0  0
  187.6370  175.5660  137.2150 C   0  0  0  0  0  3  0  0  0  0  0  0
  186.8190  178.5560  141.6360 N   0  0  0  0  0  0  0  0  0  0  0  0
  189.6130  177.5880  140.9140 C   0  0  0  0  0  0  0  0  0  0  0  0
  188.9130  177.4630  142.1590 N   0  0  0  0  0  2  0  0  0  0  0  0
  185.1800  178.6910  145.1490 S   0  0  0  0  0  0  0  0  0  0  0  0
  186.5640  178.0080  145.8630 C   0  0  0  0  0  0  0  0  0  0  0  0
  187.4520  177.5540  144.9450 N   0  0  0  0  0  0  0  0  0  0  0  0
  190.9990  175.2210  137.8610 C   0  0  0  0  0  3  0  0  0  0  0  0
  185.7150  173.0160  136.8310 C   0  0  1  0  0  3  0  0  0  0  0  0
  186.7630  172.1400  136.4950 O   0  0  0  0  0  0  0  0  0  0  0  0
  186.7910  173.4100  135.8890 C   0  0  2  0  0  3  0  0  0  0  0  0
  184.4760  172.6280  136.0540 C   0  0  2  0  0  3  0  0  0  0  0  0
  183.2610  172.8080  136.9430 C   0  0  2  0  0  3  0  0  0  0  0  0
  183.8310  171.4260  136.7090 C   0  0  0  0  0  2  0  0  0  0  0  0
  182.0340  173.0020  136.0710 C   0  0  0  0  0  2  0  0  0  0  0  0
  180.7930  173.1610  136.9290 C   0  0  0  0  0  2  0  0  0  0  0  0
  180.3170  171.8110  137.4360 C   0  0  0  0  0  1  0  0  0  0  0  0
  189.6780  172.6950  136.1200 O   0  0  0  0  0  0  0  0  0  0  0  0
  195.4440  172.6700  135.0740 C   0  0  0  0  0  2  0  0  0  0  0  0
  190.6950  172.7060  135.1710 C   0  0  0  0  0  3  0  0  0  0  0  0
  194.1770  173.4600  135.3570 C   0  0  0  0  0  2  0  0  0  0  0  0
  193.1820  172.5100  135.9190 C   0  0  0  0  0  0  0  0  0  0  0  0
  195.0730  171.1970  135.0000 C   0  0  2  0  0  3  0  0  0  0  0  0
  191.9370  172.6100  135.5460 C   0  0  0  0  0  0  0  0  0  0  0  0
  193.8390  170.8980  136.2930 S   0  0  0  0  0  0  0  0  0  0  0  0
  196.2010  170.4090  135.2320 O   0  0  0  0  0  0  0  0  0  0  0  0
  197.6420  170.3910  137.1210 C   0  0  0  0  0  1  0  0  0  0  0  0
  196.2260  170.2200  136.6140 C   0  0  0  0  0  2  0  0  0  0  0  0
  1  8  2  0  0  0  0
  1 19  1  0  0  0  0
  2  5  1  0  0  0  0
  3 17  1  0  0  0  0
  4  2  2  0  0  0  0
  4 15  1  0  0  0  0
  5 11  1  0  0  0  0
  5 22  2  0  0  0  0
  6  1  1  0  0  0  0
  7 14  2  0  0  0  0
  7  3  1  0  0  0  0
  8 21  1  0  0  0  0
 10  8  1  0  0  0  0
 11  7  1  0  0  0  0
 12 13  1  0  0  0  0
 13 17  2  0  0  0  0
 14 12  1  0  0  0  0
 15 11  2  0  0  0  0
 16  6  1  0  0  0  0
 16 10  2  0  0  0  0
 17 18  1  0  0  0  0
 18 10  1  0  0  0  0
 19 20  1  0  0  0  0
 20  9  1  0  0  0  0
 21 20  2  0  0  0  0
 22 14  1  0  0  0  0
 23 24  1  6  0  0  0
 25 24  1  0  0  0  0
 25  4  1  1  0  0  0
 25 23  1  0  0  0  0
 26 28  1  1  0  0  0
 26 23  1  0  0  0  0
 26 27  1  0  0  0  0
 27 29  1  6  0  0  0
 28 27  1  0  0  0  0
 29 30  1  0  0  0  0
 30 31  1  0  0  0  0
 32  2  1  0  0  0  0
 33 35  1  0  0  0  0
 34 38  2  0  0  0  0
 34 32  1  0  0  0  0
 35 36  1  0  0  0  0
 36 39  1  0  0  0  0
 37 33  1  0  0  0  0
 37 40  1  1  0  0  0
 37 39  1  0  0  0  0
 38 36  2  0  0  0  0
 40 42  1  0  0  0  0
 42 41  1  0  0  0  0
M  END
>  <MODEL>
4

>  <REMARK>
 VINA RESULT:      -7.6      5.727     11.023
  Name = 
  8 active torsions:
  status: ('A' for Active; 'I' for Inactive)
    1  A    between atoms: C_2  and  O_13
    2  A    between atoms: C_5  and  C_6
    3  A    between atoms: C_7  and  O_13
    4  A    between atoms: C_10  and  O_12
    5  A    between atoms: C_11  and  C_30
    6  A    between atoms: O_12  and  C_41
    7  A    between atoms: C_20  and  C_24
    8  A    between atoms: C_20  and  C_31
                            x       y       z     vdW  Elec       q    Type
                         _______ _______ _______ _____ _____    ______ ____

>  <TORSDO>
F 8

$$$$
=
 OpenBabel11032419093D

 42 49  0  0  1  0  0  0  0  0999 V2000
  183.2770  172.4360  135.5590 C   0  0  0  0  0  0  0  0  0  0  0  0
  189.9960  176.8870  139.3960 C   0  0  0  0  0  0  0  0  0  0  0  0
  185.8420  176.9170  136.3200 S   0  0  0  0  0  0  0  0  0  0  0  0
  190.3040  176.0630  138.3830 C   0  0  0  0  0  0  0  0  0  0  0  0
  188.7200  177.4780  139.0610 C   0  0  0  0  0  0  0  0  0  0  0  0
  184.1540  173.2270  134.6560 C   0  0  0  0  0  2  0  0  0  0  0  0
  187.0490  177.4880  137.5140 C   0  0  0  0  0  0  0  0  0  0  0  0
  183.0690  173.1210  136.7060 C   0  0  0  0  0  0  0  0  0  0  0  0
  179.8760  171.4480  137.1680 C   0  0  0  0  0  1  0  0  0  0  0  0
  183.8290  174.3400  136.6120 C   0  0  0  0  0  0  0  0  0  0  0  0
  188.3470  176.9510  137.8210 C   0  0  0  0  0  0  0  0  0  0  0  0
  185.2790  178.6040  138.7870 C   0  0  0  0  0  2  0  0  0  0  0  0
  184.4580  177.4020  138.6090 N   0  0  0  0  0  0  0  0  0  0  0  0
  186.7140  178.2480  138.5600 C   0  0  0  0  0  0  0  0  0  0  0  0
  189.2260  176.0830  137.3450 C   0  0  0  0  0  3  0  0  0  0  0  0
  184.4440  174.4170  135.4710 N   0  0  0  0  0  0  0  0  0  0  0  0
  184.6040  176.5770  137.6090 C   0  0  0  0  0  0  0  0  0  0  0  0
  183.8330  175.3690  137.6090 N   0  0  0  0  0  2  0  0  0  0  0  0
  181.9450  171.4590  135.2570 S   0  0  0  0  0  0  0  0  0  0  0  0
  181.2130  171.9210  136.7210 C   0  0  0  0  0  0  0  0  0  0  0  0
  181.9080  172.8910  137.3660 N   0  0  0  0  0  0  0  0  0  0  0  0
  187.7820  178.2500  139.5950 C   0  0  0  0  0  3  0  0  0  0  0  0
  192.1030  175.1330  136.9600 C   0  0  1  0  0  3  0  0  0  0  0  0
  191.3330  174.1080  137.5370 O   0  0  0  0  0  0  0  0  0  0  0  0
  191.5590  175.2440  138.3350 C   0  0  2  0  0  3  0  0  0  0  0  0
  193.5660  174.7490  137.0230 C   0  0  2  0  0  3  0  0  0  0  0  0
  194.1990  174.9980  135.6680 C   0  0  2  0  0  3  0  0  0  0  0  0
  193.8200  173.5920  136.0810 C   0  0  0  0  0  2  0  0  0  0  0  0
  195.6930  175.1900  135.8470 C   0  0  0  0  0  2  0  0  0  0  0  0
  196.4510  173.9910  135.3090 C   0  0  0  0  0  2  0  0  0  0  0  0
  197.4270  173.4670  136.3480 C   0  0  0  0  0  1  0  0  0  0  0  0
  190.7770  177.1040  140.5320 O   0  0  0  0  0  0  0  0  0  0  0  0
  188.7120  177.4480  146.0070 C   0  0  0  0  0  2  0  0  0  0  0  0
  190.5240  176.4450  141.7310 C   0  0  0  0  0  3  0  0  0  0  0  0
  189.8790  177.6010  145.0450 C   0  0  0  0  0  2  0  0  0  0  0  0
  189.3120  177.6870  143.6730 C   0  0  0  0  0  0  0  0  0  0  0  0
  187.5100  176.9590  145.2130 C   0  0  2  0  0  3  0  0  0  0  0  0
  189.9210  177.0670  142.7020 C   0  0  0  0  0  0  0  0  0  0  0  0
  187.5380  177.8280  143.6240 S   0  0  0  0  0  0  0  0  0  0  0  0
  186.3330  177.2620  145.8980 O   0  0  0  0  0  0  0  0  0  0  0  0
  185.6360  179.3770  146.7280 C   0  0  0  0  0  1  0  0  0  0  0  0
  186.0200  178.5650  145.5100 C   0  0  0  0  0  2  0  0  0  0  0  0
  1  8  2  0  0  0  0
  2 32  1  0  0  0  0
  3  7  1  0  0  0  0
  3 17  1  0  0  0  0
  4  2  2  0  0  0  0
  5  2  1  0  0  0  0
  5 22  2  0  0  0  0
  6 16  1  0  0  0  0
  6  1  1  0  0  0  0
  7 11  1  0  0  0  0
  7 14  2  0  0  0  0
  8 21  1  0  0  0  0
 10  8  1  0  0  0  0
 10 18  1  0  0  0  0
 11  5  1  0  0  0  0
 13 12  1  0  0  0  0
 14 12  1  0  0  0  0
 14 22  1  0  0  0  0
 15 11  2  0  0  0  0
 15  4  1  0  0  0  0
 16 10  2  0  0  0  0
 17 18  1  0  0  0  0
 17 13  2  0  0  0  0
 19  1  1  0  0  0  0
 19 20  1  0  0  0  0
 20  9  1  0  0  0  0
 20 21  2  0  0  0  0
 23 26  1  0  0  0  0
 23 24  1  6  0  0  0
 23 25  1  0  0  0  0
 24 25  1  0  0  0  0
 25  4  1  6  0  0  0
 26 28  1  6  0  0  0
 27 29  1  1  0  0  0
 27 28  1  0  0  0  0
 27 26  1  0  0  0  0
 30 29  1  0  0  0  0
 30 31  1  0  0  0  0
 32 34  1  0  0  0  0
 34 38  2  0  0  0  0
 35 33  1  0  0  0  0
 36 35  1  0  0  0  0
 37 40  1  1  0  0  0
 37 33  1  0  0  0  0
 38 36  2  0  0  0  0
 39 36  1  0  0  0  0
 39 37  1  0  0  0  0
 42 40  1  0  0  0  0
 42 41  1  0  0  0  0
M  END
>  <MODEL>
5

>  <REMARK>
 VINA RESULT:      -7.5      3.529      5.944
  Name = 
  8 active torsions:
  status: ('A' for Active; 'I' for Inactive)
    1  A    between atoms: C_2  and  O_13
    2  A    between atoms: C_5  and  C_6
    3  A    between atoms: C_7  and  O_13
    4  A    between atoms: C_10  and  O_12
    5  A    between atoms: C_11  and  C_30
    6  A    between atoms: O_12  and  C_41
    7  A    between atoms: C_20  and  C_24
    8  A    between atoms: C_20  and  C_31
                            x       y       z     vdW  Elec       q    Type
                         _______ _______ _______ _____ _____    ______ ____

>  <TORSDO>
F 8

$$$$
=
 OpenBabel11032419093D

 42 49  0  0  1  0  0  0  0  0999 V2000
  181.4750  173.2110  135.2810 C   0  0  0  0  0  0  0  0  0  0  0  0
  186.2360  178.5970  140.5740 C   0  0  0  0  0  0  0  0  0  0  0  0
  182.0480  177.8300  137.6430 S   0  0  0  0  0  0  0  0  0  0  0  0
  186.7080  178.3740  139.3390 C   0  0  0  0  0  0  0  0  0  0  0  0
  184.7960  178.6470  140.4520 C   0  0  0  0  0  0  0  0  0  0  0  0
  181.8120  174.5530  134.7370 C   0  0  0  0  0  2  0  0  0  0  0  0
  183.0680  178.4390  138.9830 C   0  0  0  0  0  0  0  0  0  0  0  0
  181.1690  173.3150  136.5940 C   0  0  0  0  0  0  0  0  0  0  0  0
  179.0490  170.3720  136.3700 C   0  0  0  0  0  1  0  0  0  0  0  0
  181.3380  174.6980  136.9560 C   0  0  0  0  0  0  0  0  0  0  0  0
  184.5020  178.4530  139.0990 C   0  0  0  0  0  0  0  0  0  0  0  0
  181.1960  178.1830  140.5410 C   0  0  0  0  0  2  0  0  0  0  0  0
  180.9260  176.8780  139.9300 N   0  0  0  0  0  0  0  0  0  0  0  0
  182.6020  178.5850  140.2260 C   0  0  0  0  0  0  0  0  0  0  0  0
  185.5830  178.2650  138.3590 C   0  0  0  0  0  3  0  0  0  0  0  0
  181.6970  175.4070  135.9300 N   0  0  0  0  0  0  0  0  0  0  0  0
  181.2560  176.5810  138.7030 C   0  0  0  0  0  0  0  0  0  0  0  0
  181.0590  175.2330  138.2560 N   0  0  0  0  0  2  0  0  0  0  0  0
  180.6360  171.9120  134.6260 S   0  0  0  0  0  0  0  0  0  0  0  0
  179.9950  171.4980  136.1450 C   0  0  0  0  0  0  0  0  0  0  0  0
  180.3130  172.4000  137.1070 N   0  0  0  0  0  0  0  0  0  0  0  0
  183.7100  178.7100  141.2110 C   0  0  0  0  0  3  0  0  0  0  0  0
  188.4580  177.0780  138.1610 C   0  0  1  0  0  3  0  0  0  0  0  0
  188.6510  177.0410  139.5540 O   0  0  0  0  0  0  0  0  0  0  0  0
  188.1680  178.2510  139.0210 C   0  0  2  0  0  3  0  0  0  0  0  0
  189.7970  177.2660  137.4800 C   0  0  2  0  0  3  0  0  0  0  0  0
  190.4290  175.9070  137.2560 C   0  0  2  0  0  3  0  0  0  0  0  0
  190.8970  176.7810  138.3990 C   0  0  0  0  0  2  0  0  0  0  0  0
  191.4190  176.0040  136.1090 C   0  0  0  0  0  2  0  0  0  0  0  0
  192.7530  175.4000  136.5060 C   0  0  0  0  0  2  0  0  0  0  0  0
  192.5590  174.0080  137.0800 C   0  0  0  0  0  1  0  0  0  0  0  0
  187.0110  178.7440  141.7260 O   0  0  0  0  0  0  0  0  0  0  0  0
  191.4190  175.7020  144.1060 C   0  0  0  0  0  2  0  0  0  0  0  0
  187.3970  177.6490  142.4920 C   0  0  0  0  0  3  0  0  0  0  0  0
  190.5140  175.9630  142.9140 C   0  0  0  0  0  2  0  0  0  0  0  0
  189.9050  177.3050  143.1080 C   0  0  0  0  0  0  0  0  0  0  0  0
  190.9950  176.6350  145.2300 C   0  0  2  0  0  3  0  0  0  0  0  0
  188.6500  177.4770  142.7970 C   0  0  0  0  0  0  0  0  0  0  0  0
  190.5860  178.2270  144.4690 S   0  0  0  0  0  0  0  0  0  0  0  0
  192.0460  176.7990  146.1340 O   0  0  0  0  0  0  0  0  0  0  0  0
  192.6370  175.6780  148.1440 C   0  0  0  0  0  1  0  0  0  0  0  0
  191.5380  176.3570  147.3560 C   0  0  0  0  0  2  0  0  0  0  0  0
  1  8  2  0  0  0  0
  2 32  1  0  0  0  0
  3 17  1  0  0  0  0
  3  7  1  0  0  0  0
  4  2  2  0  0  0  0
  5  2  1  0  0  0  0
  5 22  2  0  0  0  0
  6  1  1  0  0  0  0
  6 16  1  0  0  0  0
  7 11  1  0  0  0  0
  7 14  2  0  0  0  0
  8 10  1  0  0  0  0
  8 21  1  0  0  0  0
 10 18  1  0  0  0  0
 11  5  1  0  0  0  0
 13 12  1  0  0  0  0
 14 12  1  0  0  0  0
 14 22  1  0  0  0  0
 15 11  2  0  0  0  0
 15  4  1  0  0  0  0
 16 10  2  0  0  0  0
 17 13  2  0  0  0  0
 18 17  1  0  0  0  0
 19  1  1  0  0  0  0
 19 20  1  0  0  0  0
 20  9  1  0  0  0  0
 20 21  2  0  0  0  0
 23 25  1  0  0  0  0
 23 24  1  1  0  0  0
 25  4  1  1  0  0  0
 25 24  1  0  0  0  0
 26 23  1  0  0  0  0
 26 28  1  1  0  0  0
 27 29  1  6  0  0  0
 27 26  1  0  0  0  0
 27 28  1  0  0  0  0
 29 30  1  0  0  0  0
 30 31  1  0  0  0  0
 32 34  1  0  0  0  0
 33 37  1  0  0  0  0
 34 38  2  0  0  0  0
 35 36  1  0  0  0  0
 35 33  1  0  0  0  0
 36 39  1  0  0  0  0
 37 40  1  1  0  0  0
 38 36  2  0  0  0  0
 39 37  1  0  0  0  0
 40 42  1  0  0  0  0
 42 41  1  0  0  0  0
M  END
>  <MODEL>
6

>  <REMARK>
 VINA RESULT:      -7.4      2.313      3.569
  Name = 
  8 active torsions:
  status: ('A' for Active; 'I' for Inactive)
    1  A    between atoms: C_2  and  O_13
    2  A    between atoms: C_5  and  C_6
    3  A    between atoms: C_7  and  O_13
    4  A    between atoms: C_10  and  O_12
    5  A    between atoms: C_11  and  C_30
    6  A    between atoms: O_12  and  C_41
    7  A    between atoms: C_20  and  C_24
    8  A    between atoms: C_20  and  C_31
                            x       y       z     vdW  Elec       q    Type
                         _______ _______ _______ _____ _____    ______ ____

>  <TORSDO>
F 8

$$$$
=
 OpenBabel11032419093D

 42 49  0  0  1  0  0  0  0  0999 V2000
  181.9630  175.3920  136.3530 C   0  0  0  0  0  0  0  0  0  0  0  0
  189.5140  177.4430  140.6490 C   0  0  0  0  0  0  0  0  0  0  0  0
  184.8190  178.8560  139.0140 S   0  0  0  0  0  0  0  0  0  0  0  0
  189.5700  177.3640  139.3110 C   0  0  0  0  0  0  0  0  0  0  0  0
  188.2230  178.0110  140.9660 C   0  0  0  0  0  0  0  0  0  0  0  0
  182.6680  176.6240  135.9110 C   0  0  0  0  0  2  0  0  0  0  0  0
  186.2690  178.7520  140.0590 C   0  0  0  0  0  0  0  0  0  0  0  0
  182.0270  175.2890  137.6990 C   0  0  0  0  0  0  0  0  0  0  0  0
  178.9310  173.3870  137.7350 C   0  0  0  0  0  1  0  0  0  0  0  0
  182.8020  176.4060  138.1700 C   0  0  0  0  0  0  0  0  0  0  0  0
  187.5800  178.2470  139.7470 C   0  0  0  0  0  0  0  0  0  0  0  0
  184.8500  178.8010  142.0550 C   0  0  0  0  0  2  0  0  0  0  0  0
  183.9600  177.8460  141.3870 N   0  0  0  0  0  0  0  0  0  0  0  0
  186.1910  178.7580  141.3920 C   0  0  0  0  0  0  0  0  0  0  0  0
  188.3030  177.8760  138.7020 C   0  0  0  0  0  3  0  0  0  0  0  0
  183.1700  177.1660  137.1840 N   0  0  0  0  0  0  0  0  0  0  0  0
  183.8610  177.7460  140.0910 C   0  0  0  0  0  0  0  0  0  0  0  0
  183.0560  176.6890  139.5520 N   0  0  0  0  0  2  0  0  0  0  0  0
  180.5580  174.6480  135.8130 S   0  0  0  0  0  0  0  0  0  0  0  0
  180.1650  174.1390  137.3880 C   0  0  0  0  0  0  0  0  0  0  0  0
  181.0190  174.6300  138.3200 N   0  0  0  0  0  0  0  0  0  0  0  0
  187.4500  178.2650  142.0130 C   0  0  0  0  0  3  0  0  0  0  0  0
  190.4050  175.6370  137.7460 C   0  0  1  0  0  3  0  0  0  0  0  0
  191.0160  175.5150  139.0070 O   0  0  0  0  0  0  0  0  0  0  0  0
  190.7520  176.8240  138.5630 C   0  0  2  0  0  3  0  0  0  0  0  0
  191.4490  175.4380  136.6690 C   0  0  2  0  0  3  0  0  0  0  0  0
  191.7070  173.9530  136.5020 C   0  0  2  0  0  3  0  0  0  0  0  0
  192.6830  174.8110  137.2780 C   0  0  0  0  0  2  0  0  0  0  0  0
  192.2560  173.6990  135.1100 C   0  0  0  0  0  2  0  0  0  0  0  0
  191.9630  172.2750  134.6760 C   0  0  0  0  0  2  0  0  0  0  0  0
  190.4740  171.9910  134.7480 C   0  0  0  0  0  1  0  0  0  0  0  0
  190.5220  177.0450  141.5290 O   0  0  0  0  0  0  0  0  0  0  0  0
  189.6510  177.0280  147.3250 C   0  0  0  0  0  2  0  0  0  0  0  0
  190.2450  176.2970  142.6690 C   0  0  0  0  0  3  0  0  0  0  0  0
  190.6180  176.9590  146.1550 C   0  0  0  0  0  2  0  0  0  0  0  0
  189.9060  177.4850  144.9610 C   0  0  0  0  0  0  0  0  0  0  0  0
  188.2410  177.1290  146.7630 C   0  0  2  0  0  3  0  0  0  0  0  0
  190.0780  176.8910  143.8140 C   0  0  0  0  0  0  0  0  0  0  0  0
  188.3250  178.2200  145.3190 S   0  0  0  0  0  0  0  0  0  0  0  0
  187.3860  177.6750  147.7200 O   0  0  0  0  0  0  0  0  0  0  0  0
  185.0980  178.1050  147.2410 C   0  0  0  0  0  1  0  0  0  0  0  0
  186.5350  178.5160  147.0010 C   0  0  0  0  0  2  0  0  0  0  0  0
  1  8  2  0  0  0  0
  2  5  1  0  0  0  0
  2 32  1  0  0  0  0
  3  7  1  0  0  0  0
  3 17  1  0  0  0  0
  4  2  2  0  0  0  0
  5 22  2  0  0  0  0
  6  1  1  0  0  0  0
  6 16  1  0  0  0  0
  7 14  2  0  0  0  0
  8 10  1  0  0  0  0
  8 21  1  0  0  0  0
 10 18  1  0  0  0  0
 11  7  1  0  0  0  0
 11  5  1  0  0  0  0
 13 12  1  0  0  0  0
 14 22  1  0  0  0  0
 14 12  1  0  0  0  0
 15  4  1  0  0  0  0
 15 11  2  0  0  0  0
 16 10  2  0  0  0  0
 17 13  2  0  0  0  0
 18 17  1  0  0  0  0
 19  1  1  0  0  0  0
 19 20  1  0  0  0  0
 20  9  1  0  0  0  0
 20 21  2  0  0  0  0
 23 25  1  0  0  0  0
 23 24  1  1  0  0  0
 25 24  1  0  0  0  0
 25  4  1  1  0  0  0
 26 28  1  1  0  0  0
 26 23  1  0  0  0  0
 27 29  1  6  0  0  0
 27 26  1  0  0  0  0
 27 28  1  0  0  0  0
 30 31  1  0  0  0  0
 30 29  1  0  0  0  0
 32 34  1  0  0  0  0
 34 38  2  0  0  0  0
 35 33  1  0  0  0  0
 36 39  1  0  0  0  0
 36 35  1  0  0  0  0
 37 33  1  0  0  0  0
 37 40  1  1  0  0  0
 38 36  2  0  0  0  0
 39 37  1  0  0  0  0
 42 41  1  0  0  0  0
 42 40  1  0  0  0  0
M  END
>  <MODEL>
7

>  <REMARK>
 VINA RESULT:      -7.4      2.711      4.813
  Name = 
  8 active torsions:
  status: ('A' for Active; 'I' for Inactive)
    1  A    between atoms: C_2  and  O_13
    2  A    between atoms: C_5  and  C_6
    3  A    between atoms: C_7  and  O_13
    4  A    between atoms: C_10  and  O_12
    5  A    between atoms: C_11  and  C_30
    6  A    between atoms: O_12  and  C_41
    7  A    between atoms: C_20  and  C_24
    8  A    between atoms: C_20  and  C_31
                            x       y       z     vdW  Elec       q    Type
                         _______ _______ _______ _____ _____    ______ ____

>  <TORSDO>
F 8

$$$$
=
 OpenBabel11032419093D

 42 49  0  0  1  0  0  0  0  0999 V2000
  195.3320  173.0400  137.8400 C   0  0  0  0  0  0  0  0  0  0  0  0
  187.9480  177.7450  139.5770 C   0  0  0  0  0  0  0  0  0  0  0  0
  192.1160  176.9660  136.6210 S   0  0  0  0  0  0  0  0  0  0  0  0
  188.9950  177.9210  140.3960 C   0  0  0  0  0  0  0  0  0  0  0  0
  188.4970  177.5590  138.2520 C   0  0  0  0  0  0  0  0  0  0  0  0
  195.4940  174.5130  137.9650 C   0  0  0  0  0  2  0  0  0  0  0  0
  190.4390  177.4040  137.0750 C   0  0  0  0  0  0  0  0  0  0  0  0
  194.1820  172.7630  137.1860 C   0  0  0  0  0  0  0  0  0  0  0  0
  195.5770  169.6280  135.9900 C   0  0  0  0  0  1  0  0  0  0  0  0
  193.5420  174.0220  136.9090 C   0  0  0  0  0  0  0  0  0  0  0  0
  189.8860  177.6510  138.3790 C   0  0  0  0  0  0  0  0  0  0  0  0
  189.6080  176.4380  134.9830 C   0  0  0  0  0  2  0  0  0  0  0  0
  190.4980  175.2950  135.2120 N   0  0  0  0  0  0  0  0  0  0  0  0
  189.3960  177.1540  136.2790 C   0  0  0  0  0  0  0  0  0  0  0  0
  190.2780  177.8510  139.6270 C   0  0  0  0  0  3  0  0  0  0  0  0
  194.2620  175.0140  137.3370 N   0  0  0  0  0  0  0  0  0  0  0  0
  191.5960  175.3720  135.9130 C   0  0  0  0  0  0  0  0  0  0  0  0
  192.3170  174.1620  136.1770 N   0  0  0  0  0  2  0  0  0  0  0  0
  196.4380  171.8110  137.5470 S   0  0  0  0  0  0  0  0  0  0  0  0
  195.2920  170.9270  136.6540 C   0  0  0  0  0  0  0  0  0  0  0  0
  194.1320  171.6090  136.4770 N   0  0  0  0  0  0  0  0  0  0  0  0
  188.1120  177.2350  137.0250 C   0  0  0  0  0  3  0  0  0  0  0  0
  189.6670  177.1830  142.6610 C   0  0  1  0  0  3  0  0  0  0  0  0
  188.2860  177.0070  142.4590 O   0  0  0  0  0  0  0  0  0  0  0  0
  188.8630  178.1470  141.8720 C   0  0  2  0  0  3  0  0  0  0  0  0
  189.8980  177.7330  144.0520 C   0  0  2  0  0  3  0  0  0  0  0  0
  190.6210  176.6890  144.8800 C   0  0  2  0  0  3  0  0  0  0  0  0
  189.1320  176.8970  145.0540 C   0  0  0  0  0  2  0  0  0  0  0  0
  191.3620  177.3790  146.0110 C   0  0  0  0  0  2  0  0  0  0  0  0
  191.1520  176.6340  147.3160 C   0  0  0  0  0  2  0  0  0  0  0  0
  191.9040  175.3150  147.3030 C   0  0  0  0  0  1  0  0  0  0  0  0
  186.6060  177.7440  139.9640 O   0  0  0  0  0  0  0  0  0  0  0  0
  183.4160  179.2900  144.6310 C   0  0  0  0  0  2  0  0  0  0  0  0
  186.0620  178.7780  140.7190 C   0  0  0  0  0  3  0  0  0  0  0  0
  183.4680  178.8880  143.1660 C   0  0  0  0  0  2  0  0  0  0  0  0
  184.7900  178.2520  142.9300 C   0  0  0  0  0  0  0  0  0  0  0  0
  184.8430  179.3480  145.1530 C   0  0  2  0  0  3  0  0  0  0  0  0
  185.4240  178.5140  141.8220 C   0  0  0  0  0  0  0  0  0  0  0  0
  185.7330  177.9550  144.4100 S   0  0  0  0  0  0  0  0  0  0  0  0
  184.8470  179.2240  146.5430 O   0  0  0  0  0  0  0  0  0  0  0  0
  186.5810  177.9230  147.5150 C   0  0  0  0  0  1  0  0  0  0  0  0
  186.1950  179.2510  146.9010 C   0  0  0  0  0  2  0  0  0  0  0  0
  1  6  1  0  0  0  0
  2 32  1  0  0  0  0
  2  4  1  0  0  0  0
  3  7  1  0  0  0  0
  5 11  1  0  0  0  0
  5  2  2  0  0  0  0
  7 11  2  0  0  0  0
  8  1  2  0  0  0  0
  9 20  1  0  0  0  0
 10  8  1  0  0  0  0
 10 16  2  0  0  0  0
 11 15  1  0  0  0  0
 12 13  1  0  0  0  0
 12 14  1  0  0  0  0
 13 17  2  0  0  0  0
 14 22  2  0  0  0  0
 14  7  1  0  0  0  0
 15  4  2  0  0  0  0
 16  6  1  0  0  0  0
 17 18  1  0  0  0  0
 17  3  1  0  0  0  0
 18 10  1  0  0  0  0
 19  1  1  0  0  0  0
 20 19  1  0  0  0  0
 21 20  2  0  0  0  0
 21  8  1  0  0  0  0
 22  5  1  0  0  0  0
 23 24  1  1  0  0  0
 23 26  1  0  0  0  0
 25  4  1  6  0  0  0
 25 24  1  0  0  0  0
 25 23  1  0  0  0  0
 26 27  1  0  0  0  0
 26 28  1  1  0  0  0
 27 28  1  0  0  0  0
 27 29  1  1  0  0  0
 29 30  1  0  0  0  0
 31 30  1  0  0  0  0
 32 34  1  0  0  0  0
 33 37  1  0  0  0  0
 34 38  2  0  0  0  0
 35 33  1  0  0  0  0
 36 35  1  0  0  0  0
 36 39  1  0  0  0  0
 37 40  1  1  0  0  0
 38 36  2  0  0  0  0
 39 37  1  0  0  0  0
 40 42  1  0  0  0  0
 42 41  1  0  0  0  0
M  END
>  <MODEL>
8

>  <REMARK>
 VINA RESULT:      -7.0      5.293      9.278
  Name = 
  8 active torsions:
  status: ('A' for Active; 'I' for Inactive)
    1  A    between atoms: C_2  and  O_13
    2  A    between atoms: C_5  and  C_6
    3  A    between atoms: C_7  and  O_13
    4  A    between atoms: C_10  and  O_12
    5  A    between atoms: C_11  and  C_30
    6  A    between atoms: O_12  and  C_41
    7  A    between atoms: C_20  and  C_24
    8  A    between atoms: C_20  and  C_31
                            x       y       z     vdW  Elec       q    Type
                         _______ _______ _______ _____ _____    ______ ____

>  <TORSDO>
F 8

$$$$
=
 OpenBabel11032419093D

 42 49  0  0  1  0  0  0  0  0999 V2000
  189.8850  177.2290  143.9100 C   0  0  0  0  0  0  0  0  0  0  0  0
  184.8300  176.8360  136.5630 C   0  0  0  0  0  0  0  0  0  0  0  0
  189.0760  178.5860  138.9350 S   0  0  0  0  0  0  0  0  0  0  0  0
  184.3790  177.5850  137.5800 C   0  0  0  0  0  0  0  0  0  0  0  0
  186.2670  176.9950  136.5500 C   0  0  0  0  0  0  0  0  0  0  0  0
  189.4910  178.5270  143.3010 C   0  0  0  0  0  2  0  0  0  0  0  0
  188.0150  177.9820  137.6240 C   0  0  0  0  0  0  0  0  0  0  0  0
  190.1740  176.3380  142.9350 C   0  0  0  0  0  0  0  0  0  0  0  0
  192.4310  174.5720  145.1690 C   0  0  0  0  0  1  0  0  0  0  0  0
  189.9370  176.9990  141.6780 C   0  0  0  0  0  0  0  0  0  0  0  0
  186.5820  177.8700  137.5930 C   0  0  0  0  0  0  0  0  0  0  0  0
  189.8830  176.7060  136.6850 C   0  0  0  0  0  2  0  0  0  0  0  0
  190.2190  176.2840  138.0480 N   0  0  0  0  0  0  0  0  0  0  0  0
  188.4630  177.1740  136.6590 C   0  0  0  0  0  0  0  0  0  0  0  0
  185.5180  178.2630  138.2760 C   0  0  0  0  0  3  0  0  0  0  0  0
  189.5540  178.2260  141.8620 N   0  0  0  0  0  0  0  0  0  0  0  0
  189.9150  176.9810  139.1080 C   0  0  0  0  0  0  0  0  0  0  0  0
  190.1790  176.4070  140.3950 N   0  0  0  0  0  2  0  0  0  0  0  0
  190.7900  176.8580  145.2740 S   0  0  0  0  0  0  0  0  0  0  0  0
  191.4360  175.4730  144.5290 C   0  0  0  0  0  0  0  0  0  0  0  0
  191.0680  175.3630  143.2280 N   0  0  0  0  0  0  0  0  0  0  0  0
  187.3420  176.5040  135.9470 C   0  0  0  0  0  3  0  0  0  0  0  0
  182.7030  177.5330  139.4000 C   0  0  1  0  0  3  0  0  0  0  0  0
  182.4980  176.4780  138.4930 O   0  0  0  0  0  0  0  0  0  0  0  0
  182.9300  177.7000  137.9440 C   0  0  2  0  0  3  0  0  0  0  0  0
  181.3630  178.1290  139.7770 C   0  0  2  0  0  3  0  0  0  0  0  0
  181.2940  178.2710  141.2850 C   0  0  2  0  0  3  0  0  0  0  0  0
  180.5830  177.1260  140.5970 C   0  0  0  0  0  2  0  0  0  0  0  0
  180.2880  179.3520  141.6350 C   0  0  0  0  0  2  0  0  0  0  0  0
  180.3930  179.7190  143.1030 C   0  0  0  0  0  2  0  0  0  0  0  0
  179.3030  179.0310  143.9050 C   0  0  0  0  0  1  0  0  0  0  0  0
  184.0380  176.0650  135.7090 O   0  0  0  0  0  0  0  0  0  0  0  0
  182.9480  170.3330  136.2670 C   0  0  0  0  0  2  0  0  0  0  0  0
  184.3920  174.7660  135.3570 C   0  0  0  0  0  3  0  0  0  0  0  0
  183.6510  171.5790  136.7800 C   0  0  0  0  0  2  0  0  0  0  0  0
  182.9610  172.7530  136.1820 C   0  0  0  0  0  0  0  0  0  0  0  0
  182.1740  170.7120  135.0140 C   0  0  2  0  0  3  0  0  0  0  0  0
  183.6780  173.7610  135.7710 C   0  0  0  0  0  0  0  0  0  0  0  0
  181.4630  172.3530  135.3080 S   0  0  0  0  0  0  0  0  0  0  0  0
  181.1540  169.7880  134.7870 O   0  0  0  0  0  0  0  0  0  0  0  0
  178.9740  169.6300  135.7180 C   0  0  0  0  0  1  0  0  0  0  0  0
  179.9730  170.5020  134.9890 C   0  0  0  0  0  2  0  0  0  0  0  0
  1 19  1  0  0  0  0
  2  4  1  0  0  0  0
  3 17  1  0  0  0  0
  4 15  2  0  0  0  0
  5  2  2  0  0  0  0
  5 11  1  0  0  0  0
  6  1  1  0  0  0  0
  7  3  1  0  0  0  0
  8 21  1  0  0  0  0
  8  1  2  0  0  0  0
 10 16  2  0  0  0  0
 10  8  1  0  0  0  0
 11  7  2  0  0  0  0
 11 15  1  0  0  0  0
 12 13  1  0  0  0  0
 13 17  2  0  0  0  0
 14 12  1  0  0  0  0
 14  7  1  0  0  0  0
 16  6  1  0  0  0  0
 17 18  1  0  0  0  0
 18 10  1  0  0  0  0
 20  9  1  0  0  0  0
 20 19  1  0  0  0  0
 21 20  2  0  0  0  0
 22  5  1  0  0  0  0
 22 14  2  0  0  0  0
 23 24  1  6  0  0  0
 23 26  1  0  0  0  0
 25  4  1  1  0  0  0
 25 24  1  0  0  0  0
 25 23  1  0  0  0  0
 26 28  1  1  0  0  0
 26 27  1  0  0  0  0
 27 29  1  6  0  0  0
 28 27  1  0  0  0  0
 29 30  1  0  0  0  0
 30 31  1  0  0  0  0
 32  2  1  0  0  0  0
 33 35  1  0  0  0  0
 34 32  1  0  0  0  0
 34 38  2  0  0  0  0
 36 35  1  0  0  0  0
 37 40  1  1  0  0  0
 37 39  1  0  0  0  0
 37 33  1  0  0  0  0
 38 36  2  0  0  0  0
 39 36  1  0  0  0  0
 40 42  1  0  0  0  0
 42 41  1  0  0  0  0
M  END
>  <MODEL>
9

>  <REMARK>
 VINA RESULT:      -6.8      4.811     11.448
  Name = 
  8 active torsions:
  status: ('A' for Active; 'I' for Inactive)
    1  A    between atoms: C_2  and  O_13
    2  A    between atoms: C_5  and  C_6
    3  A    between atoms: C_7  and  O_13
    4  A    between atoms: C_10  and  O_12
    5  A    between atoms: C_11  and  C_30
    6  A    between atoms: O_12  and  C_41
    7  A    between atoms: C_20  and  C_24
    8  A    between atoms: C_20  and  C_31
                            x       y       z     vdW  Elec       q    Type
                         _______ _______ _______ _____ _____    ______ ____

>  <TORSDO>
F 8

$$$$
