=
 OpenBabel11032419453D

 45 50  0  0  1  0  0  0  0  0999 V2000
  184.3010  178.6430  143.3550 C   0  0  0  0  0  2  0  0  0  0  0  0
  185.3190  179.0200  139.2720 C   0  0  0  0  0  2  0  0  0  0  0  0
  183.5670  177.4140  138.3070 C   0  0  0  0  0  0  0  0  0  0  0  0
  183.4170  178.0740  142.4220 O   0  0  0  0  0  0  0  0  0  0  0  0
  184.9970  178.3830  140.6260 C   0  0  1  0  0  3  0  0  0  0  0  0
  180.7950  176.8620  140.6380 O   0  0  0  0  0  0  0  0  0  0  0  0
  186.0850  178.7560  141.6270 C   0  0  0  0  0  2  0  0  0  0  0  0
  182.4270  178.5310  140.2370 C   0  0  2  0  0  3  0  0  0  0  0  0
  181.6600  176.3630  139.6870 C   0  0  0  0  0  0  0  0  0  0  0  0
  183.6110  178.7650  141.2080 C   0  0  1  0  0  3  0  0  0  0  0  0
  181.1060  178.2100  140.9760 C   0  0  1  0  0  3  0  0  0  0  0  0
  185.7360  178.2360  143.0190 C   0  0  1  0  0  3  0  0  0  0  0  0
  182.6500  177.3660  139.3090 C   0  0  0  0  0  0  0  0  0  0  0  0
  184.3230  178.7110  138.1430 C   0  0  0  0  0  2  0  0  0  0  0  0
  181.5810  175.1810  139.2660 O   0  0  0  0  0  0  0  0  0  0  0  0
  184.6970  175.1300  137.6170 C   0  0  1  0  0  3  0  0  0  0  0  0
  185.2690  176.2510  136.7390 C   0  0  0  0  0  2  0  0  0  0  0  0
  183.8620  176.3500  137.2630 C   0  0  2  0  0  0  0  0  0  0  0  0
  182.9060  176.1730  136.2550 O   0  0  0  0  0  1  0  0  0  0  0  0
  184.3820  173.9500  136.7610 C   0  0  0  0  0  3  0  0  0  0  0  0
  184.4280  172.7250  137.2710 C   0  0  0  0  0  3  0  0  0  0  0  0
  184.1180  171.5440  136.4590 C   0  0  0  0  0  0  0  0  0  0  0  0
  185.0050  171.0540  135.7140 O   0  0  0  0  0  0  0  0  0  0  0  0
  182.8260  170.9410  136.5040 N   0  0  0  0  0  1  0  0  0  0  0  0
  179.9660  179.1340  140.5480 C   0  0  1  0  0  3  0  0  0  0  0  0
  178.9310  179.2470  141.6540 C   0  0  0  0  0  1  0  0  0  0  0  0
  180.4740  180.4550  140.1910 N   0  0  0  0  0  2  0  0  0  0  0  0
  180.9430  184.8340  135.8440 C   0  0  0  0  0  2  0  0  0  0  0  0
  180.4990  180.9700  138.8580 C   0  0  0  0  0  0  0  0  0  0  0  0
  180.2640  184.0090  134.7540 C   0  0  0  0  0  2  0  0  0  0  0  0
  180.5410  182.5860  134.9490 N   0  0  0  0  0  2  0  0  0  0  0  0
  180.5210  182.3550  138.6660 C   0  0  0  0  0  3  0  0  0  0  0  0
  180.5190  180.1130  137.7450 C   0  0  0  0  0  3  0  0  0  0  0  0
  180.5570  182.8820  137.3730 C   0  0  0  0  0  0  0  0  0  0  0  0
  180.5480  182.0260  136.2640 C   0  0  0  0  0  0  0  0  0  0  0  0
  180.6150  184.2960  137.1630 N   0  0  0  0  0  2  0  0  0  0  0  0
  180.5420  180.6410  136.4490 C   0  0  0  0  0  3  0  0  0  0  0  0
  186.6170  178.7840  143.9530 O   0  0  0  0  0  0  0  0  0  0  0  0
  187.4000  177.4680  144.6830 P   0  0  2  0  0  0  0  0  0  0  0  0
  187.3690  176.2720  143.7560 O   0  0  0  0  0  0  0  0  0  0  0  0
  186.5940  177.0770  146.1170 O   0  0  0  0  0  1  0  0  0  0  0  0
  189.7170  178.1170  142.5970 C   0  0  0  0  0  1  0  0  0  0  0  0
  191.2160  178.4770  144.3980 O   0  0  0  0  0  0  0  0  0  0  0  0
  190.0460  178.1740  144.0500 C   0  0  0  0  0  0  0  0  0  0  0  0
  189.0680  177.8830  145.0520 N   0  0  0  0  0  2  0  0  0  0  0  0
  3 13  2  0  0  0  0
  4  1  1  0  0  0  0
  5  2  1  6  0  0  0
  5 10  1  0  0  0  0
  5  7  1  0  0  0  0
  6 11  1  0  0  0  0
  7 12  1  0  0  0  0
  8 13  1  6  0  0  0
  8 11  1  0  0  0  0
  8 10  1  0  0  0  0
  9  6  1  0  0  0  0
 10  4  1  1  0  0  0
 11 25  1  6  0  0  0
 12  1  1  0  0  0  0
 12 38  1  1  0  0  0
 13  9  1  0  0  0  0
 14  3  1  0  0  0  0
 14  2  1  0  0  0  0
 15  9  2  0  0  0  0
 16 20  1  6  0  0  0
 17 18  1  0  0  0  0
 17 16  1  0  0  0  0
 18 19  1  6  0  0  0
 18 16  1  0  0  0  0
 18  3  1  0  0  0  0
 20 21  2  0  0  0  0
 22 24  1  0  0  0  0
 22 21  1  0  0  0  0
 23 22  2  0  0  0  0
 25 26  1  1  0  0  0
 27 25  1  0  0  0  0
 28 36  1  0  0  0  0
 29 27  1  0  0  0  0
 30 31  1  0  0  0  0
 30 28  1  0  0  0  0
 31 35  1  0  0  0  0
 32 29  1  0  0  0  0
 33 29  2  0  0  0  0
 34 32  2  0  0  0  0
 35 37  2  0  0  0  0
 35 34  1  0  0  0  0
 36 34  1  0  0  0  0
 37 33  1  0  0  0  0
 38 39  1  0  0  0  0
 39 40  2  6  0  0  0
 39 45  1  0  0  0  0
 39 41  1  0  0  0  0
 42 44  1  0  0  0  0
 44 43  2  0  0  0  0
 44 45  1  0  0  0  0
M  END
>  <MODEL>
1

>  <REMARK>
 VINA RESULT:      -6.9      0.000      0.000
  Name = 
  9 active torsions:
  status: ('A' for Active; 'I' for Inactive)
    1  A    between atoms: C_2  and  C_3
    2  A    between atoms: C_7  and  N_30
    3  A    between atoms: C_9  and  N_30
    4  A    between atoms: C_9  and  C_33
    5  A    between atoms: P_10  and  N_41
    6  A    between atoms: P_10  and  O_43
    7  A    between atoms: C_11  and  C_13
    8  A    between atoms: C_15  and  C_26
    9  A    between atoms: C_34  and  O_43
                            x       y       z     vdW  Elec       q    Type
                         _______ _______ _______ _____ _____    ______ ____

>  <TORSDO>
F 9

$$$$
=
 OpenBabel11032419453D

 45 50  0  0  1  0  0  0  0  0999 V2000
  189.3490  177.3400  140.6240 C   0  0  0  0  0  2  0  0  0  0  0  0
  193.1320  177.3370  138.7400 C   0  0  0  0  0  2  0  0  0  0  0  0
  192.7510  175.3570  137.1560 C   0  0  0  0  0  0  0  0  0  0  0  0
  189.4990  176.5180  139.4930 O   0  0  0  0  0  0  0  0  0  0  0  0
  191.8890  176.8390  139.4830 C   0  0  1  0  0  3  0  0  0  0  0  0
  189.1850  174.6750  136.6590 O   0  0  0  0  0  0  0  0  0  0  0  0
  191.8200  177.5110  140.8510 C   0  0  0  0  0  2  0  0  0  0  0  0
  190.5360  176.5190  137.2820 C   0  0  2  0  0  3  0  0  0  0  0  0
  190.4710  174.2010  136.8130 C   0  0  0  0  0  0  0  0  0  0  0  0
  190.5520  177.0660  138.7310 C   0  0  1  0  0  3  0  0  0  0  0  0
  189.1220  176.0880  136.8240 C   0  0  1  0  0  3  0  0  0  0  0  0
  190.5310  177.1290  141.5720 C   0  0  1  0  0  3  0  0  0  0  0  0
  191.3940  175.2930  137.1090 C   0  0  0  0  0  0  0  0  0  0  0  0
  193.3580  176.7250  137.3480 C   0  0  0  0  0  2  0  0  0  0  0  0
  190.7460  172.9780  136.7350 O   0  0  0  0  0  0  0  0  0  0  0  0
  194.8370  174.3480  135.8920 C   0  0  1  0  0  3  0  0  0  0  0  0
  193.6320  173.4240  135.6750 C   0  0  0  0  0  2  0  0  0  0  0  0
  193.7440  174.2270  136.9410 C   0  0  2  0  0  0  0  0  0  0  0  0
  194.0390  173.4270  138.0530 O   0  0  0  0  0  1  0  0  0  0  0  0
  196.0370  173.5210  136.2140 C   0  0  0  0  0  3  0  0  0  0  0  0
  197.1830  174.1060  136.5400 C   0  0  0  0  0  3  0  0  0  0  0  0
  198.3780  173.3230  136.8680 C   0  0  0  0  0  0  0  0  0  0  0  0
  199.0670  173.6360  137.8730 O   0  0  0  0  0  0  0  0  0  0  0  0
  198.7700  172.2110  136.0650 N   0  0  0  0  0  1  0  0  0  0  0  0
  188.7150  176.7520  135.5090 C   0  0  1  0  0  3  0  0  0  0  0  0
  188.0360  175.7450  134.5940 C   0  0  0  0  0  1  0  0  0  0  0  0
  187.8340  177.8900  135.7520 N   0  0  0  0  0  2  0  0  0  0  0  0
  184.7580  179.1120  140.9800 C   0  0  0  0  0  2  0  0  0  0  0  0
  186.7170  177.8620  136.6430 C   0  0  0  0  0  0  0  0  0  0  0  0
  183.7250  178.0050  140.7850 C   0  0  0  0  0  2  0  0  0  0  0  0
  183.4760  177.7890  139.3600 N   0  0  0  0  0  2  0  0  0  0  0  0
  186.8780  178.3400  137.9470 C   0  0  0  0  0  3  0  0  0  0  0  0
  185.4640  177.3810  136.2270 C   0  0  0  0  0  3  0  0  0  0  0  0
  185.7980  178.3340  138.8330 C   0  0  0  0  0  0  0  0  0  0  0  0
  184.5570  177.8270  138.4250 C   0  0  0  0  0  0  0  0  0  0  0  0
  185.9390  178.8510  140.1590 N   0  0  0  0  0  2  0  0  0  0  0  0
  184.3860  177.3630  137.1180 C   0  0  0  0  0  3  0  0  0  0  0  0
  190.3790  177.9310  142.7060 O   0  0  0  0  0  0  0  0  0  0  0  0
  190.3680  176.8680  144.0290 P   0  0  2  0  0  0  0  0  0  0  0  0
  191.7430  176.8120  144.6560 O   0  0  0  0  0  1  0  0  0  0  0  0
  189.9450  175.3220  143.4860 O   0  0  0  0  0  0  0  0  0  0  0  0
  187.2480  177.3220  143.5790 C   0  0  0  0  0  1  0  0  0  0  0  0
  187.0270  177.9390  145.8580 O   0  0  0  0  0  0  0  0  0  0  0  0
  187.8030  177.5680  144.9410 C   0  0  0  0  0  0  0  0  0  0  0  0
  189.1950  177.4010  145.2250 N   0  0  0  0  0  2  0  0  0  0  0  0
  1 12  1  0  0  0  0
  3 14  1  0  0  0  0
  4  1  1  0  0  0  0
  5  2  1  6  0  0  0
  5  7  1  0  0  0  0
  6  9  1  0  0  0  0
  6 11  1  0  0  0  0
  7 12  1  0  0  0  0
  8 13  1  1  0  0  0
  8 10  1  0  0  0  0
  9 13  1  0  0  0  0
 10  5  1  0  0  0  0
 10  4  1  1  0  0  0
 11 25  1  6  0  0  0
 11  8  1  0  0  0  0
 12 38  1  1  0  0  0
 13  3  2  0  0  0  0
 14  2  1  0  0  0  0
 15  9  2  0  0  0  0
 16 20  1  1  0  0  0
 16 18  1  0  0  0  0
 17 16  1  0  0  0  0
 17 18  1  0  0  0  0
 18  3  1  0  0  0  0
 18 19  1  1  0  0  0
 20 21  2  0  0  0  0
 21 22  1  0  0  0  0
 22 23  2  0  0  0  0
 24 22  1  0  0  0  0
 25 26  1  6  0  0  0
 25 27  1  0  0  0  0
 27 29  1  0  0  0  0
 29 32  1  0  0  0  0
 30 28  1  0  0  0  0
 31 30  1  0  0  0  0
 32 34  2  0  0  0  0
 33 29  2  0  0  0  0
 33 37  1  0  0  0  0
 34 36  1  0  0  0  0
 35 34  1  0  0  0  0
 35 31  1  0  0  0  0
 36 28  1  0  0  0  0
 37 35  2  0  0  0  0
 38 39  1  0  0  0  0
 39 41  2  6  0  0  0
 39 40  1  0  0  0  0
 39 45  1  0  0  0  0
 42 44  1  0  0  0  0
 44 45  1  0  0  0  0
 44 43  2  0  0  0  0
M  END
>  <MODEL>
2

>  <REMARK>
 VINA RESULT:      -6.7      5.862      8.673
  Name = 
  9 active torsions:
  status: ('A' for Active; 'I' for Inactive)
    1  A    between atoms: C_2  and  C_3
    2  A    between atoms: C_7  and  N_30
    3  A    between atoms: C_9  and  N_30
    4  A    between atoms: C_9  and  C_33
    5  A    between atoms: P_10  and  N_41
    6  A    between atoms: P_10  and  O_43
    7  A    between atoms: C_11  and  C_13
    8  A    between atoms: C_15  and  C_26
    9  A    between atoms: C_34  and  O_43
                            x       y       z     vdW  Elec       q    Type
                         _______ _______ _______ _____ _____    ______ ____

>  <TORSDO>
F 9

$$$$
=
 OpenBabel11032419453D

 45 50  0  0  1  0  0  0  0  0999 V2000
  181.0410  181.0570  138.6250 C   0  0  0  0  0  2  0  0  0  0  0  0
  181.3450  176.9060  137.8960 C   0  0  0  0  0  2  0  0  0  0  0  0
  183.8900  176.6800  138.1180 C   0  0  0  0  0  0  0  0  0  0  0  0
  182.2870  180.4550  138.8710 O   0  0  0  0  0  0  0  0  0  0  0  0
  181.5990  178.4120  137.7900 C   0  0  1  0  0  3  0  0  0  0  0  0
  185.3510  179.4860  139.9670 O   0  0  0  0  0  0  0  0  0  0  0  0
  180.3420  179.0970  137.2640 C   0  0  0  0  0  2  0  0  0  0  0  0
  183.2450  178.4120  139.8070 C   0  0  2  0  0  3  0  0  0  0  0  0
  185.4400  178.5700  138.9400 C   0  0  0  0  0  0  0  0  0  0  0  0
  182.0350  179.0890  139.1150 C   0  0  1  0  0  3  0  0  0  0  0  0
  184.0940  179.4100  140.6310 C   0  0  1  0  0  3  0  0  0  0  0  0
  180.5180  180.6120  137.2570 C   0  0  1  0  0  3  0  0  0  0  0  0
  184.2090  177.7940  138.8290 C   0  0  0  0  0  0  0  0  0  0  0  0
  182.5370  176.0690  138.3880 C   0  0  0  0  0  2  0  0  0  0  0  0
  186.4560  178.4860  138.2060 O   0  0  0  0  0  0  0  0  0  0  0  0
  185.2860  176.5760  135.8800 C   0  0  1  0  0  3  0  0  0  0  0  0
  184.1780  175.5150  135.8230 C   0  0  0  0  0  2  0  0  0  0  0  0
  184.7710  175.9120  137.1470 C   0  0  2  0  0  0  0  0  0  0  0  0
  185.5800  174.9050  137.6890 O   0  0  0  0  0  1  0  0  0  0  0  0
  186.5630  175.9760  135.3940 C   0  0  0  0  0  3  0  0  0  0  0  0
  187.6920  176.6700  135.4580 C   0  0  0  0  0  3  0  0  0  0  0  0
  188.9650  176.1080  134.9960 C   0  0  0  0  0  0  0  0  0  0  0  0
  189.8730  176.8810  134.5940 O   0  0  0  0  0  0  0  0  0  0  0  0
  189.1900  174.7000  134.9980 N   0  0  0  0  0  1  0  0  0  0  0  0
  184.2900  178.9460  142.0750 C   0  0  1  0  0  3  0  0  0  0  0  0
  182.9600  178.5360  142.6860 C   0  0  0  0  0  1  0  0  0  0  0  0
  185.2410  177.8400  142.1400 N   0  0  0  0  0  2  0  0  0  0  0  0
  191.2500  178.1330  143.5850 C   0  0  0  0  0  2  0  0  0  0  0  0
  186.3740  177.8090  143.0100 C   0  0  0  0  0  0  0  0  0  0  0  0
  191.0980  177.4060  144.9200 C   0  0  0  0  0  2  0  0  0  0  0  0
  189.7880  177.6900  145.5040 N   0  0  0  0  0  2  0  0  0  0  0  0
  187.6570  177.8260  142.4530 C   0  0  0  0  0  3  0  0  0  0  0  0
  186.2220  177.7810  144.4060 C   0  0  0  0  0  3  0  0  0  0  0  0
  188.7800  177.8080  143.2820 C   0  0  0  0  0  0  0  0  0  0  0  0
  188.6250  177.7510  144.6740 C   0  0  0  0  0  0  0  0  0  0  0  0
  190.0980  177.8600  142.7280 N   0  0  0  0  0  2  0  0  0  0  0  0
  187.3460  177.7500  145.2370 C   0  0  0  0  0  3  0  0  0  0  0  0
  179.2880  181.2210  136.9990 O   0  0  0  0  0  0  0  0  0  0  0  0
  179.6460  182.6610  136.1760 P   0  0  2  0  0  0  0  0  0  0  0  0
  178.9310  182.6840  134.8430 O   0  0  0  0  0  0  0  0  0  0  0  0
  181.3140  182.7410  135.9100 O   0  0  0  0  0  1  0  0  0  0  0  0
  181.5310  184.9150  137.4050 C   0  0  0  0  0  1  0  0  0  0  0  0
  179.6220  185.9960  138.3070 O   0  0  0  0  0  0  0  0  0  0  0  0
  180.0630  185.0240  137.6400 C   0  0  0  0  0  0  0  0  0  0  0  0
  179.1470  184.0470  137.1350 N   0  0  0  0  0  2  0  0  0  0  0  0
  1  4  1  0  0  0  0
  2 14  1  0  0  0  0
  3 14  1  0  0  0  0
  3 13  2  0  0  0  0
  5  7  1  1  0  0  0
  5  2  1  0  0  0  0
  5 10  1  0  0  0  0
  6 11  1  0  0  0  0
  8 13  1  6  0  0  0
  8 11  1  0  0  0  0
  9  6  1  0  0  0  0
 10  4  1  6  0  0  0
 10  8  1  0  0  0  0
 11 25  1  1  0  0  0
 12 38  1  1  0  0  0
 12  7  1  0  0  0  0
 12  1  1  0  0  0  0
 13  9  1  0  0  0  0
 15  9  2  0  0  0  0
 16 20  1  6  0  0  0
 16 18  1  0  0  0  0
 17 16  1  0  0  0  0
 17 18  1  0  0  0  0
 18 19  1  1  0  0  0
 18  3  1  0  0  0  0
 20 21  2  0  0  0  0
 22 24  1  0  0  0  0
 22 21  1  0  0  0  0
 23 22  2  0  0  0  0
 25 27  1  0  0  0  0
 25 26  1  6  0  0  0
 27 29  1  0  0  0  0
 28 30  1  0  0  0  0
 29 33  1  0  0  0  0
 30 31  1  0  0  0  0
 32 29  2  0  0  0  0
 32 34  1  0  0  0  0
 33 37  2  0  0  0  0
 34 35  2  0  0  0  0
 35 37  1  0  0  0  0
 35 31  1  0  0  0  0
 36 34  1  0  0  0  0
 36 28  1  0  0  0  0
 39 40  2  6  0  0  0
 39 38  1  0  0  0  0
 39 45  1  0  0  0  0
 41 39  1  0  0  0  0
 42 44  1  0  0  0  0
 44 43  2  0  0  0  0
 45 44  1  0  0  0  0
M  END
>  <MODEL>
3

>  <REMARK>
 VINA RESULT:      -6.7      3.878      8.832
  Name = 
  9 active torsions:
  status: ('A' for Active; 'I' for Inactive)
    1  A    between atoms: C_2  and  C_3
    2  A    between atoms: C_7  and  N_30
    3  A    between atoms: C_9  and  N_30
    4  A    between atoms: C_9  and  C_33
    5  A    between atoms: P_10  and  N_41
    6  A    between atoms: P_10  and  O_43
    7  A    between atoms: C_11  and  C_13
    8  A    between atoms: C_15  and  C_26
    9  A    between atoms: C_34  and  O_43
                            x       y       z     vdW  Elec       q    Type
                         _______ _______ _______ _____ _____    ______ ____

>  <TORSDO>
F 9

$$$$
=
 OpenBabel11032419453D

 45 50  0  0  1  0  0  0  0  0999 V2000
  189.7270  177.5910  141.0300 C   0  0  0  0  0  2  0  0  0  0  0  0
  193.0210  177.1380  138.4220 C   0  0  0  0  0  2  0  0  0  0  0  0
  192.1130  175.1930  137.0190 C   0  0  0  0  0  0  0  0  0  0  0  0
  189.5530  176.7420  139.9220 O   0  0  0  0  0  0  0  0  0  0  0  0
  191.9110  176.7930  139.4180 C   0  0  1  0  0  3  0  0  0  0  0  0
  188.4700  174.9100  137.2780 O   0  0  0  0  0  0  0  0  0  0  0  0
  192.1960  177.4860  140.7460 C   0  0  0  0  0  2  0  0  0  0  0  0
  190.1100  176.5980  137.5490 C   0  0  2  0  0  3  0  0  0  0  0  0
  189.7010  174.2970  137.1850 C   0  0  0  0  0  0  0  0  0  0  0  0
  190.4800  177.1580  138.9440 C   0  0  1  0  0  3  0  0  0  0  0  0
  188.5940  176.3230  137.4020 C   0  0  1  0  0  3  0  0  0  0  0  0
  191.0490  177.2610  141.7270 C   0  0  1  0  0  3  0  0  0  0  0  0
  190.7770  175.2810  137.2490 C   0  0  0  0  0  0  0  0  0  0  0  0
  192.8900  176.4870  137.0360 C   0  0  0  0  0  2  0  0  0  0  0  0
  189.8220  173.0490  137.0960 O   0  0  0  0  0  0  0  0  0  0  0  0
  194.0120  174.0310  135.5990 C   0  0  1  0  0  3  0  0  0  0  0  0
  192.6740  173.3420  135.2960 C   0  0  0  0  0  2  0  0  0  0  0  0
  192.9140  173.9560  136.6480 C   0  0  2  0  0  0  0  0  0  0  0  0
  193.0800  172.9890  137.6480 O   0  0  0  0  0  1  0  0  0  0  0  0
  195.0650  172.9930  135.7930 C   0  0  0  0  0  3  0  0  0  0  0  0
  196.2470  173.3270  136.2950 C   0  0  0  0  0  3  0  0  0  0  0  0
  197.3010  172.3300  136.5050 C   0  0  0  0  0  0  0  0  0  0  0  0
  198.4520  172.5380  136.0400 O   0  0  0  0  0  0  0  0  0  0  0  0
  197.0430  171.1290  137.2300 N   0  0  0  0  0  1  0  0  0  0  0  0
  187.9990  177.0110  136.1730 C   0  0  1  0  0  3  0  0  0  0  0  0
  187.1700  176.0280  135.3630 C   0  0  0  0  0  1  0  0  0  0  0  0
  187.1870  178.1600  136.5630 N   0  0  0  0  0  2  0  0  0  0  0  0
  185.1920  179.2650  142.3150 C   0  0  0  0  0  2  0  0  0  0  0  0
  186.2490  178.1470  137.6410 C   0  0  0  0  0  0  0  0  0  0  0  0
  184.0670  178.2330  142.2630 C   0  0  0  0  0  2  0  0  0  0  0  0
  183.5520  178.1140  140.9000 N   0  0  0  0  0  2  0  0  0  0  0  0
  186.6740  178.5400  138.9140 C   0  0  0  0  0  3  0  0  0  0  0  0
  184.9110  177.7660  137.4410 C   0  0  0  0  0  3  0  0  0  0  0  0
  185.7730  178.5480  139.9820 C   0  0  0  0  0  0  0  0  0  0  0  0
  184.4470  178.1400  139.7850 C   0  0  0  0  0  0  0  0  0  0  0  0
  186.1850  178.9810  141.2810 N   0  0  0  0  0  2  0  0  0  0  0  0
  184.0120  177.7610  138.5120 C   0  0  0  0  0  3  0  0  0  0  0  0
  191.2190  178.0880  142.8380 O   0  0  0  0  0  0  0  0  0  0  0  0
  190.4920  177.2760  144.1390 P   0  0  2  0  0  0  0  0  0  0  0  0
  190.0660  175.8900  143.7070 O   0  0  0  0  0  0  0  0  0  0  0  0
  189.1270  178.1450  144.6330 O   0  0  0  0  0  1  0  0  0  0  0  0
  189.7830  176.6240  147.1740 C   0  0  0  0  0  1  0  0  0  0  0  0
  192.0860  176.7600  147.7240 O   0  0  0  0  0  0  0  0  0  0  0  0
  191.2150  176.8430  146.8200 C   0  0  0  0  0  0  0  0  0  0  0  0
  191.6180  177.1550  145.4830 N   0  0  0  0  0  2  0  0  0  0  0  0
  1 12  1  0  0  0  0
  3 14  1  0  0  0  0
  3 13  2  0  0  0  0
  4  1  1  0  0  0  0
  5  2  1  6  0  0  0
  5  7  1  0  0  0  0
  6 11  1  0  0  0  0
  7 12  1  0  0  0  0
  8 13  1  1  0  0  0
  8 10  1  0  0  0  0
  9 13  1  0  0  0  0
  9  6  1  0  0  0  0
 10  5  1  0  0  0  0
 10  4  1  1  0  0  0
 11 25  1  6  0  0  0
 11  8  1  0  0  0  0
 12 38  1  1  0  0  0
 14  2  1  0  0  0  0
 15  9  2  0  0  0  0
 16 20  1  1  0  0  0
 16 18  1  0  0  0  0
 17 16  1  0  0  0  0
 17 18  1  0  0  0  0
 18  3  1  0  0  0  0
 18 19  1  1  0  0  0
 20 21  2  0  0  0  0
 21 22  1  0  0  0  0
 22 24  1  0  0  0  0
 23 22  2  0  0  0  0
 25 26  1  1  0  0  0
 25 27  1  0  0  0  0
 27 29  1  0  0  0  0
 29 32  1  0  0  0  0
 30 28  1  0  0  0  0
 31 30  1  0  0  0  0
 32 34  2  0  0  0  0
 33 29  2  0  0  0  0
 33 37  1  0  0  0  0
 34 36  1  0  0  0  0
 35 34  1  0  0  0  0
 35 31  1  0  0  0  0
 36 28  1  0  0  0  0
 37 35  2  0  0  0  0
 38 39  1  0  0  0  0
 39 40  2  6  0  0  0
 39 41  1  0  0  0  0
 39 45  1  0  0  0  0
 44 42  1  0  0  0  0
 44 43  2  0  0  0  0
 45 44  1  0  0  0  0
M  END
>  <MODEL>
4

>  <REMARK>
 VINA RESULT:      -6.7      5.736      8.239
  Name = 
  9 active torsions:
  status: ('A' for Active; 'I' for Inactive)
    1  A    between atoms: C_2  and  C_3
    2  A    between atoms: C_7  and  N_30
    3  A    between atoms: C_9  and  N_30
    4  A    between atoms: C_9  and  C_33
    5  A    between atoms: P_10  and  N_41
    6  A    between atoms: P_10  and  O_43
    7  A    between atoms: C_11  and  C_13
    8  A    between atoms: C_15  and  C_26
    9  A    between atoms: C_34  and  O_43
                            x       y       z     vdW  Elec       q    Type
                         _______ _______ _______ _____ _____    ______ ____

>  <TORSDO>
F 9

$$$$
=
 OpenBabel11032419453D

 45 50  0  0  1  0  0  0  0  0999 V2000
  188.0590  178.2050  137.4600 C   0  0  0  0  0  2  0  0  0  0  0  0
  189.5430  174.3000  136.8220 C   0  0  0  0  0  2  0  0  0  0  0  0
  191.9500  174.6880  137.6210 C   0  0  0  0  0  0  0  0  0  0  0  0
  189.3290  177.9110  137.9860 O   0  0  0  0  0  0  0  0  0  0  0  0
  189.4300  175.8270  136.7770 C   0  0  1  0  0  3  0  0  0  0  0  0
  192.2150  177.6540  139.7550 O   0  0  0  0  0  0  0  0  0  0  0  0
  188.1910  176.2140  135.9760 C   0  0  0  0  0  2  0  0  0  0  0  0
  190.5340  176.1120  139.1170 C   0  0  2  0  0  3  0  0  0  0  0  0
  192.7560  176.8470  138.7760 C   0  0  0  0  0  0  0  0  0  0  0  0
  189.3780  176.5130  138.1660 C   0  0  1  0  0  3  0  0  0  0  0  0
  190.9020  177.2380  140.1130 C   0  0  1  0  0  3  0  0  0  0  0  0
  187.9800  177.7250  136.0100 C   0  0  1  0  0  3  0  0  0  0  0  0
  191.8140  175.8030  138.3860 C   0  0  0  0  0  0  0  0  0  0  0  0
  190.7660  173.7520  137.5740 C   0  0  0  0  0  2  0  0  0  0  0  0
  193.8980  177.0550  138.2940 O   0  0  0  0  0  0  0  0  0  0  0  0
  193.8100  175.0710  135.7890 C   0  0  1  0  0  3  0  0  0  0  0  0
  193.0270  173.7970  135.4420 C   0  0  0  0  0  2  0  0  0  0  0  0
  193.1870  174.2130  136.8780 C   0  0  2  0  0  0  0  0  0  0  0  0
  194.0610  173.3740  137.5800 O   0  0  0  0  0  1  0  0  0  0  0  0
  195.2690  174.8110  135.6160 C   0  0  0  0  0  3  0  0  0  0  0  0
  196.1520  175.7650  135.8820 C   0  0  0  0  0  3  0  0  0  0  0  0
  197.5930  175.5410  135.7300 C   0  0  0  0  0  0  0  0  0  0  0  0
  198.1250  175.6760  134.5980 O   0  0  0  0  0  0  0  0  0  0  0  0
  198.4010  175.1740  136.8470 N   0  0  0  0  0  1  0  0  0  0  0  0
  190.8820  176.7540  141.5630 C   0  0  1  0  0  3  0  0  0  0  0  0
  191.4060  177.8370  142.4920 C   0  0  0  0  0  1  0  0  0  0  0  0
  189.5350  176.3540  141.9590 N   0  0  0  0  0  2  0  0  0  0  0  0
  189.0840  177.8720  147.9410 C   0  0  0  0  0  2  0  0  0  0  0  0
  188.8760  176.8200  143.1390 C   0  0  0  0  0  0  0  0  0  0  0  0
  187.5610  177.7800  147.9840 C   0  0  0  0  0  2  0  0  0  0  0  0
  186.9950  178.1470  146.6870 N   0  0  0  0  0  2  0  0  0  0  0  0
  189.5400  176.7310  144.3660 C   0  0  0  0  0  3  0  0  0  0  0  0
  187.5890  177.3810  143.0830 C   0  0  0  0  0  3  0  0  0  0  0  0
  188.9220  177.1910  145.5310 C   0  0  0  0  0  0  0  0  0  0  0  0
  187.6260  177.7220  145.4770 C   0  0  0  0  0  0  0  0  0  0  0  0
  189.6020  177.1370  146.7890 N   0  0  0  0  0  2  0  0  0  0  0  0
  186.9650  177.8290  144.2510 C   0  0  0  0  0  3  0  0  0  0  0  0
  186.7270  178.0300  135.4760 O   0  0  0  0  0  0  0  0  0  0  0  0
  185.5960  177.5950  136.6640 P   0  0  2  0  0  0  0  0  0  0  0  0
  185.9340  176.2280  137.2190 O   0  0  0  0  0  1  0  0  0  0  0  0
  184.0580  177.5430  135.9640 O   0  0  0  0  0  0  0  0  0  0  0  0
  183.6520  177.6700  139.1840 C   0  0  0  0  0  1  0  0  0  0  0  0
  184.7730  179.6060  139.9710 O   0  0  0  0  0  0  0  0  0  0  0  0
  184.6950  178.7290  139.0720 C   0  0  0  0  0  0  0  0  0  0  0  0
  185.6000  178.7770  137.9660 N   0  0  0  0  0  2  0  0  0  0  0  0
  1  4  1  0  0  0  0
  2 14  1  0  0  0  0
  3 13  2  0  0  0  0
  5  7  1  6  0  0  0
  5  2  1  0  0  0  0
  5 10  1  0  0  0  0
  6 11  1  0  0  0  0
  7 12  1  0  0  0  0
  8 13  1  6  0  0  0
  8 11  1  0  0  0  0
  9  6  1  0  0  0  0
 10  4  1  6  0  0  0
 10  8  1  0  0  0  0
 11 25  1  1  0  0  0
 12 38  1  1  0  0  0
 12  1  1  0  0  0  0
 13  9  1  0  0  0  0
 14  3  1  0  0  0  0
 15  9  2  0  0  0  0
 16 20  1  1  0  0  0
 16 18  1  0  0  0  0
 17 16  1  0  0  0  0
 17 18  1  0  0  0  0
 18 19  1  1  0  0  0
 18  3  1  0  0  0  0
 20 21  2  0  0  0  0
 22 21  1  0  0  0  0
 22 24  1  0  0  0  0
 23 22  2  0  0  0  0
 25 27  1  0  0  0  0
 25 26  1  1  0  0  0
 27 29  1  0  0  0  0
 28 30  1  0  0  0  0
 29 32  1  0  0  0  0
 31 30  1  0  0  0  0
 32 34  2  0  0  0  0
 33 29  2  0  0  0  0
 33 37  1  0  0  0  0
 34 36  1  0  0  0  0
 35 34  1  0  0  0  0
 35 31  1  0  0  0  0
 36 28  1  0  0  0  0
 37 35  2  0  0  0  0
 38 39  1  0  0  0  0
 39 41  2  6  0  0  0
 39 40  1  0  0  0  0
 39 45  1  0  0  0  0
 44 42  1  0  0  0  0
 44 43  2  0  0  0  0
 45 44  1  0  0  0  0
M  END
>  <MODEL>
5

>  <REMARK>
 VINA RESULT:      -6.3      5.748     10.628
  Name = 
  9 active torsions:
  status: ('A' for Active; 'I' for Inactive)
    1  A    between atoms: C_2  and  C_3
    2  A    between atoms: C_7  and  N_30
    3  A    between atoms: C_9  and  N_30
    4  A    between atoms: C_9  and  C_33
    5  A    between atoms: P_10  and  N_41
    6  A    between atoms: P_10  and  O_43
    7  A    between atoms: C_11  and  C_13
    8  A    between atoms: C_15  and  C_26
    9  A    between atoms: C_34  and  O_43
                            x       y       z     vdW  Elec       q    Type
                         _______ _______ _______ _____ _____    ______ ____

>  <TORSDO>
F 9

$$$$
=
 OpenBabel11032419453D

 45 50  0  0  1  0  0  0  0  0999 V2000
  184.4360  178.5710  143.2950 C   0  0  0  0  0  2  0  0  0  0  0  0
  180.6850  177.9590  141.4470 C   0  0  0  0  0  2  0  0  0  0  0  0
  181.0470  179.4380  139.3840 C   0  0  0  0  0  0  0  0  0  0  0  0
  184.2860  179.0470  141.9800 O   0  0  0  0  0  0  0  0  0  0  0  0
  181.9040  178.6740  142.0370 C   0  0  1  0  0  3  0  0  0  0  0  0
  184.6040  180.0490  138.7520 O   0  0  0  0  0  0  0  0  0  0  0  0
  181.9660  178.4050  143.5370 C   0  0  0  0  0  2  0  0  0  0  0  0
  183.2840  178.4130  139.8450 C   0  0  2  0  0  3  0  0  0  0  0  0
  183.3050  180.5140  138.7580 C   0  0  0  0  0  0  0  0  0  0  0  0
  183.2580  178.2850  141.3890 C   0  0  1  0  0  3  0  0  0  0  0  0
  184.6960  178.7380  139.3000 C   0  0  1  0  0  3  0  0  0  0  0  0
  183.2340  179.0040  144.1380 C   0  0  1  0  0  3  0  0  0  0  0  0
  182.4030  179.5220  139.3330 C   0  0  0  0  0  0  0  0  0  0  0  0
  180.4670  178.1600  139.9390 C   0  0  0  0  0  2  0  0  0  0  0  0
  183.0040  181.6610  138.3440 O   0  0  0  0  0  0  0  0  0  0  0  0
  180.0250  181.8720  139.3670 C   0  0  1  0  0  3  0  0  0  0  0  0
  178.9320  180.8780  139.7850 C   0  0  0  0  0  2  0  0  0  0  0  0
  180.0330  180.4400  138.8580 C   0  0  2  0  0  0  0  0  0  0  0  0
  179.5770  180.2480  137.5470 O   0  0  0  0  0  1  0  0  0  0  0  0
  179.4600  182.8320  138.3750 C   0  0  0  0  0  3  0  0  0  0  0  0
  180.2680  183.5330  137.5900 C   0  0  0  0  0  3  0  0  0  0  0  0
  179.7460  184.4800  136.6000 C   0  0  0  0  0  0  0  0  0  0  0  0
  179.7090  184.1500  135.3870 O   0  0  0  0  0  0  0  0  0  0  0  0
  179.2790  185.7690  136.9930 N   0  0  0  0  0  1  0  0  0  0  0  0
  185.1390  177.7500  138.2210 C   0  0  1  0  0  3  0  0  0  0  0  0
  184.0580  177.5980  137.1630 C   0  0  0  0  0  1  0  0  0  0  0  0
  186.3930  178.1780  137.6070 N   0  0  0  0  0  2  0  0  0  0  0  0
  190.5250  177.1890  142.1060 C   0  0  0  0  0  2  0  0  0  0  0  0
  187.6850  177.9000  138.1510 C   0  0  0  0  0  0  0  0  0  0  0  0
  191.7410  177.5030  141.2370 C   0  0  0  0  0  2  0  0  0  0  0  0
  191.4810  177.1250  139.8480 N   0  0  0  0  0  2  0  0  0  0  0  0
  187.8710  177.9840  139.5340 C   0  0  0  0  0  3  0  0  0  0  0  0
  188.7600  177.5290  137.3260 C   0  0  0  0  0  3  0  0  0  0  0  0
  189.1210  177.7060  140.0910 C   0  0  0  0  0  0  0  0  0  0  0  0
  190.1990  177.3640  139.2630 C   0  0  0  0  0  0  0  0  0  0  0  0
  189.3170  177.7540  141.5070 N   0  0  0  0  0  2  0  0  0  0  0  0
  190.0150  177.2630  137.8810 C   0  0  0  0  0  3  0  0  0  0  0  0
  183.3860  178.5480  145.4490 O   0  0  0  0  0  0  0  0  0  0  0  0
  184.9970  178.8740  145.8710 P   0  0  2  0  0  0  0  0  0  0  0  0
  185.2020  178.6260  147.3500 O   0  0  0  0  0  1  0  0  0  0  0  0
  185.3350  180.4960  145.5320 O   0  0  0  0  0  0  0  0  0  0  0  0
  187.9580  178.0160  146.6690 C   0  0  0  0  0  1  0  0  0  0  0  0
  188.1120  176.7510  144.6690 O   0  0  0  0  0  0  0  0  0  0  0  0
  187.4010  177.5020  145.3850 C   0  0  0  0  0  0  0  0  0  0  0  0
  186.0850  177.8510  144.9450 N   0  0  0  0  0  2  0  0  0  0  0  0
  1 12  1  0  0  0  0
  3 14  1  0  0  0  0
  4  1  1  0  0  0  0
  5  2  1  6  0  0  0
  5  7  1  0  0  0  0
  6  9  1  0  0  0  0
  6 11  1  0  0  0  0
  7 12  1  0  0  0  0
  8 13  1  1  0  0  0
  8 10  1  0  0  0  0
  9 13  1  0  0  0  0
 10  4  1  1  0  0  0
 10  5  1  0  0  0  0
 11 25  1  6  0  0  0
 11  8  1  0  0  0  0
 12 38  1  1  0  0  0
 13  3  2  0  0  0  0
 14  2  1  0  0  0  0
 15  9  2  0  0  0  0
 16 20  1  6  0  0  0
 16 17  1  0  0  0  0
 18 19  1  6  0  0  0
 18 16  1  0  0  0  0
 18  3  1  0  0  0  0
 18 17  1  0  0  0  0
 21 20  2  0  0  0  0
 22 24  1  0  0  0  0
 22 21  1  0  0  0  0
 23 22  2  0  0  0  0
 25 26  1  6  0  0  0
 27 29  1  0  0  0  0
 27 25  1  0  0  0  0
 29 32  1  0  0  0  0
 30 28  1  0  0  0  0
 31 30  1  0  0  0  0
 32 34  2  0  0  0  0
 33 37  1  0  0  0  0
 33 29  2  0  0  0  0
 34 36  1  0  0  0  0
 35 31  1  0  0  0  0
 35 34  1  0  0  0  0
 36 28  1  0  0  0  0
 37 35  2  0  0  0  0
 38 39  1  0  0  0  0
 39 41  2  6  0  0  0
 39 40  1  0  0  0  0
 43 44  2  0  0  0  0
 44 42  1  0  0  0  0
 45 44  1  0  0  0  0
 45 39  1  0  0  0  0
M  END
>  <MODEL>
6

>  <REMARK>
 VINA RESULT:      -6.2      3.249      7.859
  Name = 
  9 active torsions:
  status: ('A' for Active; 'I' for Inactive)
    1  A    between atoms: C_2  and  C_3
    2  A    between atoms: C_7  and  N_30
    3  A    between atoms: C_9  and  N_30
    4  A    between atoms: C_9  and  C_33
    5  A    between atoms: P_10  and  N_41
    6  A    between atoms: P_10  and  O_43
    7  A    between atoms: C_11  and  C_13
    8  A    between atoms: C_15  and  C_26
    9  A    between atoms: C_34  and  O_43
                            x       y       z     vdW  Elec       q    Type
                         _______ _______ _______ _____ _____    ______ ____

>  <TORSDO>
F 9

$$$$
=
 OpenBabel11032419453D

 45 50  0  0  1  0  0  0  0  0999 V2000
  188.9970  174.2460  136.6210 C   0  0  0  0  0  2  0  0  0  0  0  0
  187.4510  178.0090  137.7650 C   0  0  0  0  0  2  0  0  0  0  0  0
  188.5990  178.1980  140.0510 C   0  0  0  0  0  0  0  0  0  0  0  0
  189.5610  174.8490  137.7590 O   0  0  0  0  0  0  0  0  0  0  0  0
  187.8290  176.5260  137.8210 C   0  0  1  0  0  3  0  0  0  0  0  0
  191.5040  175.9790  140.3030 O   0  0  0  0  0  0  0  0  0  0  0  0
  187.0340  175.7660  136.7650 C   0  0  0  0  0  2  0  0  0  0  0  0
  190.2650  177.0370  138.5840 C   0  0  2  0  0  3  0  0  0  0  0  0
  190.4050  176.5630  140.8970 C   0  0  0  0  0  0  0  0  0  0  0  0
  189.3400  176.2370  137.6330 C   0  0  1  0  0  3  0  0  0  0  0  0
  191.5750  176.2840  138.9140 C   0  0  1  0  0  3  0  0  0  0  0  0
  187.4710  174.3050  136.7110 C   0  0  1  0  0  3  0  0  0  0  0  0
  189.6290  177.3200  139.9200 C   0  0  0  0  0  0  0  0  0  0  0  0
  188.1520  178.9080  138.7960 C   0  0  0  0  0  2  0  0  0  0  0  0
  190.1370  176.4000  142.1140 O   0  0  0  0  0  0  0  0  0  0  0  0
  186.9170  177.6980  142.0230 C   0  0  1  0  0  3  0  0  0  0  0  0
  186.4290  178.9350  141.2560 C   0  0  0  0  0  2  0  0  0  0  0  0
  187.9000  178.6280  141.3290 C   0  0  2  0  0  0  0  0  0  0  0  0
  188.5890  179.5260  142.1540 O   0  0  0  0  0  1  0  0  0  0  0  0
  186.8150  177.9590  143.4880 C   0  0  0  0  0  3  0  0  0  0  0  0
  187.5480  177.2570  144.3430 C   0  0  0  0  0  3  0  0  0  0  0  0
  187.4770  177.4920  145.7880 C   0  0  0  0  0  0  0  0  0  0  0  0
  186.3840  177.8380  146.3070 O   0  0  0  0  0  0  0  0  0  0  0  0
  188.6280  177.3320  146.6150 N   0  0  0  0  0  1  0  0  0  0  0  0
  192.8160  177.1300  138.6260 C   0  0  1  0  0  3  0  0  0  0  0  0
  193.7190  177.1820  139.8470 C   0  0  0  0  0  1  0  0  0  0  0  0
  193.5470  176.6050  137.4760 N   0  0  0  0  0  2  0  0  0  0  0  0
  195.4300  170.7320  137.9690 C   0  0  0  0  0  2  0  0  0  0  0  0
  193.6000  175.2200  137.1260 C   0  0  0  0  0  0  0  0  0  0  0  0
  195.0210  170.3440  136.5500 C   0  0  0  0  0  2  0  0  0  0  0  0
  193.8520  171.1170  136.1320 N   0  0  0  0  0  2  0  0  0  0  0  0
  194.5480  174.4000  137.7450 C   0  0  0  0  0  3  0  0  0  0  0  0
  192.7090  174.6700  136.1900 C   0  0  0  0  0  3  0  0  0  0  0  0
  194.6120  173.0410  137.4290 C   0  0  0  0  0  0  0  0  0  0  0  0
  193.7410  172.5010  136.4730 C   0  0  0  0  0  0  0  0  0  0  0  0
  195.5540  172.1840  138.0800 N   0  0  0  0  0  2  0  0  0  0  0  0
  192.7810  173.3120  135.8630 C   0  0  0  0  0  3  0  0  0  0  0  0
  186.9050  173.6920  135.5920 O   0  0  0  0  0  0  0  0  0  0  0  0
  185.6780  172.6810  136.1850 P   0  0  2  0  0  0  0  0  0  0  0  0
  185.7280  172.6450  137.6970 O   0  0  0  0  0  1  0  0  0  0  0  0
  185.9190  171.1170  135.5870 O   0  0  0  0  0  0  0  0  0  0  0  0
  182.8350  171.4850  136.9740 C   0  0  0  0  0  1  0  0  0  0  0  0
  181.7850  173.1620  135.6660 O   0  0  0  0  0  0  0  0  0  0  0  0
  182.8700  172.6740  136.0750 C   0  0  0  0  0  0  0  0  0  0  0  0
  184.1050  173.2640  135.6610 N   0  0  0  0  0  2  0  0  0  0  0  0
  1 12  1  0  0  0  0
  1  4  1  0  0  0  0
  2  5  1  0  0  0  0
  2 14  1  0  0  0  0
  3 18  1  0  0  0  0
  5  7  1  6  0  0  0
  6  9  1  0  0  0  0
  8 11  1  0  0  0  0
  8 13  1  1  0  0  0
  9 15  2  0  0  0  0
 10  4  1  1  0  0  0
 10  5  1  0  0  0  0
 10  8  1  0  0  0  0
 11 25  1  1  0  0  0
 11  6  1  0  0  0  0
 12 38  1  6  0  0  0
 12  7  1  0  0  0  0
 13  3  2  0  0  0  0
 13  9  1  0  0  0  0
 14  3  1  0  0  0  0
 16 20  1  1  0  0  0
 17 18  1  0  0  0  0
 17 16  1  0  0  0  0
 18 16  1  0  0  0  0
 18 19  1  1  0  0  0
 20 21  2  0  0  0  0
 21 22  1  0  0  0  0
 22 23  2  0  0  0  0
 22 24  1  0  0  0  0
 25 26  1  1  0  0  0
 27 25  1  0  0  0  0
 28 36  1  0  0  0  0
 29 27  1  0  0  0  0
 29 32  1  0  0  0  0
 30 28  1  0  0  0  0
 31 35  1  0  0  0  0
 31 30  1  0  0  0  0
 33 29  2  0  0  0  0
 34 32  2  0  0  0  0
 34 36  1  0  0  0  0
 35 34  1  0  0  0  0
 37 33  1  0  0  0  0
 37 35  2  0  0  0  0
 38 39  1  0  0  0  0
 39 41  2  6  0  0  0
 39 40  1  0  0  0  0
 43 44  2  0  0  0  0
 44 42  1  0  0  0  0
 45 44  1  0  0  0  0
 45 39  1  0  0  0  0
M  END
>  <MODEL>
7

>  <REMARK>
 VINA RESULT:      -6.1      5.536     11.710
  Name = 
  9 active torsions:
  status: ('A' for Active; 'I' for Inactive)
    1  A    between atoms: C_2  and  C_3
    2  A    between atoms: C_7  and  N_30
    3  A    between atoms: C_9  and  N_30
    4  A    between atoms: C_9  and  C_33
    5  A    between atoms: P_10  and  N_41
    6  A    between atoms: P_10  and  O_43
    7  A    between atoms: C_11  and  C_13
    8  A    between atoms: C_15  and  C_26
    9  A    between atoms: C_34  and  O_43
                            x       y       z     vdW  Elec       q    Type
                         _______ _______ _______ _____ _____    ______ ____

>  <TORSDO>
F 9

$$$$
=
 OpenBabel11032419453D

 45 50  0  0  1  0  0  0  0  0999 V2000
  188.0860  173.8870  136.2890 C   0  0  0  0  0  2  0  0  0  0  0  0
  186.8820  177.7410  137.5350 C   0  0  0  0  0  2  0  0  0  0  0  0
  188.4140  177.9590  139.5810 C   0  0  0  0  0  0  0  0  0  0  0  0
  188.8570  174.5040  137.2890 O   0  0  0  0  0  0  0  0  0  0  0  0
  187.2170  176.2470  137.5830 C   0  0  1  0  0  3  0  0  0  0  0  0
  191.2450  175.6400  139.4170 O   0  0  0  0  0  0  0  0  0  0  0  0
  186.2270  175.4840  136.7080 C   0  0  0  0  0  2  0  0  0  0  0  0
  189.7620  176.6890  137.8970 C   0  0  2  0  0  3  0  0  0  0  0  0
  190.2850  176.2850  140.1680 C   0  0  0  0  0  0  0  0  0  0  0  0
  188.6630  175.8940  137.1500 C   0  0  1  0  0  3  0  0  0  0  0  0
  191.0850  175.8960  138.0260 C   0  0  1  0  0  3  0  0  0  0  0  0
  186.6010  174.0070  136.6370 C   0  0  1  0  0  3  0  0  0  0  0  0
  189.3760  177.0390  139.3100 C   0  0  0  0  0  0  0  0  0  0  0  0
  187.7790  178.6450  138.3960 C   0  0  0  0  0  2  0  0  0  0  0  0
  190.2260  176.1710  141.4180 O   0  0  0  0  0  0  0  0  0  0  0  0
  187.1090  177.5750  141.8440 C   0  0  1  0  0  3  0  0  0  0  0  0
  186.5020  178.7860  141.1210 C   0  0  0  0  0  2  0  0  0  0  0  0
  187.9590  178.4570  140.9430 C   0  0  2  0  0  0  0  0  0  0  0  0
  188.7940  179.3780  141.5890 O   0  0  0  0  0  1  0  0  0  0  0  0
  187.2750  177.9020  143.2900 C   0  0  0  0  0  3  0  0  0  0  0  0
  187.9070  177.0580  144.0960 C   0  0  0  0  0  3  0  0  0  0  0  0
  188.0940  177.3510  145.5210 C   0  0  0  0  0  0  0  0  0  0  0  0
  187.1150  177.7460  146.2050 O   0  0  0  0  0  0  0  0  0  0  0  0
  189.3680  177.1940  146.1420 N   0  0  0  0  0  1  0  0  0  0  0  0
  192.2840  176.6850  137.4970 C   0  0  1  0  0  3  0  0  0  0  0  0
  193.3330  176.8500  138.5850 C   0  0  0  0  0  1  0  0  0  0  0  0
  192.8640  176.0280  136.3300 N   0  0  0  0  0  2  0  0  0  0  0  0
  198.2750  173.0400  136.6170 C   0  0  0  0  0  2  0  0  0  0  0  0
  194.2670  175.8520  136.1240 C   0  0  0  0  0  0  0  0  0  0  0  0
  199.1260  174.2950  136.4340 C   0  0  0  0  0  2  0  0  0  0  0  0
  198.4230  175.2660  135.5970 N   0  0  0  0  0  2  0  0  0  0  0  0
  194.9030  174.7470  136.6990 C   0  0  0  0  0  3  0  0  0  0  0  0
  195.0090  176.7550  135.3450 C   0  0  0  0  0  3  0  0  0  0  0  0
  196.2720  174.5470  136.5030 C   0  0  0  0  0  0  0  0  0  0  0  0
  197.0150  175.4650  135.7490 C   0  0  0  0  0  0  0  0  0  0  0  0
  196.9290  173.4030  137.0550 N   0  0  0  0  0  2  0  0  0  0  0  0
  196.3820  176.5630  135.1590 C   0  0  0  0  0  3  0  0  0  0  0  0
  185.8310  173.3800  135.6550 O   0  0  0  0  0  0  0  0  0  0  0  0
  184.5120  172.6900  136.4690 P   0  0  2  0  0  0  0  0  0  0  0  0
  184.7920  172.6420  137.9550 O   0  0  0  0  0  1  0  0  0  0  0  0
  184.2790  171.1150  135.8980 O   0  0  0  0  0  0  0  0  0  0  0  0
  181.5240  171.8810  137.2150 C   0  0  0  0  0  1  0  0  0  0  0  0
  180.7600  173.9400  136.3200 O   0  0  0  0  0  0  0  0  0  0  0  0
  181.7490  173.1980  136.5540 C   0  0  0  0  0  0  0  0  0  0  0  0
  183.0570  173.6320  136.1740 N   0  0  0  0  0  2  0  0  0  0  0  0
  1 12  1  0  0  0  0
  1  4  1  0  0  0  0
  2  5  1  0  0  0  0
  2 14  1  0  0  0  0
  3 18  1  0  0  0  0
  5  7  1  6  0  0  0
  6  9  1  0  0  0  0
  8 11  1  0  0  0  0
  8 13  1  1  0  0  0
  9 15  2  0  0  0  0
 10  4  1  1  0  0  0
 10  5  1  0  0  0  0
 10  8  1  0  0  0  0
 11 25  1  1  0  0  0
 11  6  1  0  0  0  0
 12 38  1  6  0  0  0
 12  7  1  0  0  0  0
 13  3  2  0  0  0  0
 13  9  1  0  0  0  0
 14  3  1  0  0  0  0
 16 20  1  1  0  0  0
 17 16  1  0  0  0  0
 18 17  1  0  0  0  0
 18 19  1  1  0  0  0
 18 16  1  0  0  0  0
 20 21  2  0  0  0  0
 21 22  1  0  0  0  0
 22 24  1  0  0  0  0
 22 23  2  0  0  0  0
 25 26  1  1  0  0  0
 27 25  1  0  0  0  0
 28 36  1  0  0  0  0
 29 27  1  0  0  0  0
 29 32  1  0  0  0  0
 30 28  1  0  0  0  0
 31 35  1  0  0  0  0
 31 30  1  0  0  0  0
 33 29  2  0  0  0  0
 34 32  2  0  0  0  0
 34 36  1  0  0  0  0
 35 34  1  0  0  0  0
 37 33  1  0  0  0  0
 37 35  2  0  0  0  0
 38 39  1  0  0  0  0
 39 41  2  6  0  0  0
 39 40  1  0  0  0  0
 43 44  2  0  0  0  0
 44 42  1  0  0  0  0
 45 39  1  0  0  0  0
 45 44  1  0  0  0  0
M  END
>  <MODEL>
8

>  <REMARK>
 VINA RESULT:      -6.1      6.103     12.005
  Name = 
  9 active torsions:
  status: ('A' for Active; 'I' for Inactive)
    1  A    between atoms: C_2  and  C_3
    2  A    between atoms: C_7  and  N_30
    3  A    between atoms: C_9  and  N_30
    4  A    between atoms: C_9  and  C_33
    5  A    between atoms: P_10  and  N_41
    6  A    between atoms: P_10  and  O_43
    7  A    between atoms: C_11  and  C_13
    8  A    between atoms: C_15  and  C_26
    9  A    between atoms: C_34  and  O_43
                            x       y       z     vdW  Elec       q    Type
                         _______ _______ _______ _____ _____    ______ ____

>  <TORSDO>
F 9

$$$$
=
 OpenBabel11032419453D

 45 50  0  0  1  0  0  0  0  0999 V2000
  184.4440  178.6990  143.4050 C   0  0  0  0  0  2  0  0  0  0  0  0
  180.7110  178.0150  141.5480 C   0  0  0  0  0  2  0  0  0  0  0  0
  181.0500  179.5030  139.4860 C   0  0  0  0  0  0  0  0  0  0  0  0
  184.2890  179.1730  142.0910 O   0  0  0  0  0  0  0  0  0  0  0  0
  181.9150  178.7530  142.1410 C   0  0  1  0  0  3  0  0  0  0  0  0
  184.5960  180.1840  138.8650 O   0  0  0  0  0  0  0  0  0  0  0  0
  181.9780  178.4840  143.6410 C   0  0  0  0  0  2  0  0  0  0  0  0
  183.3060  178.5210  139.9530 C   0  0  2  0  0  3  0  0  0  0  0  0
  183.2880  180.6230  138.8670 C   0  0  0  0  0  0  0  0  0  0  0  0
  183.2770  178.3910  141.4960 C   0  0  1  0  0  3  0  0  0  0  0  0
  184.7120  178.8750  139.4110 C   0  0  1  0  0  3  0  0  0  0  0  0
  183.2330  179.1070  144.2450 C   0  0  1  0  0  3  0  0  0  0  0  0
  182.4040  179.6130  139.4400 C   0  0  0  0  0  0  0  0  0  0  0  0
  180.4940  178.2130  140.0390 C   0  0  0  0  0  2  0  0  0  0  0  0
  182.9660  181.7650  138.4530 O   0  0  0  0  0  0  0  0  0  0  0  0
  180.0200  181.9320  139.4220 C   0  0  1  0  0  3  0  0  0  0  0  0
  178.9430  180.9500  139.9020 C   0  0  0  0  0  2  0  0  0  0  0  0
  180.0170  180.4840  138.9580 C   0  0  2  0  0  0  0  0  0  0  0  0
  179.5250  180.2500  137.6680 O   0  0  0  0  0  1  0  0  0  0  0  0
  179.4230  182.8590  138.4170 C   0  0  0  0  0  3  0  0  0  0  0  0
  180.1640  183.8130  137.8670 C   0  0  0  0  0  3  0  0  0  0  0  0
  179.6110  184.7370  136.8710 C   0  0  0  0  0  0  0  0  0  0  0  0
  179.2980  185.9050  137.2170 O   0  0  0  0  0  0  0  0  0  0  0  0
  179.4250  184.3300  135.5170 N   0  0  0  0  0  1  0  0  0  0  0  0
  185.1770  177.8960  138.3330 C   0  0  1  0  0  3  0  0  0  0  0  0
  184.0660  177.6480  137.3260 C   0  0  0  0  0  1  0  0  0  0  0  0
  186.3710  178.3960  137.6580 N   0  0  0  0  0  2  0  0  0  0  0  0
  191.9960  176.0900  136.5040 C   0  0  0  0  0  2  0  0  0  0  0  0
  187.7020  177.9870  137.9800 C   0  0  0  0  0  0  0  0  0  0  0  0
  192.3020  175.7560  137.9630 C   0  0  0  0  0  2  0  0  0  0  0  0
  191.6400  176.7120  138.8500 N   0  0  0  0  0  2  0  0  0  0  0  0
  188.4550  177.3090  137.0150 C   0  0  0  0  0  3  0  0  0  0  0  0
  188.2700  178.2700  139.2330 C   0  0  0  0  0  3  0  0  0  0  0  0
  189.7620  176.9100  137.3010 C   0  0  0  0  0  0  0  0  0  0  0  0
  190.3160  177.1680  138.5630 C   0  0  0  0  0  0  0  0  0  0  0  0
  190.5560  176.2460  136.3130 N   0  0  0  0  0  2  0  0  0  0  0  0
  189.5750  177.8590  139.5250 C   0  0  0  0  0  3  0  0  0  0  0  0
  183.3900  178.6540  145.5570 O   0  0  0  0  0  0  0  0  0  0  0  0
  185.0500  178.7580  145.8900 P   0  0  2  0  0  0  0  0  0  0  0  0
  185.3010  178.4720  147.3540 O   0  0  0  0  0  1  0  0  0  0  0  0
  185.5830  180.3230  145.5330 O   0  0  0  0  0  0  0  0  0  0  0  0
  188.1730  178.1460  146.0110 C   0  0  0  0  0  1  0  0  0  0  0  0
  187.9060  176.5280  144.2980 O   0  0  0  0  0  0  0  0  0  0  0  0
  187.3470  177.3830  145.0320 C   0  0  0  0  0  0  0  0  0  0  0  0
  185.9400  177.6060  144.9040 N   0  0  0  0  0  2  0  0  0  0  0  0
  1 12  1  0  0  0  0
  3 14  1  0  0  0  0
  4  1  1  0  0  0  0
  5  2  1  6  0  0  0
  5  7  1  0  0  0  0
  6  9  1  0  0  0  0
  6 11  1  0  0  0  0
  7 12  1  0  0  0  0
  8 13  1  1  0  0  0
  8 10  1  0  0  0  0
  9 13  1  0  0  0  0
 10  4  1  1  0  0  0
 10  5  1  0  0  0  0
 11 25  1  6  0  0  0
 11  8  1  0  0  0  0
 12 38  1  1  0  0  0
 13  3  2  0  0  0  0
 14  2  1  0  0  0  0
 15  9  2  0  0  0  0
 16 20  1  6  0  0  0
 16 17  1  0  0  0  0
 18 19  1  6  0  0  0
 18 16  1  0  0  0  0
 18  3  1  0  0  0  0
 18 17  1  0  0  0  0
 21 20  2  0  0  0  0
 22 23  2  0  0  0  0
 22 21  1  0  0  0  0
 24 22  1  0  0  0  0
 25 26  1  6  0  0  0
 27 29  1  0  0  0  0
 27 25  1  0  0  0  0
 28 30  1  0  0  0  0
 29 33  1  0  0  0  0
 30 31  1  0  0  0  0
 32 34  1  0  0  0  0
 32 29  2  0  0  0  0
 33 37  2  0  0  0  0
 34 35  2  0  0  0  0
 35 31  1  0  0  0  0
 35 37  1  0  0  0  0
 36 28  1  0  0  0  0
 36 34  1  0  0  0  0
 38 39  1  0  0  0  0
 39 41  2  6  0  0  0
 39 40  1  0  0  0  0
 43 44  2  0  0  0  0
 44 42  1  0  0  0  0
 45 44  1  0  0  0  0
 45 39  1  0  0  0  0
M  END
>  <MODEL>
9

>  <REMARK>
 VINA RESULT:      -6.0      3.628      7.985
  Name = 
  9 active torsions:
  status: ('A' for Active; 'I' for Inactive)
    1  A    between atoms: C_2  and  C_3
    2  A    between atoms: C_7  and  N_30
    3  A    between atoms: C_9  and  N_30
    4  A    between atoms: C_9  and  C_33
    5  A    between atoms: P_10  and  N_41
    6  A    between atoms: P_10  and  O_43
    7  A    between atoms: C_11  and  C_13
    8  A    between atoms: C_15  and  C_26
    9  A    between atoms: C_34  and  O_43
                            x       y       z     vdW  Elec       q    Type
                         _______ _______ _______ _____ _____    ______ ____

>  <TORSDO>
F 9

$$$$
